AV-unprocessed.smi:1406|AV-procd|sdf|5716|dock3
  -GOLD-   22720 5353D 1   1.00000     0.00000
 Structure written by MMmdl.
 41 43  0  0  0  0  0  0  0  0  2 V2000
  149.3996  139.4402  157.7740 C   0  0  0  0  0  0  0  0  0  0  0  0
  150.2794  140.0706  156.6754 C   0  0  1  0  0  0  0  0  0  0  0  0
  151.3437  141.0259  157.2386 C   0  0  0  0  0  0  0  0  0  0  0  0
  152.5198  140.6740  157.3359 O   0  0  0  0  0  0  0  0  0  0  0  0
  150.9117  142.2402  157.6165 N   0  0  0  0  0  0  0  0  0  0  0  0
  151.7565  143.3103  158.1432 C   0  0  1  0  0  0  0  0  0  0  0  0
  150.9692  144.5950  158.4642 C   0  0  0  0  0  0  0  0  0  0  0  0
  151.5863  145.1093  159.7689 C   0  0  0  0  0  0  0  0  0  0  0  0
  151.9508  143.8716  160.4680 N   0  3  2  0  0  0  0  0  0  0  0  0
  152.7996  143.9621  161.6732 C   0  0  0  0  0  0  0  0  0  0  0  0
  152.8741  142.5626  162.3212 C   0  0  0  0  0  0  0  0  0  0  0  0
  153.3047  141.4720  161.3137 C   0  0  0  0  0  0  0  0  0  0  0  0
  152.4629  141.5183  160.0197 C   0  0  0  0  0  0  0  0  0  0  0  0
  152.4941  142.9499  159.4552 C   0  0  1  0  0  0  0  0  0  0  0  0
  150.9026  139.0624  155.8268 N   0  0  0  0  0  0  0  0  0  0  0  0
  151.4054  137.8668  156.1423 C   0  0  0  0  0  0  0  0  0  0  0  0
  151.8600  137.1817  155.1026 N   0  0  0  0  0  0  0  0  0  0  0  0
  151.5811  138.0711  154.1039 C   0  0  0  0  0  0  0  0  0  0  0  0
  150.9977  139.2084  154.4815 N   0  0  0  0  0  0  0  0  0  0  0  0
  148.8968  140.2078  158.3636 H   0  0  0  0  0  0  0  0  0  0  0  0
  149.9798  138.8230  158.4613 H   0  0  0  0  0  0  0  0  0  0  0  0
  148.6269  138.8077  157.3361 H   0  0  0  0  0  0  0  0  0  0  0  0
  149.6208  140.6627  156.0379 H   0  0  0  0  0  0  0  0  0  0  0  0
  149.9294  142.4461  157.5053 H   0  0  0  0  0  0  0  0  0  0  0  0
  152.5065  143.5644  157.3912 H   0  0  0  0  0  0  0  0  0  0  0  0
  151.0182  145.3307  157.6607 H   0  0  0  0  0  0  0  0  0  0  0  0
  149.9163  144.3622  158.6328 H   0  0  0  0  0  0  0  0  0  0  0  0
  152.4833  145.6966  159.5656 H   0  0  0  0  0  0  0  0  0  0  0  0
  150.8950  145.7195  160.3508 H   0  0  0  0  0  0  0  0  0  0  0  0
  153.7943  144.3232  161.4076 H   0  0  0  0  0  0  0  0  0  0  0  0
  152.3700  144.6790  162.3739 H   0  0  0  0  0  0  0  0  0  0  0  0
  153.5591  142.5795  163.1695 H   0  0  0  0  0  0  0  0  0  0  0  0
  151.8944  142.3040  162.7252 H   0  0  0  0  0  0  0  0  0  0  0  0
  154.3567  141.6134  161.0623 H   0  0  0  0  0  0  0  0  0  0  0  0
  153.2306  140.4863  161.7740 H   0  0  0  0  0  0  0  0  0  0  0  0
  152.8657  140.8104  159.2950 H   0  0  0  0  0  0  0  0  0  0  0  0
  151.4365  141.2132  160.2282 H   0  0  0  0  0  0  0  0  0  0  0  0
  153.5405  143.2198  159.2964 H   0  0  0  0  0  0  0  0  0  0  0  0
  151.4358  137.4874  157.1531 H   0  0  0  0  0  0  0  0  0  0  0  0
  151.8083  137.8713  153.0671 H   0  0  0  0  0  0  0  0  0  0  0  0
  151.0746  143.4683  160.7678 H   0  0  0  0  0  0  0  0  0  0  0  0
  1  2  1  0  0  0  0
  1 20  1  0  0  0  0
  1 21  1  0  0  0  0
  1 22  1  0  0  0  0
  2  3  1  0  0  0  0
  2 15  1  0  0  0  0
  2 23  1  0  0  0  0
  3  4  2  0  0  0  0
  3  5  1  0  0  0  0
  5  6  1  0  0  0  0
  5 24  1  0  0  0  0
  6 14  1  0  0  0  0
  6  7  1  0  0  0  0
  6 25  1  0  0  0  0
  7  8  1  0  0  0  0
  7 26  1  0  0  0  0
  7 27  1  0  0  0  0
  8  9  1  0  0  0  0
  8 28  1  0  0  0  0
  8 29  1  0  0  0  0
  9 14  1  0  0  0  0
  9 10  1  0  0  0  0
  9 41  1  0  0  0  0
 10 11  1  0  0  0  0
 10 30  1  0  0  0  0
 10 31  1  0  0  0  0
 11 12  1  0  0  0  0
 11 32  1  0  0  0  0
 11 33  1  0  0  0  0
 12 13  1  0  0  0  0
 12 34  1  0  0  0  0
 12 35  1  0  0  0  0
 13 14  1  0  0  0  0
 13 36  1  0  0  0  0
 13 37  1  0  0  0  0
 14 38  1  0  0  0  0
 15 19  1  0  0  0  0
 15 16  1  0  0  0  0
 16 17  2  0  0  0  0
 16 39  1  0  0  0  0
 17 18  1  0  0  0  0
 18 19  2  0  0  0  0
 18 40  1  0  0  0  0
M  CHG  1   9   1
M  END
> <s_m_source_file>
AV-unprocessed.smi

> <i_m_source_file_index>
1406

> <i_lp_mmshare_version>
43012

> <i_f3d_flags>
0

> <s_epik_input>
bjFbY0hdbltjSF1uMVtDQEhdKFtDSDNdKUMoPU8pW05IXVtDQEhdKFtDSDJdW0NIMl0yKVtDQEBIXShOMjMpW0NIMl1bQ0gyXVtDSDJdW0NIMl0z

> <s_epik_cmdline>
J2VwaWtfcHl0aG9uJywgJy1waCcsICc3LjAnLCAnLXRuJywgJzgnLCAnLW1hJywgJzIwMCcsICctbWV0YWxfYmluZGluZycsICctaW1hZScsICc8aW5maWxlLm1hZT4nLCAnLW9tYWUnLCAnPG91dGZpbGUubWFlPic=

> <r_lp_tautomer_probability>
1

> <r_epik_Ionization_Penalty>
0.00197066

> <r_epik_Ionization_Penalty_Charging>
0.00196223

> <r_epik_Ionization_Penalty_Neutral>
8.43107e-06

> <r_epik_State_Penalty>
0.00133866

> <r_epik_Charging_Adjusted_Penalty>
0.00330089

> <i_epik_Tot_Q>
1

> <i_epik_Tot_abs_Q>
1

> <r_epik_Metal_State_Penalty>
-0

> <b_epik_Metal_Only>
0

> <s_lp_Force_Field>
OPLS_2005

> <r_lp_Energy>
47.4686

> <b_lp_Chiralities_Consistent>
1

> <s_lp_Variant>
AV-unprocessed.smi:1406-8

> <Gold.Version>
5.8.1

> <Gold.Id.Protein>
6NUR|6NUR_protein|mol2

> <Gold.PLP.Fitness>
45.8341

> <Gold.PLP.PLP>
-37.0212

> <Gold.PLP.part.hbond>
-3.0000

> <Gold.PLP.part.metal>
0.0000

> <Gold.PLP.part.buried>
-4.2422

> <Gold.PLP.part.nonpolar>
-28.9535

> <Gold.PLP.part.repulsive>
0.3077

> <Gold.PLP.ligand.clash>
0.0000

> <Gold.PLP.ligand.torsion>
1.2134

> <Gold.PLP.Chemscore.Hbond>
2.7149

> <Gold.PLP.Chemscore.CHOScore>
0.9994

> <Gold.PLP.Chemscore.Metal>
0.0000

> <Gold.Chemscore.Hbonds>
donor molecule, donor type, donor heavy atom, donor atom, acceptor molecule, acceptor atom, score
      P1  H  7989  7998       L1    19  1.00
      P1  H  7997  8010       L1     4  0.74
      P1  H 10752 10764       L1    17  0.98
      L1  C    18    40       P1  7949  1.00

> <Gold.PLP.Chemscore.Internal.Correction>
0.0968

> <Gold.Rescore>
     Score         DG    S(hbond)    S(metal)    S(lipo)     H(rot)  DE(clash)    DE(int)     intcor
     16.54     -20.18       2.67        0.00      90.57       1.89       1.33       2.31       ----

> <Gold.Chemscore.Fitness>
16.5371

> <Gold.Chemscore.DG>
-20.1761

> <Gold.Chemscore.ZeroCoef>
-5.4800

> <Gold.Chemscore.Hbond>
2.6733

> <Gold.Chemscore.Metal>
0.0000

> <Gold.Chemscore.Lipo>
90.5704

> <Gold.Chemscore.Internal_Hbond>
0.0000

> <Gold.Chemscore.DEClash>
1.3333

> <Gold.Chemscore.DEInternal>
2.3056

> <Gold.Chemscore.Rot>
1.8865

> <Gold.Chemscore.Internal.Correction>
   9.000000E+99

> <Gold.Chemscore.Hbonds>
donor molecule, donor type, donor heavy atom, donor atom, acceptor molecule, acceptor atom, score
      P1  H  7989  7998       L1    19  0.82
      P1  H  7997  8010       L1     4  0.70
      P1  H 10752 10764       L1    17  0.77

> <Gold.Chemscore.Hbond.Weighted>
-8.9289

> <Gold.Chemscore.Metal.Weighted>
-0.0000

> <Gold.Chemscore.Lipo.Weighted>
-10.5967

> <Gold.Chemscore.Internal_Hbond.Weighted>
0.0000

> <Gold.Chemscore.DEClash.Weighted>
1.3333

> <Gold.Chemscore.DEInternal.Weighted>
2.3056

> <Gold.Chemscore.Rot.Weighted>
4.8295

> <Gold.Chemscore.Internal.Correction.Weighted>
   9.000000E+99

> <Gold.Protein.RotatedTorsions>
[ 6907 6896 6895 6894 ] final  -21.20 input  -60.11 | X-H torsion
[ 7974 7965 7964 7962 ] final   96.98 input  175.53 | X-H torsion
[ 8008 7997 7996 7995 ] final   60.35 input   59.86 | X-H torsion
[ 10167 10162 10161 10158 ] final   11.02 input  -65.29 | X-H torsion
[ 10718 10713 10712 10709 ] final  172.51 input   66.30 | X-H torsion
[ 10763 10752 10751 10750 ] final  -65.79 input  -60.55 | X-H torsion
[ 11005 11000 10999 10996 ] final  -48.98 input  -57.11 | X-H torsion

> <Gold.Protein.ActiveResidues>
 VAL166  LYS551  ARG553  GLY616  TRP617  ASP618  TYR619  PRO620  LYS621  CYS622 
 ASP623  PHE694  ASN695  SER759  ASP760  ASP761  ALA762  ILE779  LEU786  VAL792 
 PHE793  MET794  SER795  GLU796  ALA797  LYS798  CYS799  TRP800  GLU811  SER814 

> <Gold.Protein.RotatedAtoms>
  151.2369  135.0575  159.9009 H   0  0  0  0  0  0  0  0  0  0  0  0  # atno 6907 bound_to 6896
  152.5398  134.0477  159.8106 H   0  0  0  0  0  0  0  0  0  0  0  0  # atno 6908 bound_to 6896
  151.0664  133.5453  159.2662 H   0  0  0  0  0  0  0  0  0  0  0  0  # atno 6909 bound_to 6896
  145.4316  139.2310  143.3141 H   0  0  0  0  0  0  0  0  0  0  0  0  # atno 7974 bound_to 7965
  155.5809  140.3491  155.4540 H   0  0  0  0  0  0  0  0  0  0  0  0  # atno 8008 bound_to 7997
  156.0374  140.1288  157.0218 H   0  0  0  0  0  0  0  0  0  0  0  0  # atno 8009 bound_to 7997
  154.4377  140.1031  156.6173 H   0  0  0  0  0  0  0  0  0  0  0  0  # atno 8010 bound_to 7997
  140.6158  143.8311  150.7117 H   0  0  0  0  0  0  0  0  0  0  0  0  # atno 10167 bound_to 10162
  156.9779  131.0110  151.2889 H   0  0  0  0  0  0  0  0  0  0  0  0  # atno 10718 bound_to 10713
  154.3503  135.6138  153.5639 H   0  0  0  0  0  0  0  0  0  0  0  0  # atno 10763 bound_to 10752
  152.9798  135.5791  154.4751 H   0  0  0  0  0  0  0  0  0  0  0  0  # atno 10764 bound_to 10752
  154.4471  135.2852  155.1785 H   0  0  0  0  0  0  0  0  0  0  0  0  # atno 10765 bound_to 10752
  141.0732  133.6673  156.3519 H   0  0  0  0  0  0  0  0  0  0  0  0  # atno 11005 bound_to 11000
  146.2604  140.5054  142.8856 LP  0  0  0  0  0  0  0  0  0  0  0  0  # atno 17320 bound_to 7965
  144.8179  140.6499  143.6372 LP  0  0  0  0  0  0  0  0  0  0  0  0  # atno 17321 bound_to 7965
  140.1889  143.4052  152.1877 LP  0  0  0  0  0  0  0  0  0  0  0  0  # atno 17342 bound_to 10162
  139.5397  144.7245  151.4773 LP  0  0  0  0  0  0  0  0  0  0  0  0  # atno 17343 bound_to 10162
  157.5547  130.8205  149.8189 LP  0  0  0  0  0  0  0  0  0  0  0  0  # atno 17370 bound_to 10713
  156.0256  130.3780  150.1833 LP  0  0  0  0  0  0  0  0  0  0  0  0  # atno 17371 bound_to 10713
  140.5628  134.5917  157.5438 LP  0  0  0  0  0  0  0  0  0  0  0  0  # atno 17394 bound_to 11000
  139.9545  134.7559  156.0373 LP  0  0  0  0  0  0  0  0  0  0  0  0  # atno 17395 bound_to 11000

$$$$
