AV-unprocessed.smi:1762|AV-procd|sdf|7109|dock6
  -GOLD-   22720 8333D 1   1.00000     0.00000
 Structure written by MMmdl.
 53 54  0  0  0  0  0  0  0  0  2 V2000
  147.0710  136.1074  156.8394 C   0  0  0  0  0  0  0  0  0  0  0  0
  147.4557  135.8700  155.3682 C   0  0  1  0  0  0  0  0  0  0  0  0
  147.5069  137.1651  154.5335 C   0  0  0  0  0  0  0  0  0  0  0  0
  148.6759  138.0044  154.8261 N   0  0  0  0  0  0  0  0  0  0  0  0
  148.6958  139.2677  154.0360 C   0  0  2  0  0  0  0  0  0  0  0  0
  149.6746  140.3236  154.6016 C   0  0  0  0  0  0  0  0  0  0  0  0
  149.8405  141.3963  154.0199 O   0  0  0  0  0  0  0  0  0  0  0  0
  150.2900  140.0175  155.7549 N   0  0  0  0  0  0  0  0  0  0  0  0
  151.2168  140.8912  156.4632 C   0  0  0  0  0  0  0  0  0  0  0  0
  150.7362  142.3524  156.4488 C   0  0  0  0  0  0  0  0  0  0  0  0
  151.1291  143.0984  157.7086 C   0  0  0  0  0  0  0  0  0  0  0  0
  152.1041  142.6019  158.6009 C   0  0  0  0  0  0  0  0  0  0  0  0
  152.4193  143.3430  159.7590 C   0  0  0  0  0  0  0  0  0  0  0  0
  151.7525  144.5619  160.0012 C   0  0  0  0  0  0  0  0  0  0  0  0
  150.7859  145.0097  159.0778 C   0  0  0  0  0  0  0  0  0  0  0  0
  150.5122  144.2715  157.9795 N   0  3  0  0  0  0  0  0  0  0  0  0
  147.2899  139.9026  153.7660 C   0  0  0  0  0  0  0  0  0  0  0  0
  147.0714  140.3106  152.2949 C   0  0  0  0  0  0  0  0  0  0  0  0
  146.9427  141.0750  154.7047 C   0  0  0  0  0  0  0  0  0  0  0  0
  149.8877  137.1793  154.6866 C   0  0  0  0  0  0  0  0  0  0  0  0
  149.8478  135.9094  155.5561 C   0  0  2  0  0  0  0  0  0  0  0  0
  151.0680  135.0106  155.3255 C   0  0  0  0  0  0  0  0  0  0  0  0
  148.6820  135.1535  155.2470 O   0  0  0  0  0  0  0  0  0  0  0  0
  146.0731  136.5399  156.9135 H   0  0  0  0  0  0  0  0  0  0  0  0
  147.7571  136.7912  157.3390 H   0  0  0  0  0  0  0  0  0  0  0  0
  147.0668  135.1703  157.3963 H   0  0  0  0  0  0  0  0  0  0  0  0
  146.6858  135.2271  154.9405 H   0  0  0  0  0  0  0  0  0  0  0  0
  147.5033  136.9027  153.4742 H   0  0  0  0  0  0  0  0  0  0  0  0
  146.5791  137.7018  154.7205 H   0  0  0  0  0  0  0  0  0  0  0  0
  149.0893  139.0079  153.0507 H   0  0  0  0  0  0  0  0  0  0  0  0
  150.0962  139.1179  156.1711 H   0  0  0  0  0  0  0  0  0  0  0  0
  151.3004  140.5341  157.4900 H   0  0  0  0  0  0  0  0  0  0  0  0
  152.2126  140.8109  156.0238 H   0  0  0  0  0  0  0  0  0  0  0  0
  151.1480  142.8785  155.5863 H   0  0  0  0  0  0  0  0  0  0  0  0
  149.6512  142.3883  156.3391 H   0  0  0  0  0  0  0  0  0  0  0  0
  152.6047  141.6650  158.4022 H   0  0  0  0  0  0  0  0  0  0  0  0
  153.1633  142.9806  160.4532 H   0  0  0  0  0  0  0  0  0  0  0  0
  151.9797  145.1446  160.8821 H   0  0  0  0  0  0  0  0  0  0  0  0
  150.2282  145.9288  159.1834 H   0  0  0  0  0  0  0  0  0  0  0  0
  146.5407  139.1309  153.9351 H   0  0  0  0  0  0  0  0  0  0  0  0
  147.6811  141.1689  152.0111 H   0  0  0  0  0  0  0  0  0  0  0  0
  146.0306  140.5836  152.1188 H   0  0  0  0  0  0  0  0  0  0  0  0
  147.3113  139.4897  151.6185 H   0  0  0  0  0  0  0  0  0  0  0  0
  147.5831  141.9394  154.5316 H   0  0  0  0  0  0  0  0  0  0  0  0
  147.0396  140.7925  155.7530 H   0  0  0  0  0  0  0  0  0  0  0  0
  145.9131  141.3999  154.5531 H   0  0  0  0  0  0  0  0  0  0  0  0
  150.0256  136.9039  153.6395 H   0  0  0  0  0  0  0  0  0  0  0  0
  150.7808  137.7276  154.9841 H   0  0  0  0  0  0  0  0  0  0  0  0
  149.8293  136.1915  156.6092 H   0  0  0  0  0  0  0  0  0  0  0  0
  151.9939  135.5364  155.5602 H   0  0  0  0  0  0  0  0  0  0  0  0
  151.1242  134.6788  154.2884 H   0  0  0  0  0  0  0  0  0  0  0  0
  151.0216  134.1233  155.9569 H   0  0  0  0  0  0  0  0  0  0  0  0
  149.8091  144.6146  157.3246 H   0  0  0  0  0  0  0  0  0  0  0  0
  1  2  1  0  0  0  0
  1 24  1  0  0  0  0
  1 25  1  0  0  0  0
  1 26  1  0  0  0  0
  2 23  1  0  0  0  0
  2  3  1  0  0  0  0
  2 27  1  0  0  0  0
  3  4  1  0  0  0  0
  3 28  1  0  0  0  0
  3 29  1  0  0  0  0
  4  5  1  0  0  0  0
  4 20  1  0  0  0  0
  5  6  1  0  0  0  0
  5 17  1  0  0  0  0
  5 30  1  0  0  0  0
  6  7  2  0  0  0  0
  6  8  1  0  0  0  0
  8  9  1  0  0  0  0
  8 31  1  0  0  0  0
  9 10  1  0  0  0  0
  9 32  1  0  0  0  0
  9 33  1  0  0  0  0
 10 11  1  0  0  0  0
 10 34  1  0  0  0  0
 10 35  1  0  0  0  0
 11 16  1  0  0  0  0
 11 12  2  0  0  0  0
 12 13  1  0  0  0  0
 12 36  1  0  0  0  0
 13 14  2  0  0  0  0
 13 37  1  0  0  0  0
 14 15  1  0  0  0  0
 14 38  1  0  0  0  0
 15 16  2  0  0  0  0
 15 39  1  0  0  0  0
 16 53  1  0  0  0  0
 17 18  1  0  0  0  0
 17 19  1  0  0  0  0
 17 40  1  0  0  0  0
 18 41  1  0  0  0  0
 18 42  1  0  0  0  0
 18 43  1  0  0  0  0
 19 44  1  0  0  0  0
 19 45  1  0  0  0  0
 19 46  1  0  0  0  0
 20 21  1  0  0  0  0
 20 47  1  0  0  0  0
 20 48  1  0  0  0  0
 21 22  1  0  0  0  0
 21 23  1  0  0  0  0
 21 49  1  0  0  0  0
 22 50  1  0  0  0  0
 22 51  1  0  0  0  0
 22 52  1  0  0  0  0
M  CHG  1  16   1
M  END
> <s_m_source_file>
AV-unprocessed.smi

> <i_m_source_file_index>
1762

> <i_lp_mmshare_version>
43012

> <i_f3d_flags>
0

> <s_epik_input>
W0NIM11bQ0BASF0xW0NIMl1OKFtDSDJdW0NASF0oTzEpW0NIM10pW0NAQEhdKFtDSF0oW0NIM10pW0NIM10pQyg9TylbTkhdW0NIMl1bQ0gyXWMyW2NIXVtjSF1bY0hdW2NIXW4y

> <s_epik_cmdline>
J2VwaWtfcHl0aG9uJywgJy1waCcsICc3LjAnLCAnLXRuJywgJzgnLCAnLW1hJywgJzIwMCcsICctbWV0YWxfYmluZGluZycsICctaW1hZScsICc8aW5maWxlLm1hZT4nLCAnLW9tYWUnLCAnPG91dGZpbGUubWFlPic=

> <r_epik_Ionization_Penalty>
1.86475

> <r_epik_Ionization_Penalty_Charging>
1.85347

> <r_epik_Ionization_Penalty_Neutral>
0.0112771

> <r_epik_State_Penalty>
1.99714

> <r_epik_Charging_Adjusted_Penalty>
3.85061

> <i_epik_Tot_Q>
1

> <i_epik_Tot_abs_Q>
1

> <r_epik_Metal_State_Penalty>
2.02271

> <b_epik_Metal_Only>
0

> <s_lp_Force_Field>
OPLS_2005

> <r_lp_Energy>
35.2583

> <b_lp_Chiralities_Consistent>
1

> <s_lp_Variant>
AV-unprocessed.smi:1762-11

> <Gold.Version>
5.8.1

> <Gold.Id.Protein>
6NUR|6NUR_protein|mol2

> <Gold.PLP.Fitness>
41.5806

> <Gold.PLP.PLP>
-36.2962

> <Gold.PLP.part.hbond>
-2.9039

> <Gold.PLP.part.metal>
0.0000

> <Gold.PLP.part.buried>
-1.4305

> <Gold.PLP.part.nonpolar>
-33.1176

> <Gold.PLP.part.repulsive>
0.4567

> <Gold.PLP.ligand.clash>
0.0000

> <Gold.PLP.ligand.torsion>
2.0010

> <Gold.PLP.Chemscore.Hbond>
2.9764

> <Gold.PLP.Chemscore.CHOScore>
0.0000

> <Gold.PLP.Chemscore.Metal>
0.0000

> <Gold.Chemscore.Hbonds>
donor molecule, donor type, donor heavy atom, donor atom, acceptor molecule, acceptor atom, score
      L1  H    16    53       P1  8028  1.60
      P1  H  7989  7998       L1     7  0.18
      P1  H  8011  8017       L1     7  0.67

> <Gold.PLP.Chemscore.Internal.Correction>
0.3571

> <Gold.Rescore>
     Score         DG    S(hbond)    S(metal)    S(lipo)     H(rot)  DE(clash)    DE(int)     intcor
     14.11     -18.82       1.58        0.00     106.56       1.72       0.37       4.34       ----

> <Gold.Chemscore.Fitness>
14.1098

> <Gold.Chemscore.DG>
-18.8213

> <Gold.Chemscore.ZeroCoef>
-5.4800

> <Gold.Chemscore.Hbond>
1.5779

> <Gold.Chemscore.Metal>
0.0000

> <Gold.Chemscore.Lipo>
106.5612

> <Gold.Chemscore.Internal_Hbond>
0.0000

> <Gold.Chemscore.DEClash>
0.3714

> <Gold.Chemscore.DEInternal>
4.3401

> <Gold.Chemscore.Rot>
1.7174

> <Gold.Chemscore.Internal.Correction>
   9.000000E+99

> <Gold.Chemscore.Hbonds>
donor molecule, donor type, donor heavy atom, donor atom, acceptor molecule, acceptor atom, score
      L1  H    16    53       P1  8028  0.12
      P1  H  7989  7998       L1     7  0.01
      P1  H  8011  8017       L1     7  0.67

> <Gold.Chemscore.Hbond.Weighted>
-5.2702

> <Gold.Chemscore.Metal.Weighted>
-0.0000

> <Gold.Chemscore.Lipo.Weighted>
-12.4677

> <Gold.Chemscore.Internal_Hbond.Weighted>
0.0000

> <Gold.Chemscore.DEClash.Weighted>
0.3714

> <Gold.Chemscore.DEInternal.Weighted>
4.3401

> <Gold.Chemscore.Rot.Weighted>
4.3966

> <Gold.Chemscore.Internal.Correction.Weighted>
   9.000000E+99

> <Gold.Protein.RotatedTorsions>
[ 6907 6896 6895 6894 ] final   32.91 input  -60.11 | X-H torsion
[ 7974 7965 7964 7962 ] final   86.99 input  175.53 | X-H torsion
[ 8008 7997 7996 7995 ] final  -85.22 input   59.86 | X-H torsion
[ 10167 10162 10161 10158 ] final -125.70 input  -65.29 | X-H torsion
[ 10718 10713 10712 10709 ] final   22.72 input   66.30 | X-H torsion
[ 10763 10752 10751 10750 ] final -177.90 input  -60.55 | X-H torsion
[ 11005 11000 10999 10996 ] final -141.00 input  -57.11 | X-H torsion

> <Gold.Protein.ActiveResidues>
 VAL166  LYS551  ARG553  GLY616  TRP617  ASP618  TYR619  PRO620  LYS621  CYS622 
 ASP623  PHE694  ASN695  SER759  ASP760  ASP761  ALA762  ILE779  LEU786  VAL792 
 PHE793  MET794  SER795  GLU796  ALA797  LYS798  CYS799  TRP800  GLU811  SER814 

> <Gold.Protein.RotatedAtoms>
  152.0811  134.9470  160.0573 H   0  0  0  0  0  0  0  0  0  0  0  0  # atno 6907 bound_to 6896
  152.0758  133.4124  159.4487 H   0  0  0  0  0  0  0  0  0  0  0  0  # atno 6908 bound_to 6896
  150.6836  134.2958  159.4729 H   0  0  0  0  0  0  0  0  0  0  0  0  # atno 6909 bound_to 6896
  145.5649  139.2307  143.2439 H   0  0  0  0  0  0  0  0  0  0  0  0  # atno 7974 bound_to 7965
  154.6383  140.0594  156.9815 H   0  0  0  0  0  0  0  0  0  0  0  0  # atno 8008 bound_to 7997
  155.1557  140.3278  155.4403 H   0  0  0  0  0  0  0  0  0  0  0  0  # atno 8009 bound_to 7997
  156.2518  140.1939  156.6666 H   0  0  0  0  0  0  0  0  0  0  0  0  # atno 8010 bound_to 7997
  139.9793  143.5760  152.2384 H   0  0  0  0  0  0  0  0  0  0  0  0  # atno 10167 bound_to 10162
  157.1562  130.6696  149.6028 H   0  0  0  0  0  0  0  0  0  0  0  0  # atno 10718 bound_to 10713
  154.5544  135.2815  155.0978 H   0  0  0  0  0  0  0  0  0  0  0  0  # atno 10763 bound_to 10752
  154.2411  135.6356  153.5211 H   0  0  0  0  0  0  0  0  0  0  0  0  # atno 10764 bound_to 10752
  153.0011  135.5560  154.6120 H   0  0  0  0  0  0  0  0  0  0  0  0  # atno 10765 bound_to 10752
  140.8367  134.2451  157.4830 H   0  0  0  0  0  0  0  0  0  0  0  0  # atno 11005 bound_to 11000
  146.1825  140.6474  142.9182 LP  0  0  0  0  0  0  0  0  0  0  0  0  # atno 17320 bound_to 7965
  144.7465  140.5082  143.6832 LP  0  0  0  0  0  0  0  0  0  0  0  0  # atno 17321 bound_to 7965
  139.6422  144.7655  151.2316 LP  0  0  0  0  0  0  0  0  0  0  0  0  # atno 17342 bound_to 10162
  140.7495  143.6298  150.8434 LP  0  0  0  0  0  0  0  0  0  0  0  0  # atno 17343 bound_to 10162
  155.9761  130.4727  150.6509 LP  0  0  0  0  0  0  0  0  0  0  0  0  # atno 17370 bound_to 10713
  157.4174  131.0832  151.1163 LP  0  0  0  0  0  0  0  0  0  0  0  0  # atno 17371 bound_to 10713
  139.8704  134.9614  156.4396 LP  0  0  0  0  0  0  0  0  0  0  0  0  # atno 17394 bound_to 11000
  140.8939  133.7828  155.9603 LP  0  0  0  0  0  0  0  0  0  0  0  0  # atno 17395 bound_to 11000

$$$$
