AV-unprocessed.smi:3168|AV-procd|sdf|12102|dock8
  -GOLD-   2272017533D 1   1.00000     0.00000
 Structure written by MMmdl.
 33 34  0  0  0  0  0  0  0  0  1 V2000
  148.3648  141.2636  154.5978 C   0  0  0  0  0  0  0  0  0  0  0  0
  149.7861  141.2801  155.1973 C   0  0  1  0  0  0  0  0  0  0  0  0
  149.8029  141.5850  156.7068 C   0  0  0  0  0  0  0  0  0  0  0  0
  149.4008  140.7547  157.5228 O   0  0  0  0  0  0  0  0  0  0  0  0
  150.2590  142.7960  157.0663 N   0  0  0  0  0  0  0  0  0  0  0  0
  150.3467  143.2900  158.4350 C   0  0  0  0  0  0  0  0  0  0  0  0
  151.4088  142.5266  159.2424 C   0  0  1  0  0  0  0  0  0  0  0  0
  152.8436  142.8958  158.8718 C   0  0  0  0  0  0  0  0  0  0  0  0
  153.5875  142.5255  160.1343 C   0  0  0  0  0  0  0  0  0  0  0  0
  152.5967  142.9481  161.2153 C   0  0  0  0  0  0  0  0  0  0  0  0
  151.3016  142.8337  160.6308 O   0  0  0  0  0  0  0  0  0  0  0  0
  150.5077  140.0456  154.9051 N   0  0  0  0  0  0  0  0  0  0  0  0
  151.7784  139.6893  155.3097 C   0  0  0  0  0  0  0  0  0  0  0  0
  152.0256  138.4348  154.8308 C   0  0  0  0  0  0  0  0  0  0  0  0
  150.8290  138.0950  154.1410 C   0  0  0  0  0  0  0  0  0  0  0  0
  149.9216  139.0561  154.1912 N   0  0  0  0  0  0  0  0  0  0  0  0
  147.8650  142.2227  154.7381 H   0  0  0  0  0  0  0  0  0  0  0  0
  147.7390  140.4946  155.0525 H   0  0  0  0  0  0  0  0  0  0  0  0
  148.3988  141.0690  153.5255 H   0  0  0  0  0  0  0  0  0  0  0  0
  150.3307  142.0915  154.7121 H   0  0  0  0  0  0  0  0  0  0  0  0
  150.5668  143.4224  156.3368 H   0  0  0  0  0  0  0  0  0  0  0  0
  150.5693  144.3584  158.4321 H   0  0  0  0  0  0  0  0  0  0  0  0
  149.3684  143.1794  158.9031 H   0  0  0  0  0  0  0  0  0  0  0  0
  151.2803  141.4493  159.1233 H   0  0  0  0  0  0  0  0  0  0  0  0
  153.2050  142.3663  157.9898 H   0  0  0  0  0  0  0  0  0  0  0  0
  152.9323  143.9677  158.6884 H   0  0  0  0  0  0  0  0  0  0  0  0
  153.7482  141.4469  160.1712 H   0  0  0  0  0  0  0  0  0  0  0  0
  154.5550  143.0200  160.2248 H   0  0  0  0  0  0  0  0  0  0  0  0
  152.6820  142.3396  162.1157 H   0  0  0  0  0  0  0  0  0  0  0  0
  152.7584  143.9898  161.4944 H   0  0  0  0  0  0  0  0  0  0  0  0
  152.3947  140.3511  155.9003 H   0  0  0  0  0  0  0  0  0  0  0  0
  152.9232  137.8480  154.9572 H   0  0  0  0  0  0  0  0  0  0  0  0
  150.5924  137.1833  153.6126 H   0  0  0  0  0  0  0  0  0  0  0  0
  1  2  1  0  0  0  0
  1 17  1  0  0  0  0
  1 18  1  0  0  0  0
  1 19  1  0  0  0  0
  2  3  1  0  0  0  0
  2 12  1  0  0  0  0
  2 20  1  0  0  0  0
  3  4  2  0  0  0  0
  3  5  1  0  0  0  0
  5  6  1  0  0  0  0
  5 21  1  0  0  0  0
  6  7  1  0  0  0  0
  6 22  1  0  0  0  0
  6 23  1  0  0  0  0
  7 11  1  0  0  0  0
  7  8  1  0  0  0  0
  7 24  1  0  0  0  0
  8  9  1  0  0  0  0
  8 25  1  0  0  0  0
  8 26  1  0  0  0  0
  9 10  1  0  0  0  0
  9 27  1  0  0  0  0
  9 28  1  0  0  0  0
 10 11  1  0  0  0  0
 10 29  1  0  0  0  0
 10 30  1  0  0  0  0
 12 16  1  0  0  0  0
 12 13  1  0  0  0  0
 13 14  2  0  0  0  0
 13 31  1  0  0  0  0
 14 15  1  0  0  0  0
 14 32  1  0  0  0  0
 15 16  2  0  0  0  0
 15 33  1  0  0  0  0
M  END
> <s_m_source_file>
AV-unprocessed.smi

> <i_m_source_file_index>
3168

> <i_lp_mmshare_version>
43012

> <i_f3d_flags>
0

> <s_epik_input>
bjFbY0hdW2NIXVtjSF1uMVtDQEhdKFtDSDNdKUMoPU8pW05IXVtDSDJdW0NAQEhdMltDSDJdW0NIMl1bQ0gyXU8y

> <s_epik_cmdline>
J2VwaWtfcHl0aG9uJywgJy1waCcsICc3LjAnLCAnLXRuJywgJzgnLCAnLW1hJywgJzIwMCcsICctbWV0YWxfYmluZGluZycsICctaW1hZScsICc8aW5maWxlLm1hZT4nLCAnLW9tYWUnLCAnPG91dGZpbGUubWFlPic=

> <r_lp_tautomer_probability>
1

> <r_epik_Ionization_Penalty>
4.14877e-05

> <r_epik_Ionization_Penalty_Charging>
0

> <r_epik_Ionization_Penalty_Neutral>
4.14877e-05

> <r_epik_State_Penalty>
-0

> <r_epik_Charging_Adjusted_Penalty>
0

> <i_epik_Tot_Q>
0

> <i_epik_Tot_abs_Q>
0

> <r_epik_Metal_State_Penalty>
-0

> <b_epik_Metal_Only>
0

> <s_lp_Force_Field>
OPLS_2005

> <r_lp_Energy>
21.2002

> <b_lp_Chiralities_Consistent>
1

> <s_lp_Variant>
AV-unprocessed.smi:3168-4

> <Gold.Version>
5.8.1

> <Gold.Id.Protein>
6NUR|6NUR_protein|mol2

> <Gold.PLP.Fitness>
39.5104

> <Gold.PLP.PLP>
-36.0632

> <Gold.PLP.part.hbond>
-2.0000

> <Gold.PLP.part.metal>
0.0000

> <Gold.PLP.part.buried>
-2.1286

> <Gold.PLP.part.nonpolar>
-32.0190

> <Gold.PLP.part.repulsive>
0.3117

> <Gold.PLP.ligand.clash>
0.0000

> <Gold.PLP.ligand.torsion>
0.3349

> <Gold.PLP.Chemscore.Hbond>
0.1656

> <Gold.PLP.Chemscore.CHOScore>
1.1703

> <Gold.PLP.Chemscore.Metal>
0.0000

> <Gold.Chemscore.Hbonds>
donor molecule, donor type, donor heavy atom, donor atom, acceptor molecule, acceptor atom, score
      L1  H     5    21       P1  8028  0.12
      P1  H  6933  6945       L1    11  0.04
      L1  C    15    33       P1  7948  0.56
      L1  C    15    33       P1  7949  0.62

> <Gold.PLP.Chemscore.Internal.Correction>
0.1095

> <Gold.Rescore>
     Score         DG    S(hbond)    S(metal)    S(lipo)     H(rot)  DE(clash)    DE(int)     intcor
     13.78     -14.47       0.83        0.00      88.41       1.61       0.04       0.65       ----

> <Gold.Chemscore.Fitness>
13.7839

> <Gold.Chemscore.DG>
-14.4706

> <Gold.Chemscore.ZeroCoef>
-5.4800

> <Gold.Chemscore.Hbond>
0.8283

> <Gold.Chemscore.Metal>
0.0000

> <Gold.Chemscore.Lipo>
88.4104

> <Gold.Chemscore.Internal_Hbond>
0.0000

> <Gold.Chemscore.DEClash>
0.0413

> <Gold.Chemscore.DEInternal>
0.6454

> <Gold.Chemscore.Rot>
1.6094

> <Gold.Chemscore.Internal.Correction>
   9.000000E+99

> <Gold.Chemscore.Hbonds>
donor molecule, donor type, donor heavy atom, donor atom, acceptor molecule, acceptor atom, score
      L1  H     5    21       P1  8028  0.12
      P1  H  6933  6945       L1    11  0.02

> <Gold.Chemscore.Hbond.Weighted>
-2.7666

> <Gold.Chemscore.Metal.Weighted>
-0.0000

> <Gold.Chemscore.Lipo.Weighted>
-10.3440

> <Gold.Chemscore.Internal_Hbond.Weighted>
0.0000

> <Gold.Chemscore.DEClash.Weighted>
0.0413

> <Gold.Chemscore.DEInternal.Weighted>
0.6454

> <Gold.Chemscore.Rot.Weighted>
4.1201

> <Gold.Chemscore.Internal.Correction.Weighted>
   9.000000E+99

> <Gold.Protein.RotatedTorsions>
[ 6907 6896 6895 6894 ] final   59.72 input  -60.11 | X-H torsion
[ 7974 7965 7964 7962 ] final   68.83 input  175.53 | X-H torsion
[ 8008 7997 7996 7995 ] final   83.99 input   59.86 | X-H torsion
[ 10167 10162 10161 10158 ] final -142.04 input  -65.29 | X-H torsion
[ 10718 10713 10712 10709 ] final -121.97 input   66.30 | X-H torsion
[ 10763 10752 10751 10750 ] final  114.23 input  -60.55 | X-H torsion
[ 11005 11000 10999 10996 ] final   74.10 input  -57.11 | X-H torsion

> <Gold.Protein.ActiveResidues>
 VAL166  LYS551  ARG553  GLY616  TRP617  ASP618  TYR619  PRO620  LYS621  CYS622 
 ASP623  PHE694  ASN695  SER759  ASP760  ASP761  ALA762  ILE779  LEU786  VAL792 
 PHE793  MET794  SER795  GLU796  ALA797  LYS798  CYS799  TRP800  GLU811  SER814 

> <Gold.Protein.RotatedAtoms>
  152.3940  134.6395  160.0096 H   0  0  0  0  0  0  0  0  0  0  0  0  # atno 6907 bound_to 6896
  151.6620  133.3311  159.3184 H   0  0  0  0  0  0  0  0  0  0  0  0  # atno 6908 bound_to 6896
  150.7851  134.6872  159.6521 H   0  0  0  0  0  0  0  0  0  0  0  0  # atno 6909 bound_to 6896
  145.7978  139.2967  143.1172 H   0  0  0  0  0  0  0  0  0  0  0  0  # atno 7974 bound_to 7965
  155.9312  140.3414  155.6250 H   0  0  0  0  0  0  0  0  0  0  0  0  # atno 8008 bound_to 7997
  155.7155  140.0777  157.2371 H   0  0  0  0  0  0  0  0  0  0  0  0  # atno 8009 bound_to 7997
  154.4085  140.1615  156.2331 H   0  0  0  0  0  0  0  0  0  0  0  0  # atno 8010 bound_to 7997
  139.8126  143.7681  152.2664 H   0  0  0  0  0  0  0  0  0  0  0  0  # atno 10167 bound_to 10162
  156.1380  130.6445  150.9727 H   0  0  0  0  0  0  0  0  0  0  0  0  # atno 10718 bound_to 10713
  153.5042  135.3631  155.2555 H   0  0  0  0  0  0  0  0  0  0  0  0  # atno 10763 bound_to 10752
  154.8746  135.4007  154.3443 H   0  0  0  0  0  0  0  0  0  0  0  0  # atno 10764 bound_to 10752
  153.4084  135.7077  153.6442 H   0  0  0  0  0  0  0  0  0  0  0  0  # atno 10765 bound_to 10752
  139.9408  134.7403  156.1106 H   0  0  0  0  0  0  0  0  0  0  0  0  # atno 11005 bound_to 11000
  145.9909  140.8603  143.0067 LP  0  0  0  0  0  0  0  0  0  0  0  0  # atno 17320 bound_to 7965
  144.6773  140.2215  143.7366 LP  0  0  0  0  0  0  0  0  0  0  0  0  # atno 17321 bound_to 7965
  139.7835  144.7436  151.0054 LP  0  0  0  0  0  0  0  0  0  0  0  0  # atno 17342 bound_to 10162
  140.7817  143.4517  151.0404 LP  0  0  0  0  0  0  0  0  0  0  0  0  # atno 17343 bound_to 10162
  157.6550  131.0891  150.7967 LP  0  0  0  0  0  0  0  0  0  0  0  0  # atno 17370 bound_to 10713
  156.8045  130.4932  149.5365 LP  0  0  0  0  0  0  0  0  0  0  0  0  # atno 17371 bound_to 10713
  141.1041  133.6666  156.2822 LP  0  0  0  0  0  0  0  0  0  0  0  0  # atno 17394 bound_to 11000
  140.5958  134.5605  157.5508 LP  0  0  0  0  0  0  0  0  0  0  0  0  # atno 17395 bound_to 11000

$$$$
