AV-unprocessed.smi:72|AV-procd|sdf|725|dock2
  -GOLD-   2262017 53D 1   1.00000     0.00000
 Structure written by MMmdl.
 28 29  0  0  0  0  0  0  0  0  2 V2000
  154.2181  138.1029  154.7595 N   0  0  0  0  0  0  0  0  0  0  0  0
  152.9940  138.4025  154.7982 C   0  0  0  0  0  0  0  0  0  0  0  0
  152.0040  137.4831  154.2810 N   0  0  0  0  0  0  0  0  0  0  0  0
  150.7566  137.8350  154.3485 C   0  0  0  0  0  0  0  0  0  0  0  0
  150.3483  139.1104  154.9241 N   0  0  0  0  0  0  0  0  0  0  0  0
  148.8908  139.5328  155.0071 C   0  0  2  0  0  0  0  0  0  0  0  0
  148.0643  138.5103  154.5243 O   0  0  0  0  0  0  0  0  0  0  0  0
  147.4878  138.8885  153.2770 C   0  0  1  0  0  0  0  0  0  0  0  0
  146.1757  138.1204  153.0562 C   0  0  0  0  0  0  0  0  0  0  0  0
  145.1986  138.5500  153.9801 O   0  0  0  0  0  0  0  0  0  0  0  0
  147.2929  140.3919  153.4698 C   0  0  2  0  0  0  0  0  0  0  0  0
  147.0719  141.0858  152.2558 O   0  0  0  0  0  0  0  0  0  0  0  0
  148.5755  140.8048  154.1840 C   0  0  2  0  0  0  0  0  0  0  0  0
  149.6019  141.1624  153.2700 O   0  0  0  0  0  0  0  0  0  0  0  0
  151.3435  139.9959  155.4166 C   0  0  0  0  0  0  0  0  0  0  0  0
  150.9781  141.0759  155.8817 O   0  0  0  0  0  0  0  0  0  0  0  0
  152.6507  139.6196  155.3437 N   0  5  0  0  0  0  0  0  0  0  0  0
  148.6780  139.6432  156.0717 H   0  0  0  0  0  0  0  0  0  0  0  0
  148.1955  138.7097  152.4650 H   0  0  0  0  0  0  0  0  0  0  0  0
  146.4454  140.5667  154.1347 H   0  0  0  0  0  0  0  0  0  0  0  0
  148.4079  141.6441  154.8596 H   0  0  0  0  0  0  0  0  0  0  0  0
  154.3782  137.1962  154.3451 H   0  0  0  0  0  0  0  0  0  0  0  0
  149.9492  137.2028  153.9800 H   0  0  0  0  0  0  0  0  0  0  0  0
  145.8123  138.2404  152.0352 H   0  0  0  0  0  0  0  0  0  0  0  0
  146.3328  137.0542  153.2204 H   0  0  0  0  0  0  0  0  0  0  0  0
  144.5846  139.1094  153.5297 H   0  0  0  0  0  0  0  0  0  0  0  0
  147.8027  140.9201  151.6804 H   0  0  0  0  0  0  0  0  0  0  0  0
  149.6906  140.4672  152.6354 H   0  0  0  0  0  0  0  0  0  0  0  0
  1  2  2  0  0  0  0
  1 22  1  0  0  0  0
  2 17  1  0  0  0  0
  2  3  1  0  0  0  0
  3  4  2  0  0  0  0
  4  5  1  0  0  0  0
  4 23  1  0  0  0  0
  5  6  1  0  0  0  0
  5 15  1  0  0  0  0
  6 18  1  0  0  0  0
  6 13  1  0  0  0  0
  6  7  1  0  0  0  0
  7  8  1  0  0  0  0
  8 19  1  0  0  0  0
  8  9  1  0  0  0  0
  8 11  1  0  0  0  0
  9 10  1  0  0  0  0
  9 24  1  0  0  0  0
  9 25  1  0  0  0  0
 10 26  1  0  0  0  0
 11 20  1  0  0  0  0
 11 12  1  0  0  0  0
 11 13  1  0  0  0  0
 12 27  1  0  0  0  0
 13 21  1  0  0  0  0
 13 14  1  0  0  0  0
 14 28  1  0  0  0  0
 15 16  2  0  0  0  0
 15 17  1  0  0  0  0
M  CHG  1  17  -1
M  END
> <s_m_source_file>
AV-unprocessed.smi

> <i_m_source_file_index>
72

> <i_lp_mmshare_version>
43012

> <i_f3d_flags>
0

> <s_epik_input>
W05IMl1jMW5bY0hdbihjKD1PKW4xKVtDQEBIXTJPW0NASF0oW0NIMl1bT0hdKVtDQEBIXShbT0hdKVtDQEhdMltPSF0=

> <s_epik_cmdline>
J2VwaWtfcHl0aG9uJywgJy1waCcsICc3LjAnLCAnLXRuJywgJzgnLCAnLW1hJywgJzIwMCcsICctbWV0YWxfYmluZGluZycsICctaW1hZScsICc8aW5maWxlLm1hZT4nLCAnLW9tYWUnLCAnPG91dGZpbGUubWFlPic=

> <r_lp_tautomer_probability>
7.17554e-07

> <r_epik_Ionization_Penalty>
12.8705

> <r_epik_Ionization_Penalty_Charging>
5.64144

> <r_epik_Ionization_Penalty_Neutral>
7.22905

> <r_epik_State_Penalty>
3.30104

> <r_epik_Charging_Adjusted_Penalty>
8.94249

> <i_epik_Tot_Q>
-1

> <i_epik_Tot_abs_Q>
1

> <r_epik_Metal_State_Penalty>
0.529074

> <b_epik_Metal_Only>
1

> <s_epik_Chemistry_Notes>
This compound contains an acetal/aminal-like group ( X-CH(R)-Y where X, Y are N, S, or O) that may be acid/base labile, releasing an aldehyde.

> <s_lp_Force_Field>
OPLS_2005

> <r_lp_Energy>
42.3386

> <b_lp_Chiralities_Consistent>
1

> <s_lp_Variant>
AV-unprocessed.smi:72-63

> <Gold.Version>
5.8.1

> <Gold.Id.Protein>
6NUR|6NUR_protein|mol2

> <Gold.PLP.Fitness>
50.5275

> <Gold.PLP.PLP>
-27.0833

> <Gold.PLP.part.hbond>
-9.0308

> <Gold.PLP.part.metal>
0.0000

> <Gold.PLP.part.buried>
1.9076

> <Gold.PLP.part.nonpolar>
-20.6806

> <Gold.PLP.part.repulsive>
0.3230

> <Gold.PLP.ligand.clash>
0.0000

> <Gold.PLP.ligand.torsion>
0.0856

> <Gold.PLP.Chemscore.Hbond>
6.8561

> <Gold.PLP.Chemscore.CHOScore>
1.0000

> <Gold.PLP.Chemscore.Metal>
0.0000

> <Gold.Chemscore.Hbonds>
donor molecule, donor type, donor heavy atom, donor atom, acceptor molecule, acceptor atom, score
      L1  H    10    26       P1 10175  1.00
      L1  H    12    27       P1  7957  0.99
      L1  H    14    28       P1  7957  0.94
      P1  H  7989  7998       L1    14  0.02
      P1  H  7997  8008       L1    17  2.00
      P1  H  8011  8017       L1    14  1.00
      P1  H 10752 10765       L1     3  0.90
      L1  C     4    23       P1  7948  1.00

> <Gold.PLP.Chemscore.Internal.Correction>
0.0471

> <Gold.Rescore>
     Score         DG    S(hbond)    S(metal)    S(lipo)     H(rot)  DE(clash)    DE(int)     intcor
      9.26     -11.30       3.92        0.00      26.16       4.04       1.72       0.32       ----

> <Gold.Chemscore.Fitness>
9.2641

> <Gold.Chemscore.DG>
-11.2994

> <Gold.Chemscore.ZeroCoef>
-5.4800

> <Gold.Chemscore.Hbond>
3.9226

> <Gold.Chemscore.Metal>
0.0000

> <Gold.Chemscore.Lipo>
26.1633

> <Gold.Chemscore.Internal_Hbond>
0.0000

> <Gold.Chemscore.DEClash>
1.7181

> <Gold.Chemscore.DEInternal>
0.3172

> <Gold.Chemscore.Rot>
4.0403

> <Gold.Chemscore.Internal.Correction>
   9.000000E+99

> <Gold.Chemscore.Hbonds>
donor molecule, donor type, donor heavy atom, donor atom, acceptor molecule, acceptor atom, score
      L1  H    10    26       P1 10175  0.99
      L1  H    12    27       P1  7957  0.91
      L1  H    14    28       P1  7957  0.85
      P1  H  7997  8008       L1    17  0.32
      P1  H  8011  8017       L1    14  0.25
      P1  H 10752 10765       L1     3  0.36

> <Gold.Chemscore.Hbond.Weighted>
-13.1014

> <Gold.Chemscore.Metal.Weighted>
-0.0000

> <Gold.Chemscore.Lipo.Weighted>
-3.0611

> <Gold.Chemscore.Internal_Hbond.Weighted>
0.0000

> <Gold.Chemscore.DEClash.Weighted>
1.7181

> <Gold.Chemscore.DEInternal.Weighted>
0.3172

> <Gold.Chemscore.Rot.Weighted>
10.3431

> <Gold.Chemscore.Internal.Correction.Weighted>
   9.000000E+99

> <Gold.Protein.RotatedTorsions>
[ 6907 6896 6895 6894 ] final   84.45 input  -60.11 | X-H torsion
[ 7974 7965 7964 7962 ] final   43.36 input  175.53 | X-H torsion
[ 8008 7997 7996 7995 ] final  -42.52 input   59.86 | X-H torsion
[ 10167 10162 10161 10158 ] final   40.68 input  -65.29 | X-H torsion
[ 10718 10713 10712 10709 ] final  143.28 input   66.30 | X-H torsion
[ 10763 10752 10751 10750 ] final  155.51 input  -60.55 | X-H torsion
[ 11005 11000 10999 10996 ] final   33.19 input  -57.11 | X-H torsion

> <Gold.Protein.ActiveResidues>
 VAL166  LYS551  ARG553  GLY616  TRP617  ASP618  TYR619  PRO620  LYS621  CYS622 
 ASP623  PHE694  ASN695  SER759  ASP760  ASP761  ALA762  ILE779  LEU786  VAL792 
 PHE793  MET794  SER795  GLU796  ALA797  LYS798  CYS799  TRP800  GLU811  SER814 

> <Gold.Protein.RotatedAtoms>
  152.5352  134.2739  159.8981 H   0  0  0  0  0  0  0  0  0  0  0  0  # atno 6907 bound_to 6896
  151.2695  133.4255  159.2628 H   0  0  0  0  0  0  0  0  0  0  0  0  # atno 6908 bound_to 6896
  151.0380  134.9602  159.8203 H   0  0  0  0  0  0  0  0  0  0  0  0  # atno 6909 bound_to 6896
  146.0662  139.5196  142.9627 H   0  0  0  0  0  0  0  0  0  0  0  0  # atno 7974 bound_to 7965
  154.3999  140.1471  156.3369 H   0  0  0  0  0  0  0  0  0  0  0  0  # atno 8008 bound_to 7997
  155.8392  140.3462  155.5600 H   0  0  0  0  0  0  0  0  0  0  0  0  # atno 8009 bound_to 7997
  155.8105  140.0883  157.1897 H   0  0  0  0  0  0  0  0  0  0  0  0  # atno 8010 bound_to 7997
  140.3718  144.2095  150.6133 H   0  0  0  0  0  0  0  0  0  0  0  0  # atno 10167 bound_to 10162
  157.3708  131.0978  151.0830 H   0  0  0  0  0  0  0  0  0  0  0  0  # atno 10718 bound_to 10713
  154.1696  135.2805  155.3085 H   0  0  0  0  0  0  0  0  0  0  0  0  # atno 10763 bound_to 10752
  154.6085  135.5506  153.7452 H   0  0  0  0  0  0  0  0  0  0  0  0  # atno 10764 bound_to 10752
  153.0168  135.6409  154.1836 H   0  0  0  0  0  0  0  0  0  0  0  0  # atno 10765 bound_to 10752
  140.2657  134.3141  155.7843 H   0  0  0  0  0  0  0  0  0  0  0  0  # atno 11005 bound_to 11000
  145.6473  141.0271  143.1779 LP  0  0  0  0  0  0  0  0  0  0  0  0  # atno 17320 bound_to 7965
  144.7204  139.8051  143.7384 LP  0  0  0  0  0  0  0  0  0  0  0  0  # atno 17321 bound_to 7965
  140.5026  143.2313  151.8656 LP  0  0  0  0  0  0  0  0  0  0  0  0  # atno 17342 bound_to 10162
  139.4803  144.5042  151.9020 LP  0  0  0  0  0  0  0  0  0  0  0  0  # atno 17343 bound_to 10162
  157.1935  130.6362  149.5713 LP  0  0  0  0  0  0  0  0  0  0  0  0  # atno 17370 bound_to 10713
  155.9755  130.4714  150.6464 LP  0  0  0  0  0  0  0  0  0  0  0  0  # atno 17371 bound_to 10713
  141.2184  133.7436  156.9256 LP  0  0  0  0  0  0  0  0  0  0  0  0  # atno 17394 bound_to 11000
  140.1422  134.9286  157.2481 LP  0  0  0  0  0  0  0  0  0  0  0  0  # atno 17395 bound_to 11000

$$$$
