AV-unprocessed.smi:283|AV-procd|sdf|2142|dock2
  -GOLD-   2262021473D 1   1.00000     0.00000
 Structure written by MMmdl.
 48 51  0  0  0  0  0  0  0  0  1 V2000
  151.5085  140.5565  155.8668 C   0  0  0  0  0  0  0  0  0  0  0  0
  150.5934  141.5323  156.6190 C   0  0  1  0  0  0  0  0  0  0  0  0
  149.4278  140.8156  157.1314 N   0  0  0  0  0  0  0  0  0  0  0  0
  148.3160  140.6468  156.3814 C   0  0  0  0  0  0  0  0  0  0  0  0
  147.4126  141.6539  156.4460 N   0  0  0  0  0  0  0  0  0  0  0  0
  146.2855  141.5922  155.7320 C   0  0  0  0  0  0  0  0  0  0  0  0
  145.8728  140.6276  154.9093 N   0  0  0  0  0  0  0  0  0  0  0  0
  146.7712  139.6033  154.8457 C   0  0  0  0  0  0  0  0  0  0  0  0
  148.0077  139.5298  155.5489 C   0  0  0  0  0  0  0  0  0  0  0  0
  148.6351  138.3275  155.2419 N   0  0  0  0  0  0  0  0  0  0  0  0
  147.8271  137.7418  154.4011 C   0  0  0  0  0  0  0  0  0  0  0  0
  146.6780  138.4396  154.1097 N   0  0  0  0  0  0  0  0  0  0  0  0
  145.5728  138.0415  153.1803 C   0  0  2  0  0  0  0  0  0  0  0  0
  145.0590  136.8293  153.6368 O   0  0  0  0  0  0  0  0  0  0  0  0
  144.7635  136.0060  152.5210 C   0  0  2  0  0  0  0  0  0  0  0  0
  144.6513  134.5286  152.9406 C   0  0  0  0  0  0  0  0  0  0  0  0
  143.5845  134.3065  153.8395 O   0  0  0  0  0  0  0  0  0  0  0  0
  145.8265  136.3582  151.4750 C   0  0  1  0  0  0  0  0  0  0  0  0
  145.3305  136.1261  150.1716 O   0  0  0  0  0  0  0  0  0  0  0  0
  146.0375  137.8502  151.7140 C   0  0  2  0  0  0  0  0  0  0  0  0
  147.3825  138.2189  151.4665 O   0  0  0  0  0  0  0  0  0  0  0  0
  151.3908  142.3012  157.6770 C   0  0  0  0  0  0  0  0  0  0  0  0
  151.4751  143.7120  157.6125 C   0  0  0  0  0  0  0  0  0  0  0  0
  152.2051  144.4332  158.5757 C   0  0  0  0  0  0  0  0  0  0  0  0
  152.8529  143.7521  159.6215 C   0  0  0  0  0  0  0  0  0  0  0  0
  152.7638  142.3504  159.7050 C   0  0  0  0  0  0  0  0  0  0  0  0
  152.0344  141.6230  158.7431 C   0  0  0  0  0  0  0  0  0  0  0  0
  151.9468  139.9037  158.9050 Cl  0  0  0  0  0  0  0  0  0  0  0  0
  144.8272  138.8307  153.2840 H   0  0  0  0  0  0  0  0  0  0  0  0
  143.7864  136.3362  152.1618 H   0  0  0  0  0  0  0  0  0  0  0  0
  146.7511  135.8044  151.6406 H   0  0  0  0  0  0  0  0  0  0  0  0
  145.3761  138.4449  151.0818 H   0  0  0  0  0  0  0  0  0  0  0  0
  152.3423  141.0814  155.4000 H   0  0  0  0  0  0  0  0  0  0  0  0
  150.9651  140.0371  155.0768 H   0  0  0  0  0  0  0  0  0  0  0  0
  151.9234  139.8034  156.5376 H   0  0  0  0  0  0  0  0  0  0  0  0
  150.2124  142.2365  155.8814 H   0  0  0  0  0  0  0  0  0  0  0  0
  149.4165  140.6924  158.1334 H   0  0  0  0  0  0  0  0  0  0  0  0
  145.6192  142.4361  155.8327 H   0  0  0  0  0  0  0  0  0  0  0  0
  148.0498  136.7769  153.9697 H   0  0  0  0  0  0  0  0  0  0  0  0
  144.5289  133.8910  152.0647 H   0  0  0  0  0  0  0  0  0  0  0  0
  145.5721  134.2173  153.4349 H   0  0  0  0  0  0  0  0  0  0  0  0
  143.3926  133.3815  153.8556 H   0  0  0  0  0  0  0  0  0  0  0  0
  144.7856  136.8585  149.9269 H   0  0  0  0  0  0  0  0  0  0  0  0
  147.9405  137.6801  152.0073 H   0  0  0  0  0  0  0  0  0  0  0  0
  150.9806  144.2529  156.8192 H   0  0  0  0  0  0  0  0  0  0  0  0
  152.2662  145.5097  158.5122 H   0  0  0  0  0  0  0  0  0  0  0  0
  153.4134  144.3037  160.3619 H   0  0  0  0  0  0  0  0  0  0  0  0
  153.2564  141.8311  160.5140 H   0  0  0  0  0  0  0  0  0  0  0  0
  1  2  1  0  0  0  0
  1 33  1  0  0  0  0
  1 34  1  0  0  0  0
  1 35  1  0  0  0  0
  2  3  1  0  0  0  0
  2 22  1  0  0  0  0
  2 36  1  0  0  0  0
  3  4  1  0  0  0  0
  3 37  1  0  0  0  0
  4  9  1  0  0  0  0
  4  5  2  0  0  0  0
  5  6  1  0  0  0  0
  6  7  2  0  0  0  0
  6 38  1  0  0  0  0
  7  8  1  0  0  0  0
  8 12  1  0  0  0  0
  8  9  2  0  0  0  0
  9 10  1  0  0  0  0
 10 11  2  0  0  0  0
 11 12  1  0  0  0  0
 11 39  1  0  0  0  0
 12 13  1  0  0  0  0
 13 29  1  0  0  0  0
 13 20  1  0  0  0  0
 13 14  1  0  0  0  0
 14 15  1  0  0  0  0
 15 30  1  0  0  0  0
 15 16  1  0  0  0  0
 15 18  1  0  0  0  0
 16 17  1  0  0  0  0
 16 40  1  0  0  0  0
 16 41  1  0  0  0  0
 17 42  1  0  0  0  0
 18 31  1  0  0  0  0
 18 19  1  0  0  0  0
 18 20  1  0  0  0  0
 19 43  1  0  0  0  0
 20 32  1  0  0  0  0
 20 21  1  0  0  0  0
 21 44  1  0  0  0  0
 22 27  1  0  0  0  0
 22 23  2  0  0  0  0
 23 24  1  0  0  0  0
 23 45  1  0  0  0  0
 24 25  2  0  0  0  0
 24 46  1  0  0  0  0
 25 26  1  0  0  0  0
 25 47  1  0  0  0  0
 26 27  2  0  0  0  0
 26 48  1  0  0  0  0
 27 28  1  0  0  0  0
M  END
> <s_m_source_file>
AV-unprocessed.smi

> <i_m_source_file_index>
283

> <i_lp_mmshare_version>
43012

> <i_f3d_flags>
0

> <s_epik_input>
Q2xjMVtjSF1bY0hdW2NIXVtjSF1jMVtDQEhdKFtDSDNdKVtOSF1jKG5bY0hdbjIpYyhjMjMpbltjSF1uM1tDQEBIXTRPW0NASF0oW0NIMl1bT0hdKVtDQEBIXShbT0hdKVtDQEhdNFtPSF0=

> <s_epik_cmdline>
J2VwaWtfcHl0aG9uJywgJy1waCcsICc3LjAnLCAnLXRuJywgJzgnLCAnLW1hJywgJzIwMCcsICctbWV0YWxfYmluZGluZycsICctaW1hZScsICc8aW5maWxlLm1hZT4nLCAnLW9tYWUnLCAnPG91dGZpbGUubWFlPic=

> <r_lp_tautomer_probability>
1

> <r_epik_Ionization_Penalty>
0.000266407

> <r_epik_Ionization_Penalty_Charging>
0

> <r_epik_Ionization_Penalty_Neutral>
0.000266407

> <r_epik_State_Penalty>
-0

> <r_epik_Charging_Adjusted_Penalty>
0

> <i_epik_Tot_Q>
0

> <i_epik_Tot_abs_Q>
0

> <r_epik_Metal_State_Penalty>
-0

> <b_epik_Metal_Only>
0

> <s_epik_Chemistry_Notes>
This compound contains an acetal/aminal-like group ( X-CH(R)-Y where X, Y are N, S, or O) that may be acid/base labile, releasing an aldehyde.

> <s_lp_Force_Field>
OPLS_2005

> <r_lp_Energy>
48.5102

> <b_lp_Chiralities_Consistent>
1

> <s_lp_Variant>
AV-unprocessed.smi:283-18

> <Gold.Version>
5.8.1

> <Gold.Id.Protein>
6NUR|6NUR_protein|mol2

> <Gold.PLP.Fitness>
55.3863

> <Gold.PLP.PLP>
-43.4348

> <Gold.PLP.part.hbond>
-5.8918

> <Gold.PLP.part.metal>
0.0000

> <Gold.PLP.part.buried>
-2.6087

> <Gold.PLP.part.nonpolar>
-36.6379

> <Gold.PLP.part.repulsive>
0.4694

> <Gold.PLP.ligand.clash>
0.0000

> <Gold.PLP.ligand.torsion>
1.1417

> <Gold.PLP.Chemscore.Hbond>
3.7200

> <Gold.PLP.Chemscore.CHOScore>
0.9783

> <Gold.PLP.Chemscore.Metal>
0.0000

> <Gold.Chemscore.Hbonds>
donor molecule, donor type, donor heavy atom, donor atom, acceptor molecule, acceptor atom, score
      L1  H    17    42       P1 10957  1.00
      L1  H    19    43       P1 10171  1.00
      L1  H    21    44       P1  7948  0.75
      P1  H  7954  7966       L1    21  0.85
      L1  C    11    39       P1  7948  1.00

> <Gold.PLP.Chemscore.Internal.Correction>
0.1401

> <Gold.Rescore>
     Score         DG    S(hbond)    S(metal)    S(lipo)     H(rot)  DE(clash)    DE(int)     intcor
     15.59     -17.95       2.96        0.00     111.87       4.10       0.16       2.20       ----

> <Gold.Chemscore.Fitness>
15.5918

> <Gold.Chemscore.DG>
-17.9533

> <Gold.Chemscore.ZeroCoef>
-5.4800

> <Gold.Chemscore.Hbond>
2.9558

> <Gold.Chemscore.Metal>
0.0000

> <Gold.Chemscore.Lipo>
111.8711

> <Gold.Chemscore.Internal_Hbond>
0.0000

> <Gold.Chemscore.DEClash>
0.1613

> <Gold.Chemscore.DEInternal>
2.2002

> <Gold.Chemscore.Rot>
4.0968

> <Gold.Chemscore.Internal.Correction>
   9.000000E+99

> <Gold.Chemscore.Hbonds>
donor molecule, donor type, donor heavy atom, donor atom, acceptor molecule, acceptor atom, score
      L1  H    17    42       P1 10957  0.92
      L1  H    19    43       P1 10171  0.99
      L1  H    21    44       P1  7948  0.76
      P1  H  7954  7966       L1    21  0.14

> <Gold.Chemscore.Hbond.Weighted>
-9.8723

> <Gold.Chemscore.Metal.Weighted>
-0.0000

> <Gold.Chemscore.Lipo.Weighted>
-13.0889

> <Gold.Chemscore.Internal_Hbond.Weighted>
0.0000

> <Gold.Chemscore.DEClash.Weighted>
0.1613

> <Gold.Chemscore.DEInternal.Weighted>
2.2002

> <Gold.Chemscore.Rot.Weighted>
10.4879

> <Gold.Chemscore.Internal.Correction.Weighted>
   9.000000E+99

> <Gold.Protein.RotatedTorsions>
[ 6907 6896 6895 6894 ] final   -4.82 input  -60.11 | X-H torsion
[ 7974 7965 7964 7962 ] final  -90.84 input  175.53 | X-H torsion
[ 8008 7997 7996 7995 ] final   -7.69 input   59.86 | X-H torsion
[ 10167 10162 10161 10158 ] final   77.05 input  -65.29 | X-H torsion
[ 10718 10713 10712 10709 ] final  105.32 input   66.30 | X-H torsion
[ 10763 10752 10751 10750 ] final  -56.43 input  -60.55 | X-H torsion
[ 11005 11000 10999 10996 ] final  -50.82 input  -57.11 | X-H torsion

> <Gold.Protein.ActiveResidues>
 VAL166  LYS551  ARG553  GLY616  TRP617  ASP618  TYR619  PRO620  LYS621  CYS622 
 ASP623  PHE694  ASN695  SER759  ASP760  ASP761  ALA762  ILE779  LEU786  VAL792 
 PHE793  MET794  SER795  GLU796  ALA797  LYS798  CYS799  TRP800  GLU811  SER814 

> <Gold.Protein.RotatedAtoms>
  151.4914  135.1057  159.9804 H   0  0  0  0  0  0  0  0  0  0  0  0  # atno 6907 bound_to 6896
  152.4739  133.8089  159.7003 H   0  0  0  0  0  0  0  0  0  0  0  0  # atno 6908 bound_to 6896
  150.8765  133.7369  159.2971 H   0  0  0  0  0  0  0  0  0  0  0  0  # atno 6909 bound_to 6896
  145.4211  140.9551  143.2180 H   0  0  0  0  0  0  0  0  0  0  0  0  # atno 7974 bound_to 7965
  154.5814  140.2400  155.8049 H   0  0  0  0  0  0  0  0  0  0  0  0  # atno 8008 bound_to 7997
  156.2181  140.3006  155.9844 H   0  0  0  0  0  0  0  0  0  0  0  0  # atno 8009 bound_to 7997
  155.2535  140.0411  157.2980 H   0  0  0  0  0  0  0  0  0  0  0  0  # atno 8010 bound_to 7997
  139.9857  144.5794  150.7861 H   0  0  0  0  0  0  0  0  0  0  0  0  # atno 10167 bound_to 10162
  157.6709  131.0825  150.5840 H   0  0  0  0  0  0  0  0  0  0  0  0  # atno 10718 bound_to 10713
  154.2065  135.6402  153.5102 H   0  0  0  0  0  0  0  0  0  0  0  0  # atno 10763 bound_to 10752
  152.9999  135.5464  154.6260 H   0  0  0  0  0  0  0  0  0  0  0  0  # atno 10764 bound_to 10752
  154.5686  135.2915  155.0823 H   0  0  0  0  0  0  0  0  0  0  0  0  # atno 10765 bound_to 10752
  141.0837  133.6647  156.3786 H   0  0  0  0  0  0  0  0  0  0  0  0  # atno 11005 bound_to 11000
  144.8244  139.5735  143.6972 LP  0  0  0  0  0  0  0  0  0  0  0  0  # atno 17320 bound_to 7965
  146.2656  139.6512  142.9332 LP  0  0  0  0  0  0  0  0  0  0  0  0  # atno 17321 bound_to 7965
  140.7473  143.2904  151.3346 LP  0  0  0  0  0  0  0  0  0  0  0  0  # atno 17342 bound_to 10162
  139.6377  144.0599  152.2529 LP  0  0  0  0  0  0  0  0  0  0  0  0  # atno 17343 bound_to 10162
  156.6140  130.4388  149.5848 LP  0  0  0  0  0  0  0  0  0  0  0  0  # atno 17370 bound_to 10713
  156.2408  130.6850  151.1553 LP  0  0  0  0  0  0  0  0  0  0  0  0  # atno 17371 bound_to 10713
  140.5411  134.6119  157.5380 LP  0  0  0  0  0  0  0  0  0  0  0  0  # atno 17394 bound_to 11000
  139.9653  134.7384  156.0152 LP  0  0  0  0  0  0  0  0  0  0  0  0  # atno 17395 bound_to 11000

$$$$
