AV-unprocessed.smi:652|AV-procd|sdf|3200|dock3
  -GOLD-   22720 0133D 1   1.00000     0.00000
 Structure written by MMmdl.
 49 50  0  0  0  0  0  0  0  0  3 V2000
  146.5522  133.8960  151.3190 C   0  0  0  0  0  0  0  0  0  0  0  0
  145.5193  135.0162  151.5001 C   0  0  0  0  0  0  0  0  0  0  0  0
  144.4849  135.0215  150.3630 C   0  0  0  0  0  0  0  0  0  0  0  0
  146.2069  136.3026  151.5731 N   0  0  0  0  0  0  0  0  0  0  0  0
  145.7182  137.4150  152.1437 C   0  0  0  0  0  0  0  0  0  0  0  0
  144.6134  137.4707  152.6840 O   0  0  0  0  0  0  0  0  0  0  0  0
  146.6150  138.6551  152.1006 C   0  0  0  0  0  0  0  0  0  0  0  0
  147.2766  138.9427  153.4630 C   0  0  0  0  0  0  0  0  0  0  0  0
  147.9217  140.2820  153.5066 N   0  3  1  0  0  0  0  0  0  0  0  0
  146.9711  141.4037  153.3134 C   0  0  0  0  0  0  0  0  0  0  0  0
  146.1743  141.6834  154.5996 C   0  0  0  0  0  0  0  0  0  0  0  0
  147.0795  141.9506  155.6639 O   0  0  0  0  0  0  0  0  0  0  0  0
  147.9268  140.8430  155.9550 C   0  0  2  0  0  0  0  0  0  0  0  0
  148.8116  141.2244  157.1510 C   0  0  0  0  0  0  0  0  0  0  0  0
  149.3837  142.5534  156.9942 N   0  0  0  0  0  0  0  0  0  0  0  0
  150.5407  142.9140  157.6976 C   0  0  0  0  0  0  0  0  0  0  0  0
  151.2300  142.0549  158.5849 C   0  0  0  0  0  0  0  0  0  0  0  0
  152.3829  142.5423  159.2235 C   0  0  0  0  0  0  0  0  0  0  0  0
  152.7783  143.8609  158.9368 C   0  0  0  0  0  0  0  0  0  0  0  0
  152.1045  144.6674  158.0866 N   0  0  0  0  0  0  0  0  0  0  0  0
  151.0048  144.1720  157.4916 N   0  3  0  0  0  0  0  0  0  0  0  0
  148.7725  140.5242  154.7007 C   0  0  0  0  0  0  0  0  0  0  0  0
  146.0688  132.9189  151.2916 H   0  0  0  0  0  0  0  0  0  0  0  0
  147.2692  133.8847  152.1407 H   0  0  0  0  0  0  0  0  0  0  0  0
  147.1112  134.0160  150.3902 H   0  0  0  0  0  0  0  0  0  0  0  0
  144.9987  134.8382  152.4430 H   0  0  0  0  0  0  0  0  0  0  0  0
  143.9664  134.0642  150.3023 H   0  0  0  0  0  0  0  0  0  0  0  0
  144.9569  135.2051  149.3972 H   0  0  0  0  0  0  0  0  0  0  0  0
  143.7290  135.7922  150.5166 H   0  0  0  0  0  0  0  0  0  0  0  0
  147.1251  136.3477  151.1551 H   0  0  0  0  0  0  0  0  0  0  0  0
  147.3663  138.4950  151.3277 H   0  0  0  0  0  0  0  0  0  0  0  0
  146.0238  139.5186  151.7907 H   0  0  0  0  0  0  0  0  0  0  0  0
  146.5001  138.9048  154.2289 H   0  0  0  0  0  0  0  0  0  0  0  0
  147.9937  138.1631  153.7201 H   0  0  0  0  0  0  0  0  0  0  0  0
  147.5411  142.2937  153.0431 H   0  0  0  0  0  0  0  0  0  0  0  0
  146.3014  141.2051  152.4761 H   0  0  0  0  0  0  0  0  0  0  0  0
  145.5311  142.5524  154.4594 H   0  0  0  0  0  0  0  0  0  0  0  0
  145.5236  140.8458  154.8552 H   0  0  0  0  0  0  0  0  0  0  0  0
  147.3211  139.9772  156.2278 H   0  0  0  0  0  0  0  0  0  0  0  0
  148.2137  141.2142  158.0633 H   0  0  0  0  0  0  0  0  0  0  0  0
  149.6084  140.4901  157.2765 H   0  0  0  0  0  0  0  0  0  0  0  0
  149.0715  143.1269  156.2234 H   0  0  0  0  0  0  0  0  0  0  0  0
  150.8946  141.0476  158.7818 H   0  0  0  0  0  0  0  0  0  0  0  0
  152.9465  141.9278  159.9100 H   0  0  0  0  0  0  0  0  0  0  0  0
  153.6580  144.2819  159.4014 H   0  0  0  0  0  0  0  0  0  0  0  0
  149.4335  139.6785  154.8863 H   0  0  0  0  0  0  0  0  0  0  0  0
  149.4231  141.3715  154.4802 H   0  0  0  0  0  0  0  0  0  0  0  0
  148.5356  140.3030  152.7044 H   0  0  0  0  0  0  0  0  0  0  0  0
  150.4916  144.7751  156.8484 H   0  0  0  0  0  0  0  0  0  0  0  0
  1  2  1  0  0  0  0
  1 23  1  0  0  0  0
  1 24  1  0  0  0  0
  1 25  1  0  0  0  0
  2  3  1  0  0  0  0
  2  4  1  0  0  0  0
  2 26  1  0  0  0  0
  3 27  1  0  0  0  0
  3 28  1  0  0  0  0
  3 29  1  0  0  0  0
  4  5  1  0  0  0  0
  4 30  1  0  0  0  0
  5  6  2  0  0  0  0
  5  7  1  0  0  0  0
  7  8  1  0  0  0  0
  7 31  1  0  0  0  0
  7 32  1  0  0  0  0
  8  9  1  0  0  0  0
  8 33  1  0  0  0  0
  8 34  1  0  0  0  0
  9 22  1  0  0  0  0
  9 10  1  0  0  0  0
  9 48  1  0  0  0  0
 10 11  1  0  0  0  0
 10 35  1  0  0  0  0
 10 36  1  0  0  0  0
 11 12  1  0  0  0  0
 11 37  1  0  0  0  0
 11 38  1  0  0  0  0
 12 13  1  0  0  0  0
 13 14  1  0  0  0  0
 13 22  1  0  0  0  0
 13 39  1  0  0  0  0
 14 15  1  0  0  0  0
 14 40  1  0  0  0  0
 14 41  1  0  0  0  0
 15 16  1  0  0  0  0
 15 42  1  0  0  0  0
 16 21  1  0  0  0  0
 16 17  2  0  0  0  0
 17 18  1  0  0  0  0
 17 43  1  0  0  0  0
 18 19  2  0  0  0  0
 18 44  1  0  0  0  0
 19 20  1  0  0  0  0
 19 45  1  0  0  0  0
 20 21  2  0  0  0  0
 21 49  1  0  0  0  0
 22 46  1  0  0  0  0
 22 47  1  0  0  0  0
M  CHG  1   9   1
M  CHG  1  21   1
M  END
> <s_m_source_file>
AV-unprocessed.smi

> <i_m_source_file_index>
652

> <i_lp_mmshare_version>
43012

> <i_f3d_flags>
0

> <s_epik_input>
W0NIM11bQ0hdKFtDSDNdKVtOSF1DKD1PKVtDSDJdW0NIMl1OMVtDSDJdW0NIMl1PW0NASF0oW0NIMl0xKVtDSDJdW05IXWMyW2NIXVtjSF1bY0hdbm4y

> <s_epik_cmdline>
J2VwaWtfcHl0aG9uJywgJy1waCcsICc3LjAnLCAnLXRuJywgJzgnLCAnLW1hJywgJzIwMCcsICctbWV0YWxfYmluZGluZycsICctaW1hZScsICc8aW5maWxlLm1hZT4nLCAnLW9tYWUnLCAnPG91dGZpbGUubWFlPic=

> <r_lp_tautomer_probability>
0.966961

> <r_epik_Ionization_Penalty>
2.79885

> <r_epik_Ionization_Penalty_Charging>
2.79884

> <r_epik_Ionization_Penalty_Neutral>
3.2567e-06

> <r_epik_State_Penalty>
2.43203

> <r_epik_Charging_Adjusted_Penalty>
5.23087

> <i_epik_Tot_Q>
2

> <i_epik_Tot_abs_Q>
2

> <r_epik_Metal_State_Penalty>
2.43963

> <b_epik_Metal_Only>
0

> <s_lp_Force_Field>
OPLS_2005

> <r_lp_Energy>
31.8364

> <b_lp_Chiralities_Consistent>
1

> <s_lp_Variant>
AV-unprocessed.smi:652-9

> <Gold.Version>
5.8.1

> <Gold.Id.Protein>
6NUR|6NUR_protein|mol2

> <Gold.PLP.Fitness>
53.4228

> <Gold.PLP.PLP>
-40.5530

> <Gold.PLP.part.hbond>
-4.0000

> <Gold.PLP.part.metal>
0.0000

> <Gold.PLP.part.buried>
-8.7557

> <Gold.PLP.part.nonpolar>
-30.7774

> <Gold.PLP.part.repulsive>
0.5910

> <Gold.PLP.ligand.clash>
0.7945

> <Gold.PLP.ligand.torsion>
0.8073

> <Gold.PLP.Chemscore.Hbond>
5.0291

> <Gold.PLP.Chemscore.CHOScore>
0.0000

> <Gold.PLP.Chemscore.Metal>
0.0000

> <Gold.Chemscore.Hbonds>
donor molecule, donor type, donor heavy atom, donor atom, acceptor molecule, acceptor atom, score
      L1  H     4    30       P1  7948  0.72
      L1  H     9    48       P1  7957  1.00
      L1  H    15    42       P1  8028  1.79
      L1  H    21    49       P1  8028  1.66

> <Gold.PLP.Chemscore.Internal.Correction>
0.1916

> <Gold.Rescore>
     Score         DG    S(hbond)    S(metal)    S(lipo)     H(rot)  DE(clash)    DE(int)     intcor
     20.65     -21.75       3.61        0.00      87.05       2.33       0.06       1.04       ----

> <Gold.Chemscore.Fitness>
20.6484

> <Gold.Chemscore.DG>
-21.7451

> <Gold.Chemscore.ZeroCoef>
-5.4800

> <Gold.Chemscore.Hbond>
3.6084

> <Gold.Chemscore.Metal>
0.0000

> <Gold.Chemscore.Lipo>
87.0463

> <Gold.Chemscore.Internal_Hbond>
0.0000

> <Gold.Chemscore.DEClash>
0.0584

> <Gold.Chemscore.DEInternal>
1.0382

> <Gold.Chemscore.Rot>
2.3326

> <Gold.Chemscore.Internal.Correction>
   9.000000E+99

> <Gold.Chemscore.Hbonds>
donor molecule, donor type, donor heavy atom, donor atom, acceptor molecule, acceptor atom, score
      L1  H     4    30       P1  7948  0.72
      L1  H     9    48       P1  7957  1.00
      L1  H    15    42       P1  8028  0.88
      L1  H    21    49       P1  8028  0.60

> <Gold.Chemscore.Hbond.Weighted>
-12.0520

> <Gold.Chemscore.Metal.Weighted>
-0.0000

> <Gold.Chemscore.Lipo.Weighted>
-10.1844

> <Gold.Chemscore.Internal_Hbond.Weighted>
0.0000

> <Gold.Chemscore.DEClash.Weighted>
0.0584

> <Gold.Chemscore.DEInternal.Weighted>
1.0382

> <Gold.Chemscore.Rot.Weighted>
5.9714

> <Gold.Chemscore.Internal.Correction.Weighted>
   9.000000E+99

> <Gold.Protein.RotatedTorsions>
[ 6907 6896 6895 6894 ] final   12.24 input  -60.11 | X-H torsion
[ 7974 7965 7964 7962 ] final  -46.67 input  175.53 | X-H torsion
[ 8008 7997 7996 7995 ] final  -93.04 input   59.86 | X-H torsion
[ 10167 10162 10161 10158 ] final  -25.89 input  -65.29 | X-H torsion
[ 10718 10713 10712 10709 ] final   -8.10 input   66.30 | X-H torsion
[ 10763 10752 10751 10750 ] final  -87.06 input  -60.55 | X-H torsion
[ 11005 11000 10999 10996 ] final  161.39 input  -57.11 | X-H torsion

> <Gold.Protein.ActiveResidues>
 VAL166  LYS551  ARG553  GLY616  TRP617  ASP618  TYR619  PRO620  LYS621  CYS622 
 ASP623  PHE694  ASN695  SER759  ASP760  ASP761  ALA762  ILE779  LEU786  VAL792 
 PHE793  MET794  SER795  GLU796  ALA797  LYS798  CYS799  TRP800  GLU811  SER814 

> <Gold.Protein.RotatedAtoms>
  151.7672  135.0795  160.0354 H   0  0  0  0  0  0  0  0  0  0  0  0  # atno 6907 bound_to 6896
  152.3313  133.5957  159.5820 H   0  0  0  0  0  0  0  0  0  0  0  0  # atno 6908 bound_to 6896
  150.7424  133.9779  159.3608 H   0  0  0  0  0  0  0  0  0  0  0  0  # atno 6909 bound_to 6896
  145.9695  140.7398  142.9417 H   0  0  0  0  0  0  0  0  0  0  0  0  # atno 7974 bound_to 7965
  154.7307  140.0503  157.0723 H   0  0  0  0  0  0  0  0  0  0  0  0  # atno 8008 bound_to 7997
  155.0306  140.3157  155.4741 H   0  0  0  0  0  0  0  0  0  0  0  0  # atno 8009 bound_to 7997
  156.2840  140.2150  156.5427 H   0  0  0  0  0  0  0  0  0  0  0  0  # atno 8010 bound_to 7997
  140.7285  143.4225  151.0928 H   0  0  0  0  0  0  0  0  0  0  0  0  # atno 10167 bound_to 10162
  156.7075  130.5112  149.5901 H   0  0  0  0  0  0  0  0  0  0  0  0  # atno 10718 bound_to 10713
  154.6294  135.5427  153.7664 H   0  0  0  0  0  0  0  0  0  0  0  0  # atno 10763 bound_to 10752
  153.0277  135.6432  154.1323 H   0  0  0  0  0  0  0  0  0  0  0  0  # atno 10764 bound_to 10752
  154.1254  135.2917  155.3178 H   0  0  0  0  0  0  0  0  0  0  0  0  # atno 10765 bound_to 10752
  140.2153  134.8237  157.3164 H   0  0  0  0  0  0  0  0  0  0  0  0  # atno 11005 bound_to 11000
  144.6833  140.2724  143.7304 LP  0  0  0  0  0  0  0  0  0  0  0  0  # atno 17320 bound_to 7965
  145.7927  139.1933  143.2094 LP  0  0  0  0  0  0  0  0  0  0  0  0  # atno 17321 bound_to 7965
  139.7873  143.8269  152.3146 LP  0  0  0  0  0  0  0  0  0  0  0  0  # atno 17342 bound_to 10162
  139.8241  144.7283  150.9534 LP  0  0  0  0  0  0  0  0  0  0  0  0  # atno 17343 bound_to 10162
  156.1685  130.6421  151.0807 LP  0  0  0  0  0  0  0  0  0  0  0  0  # atno 17370 bound_to 10713
  157.6949  131.0797  150.6998 LP  0  0  0  0  0  0  0  0  0  0  0  0  # atno 17371 bound_to 10713
  140.1907  134.4375  155.7717 LP  0  0  0  0  0  0  0  0  0  0  0  0  # atno 17394 bound_to 11000
  141.2225  133.7026  156.8022 LP  0  0  0  0  0  0  0  0  0  0  0  0  # atno 17395 bound_to 11000

$$$$
