AV-unprocessed.smi:3110|AV-procd|sdf|11830|dock7
  -GOLD-   2272017203D 1   1.00000     0.00000
 Structure written by MMmdl.
 33 34  0  0  0  0  0  0  0  0  1 V2000
  152.6880  139.5992  157.1212 O   0  0  0  0  0  0  0  0  0  0  0  0
  151.7452  139.8492  157.8720 C   0  0  0  0  0  0  0  0  0  0  0  0
  151.9702  139.9537  159.3827 C   0  0  0  0  0  0  0  0  0  0  0  0
  152.8070  141.1901  159.7728 C   0  0  2  0  0  0  0  0  0  0  0  0
  153.1600  141.2058  161.2379 C   0  0  0  0  0  0  0  0  0  0  0  0
  152.9019  142.3762  161.8175 C   0  0  0  0  0  0  0  0  0  0  0  0
  152.3226  143.3768  160.8569 C   0  0  0  0  0  0  0  0  0  0  0  0
  152.1014  142.5579  159.5666 C   0  0  0  0  0  0  0  0  0  0  0  0
  150.4877  140.0354  157.4410 N   0  0  0  0  0  0  0  0  0  0  0  0
  150.0416  139.8957  156.0578 C   0  0  0  0  0  0  0  0  0  0  0  0
  149.8326  141.2638  155.3818 C   0  0  0  0  0  0  0  0  0  0  0  0
  148.5883  141.3371  154.6380 N   0  0  0  0  0  0  0  0  0  0  0  0
  148.1813  140.5081  153.6004 C   0  0  0  0  0  0  0  0  0  0  0  0
  146.9455  140.9609  153.1972 C   0  0  0  0  0  0  0  0  0  0  0  0
  146.5716  142.0558  153.9727 N   0  0  0  0  0  0  0  0  0  0  0  0
  147.5930  142.2191  154.8037 C   0  0  0  0  0  0  0  0  0  0  0  0
  150.9993  139.9844  159.8795 H   0  0  0  0  0  0  0  0  0  0  0  0
  152.4642  139.0474  159.7367 H   0  0  0  0  0  0  0  0  0  0  0  0
  153.7492  141.1796  159.2224 H   0  0  0  0  0  0  0  0  0  0  0  0
  153.5939  140.3503  161.7344 H   0  0  0  0  0  0  0  0  0  0  0  0
  153.0931  142.6150  162.8531 H   0  0  0  0  0  0  0  0  0  0  0  0
  151.3906  143.7930  161.2399 H   0  0  0  0  0  0  0  0  0  0  0  0
  153.0324  144.1898  160.7020 H   0  0  0  0  0  0  0  0  0  0  0  0
  152.4774  143.0781  158.6849 H   0  0  0  0  0  0  0  0  0  0  0  0
  151.0294  142.4177  159.4219 H   0  0  0  0  0  0  0  0  0  0  0  0
  149.7792  140.2473  158.1285 H   0  0  0  0  0  0  0  0  0  0  0  0
  150.8122  139.3440  155.5192 H   0  0  0  0  0  0  0  0  0  0  0  0
  149.1357  139.2904  155.9922 H   0  0  0  0  0  0  0  0  0  0  0  0
  149.8478  142.0635  156.1234 H   0  0  0  0  0  0  0  0  0  0  0  0
  150.6519  141.4635  154.6904 H   0  0  0  0  0  0  0  0  0  0  0  0
  148.7912  139.6934  153.2389 H   0  0  0  0  0  0  0  0  0  0  0  0
  146.3025  140.5859  152.4148 H   0  0  0  0  0  0  0  0  0  0  0  0
  147.6205  143.0020  155.5476 H   0  0  0  0  0  0  0  0  0  0  0  0
  1  2  2  0  0  0  0
  2  3  1  0  0  0  0
  2  9  1  0  0  0  0
  3  4  1  0  0  0  0
  3 17  1  0  0  0  0
  3 18  1  0  0  0  0
  4  8  1  0  0  0  0
  4  5  1  0  0  0  0
  4 19  1  0  0  0  0
  5  6  2  0  0  0  0
  5 20  1  0  0  0  0
  6  7  1  0  0  0  0
  6 21  1  0  0  0  0
  7  8  1  0  0  0  0
  7 22  1  0  0  0  0
  7 23  1  0  0  0  0
  8 24  1  0  0  0  0
  8 25  1  0  0  0  0
  9 10  1  0  0  0  0
  9 26  1  0  0  0  0
 10 11  1  0  0  0  0
 10 27  1  0  0  0  0
 10 28  1  0  0  0  0
 11 12  1  0  0  0  0
 11 29  1  0  0  0  0
 11 30  1  0  0  0  0
 12 16  1  0  0  0  0
 12 13  1  0  0  0  0
 13 14  2  0  0  0  0
 13 31  1  0  0  0  0
 14 15  1  0  0  0  0
 14 32  1  0  0  0  0
 15 16  2  0  0  0  0
 16 33  1  0  0  0  0
M  END
> <s_m_source_file>
AV-unprocessed.smi

> <i_m_source_file_index>
3110

> <i_lp_mmshare_version>
43012

> <i_f3d_flags>
0

> <s_epik_input>
W0NIMl0xW0NIMl1bQ0hdPVtDSF1bQ0BIXTFbQ0gyXUMoPU8pW05IXVtDSDJdW0NIMl1uMltjSF1bY0hdbltjSF0y

> <s_epik_cmdline>
J2VwaWtfcHl0aG9uJywgJy1waCcsICc3LjAnLCAnLXRuJywgJzgnLCAnLW1hJywgJzIwMCcsICctbWV0YWxfYmluZGluZycsICctaW1hZScsICc8aW5maWxlLm1hZT4nLCAnLW9tYWUnLCAnPG91dGZpbGUubWFlPic=

> <r_lp_tautomer_probability>
1

> <r_epik_Ionization_Penalty>
0.593629

> <r_epik_Ionization_Penalty_Charging>
0.593629

> <r_epik_Ionization_Penalty_Neutral>
1.57355e-08

> <r_epik_State_Penalty>
0.607413

> <r_epik_Charging_Adjusted_Penalty>
1.20104

> <i_epik_Tot_Q>
0

> <i_epik_Tot_abs_Q>
0

> <r_epik_Metal_State_Penalty>
0.299385

> <b_epik_Metal_Only>
0

> <s_lp_Force_Field>
OPLS_2005

> <r_lp_Energy>
17.6057

> <b_lp_Chiralities_Consistent>
1

> <s_lp_Variant>
AV-unprocessed.smi:3110-3

> <Gold.Version>
5.8.1

> <Gold.Id.Protein>
6NUR|6NUR_protein|mol2

> <Gold.PLP.Fitness>
44.2323

> <Gold.PLP.PLP>
-34.1372

> <Gold.PLP.part.hbond>
-1.0000

> <Gold.PLP.part.metal>
0.0000

> <Gold.PLP.part.buried>
0.3122

> <Gold.PLP.part.nonpolar>
-33.5014

> <Gold.PLP.part.repulsive>
0.2146

> <Gold.PLP.ligand.clash>
0.0000

> <Gold.PLP.ligand.torsion>
0.5368

> <Gold.PLP.Chemscore.Hbond>
1.0000

> <Gold.PLP.Chemscore.CHOScore>
2.7174

> <Gold.PLP.Chemscore.Metal>
0.0000

> <Gold.Chemscore.Hbonds>
donor molecule, donor type, donor heavy atom, donor atom, acceptor molecule, acceptor atom, score
      P1  H  7997  8008       L1     1  1.00
      L1  C    13    31       P1  7957  0.67
      L1  C    14    32       P1 10175  0.75
      L1  C    16    33       P1  8028  0.99

> <Gold.PLP.Chemscore.Internal.Correction>
0.0163

> <Gold.Rescore>
     Score         DG    S(hbond)    S(metal)    S(lipo)     H(rot)  DE(clash)    DE(int)     intcor
     12.88     -13.85       1.00        0.00      87.09       2.01       0.23       0.74       ----

> <Gold.Chemscore.Fitness>
12.8800

> <Gold.Chemscore.DG>
-13.8504

> <Gold.Chemscore.ZeroCoef>
-5.4800

> <Gold.Chemscore.Hbond>
0.9966

> <Gold.Chemscore.Metal>
0.0000

> <Gold.Chemscore.Lipo>
87.0888

> <Gold.Chemscore.Internal_Hbond>
0.0000

> <Gold.Chemscore.DEClash>
0.2303

> <Gold.Chemscore.DEInternal>
0.7400

> <Gold.Chemscore.Rot>
2.0108

> <Gold.Chemscore.Internal.Correction>
   9.000000E+99

> <Gold.Chemscore.Hbonds>
donor molecule, donor type, donor heavy atom, donor atom, acceptor molecule, acceptor atom, score
      P1  H  7997  8008       L1     1  1.00

> <Gold.Chemscore.Hbond.Weighted>
-3.3287

> <Gold.Chemscore.Metal.Weighted>
-0.0000

> <Gold.Chemscore.Lipo.Weighted>
-10.1894

> <Gold.Chemscore.Internal_Hbond.Weighted>
0.0000

> <Gold.Chemscore.DEClash.Weighted>
0.2303

> <Gold.Chemscore.DEInternal.Weighted>
0.7400

> <Gold.Chemscore.Rot.Weighted>
5.1477

> <Gold.Chemscore.Internal.Correction.Weighted>
   9.000000E+99

> <Gold.Protein.RotatedTorsions>
[ 6907 6896 6895 6894 ] final  100.97 input  -60.11 | X-H torsion
[ 7974 7965 7964 7962 ] final  169.33 input  175.53 | X-H torsion
[ 8008 7997 7996 7995 ] final  -65.10 input   59.86 | X-H torsion
[ 10167 10162 10161 10158 ] final   79.37 input  -65.29 | X-H torsion
[ 10718 10713 10712 10709 ] final -121.30 input   66.30 | X-H torsion
[ 10763 10752 10751 10750 ] final  165.19 input  -60.55 | X-H torsion
[ 11005 11000 10999 10996 ] final -124.32 input  -57.11 | X-H torsion

> <Gold.Protein.ActiveResidues>
 VAL166  LYS551  ARG553  GLY616  TRP617  ASP618  TYR619  PRO620  LYS621  CYS622 
 ASP623  PHE694  ASN695  SER759  ASP760  ASP761  ALA762  ILE779  LEU786  VAL792 
 PHE793  MET794  SER795  GLU796  ALA797  LYS798  CYS799  TRP800  GLU811  SER814 

> <Gold.Protein.RotatedAtoms>
  152.5360  134.0197  159.7975 H   0  0  0  0  0  0  0  0  0  0  0  0  # atno 6907 bound_to 6896
  151.0385  133.5719  159.2660 H   0  0  0  0  0  0  0  0  0  0  0  0  # atno 6908 bound_to 6896
  151.2697  135.0688  159.9183 H   0  0  0  0  0  0  0  0  0  0  0  0  # atno 6909 bound_to 6896
  144.7358  139.9039  143.6411 H   0  0  0  0  0  0  0  0  0  0  0  0  # atno 7974 bound_to 7965
  154.4651  140.0940  156.6999 H   0  0  0  0  0  0  0  0  0  0  0  0  # atno 8008 bound_to 7997
  155.4881  140.3470  155.4332 H   0  0  0  0  0  0  0  0  0  0  0  0  # atno 8009 bound_to 7997
  156.0942  140.1405  156.9541 H   0  0  0  0  0  0  0  0  0  0  0  0  # atno 8010 bound_to 7997
  139.9611  144.5960  150.8071 H   0  0  0  0  0  0  0  0  0  0  0  0  # atno 10167 bound_to 10162
  156.1326  130.6407  150.9645 H   0  0  0  0  0  0  0  0  0  0  0  0  # atno 10718 bound_to 10713
  154.3203  135.2756  155.2523 H   0  0  0  0  0  0  0  0  0  0  0  0  # atno 10763 bound_to 10752
  154.4879  135.5841  153.6441 H   0  0  0  0  0  0  0  0  0  0  0  0  # atno 10764 bound_to 10752
  152.9877  135.6127  154.3387 H   0  0  0  0  0  0  0  0  0  0  0  0  # atno 10765 bound_to 10752
  140.9850  134.0620  157.3721 H   0  0  0  0  0  0  0  0  0  0  0  0  # atno 11005 bound_to 11000
  146.1051  139.4050  143.0322 LP  0  0  0  0  0  0  0  0  0  0  0  0  # atno 17320 bound_to 7965
  145.7523  140.9967  143.1244 LP  0  0  0  0  0  0  0  0  0  0  0  0  # atno 17321 bound_to 7965
  140.7553  143.3043  151.3001 LP  0  0  0  0  0  0  0  0  0  0  0  0  # atno 17342 bound_to 10162
  139.6553  144.0287  152.2655 LP  0  0  0  0  0  0  0  0  0  0  0  0  # atno 17343 bound_to 10162
  157.6502  131.0898  150.8067 LP  0  0  0  0  0  0  0  0  0  0  0  0  # atno 17370 bound_to 10713
  156.8150  130.4965  149.5350 LP  0  0  0  0  0  0  0  0  0  0  0  0  # atno 17371 bound_to 10713
  139.8966  135.0147  156.7062 LP  0  0  0  0  0  0  0  0  0  0  0  0  # atno 17394 bound_to 11000
  140.7128  133.9208  155.8096 LP  0  0  0  0  0  0  0  0  0  0  0  0  # atno 17395 bound_to 11000

$$$$
