AV-unprocessed.smi:1762|AV-procd|sdf|7123|dock6
  -GOLD-   22720 8353D 1   1.00000     0.00000
 Structure written by MMmdl.
 52 53  0  0  0  0  0  0  0  0  3 V2000
  148.8934  140.8058  154.1272 C   0  0  0  0  0  0  0  0  0  0  0  0
  149.6433  139.4778  153.9745 C   0  0  2  0  0  0  0  0  0  0  0  0
  148.9139  138.3165  154.6764 C   0  0  0  0  0  0  0  0  0  0  0  0
  149.6946  137.0523  154.5770 N   0  3  2  0  0  0  0  0  0  0  0  0
  149.0383  135.8495  155.1933 C   0  0  2  0  0  0  0  0  0  0  0  0
  148.8525  136.0460  156.7182 C   0  0  0  0  0  0  0  0  0  0  0  0
  149.8413  136.3407  157.3991 O   0  0  0  0  0  0  0  0  0  0  0  0
  147.5536  135.8731  157.0854 N   0  5  0  0  0  0  0  0  0  0  0  0
  146.9442  136.5137  158.2494 C   0  0  0  0  0  0  0  0  0  0  0  0
  147.9495  136.5666  159.4235 C   0  0  0  0  0  0  0  0  0  0  0  0
  147.3230  136.5614  160.8168 C   0  0  0  0  0  0  0  0  0  0  0  0
  146.6905  135.3998  161.3155 C   0  0  0  0  0  0  0  0  0  0  0  0
  146.1245  135.4381  162.6039 C   0  0  0  0  0  0  0  0  0  0  0  0
  146.2004  136.6338  163.3425 C   0  0  0  0  0  0  0  0  0  0  0  0
  146.8398  137.7436  162.7555 C   0  0  0  0  0  0  0  0  0  0  0  0
  147.3864  137.7180  161.5213 N   0  0  0  0  0  0  0  0  0  0  0  0
  149.7512  134.4875  154.8858 C   0  0  0  0  0  0  0  0  0  0  0  0
  148.8933  133.5376  154.0277 C   0  0  0  0  0  0  0  0  0  0  0  0
  150.2752  133.7456  156.1333 C   0  0  0  0  0  0  0  0  0  0  0  0
  151.0734  137.2928  155.0926 C   0  0  0  0  0  0  0  0  0  0  0  0
  151.7406  138.4755  154.3688 C   0  0  2  0  0  0  0  0  0  0  0  0
  153.1371  138.7784  154.9233 C   0  0  0  0  0  0  0  0  0  0  0  0
  150.9365  139.6343  154.5415 O   0  0  0  0  0  0  0  0  0  0  0  0
  147.8940  140.7453  153.6958 H   0  0  0  0  0  0  0  0  0  0  0  0
  149.4243  141.6130  153.6221 H   0  0  0  0  0  0  0  0  0  0  0  0
  148.7887  141.0819  155.1767 H   0  0  0  0  0  0  0  0  0  0  0  0
  149.7418  139.2579  152.9099 H   0  0  0  0  0  0  0  0  0  0  0  0
  148.7404  138.5539  155.7273 H   0  0  0  0  0  0  0  0  0  0  0  0
  147.9399  138.2173  154.2017 H   0  0  0  0  0  0  0  0  0  0  0  0
  148.0552  135.7864  154.7198 H   0  0  0  0  0  0  0  0  0  0  0  0
  146.5963  137.5259  158.0371 H   0  0  0  0  0  0  0  0  0  0  0  0
  146.0610  135.9622  158.5735 H   0  0  0  0  0  0  0  0  0  0  0  0
  148.6198  135.7090  159.3512 H   0  0  0  0  0  0  0  0  0  0  0  0
  148.5880  137.4453  159.3233 H   0  0  0  0  0  0  0  0  0  0  0  0
  146.6543  134.4948  160.7269 H   0  0  0  0  0  0  0  0  0  0  0  0
  145.6426  134.5652  163.0184 H   0  0  0  0  0  0  0  0  0  0  0  0
  145.7783  136.7000  164.3342 H   0  0  0  0  0  0  0  0  0  0  0  0
  146.9127  138.6780  163.2919 H   0  0  0  0  0  0  0  0  0  0  0  0
  150.6113  134.7011  154.2530 H   0  0  0  0  0  0  0  0  0  0  0  0
  148.0212  133.1694  154.5695 H   0  0  0  0  0  0  0  0  0  0  0  0
  149.4692  132.6673  153.7125 H   0  0  0  0  0  0  0  0  0  0  0  0
  148.5386  134.0379  153.1263 H   0  0  0  0  0  0  0  0  0  0  0  0
  149.4603  133.3586  156.7448 H   0  0  0  0  0  0  0  0  0  0  0  0
  150.8868  134.3878  156.7662 H   0  0  0  0  0  0  0  0  0  0  0  0
  150.8914  132.8937  155.8447 H   0  0  0  0  0  0  0  0  0  0  0  0
  151.0289  137.4860  156.1658 H   0  0  0  0  0  0  0  0  0  0  0  0
  151.7047  136.4144  154.9591 H   0  0  0  0  0  0  0  0  0  0  0  0
  151.8319  138.2523  153.3042 H   0  0  0  0  0  0  0  0  0  0  0  0
  153.8004  137.9209  154.8074 H   0  0  0  0  0  0  0  0  0  0  0  0
  153.0954  139.0286  155.9839 H   0  0  0  0  0  0  0  0  0  0  0  0
  153.5899  139.6209  154.4000 H   0  0  0  0  0  0  0  0  0  0  0  0
  149.7844  136.8436  153.5929 H   0  0  0  0  0  0  0  0  0  0  0  0
  1  2  1  0  0  0  0
  1 24  1  0  0  0  0
  1 25  1  0  0  0  0
  1 26  1  0  0  0  0
  2 23  1  0  0  0  0
  2  3  1  0  0  0  0
  2 27  1  0  0  0  0
  3  4  1  0  0  0  0
  3 28  1  0  0  0  0
  3 29  1  0  0  0  0
  4  5  1  0  0  0  0
  4 20  1  0  0  0  0
  4 52  1  0  0  0  0
  5  6  1  0  0  0  0
  5 17  1  0  0  0  0
  5 30  1  0  0  0  0
  6  7  2  0  0  0  0
  6  8  1  0  0  0  0
  8  9  1  0  0  0  0
  9 10  1  0  0  0  0
  9 31  1  0  0  0  0
  9 32  1  0  0  0  0
 10 11  1  0  0  0  0
 10 33  1  0  0  0  0
 10 34  1  0  0  0  0
 11 16  1  0  0  0  0
 11 12  2  0  0  0  0
 12 13  1  0  0  0  0
 12 35  1  0  0  0  0
 13 14  2  0  0  0  0
 13 36  1  0  0  0  0
 14 15  1  0  0  0  0
 14 37  1  0  0  0  0
 15 16  2  0  0  0  0
 15 38  1  0  0  0  0
 17 18  1  0  0  0  0
 17 19  1  0  0  0  0
 17 39  1  0  0  0  0
 18 40  1  0  0  0  0
 18 41  1  0  0  0  0
 18 42  1  0  0  0  0
 19 43  1  0  0  0  0
 19 44  1  0  0  0  0
 19 45  1  0  0  0  0
 20 21  1  0  0  0  0
 20 46  1  0  0  0  0
 20 47  1  0  0  0  0
 21 22  1  0  0  0  0
 21 23  1  0  0  0  0
 21 48  1  0  0  0  0
 22 49  1  0  0  0  0
 22 50  1  0  0  0  0
 22 51  1  0  0  0  0
M  CHG  1   4   1
M  CHG  1   8  -1
M  END
> <s_m_source_file>
AV-unprocessed.smi

> <i_m_source_file_index>
1762

> <i_lp_mmshare_version>
43012

> <i_f3d_flags>
0

> <s_epik_input>
W0NIM11bQ0BASF0xW0NIMl1OKFtDSDJdW0NASF0oTzEpW0NIM10pW0NAQEhdKFtDSF0oW0NIM10pW0NIM10pQyg9TylbTkhdW0NIMl1bQ0gyXWMyW2NIXVtjSF1bY0hdW2NIXW4y

> <s_epik_cmdline>
J2VwaWtfcHl0aG9uJywgJy1waCcsICc3LjAnLCAnLXRuJywgJzgnLCAnLW1hJywgJzIwMCcsICctbWV0YWxfYmluZGluZycsICctaW1hZScsICc8aW5maWxlLm1hZT4nLCAnLW9tYWUnLCAnPG91dGZpbGUubWFlPic=

> <r_epik_Ionization_Penalty>
7.82966

> <r_epik_Ionization_Penalty_Charging>
7.7461

> <r_epik_Ionization_Penalty_Neutral>
0.0835571

> <r_epik_State_Penalty>
8.52273

> <r_epik_Charging_Adjusted_Penalty>
16.2688

> <i_epik_Tot_Q>
0

> <i_epik_Tot_abs_Q>
2

> <r_epik_Metal_State_Penalty>
4.47451

> <b_epik_Metal_Only>
1

> <s_lp_Force_Field>
OPLS_2005

> <r_lp_Energy>
21.039

> <b_lp_Chiralities_Consistent>
1

> <s_lp_Variant>
AV-unprocessed.smi:1762-25

> <Gold.Version>
5.8.1

> <Gold.Id.Protein>
6NUR|6NUR_protein|mol2

> <Gold.PLP.Fitness>
49.9856

> <Gold.PLP.PLP>
-42.2355

> <Gold.PLP.part.hbond>
-3.9226

> <Gold.PLP.part.metal>
0.0000

> <Gold.PLP.part.buried>
-2.2731

> <Gold.PLP.part.nonpolar>
-36.8187

> <Gold.PLP.part.repulsive>
0.1304

> <Gold.PLP.ligand.clash>
0.0000

> <Gold.PLP.ligand.torsion>
2.2818

> <Gold.PLP.Chemscore.Hbond>
3.9924

> <Gold.PLP.Chemscore.CHOScore>
0.0000

> <Gold.PLP.Chemscore.Metal>
0.0000

> <Gold.Chemscore.Hbonds>
donor molecule, donor type, donor heavy atom, donor atom, acceptor molecule, acceptor atom, score
      L1  H     4    52       P1  7948  2.00
      P1  H  6931  6943       L1    16  0.59
      P1  H  6934  6947       L1    16  0.60
      P1  H  7989  7998       L1    23  1.00

> <Gold.PLP.Chemscore.Internal.Correction>
0.3364

> <Gold.Rescore>
     Score         DG    S(hbond)    S(metal)    S(lipo)     H(rot)  DE(clash)    DE(int)     intcor
     10.54     -17.73       1.02        0.00     110.75       1.60       1.65       5.55       ----

> <Gold.Chemscore.Fitness>
10.5400

> <Gold.Chemscore.DG>
-17.7346

> <Gold.Chemscore.ZeroCoef>
-5.4800

> <Gold.Chemscore.Hbond>
1.0167

> <Gold.Chemscore.Metal>
0.0000

> <Gold.Chemscore.Lipo>
110.7519

> <Gold.Chemscore.Internal_Hbond>
0.0000

> <Gold.Chemscore.DEClash>
1.6495

> <Gold.Chemscore.DEInternal>
5.5451

> <Gold.Chemscore.Rot>
1.6012

> <Gold.Chemscore.Internal.Correction>
   9.000000E+99

> <Gold.Chemscore.Hbonds>
donor molecule, donor type, donor heavy atom, donor atom, acceptor molecule, acceptor atom, score
      L1  H     4    52       P1  7948  0.47
      P1  H  6931  6943       L1    16  0.12
      P1  H  6934  6947       L1    16  0.36
      P1  H  7989  7998       L1    23  0.19

> <Gold.Chemscore.Hbond.Weighted>
-3.3956

> <Gold.Chemscore.Metal.Weighted>
-0.0000

> <Gold.Chemscore.Lipo.Weighted>
-12.9580

> <Gold.Chemscore.Internal_Hbond.Weighted>
0.0000

> <Gold.Chemscore.DEClash.Weighted>
1.6495

> <Gold.Chemscore.DEInternal.Weighted>
5.5451

> <Gold.Chemscore.Rot.Weighted>
4.0990

> <Gold.Chemscore.Internal.Correction.Weighted>
   9.000000E+99

> <Gold.Protein.RotatedTorsions>
[ 6907 6896 6895 6894 ] final  169.62 input  -60.11 | X-H torsion
[ 7974 7965 7964 7962 ] final  -45.67 input  175.53 | X-H torsion
[ 8008 7997 7996 7995 ] final -146.39 input   59.86 | X-H torsion
[ 10167 10162 10161 10158 ] final -115.62 input  -65.29 | X-H torsion
[ 10718 10713 10712 10709 ] final -142.14 input   66.30 | X-H torsion
[ 10763 10752 10751 10750 ] final  172.07 input  -60.55 | X-H torsion
[ 11005 11000 10999 10996 ] final  -24.47 input  -57.11 | X-H torsion

> <Gold.Protein.ActiveResidues>
 VAL166  LYS551  ARG553  GLY616  TRP617  ASP618  TYR619  PRO620  LYS621  CYS622 
 ASP623  PHE694  ASN695  SER759  ASP760  ASP761  ALA762  ILE779  LEU786  VAL792 
 PHE793  MET794  SER795  GLU796  ALA797  LYS798  CYS799  TRP800  GLU811  SER814 

> <Gold.Protein.RotatedAtoms>
  151.8290  133.3405  159.3607 H   0  0  0  0  0  0  0  0  0  0  0  0  # atno 6907 bound_to 6896
  150.7270  134.5501  159.5799 H   0  0  0  0  0  0  0  0  0  0  0  0  # atno 6908 bound_to 6896
  152.2950  134.7679  160.0421 H   0  0  0  0  0  0  0  0  0  0  0  0  # atno 6909 bound_to 6896
  145.9797  140.7297  142.9370 H   0  0  0  0  0  0  0  0  0  0  0  0  # atno 7974 bound_to 7965
  155.5586  140.0623  157.2834 H   0  0  0  0  0  0  0  0  0  0  0  0  # atno 8008 bound_to 7997
  154.4397  140.1890  156.0804 H   0  0  0  0  0  0  0  0  0  0  0  0  # atno 8009 bound_to 7997
  156.0464  140.3289  155.7304 H   0  0  0  0  0  0  0  0  0  0  0  0  # atno 8010 bound_to 7997
  140.0881  143.4725  152.1886 H   0  0  0  0  0  0  0  0  0  0  0  0  # atno 10167 bound_to 10162
  156.3423  130.7644  151.1782 H   0  0  0  0  0  0  0  0  0  0  0  0  # atno 10718 bound_to 10713
  154.4208  135.2758  155.1976 H   0  0  0  0  0  0  0  0  0  0  0  0  # atno 10763 bound_to 10752
  154.3923  135.6063  153.5853 H   0  0  0  0  0  0  0  0  0  0  0  0  # atno 10764 bound_to 10752
  152.9833  135.5906  154.4504 H   0  0  0  0  0  0  0  0  0  0  0  0  # atno 10765 bound_to 10752
  140.8848  133.7629  156.0347 H   0  0  0  0  0  0  0  0  0  0  0  0  # atno 11005 bound_to 11000
  144.6858  140.2887  143.7281 LP  0  0  0  0  0  0  0  0  0  0  0  0  # atno 17320 bound_to 7965
  145.7787  139.1883  143.2170 LP  0  0  0  0  0  0  0  0  0  0  0  0  # atno 17321 bound_to 7965
  139.5741  144.7478  151.3813 LP  0  0  0  0  0  0  0  0  0  0  0  0  # atno 17342 bound_to 10162
  140.7043  143.7553  150.7455 LP  0  0  0  0  0  0  0  0  0  0  0  0  # atno 17343 bound_to 10162
  157.7449  131.0451  150.4826 LP  0  0  0  0  0  0  0  0  0  0  0  0  # atno 17370 bound_to 10713
  156.5008  130.4116  149.6354 LP  0  0  0  0  0  0  0  0  0  0  0  0  # atno 17371 bound_to 10713
  140.8418  134.3058  157.5310 LP  0  0  0  0  0  0  0  0  0  0  0  0  # atno 17394 bound_to 11000
  139.8723  134.9420  156.3813 LP  0  0  0  0  0  0  0  0  0  0  0  0  # atno 17395 bound_to 11000

$$$$
