AV-unprocessed.smi:3241|AV-procd|sdf|12388|dock7
  -GOLD-   2272018253D 1   1.00000     0.00000
 Structure written by MMmdl.
 44 45  0  0  0  0  0  0  0  0  2 V2000
  152.7797  140.6217  159.6342 C   0  0  0  0  0  0  0  0  0  0  0  0
  152.0552  141.9776  159.6726 C   0  0  1  0  0  0  0  0  0  0  0  0
  152.8203  142.9776  160.5628 C   0  0  0  0  0  0  0  0  0  0  0  0
  152.1238  144.3460  160.6127 C   0  0  0  0  0  0  0  0  0  0  0  0
  151.9326  144.9187  159.2017 C   0  0  0  0  0  0  0  0  0  0  0  0
  151.1607  143.9357  158.3094 C   0  0  0  0  0  0  0  0  0  0  0  0
  151.8508  142.5565  158.2542 C   0  0  2  0  0  0  0  0  0  0  0  0
  151.0339  141.6488  157.5251 O   0  0  0  0  0  0  0  0  0  0  0  0
  150.7424  142.0576  156.1971 C   0  0  0  0  0  0  0  0  0  0  0  0
  149.4718  141.3380  155.7341 C   0  0  0  0  0  0  0  0  0  0  0  0
  148.9415  141.9489  154.5002 N   0  3  0  0  0  0  0  0  0  0  0  0
  147.8497  141.1837  153.8653 C   0  0  0  0  0  0  0  0  0  0  0  0
  148.0541  139.6686  154.0233 C   0  0  0  0  0  0  0  0  0  0  0  0
  147.1764  138.9019  153.1576 N   0  0  0  0  0  0  0  0  0  0  0  0
  147.0437  138.9783  151.7872 C   0  0  0  0  0  0  0  0  0  0  0  0
  146.1035  138.0591  151.4187 C   0  0  0  0  0  0  0  0  0  0  0  0
  145.7123  137.4626  152.6497 C   0  0  0  0  0  0  0  0  0  0  0  0
  146.3589  137.9669  153.6886 N   0  0  0  0  0  0  0  0  0  0  0  0
  153.7639  140.7113  159.1736 H   0  0  0  0  0  0  0  0  0  0  0  0
  152.2130  139.8832  159.0669 H   0  0  0  0  0  0  0  0  0  0  0  0
  152.9188  140.2227  160.6395 H   0  0  0  0  0  0  0  0  0  0  0  0
  151.0731  141.8164  160.1197 H   0  0  0  0  0  0  0  0  0  0  0  0
  152.9134  142.5807  161.5744 H   0  0  0  0  0  0  0  0  0  0  0  0
  153.8367  143.1034  160.1868 H   0  0  0  0  0  0  0  0  0  0  0  0
  151.1544  144.2462  161.1026 H   0  0  0  0  0  0  0  0  0  0  0  0
  152.7075  145.0391  161.2193 H   0  0  0  0  0  0  0  0  0  0  0  0
  151.4007  145.8689  159.2554 H   0  0  0  0  0  0  0  0  0  0  0  0
  152.9054  145.1326  158.7568 H   0  0  0  0  0  0  0  0  0  0  0  0
  150.1459  143.8216  158.6925 H   0  0  0  0  0  0  0  0  0  0  0  0
  151.0663  144.3581  157.3093 H   0  0  0  0  0  0  0  0  0  0  0  0
  152.8291  142.6541  157.7789 H   0  0  0  0  0  0  0  0  0  0  0  0
  150.5855  143.1357  156.1585 H   0  0  0  0  0  0  0  0  0  0  0  0
  151.5738  141.8229  155.5306 H   0  0  0  0  0  0  0  0  0  0  0  0
  149.6764  140.2799  155.5661 H   0  0  0  0  0  0  0  0  0  0  0  0
  148.7122  141.4007  156.5145 H   0  0  0  0  0  0  0  0  0  0  0  0
  148.5965  142.8733  154.7184 H   0  0  0  0  0  0  0  0  0  0  0  0
  146.9040  141.4729  154.3252 H   0  0  0  0  0  0  0  0  0  0  0  0
  147.7849  141.4460  152.8082 H   0  0  0  0  0  0  0  0  0  0  0  0
  149.0900  139.3947  153.8164 H   0  0  0  0  0  0  0  0  0  0  0  0
  147.8546  139.3745  155.0543 H   0  0  0  0  0  0  0  0  0  0  0  0
  147.6228  139.6716  151.1949 H   0  0  0  0  0  0  0  0  0  0  0  0
  145.7475  137.8460  150.4217 H   0  0  0  0  0  0  0  0  0  0  0  0
  144.9844  136.6827  152.8180 H   0  0  0  0  0  0  0  0  0  0  0  0
  149.6987  142.0393  153.8376 H   0  0  0  0  0  0  0  0  0  0  0  0
  1  2  1  0  0  0  0
  1 19  1  0  0  0  0
  1 20  1  0  0  0  0
  1 21  1  0  0  0  0
  2  7  1  0  0  0  0
  2  3  1  0  0  0  0
  2 22  1  0  0  0  0
  3  4  1  0  0  0  0
  3 23  1  0  0  0  0
  3 24  1  0  0  0  0
  4  5  1  0  0  0  0
  4 25  1  0  0  0  0
  4 26  1  0  0  0  0
  5  6  1  0  0  0  0
  5 27  1  0  0  0  0
  5 28  1  0  0  0  0
  6  7  1  0  0  0  0
  6 29  1  0  0  0  0
  6 30  1  0  0  0  0
  7  8  1  0  0  0  0
  7 31  1  0  0  0  0
  8  9  1  0  0  0  0
  9 10  1  0  0  0  0
  9 32  1  0  0  0  0
  9 33  1  0  0  0  0
 10 11  1  0  0  0  0
 10 34  1  0  0  0  0
 10 35  1  0  0  0  0
 11 12  1  0  0  0  0
 11 36  1  0  0  0  0
 11 44  1  0  0  0  0
 12 13  1  0  0  0  0
 12 37  1  0  0  0  0
 12 38  1  0  0  0  0
 13 14  1  0  0  0  0
 13 39  1  0  0  0  0
 13 40  1  0  0  0  0
 14 18  1  0  0  0  0
 14 15  1  0  0  0  0
 15 16  2  0  0  0  0
 15 41  1  0  0  0  0
 16 17  1  0  0  0  0
 16 42  1  0  0  0  0
 17 18  2  0  0  0  0
 17 43  1  0  0  0  0
M  CHG  1  11   1
M  END
> <s_m_source_file>
AV-unprocessed.smi

> <i_m_source_file_index>
3241

> <i_lp_mmshare_version>
43012

> <i_f3d_flags>
0

> <s_epik_input>
W0NIM11bQ0BASF0xW0NIMl1bQ0gyXVtDSDJdW0NIMl1bQ0BIXTFPW0NIMl1bQ0gyXVtOSF1bQ0gyXVtDSDJdbjJbY0hdW2NIXVtjSF1uMg==

> <s_epik_cmdline>
J2VwaWtfcHl0aG9uJywgJy1waCcsICc3LjAnLCAnLXRuJywgJzgnLCAnLW1hJywgJzIwMCcsICctbWV0YWxfYmluZGluZycsICctaW1hZScsICc8aW5maWxlLm1hZT4nLCAnLW9tYWUnLCAnPG91dGZpbGUubWFlPic=

> <r_lp_tautomer_probability>
1

> <r_epik_Ionization_Penalty>
0.00924946

> <r_epik_Ionization_Penalty_Charging>
0.00924645

> <r_epik_Ionization_Penalty_Neutral>
3.00629e-06

> <r_epik_State_Penalty>
0.0070118

> <r_epik_Charging_Adjusted_Penalty>
0.0162583

> <i_epik_Tot_Q>
1

> <i_epik_Tot_abs_Q>
1

> <r_epik_Metal_State_Penalty>
0.00702523

> <b_epik_Metal_Only>
0

> <s_lp_Force_Field>
OPLS_2005

> <r_lp_Energy>
14.0519

> <b_lp_Chiralities_Consistent>
1

> <s_lp_Variant>
AV-unprocessed.smi:3241-4

> <Gold.Version>
5.8.1

> <Gold.Id.Protein>
6NUR|6NUR_protein|mol2

> <Gold.PLP.Fitness>
48.3498

> <Gold.PLP.PLP>
-39.9800

> <Gold.PLP.part.hbond>
-1.0000

> <Gold.PLP.part.metal>
0.0000

> <Gold.PLP.part.buried>
-0.7739

> <Gold.PLP.part.nonpolar>
-40.4906

> <Gold.PLP.part.repulsive>
1.1678

> <Gold.PLP.ligand.clash>
0.0000

> <Gold.PLP.ligand.torsion>
0.3792

> <Gold.PLP.Chemscore.Hbond>
2.0000

> <Gold.PLP.Chemscore.CHOScore>
1.0000

> <Gold.PLP.Chemscore.Metal>
0.0000

> <Gold.Chemscore.Hbonds>
donor molecule, donor type, donor heavy atom, donor atom, acceptor molecule, acceptor atom, score
      L1  H    11    36       P1  8028  1.79
      L1  C    15    41       P1  7957  0.84

> <Gold.PLP.Chemscore.Internal.Correction>
0.1282

> <Gold.Rescore>
     Score         DG    S(hbond)    S(metal)    S(lipo)     H(rot)  DE(clash)    DE(int)     intcor
     17.64     -18.07       1.00        0.00     120.48       1.89       0.04       0.39       ----

> <Gold.Chemscore.Fitness>
17.6436

> <Gold.Chemscore.DG>
-18.0715

> <Gold.Chemscore.ZeroCoef>
-5.4800

> <Gold.Chemscore.Hbond>
0.9987

> <Gold.Chemscore.Metal>
0.0000

> <Gold.Chemscore.Lipo>
120.4780

> <Gold.Chemscore.Internal_Hbond>
0.0000

> <Gold.Chemscore.DEClash>
0.0371

> <Gold.Chemscore.DEInternal>
0.3907

> <Gold.Chemscore.Rot>
1.8906

> <Gold.Chemscore.Internal.Correction>
   9.000000E+99

> <Gold.Chemscore.Hbonds>
donor molecule, donor type, donor heavy atom, donor atom, acceptor molecule, acceptor atom, score
      L1  H    11    36       P1  8028  0.82

> <Gold.Chemscore.Hbond.Weighted>
-3.3356

> <Gold.Chemscore.Metal.Weighted>
-0.0000

> <Gold.Chemscore.Lipo.Weighted>
-14.0959

> <Gold.Chemscore.Internal_Hbond.Weighted>
0.0000

> <Gold.Chemscore.DEClash.Weighted>
0.0371

> <Gold.Chemscore.DEInternal.Weighted>
0.3907

> <Gold.Chemscore.Rot.Weighted>
4.8400

> <Gold.Chemscore.Internal.Correction.Weighted>
   9.000000E+99

> <Gold.Protein.RotatedTorsions>
[ 6907 6896 6895 6894 ] final -126.64 input  -60.11 | X-H torsion
[ 7974 7965 7964 7962 ] final  169.47 input  175.53 | X-H torsion
[ 8008 7997 7996 7995 ] final  -41.81 input   59.86 | X-H torsion
[ 10167 10162 10161 10158 ] final   25.54 input  -65.29 | X-H torsion
[ 10718 10713 10712 10709 ] final -119.60 input   66.30 | X-H torsion
[ 10763 10752 10751 10750 ] final   65.17 input  -60.55 | X-H torsion
[ 11005 11000 10999 10996 ] final  159.31 input  -57.11 | X-H torsion

> <Gold.Protein.ActiveResidues>
 VAL166  LYS551  ARG553  GLY616  TRP617  ASP618  TYR619  PRO620  LYS621  CYS622 
 ASP623  PHE694  ASN695  SER759  ASP760  ASP761  ALA762  ILE779  LEU786  VAL792 
 PHE793  MET794  SER795  GLU796  ALA797  LYS798  CYS799  TRP800  GLU811  SER814 

> <Gold.Protein.RotatedAtoms>
  150.8990  133.7143  159.2883 H   0  0  0  0  0  0  0  0  0  0  0  0  # atno 6907 bound_to 6896
  151.4667  135.1041  159.9750 H   0  0  0  0  0  0  0  0  0  0  0  0  # atno 6908 bound_to 6896
  152.4866  133.8340  159.7173 H   0  0  0  0  0  0  0  0  0  0  0  0  # atno 6909 bound_to 6896
  144.7354  139.9059  143.6412 H   0  0  0  0  0  0  0  0  0  0  0  0  # atno 7974 bound_to 7965
  154.4002  140.1489  156.3252 H   0  0  0  0  0  0  0  0  0  0  0  0  # atno 8008 bound_to 7997
  155.8493  140.3458  155.5661 H   0  0  0  0  0  0  0  0  0  0  0  0  # atno 8009 bound_to 7997
  155.8002  140.0869  157.1952 H   0  0  0  0  0  0  0  0  0  0  0  0  # atno 8010 bound_to 7997
  140.5098  144.0179  150.6367 H   0  0  0  0  0  0  0  0  0  0  0  0  # atno 10167 bound_to 10162
  156.1193  130.6311  150.9436 H   0  0  0  0  0  0  0  0  0  0  0  0  # atno 10718 bound_to 10713
  153.0085  135.5367  154.6624 H   0  0  0  0  0  0  0  0  0  0  0  0  # atno 10763 bound_to 10752
  154.5830  135.2851  155.0716 H   0  0  0  0  0  0  0  0  0  0  0  0  # atno 10764 bound_to 10752
  154.1838  135.6512  153.5094 H   0  0  0  0  0  0  0  0  0  0  0  0  # atno 10765 bound_to 10752
  140.1949  134.8380  157.2953 H   0  0  0  0  0  0  0  0  0  0  0  0  # atno 11005 bound_to 11000
  146.1037  139.4034  143.0331 LP  0  0  0  0  0  0  0  0  0  0  0  0  # atno 17320 bound_to 7965
  145.7542  140.9960  143.1234 LP  0  0  0  0  0  0  0  0  0  0  0  0  # atno 17321 bound_to 7965
  140.3499  143.2969  152.0498 LP  0  0  0  0  0  0  0  0  0  0  0  0  # atno 17342 bound_to 10162
  139.4893  144.6381  151.6933 LP  0  0  0  0  0  0  0  0  0  0  0  0  # atno 17343 bound_to 10162
  157.6377  131.0914  150.8316 LP  0  0  0  0  0  0  0  0  0  0  0  0  # atno 17370 bound_to 10713
  156.8414  130.5049  149.5321 LP  0  0  0  0  0  0  0  0  0  0  0  0  # atno 17371 bound_to 10713
  140.2118  134.4129  155.7609 LP  0  0  0  0  0  0  0  0  0  0  0  0  # atno 17394 bound_to 11000
  141.2227  133.7122  156.8351 LP  0  0  0  0  0  0  0  0  0  0  0  0  # atno 17395 bound_to 11000

$$$$
