AV-unprocessed.smi:17|AV-procd|sdf|105|dock5
  -GOLD-   2262015263D 1   1.00000     0.00000
 Structure written by MMmdl.
 57 59  0  0  0  0  0  0  0  0  1 V2000
  147.6452  139.1269  153.4681 C   0  0  0  0  0  0  0  0  0  0  0  0
  147.3352  138.8438  154.9474 C   0  0  0  0  0  0  0  0  0  0  0  0
  148.4908  138.3381  155.6951 N   0  0  0  0  0  0  0  0  0  0  0  0
  149.6030  139.1223  155.7452 C   0  0  0  0  0  0  0  0  0  0  0  0
  150.7417  138.6971  155.1350 N   0  0  0  0  0  0  0  0  0  0  0  0
  151.8565  139.4310  155.1846 C   0  0  0  0  0  0  0  0  0  0  0  0
  152.0546  140.6060  155.7831 N   0  0  0  0  0  0  0  0  0  0  0  0
  150.9177  141.0444  156.3939 C   0  0  0  0  0  0  0  0  0  0  0  0
  149.6606  140.3745  156.4253 C   0  0  0  0  0  0  0  0  0  0  0  0
  148.7431  141.1410  157.1359 N   0  0  0  0  0  0  0  0  0  0  0  0
  149.4179  142.1937  157.5078 C   0  0  0  0  0  0  0  0  0  0  0  0
  150.7345  142.2129  157.1102 N   0  0  0  0  0  0  0  0  0  0  0  0
  151.7129  143.2500  157.3849 C   0  0  0  0  0  0  0  0  0  0  0  0
  151.9780  143.4390  158.9015 C   0  0  2  0  0  0  0  0  0  0  0  0
  152.2768  144.9055  159.2934 C   0  0  0  0  0  0  0  0  0  0  0  0
  151.8001  145.2138  160.5872 O   0  0  0  0  0  0  0  0  0  0  0  0
  153.0062  142.4493  159.5135 C   0  0  1  0  0  0  0  0  0  0  0  0
  153.0888  142.4313  161.0290 C   0  0  0  0  0  0  0  0  0  0  0  0
  153.8966  141.1614  161.2727 C   0  0  0  0  0  0  0  0  0  0  0  0
  153.5082  140.2587  160.2417 O   0  0  0  0  0  0  0  0  0  0  0  0
  152.8256  140.9586  159.2040 C   0  0  0  0  0  0  0  0  0  0  0  0
  148.3323  137.2574  156.6796 C   0  0  1  0  0  0  0  0  0  0  0  0
  149.3854  136.1523  156.4882 C   0  0  0  0  0  0  0  0  0  0  0  0
  148.3120  137.7760  158.1342 C   0  0  0  0  0  0  0  0  0  0  0  0
  147.7854  136.4910  159.3600 S   0  0  0  0  0  0  0  0  0  0  0  0
  146.1418  135.9637  158.7211 C   0  0  0  0  0  0  0  0  0  0  0  0
  148.6976  135.3396  159.2803 O   0  0  0  0  0  0  0  0  0  0  0  0
  147.5646  137.1613  160.6505 O   0  0  0  0  0  0  0  0  0  0  0  0
  146.7723  139.5455  152.9675 H   0  0  0  0  0  0  0  0  0  0  0  0
  147.9231  138.2181  152.9337 H   0  0  0  0  0  0  0  0  0  0  0  0
  148.4615  139.8407  153.3595 H   0  0  0  0  0  0  0  0  0  0  0  0
  146.9879  139.7690  155.4050 H   0  0  0  0  0  0  0  0  0  0  0  0
  146.4982  138.1528  155.0310 H   0  0  0  0  0  0  0  0  0  0  0  0
  152.7126  139.0157  154.6738 H   0  0  0  0  0  0  0  0  0  0  0  0
  148.9737  142.9869  158.0916 H   0  0  0  0  0  0  0  0  0  0  0  0
  152.6280  142.9833  156.8577 H   0  0  0  0  0  0  0  0  0  0  0  0
  151.3545  144.1752  156.9345 H   0  0  0  0  0  0  0  0  0  0  0  0
  151.0361  143.2045  159.3993 H   0  0  0  0  0  0  0  0  0  0  0  0
  153.3487  145.1028  159.2648 H   0  0  0  0  0  0  0  0  0  0  0  0
  151.8221  145.5923  158.5790 H   0  0  0  0  0  0  0  0  0  0  0  0
  151.9637  146.1290  160.7576 H   0  0  0  0  0  0  0  0  0  0  0  0
  153.9959  142.7373  159.1543 H   0  0  0  0  0  0  0  0  0  0  0  0
  153.5649  143.3204  161.4432 H   0  0  0  0  0  0  0  0  0  0  0  0
  152.1042  142.3269  161.4838 H   0  0  0  0  0  0  0  0  0  0  0  0
  154.9635  141.3652  161.1725 H   0  0  0  0  0  0  0  0  0  0  0  0
  153.7238  140.7375  162.2621 H   0  0  0  0  0  0  0  0  0  0  0  0
  151.7791  140.6592  159.2358 H   0  0  0  0  0  0  0  0  0  0  0  0
  153.2228  140.6873  158.2257 H   0  0  0  0  0  0  0  0  0  0  0  0
  147.3634  136.7817  156.5282 H   0  0  0  0  0  0  0  0  0  0  0  0
  149.1932  135.3114  157.1547 H   0  0  0  0  0  0  0  0  0  0  0  0
  150.3922  136.5141  156.6975 H   0  0  0  0  0  0  0  0  0  0  0  0
  149.3731  135.7676  155.4682 H   0  0  0  0  0  0  0  0  0  0  0  0
  149.3243  138.0651  158.4178 H   0  0  0  0  0  0  0  0  0  0  0  0
  147.6927  138.6628  158.2614 H   0  0  0  0  0  0  0  0  0  0  0  0
  145.6769  135.2905  159.4411 H   0  0  0  0  0  0  0  0  0  0  0  0
  146.2588  135.4386  157.7760 H   0  0  0  0  0  0  0  0  0  0  0  0
  145.5040  136.8359  158.5807 H   0  0  0  0  0  0  0  0  0  0  0  0
  1  2  1  0  0  0  0
  1 29  1  0  0  0  0
  1 30  1  0  0  0  0
  1 31  1  0  0  0  0
  2  3  1  0  0  0  0
  2 32  1  0  0  0  0
  2 33  1  0  0  0  0
  3  4  1  0  0  0  0
  3 22  1  0  0  0  0
  4  9  1  0  0  0  0
  4  5  2  0  0  0  0
  5  6  1  0  0  0  0
  6  7  2  0  0  0  0
  6 34  1  0  0  0  0
  7  8  1  0  0  0  0
  8 12  1  0  0  0  0
  8  9  2  0  0  0  0
  9 10  1  0  0  0  0
 10 11  2  0  0  0  0
 11 12  1  0  0  0  0
 11 35  1  0  0  0  0
 12 13  1  0  0  0  0
 13 14  1  0  0  0  0
 13 36  1  0  0  0  0
 13 37  1  0  0  0  0
 14 15  1  0  0  0  0
 14 17  1  0  0  0  0
 14 38  1  0  0  0  0
 15 16  1  0  0  0  0
 15 39  1  0  0  0  0
 15 40  1  0  0  0  0
 16 41  1  0  0  0  0
 17 21  1  0  0  0  0
 17 18  1  0  0  0  0
 17 42  1  0  0  0  0
 18 19  1  0  0  0  0
 18 43  1  0  0  0  0
 18 44  1  0  0  0  0
 19 20  1  0  0  0  0
 19 45  1  0  0  0  0
 19 46  1  0  0  0  0
 20 21  1  0  0  0  0
 21 47  1  0  0  0  0
 21 48  1  0  0  0  0
 22 23  1  0  0  0  0
 22 24  1  0  0  0  0
 22 49  1  0  0  0  0
 23 50  1  0  0  0  0
 23 51  1  0  0  0  0
 23 52  1  0  0  0  0
 24 25  1  0  0  0  0
 24 53  1  0  0  0  0
 24 54  1  0  0  0  0
 25 26  1  0  0  0  0
 25 27  2  0  0  0  0
 25 28  2  0  0  0  0
 26 55  1  0  0  0  0
 26 56  1  0  0  0  0
 26 57  1  0  0  0  0
M  END
> <s_m_source_file>
AV-unprocessed.smi

> <i_m_source_file_index>
17

> <i_lp_mmshare_version>
43012

> <i_f3d_flags>
0

> <s_epik_input>
W0NIM11TKD1PKSg9TylbQ0gyXVtDQEBIXShbQ0gzXSlOKFtDSDJdW0NIM10pYyhuW2NIXW4xKWMoYzEyKW5bY0hdbjJbQ0gyXVtDQEhdKFtDSDJdW09IXSlbQ0BASF0zW0NIMl1bQ0gyXU9bQ0gyXTM=

> <s_epik_cmdline>
J2VwaWtfcHl0aG9uJywgJy1waCcsICc3LjAnLCAnLXRuJywgJzgnLCAnLW1hJywgJzIwMCcsICctbWV0YWxfYmluZGluZycsICctaW1hZScsICc8aW5maWxlLm1hZT4nLCAnLW9tYWUnLCAnPG91dGZpbGUubWFlPic=

> <r_lp_tautomer_probability>
1

> <r_epik_Ionization_Penalty>
0.00119955

> <r_epik_Ionization_Penalty_Charging>
0

> <r_epik_Ionization_Penalty_Neutral>
0.00119955

> <r_epik_State_Penalty>
0.000665399

> <r_epik_Charging_Adjusted_Penalty>
0.000665399

> <i_epik_Tot_Q>
0

> <i_epik_Tot_abs_Q>
0

> <r_epik_Metal_State_Penalty>
-0

> <b_epik_Metal_Only>
0

> <s_lp_Force_Field>
OPLS_2005

> <r_lp_Energy>
34.6832

> <b_lp_Chiralities_Consistent>
1

> <s_lp_Variant>
AV-unprocessed.smi:17-7

> <Gold.Version>
5.8.1

> <Gold.Id.Protein>
6NUR|6NUR_protein|mol2

> <Gold.PLP.Fitness>
48.4295

> <Gold.PLP.PLP>
-44.0853

> <Gold.PLP.part.hbond>
-4.7269

> <Gold.PLP.part.metal>
0.0000

> <Gold.PLP.part.buried>
-3.8513

> <Gold.PLP.part.nonpolar>
-35.0452

> <Gold.PLP.part.repulsive>
0.1125

> <Gold.PLP.ligand.clash>
0.0000

> <Gold.PLP.ligand.torsion>
2.5501

> <Gold.PLP.Chemscore.Hbond>
2.7760

> <Gold.PLP.Chemscore.CHOScore>
0.0000

> <Gold.PLP.Chemscore.Metal>
0.0000

> <Gold.Chemscore.Hbonds>
donor molecule, donor type, donor heavy atom, donor atom, acceptor molecule, acceptor atom, score
      P1  H  6896  6909       L1    27  0.73
      P1  H  6931  6943       L1    28  0.43
      P1  H  6934  6947       L1    28  1.00

> <Gold.PLP.Chemscore.Internal.Correction>
1.1163

> <Gold.Rescore>
     Score         DG    S(hbond)    S(metal)    S(lipo)     H(rot)  DE(clash)    DE(int)     intcor
     12.83     -16.01       2.69        0.00      89.88       3.51       0.30       2.88       ----

> <Gold.Chemscore.Fitness>
12.8343

> <Gold.Chemscore.DG>
-16.0124

> <Gold.Chemscore.ZeroCoef>
-5.4800

> <Gold.Chemscore.Hbond>
2.6921

> <Gold.Chemscore.Metal>
0.0000

> <Gold.Chemscore.Lipo>
89.8793

> <Gold.Chemscore.Internal_Hbond>
0.0000

> <Gold.Chemscore.DEClash>
0.2985

> <Gold.Chemscore.DEInternal>
2.8795

> <Gold.Chemscore.Rot>
3.5059

> <Gold.Chemscore.Internal.Correction>
   9.000000E+99

> <Gold.Chemscore.Hbonds>
donor molecule, donor type, donor heavy atom, donor atom, acceptor molecule, acceptor atom, score
      P1  H  6896  6909       L1    27  0.72
      P1  H  6931  6943       L1    28  0.43
      P1  H  6934  6947       L1    28  0.94

> <Gold.Chemscore.Hbond.Weighted>
-8.9915

> <Gold.Chemscore.Metal.Weighted>
-0.0000

> <Gold.Chemscore.Lipo.Weighted>
-10.5159

> <Gold.Chemscore.Internal_Hbond.Weighted>
0.0000

> <Gold.Chemscore.DEClash.Weighted>
0.2985

> <Gold.Chemscore.DEInternal.Weighted>
2.8795

> <Gold.Chemscore.Rot.Weighted>
8.9750

> <Gold.Chemscore.Internal.Correction.Weighted>
   9.000000E+99

> <Gold.Protein.RotatedTorsions>
[ 6907 6896 6895 6894 ] final   41.24 input  -60.11 | X-H torsion
[ 7974 7965 7964 7962 ] final -117.82 input  175.53 | X-H torsion
[ 8008 7997 7996 7995 ] final   59.12 input   59.86 | X-H torsion
[ 10167 10162 10161 10158 ] final  146.81 input  -65.29 | X-H torsion
[ 10718 10713 10712 10709 ] final -164.79 input   66.30 | X-H torsion
[ 10763 10752 10751 10750 ] final  150.10 input  -60.55 | X-H torsion
[ 11005 11000 10999 10996 ] final   77.37 input  -57.11 | X-H torsion

> <Gold.Protein.ActiveResidues>
 VAL166  LYS551  ARG553  GLY616  TRP617  ASP618  TYR619  PRO620  LYS621  CYS622 
 ASP623  PHE694  ASN695  SER759  ASP760  ASP761  ALA762  ILE779  LEU786  VAL792 
 PHE793  MET794  SER795  GLU796  ALA797  LYS798  CYS799  TRP800  GLU811  SER814 

> <Gold.Protein.RotatedAtoms>
  152.1928  134.8657  160.0515 H   0  0  0  0  0  0  0  0  0  0  0  0  # atno 6907 bound_to 6896
  151.9539  133.3669  159.4018 H   0  0  0  0  0  0  0  0  0  0  0  0  # atno 6908 bound_to 6896
  150.6938  134.4235  159.5259 H   0  0  0  0  0  0  0  0  0  0  0  0  # atno 6909 bound_to 6896
  145.0809  140.8425  143.4040 H   0  0  0  0  0  0  0  0  0  0  0  0  # atno 7974 bound_to 7965
  155.5611  140.3488  155.4491 H   0  0  0  0  0  0  0  0  0  0  0  0  # atno 8008 bound_to 7997
  156.0513  140.1318  157.0072 H   0  0  0  0  0  0  0  0  0  0  0  0  # atno 8009 bound_to 7997
  154.4436  140.1004  156.6366 H   0  0  0  0  0  0  0  0  0  0  0  0  # atno 8010 bound_to 7997
  139.4900  144.5802  151.6887 H   0  0  0  0  0  0  0  0  0  0  0  0  # atno 10167 bound_to 10162
  156.6441  130.8980  151.3001 H   0  0  0  0  0  0  0  0  0  0  0  0  # atno 10718 bound_to 10713
  154.0820  135.2858  155.3288 H   0  0  0  0  0  0  0  0  0  0  0  0  # atno 10763 bound_to 10752
  154.6677  135.5311  153.8101 H   0  0  0  0  0  0  0  0  0  0  0  0  # atno 10764 bound_to 10752
  153.0445  135.6550  154.0995 H   0  0  0  0  0  0  0  0  0  0  0  0  # atno 10765 bound_to 10752
  139.9257  134.7677  156.1513 H   0  0  0  0  0  0  0  0  0  0  0  0  # atno 11005 bound_to 11000
  145.1180  139.2713  143.5603 LP  0  0  0  0  0  0  0  0  0  0  0  0  # atno 17320 bound_to 7965
  146.3531  140.0795  142.8618 LP  0  0  0  0  0  0  0  0  0  0  0  0  # atno 17321 bound_to 7965
  140.5406  144.0585  150.6087 LP  0  0  0  0  0  0  0  0  0  0  0  0  # atno 17342 bound_to 10162
  140.3606  143.2910  152.0388 LP  0  0  0  0  0  0  0  0  0  0  0  0  # atno 17343 bound_to 10162
  157.7162  130.9500  150.1263 LP  0  0  0  0  0  0  0  0  0  0  0  0  # atno 17370 bound_to 10713
  156.2136  130.3668  149.8640 LP  0  0  0  0  0  0  0  0  0  0  0  0  # atno 17371 bound_to 10713
  141.0813  133.6753  156.2343 LP  0  0  0  0  0  0  0  0  0  0  0  0  # atno 17394 bound_to 11000
  140.6342  134.5232  157.5563 LP  0  0  0  0  0  0  0  0  0  0  0  0  # atno 17395 bound_to 11000

$$$$
