AV-unprocessed.smi:1033|AV-procd|sdf|4494|dock10
  -GOLD-   22720 2483D 1   1.00000     0.00000
 Structure written by MMmdl.
 56 58  0  0  0  0  0  0  0  0  2 V2000
  153.5306  142.3948  161.8913 C   0  0  0  0  0  0  0  0  0  0  0  0
  152.9514  142.1805  160.5040 C   0  0  0  0  0  0  0  0  0  0  0  0
  153.2697  140.9964  159.8022 C   0  0  0  0  0  0  0  0  0  0  0  0
  152.7378  140.7507  158.5178 C   0  0  0  0  0  0  0  0  0  0  0  0
  152.8880  139.6613  157.6783 N   0  0  0  0  0  0  0  0  0  0  0  0
  152.1130  140.0035  156.6536 C   0  0  0  0  0  0  0  0  0  0  0  0
  151.4695  141.1838  156.7339 N   0  0  0  0  0  0  0  0  0  0  0  0
  150.5443  141.7344  155.7594 C   0  0  0  0  0  0  0  0  0  0  0  0
  149.7463  140.6376  155.0225 C   0  0  2  0  0  0  0  0  0  0  0  0
  149.8592  140.8926  153.6380 O   0  0  0  0  0  0  0  0  0  0  0  0
  148.2422  140.6090  155.3906 C   0  0  0  0  0  0  0  0  0  0  0  0
  147.3158  140.9776  154.3126 N   0  0  0  0  0  0  0  0  0  0  0  0
  147.0277  139.9014  153.3616 C   0  0  0  0  0  0  0  0  0  0  0  0
  146.1732  138.7619  153.9537 C   0  0  0  0  0  0  0  0  0  0  0  0
  144.9087  139.2727  154.5469 N   0  3  0  0  0  0  0  0  0  0  0  0
  144.0948  138.2123  155.1982 C   0  0  0  0  0  0  0  0  0  0  0  0
  142.6110  138.5879  155.3888 C   0  0  2  0  0  0  0  0  0  0  0  0
  141.7814  137.4655  156.0293 C   0  0  0  0  0  0  0  0  0  0  0  0
  142.0631  138.8678  154.1180 O   0  0  0  0  0  0  0  0  0  0  0  0
  145.1732  140.3981  155.4819 C   0  0  0  0  0  0  0  0  0  0  0  0
  146.0407  141.4855  154.8152 C   0  0  0  0  0  0  0  0  0  0  0  0
  151.8723  141.7306  157.9482 C   0  0  0  0  0  0  0  0  0  0  0  0
  151.5660  142.9229  158.6283 C   0  0  0  0  0  0  0  0  0  0  0  0
  152.1005  143.1490  159.9138 C   0  0  0  0  0  0  0  0  0  0  0  0
  151.7461  144.4294  160.6487 C   0  0  0  0  0  0  0  0  0  0  0  0
  154.1440  141.5485  162.2024 H   0  0  0  0  0  0  0  0  0  0  0  0
  152.7329  142.5159  162.6247 H   0  0  0  0  0  0  0  0  0  0  0  0
  154.1573  143.2868  161.9095 H   0  0  0  0  0  0  0  0  0  0  0  0
  153.9196  140.2590  160.2501 H   0  0  0  0  0  0  0  0  0  0  0  0
  151.9900  139.3497  155.8024 H   0  0  0  0  0  0  0  0  0  0  0  0
  149.8707  142.4289  156.2632 H   0  0  0  0  0  0  0  0  0  0  0  0
  151.1226  142.3242  155.0463 H   0  0  0  0  0  0  0  0  0  0  0  0
  150.2189  139.6731  155.2069 H   0  0  0  0  0  0  0  0  0  0  0  0
  149.5374  140.1391  153.1665 H   0  0  0  0  0  0  0  0  0  0  0  0
  147.9800  139.6241  155.7689 H   0  0  0  0  0  0  0  0  0  0  0  0
  148.0813  141.2715  156.2426 H   0  0  0  0  0  0  0  0  0  0  0  0
  146.4997  140.3227  152.5049 H   0  0  0  0  0  0  0  0  0  0  0  0
  147.9515  139.4892  152.9574 H   0  0  0  0  0  0  0  0  0  0  0  0
  145.9576  138.0479  153.1600 H   0  0  0  0  0  0  0  0  0  0  0  0
  146.7251  138.2225  154.7157 H   0  0  0  0  0  0  0  0  0  0  0  0
  144.1737  137.2958  154.6102 H   0  0  0  0  0  0  0  0  0  0  0  0
  144.5268  137.9875  156.1750 H   0  0  0  0  0  0  0  0  0  0  0  0
  142.5129  139.4996  155.9770 H   0  0  0  0  0  0  0  0  0  0  0  0
  142.1347  137.2368  157.0350 H   0  0  0  0  0  0  0  0  0  0  0  0
  141.8308  136.5481  155.4418 H   0  0  0  0  0  0  0  0  0  0  0  0
  140.7322  137.7513  156.1103 H   0  0  0  0  0  0  0  0  0  0  0  0
  142.5445  139.5825  153.7291 H   0  0  0  0  0  0  0  0  0  0  0  0
  144.2249  140.8367  155.7941 H   0  0  0  0  0  0  0  0  0  0  0  0
  145.6539  140.0237  156.3868 H   0  0  0  0  0  0  0  0  0  0  0  0
  146.2188  142.2989  155.5198 H   0  0  0  0  0  0  0  0  0  0  0  0
  145.4823  141.9277  153.9889 H   0  0  0  0  0  0  0  0  0  0  0  0
  150.9072  143.6476  158.1731 H   0  0  0  0  0  0  0  0  0  0  0  0
  151.0965  145.0665  160.0477 H   0  0  0  0  0  0  0  0  0  0  0  0
  152.6470  144.9974  160.8822 H   0  0  0  0  0  0  0  0  0  0  0  0
  151.2259  144.2046  161.5803 H   0  0  0  0  0  0  0  0  0  0  0  0
  144.3587  139.6509  153.7888 H   0  0  0  0  0  0  0  0  0  0  0  0
  1  2  1  0  0  0  0
  1 26  1  0  0  0  0
  1 27  1  0  0  0  0
  1 28  1  0  0  0  0
  2 24  1  0  0  0  0
  2  3  2  0  0  0  0
  3  4  1  0  0  0  0
  3 29  1  0  0  0  0
  4 22  2  0  0  0  0
  4  5  1  0  0  0  0
  5  6  2  0  0  0  0
  6  7  1  0  0  0  0
  6 30  1  0  0  0  0
  7  8  1  0  0  0  0
  7 22  1  0  0  0  0
  8  9  1  0  0  0  0
  8 31  1  0  0  0  0
  8 32  1  0  0  0  0
  9 10  1  0  0  0  0
  9 11  1  0  0  0  0
  9 33  1  0  0  0  0
 10 34  1  0  0  0  0
 11 12  1  0  0  0  0
 11 35  1  0  0  0  0
 11 36  1  0  0  0  0
 12 21  1  0  0  0  0
 12 13  1  0  0  0  0
 13 14  1  0  0  0  0
 13 37  1  0  0  0  0
 13 38  1  0  0  0  0
 14 15  1  0  0  0  0
 14 39  1  0  0  0  0
 14 40  1  0  0  0  0
 15 16  1  0  0  0  0
 15 20  1  0  0  0  0
 15 56  1  0  0  0  0
 16 17  1  0  0  0  0
 16 41  1  0  0  0  0
 16 42  1  0  0  0  0
 17 18  1  0  0  0  0
 17 19  1  0  0  0  0
 17 43  1  0  0  0  0
 18 44  1  0  0  0  0
 18 45  1  0  0  0  0
 18 46  1  0  0  0  0
 19 47  1  0  0  0  0
 20 21  1  0  0  0  0
 20 48  1  0  0  0  0
 20 49  1  0  0  0  0
 21 50  1  0  0  0  0
 21 51  1  0  0  0  0
 22 23  1  0  0  0  0
 23 24  2  0  0  0  0
 23 52  1  0  0  0  0
 24 25  1  0  0  0  0
 25 53  1  0  0  0  0
 25 54  1  0  0  0  0
 25 55  1  0  0  0  0
M  CHG  1  15   1
M  END
> <s_m_source_file>
AV-unprocessed.smi

> <i_m_source_file_index>
1033

> <i_lp_mmshare_version>
43012

> <i_f3d_flags>
0

> <s_epik_input>
W0NIM11jKFtjSF0xKWMoW0NIM10pW2NIXWMoYzEyKW4oW2NIXW4yKVtDSDJdW0NASF0oW09IXSlbQ0gyXU4zW0NIMl1bQ0gyXU4oW0NIMl1bQ0gyXTMpW0NIMl1bQ0BIXShbQ0gzXSlbT0hd

> <s_epik_cmdline>
J2VwaWtfcHl0aG9uJywgJy1waCcsICc3LjAnLCAnLXRuJywgJzgnLCAnLW1hJywgJzIwMCcsICctbWV0YWxfYmluZGluZycsICctaW1hZScsICc8aW5maWxlLm1hZT4nLCAnLW9tYWUnLCAnPG91dGZpbGUubWFlPic=

> <r_epik_Ionization_Penalty>
0.129152

> <r_epik_Ionization_Penalty_Charging>
0.00083231

> <r_epik_Ionization_Penalty_Neutral>
0.128319

> <r_epik_State_Penalty>
0.556973

> <r_epik_Charging_Adjusted_Penalty>
0.557805

> <i_epik_Tot_Q>
1

> <i_epik_Tot_abs_Q>
1

> <r_epik_Metal_State_Penalty>
0.490047

> <b_epik_Metal_Only>
0

> <s_lp_Force_Field>
OPLS_2005

> <r_lp_Energy>
33.6507

> <b_lp_Chiralities_Consistent>
1

> <s_lp_Variant>
AV-unprocessed.smi:1033-5

> <Gold.Version>
5.8.1

> <Gold.Id.Protein>
6NUR|6NUR_protein|mol2

> <Gold.PLP.Fitness>
57.3208

> <Gold.PLP.PLP>
-44.1721

> <Gold.PLP.part.hbond>
-5.6461

> <Gold.PLP.part.metal>
0.0000

> <Gold.PLP.part.buried>
-5.1255

> <Gold.PLP.part.nonpolar>
-33.8395

> <Gold.PLP.part.repulsive>
0.1369

> <Gold.PLP.ligand.clash>
0.0000

> <Gold.PLP.ligand.torsion>
2.1780

> <Gold.PLP.Chemscore.Hbond>
5.8080

> <Gold.PLP.Chemscore.CHOScore>
0.0000

> <Gold.PLP.Chemscore.Metal>
0.0000

> <Gold.Chemscore.Hbonds>
donor molecule, donor type, donor heavy atom, donor atom, acceptor molecule, acceptor atom, score
      L1  H    10    34       P1  7957  0.43
      L1  H    15    56       P1 10175  2.00
      L1  H    19    47       P1 10175  1.00
      P1  H  7989  7998       L1    10  0.37
      P1  H  7997  8010       L1     5  0.95
      P1  H  8011  8017       L1    10  0.99

> <Gold.PLP.Chemscore.Internal.Correction>
0.0807

> <Gold.Rescore>
     Score         DG    S(hbond)    S(metal)    S(lipo)     H(rot)  DE(clash)    DE(int)     intcor
     20.32     -22.80       3.39        0.00     118.37       3.07       0.14       2.35       ----

> <Gold.Chemscore.Fitness>
20.3169

> <Gold.Chemscore.DG>
-22.8048

> <Gold.Chemscore.ZeroCoef>
-5.4800

> <Gold.Chemscore.Hbond>
3.3900

> <Gold.Chemscore.Metal>
0.0000

> <Gold.Chemscore.Lipo>
118.3652

> <Gold.Chemscore.Internal_Hbond>
0.0000

> <Gold.Chemscore.DEClash>
0.1352

> <Gold.Chemscore.DEInternal>
2.3526

> <Gold.Chemscore.Rot>
3.0650

> <Gold.Chemscore.Internal.Correction>
   9.000000E+99

> <Gold.Chemscore.Hbonds>
donor molecule, donor type, donor heavy atom, donor atom, acceptor molecule, acceptor atom, score
      L1  H    10    34       P1  7957  0.40
      L1  H    15    56       P1 10175  1.00
      L1  H    19    47       P1 10175  0.99
      P1  H  7989  7998       L1    10  0.07
      P1  H  7997  8010       L1     5  0.06
      P1  H  8011  8017       L1    10  0.50

> <Gold.Chemscore.Hbond.Weighted>
-11.3225

> <Gold.Chemscore.Metal.Weighted>
-0.0000

> <Gold.Chemscore.Lipo.Weighted>
-13.8487

> <Gold.Chemscore.Internal_Hbond.Weighted>
0.0000

> <Gold.Chemscore.DEClash.Weighted>
0.1352

> <Gold.Chemscore.DEInternal.Weighted>
2.3526

> <Gold.Chemscore.Rot.Weighted>
7.8465

> <Gold.Chemscore.Internal.Correction.Weighted>
   9.000000E+99

> <Gold.Protein.RotatedTorsions>
[ 6907 6896 6895 6894 ] final  128.23 input  -60.11 | X-H torsion
[ 7974 7965 7964 7962 ] final  -50.92 input  175.53 | X-H torsion
[ 8008 7997 7996 7995 ] final   35.24 input   59.86 | X-H torsion
[ 10167 10162 10161 10158 ] final  -18.23 input  -65.29 | X-H torsion
[ 10718 10713 10712 10709 ] final    2.02 input   66.30 | X-H torsion
[ 10763 10752 10751 10750 ] final  -77.19 input  -60.55 | X-H torsion
[ 11005 11000 10999 10996 ] final  133.09 input  -57.11 | X-H torsion

> <Gold.Protein.ActiveResidues>
 VAL166  LYS551  ARG553  GLY616  TRP617  ASP618  TYR619  PRO620  LYS621  CYS622 
 ASP623  PHE694  ASN695  SER759  ASP760  ASP761  ALA762  ILE779  LEU786  VAL792 
 PHE793  MET794  SER795  GLU796  ALA797  LYS798  CYS799  TRP800  GLU811  SER814 

> <Gold.Protein.RotatedAtoms>
  152.3739  133.6455  159.6108 H   0  0  0  0  0  0  0  0  0  0  0  0  # atno 6907 bound_to 6896
  150.7689  133.9225  159.3411 H   0  0  0  0  0  0  0  0  0  0  0  0  # atno 6908 bound_to 6896
  151.7043  135.0925  160.0307 H   0  0  0  0  0  0  0  0  0  0  0  0  # atno 6909 bound_to 6896
  145.9247  140.7803  142.9630 H   0  0  0  0  0  0  0  0  0  0  0  0  # atno 7974 bound_to 7965
  155.1679  140.3289  155.4398 H   0  0  0  0  0  0  0  0  0  0  0  0  # atno 8008 bound_to 7997
  156.2520  140.1948  156.6734 H   0  0  0  0  0  0  0  0  0  0  0  0  # atno 8009 bound_to 7997
  154.6358  140.0576  156.9773 H   0  0  0  0  0  0  0  0  0  0  0  0  # atno 8010 bound_to 7997
  140.7256  143.4937  150.9958 H   0  0  0  0  0  0  0  0  0  0  0  0  # atno 10167 bound_to 10162
  156.8568  130.5573  149.5665 H   0  0  0  0  0  0  0  0  0  0  0  0  # atno 10718 bound_to 10713
  154.5097  135.5772  153.6595 H   0  0  0  0  0  0  0  0  0  0  0  0  # atno 10763 bound_to 10752
  152.9894  135.6155  154.2895 H   0  0  0  0  0  0  0  0  0  0  0  0  # atno 10764 bound_to 10752
  154.2809  135.2851  155.2677 H   0  0  0  0  0  0  0  0  0  0  0  0  # atno 10765 bound_to 10752
  139.9830  134.9542  156.9675 H   0  0  0  0  0  0  0  0  0  0  0  0  # atno 11005 bound_to 11000
  144.6757  140.2031  143.7385 LP  0  0  0  0  0  0  0  0  0  0  0  0  # atno 17320 bound_to 7965
  145.8505  139.2173  143.1775 LP  0  0  0  0  0  0  0  0  0  0  0  0  # atno 17321 bound_to 7965
  139.8643  143.7274  152.3171 LP  0  0  0  0  0  0  0  0  0  0  0  0  # atno 17342 bound_to 10162
  139.7500  144.7536  151.0520 LP  0  0  0  0  0  0  0  0  0  0  0  0  # atno 17343 bound_to 10162
  156.0798  130.5811  150.9542 LP  0  0  0  0  0  0  0  0  0  0  0  0  # atno 17370 bound_to 10713
  157.6272  131.0924  150.8510 LP  0  0  0  0  0  0  0  0  0  0  0  0  # atno 17371 bound_to 10713
  140.5059  134.1051  155.7260 LP  0  0  0  0  0  0  0  0  0  0  0  0  # atno 17394 bound_to 11000
  141.1499  133.8987  157.2123 LP  0  0  0  0  0  0  0  0  0  0  0  0  # atno 17395 bound_to 11000

$$$$
