AV-unprocessed.smi:2044|AV-procd|sdf|8302|dock6
  -GOLD-   2272010563D 1   1.00000     0.00000
 Structure written by MMmdl.
 38 39  0  0  0  0  0  0  0  0  2 V2000
  146.7244  134.2506  162.7666 C   0  0  0  0  0  0  0  0  0  0  0  0
  147.2396  135.2121  161.7510 C   0  0  0  0  0  0  0  0  0  0  0  0
  147.4478  135.1162  160.4044 C   0  0  0  0  0  0  0  0  0  0  0  0
  147.9625  136.3967  160.0635 C   0  0  0  0  0  0  0  0  0  0  0  0
  148.3143  136.8028  158.8340 N   0  5  0  0  0  0  0  0  0  0  0  0
  149.6175  137.0015  158.5292 C   0  0  0  0  0  0  0  0  0  0  0  0
  150.5794  136.8314  159.2819 O   0  0  0  0  0  0  0  0  0  0  0  0
  149.8206  137.4216  157.2741 N   0  0  0  0  0  0  0  0  0  0  0  0
  151.1231  137.7052  156.6803 C   0  0  0  0  0  0  0  0  0  0  0  0
  151.1785  139.1282  156.0705 C   0  0  2  0  0  0  0  0  0  0  0  0
  152.4812  139.2490  155.2479 C   0  0  0  0  0  0  0  0  0  0  0  0
  151.0033  140.2154  157.0588 N   0  0  0  0  0  0  0  0  0  0  0  0
  151.0281  141.5459  156.4441 C   0  0  0  0  0  0  0  0  0  0  0  0
  150.8603  142.6759  157.4744 C   0  0  0  0  0  0  0  0  0  0  0  0
  151.8712  142.5725  158.4686 O   0  0  0  0  0  0  0  0  0  0  0  0
  151.8381  141.3191  159.1389 C   0  0  0  0  0  0  0  0  0  0  0  0
  152.0146  140.1814  158.1186 C   0  0  0  0  0  0  0  0  0  0  0  0
  148.0423  137.2046  161.1078 N   0  0  0  0  0  0  0  0  0  0  0  0
  147.5875  136.4498  162.1956 O   0  0  0  0  0  0  0  0  0  0  0  0
  145.8331  133.7419  162.3994 H   0  0  0  0  0  0  0  0  0  0  0  0
  146.4633  134.7611  163.6937 H   0  0  0  0  0  0  0  0  0  0  0  0
  147.4756  133.4948  162.9962 H   0  0  0  0  0  0  0  0  0  0  0  0
  147.2660  134.2658  159.7644 H   0  0  0  0  0  0  0  0  0  0  0  0
  149.0111  137.5469  156.6839 H   0  0  0  0  0  0  0  0  0  0  0  0
  151.8875  137.6000  157.4515 H   0  0  0  0  0  0  0  0  0  0  0  0
  151.3647  136.9485  155.9333 H   0  0  0  0  0  0  0  0  0  0  0  0
  150.3547  139.1878  155.3575 H   0  0  0  0  0  0  0  0  0  0  0  0
  152.6289  138.3758  154.6118 H   0  0  0  0  0  0  0  0  0  0  0  0
  153.3553  139.3357  155.8941 H   0  0  0  0  0  0  0  0  0  0  0  0
  152.4677  140.1104  154.5812 H   0  0  0  0  0  0  0  0  0  0  0  0
  151.9646  141.6856  155.9021 H   0  0  0  0  0  0  0  0  0  0  0  0
  150.2235  141.6469  155.7171 H   0  0  0  0  0  0  0  0  0  0  0  0
  150.9392  143.6472  156.9862 H   0  0  0  0  0  0  0  0  0  0  0  0
  149.8743  142.6303  157.9397 H   0  0  0  0  0  0  0  0  0  0  0  0
  152.6372  141.2904  159.8800 H   0  0  0  0  0  0  0  0  0  0  0  0
  150.8963  141.2107  159.6790 H   0  0  0  0  0  0  0  0  0  0  0  0
  151.9649  139.2409  158.6653 H   0  0  0  0  0  0  0  0  0  0  0  0
  153.0122  140.2398  157.6804 H   0  0  0  0  0  0  0  0  0  0  0  0
  1  2  1  0  0  0  0
  1 20  1  0  0  0  0
  1 21  1  0  0  0  0
  1 22  1  0  0  0  0
  2 19  1  0  0  0  0
  2  3  2  0  0  0  0
  3  4  1  0  0  0  0
  3 23  1  0  0  0  0
  4  5  1  0  0  0  0
  4 18  2  0  0  0  0
  5  6  1  0  0  0  0
  6  7  2  0  0  0  0
  6  8  1  0  0  0  0
  8  9  1  0  0  0  0
  8 24  1  0  0  0  0
  9 10  1  0  0  0  0
  9 25  1  0  0  0  0
  9 26  1  0  0  0  0
 10 11  1  0  0  0  0
 10 12  1  0  0  0  0
 10 27  1  0  0  0  0
 11 28  1  0  0  0  0
 11 29  1  0  0  0  0
 11 30  1  0  0  0  0
 12 17  1  0  0  0  0
 12 13  1  0  0  0  0
 13 14  1  0  0  0  0
 13 31  1  0  0  0  0
 13 32  1  0  0  0  0
 14 15  1  0  0  0  0
 14 33  1  0  0  0  0
 14 34  1  0  0  0  0
 15 16  1  0  0  0  0
 16 17  1  0  0  0  0
 16 35  1  0  0  0  0
 16 36  1  0  0  0  0
 17 37  1  0  0  0  0
 17 38  1  0  0  0  0
 18 19  1  0  0  0  0
M  CHG  1   5  -1
M  END
> <s_m_source_file>
AV-unprocessed.smi

> <i_m_source_file_index>
2044

> <i_lp_mmshare_version>
43012

> <i_f3d_flags>
0

> <s_epik_input>
W0NIM11jMVtjSF1jKG5vMSlbTkhdQyg9TylbTkhdW0NIMl1bQ0BIXShbQ0gzXSlOMltDSDJdW0NIMl1PW0NIMl1bQ0gyXTI=

> <s_epik_cmdline>
J2VwaWtfcHl0aG9uJywgJy1waCcsICc3LjAnLCAnLXRuJywgJzgnLCAnLW1hJywgJzIwMCcsICctbWV0YWxfYmluZGluZycsICctaW1hZScsICc8aW5maWxlLm1hZT4nLCAnLW9tYWUnLCAnPG91dGZpbGUubWFlPic=

> <r_epik_Ionization_Penalty>
6.88367

> <r_epik_Ionization_Penalty_Charging>
6.57198

> <r_epik_Ionization_Penalty_Neutral>
0.311681

> <r_epik_State_Penalty>
6.77619

> <r_epik_Charging_Adjusted_Penalty>
13.3482

> <i_epik_Tot_Q>
-1

> <i_epik_Tot_abs_Q>
1

> <r_epik_Metal_State_Penalty>
2.70533

> <b_epik_Metal_Only>
1

> <s_lp_Force_Field>
OPLS_2005

> <r_lp_Energy>
25.764

> <b_lp_Chiralities_Consistent>
1

> <s_lp_Variant>
AV-unprocessed.smi:2044-5

> <Gold.Version>
5.8.1

> <Gold.Id.Protein>
6NUR|6NUR_protein|mol2

> <Gold.PLP.Fitness>
36.7092

> <Gold.PLP.PLP>
-30.0670

> <Gold.PLP.part.hbond>
-3.1958

> <Gold.PLP.part.metal>
0.0000

> <Gold.PLP.part.buried>
-3.9135

> <Gold.PLP.part.nonpolar>
-23.4318

> <Gold.PLP.part.repulsive>
0.0382

> <Gold.PLP.ligand.clash>
0.0000

> <Gold.PLP.ligand.torsion>
0.7277

> <Gold.PLP.Chemscore.Hbond>
2.6820

> <Gold.PLP.Chemscore.CHOScore>
0.0000

> <Gold.PLP.Chemscore.Metal>
0.0000

> <Gold.Chemscore.Hbonds>
donor molecule, donor type, donor heavy atom, donor atom, acceptor molecule, acceptor atom, score
      P1  H  6896  6907       L1     7  1.00
      P1  H  6931  6943       L1    18  0.99
      P1  H  6934  6947       L1    18  0.69

> <Gold.PLP.Chemscore.Internal.Correction>
0.0517

> <Gold.Rescore>
     Score         DG    S(hbond)    S(metal)    S(lipo)     H(rot)  DE(clash)    DE(int)     intcor
     17.01     -17.98       2.51        0.00      68.95       1.55       0.07       0.91       ----

> <Gold.Chemscore.Fitness>
17.0108

> <Gold.Chemscore.DG>
-17.9840

> <Gold.Chemscore.ZeroCoef>
-5.4800

> <Gold.Chemscore.Hbond>
2.5141

> <Gold.Chemscore.Metal>
0.0000

> <Gold.Chemscore.Lipo>
68.9509

> <Gold.Chemscore.Internal_Hbond>
0.0000

> <Gold.Chemscore.DEClash>
0.0659

> <Gold.Chemscore.DEInternal>
0.9073

> <Gold.Chemscore.Rot>
1.5470

> <Gold.Chemscore.Internal.Correction>
   9.000000E+99

> <Gold.Chemscore.Hbonds>
donor molecule, donor type, donor heavy atom, donor atom, acceptor molecule, acceptor atom, score
      P1  H  6896  6907       L1     7  0.84
      P1  H  6931  6943       L1    18  0.24
      P1  H  6934  6947       L1    18  0.58

> <Gold.Chemscore.Hbond.Weighted>
-8.3971

> <Gold.Chemscore.Metal.Weighted>
-0.0000

> <Gold.Chemscore.Lipo.Weighted>
-8.0673

> <Gold.Chemscore.Internal_Hbond.Weighted>
0.0000

> <Gold.Chemscore.DEClash.Weighted>
0.0659

> <Gold.Chemscore.DEInternal.Weighted>
0.9073

> <Gold.Chemscore.Rot.Weighted>
3.9603

> <Gold.Chemscore.Internal.Correction.Weighted>
   9.000000E+99

> <Gold.Protein.RotatedTorsions>
[ 6907 6896 6895 6894 ] final  -44.10 input  -60.11 | X-H torsion
[ 7974 7965 7964 7962 ] final  -69.30 input  175.53 | X-H torsion
[ 8008 7997 7996 7995 ] final   86.42 input   59.86 | X-H torsion
[ 10167 10162 10161 10158 ] final -103.79 input  -65.29 | X-H torsion
[ 10718 10713 10712 10709 ] final -135.28 input   66.30 | X-H torsion
[ 10763 10752 10751 10750 ] final  151.93 input  -60.55 | X-H torsion
[ 11005 11000 10999 10996 ] final  123.63 input  -57.11 | X-H torsion

> <Gold.Protein.ActiveResidues>
 VAL166  LYS551  ARG553  GLY616  TRP617  ASP618  TYR619  PRO620  LYS621  CYS622 
 ASP623  PHE694  ASN695  SER759  ASP760  ASP761  ALA762  ILE779  LEU786  VAL792 
 PHE793  MET794  SER795  GLU796  ALA797  LYS798  CYS799  TRP800  GLU811  SER814 

> <Gold.Protein.RotatedAtoms>
  150.9365  134.8777  159.7584 H   0  0  0  0  0  0  0  0  0  0  0  0  # atno 6907 bound_to 6896
  152.5061  134.4003  159.9424 H   0  0  0  0  0  0  0  0  0  0  0  0  # atno 6908 bound_to 6896
  151.4027  133.3712  159.2769 H   0  0  0  0  0  0  0  0  0  0  0  0  # atno 6909 bound_to 6896
  145.7055  140.9099  143.0708 H   0  0  0  0  0  0  0  0  0  0  0  0  # atno 7974 bound_to 7965
  155.9626  140.3392  155.6504 H   0  0  0  0  0  0  0  0  0  0  0  0  # atno 8008 bound_to 7997
  155.6779  140.0734  157.2514 H   0  0  0  0  0  0  0  0  0  0  0  0  # atno 8009 bound_to 7997
  154.4147  140.1680  156.1937 H   0  0  0  0  0  0  0  0  0  0  0  0  # atno 8010 bound_to 7997
  140.2162  143.3709  152.1008 H   0  0  0  0  0  0  0  0  0  0  0  0  # atno 10167 bound_to 10162
  156.2644  130.7229  151.1174 H   0  0  0  0  0  0  0  0  0  0  0  0  # atno 10718 bound_to 10713
  154.1118  135.2838  155.3229 H   0  0  0  0  0  0  0  0  0  0  0  0  # atno 10763 bound_to 10752
  154.6485  135.5377  153.7876 H   0  0  0  0  0  0  0  0  0  0  0  0  # atno 10764 bound_to 10752
  153.0343  135.6504  154.1276 H   0  0  0  0  0  0  0  0  0  0  0  0  # atno 10765 bound_to 10752
  139.9321  134.9641  156.8288 H   0  0  0  0  0  0  0  0  0  0  0  0  # atno 11005 bound_to 11000
  144.6956  139.9005  143.7458 LP  0  0  0  0  0  0  0  0  0  0  0  0  # atno 17320 bound_to 7965
  146.0759  139.3747  143.0494 LP  0  0  0  0  0  0  0  0  0  0  0  0  # atno 17321 bound_to 7965
  139.5161  144.6972  151.5595 LP  0  0  0  0  0  0  0  0  0  0  0  0  # atno 17342 bound_to 10162
  140.6288  143.9117  150.6587 LP  0  0  0  0  0  0  0  0  0  0  0  0  # atno 17343 bound_to 10162
  157.7262  131.0648  150.5919 LP  0  0  0  0  0  0  0  0  0  0  0  0  # atno 17370 bound_to 10713
  156.6010  130.4354  149.5897 LP  0  0  0  0  0  0  0  0  0  0  0  0  # atno 17371 bound_to 10713
  140.6173  134.0026  155.7603 LP  0  0  0  0  0  0  0  0  0  0  0  0  # atno 17394 bound_to 11000
  141.0916  133.9908  157.3228 LP  0  0  0  0  0  0  0  0  0  0  0  0  # atno 17395 bound_to 11000

$$$$
