AV-unprocessed.smi:55|AV-procd|sdf|566|dock1
  -GOLD-   2262016473D 1   1.00000     0.00000
 Structure written by MMmdl.
 31 32  0  0  0  0  0  0  0  0  1 V2000
  150.7342  144.8613  159.3002 C   0  0  0  0  0  0  0  0  0  0  0  0
  151.3199  143.5075  158.9351 C   0  0  0  0  0  0  0  0  0  0  0  0
  151.0636  142.9008  157.7482 C   0  0  0  0  0  0  0  0  0  0  0  0
  151.5854  141.6684  157.3830 N   0  0  0  0  0  0  0  0  0  0  0  0
  151.2582  141.0736  156.0338 C   0  0  1  0  0  0  0  0  0  0  0  0
  150.7978  139.6153  156.1643 C   0  0  0  0  0  0  0  0  0  0  0  0
  149.3999  139.6363  155.5626 C   0  0  1  0  0  0  0  0  0  0  0  0
  148.4191  139.6443  156.5836 O   0  0  0  0  0  0  0  0  0  0  0  0
  149.3850  140.9279  154.7303 C   0  0  1  0  0  0  0  0  0  0  0  0
  147.9968  141.5458  154.4859 C   0  0  0  0  0  0  0  0  0  0  0  0
  148.1279  142.9012  154.1141 O   0  0  0  0  0  0  0  0  0  0  0  0
  150.2129  141.8078  155.4785 O   0  0  0  0  0  0  0  0  0  0  0  0
  152.4385  140.9862  158.2756 C   0  0  0  0  0  0  0  0  0  0  0  0
  152.9357  139.8883  158.0284 O   0  0  0  0  0  0  0  0  0  0  0  0
  152.7021  141.6084  159.4949 N   0  0  0  0  0  0  0  0  0  0  0  0
  152.1964  142.8448  159.9047 C   0  0  0  0  0  0  0  0  0  0  0  0
  152.5014  143.2893  161.0103 O   0  0  0  0  0  0  0  0  0  0  0  0
  152.1300  141.1801  155.3871 H   0  0  0  0  0  0  0  0  0  0  0  0
  149.2229  138.7613  154.9364 H   0  0  0  0  0  0  0  0  0  0  0  0
  149.8779  140.7222  153.7779 H   0  0  0  0  0  0  0  0  0  0  0  0
  153.3093  141.1227  160.1388 H   0  0  0  0  0  0  0  0  0  0  0  0
  150.0823  145.2445  158.5146 H   0  0  0  0  0  0  0  0  0  0  0  0
  151.5301  145.5897  159.4595 H   0  0  0  0  0  0  0  0  0  0  0  0
  150.1468  144.7897  160.2162 H   0  0  0  0  0  0  0  0  0  0  0  0
  150.4181  143.4068  157.0452 H   0  0  0  0  0  0  0  0  0  0  0  0
  151.4686  138.9894  155.5746 H   0  0  0  0  0  0  0  0  0  0  0  0
  150.8229  139.2663  157.1981 H   0  0  0  0  0  0  0  0  0  0  0  0
  148.6708  139.0216  157.2482 H   0  0  0  0  0  0  0  0  0  0  0  0
  147.4962  141.0316  153.6649 H   0  0  0  0  0  0  0  0  0  0  0  0
  147.3598  141.4543  155.3663 H   0  0  0  0  0  0  0  0  0  0  0  0
  148.3416  143.4054  154.8842 H   0  0  0  0  0  0  0  0  0  0  0  0
  1  2  1  0  0  0  0
  1 22  1  0  0  0  0
  1 23  1  0  0  0  0
  1 24  1  0  0  0  0
  2 16  1  0  0  0  0
  2  3  2  0  0  0  0
  3  4  1  0  0  0  0
  3 25  1  0  0  0  0
  4  5  1  0  0  0  0
  4 13  1  0  0  0  0
  5 18  1  0  0  0  0
  5 12  1  0  0  0  0
  5  6  1  0  0  0  0
  6  7  1  0  0  0  0
  6 26  1  0  0  0  0
  6 27  1  0  0  0  0
  7 19  1  0  0  0  0
  7  8  1  0  0  0  0
  7  9  1  0  0  0  0
  8 28  1  0  0  0  0
  9 20  1  0  0  0  0
  9 10  1  0  0  0  0
  9 12  1  0  0  0  0
 10 11  1  0  0  0  0
 10 29  1  0  0  0  0
 10 30  1  0  0  0  0
 11 31  1  0  0  0  0
 13 14  2  0  0  0  0
 13 15  1  0  0  0  0
 15 21  1  0  0  0  0
 15 16  1  0  0  0  0
 16 17  2  0  0  0  0
M  END
> <s_m_source_file>
AV-unprocessed.smi

> <i_m_source_file_index>
55

> <i_lp_mmshare_version>
43012

> <i_f3d_flags>
0

> <s_epik_input>
Tz1jMVtuSF1jKD1PKW4oW2NIXWMxW0NIM10pW0NAQEhdMltDSDJdW0NAQEhdKFtPSF0pW0NAQEhdKE8yKVtDSDJdW09IXQ==

> <s_epik_cmdline>
J2VwaWtfcHl0aG9uJywgJy1waCcsICc3LjAnLCAnLXRuJywgJzgnLCAnLW1hJywgJzIwMCcsICctbWV0YWxfYmluZGluZycsICctaW1hZScsICc8aW5maWxlLm1hZT4nLCAnLW9tYWUnLCAnPG91dGZpbGUubWFlPic=

> <r_lp_tautomer_probability>
0.999537

> <r_epik_Ionization_Penalty>
0.00121888

> <r_epik_Ionization_Penalty_Charging>
0.00121876

> <r_epik_Ionization_Penalty_Neutral>
1.19946e-07

> <r_epik_State_Penalty>
0.000805124

> <r_epik_Charging_Adjusted_Penalty>
0.00202389

> <i_epik_Tot_Q>
0

> <i_epik_Tot_abs_Q>
0

> <r_epik_Metal_State_Penalty>
0.662472

> <b_epik_Metal_Only>
0

> <s_epik_Chemistry_Notes>
This compound contains an acetal/aminal-like group ( X-CH(R)-Y where X, Y are N, S, or O) that may be acid/base labile, releasing an aldehyde.

> <s_lp_Force_Field>
OPLS_2005

> <r_lp_Energy>
28.3693

> <b_lp_Chiralities_Consistent>
1

> <s_lp_Variant>
AV-unprocessed.smi:55-6

> <Gold.Version>
5.8.1

> <Gold.Id.Protein>
6NUR|6NUR_protein|mol2

> <Gold.PLP.Fitness>
38.6405

> <Gold.PLP.PLP>
-30.3885

> <Gold.PLP.part.hbond>
-4.2284

> <Gold.PLP.part.metal>
0.0000

> <Gold.PLP.part.buried>
-3.6186

> <Gold.PLP.part.nonpolar>
-21.9256

> <Gold.PLP.part.repulsive>
0.2953

> <Gold.PLP.ligand.clash>
0.0000

> <Gold.PLP.ligand.torsion>
0.3767

> <Gold.PLP.Chemscore.Hbond>
2.0000

> <Gold.PLP.Chemscore.CHOScore>
1.0000

> <Gold.PLP.Chemscore.Metal>
0.0000

> <Gold.Chemscore.Hbonds>
donor molecule, donor type, donor heavy atom, donor atom, acceptor molecule, acceptor atom, score
      L1  H    11    31       P1  8028  1.00
      P1  H  7997  8010       L1    14  1.00
      L1  C     3    25       P1  8028  1.00

> <Gold.PLP.Chemscore.Internal.Correction>
0.0054

> <Gold.Rescore>
     Score         DG    S(hbond)    S(metal)    S(lipo)     H(rot)  DE(clash)    DE(int)     intcor
      9.47     -10.97       2.00        0.00      49.54       2.73       0.19       1.31       ----

> <Gold.Chemscore.Fitness>
9.4654

> <Gold.Chemscore.DG>
-10.9650

> <Gold.Chemscore.ZeroCoef>
-5.4800

> <Gold.Chemscore.Hbond>
1.9957

> <Gold.Chemscore.Metal>
0.0000

> <Gold.Chemscore.Lipo>
49.5417

> <Gold.Chemscore.Internal_Hbond>
0.0000

> <Gold.Chemscore.DEClash>
0.1889

> <Gold.Chemscore.DEInternal>
1.3107

> <Gold.Chemscore.Rot>
2.7253

> <Gold.Chemscore.Internal.Correction>
   9.000000E+99

> <Gold.Chemscore.Hbonds>
donor molecule, donor type, donor heavy atom, donor atom, acceptor molecule, acceptor atom, score
      L1  H    11    31       P1  8028  0.94
      P1  H  7997  8010       L1    14  0.76

> <Gold.Chemscore.Hbond.Weighted>
-6.6655

> <Gold.Chemscore.Metal.Weighted>
-0.0000

> <Gold.Chemscore.Lipo.Weighted>
-5.7964

> <Gold.Chemscore.Internal_Hbond.Weighted>
0.0000

> <Gold.Chemscore.DEClash.Weighted>
0.1889

> <Gold.Chemscore.DEInternal.Weighted>
1.3107

> <Gold.Chemscore.Rot.Weighted>
6.9769

> <Gold.Chemscore.Internal.Correction.Weighted>
   9.000000E+99

> <Gold.Protein.RotatedTorsions>
[ 6907 6896 6895 6894 ] final   78.52 input  -60.11 | X-H torsion
[ 7974 7965 7964 7962 ] final   47.86 input  175.53 | X-H torsion
[ 8008 7997 7996 7995 ] final   51.61 input   59.86 | X-H torsion
[ 10167 10162 10161 10158 ] final   54.49 input  -65.29 | X-H torsion
[ 10718 10713 10712 10709 ] final  -61.03 input   66.30 | X-H torsion
[ 10763 10752 10751 10750 ] final  -53.75 input  -60.55 | X-H torsion
[ 11005 11000 10999 10996 ] final -143.74 input  -57.11 | X-H torsion

> <Gold.Protein.ActiveResidues>
 VAL166  LYS551  ARG553  GLY616  TRP617  ASP618  TYR619  PRO620  LYS621  CYS622 
 ASP623  PHE694  ASN695  SER759  ASP760  ASP761  ALA762  ILE779  LEU786  VAL792 
 PHE793  MET794  SER795  GLU796  ALA797  LYS798  CYS799  TRP800  GLU811  SER814 

> <Gold.Protein.RotatedAtoms>
  152.5162  134.3652  159.9298 H   0  0  0  0  0  0  0  0  0  0  0  0  # atno 6907 bound_to 6896
  151.3605  133.3885  159.2697 H   0  0  0  0  0  0  0  0  0  0  0  0  # atno 6908 bound_to 6896
  150.9655  134.9056  159.7815 H   0  0  0  0  0  0  0  0  0  0  0  0  # atno 6909 bound_to 6896
  146.0258  139.4704  142.9869 H   0  0  0  0  0  0  0  0  0  0  0  0  # atno 7974 bound_to 7965
  155.4382  140.3453  155.4287 H   0  0  0  0  0  0  0  0  0  0  0  0  # atno 8008 bound_to 7997
  156.1295  140.1510  156.9117 H   0  0  0  0  0  0  0  0  0  0  0  0  # atno 8009 bound_to 7997
  154.4883  140.0848  156.7518 H   0  0  0  0  0  0  0  0  0  0  0  0  # atno 8010 bound_to 7997
  140.2295  144.3702  150.6420 H   0  0  0  0  0  0  0  0  0  0  0  0  # atno 10167 bound_to 10162
  156.0949  130.4194  150.0937 H   0  0  0  0  0  0  0  0  0  0  0  0  # atno 10718 bound_to 10713
  154.1639  135.6470  153.4992 H   0  0  0  0  0  0  0  0  0  0  0  0  # atno 10763 bound_to 10752
  153.0103  135.5367  154.6683 H   0  0  0  0  0  0  0  0  0  0  0  0  # atno 10764 bound_to 10752
  154.6004  135.2943  155.0514 H   0  0  0  0  0  0  0  0  0  0  0  0  # atno 10765 bound_to 10752
  140.8094  134.2762  157.4947 H   0  0  0  0  0  0  0  0  0  0  0  0  # atno 11005 bound_to 11000
  145.7120  141.0103  143.1448 LP  0  0  0  0  0  0  0  0  0  0  0  0  # atno 17320 bound_to 7965
  144.7009  139.8769  143.7444 LP  0  0  0  0  0  0  0  0  0  0  0  0  # atno 17321 bound_to 7965
  140.6195  143.2175  151.6722 LP  0  0  0  0  0  0  0  0  0  0  0  0  # atno 17342 bound_to 10162
  139.5115  144.3507  152.0654 LP  0  0  0  0  0  0  0  0  0  0  0  0  # atno 17343 bound_to 10162
  156.8939  130.9597  151.3585 LP  0  0  0  0  0  0  0  0  0  0  0  0  # atno 17370 bound_to 10713
  157.6108  130.8581  149.8948 LP  0  0  0  0  0  0  0  0  0  0  0  0  # atno 17371 bound_to 10713
  139.8715  134.9475  156.3968 LP  0  0  0  0  0  0  0  0  0  0  0  0  # atno 17394 bound_to 11000
  140.9213  133.7643  155.9910 LP  0  0  0  0  0  0  0  0  0  0  0  0  # atno 17395 bound_to 11000

$$$$
