AV-unprocessed.smi:2951|AV-procd|sdf|11290|dock2
  -GOLD-   2272016183D 1   1.00000     0.00000
 Structure written by MMmdl.
 17 17  0  0  0  0  0  0  0  0  1 V2000
  150.1312  137.8611  153.9554 N   0  0  0  0  0  0  0  0  0  0  0  0
  151.1185  137.4576  154.7597 C   0  0  0  0  0  0  0  0  0  0  0  0
  151.2200  136.2943  155.1439 O   0  0  0  0  0  0  0  0  0  0  0  0
  152.1401  138.5097  155.1950 C   0  0  0  0  0  0  0  0  0  0  0  0
  151.4381  139.7470  155.6744 C   0  0  0  0  0  0  0  0  0  0  0  0
  151.6997  140.4484  156.8270 C   0  0  0  0  0  0  0  0  0  0  0  0
  150.6501  141.8284  157.0057 S   0  0  0  0  0  0  0  0  0  0  0  0
  149.8894  141.3943  155.4829 C   0  0  0  0  0  0  0  0  0  0  0  0
  148.8514  142.1405  154.9525 N   0  0  0  0  0  0  0  0  0  0  0  0
  150.4028  140.3030  154.9136 N   0  0  0  0  0  0  0  0  0  0  0  0
  149.4316  137.2001  153.6500 H   0  0  0  0  0  0  0  0  0  0  0  0
  150.0830  138.8260  153.6609 H   0  0  0  0  0  0  0  0  0  0  0  0
  152.7643  138.0943  155.9871 H   0  0  0  0  0  0  0  0  0  0  0  0
  152.8105  138.7356  154.3645 H   0  0  0  0  0  0  0  0  0  0  0  0
  152.4421  140.2334  157.5815 H   0  0  0  0  0  0  0  0  0  0  0  0
  148.4984  142.9596  155.4259 H   0  0  0  0  0  0  0  0  0  0  0  0
  148.4754  141.9417  154.0367 H   0  0  0  0  0  0  0  0  0  0  0  0
  1  2  1  0  0  0  0
  1 11  1  0  0  0  0
  1 12  1  0  0  0  0
  2  3  2  0  0  0  0
  2  4  1  0  0  0  0
  4  5  1  0  0  0  0
  4 13  1  0  0  0  0
  4 14  1  0  0  0  0
  5 10  1  0  0  0  0
  5  6  2  0  0  0  0
  6  7  1  0  0  0  0
  6 15  1  0  0  0  0
  7  8  1  0  0  0  0
  8  9  1  0  0  0  0
  8 10  2  0  0  0  0
  9 16  1  0  0  0  0
  9 17  1  0  0  0  0
M  END
> <s_m_source_file>
AV-unprocessed.smi

> <i_m_source_file_index>
2951

> <i_lp_mmshare_version>
43012

> <i_f3d_flags>
0

> <s_epik_input>
W05IMl1DKD1PKVtDSDJdYzFbY0hdc2MobjEpW05IMl0=

> <s_epik_cmdline>
J2VwaWtfcHl0aG9uJywgJy1waCcsICc3LjAnLCAnLXRuJywgJzgnLCAnLW1hJywgJzIwMCcsICctbWV0YWxfYmluZGluZycsICctaW1hZScsICc8aW5maWxlLm1hZT4nLCAnLW9tYWUnLCAnPG91dGZpbGUubWFlPic=

> <r_lp_tautomer_probability>
1

> <r_epik_Ionization_Penalty>
0.00145479

> <r_epik_Ionization_Penalty_Charging>
0

> <r_epik_Ionization_Penalty_Neutral>
0.00145479

> <r_epik_State_Penalty>
-0

> <r_epik_Charging_Adjusted_Penalty>
0

> <i_epik_Tot_Q>
0

> <i_epik_Tot_abs_Q>
0

> <r_epik_Metal_State_Penalty>
-0

> <b_epik_Metal_Only>
0

> <s_lp_Force_Field>
OPLS_2005

> <r_lp_Energy>
-0.412786

> <b_lp_Chiralities_Consistent>
1

> <s_lp_Variant>
AV-unprocessed.smi:2951-1

> <Gold.Version>
5.8.1

> <Gold.Id.Protein>
6NUR|6NUR_protein|mol2

> <Gold.PLP.Fitness>
32.5987

> <Gold.PLP.PLP>
-22.4507

> <Gold.PLP.part.hbond>
-5.6187

> <Gold.PLP.part.metal>
0.0000

> <Gold.PLP.part.buried>
-0.9340

> <Gold.PLP.part.nonpolar>
-15.2013

> <Gold.PLP.part.repulsive>
1.6037

> <Gold.PLP.ligand.clash>
0.0000

> <Gold.PLP.ligand.torsion>
0.2701

> <Gold.PLP.Chemscore.Hbond>
3.5627

> <Gold.PLP.Chemscore.CHOScore>
0.0000

> <Gold.PLP.Chemscore.Metal>
0.0000

> <Gold.Chemscore.Hbonds>
donor molecule, donor type, donor heavy atom, donor atom, acceptor molecule, acceptor atom, score
      L1  H     1    11       P1  7948  0.65
      L1  H     9    16       P1  8028  0.82
      P1  H  7989  7998       L1    10  0.65
      P1  H 10752 10765       L1     3  0.11

> <Gold.PLP.Chemscore.Internal.Correction>
0.0001

> <Gold.Rescore>
     Score         DG    S(hbond)    S(metal)    S(lipo)     H(rot)  DE(clash)    DE(int)     intcor
      9.25     -11.13       2.00        0.00      27.39       1.65       0.03       1.85       ----

> <Gold.Chemscore.Fitness>
9.2545

> <Gold.Chemscore.DG>
-11.1315

> <Gold.Chemscore.ZeroCoef>
-5.4800

> <Gold.Chemscore.Hbond>
1.9966

> <Gold.Chemscore.Metal>
0.0000

> <Gold.Chemscore.Lipo>
27.3928

> <Gold.Chemscore.Internal_Hbond>
0.0000

> <Gold.Chemscore.DEClash>
0.0295

> <Gold.Chemscore.DEInternal>
1.8474

> <Gold.Chemscore.Rot>
1.6493

> <Gold.Chemscore.Internal.Correction>
   9.000000E+99

> <Gold.Chemscore.Hbonds>
donor molecule, donor type, donor heavy atom, donor atom, acceptor molecule, acceptor atom, score
      L1  H     1    11       P1  7948  0.58
      L1  H     9    16       P1  8028  0.81
      P1  H  7989  7998       L1    10  0.04
      P1  H 10752 10765       L1     3  0.02

> <Gold.Chemscore.Hbond.Weighted>
-6.6687

> <Gold.Chemscore.Metal.Weighted>
-0.0000

> <Gold.Chemscore.Lipo.Weighted>
-3.2050

> <Gold.Chemscore.Internal_Hbond.Weighted>
0.0000

> <Gold.Chemscore.DEClash.Weighted>
0.0295

> <Gold.Chemscore.DEInternal.Weighted>
1.8474

> <Gold.Chemscore.Rot.Weighted>
4.2222

> <Gold.Chemscore.Internal.Correction.Weighted>
   9.000000E+99

> <Gold.Protein.RotatedTorsions>
[ 6907 6896 6895 6894 ] final   11.73 input  -60.11 | X-H torsion
[ 7974 7965 7964 7962 ] final  -14.83 input  175.53 | X-H torsion
[ 8008 7997 7996 7995 ] final   95.52 input   59.86 | X-H torsion
[ 10167 10162 10161 10158 ] final -157.74 input  -65.29 | X-H torsion
[ 10718 10713 10712 10709 ] final  175.67 input   66.30 | X-H torsion
[ 10763 10752 10751 10750 ] final  136.09 input  -60.55 | X-H torsion
[ 11005 11000 10999 10996 ] final   93.39 input  -57.11 | X-H torsion

> <Gold.Protein.ActiveResidues>
 VAL166  LYS551  ARG553  GLY616  TRP617  ASP618  TYR619  PRO620  LYS621  CYS622 
 ASP623  PHE694  ASN695  SER759  ASP760  ASP761  ALA762  ILE779  LEU786  VAL792 
 PHE793  MET794  SER795  GLU796  ALA797  LYS798  CYS799  TRP800  GLU811  SER814 

> <Gold.Protein.RotatedAtoms>
  151.7590  135.0814  160.0342 H   0  0  0  0  0  0  0  0  0  0  0  0  # atno 6907 bound_to 6896
  152.3366  133.6014  159.5855 H   0  0  0  0  0  0  0  0  0  0  0  0  # atno 6908 bound_to 6896
  150.7454  133.9702  159.3585 H   0  0  0  0  0  0  0  0  0  0  0  0  # atno 6909 bound_to 6896
  146.2058  140.3405  142.8407 H   0  0  0  0  0  0  0  0  0  0  0  0  # atno 7974 bound_to 7965
  156.0697  140.3285  155.7561 H   0  0  0  0  0  0  0  0  0  0  0  0  # atno 8008 bound_to 7997
  155.5325  140.0594  157.2903 H   0  0  0  0  0  0  0  0  0  0  0  0  # atno 8009 bound_to 7997
  154.4523  140.1925  156.0498 H   0  0  0  0  0  0  0  0  0  0  0  0  # atno 8010 bound_to 7997
  139.6746  143.9685  152.2303 H   0  0  0  0  0  0  0  0  0  0  0  0  # atno 10167 bound_to 10162
  156.9315  130.9972  151.2986 H   0  0  0  0  0  0  0  0  0  0  0  0  # atno 10718 bound_to 10713
  153.8507  135.3079  155.3432 H   0  0  0  0  0  0  0  0  0  0  0  0  # atno 10763 bound_to 10752
  154.7892  135.4792  154.0018 H   0  0  0  0  0  0  0  0  0  0  0  0  # atno 10764 bound_to 10752
  153.1520  135.6845  153.8961 H   0  0  0  0  0  0  0  0  0  0  0  0  # atno 10765 bound_to 10752
  139.8811  134.8787  156.3711 H   0  0  0  0  0  0  0  0  0  0  0  0  # atno 11005 bound_to 11000
  144.8789  140.7373  143.5999 LP  0  0  0  0  0  0  0  0  0  0  0  0  # atno 17320 bound_to 7965
  145.3325  139.1755  143.4529 LP  0  0  0  0  0  0  0  0  0  0  0  0  # atno 17321 bound_to 7965
  139.9459  144.6652  150.8220 LP  0  0  0  0  0  0  0  0  0  0  0  0  # atno 17342 bound_to 10162
  140.7631  143.3214  151.2614 LP  0  0  0  0  0  0  0  0  0  0  0  0  # atno 17343 bound_to 10162
  157.5844  130.8399  149.8568 LP  0  0  0  0  0  0  0  0  0  0  0  0  # atno 17370 bound_to 10713
  156.0445  130.3731  150.1352 LP  0  0  0  0  0  0  0  0  0  0  0  0  # atno 17371 bound_to 10713
  140.9464  133.7480  156.0213 LP  0  0  0  0  0  0  0  0  0  0  0  0  # atno 17394 bound_to 11000
  140.8158  134.3346  157.5397 LP  0  0  0  0  0  0  0  0  0  0  0  0  # atno 17395 bound_to 11000

$$$$
