AV-unprocessed.smi:730|AV-procd|sdf|3523|dock10
  -GOLD-   22720 0513D 1   1.00000     0.00000
 Structure written by MMmdl.
 40 41  0  0  0  0  0  0  0  0  1 V2000
  147.2791  142.2357  155.1728 C   0  0  0  0  0  0  0  0  0  0  0  0
  148.1120  141.0225  155.6333 C   0  0  0  0  0  0  0  0  0  0  0  0
  149.5366  141.1681  155.0659 C   0  0  0  0  0  0  0  0  0  0  0  0
  148.1752  141.0331  157.1718 C   0  0  0  0  0  0  0  0  0  0  0  0
  147.4964  139.7381  155.1524 C   0  0  0  0  0  0  0  0  0  0  0  0
  147.9260  138.7428  154.3168 C   0  0  0  0  0  0  0  0  0  0  0  0
  146.8398  137.8285  154.3139 C   0  0  0  0  0  0  0  0  0  0  0  0
  146.8978  136.6333  153.5533 N   0  0  0  0  0  0  0  0  0  0  0  0
  146.0360  135.6028  153.5802 C   0  0  0  0  0  0  0  0  0  0  0  0
  145.0311  135.5347  154.2885 O   0  0  0  0  0  0  0  0  0  0  0  0
  146.4138  134.6311  152.7372 N   0  0  0  0  0  0  0  0  0  0  0  0
  145.7062  133.3646  152.5412 C   0  0  1  0  0  0  0  0  0  0  0  0
  144.2950  133.6276  151.9850 C   0  0  0  0  0  0  0  0  0  0  0  0
  144.3346  133.1911  150.5216 C   0  0  0  0  0  0  0  0  0  0  0  0
  145.3127  132.0203  150.5123 C   0  0  0  0  0  0  0  0  0  0  0  0
  146.3943  132.4048  151.5301 C   0  0  1  0  0  0  0  0  0  0  0  0
  147.4787  133.0005  150.8387 O   0  0  0  0  0  0  0  0  0  0  0  0
  145.8322  138.2263  155.0740 N   0  0  0  0  0  0  0  0  0  0  0  0
  146.2466  139.4491  155.6133 O   0  0  0  0  0  0  0  0  0  0  0  0
  147.7162  143.1732  155.5186 H   0  0  0  0  0  0  0  0  0  0  0  0
  146.2599  142.1896  155.5590 H   0  0  0  0  0  0  0  0  0  0  0  0
  147.2176  142.2866  154.0850 H   0  0  0  0  0  0  0  0  0  0  0  0
  149.5295  141.1694  153.9752 H   0  0  0  0  0  0  0  0  0  0  0  0
  150.1813  140.3494  155.3880 H   0  0  0  0  0  0  0  0  0  0  0  0
  150.0033  142.0979  155.3928 H   0  0  0  0  0  0  0  0  0  0  0  0
  148.6115  141.9602  157.5461 H   0  0  0  0  0  0  0  0  0  0  0  0
  148.7814  140.2106  157.5530 H   0  0  0  0  0  0  0  0  0  0  0  0
  147.1809  140.9375  157.6093 H   0  0  0  0  0  0  0  0  0  0  0  0
  148.8688  138.6782  153.7943 H   0  0  0  0  0  0  0  0  0  0  0  0
  147.6865  136.5490  152.9295 H   0  0  0  0  0  0  0  0  0  0  0  0
  147.2575  134.7662  152.1997 H   0  0  0  0  0  0  0  0  0  0  0  0
  145.6000  132.8650  153.5062 H   0  0  0  0  0  0  0  0  0  0  0  0
  143.5762  133.0071  152.5219 H   0  0  0  0  0  0  0  0  0  0  0  0
  143.9691  134.6627  152.0971 H   0  0  0  0  0  0  0  0  0  0  0  0
  143.3509  132.9214  150.1363 H   0  0  0  0  0  0  0  0  0  0  0  0
  144.7250  134.0019  149.9049 H   0  0  0  0  0  0  0  0  0  0  0  0
  144.7961  131.1234  150.8570 H   0  0  0  0  0  0  0  0  0  0  0  0
  145.7068  131.8049  149.5181 H   0  0  0  0  0  0  0  0  0  0  0  0
  146.7757  131.5174  152.0365 H   0  0  0  0  0  0  0  0  0  0  0  0
  148.0962  132.3213  150.6134 H   0  0  0  0  0  0  0  0  0  0  0  0
  1  2  1  0  0  0  0
  1 20  1  0  0  0  0
  1 21  1  0  0  0  0
  1 22  1  0  0  0  0
  2  3  1  0  0  0  0
  2  4  1  0  0  0  0
  2  5  1  0  0  0  0
  3 23  1  0  0  0  0
  3 24  1  0  0  0  0
  3 25  1  0  0  0  0
  4 26  1  0  0  0  0
  4 27  1  0  0  0  0
  4 28  1  0  0  0  0
  5 19  1  0  0  0  0
  5  6  2  0  0  0  0
  6  7  1  0  0  0  0
  6 29  1  0  0  0  0
  7  8  1  0  0  0  0
  7 18  2  0  0  0  0
  8  9  1  0  0  0  0
  8 30  1  0  0  0  0
  9 10  2  0  0  0  0
  9 11  1  0  0  0  0
 11 12  1  0  0  0  0
 11 31  1  0  0  0  0
 12 16  1  0  0  0  0
 12 13  1  0  0  0  0
 12 32  1  0  0  0  0
 13 14  1  0  0  0  0
 13 33  1  0  0  0  0
 13 34  1  0  0  0  0
 14 15  1  0  0  0  0
 14 35  1  0  0  0  0
 14 36  1  0  0  0  0
 15 16  1  0  0  0  0
 15 37  1  0  0  0  0
 15 38  1  0  0  0  0
 16 17  1  0  0  0  0
 16 39  1  0  0  0  0
 17 40  1  0  0  0  0
 18 19  1  0  0  0  0
M  END
> <s_m_source_file>
AV-unprocessed.smi

> <i_m_source_file_index>
730

> <i_lp_mmshare_version>
43012

> <i_f3d_flags>
0

> <s_epik_input>
W0NIM11DKFtDSDNdKShbQ0gzXSljMVtjSF1jKG5vMSlbTkhdQyg9TylbTkhdW0NAQEhdMltDSDJdW0NIMl1bQ0gyXVtDQEhdMltPSF0=

> <s_epik_cmdline>
J2VwaWtfcHl0aG9uJywgJy1waCcsICc3LjAnLCAnLXRuJywgJzgnLCAnLW1hJywgJzIwMCcsICctbWV0YWxfYmluZGluZycsICctaW1hZScsICc8aW5maWxlLm1hZT4nLCAnLW9tYWUnLCAnPG91dGZpbGUubWFlPic=

> <r_lp_tautomer_probability>
1

> <r_epik_Ionization_Penalty>
2.23071e-05

> <r_epik_Ionization_Penalty_Charging>
0

> <r_epik_Ionization_Penalty_Neutral>
2.23071e-05

> <r_epik_State_Penalty>
-0

> <r_epik_Charging_Adjusted_Penalty>
0

> <i_epik_Tot_Q>
0

> <i_epik_Tot_abs_Q>
0

> <r_epik_Metal_State_Penalty>
-0

> <b_epik_Metal_Only>
0

> <s_lp_Force_Field>
OPLS_2005

> <r_lp_Energy>
21.0344

> <b_lp_Chiralities_Consistent>
1

> <s_lp_Variant>
AV-unprocessed.smi:730-2

> <Gold.Version>
5.8.1

> <Gold.Id.Protein>
6NUR|6NUR_protein|mol2

> <Gold.PLP.Fitness>
33.8796

> <Gold.PLP.PLP>
-26.2748

> <Gold.PLP.part.hbond>
-2.9658

> <Gold.PLP.part.metal>
0.0000

> <Gold.PLP.part.buried>
-1.0594

> <Gold.PLP.part.nonpolar>
-21.2804

> <Gold.PLP.part.repulsive>
0.2530

> <Gold.PLP.ligand.clash>
0.0000

> <Gold.PLP.ligand.torsion>
0.0405

> <Gold.PLP.Chemscore.Hbond>
2.5616

> <Gold.PLP.Chemscore.CHOScore>
0.0000

> <Gold.PLP.Chemscore.Metal>
0.0000

> <Gold.Chemscore.Hbonds>
donor molecule, donor type, donor heavy atom, donor atom, acceptor molecule, acceptor atom, score
      L1  H     8    30       P1  7948  1.00
      L1  H    11    31       P1  7948  0.44
      L1  H    17    40       P1 10747  1.00

> <Gold.PLP.Chemscore.Internal.Correction>
0.0011

> <Gold.Rescore>
     Score         DG    S(hbond)    S(metal)    S(lipo)     H(rot)  DE(clash)    DE(int)     intcor
     14.28     -17.08       2.46        0.00      66.28       1.71       0.11       2.69       ----

> <Gold.Chemscore.Fitness>
14.2843

> <Gold.Chemscore.DG>
-17.0818

> <Gold.Chemscore.ZeroCoef>
-5.4800

> <Gold.Chemscore.Hbond>
2.4644

> <Gold.Chemscore.Metal>
0.0000

> <Gold.Chemscore.Lipo>
66.2797

> <Gold.Chemscore.Internal_Hbond>
0.0000

> <Gold.Chemscore.DEClash>
0.1099

> <Gold.Chemscore.DEInternal>
2.6877

> <Gold.Chemscore.Rot>
1.7125

> <Gold.Chemscore.Internal.Correction>
   9.000000E+99

> <Gold.Chemscore.Hbonds>
donor molecule, donor type, donor heavy atom, donor atom, acceptor molecule, acceptor atom, score
      L1  H     8    30       P1  7948  1.00
      L1  H    11    31       P1  7948  0.40
      L1  H    17    40       P1 10747  1.00

> <Gold.Chemscore.Hbond.Weighted>
-8.2312

> <Gold.Chemscore.Metal.Weighted>
-0.0000

> <Gold.Chemscore.Lipo.Weighted>
-7.7547

> <Gold.Chemscore.Internal_Hbond.Weighted>
0.0000

> <Gold.Chemscore.DEClash.Weighted>
0.1099

> <Gold.Chemscore.DEInternal.Weighted>
2.6877

> <Gold.Chemscore.Rot.Weighted>
4.3841

> <Gold.Chemscore.Internal.Correction.Weighted>
   9.000000E+99

> <Gold.Protein.RotatedTorsions>
[ 6907 6896 6895 6894 ] final -178.68 input  -60.11 | X-H torsion
[ 7974 7965 7964 7962 ] final   30.06 input  175.53 | X-H torsion
[ 8008 7997 7996 7995 ] final   30.50 input   59.86 | X-H torsion
[ 10167 10162 10161 10158 ] final -152.96 input  -65.29 | X-H torsion
[ 10718 10713 10712 10709 ] final   -8.73 input   66.30 | X-H torsion
[ 10763 10752 10751 10750 ] final   -3.08 input  -60.55 | X-H torsion
[ 11005 11000 10999 10996 ] final -175.05 input  -57.11 | X-H torsion

> <Gold.Protein.ActiveResidues>
 VAL166  LYS551  ARG553  GLY616  TRP617  ASP618  TYR619  PRO620  LYS621  CYS622 
 ASP623  PHE694  ASN695  SER759  ASP760  ASP761  ALA762  ILE779  LEU786  VAL792 
 PHE793  MET794  SER795  GLU796  ALA797  LYS798  CYS799  TRP800  GLU811  SER814 

> <Gold.Protein.RotatedAtoms>
  151.6412  133.3326  159.3130 H   0  0  0  0  0  0  0  0  0  0  0  0  # atno 6907 bound_to 6896
  150.8007  134.7102  159.6609 H   0  0  0  0  0  0  0  0  0  0  0  0  # atno 6908 bound_to 6896
  152.4099  134.6147  160.0086 H   0  0  0  0  0  0  0  0  0  0  0  0  # atno 6909 bound_to 6896
  146.1635  139.6839  142.9017 H   0  0  0  0  0  0  0  0  0  0  0  0  # atno 7974 bound_to 7965
  155.0913  140.3220  155.4573 H   0  0  0  0  0  0  0  0  0  0  0  0  # atno 8008 bound_to 7997
  156.2742  140.2077  156.5987 H   0  0  0  0  0  0  0  0  0  0  0  0  # atno 8009 bound_to 7997
  154.6901  140.0517  157.0341 H   0  0  0  0  0  0  0  0  0  0  0  0  # atno 8010 bound_to 7997
  139.7137  143.9067  152.2478 H   0  0  0  0  0  0  0  0  0  0  0  0  # atno 10167 bound_to 10162
  156.6984  130.5086  149.5924 H   0  0  0  0  0  0  0  0  0  0  0  0  # atno 10718 bound_to 10713
  153.3665  135.6992  153.6671 H   0  0  0  0  0  0  0  0  0  0  0  0  # atno 10763 bound_to 10752
  153.5338  135.3587  155.2688 H   0  0  0  0  0  0  0  0  0  0  0  0  # atno 10764 bound_to 10752
  154.8675  135.4187  154.2934 H   0  0  0  0  0  0  0  0  0  0  0  0  # atno 10765 bound_to 10752
  140.4677  134.6195  157.4869 H   0  0  0  0  0  0  0  0  0  0  0  0  # atno 11005 bound_to 11000
  145.4528  141.0429  143.2795 LP  0  0  0  0  0  0  0  0  0  0  0  0  # atno 17320 bound_to 7965
  144.8059  139.6052  143.7051 LP  0  0  0  0  0  0  0  0  0  0  0  0  # atno 17321 bound_to 7965
  139.8944  144.6947  150.8735 LP  0  0  0  0  0  0  0  0  0  0  0  0  # atno 17342 bound_to 10162
  140.7739  143.3562  151.1917 LP  0  0  0  0  0  0  0  0  0  0  0  0  # atno 17343 bound_to 10162
  156.1747  130.6460  151.0879 LP  0  0  0  0  0  0  0  0  0  0  0  0  # atno 17370 bound_to 10713
  157.6982  131.0786  150.6902 LP  0  0  0  0  0  0  0  0  0  0  0  0  # atno 17371 bound_to 10713
  139.9905  134.6993  155.9698 LP  0  0  0  0  0  0  0  0  0  0  0  0  # atno 17394 bound_to 11000
  141.1592  133.6540  156.4261 LP  0  0  0  0  0  0  0  0  0  0  0  0  # atno 17395 bound_to 11000

$$$$
