AV-unprocessed.smi:1695|AV-procd|sdf|6789|dock7
  -GOLD-   22720 7553D 1   1.00000     0.00000
 Structure written by MMmdl.
 51 53  0  0  0  0  0  0  0  0  2 V2000
  153.2980  142.3303  161.2287 C   0  0  0  0  0  0  0  0  0  0  0  0
  152.5403  142.1772  159.9217 C   0  0  0  0  0  0  0  0  0  0  0  0
  152.5058  140.9128  159.2917 C   0  0  0  0  0  0  0  0  0  0  0  0
  151.8129  140.7282  158.0755 C   0  0  0  0  0  0  0  0  0  0  0  0
  151.6466  139.5946  157.2987 N   0  0  0  0  0  0  0  0  0  0  0  0
  150.9040  140.0605  156.2990 C   0  0  0  0  0  0  0  0  0  0  0  0
  150.5632  141.3630  156.3394 N   0  0  0  0  0  0  0  0  0  0  0  0
  149.7540  142.0816  155.3725 C   0  0  0  0  0  0  0  0  0  0  0  0
  148.9650  141.1352  154.4470 C   0  0  2  0  0  0  0  0  0  0  0  0
  149.8051  140.7918  153.3638 O   0  0  0  0  0  0  0  0  0  0  0  0
  147.6651  141.7570  153.8898 C   0  0  0  0  0  0  0  0  0  0  0  0
  146.9429  142.5683  154.9028 N   0  3  1  0  0  0  0  0  0  0  0  0
  145.6792  143.1579  154.3864 C   0  0  0  0  0  0  0  0  0  0  0  0
  145.0337  144.0940  155.4263 C   0  0  0  0  0  0  0  0  0  0  0  0
  144.8008  143.4183  156.7945 C   0  0  1  0  0  0  0  0  0  0  0  0
  143.5863  142.4707  156.7933 C   0  0  0  0  0  0  0  0  0  0  0  0
  143.8118  141.1964  157.1227 N   0  0  0  0  0  0  0  0  0  0  0  0
  142.4622  142.8727  156.5011 O   0  0  0  0  0  0  0  0  0  0  0  0
  146.1011  142.7227  157.2507 C   0  0  0  0  0  0  0  0  0  0  0  0
  146.7226  141.8207  156.1668 C   0  0  0  0  0  0  0  0  0  0  0  0
  151.1502  141.8525  157.5017 C   0  0  0  0  0  0  0  0  0  0  0  0
  151.1772  143.1157  158.1188 C   0  0  0  0  0  0  0  0  0  0  0  0
  151.8740  143.2824  159.3338 C   0  0  0  0  0  0  0  0  0  0  0  0
  151.8977  144.6500  159.9930 C   0  0  0  0  0  0  0  0  0  0  0  0
  153.7399  141.3854  161.5462 H   0  0  0  0  0  0  0  0  0  0  0  0
  152.6303  142.6696  162.0209 H   0  0  0  0  0  0  0  0  0  0  0  0
  154.1040  143.0563  161.1200 H   0  0  0  0  0  0  0  0  0  0  0  0
  153.0126  140.0706  159.7395 H   0  0  0  0  0  0  0  0  0  0  0  0
  150.5830  139.4167  155.4932 H   0  0  0  0  0  0  0  0  0  0  0  0
  149.0769  142.7468  155.9099 H   0  0  0  0  0  0  0  0  0  0  0  0
  150.4156  142.7202  154.7849 H   0  0  0  0  0  0  0  0  0  0  0  0
  148.7444  140.2226  155.0000 H   0  0  0  0  0  0  0  0  0  0  0  0
  149.4020  140.0878  152.8785 H   0  0  0  0  0  0  0  0  0  0  0  0
  147.8664  142.3880  153.0236 H   0  0  0  0  0  0  0  0  0  0  0  0
  147.0252  140.9495  153.5306 H   0  0  0  0  0  0  0  0  0  0  0  0
  145.8737  143.7296  153.4799 H   0  0  0  0  0  0  0  0  0  0  0  0
  144.9909  142.3620  154.1006 H   0  0  0  0  0  0  0  0  0  0  0  0
  145.6796  144.9618  155.5674 H   0  0  0  0  0  0  0  0  0  0  0  0
  144.0943  144.4855  155.0336 H   0  0  0  0  0  0  0  0  0  0  0  0
  144.5835  144.2084  157.5158 H   0  0  0  0  0  0  0  0  0  0  0  0
  143.0501  140.5336  157.1378 H   0  0  0  0  0  0  0  0  0  0  0  0
  144.7480  140.8981  157.3570 H   0  0  0  0  0  0  0  0  0  0  0  0
  146.8275  143.4861  157.5328 H   0  0  0  0  0  0  0  0  0  0  0  0
  145.9203  142.1384  158.1543 H   0  0  0  0  0  0  0  0  0  0  0  0
  146.0971  140.9487  155.9744 H   0  0  0  0  0  0  0  0  0  0  0  0
  147.6764  141.4404  156.5347 H   0  0  0  0  0  0  0  0  0  0  0  0
  150.6659  143.9499  157.6621 H   0  0  0  0  0  0  0  0  0  0  0  0
  151.3431  145.3840  159.4076 H   0  0  0  0  0  0  0  0  0  0  0  0
  152.9225  145.0081  160.0937 H   0  0  0  0  0  0  0  0  0  0  0  0
  151.4475  144.6041  160.9849 H   0  0  0  0  0  0  0  0  0  0  0  0
  147.5552  143.3376  155.1352 H   0  0  0  0  0  0  0  0  0  0  0  0
  1  2  1  0  0  0  0
  1 25  1  0  0  0  0
  1 26  1  0  0  0  0
  1 27  1  0  0  0  0
  2 23  1  0  0  0  0
  2  3  2  0  0  0  0
  3  4  1  0  0  0  0
  3 28  1  0  0  0  0
  4 21  2  0  0  0  0
  4  5  1  0  0  0  0
  5  6  2  0  0  0  0
  6  7  1  0  0  0  0
  6 29  1  0  0  0  0
  7  8  1  0  0  0  0
  7 21  1  0  0  0  0
  8  9  1  0  0  0  0
  8 30  1  0  0  0  0
  8 31  1  0  0  0  0
  9 10  1  0  0  0  0
  9 11  1  0  0  0  0
  9 32  1  0  0  0  0
 10 33  1  0  0  0  0
 11 12  1  0  0  0  0
 11 34  1  0  0  0  0
 11 35  1  0  0  0  0
 12 20  1  0  0  0  0
 12 13  1  0  0  0  0
 12 51  1  0  0  0  0
 13 14  1  0  0  0  0
 13 36  1  0  0  0  0
 13 37  1  0  0  0  0
 14 15  1  0  0  0  0
 14 38  1  0  0  0  0
 14 39  1  0  0  0  0
 15 16  1  0  0  0  0
 15 19  1  0  0  0  0
 15 40  1  0  0  0  0
 16 17  1  0  0  0  0
 16 18  2  0  0  0  0
 17 41  1  0  0  0  0
 17 42  1  0  0  0  0
 19 20  1  0  0  0  0
 19 43  1  0  0  0  0
 19 44  1  0  0  0  0
 20 45  1  0  0  0  0
 20 46  1  0  0  0  0
 21 22  1  0  0  0  0
 22 23  2  0  0  0  0
 22 47  1  0  0  0  0
 23 24  1  0  0  0  0
 24 48  1  0  0  0  0
 24 49  1  0  0  0  0
 24 50  1  0  0  0  0
M  CHG  1  12   1
M  END
> <s_m_source_file>
AV-unprocessed.smi

> <i_m_source_file_index>
1695

> <i_lp_mmshare_version>
43012

> <i_f3d_flags>
0

> <s_epik_input>
W0NIM11jKFtjSF0xKWMoW0NIM10pW2NIXWMoYzEyKW4oW2NIXW4yKVtDSDJdW0NASF0oW09IXSlbQ0gyXU4zW0NIMl1bQ0gyXVtDSF0oQyg9TylbTkgyXSlbQ0gyXVtDSDJdMw==

> <s_epik_cmdline>
J2VwaWtfcHl0aG9uJywgJy1waCcsICc3LjAnLCAnLXRuJywgJzgnLCAnLW1hJywgJzIwMCcsICctbWV0YWxfYmluZGluZycsICctaW1hZScsICc8aW5maWxlLm1hZT4nLCAnLW9tYWUnLCAnPG91dGZpbGUubWFlPic=

> <r_epik_Ionization_Penalty>
0.113899

> <r_epik_Ionization_Penalty_Charging>
0.0258844

> <r_epik_Ionization_Penalty_Neutral>
0.0880147

> <r_epik_State_Penalty>
0.0974403

> <r_epik_Charging_Adjusted_Penalty>
0.123325

> <i_epik_Tot_Q>
1

> <i_epik_Tot_abs_Q>
1

> <r_epik_Metal_State_Penalty>
0.0851148

> <b_epik_Metal_Only>
0

> <s_lp_Force_Field>
OPLS_2005

> <r_lp_Energy>
17.7393

> <b_lp_Chiralities_Consistent>
1

> <s_lp_Variant>
AV-unprocessed.smi:1695-1

> <Gold.Version>
5.8.1

> <Gold.Id.Protein>
6NUR|6NUR_protein|mol2

> <Gold.PLP.Fitness>
56.1069

> <Gold.PLP.PLP>
-46.4676

> <Gold.PLP.part.hbond>
-2.8284

> <Gold.PLP.part.metal>
0.0000

> <Gold.PLP.part.buried>
-3.1420

> <Gold.PLP.part.nonpolar>
-39.6322

> <Gold.PLP.part.repulsive>
0.1192

> <Gold.PLP.ligand.clash>
0.0000

> <Gold.PLP.ligand.torsion>
0.7320

> <Gold.PLP.Chemscore.Hbond>
3.6560

> <Gold.PLP.Chemscore.CHOScore>
0.0000

> <Gold.PLP.Chemscore.Metal>
0.0000

> <Gold.Chemscore.Hbonds>
donor molecule, donor type, donor heavy atom, donor atom, acceptor molecule, acceptor atom, score
      L1  H    10    33       P1  7957  0.37
      L1  H    12    51       P1  8028  1.90
      P1  H  7989  7998       L1    10  0.29
      P1  H  8011  8017       L1    10  1.00

> <Gold.PLP.Chemscore.Internal.Correction>
0.1353

> <Gold.Rescore>
     Score         DG    S(hbond)    S(metal)    S(lipo)     H(rot)  DE(clash)    DE(int)     intcor
     17.06     -18.66       1.84        0.00     122.35       2.85       0.85       0.75       ----

> <Gold.Chemscore.Fitness>
17.0572

> <Gold.Chemscore.DG>
-18.6639

> <Gold.Chemscore.ZeroCoef>
-5.4800

> <Gold.Chemscore.Hbond>
1.8430

> <Gold.Chemscore.Metal>
0.0000

> <Gold.Chemscore.Lipo>
122.3511

> <Gold.Chemscore.Internal_Hbond>
0.0000

> <Gold.Chemscore.DEClash>
0.8542

> <Gold.Chemscore.DEInternal>
0.7526

> <Gold.Chemscore.Rot>
2.8464

> <Gold.Chemscore.Internal.Correction>
   9.000000E+99

> <Gold.Chemscore.Hbonds>
donor molecule, donor type, donor heavy atom, donor atom, acceptor molecule, acceptor atom, score
      L1  H    10    33       P1  7957  0.36
      L1  H    12    51       P1  8028  0.21
      P1  H  7989  7998       L1    10  0.29
      P1  H  8011  8017       L1    10  0.25

> <Gold.Chemscore.Hbond.Weighted>
-6.1556

> <Gold.Chemscore.Metal.Weighted>
-0.0000

> <Gold.Chemscore.Lipo.Weighted>
-14.3151

> <Gold.Chemscore.Internal_Hbond.Weighted>
0.0000

> <Gold.Chemscore.DEClash.Weighted>
0.8542

> <Gold.Chemscore.DEInternal.Weighted>
0.7526

> <Gold.Chemscore.Rot.Weighted>
7.2867

> <Gold.Chemscore.Internal.Correction.Weighted>
   9.000000E+99

> <Gold.Protein.RotatedTorsions>
[ 6907 6896 6895 6894 ] final   39.09 input  -60.11 | X-H torsion
[ 7974 7965 7964 7962 ] final  -21.91 input  175.53 | X-H torsion
[ 8008 7997 7996 7995 ] final -145.36 input   59.86 | X-H torsion
[ 10167 10162 10161 10158 ] final  120.59 input  -65.29 | X-H torsion
[ 10718 10713 10712 10709 ] final  112.86 input   66.30 | X-H torsion
[ 10763 10752 10751 10750 ] final -162.30 input  -60.55 | X-H torsion
[ 11005 11000 10999 10996 ] final  140.48 input  -57.11 | X-H torsion

> <Gold.Protein.ActiveResidues>
 VAL166  LYS551  ARG553  GLY616  TRP617  ASP618  TYR619  PRO620  LYS621  CYS622 
 ASP623  PHE694  ASN695  SER759  ASP760  ASP761  ALA762  ILE779  LEU786  VAL792 
 PHE793  MET794  SER795  GLU796  ALA797  LYS798  CYS799  TRP800  GLU811  SER814 

> <Gold.Protein.RotatedAtoms>
  152.1650  134.8881  160.0538 H   0  0  0  0  0  0  0  0  0  0  0  0  # atno 6907 bound_to 6896
  151.9862  133.3770  159.4135 H   0  0  0  0  0  0  0  0  0  0  0  0  # atno 6908 bound_to 6896
  150.6893  134.3908  159.5119 H   0  0  0  0  0  0  0  0  0  0  0  0  # atno 6909 bound_to 6896
  146.1706  140.4406  142.8534 H   0  0  0  0  0  0  0  0  0  0  0  0  # atno 7974 bound_to 7965
  155.5419  140.0609  157.2868 H   0  0  0  0  0  0  0  0  0  0  0  0  # atno 8008 bound_to 7997
  154.4449  140.1917  156.0644 H   0  0  0  0  0  0  0  0  0  0  0  0  # atno 8009 bound_to 7997
  156.0578  140.3276  155.7430 H   0  0  0  0  0  0  0  0  0  0  0  0  # atno 8010 bound_to 7997
  139.5973  144.7045  151.3146 H   0  0  0  0  0  0  0  0  0  0  0  0  # atno 10167 bound_to 10162
  157.6370  131.0974  150.6956 H   0  0  0  0  0  0  0  0  0  0  0  0  # atno 10718 bound_to 10713
  154.7227  135.3029  154.9022 H   0  0  0  0  0  0  0  0  0  0  0  0  # atno 10763 bound_to 10752
  153.9889  135.6721  153.4757 H   0  0  0  0  0  0  0  0  0  0  0  0  # atno 10764 bound_to 10752
  153.0847  135.4990  154.8492 H   0  0  0  0  0  0  0  0  0  0  0  0  # atno 10765 bound_to 10752
  140.0331  134.9342  157.0700 H   0  0  0  0  0  0  0  0  0  0  0  0  # atno 11005 bound_to 11000
  144.8157  140.6464  143.6386 LP  0  0  0  0  0  0  0  0  0  0  0  0  # atno 17320 bound_to 7965
  145.4350  139.1543  143.4001 LP  0  0  0  0  0  0  0  0  0  0  0  0  # atno 17321 bound_to 7965
  140.7222  143.7105  150.7773 LP  0  0  0  0  0  0  0  0  0  0  0  0  # atno 17342 bound_to 10162
  140.0674  143.5095  152.2597 LP  0  0  0  0  0  0  0  0  0  0  0  0  # atno 17343 bound_to 10162
  156.7286  130.4703  149.5505 LP  0  0  0  0  0  0  0  0  0  0  0  0  # atno 17370 bound_to 10713
  156.1617  130.6378  151.0727 LP  0  0  0  0  0  0  0  0  0  0  0  0  # atno 17371 bound_to 10713
  140.4193  134.1898  155.7164 LP  0  0  0  0  0  0  0  0  0  0  0  0  # atno 17394 bound_to 11000
  141.1842  133.8349  157.1148 LP  0  0  0  0  0  0  0  0  0  0  0  0  # atno 17395 bound_to 11000

$$$$
