AV-unprocessed.smi:283|AV-procd|sdf|2147|dock4
  -GOLD-   2262021483D 1   1.00000     0.00000
 Structure written by MMmdl.
 48 51  0  0  0  0  0  0  0  0  1 V2000
  148.0087  136.5305  162.8653 C   0  0  0  0  0  0  0  0  0  0  0  0
  147.3151  135.9027  161.6491 C   0  0  2  0  0  0  0  0  0  0  0  0
  147.2467  136.8762  160.5595 N   0  0  0  0  0  0  0  0  0  0  0  0
  147.8156  136.5990  159.3656 C   0  0  0  0  0  0  0  0  0  0  0  0
  148.1761  135.3088  159.1668 N   0  0  0  0  0  0  0  0  0  0  0  0
  148.7895  134.9524  158.0349 C   0  0  0  0  0  0  0  0  0  0  0  0
  149.1371  135.7171  156.9984 N   0  0  0  0  0  0  0  0  0  0  0  0
  148.7661  137.0168  157.1858 C   0  0  0  0  0  0  0  0  0  0  0  0
  148.0830  137.5332  158.3230 C   0  0  0  0  0  0  0  0  0  0  0  0
  147.8256  138.8843  158.1288 N   0  0  0  0  0  0  0  0  0  0  0  0
  148.3456  139.1481  156.9625 C   0  0  0  0  0  0  0  0  0  0  0  0
  148.9859  138.0927  156.3492 N   0  0  0  0  0  0  0  0  0  0  0  0
  149.6867  138.0625  155.0227 C   0  0  1  0  0  0  0  0  0  0  0  0
  149.9368  139.3819  154.6285 O   0  0  0  0  0  0  0  0  0  0  0  0
  151.2910  139.7396  154.8913 C   0  0  1  0  0  0  0  0  0  0  0  0
  151.4246  140.3242  156.3169 C   0  0  0  0  0  0  0  0  0  0  0  0
  150.7721  141.5734  156.4118 O   0  0  0  0  0  0  0  0  0  0  0  0
  152.0288  138.4206  154.6249 C   0  0  1  0  0  0  0  0  0  0  0  0
  153.2752  138.3392  155.2884 O   0  0  0  0  0  0  0  0  0  0  0  0
  151.0570  137.3568  155.1239 C   0  0  2  0  0  0  0  0  0  0  0  0
  151.1218  136.2177  154.2888 O   0  0  0  0  0  0  0  0  0  0  0  0
  145.9665  135.2992  162.0569 C   0  0  0  0  0  0  0  0  0  0  0  0
  144.9056  136.1485  162.4496 C   0  0  0  0  0  0  0  0  0  0  0  0
  143.6525  135.6162  162.8057 C   0  0  0  0  0  0  0  0  0  0  0  0
  143.4486  134.2250  162.7849 C   0  0  0  0  0  0  0  0  0  0  0  0
  144.5020  133.3688  162.4160 C   0  0  0  0  0  0  0  0  0  0  0  0
  145.7590  133.8962  162.0575 C   0  0  0  0  0  0  0  0  0  0  0  0
  147.0189  132.7927  161.6273 Cl  0  0  0  0  0  0  0  0  0  0  0  0
  148.9728  137.5797  154.3540 H   0  0  0  0  0  0  0  0  0  0  0  0
  151.5871  140.5006  154.1678 H   0  0  0  0  0  0  0  0  0  0  0  0
  152.1854  138.3213  153.5492 H   0  0  0  0  0  0  0  0  0  0  0  0
  151.2732  137.0881  156.1591 H   0  0  0  0  0  0  0  0  0  0  0  0
  148.1482  135.7951  163.6583 H   0  0  0  0  0  0  0  0  0  0  0  0
  147.4245  137.3550  163.2752 H   0  0  0  0  0  0  0  0  0  0  0  0
  148.9932  136.9179  162.6007 H   0  0  0  0  0  0  0  0  0  0  0  0
  147.9676  135.1071  161.2945 H   0  0  0  0  0  0  0  0  0  0  0  0
  146.4910  137.5405  160.6410 H   0  0  0  0  0  0  0  0  0  0  0  0
  149.0499  133.9075  157.9527 H   0  0  0  0  0  0  0  0  0  0  0  0
  148.2850  140.1347  156.5274 H   0  0  0  0  0  0  0  0  0  0  0  0
  150.9433  139.6620  157.0360 H   0  0  0  0  0  0  0  0  0  0  0  0
  152.4673  140.4264  156.6195 H   0  0  0  0  0  0  0  0  0  0  0  0
  151.3162  142.1584  156.9170 H   0  0  0  0  0  0  0  0  0  0  0  0
  153.6848  137.5193  155.0575 H   0  0  0  0  0  0  0  0  0  0  0  0
  150.8518  136.4667  153.4182 H   0  0  0  0  0  0  0  0  0  0  0  0
  145.0450  137.2194  162.4709 H   0  0  0  0  0  0  0  0  0  0  0  0
  142.8477  136.2762  163.0940 H   0  0  0  0  0  0  0  0  0  0  0  0
  142.4874  133.8148  163.0571 H   0  0  0  0  0  0  0  0  0  0  0  0
  144.3445  132.3002  162.4094 H   0  0  0  0  0  0  0  0  0  0  0  0
  1  2  1  0  0  0  0
  1 33  1  0  0  0  0
  1 34  1  0  0  0  0
  1 35  1  0  0  0  0
  2  3  1  0  0  0  0
  2 22  1  0  0  0  0
  2 36  1  0  0  0  0
  3  4  1  0  0  0  0
  3 37  1  0  0  0  0
  4  9  1  0  0  0  0
  4  5  2  0  0  0  0
  5  6  1  0  0  0  0
  6  7  2  0  0  0  0
  6 38  1  0  0  0  0
  7  8  1  0  0  0  0
  8 12  1  0  0  0  0
  8  9  2  0  0  0  0
  9 10  1  0  0  0  0
 10 11  2  0  0  0  0
 11 12  1  0  0  0  0
 11 39  1  0  0  0  0
 12 13  1  0  0  0  0
 13 29  1  0  0  0  0
 13 20  1  0  0  0  0
 13 14  1  0  0  0  0
 14 15  1  0  0  0  0
 15 30  1  0  0  0  0
 15 16  1  0  0  0  0
 15 18  1  0  0  0  0
 16 17  1  0  0  0  0
 16 40  1  0  0  0  0
 16 41  1  0  0  0  0
 17 42  1  0  0  0  0
 18 31  1  0  0  0  0
 18 19  1  0  0  0  0
 18 20  1  0  0  0  0
 19 43  1  0  0  0  0
 20 32  1  0  0  0  0
 20 21  1  0  0  0  0
 21 44  1  0  0  0  0
 22 27  1  0  0  0  0
 22 23  2  0  0  0  0
 23 24  1  0  0  0  0
 23 45  1  0  0  0  0
 24 25  2  0  0  0  0
 24 46  1  0  0  0  0
 25 26  1  0  0  0  0
 25 47  1  0  0  0  0
 26 27  2  0  0  0  0
 26 48  1  0  0  0  0
 27 28  1  0  0  0  0
M  END
> <s_m_source_file>
AV-unprocessed.smi

> <i_m_source_file_index>
283

> <i_lp_mmshare_version>
43012

> <i_f3d_flags>
0

> <s_epik_input>
Q2xjMVtjSF1bY0hdW2NIXVtjSF1jMVtDQEhdKFtDSDNdKVtOSF1jKG5bY0hdbjIpYyhjMjMpbltjSF1uM1tDQEBIXTRPW0NASF0oW0NIMl1bT0hdKVtDQEBIXShbT0hdKVtDQEhdNFtPSF0=

> <s_epik_cmdline>
J2VwaWtfcHl0aG9uJywgJy1waCcsICc3LjAnLCAnLXRuJywgJzgnLCAnLW1hJywgJzIwMCcsICctbWV0YWxfYmluZGluZycsICctaW1hZScsICc8aW5maWxlLm1hZT4nLCAnLW9tYWUnLCAnPG91dGZpbGUubWFlPic=

> <r_lp_tautomer_probability>
1

> <r_epik_Ionization_Penalty>
0.000266407

> <r_epik_Ionization_Penalty_Charging>
0

> <r_epik_Ionization_Penalty_Neutral>
0.000266407

> <r_epik_State_Penalty>
-0

> <r_epik_Charging_Adjusted_Penalty>
0

> <i_epik_Tot_Q>
0

> <i_epik_Tot_abs_Q>
0

> <r_epik_Metal_State_Penalty>
-0

> <b_epik_Metal_Only>
0

> <s_epik_Chemistry_Notes>
This compound contains an acetal/aminal-like group ( X-CH(R)-Y where X, Y are N, S, or O) that may be acid/base labile, releasing an aldehyde.

> <s_lp_Force_Field>
OPLS_2005

> <r_lp_Energy>
42.7281

> <b_lp_Chiralities_Consistent>
1

> <s_lp_Variant>
AV-unprocessed.smi:283-23

> <Gold.Version>
5.8.1

> <Gold.Id.Protein>
6NUR|6NUR_protein|mol2

> <Gold.PLP.Fitness>
50.0044

> <Gold.PLP.PLP>
-42.1534

> <Gold.PLP.part.hbond>
-3.4865

> <Gold.PLP.part.metal>
0.0000

> <Gold.PLP.part.buried>
-1.7559

> <Gold.PLP.part.nonpolar>
-37.2905

> <Gold.PLP.part.repulsive>
1.1024

> <Gold.PLP.ligand.clash>
0.0000

> <Gold.PLP.ligand.torsion>
0.4632

> <Gold.PLP.Chemscore.Hbond>
2.8817

> <Gold.PLP.Chemscore.CHOScore>
0.0000

> <Gold.PLP.Chemscore.Metal>
0.0000

> <Gold.Chemscore.Hbonds>
donor molecule, donor type, donor heavy atom, donor atom, acceptor molecule, acceptor atom, score
      L1  H    21    44       P1  7949  0.65
      P1  H  7997  8010       L1    19  0.40
      P1  H 10752 10765       L1    21  1.00

> <Gold.PLP.Chemscore.Internal.Correction>
0.1323

> <Gold.Rescore>
     Score         DG    S(hbond)    S(metal)    S(lipo)     H(rot)  DE(clash)    DE(int)     intcor
     10.12     -12.76       2.02        0.00      94.13       4.10       1.42       1.23       ----

> <Gold.Chemscore.Fitness>
10.1154

> <Gold.Chemscore.DG>
-12.7613

> <Gold.Chemscore.ZeroCoef>
-5.4800

> <Gold.Chemscore.Hbond>
2.0227

> <Gold.Chemscore.Metal>
0.0000

> <Gold.Chemscore.Lipo>
94.1329

> <Gold.Chemscore.Internal_Hbond>
0.0000

> <Gold.Chemscore.DEClash>
1.4199

> <Gold.Chemscore.DEInternal>
1.2260

> <Gold.Chemscore.Rot>
4.0968

> <Gold.Chemscore.Internal.Correction>
   9.000000E+99

> <Gold.Chemscore.Hbonds>
donor molecule, donor type, donor heavy atom, donor atom, acceptor molecule, acceptor atom, score
      L1  H    21    44       P1  7949  0.09
      P1  H  7997  8010       L1    19  0.38
      P1  H 10752 10765       L1    21  0.30

> <Gold.Chemscore.Hbond.Weighted>
-6.7557

> <Gold.Chemscore.Metal.Weighted>
-0.0000

> <Gold.Chemscore.Lipo.Weighted>
-11.0135

> <Gold.Chemscore.Internal_Hbond.Weighted>
0.0000

> <Gold.Chemscore.DEClash.Weighted>
1.4199

> <Gold.Chemscore.DEInternal.Weighted>
1.2260

> <Gold.Chemscore.Rot.Weighted>
10.4879

> <Gold.Chemscore.Internal.Correction.Weighted>
   9.000000E+99

> <Gold.Protein.RotatedTorsions>
[ 6907 6896 6895 6894 ] final  110.69 input  -60.11 | X-H torsion
[ 7974 7965 7964 7962 ] final -144.93 input  175.53 | X-H torsion
[ 8008 7997 7996 7995 ] final   92.64 input   59.86 | X-H torsion
[ 10167 10162 10161 10158 ] final  -45.04 input  -65.29 | X-H torsion
[ 10718 10713 10712 10709 ] final  -35.52 input   66.30 | X-H torsion
[ 10763 10752 10751 10750 ] final  146.70 input  -60.55 | X-H torsion
[ 11005 11000 10999 10996 ] final  -57.33 input  -57.11 | X-H torsion

> <Gold.Protein.ActiveResidues>
 VAL166  LYS551  ARG553  GLY616  TRP617  ASP618  TYR619  PRO620  LYS621  CYS622 
 ASP623  PHE694  ASN695  SER759  ASP760  ASP761  ALA762  ILE779  LEU786  VAL792 
 PHE793  MET794  SER795  GLU796  ALA797  LYS798  CYS799  TRP800  GLU811  SER814 

> <Gold.Protein.RotatedAtoms>
  152.5007  133.8764  159.7324 H   0  0  0  0  0  0  0  0  0  0  0  0  # atno 6907 bound_to 6896
  150.9238  133.6840  159.2833 H   0  0  0  0  0  0  0  0  0  0  0  0  # atno 6908 bound_to 6896
  151.4208  135.1002  159.9666 H   0  0  0  0  0  0  0  0  0  0  0  0  # atno 6909 bound_to 6896
  144.8262  140.5647  143.5545 H   0  0  0  0  0  0  0  0  0  0  0  0  # atno 7974 bound_to 7965
  156.0376  140.3323  155.7208 H   0  0  0  0  0  0  0  0  0  0  0  0  # atno 8008 bound_to 7997
  155.5792  140.0635  157.2805 H   0  0  0  0  0  0  0  0  0  0  0  0  # atno 8009 bound_to 7997
  154.4379  140.1847  156.0947 H   0  0  0  0  0  0  0  0  0  0  0  0  # atno 8010 bound_to 7997
  140.6874  143.2899  151.3581 H   0  0  0  0  0  0  0  0  0  0  0  0  # atno 10167 bound_to 10162
  156.3376  130.4289  149.7816 H   0  0  0  0  0  0  0  0  0  0  0  0  # atno 10718 bound_to 10713
  154.0261  135.2901  155.3374 H   0  0  0  0  0  0  0  0  0  0  0  0  # atno 10763 bound_to 10752
  154.7016  135.5186  153.8538 H   0  0  0  0  0  0  0  0  0  0  0  0  # atno 10764 bound_to 10752
  153.0660  135.6631  154.0479 H   0  0  0  0  0  0  0  0  0  0  0  0  # atno 10765 bound_to 10752
  141.1160  133.6610  156.4753 H   0  0  0  0  0  0  0  0  0  0  0  0  # atno 11005 bound_to 11000
  145.4994  139.1484  143.3665 LP  0  0  0  0  0  0  0  0  0  0  0  0  # atno 17320 bound_to 7965
  146.2567  140.5134  142.8870 LP  0  0  0  0  0  0  0  0  0  0  0  0  # atno 17321 bound_to 7965
  139.6244  144.0843  152.2421 LP  0  0  0  0  0  0  0  0  0  0  0  0  # atno 17342 bound_to 10162
  140.0298  144.6089  150.7497 LP  0  0  0  0  0  0  0  0  0  0  0  0  # atno 17343 bound_to 10162
  156.5064  130.8152  151.3152 LP  0  0  0  0  0  0  0  0  0  0  0  0  # atno 17370 bound_to 10713
  157.7441  130.9928  150.2649 LP  0  0  0  0  0  0  0  0  0  0  0  0  # atno 17371 bound_to 10713
  140.4645  134.6811  157.5100 LP  0  0  0  0  0  0  0  0  0  0  0  0  # atno 17394 bound_to 11000
  140.0082  134.6730  155.9421 LP  0  0  0  0  0  0  0  0  0  0  0  0  # atno 17395 bound_to 11000

$$$$
