AV-unprocessed.smi:990|AV-procd|sdf|4326|dock4
  -GOLD-   22720 2233D 1   1.00000     0.00000
 Structure written by MMmdl.
 44 45  0  0  0  0  0  0  0  0  1 V2000
  144.8625  134.2149  151.8734 C   0  0  0  0  0  0  0  0  0  0  0  0
  145.8936  134.2380  152.7313 C   0  0  0  0  0  0  0  0  0  0  0  0
  145.9961  135.1673  153.9249 C   0  0  0  0  0  0  0  0  0  0  0  0
  147.2184  135.9610  153.8803 N   0  0  0  0  0  0  0  0  0  0  0  0
  147.5177  136.9679  154.7137 C   0  0  0  0  0  0  0  0  0  0  0  0
  146.7704  137.3459  155.6154 O   0  0  0  0  0  0  0  0  0  0  0  0
  148.7174  137.4985  154.4191 N   0  0  0  0  0  0  0  0  0  0  0  0
  149.4105  138.5605  155.0626 C   0  0  0  0  0  0  0  0  0  0  0  0
  149.0740  138.8473  156.4000 C   0  0  0  0  0  0  0  0  0  0  0  0
  149.7273  139.9016  157.0655 C   0  0  0  0  0  0  0  0  0  0  0  0
  150.7037  140.6533  156.3722 C   0  0  0  0  0  0  0  0  0  0  0  0
  151.3684  141.7149  157.0216 N   0  0  0  0  0  0  0  0  0  0  0  0
  151.7482  141.4501  158.4072 C   0  0  0  0  0  0  0  0  0  0  0  0
  152.7675  142.4890  158.9110 C   0  0  0  0  0  0  0  0  0  0  0  0
  152.2891  143.8668  158.6865 N   0  0  0  0  0  0  0  0  0  0  0  0
  151.5689  144.7629  159.9917 S   0  0  0  0  0  0  0  0  0  0  0  0
  149.7630  144.4710  159.7989 C   0  0  0  0  0  0  0  0  0  0  0  0
  152.0019  144.1429  161.2533 O   0  0  0  0  0  0  0  0  0  0  0  0
  151.8308  146.1905  159.7530 O   0  0  0  0  0  0  0  0  0  0  0  0
  151.8703  144.1233  157.2951 C   0  0  0  0  0  0  0  0  0  0  0  0
  150.8579  143.0688  156.8111 C   0  0  0  0  0  0  0  0  0  0  0  0
  151.0243  140.3826  155.0835 N   0  0  0  0  0  0  0  0  0  0  0  0
  150.3947  139.3715  154.4481 C   0  0  0  0  0  0  0  0  0  0  0  0
  144.0213  134.8828  151.9877 H   0  0  0  0  0  0  0  0  0  0  0  0
  144.8477  133.5245  151.0426 H   0  0  0  0  0  0  0  0  0  0  0  0
  146.7146  133.5507  152.5854 H   0  0  0  0  0  0  0  0  0  0  0  0
  145.1405  135.8432  153.9468 H   0  0  0  0  0  0  0  0  0  0  0  0
  145.9565  134.5789  154.8431 H   0  0  0  0  0  0  0  0  0  0  0  0
  147.8890  135.7201  153.1651 H   0  0  0  0  0  0  0  0  0  0  0  0
  149.1801  137.1141  153.6085 H   0  0  0  0  0  0  0  0  0  0  0  0
  148.3261  138.2638  156.9167 H   0  0  0  0  0  0  0  0  0  0  0  0
  149.4844  140.1135  158.0962 H   0  0  0  0  0  0  0  0  0  0  0  0
  150.8507  141.4638  159.0243 H   0  0  0  0  0  0  0  0  0  0  0  0
  152.1802  140.4560  158.5167 H   0  0  0  0  0  0  0  0  0  0  0  0
  152.9853  142.3287  159.9665 H   0  0  0  0  0  0  0  0  0  0  0  0
  153.7107  142.3609  158.3785 H   0  0  0  0  0  0  0  0  0  0  0  0
  149.2313  145.0034  160.5872 H   0  0  0  0  0  0  0  0  0  0  0  0
  149.5470  143.4075  159.8841 H   0  0  0  0  0  0  0  0  0  0  0  0
  149.4272  144.8445  158.8332 H   0  0  0  0  0  0  0  0  0  0  0  0
  151.4521  145.1250  157.2008 H   0  0  0  0  0  0  0  0  0  0  0  0
  152.7558  144.0967  156.6591 H   0  0  0  0  0  0  0  0  0  0  0  0
  150.6608  143.2302  155.7504 H   0  0  0  0  0  0  0  0  0  0  0  0
  149.9070  143.1816  157.3308 H   0  0  0  0  0  0  0  0  0  0  0  0
  150.6914  139.2409  153.4200 H   0  0  0  0  0  0  0  0  0  0  0  0
  1  2  2  0  0  0  0
  1 24  1  0  0  0  0
  1 25  1  0  0  0  0
  2  3  1  0  0  0  0
  2 26  1  0  0  0  0
  3  4  1  0  0  0  0
  3 27  1  0  0  0  0
  3 28  1  0  0  0  0
  4  5  1  0  0  0  0
  4 29  1  0  0  0  0
  5  6  2  0  0  0  0
  5  7  1  0  0  0  0
  7  8  1  0  0  0  0
  7 30  1  0  0  0  0
  8 23  1  0  0  0  0
  8  9  2  0  0  0  0
  9 10  1  0  0  0  0
  9 31  1  0  0  0  0
 10 11  2  0  0  0  0
 10 32  1  0  0  0  0
 11 12  1  0  0  0  0
 11 22  1  0  0  0  0
 12 21  1  0  0  0  0
 12 13  1  0  0  0  0
 13 14  1  0  0  0  0
 13 33  1  0  0  0  0
 13 34  1  0  0  0  0
 14 15  1  0  0  0  0
 14 35  1  0  0  0  0
 14 36  1  0  0  0  0
 15 16  1  0  0  0  0
 15 20  1  0  0  0  0
 16 17  1  0  0  0  0
 16 18  2  0  0  0  0
 16 19  2  0  0  0  0
 17 37  1  0  0  0  0
 17 38  1  0  0  0  0
 17 39  1  0  0  0  0
 20 21  1  0  0  0  0
 20 40  1  0  0  0  0
 20 41  1  0  0  0  0
 21 42  1  0  0  0  0
 21 43  1  0  0  0  0
 22 23  2  0  0  0  0
 23 44  1  0  0  0  0
M  END
> <s_m_source_file>
AV-unprocessed.smi

> <i_m_source_file_index>
990

> <i_lp_mmshare_version>
43012

> <i_f3d_flags>
0

> <s_epik_input>
W0NIMl09W0NIXVtDSDJdW05IXUMoPU8pW05IXWMxW2NIXVtjSF1jKG5bY0hdMSlOMltDSDJdW0NIMl1OKFMoPU8pKD1PKVtDSDNdKVtDSDJdW0NIMl0y

> <s_epik_cmdline>
J2VwaWtfcHl0aG9uJywgJy1waCcsICc3LjAnLCAnLXRuJywgJzgnLCAnLW1hJywgJzIwMCcsICctbWV0YWxfYmluZGluZycsICctaW1hZScsICc8aW5maWxlLm1hZT4nLCAnLW9tYWUnLCAnPG91dGZpbGUubWFlPic=

> <r_lp_tautomer_probability>
1

> <r_epik_Ionization_Penalty>
0.151655

> <r_epik_Ionization_Penalty_Charging>
0

> <r_epik_Ionization_Penalty_Neutral>
0.151655

> <r_epik_State_Penalty>
0.140906

> <r_epik_Charging_Adjusted_Penalty>
0.140906

> <i_epik_Tot_Q>
0

> <i_epik_Tot_abs_Q>
0

> <r_epik_Metal_State_Penalty>
0.111889

> <b_epik_Metal_Only>
0

> <s_lp_Force_Field>
OPLS_2005

> <r_lp_Energy>
17.3553

> <b_lp_Chiralities_Consistent>
1

> <s_lp_Variant>
AV-unprocessed.smi:990-1

> <Gold.Version>
5.8.1

> <Gold.Id.Protein>
6NUR|6NUR_protein|mol2

> <Gold.PLP.Fitness>
45.1495

> <Gold.PLP.PLP>
-36.4782

> <Gold.PLP.part.hbond>
-4.3657

> <Gold.PLP.part.metal>
0.0000

> <Gold.PLP.part.buried>
-1.8419

> <Gold.PLP.part.nonpolar>
-29.3667

> <Gold.PLP.part.repulsive>
0.4820

> <Gold.PLP.ligand.clash>
0.0000

> <Gold.PLP.ligand.torsion>
1.8001

> <Gold.PLP.Chemscore.Hbond>
2.3000

> <Gold.PLP.Chemscore.CHOScore>
1.0000

> <Gold.PLP.Chemscore.Metal>
0.0000

> <Gold.Chemscore.Hbonds>
donor molecule, donor type, donor heavy atom, donor atom, acceptor molecule, acceptor atom, score
      L1  H     4    29       P1  7948  1.00
      L1  H     7    30       P1  7948  0.94
      P1  H  7989  7998       L1    22  0.35
      L1  C    23    44       P1  7957  0.79

> <Gold.PLP.Chemscore.Internal.Correction>
2.3714

> <Gold.Rescore>
     Score         DG    S(hbond)    S(metal)    S(lipo)     H(rot)  DE(clash)    DE(int)     intcor
     14.49     -18.33       2.50        0.00      69.76       1.43       0.75       3.08       ----

> <Gold.Chemscore.Fitness>
14.4898

> <Gold.Chemscore.DG>
-18.3271

> <Gold.Chemscore.ZeroCoef>
-5.4800

> <Gold.Chemscore.Hbond>
2.4962

> <Gold.Chemscore.Metal>
0.0000

> <Gold.Chemscore.Lipo>
69.7643

> <Gold.Chemscore.Internal_Hbond>
0.0000

> <Gold.Chemscore.DEClash>
0.7543

> <Gold.Chemscore.DEInternal>
3.0830

> <Gold.Chemscore.Rot>
1.4268

> <Gold.Chemscore.Internal.Correction>
   9.000000E+99

> <Gold.Chemscore.Hbonds>
donor molecule, donor type, donor heavy atom, donor atom, acceptor molecule, acceptor atom, score
      L1  H     4    29       P1  7948  0.94
      L1  H     7    30       P1  7948  0.90
      P1  H  7989  7998       L1    22  0.01

> <Gold.Chemscore.Hbond.Weighted>
-8.3373

> <Gold.Chemscore.Metal.Weighted>
-0.0000

> <Gold.Chemscore.Lipo.Weighted>
-8.1624

> <Gold.Chemscore.Internal_Hbond.Weighted>
0.0000

> <Gold.Chemscore.DEClash.Weighted>
0.7543

> <Gold.Chemscore.DEInternal.Weighted>
3.0830

> <Gold.Chemscore.Rot.Weighted>
3.6526

> <Gold.Chemscore.Internal.Correction.Weighted>
   9.000000E+99

> <Gold.Protein.RotatedTorsions>
[ 6907 6896 6895 6894 ] final   33.34 input  -60.11 | X-H torsion
[ 7974 7965 7964 7962 ] final   96.31 input  175.53 | X-H torsion
[ 8008 7997 7996 7995 ] final -113.02 input   59.86 | X-H torsion
[ 10167 10162 10161 10158 ] final  -83.60 input  -65.29 | X-H torsion
[ 10718 10713 10712 10709 ] final  -18.52 input   66.30 | X-H torsion
[ 10763 10752 10751 10750 ] final  -31.36 input  -60.55 | X-H torsion
[ 11005 11000 10999 10996 ] final  115.96 input  -57.11 | X-H torsion

> <Gold.Protein.ActiveResidues>
 VAL166  LYS551  ARG553  GLY616  TRP617  ASP618  TYR619  PRO620  LYS621  CYS622 
 ASP623  PHE694  ASN695  SER759  ASP760  ASP761  ALA762  ILE779  LEU786  VAL792 
 PHE793  MET794  SER795  GLU796  ALA797  LYS798  CYS799  TRP800  GLU811  SER814 

> <Gold.Protein.RotatedAtoms>
  152.0871  134.9432  160.0572 H   0  0  0  0  0  0  0  0  0  0  0  0  # atno 6907 bound_to 6896
  152.0698  133.4096  159.4462 H   0  0  0  0  0  0  0  0  0  0  0  0  # atno 6908 bound_to 6896
  150.6836  134.3024  159.4755 H   0  0  0  0  0  0  0  0  0  0  0  0  # atno 6909 bound_to 6896
  145.4406  139.2301  143.3094 H   0  0  0  0  0  0  0  0  0  0  0  0  # atno 7974 bound_to 7965
  155.0142  140.0393  157.2411 H   0  0  0  0  0  0  0  0  0  0  0  0  # atno 8008 bound_to 7997
  154.7434  140.2753  155.6331 H   0  0  0  0  0  0  0  0  0  0  0  0  # atno 8009 bound_to 7997
  156.2869  140.2661  156.2167 H   0  0  0  0  0  0  0  0  0  0  0  0  # atno 8010 bound_to 7997
  140.4211  143.2584  151.8889 H   0  0  0  0  0  0  0  0  0  0  0  0  # atno 10167 bound_to 10162
  156.5584  130.4719  149.6418 H   0  0  0  0  0  0  0  0  0  0  0  0  # atno 10718 bound_to 10713
  153.7960  135.6894  153.4863 H   0  0  0  0  0  0  0  0  0  0  0  0  # atno 10763 bound_to 10752
  153.1719  135.4539  154.9912 H   0  0  0  0  0  0  0  0  0  0  0  0  # atno 10764 bound_to 10752
  154.8025  135.3343  154.7452 H   0  0  0  0  0  0  0  0  0  0  0  0  # atno 10765 bound_to 10752
  139.9026  134.9591  156.7124 H   0  0  0  0  0  0  0  0  0  0  0  0  # atno 11005 bound_to 11000
  146.2558  140.5154  142.8874 LP  0  0  0  0  0  0  0  0  0  0  0  0  # atno 17320 bound_to 7965
  144.8124  140.6409  143.6406 LP  0  0  0  0  0  0  0  0  0  0  0  0  # atno 17321 bound_to 7965
  139.4782  144.5436  151.8491 LP  0  0  0  0  0  0  0  0  0  0  0  0  # atno 17342 bound_to 10162
  140.4533  144.1825  150.5899 LP  0  0  0  0  0  0  0  0  0  0  0  0  # atno 17343 bound_to 10162
  156.2821  130.7076  151.1903 LP  0  0  0  0  0  0  0  0  0  0  0  0  # atno 17370 bound_to 10713
  157.7373  131.0553  150.5361 LP  0  0  0  0  0  0  0  0  0  0  0  0  # atno 17371 bound_to 10713
  140.7065  133.9261  155.8057 LP  0  0  0  0  0  0  0  0  0  0  0  0  # atno 17394 bound_to 11000
  141.0333  134.0726  157.3989 LP  0  0  0  0  0  0  0  0  0  0  0  0  # atno 17395 bound_to 11000

$$$$
