AV-unprocessed.smi:225|AV-procd|sdf|1723|dock9
  -GOLD-   2262020203D 1   1.00000     0.00000
 Structure written by MMmdl.
 56 59  0  0  0  0  0  0  0  0  1 V2000
  151.0473  139.7394  154.4108 O   0  0  0  0  0  0  0  0  0  0  0  0
  151.7463  139.8803  155.6280 C   0  0  0  0  0  0  0  0  0  0  0  0
  151.0363  140.9215  156.5099 C   0  0  0  0  0  0  0  0  0  0  0  0
  151.2548  140.6978  157.9420 N   0  0  0  0  0  0  0  0  0  0  0  0
  152.2947  141.4929  158.5968 C   0  0  0  0  0  0  0  0  0  0  0  0
  151.7567  142.7822  159.2531 C   0  0  0  0  0  0  0  0  0  0  0  0
  151.7613  143.9473  158.2435 C   0  0  0  0  0  0  0  0  0  0  0  0
  151.2246  145.2454  158.8693 C   0  0  0  0  0  0  0  0  0  0  0  0
  152.0150  145.6243  160.1308 C   0  0  0  0  0  0  0  0  0  0  0  0
  152.0226  144.4702  161.1449 C   0  0  0  0  0  0  0  0  0  0  0  0
  152.5586  143.1761  160.5118 C   0  0  0  0  0  0  0  0  0  0  0  0
  151.1958  139.4192  158.3969 C   0  0  0  0  0  0  0  0  0  0  0  0
  152.3174  138.8088  158.8655 N   0  0  0  0  0  0  0  0  0  0  0  0
  152.2623  137.5550  159.3241 C   0  0  0  0  0  0  0  0  0  0  0  0
  151.2066  136.7434  159.4089 N   0  0  0  0  0  0  0  0  0  0  0  0
  150.0773  137.3512  158.9451 C   0  0  0  0  0  0  0  0  0  0  0  0
  149.9848  138.6727  158.4243 C   0  0  0  0  0  0  0  0  0  0  0  0
  148.6772  138.9381  158.0377 N   0  0  0  0  0  0  0  0  0  0  0  0
  148.0316  137.8401  158.3207 C   0  0  0  0  0  0  0  0  0  0  0  0
  148.7937  136.8380  158.8775 N   0  0  0  0  0  0  0  0  0  0  0  0
  148.3358  135.5214  159.2930 C   0  0  0  0  0  0  0  0  0  0  0  0
  147.2930  135.5660  160.4341 C   0  0  1  0  0  0  0  0  0  0  0  0
  146.0984  136.1530  159.9480 O   0  0  0  0  0  0  0  0  0  0  0  0
  146.9542  134.1985  161.0234 C   0  0  0  0  0  0  0  0  0  0  0  0
  146.6786  134.5155  162.4864 C   0  0  0  0  0  0  0  0  0  0  0  0
  147.6648  135.4902  162.7776 O   0  0  0  0  0  0  0  0  0  0  0  0
  147.7679  136.3689  161.6622 C   0  0  0  0  0  0  0  0  0  0  0  0
  150.9696  138.8184  154.2142 H   0  0  0  0  0  0  0  0  0  0  0  0
  151.7806  138.9135  156.1311 H   0  0  0  0  0  0  0  0  0  0  0  0
  152.7735  140.1709  155.4083 H   0  0  0  0  0  0  0  0  0  0  0  0
  151.3582  141.9283  156.2403 H   0  0  0  0  0  0  0  0  0  0  0  0
  149.9683  140.8885  156.2982 H   0  0  0  0  0  0  0  0  0  0  0  0
  152.8307  140.9063  159.3446 H   0  0  0  0  0  0  0  0  0  0  0  0
  153.0350  141.7552  157.8399 H   0  0  0  0  0  0  0  0  0  0  0  0
  150.7210  142.6199  159.5511 H   0  0  0  0  0  0  0  0  0  0  0  0
  152.7751  144.1140  157.8765 H   0  0  0  0  0  0  0  0  0  0  0  0
  151.1580  143.6883  157.3728 H   0  0  0  0  0  0  0  0  0  0  0  0
  151.2742  146.0566  158.1425 H   0  0  0  0  0  0  0  0  0  0  0  0
  150.1710  145.1210  159.1219 H   0  0  0  0  0  0  0  0  0  0  0  0
  153.0401  145.8778  159.8571 H   0  0  0  0  0  0  0  0  0  0  0  0
  151.5858  146.5176  160.5855 H   0  0  0  0  0  0  0  0  0  0  0  0
  152.6298  144.7398  162.0093 H   0  0  0  0  0  0  0  0  0  0  0  0
  151.0112  144.3030  161.5173 H   0  0  0  0  0  0  0  0  0  0  0  0
  152.5226  142.3737  161.2493 H   0  0  0  0  0  0  0  0  0  0  0  0
  153.6092  143.3106  160.2515 H   0  0  0  0  0  0  0  0  0  0  0  0
  153.1974  137.1438  159.6747 H   0  0  0  0  0  0  0  0  0  0  0  0
  146.9734  137.7328  158.1324 H   0  0  0  0  0  0  0  0  0  0  0  0
  147.9161  135.0187  158.4207 H   0  0  0  0  0  0  0  0  0  0  0  0
  149.2031  134.9329  159.5958 H   0  0  0  0  0  0  0  0  0  0  0  0
  145.8044  136.7972  160.5736 H   0  0  0  0  0  0  0  0  0  0  0  0
  146.1229  133.6964  160.5263 H   0  0  0  0  0  0  0  0  0  0  0  0
  147.8207  133.5383  160.9688 H   0  0  0  0  0  0  0  0  0  0  0  0
  145.6836  134.9440  162.6169 H   0  0  0  0  0  0  0  0  0  0  0  0
  146.7693  133.6430  163.1335 H   0  0  0  0  0  0  0  0  0  0  0  0
  148.7995  136.7083  161.5658 H   0  0  0  0  0  0  0  0  0  0  0  0
  147.1502  137.2511  161.8389 H   0  0  0  0  0  0  0  0  0  0  0  0
  1  2  1  0  0  0  0
  1 28  1  0  0  0  0
  2  3  1  0  0  0  0
  2 29  1  0  0  0  0
  2 30  1  0  0  0  0
  3  4  1  0  0  0  0
  3 31  1  0  0  0  0
  3 32  1  0  0  0  0
  4  5  1  0  0  0  0
  4 12  1  0  0  0  0
  5  6  1  0  0  0  0
  5 33  1  0  0  0  0
  5 34  1  0  0  0  0
  6 11  1  0  0  0  0
  6  7  1  0  0  0  0
  6 35  1  0  0  0  0
  7  8  1  0  0  0  0
  7 36  1  0  0  0  0
  7 37  1  0  0  0  0
  8  9  1  0  0  0  0
  8 38  1  0  0  0  0
  8 39  1  0  0  0  0
  9 10  1  0  0  0  0
  9 40  1  0  0  0  0
  9 41  1  0  0  0  0
 10 11  1  0  0  0  0
 10 42  1  0  0  0  0
 10 43  1  0  0  0  0
 11 44  1  0  0  0  0
 11 45  1  0  0  0  0
 12 17  1  0  0  0  0
 12 13  2  0  0  0  0
 13 14  1  0  0  0  0
 14 15  2  0  0  0  0
 14 46  1  0  0  0  0
 15 16  1  0  0  0  0
 16 20  1  0  0  0  0
 16 17  2  0  0  0  0
 17 18  1  0  0  0  0
 18 19  2  0  0  0  0
 19 20  1  0  0  0  0
 19 47  1  0  0  0  0
 20 21  1  0  0  0  0
 21 22  1  0  0  0  0
 21 48  1  0  0  0  0
 21 49  1  0  0  0  0
 22 27  1  0  0  0  0
 22 23  1  0  0  0  0
 22 24  1  0  0  0  0
 23 50  1  0  0  0  0
 24 25  1  0  0  0  0
 24 51  1  0  0  0  0
 24 52  1  0  0  0  0
 25 26  1  0  0  0  0
 25 53  1  0  0  0  0
 25 54  1  0  0  0  0
 26 27  1  0  0  0  0
 27 55  1  0  0  0  0
 27 56  1  0  0  0  0
M  END
> <s_m_source_file>
AV-unprocessed.smi

> <i_m_source_file_index>
225

> <i_lp_mmshare_version>
43012

> <i_f3d_flags>
0

> <s_epik_input>
W0NIMl0xW0NIMl1bQ0gyXVtDSDJdW0NIMl1bQ0hdMVtDSDJdTihbQ0gyXVtDSDJdW09IXSljKG5bY0hdbjIpYyhjMjMpbltjSF1uM1tDSDJdW0NAQF00KFtPSF0pW0NIMl1bQ0gyXU9bQ0gyXTQ=

> <s_epik_cmdline>
J2VwaWtfcHl0aG9uJywgJy1waCcsICc3LjAnLCAnLXRuJywgJzgnLCAnLW1hJywgJzIwMCcsICctbWV0YWxfYmluZGluZycsICctaW1hZScsICc8aW5maWxlLm1hZT4nLCAnLW9tYWUnLCAnPG91dGZpbGUubWFlPic=

> <r_lp_tautomer_probability>
1

> <r_epik_Ionization_Penalty>
0.00405109

> <r_epik_Ionization_Penalty_Charging>
0

> <r_epik_Ionization_Penalty_Neutral>
0.00405109

> <r_epik_State_Penalty>
0.00270467

> <r_epik_Charging_Adjusted_Penalty>
0.00270467

> <i_epik_Tot_Q>
0

> <i_epik_Tot_abs_Q>
0

> <r_epik_Metal_State_Penalty>
-0

> <b_epik_Metal_Only>
0

> <s_lp_Force_Field>
OPLS_2005

> <r_lp_Energy>
35.3167

> <b_lp_Chiralities_Consistent>
1

> <s_lp_Variant>
AV-unprocessed.smi:225-1

> <Gold.Version>
5.8.1

> <Gold.Id.Protein>
6NUR|6NUR_protein|mol2

> <Gold.PLP.Fitness>
56.3378

> <Gold.PLP.PLP>
-53.3092

> <Gold.PLP.part.hbond>
-2.0000

> <Gold.PLP.part.metal>
0.0000

> <Gold.PLP.part.buried>
-7.3410

> <Gold.PLP.part.nonpolar>
-42.7749

> <Gold.PLP.part.repulsive>
0.0000

> <Gold.PLP.ligand.clash>
0.0000

> <Gold.PLP.ligand.torsion>
1.9610

> <Gold.PLP.Chemscore.Hbond>
2.0000

> <Gold.PLP.Chemscore.CHOScore>
0.0000

> <Gold.PLP.Chemscore.Metal>
0.0000

> <Gold.Chemscore.Hbonds>
donor molecule, donor type, donor heavy atom, donor atom, acceptor molecule, acceptor atom, score
      P1  H  6896  6907       L1    15  1.00
      P1  H  7989  7998       L1     1  1.00

> <Gold.PLP.Chemscore.Internal.Correction>
0.9505

> <Gold.Rescore>
     Score         DG    S(hbond)    S(metal)    S(lipo)     H(rot)  DE(clash)    DE(int)     intcor
     15.45     -17.26       1.92        0.00     128.21       3.76       0.06       1.76       ----

> <Gold.Chemscore.Fitness>
15.4487

> <Gold.Chemscore.DG>
-17.2636

> <Gold.Chemscore.ZeroCoef>
-5.4800

> <Gold.Chemscore.Hbond>
1.9222

> <Gold.Chemscore.Metal>
0.0000

> <Gold.Chemscore.Lipo>
128.2075

> <Gold.Chemscore.Internal_Hbond>
0.0000

> <Gold.Chemscore.DEClash>
0.0580

> <Gold.Chemscore.DEInternal>
1.7569

> <Gold.Chemscore.Rot>
3.7644

> <Gold.Chemscore.Internal.Correction>
   9.000000E+99

> <Gold.Chemscore.Hbonds>
donor molecule, donor type, donor heavy atom, donor atom, acceptor molecule, acceptor atom, score
      P1  H  6896  6907       L1    15  0.90
      P1  H  7989  7998       L1     1  0.48

> <Gold.Chemscore.Hbond.Weighted>
-6.4202

> <Gold.Chemscore.Metal.Weighted>
-0.0000

> <Gold.Chemscore.Lipo.Weighted>
-15.0003

> <Gold.Chemscore.Internal_Hbond.Weighted>
0.0000

> <Gold.Chemscore.DEClash.Weighted>
0.0580

> <Gold.Chemscore.DEInternal.Weighted>
1.7569

> <Gold.Chemscore.Rot.Weighted>
9.6369

> <Gold.Chemscore.Internal.Correction.Weighted>
   9.000000E+99

> <Gold.Protein.RotatedTorsions>
[ 6907 6896 6895 6894 ] final  -30.56 input  -60.11 | X-H torsion
[ 7974 7965 7964 7962 ] final -104.75 input  175.53 | X-H torsion
[ 8008 7997 7996 7995 ] final -129.17 input   59.86 | X-H torsion
[ 10167 10162 10161 10158 ] final  136.75 input  -65.29 | X-H torsion
[ 10718 10713 10712 10709 ] final -102.25 input   66.30 | X-H torsion
[ 10763 10752 10751 10750 ] final  178.66 input  -60.55 | X-H torsion
[ 11005 11000 10999 10996 ] final   10.63 input  -57.11 | X-H torsion

> <Gold.Protein.ActiveResidues>
 VAL166  LYS551  ARG553  GLY616  TRP617  ASP618  TYR619  PRO620  LYS621  CYS622 
 ASP623  PHE694  ASN695  SER759  ASP760  ASP761  ALA762  ILE779  LEU786  VAL792 
 PHE793  MET794  SER795  GLU796  ALA797  LYS798  CYS799  TRP800  GLU811  SER814 

> <Gold.Protein.RotatedAtoms>
  151.1039  134.9988  159.8461 H   0  0  0  0  0  0  0  0  0  0  0  0  # atno 6907 bound_to 6896
  152.5439  134.1917  159.8687 H   0  0  0  0  0  0  0  0  0  0  0  0  # atno 6908 bound_to 6896
  151.1962  133.4593  159.2629 H   0  0  0  0  0  0  0  0  0  0  0  0  # atno 6909 bound_to 6896
  145.2392  140.9199  143.3159 H   0  0  0  0  0  0  0  0  0  0  0  0  # atno 7974 bound_to 7965
  155.2747  140.0441  157.3010 H   0  0  0  0  0  0  0  0  0  0  0  0  # atno 8008 bound_to 7997
  154.5632  140.2352  155.8271 H   0  0  0  0  0  0  0  0  0  0  0  0  # atno 8009 bound_to 7997
  156.2064  140.3011  155.9644 H   0  0  0  0  0  0  0  0  0  0  0  0  # atno 8010 bound_to 7997
  139.5169  144.6448  151.5471 H   0  0  0  0  0  0  0  0  0  0  0  0  # atno 10167 bound_to 10162
  156.0222  130.5411  150.7082 H   0  0  0  0  0  0  0  0  0  0  0  0  # atno 10718 bound_to 10713
  154.5106  135.2788  155.1346 H   0  0  0  0  0  0  0  0  0  0  0  0  # atno 10763 bound_to 10752
  154.2942  135.6261  153.5401 H   0  0  0  0  0  0  0  0  0  0  0  0  # atno 10764 bound_to 10752
  152.9918  135.5681  154.5571 H   0  0  0  0  0  0  0  0  0  0  0  0  # atno 10765 bound_to 10752
  140.5123  134.0640  155.7821 H   0  0  0  0  0  0  0  0  0  0  0  0  # atno 11005 bound_to 11000
  144.9604  139.3986  143.6358 LP  0  0  0  0  0  0  0  0  0  0  0  0  # atno 17320 bound_to 7965
  146.3333  139.8655  142.8849 LP  0  0  0  0  0  0  0  0  0  0  0  0  # atno 17321 bound_to 7965
  140.6228  143.9226  150.6540 LP  0  0  0  0  0  0  0  0  0  0  0  0  # atno 17342 bound_to 10162
  140.2505  143.3597  152.1410 LP  0  0  0  0  0  0  0  0  0  0  0  0  # atno 17343 bound_to 10162
  157.4726  131.0894  151.0625 LP  0  0  0  0  0  0  0  0  0  0  0  0  # atno 17370 bound_to 10713
  157.1081  130.6010  149.5475 LP  0  0  0  0  0  0  0  0  0  0  0  0  # atno 17371 bound_to 10713
  141.1379  133.9190  157.2393 LP  0  0  0  0  0  0  0  0  0  0  0  0  # atno 17394 bound_to 11000
  139.9652  135.0144  156.9368 LP  0  0  0  0  0  0  0  0  0  0  0  0  # atno 17395 bound_to 11000

$$$$
