AV-unprocessed.smi:703|AV-procd|sdf|3431|dock8
  -GOLD-   22720 0413D 1   1.00000     0.00000
 Structure written by MMmdl.
 38 39  0  0  0  0  0  0  0  0  2 V2000
  145.7616  135.9758  152.2679 C   0  0  0  0  0  0  0  0  0  0  0  0
  144.8724  137.2092  152.4756 C   0  0  0  0  0  0  0  0  0  0  0  0
  145.6163  138.3428  153.0738 N   0  3  2  0  0  0  0  0  0  0  0  0
  146.7148  138.8799  152.2436 C   0  0  0  0  0  0  0  0  0  0  0  0
  147.6857  139.5513  153.2183 C   0  0  1  0  0  0  0  0  0  0  0  0
  147.2978  141.0132  153.4957 C   0  0  0  0  0  0  0  0  0  0  0  0
  147.5798  138.6731  154.4725 C   0  0  2  0  0  0  0  0  0  0  0  0
  148.5994  137.6200  154.4304 N   0  0  0  0  0  0  0  0  0  0  0  0
  150.2224  138.0395  154.8400 S   0  0  0  0  0  0  0  0  0  0  0  0
  151.0672  136.8767  154.5284 O   0  0  0  0  0  0  0  0  0  0  0  0
  150.5166  139.3452  154.2297 O   0  0  0  0  0  0  0  0  0  0  0  0
  150.1351  138.2515  156.6675 C   0  0  0  0  0  0  0  0  0  0  0  0
  150.3576  139.6958  157.0145 C   0  0  0  0  0  0  0  0  0  0  0  0
  149.5740  140.8241  156.6462 C   0  0  0  0  0  0  0  0  0  0  0  0
  150.2283  141.8703  157.2298 C   0  0  0  0  0  0  0  0  0  0  0  0
  151.3246  141.4317  157.8982 O   0  0  0  0  0  0  0  0  0  0  0  0
  151.3995  140.0418  157.7536 N   0  0  0  0  0  0  0  0  0  0  0  0
  146.1650  138.0666  154.4212 C   0  0  0  0  0  0  0  0  0  0  0  0
  145.2048  135.1791  151.7743 H   0  0  0  0  0  0  0  0  0  0  0  0
  146.1283  135.5790  153.2147 H   0  0  0  0  0  0  0  0  0  0  0  0
  146.6243  136.2113  151.6442 H   0  0  0  0  0  0  0  0  0  0  0  0
  144.4796  137.5227  151.5075 H   0  0  0  0  0  0  0  0  0  0  0  0
  144.0115  136.9580  153.0971 H   0  0  0  0  0  0  0  0  0  0  0  0
  147.2249  138.0566  151.7407 H   0  0  0  0  0  0  0  0  0  0  0  0
  146.3469  139.5599  151.4743 H   0  0  0  0  0  0  0  0  0  0  0  0
  148.6979  139.5476  152.8102 H   0  0  0  0  0  0  0  0  0  0  0  0
  146.2898  141.0917  153.9044 H   0  0  0  0  0  0  0  0  0  0  0  0
  147.3342  141.6079  152.5826 H   0  0  0  0  0  0  0  0  0  0  0  0
  147.9823  141.4695  154.2114 H   0  0  0  0  0  0  0  0  0  0  0  0
  147.7295  139.2616  155.3792 H   0  0  0  0  0  0  0  0  0  0  0  0
  148.5696  137.1197  153.5421 H   0  0  0  0  0  0  0  0  0  0  0  0
  149.1588  137.9054  157.0078 H   0  0  0  0  0  0  0  0  0  0  0  0
  150.8933  137.6181  157.1272 H   0  0  0  0  0  0  0  0  0  0  0  0
  148.6724  140.8593  156.0528 H   0  0  0  0  0  0  0  0  0  0  0  0
  150.0476  142.9347  157.2601 H   0  0  0  0  0  0  0  0  0  0  0  0
  145.5160  138.5349  155.1616 H   0  0  0  0  0  0  0  0  0  0  0  0
  146.1768  136.9967  154.6366 H   0  0  0  0  0  0  0  0  0  0  0  0
  144.9592  139.0997  153.1980 H   0  0  0  0  0  0  0  0  0  0  0  0
  1  2  1  0  0  0  0
  1 19  1  0  0  0  0
  1 20  1  0  0  0  0
  1 21  1  0  0  0  0
  2  3  1  0  0  0  0
  2 22  1  0  0  0  0
  2 23  1  0  0  0  0
  3 18  1  0  0  0  0
  3  4  1  0  0  0  0
  3 38  1  0  0  0  0
  4  5  1  0  0  0  0
  4 24  1  0  0  0  0
  4 25  1  0  0  0  0
  5  6  1  0  0  0  0
  5  7  1  0  0  0  0
  5 26  1  0  0  0  0
  6 27  1  0  0  0  0
  6 28  1  0  0  0  0
  6 29  1  0  0  0  0
  7  8  1  0  0  0  0
  7 18  1  0  0  0  0
  7 30  1  0  0  0  0
  8  9  1  0  0  0  0
  8 31  1  0  0  0  0
  9 10  2  0  0  0  0
  9 11  2  0  0  0  0
  9 12  1  0  0  0  0
 12 13  1  0  0  0  0
 12 32  1  0  0  0  0
 12 33  1  0  0  0  0
 13 17  2  0  0  0  0
 13 14  1  0  0  0  0
 14 15  2  0  0  0  0
 14 34  1  0  0  0  0
 15 16  1  0  0  0  0
 15 35  1  0  0  0  0
 16 17  1  0  0  0  0
 18 36  1  0  0  0  0
 18 37  1  0  0  0  0
M  CHG  1   3   1
M  END
> <s_m_source_file>
AV-unprocessed.smi

> <i_m_source_file_index>
703

> <i_lp_mmshare_version>
43012

> <i_f3d_flags>
0

> <s_epik_input>
W0NIM11bQ0gyXU4xW0NIMl1bQ0BASF0oW0NIM10pW0NASF0oW0NIMl0xKVtOSF1TKD1PKSg9TylbQ0gyXWMyW2NIXVtjSF1vbjI=

> <s_epik_cmdline>
J2VwaWtfcHl0aG9uJywgJy1waCcsICc3LjAnLCAnLXRuJywgJzgnLCAnLW1hJywgJzIwMCcsICctbWV0YWxfYmluZGluZycsICctaW1hZScsICc8aW5maWxlLm1hZT4nLCAnLW9tYWUnLCAnPG91dGZpbGUubWFlPic=

> <r_epik_Ionization_Penalty>
0.00324529

> <r_epik_Ionization_Penalty_Charging>
0.0019384

> <r_epik_Ionization_Penalty_Neutral>
0.00130689

> <r_epik_State_Penalty>
0.00218682

> <r_epik_Charging_Adjusted_Penalty>
0.00412522

> <i_epik_Tot_Q>
1

> <i_epik_Tot_abs_Q>
1

> <r_epik_Metal_State_Penalty>
0.310831

> <b_epik_Metal_Only>
0

> <s_lp_Force_Field>
OPLS_2005

> <r_lp_Energy>
19.6136

> <b_lp_Chiralities_Consistent>
1

> <s_lp_Variant>
AV-unprocessed.smi:703-6

> <Gold.Version>
5.8.1

> <Gold.Id.Protein>
6NUR|6NUR_protein|mol2

> <Gold.PLP.Fitness>
37.2265

> <Gold.PLP.PLP>
-21.3167

> <Gold.PLP.part.hbond>
-3.4087

> <Gold.PLP.part.metal>
0.0000

> <Gold.PLP.part.buried>
-1.2894

> <Gold.PLP.part.nonpolar>
-17.5553

> <Gold.PLP.part.repulsive>
0.5534

> <Gold.PLP.ligand.clash>
0.0000

> <Gold.PLP.ligand.torsion>
0.4762

> <Gold.PLP.Chemscore.Hbond>
4.5688

> <Gold.PLP.Chemscore.CHOScore>
1.0000

> <Gold.PLP.Chemscore.Metal>
0.0000

> <Gold.Chemscore.Hbonds>
donor molecule, donor type, donor heavy atom, donor atom, acceptor molecule, acceptor atom, score
      L1  H     3    38       P1 10175  2.00
      L1  H     8    31       P1  7948  1.00
      P1  H  7989  7998       L1    11  1.00
      P1  H 10752 10764       L1    10  0.49
      L1  C    15    35       P1  8028  0.68

> <Gold.PLP.Chemscore.Internal.Correction>
0.1560

> <Gold.Rescore>
     Score         DG    S(hbond)    S(metal)    S(lipo)     H(rot)  DE(clash)    DE(int)     intcor
     17.68     -19.73       3.71        0.00      58.45       1.94       1.57       0.48       ----

> <Gold.Chemscore.Fitness>
17.6764

> <Gold.Chemscore.DG>
-19.7273

> <Gold.Chemscore.ZeroCoef>
-5.4800

> <Gold.Chemscore.Hbond>
3.7050

> <Gold.Chemscore.Metal>
0.0000

> <Gold.Chemscore.Lipo>
58.4534

> <Gold.Chemscore.Internal_Hbond>
0.0000

> <Gold.Chemscore.DEClash>
1.5693

> <Gold.Chemscore.DEInternal>
0.4816

> <Gold.Chemscore.Rot>
1.9400

> <Gold.Chemscore.Internal.Correction>
   9.000000E+99

> <Gold.Chemscore.Hbonds>
donor molecule, donor type, donor heavy atom, donor atom, acceptor molecule, acceptor atom, score
      L1  H     3    38       P1 10175  0.91
      L1  H     8    31       P1  7948  0.99
      P1  H  7989  7998       L1    11  0.94
      P1  H 10752 10764       L1    10  0.48

> <Gold.Chemscore.Hbond.Weighted>
-12.3747

> <Gold.Chemscore.Metal.Weighted>
-0.0000

> <Gold.Chemscore.Lipo.Weighted>
-6.8390

> <Gold.Chemscore.Internal_Hbond.Weighted>
0.0000

> <Gold.Chemscore.DEClash.Weighted>
1.5693

> <Gold.Chemscore.DEInternal.Weighted>
0.4816

> <Gold.Chemscore.Rot.Weighted>
4.9665

> <Gold.Chemscore.Internal.Correction.Weighted>
   9.000000E+99

> <Gold.Protein.RotatedTorsions>
[ 6907 6896 6895 6894 ] final   -4.30 input  -60.11 | X-H torsion
[ 7974 7965 7964 7962 ] final  151.50 input  175.53 | X-H torsion
[ 8008 7997 7996 7995 ] final  -89.03 input   59.86 | X-H torsion
[ 10167 10162 10161 10158 ] final   97.66 input  -65.29 | X-H torsion
[ 10718 10713 10712 10709 ] final  -75.24 input   66.30 | X-H torsion
[ 10763 10752 10751 10750 ] final  -74.17 input  -60.55 | X-H torsion
[ 11005 11000 10999 10996 ] final   77.46 input  -57.11 | X-H torsion

> <Gold.Protein.ActiveResidues>
 VAL166  LYS551  ARG553  GLY616  TRP617  ASP618  TYR619  PRO620  LYS621  CYS622 
 ASP623  PHE694  ASN695  SER759  ASP760  ASP761  ALA762  ILE779  LEU786  VAL792 
 PHE793  MET794  SER795  GLU796  ALA797  LYS798  CYS799  TRP800  GLU811  SER814 

> <Gold.Protein.RotatedAtoms>
  151.4999  135.1061  159.9825 H   0  0  0  0  0  0  0  0  0  0  0  0  # atno 6907 bound_to 6896
  152.4706  133.8017  159.6967 H   0  0  0  0  0  0  0  0  0  0  0  0  # atno 6908 bound_to 6896
  150.8713  133.7439  159.2986 H   0  0  0  0  0  0  0  0  0  0  0  0  # atno 6909 bound_to 6896
  144.8288  139.6546  143.6068 H   0  0  0  0  0  0  0  0  0  0  0  0  # atno 7974 bound_to 7965
  154.6818  140.0546  157.0274 H   0  0  0  0  0  0  0  0  0  0  0  0  # atno 8008 bound_to 7997
  155.0940  140.3222  155.4547 H   0  0  0  0  0  0  0  0  0  0  0  0  # atno 8009 bound_to 7997
  156.2697  140.2043  156.6067 H   0  0  0  0  0  0  0  0  0  0  0  0  # atno 8010 bound_to 7997
  139.7780  144.6899  151.0062 H   0  0  0  0  0  0  0  0  0  0  0  0  # atno 10167 bound_to 10162
  156.0214  130.4436  150.3013 H   0  0  0  0  0  0  0  0  0  0  0  0  # atno 10718 bound_to 10713
  154.4695  135.5873  153.6311 H   0  0  0  0  0  0  0  0  0  0  0  0  # atno 10763 bound_to 10752
  152.9833  135.6063  154.3385 H   0  0  0  0  0  0  0  0  0  0  0  0  # atno 10764 bound_to 10752
  154.3265  135.2843  155.2472 H   0  0  0  0  0  0  0  0  0  0  0  0  # atno 10765 bound_to 10752
  139.9254  134.7684  156.1524 H   0  0  0  0  0  0  0  0  0  0  0  0  # atno 11005 bound_to 11000
  146.2592  139.6371  142.9374 LP  0  0  0  0  0  0  0  0  0  0  0  0  # atno 17320 bound_to 7965
  145.4942  141.0438  143.2576 LP  0  0  0  0  0  0  0  0  0  0  0  0  # atno 17321 bound_to 7965
  140.7817  143.4514  151.0407 LP  0  0  0  0  0  0  0  0  0  0  0  0  # atno 17342 bound_to 10162
  139.8196  143.7838  152.3176 LP  0  0  0  0  0  0  0  0  0  0  0  0  # atno 17343 bound_to 10162
  157.1116  131.0223  151.3045 LP  0  0  0  0  0  0  0  0  0  0  0  0  # atno 17370 bound_to 10713
  157.4700  130.7703  149.7314 LP  0  0  0  0  0  0  0  0  0  0  0  0  # atno 17371 bound_to 10713
  141.0807  133.6755  156.2330 LP  0  0  0  0  0  0  0  0  0  0  0  0  # atno 17394 bound_to 11000
  140.6352  134.5222  157.5564 LP  0  0  0  0  0  0  0  0  0  0  0  0  # atno 17395 bound_to 11000

$$$$
