AV-unprocessed.smi:1071|AV-procd|sdf|4678|dock6
  -GOLD-   22720 3193D 1   1.00000     0.00000
 Structure written by MMmdl.
 47 48  0  0  0  0  0  0  0  0  2 V2000
  152.4299  144.4664  158.6098 C   0  0  0  0  0  0  0  0  0  0  0  0
  152.2777  143.1323  159.0615 O   0  0  0  0  0  0  0  0  0  0  0  0
  153.4700  142.6109  159.6245 C   0  0  0  0  0  0  0  0  0  0  0  0
  153.2872  141.1145  159.8957 C   0  0  0  0  0  0  0  0  0  0  0  0
  153.3480  140.4115  158.6582 O   0  0  0  0  0  0  0  0  0  0  0  0
  152.1923  140.2836  157.9153 C   0  0  0  0  0  0  0  0  0  0  0  0
  152.2981  139.8795  156.5698 C   0  0  0  0  0  0  0  0  0  0  0  0
  151.1227  139.7452  155.8072 C   0  0  0  0  0  0  0  0  0  0  0  0
  149.8773  140.0073  156.4121 C   0  0  0  0  0  0  0  0  0  0  0  0
  148.7067  139.8850  155.6163 N   0  0  0  0  0  0  0  0  0  0  0  0
  148.5497  139.2221  154.4530 C   0  0  0  0  0  0  0  0  0  0  0  0
  149.4938  138.7346  153.8310 O   0  0  0  0  0  0  0  0  0  0  0  0
  147.2809  139.2491  153.9636 N   0  0  0  0  0  0  0  0  0  0  0  0
  146.0851  139.6003  154.7584 C   0  0  0  0  0  0  0  0  0  0  0  0
  145.0613  138.4541  154.7607 C   0  0  0  0  0  0  0  0  0  0  0  0
  144.7079  138.0533  153.3811 N   0  3  2  0  0  0  0  0  0  0  0  0
  143.6571  137.0136  153.3435 C   0  0  0  0  0  0  0  0  0  0  0  0
  145.9007  137.6821  152.5866 C   0  0  0  0  0  0  0  0  0  0  0  0
  146.9741  138.7913  152.5910 C   0  0  1  0  0  0  0  0  0  0  0  0
  146.6277  139.9805  151.6779 C   0  0  0  0  0  0  0  0  0  0  0  0
  149.8761  140.4211  157.7666 C   0  0  0  0  0  0  0  0  0  0  0  0
  151.0000  140.5538  158.5023 N   0  0  0  0  0  0  0  0  0  0  0  0
  151.4883  144.8223  158.1920 H   0  0  0  0  0  0  0  0  0  0  0  0
  153.1904  144.5335  157.8309 H   0  0  0  0  0  0  0  0  0  0  0  0
  152.7074  145.1315  159.4288 H   0  0  0  0  0  0  0  0  0  0  0  0
  154.3221  142.7778  158.9636 H   0  0  0  0  0  0  0  0  0  0  0  0
  153.6774  143.1270  160.5631 H   0  0  0  0  0  0  0  0  0  0  0  0
  154.0914  140.7704  160.5479 H   0  0  0  0  0  0  0  0  0  0  0  0
  152.3398  140.9371  160.4078 H   0  0  0  0  0  0  0  0  0  0  0  0
  153.2637  139.6777  156.1302 H   0  0  0  0  0  0  0  0  0  0  0  0
  151.1805  139.4396  154.7726 H   0  0  0  0  0  0  0  0  0  0  0  0
  147.8969  140.3821  155.9569 H   0  0  0  0  0  0  0  0  0  0  0  0
  146.3038  139.8451  155.7978 H   0  0  0  0  0  0  0  0  0  0  0  0
  145.6360  140.4997  154.3366 H   0  0  0  0  0  0  0  0  0  0  0  0
  145.4647  137.5943  155.2985 H   0  0  0  0  0  0  0  0  0  0  0  0
  144.1617  138.7679  155.2916 H   0  0  0  0  0  0  0  0  0  0  0  0
  144.0034  136.0892  153.8077 H   0  0  0  0  0  0  0  0  0  0  0  0
  143.3702  136.7939  152.3146 H   0  0  0  0  0  0  0  0  0  0  0  0
  142.7645  137.3489  153.8726 H   0  0  0  0  0  0  0  0  0  0  0  0
  146.3263  136.7674  153.0030 H   0  0  0  0  0  0  0  0  0  0  0  0
  145.6063  137.4494  151.5623 H   0  0  0  0  0  0  0  0  0  0  0  0
  147.8530  138.3352  152.1337 H   0  0  0  0  0  0  0  0  0  0  0  0
  146.4939  139.6531  150.6464 H   0  0  0  0  0  0  0  0  0  0  0  0
  147.4248  140.7248  151.6837 H   0  0  0  0  0  0  0  0  0  0  0  0
  145.7067  140.4762  151.9847 H   0  0  0  0  0  0  0  0  0  0  0  0
  148.9641  140.6778  158.2829 H   0  0  0  0  0  0  0  0  0  0  0  0
  144.3168  138.8726  152.9384 H   0  0  0  0  0  0  0  0  0  0  0  0
  1  2  1  0  0  0  0
  1 23  1  0  0  0  0
  1 24  1  0  0  0  0
  1 25  1  0  0  0  0
  2  3  1  0  0  0  0
  3  4  1  0  0  0  0
  3 26  1  0  0  0  0
  3 27  1  0  0  0  0
  4  5  1  0  0  0  0
  4 28  1  0  0  0  0
  4 29  1  0  0  0  0
  5  6  1  0  0  0  0
  6 22  1  0  0  0  0
  6  7  2  0  0  0  0
  7  8  1  0  0  0  0
  7 30  1  0  0  0  0
  8  9  2  0  0  0  0
  8 31  1  0  0  0  0
  9 10  1  0  0  0  0
  9 21  1  0  0  0  0
 10 11  1  0  0  0  0
 10 32  1  0  0  0  0
 11 12  2  0  0  0  0
 11 13  1  0  0  0  0
 13 19  1  0  0  0  0
 13 14  1  0  0  0  0
 14 15  1  0  0  0  0
 14 33  1  0  0  0  0
 14 34  1  0  0  0  0
 15 16  1  0  0  0  0
 15 35  1  0  0  0  0
 15 36  1  0  0  0  0
 16 17  1  0  0  0  0
 16 18  1  0  0  0  0
 16 47  1  0  0  0  0
 17 37  1  0  0  0  0
 17 38  1  0  0  0  0
 17 39  1  0  0  0  0
 18 19  1  0  0  0  0
 18 40  1  0  0  0  0
 18 41  1  0  0  0  0
 19 20  1  0  0  0  0
 19 42  1  0  0  0  0
 20 43  1  0  0  0  0
 20 44  1  0  0  0  0
 20 45  1  0  0  0  0
 21 22  2  0  0  0  0
 21 46  1  0  0  0  0
M  CHG  1  16   1
M  END
> <s_m_source_file>
AV-unprocessed.smi

> <i_m_source_file_index>
1071

> <i_lp_mmshare_version>
43012

> <i_f3d_flags>
0

> <s_epik_input>
W0NIM11PW0NIMl1bQ0gyXU9jMVtjSF1bY0hdYyhbY0hdbjEpW05IXUMoPU8pTjJbQ0gyXVtDSDJdTihbQ0gzXSlbQ0gyXVtDQEhdMltDSDNd

> <s_epik_cmdline>
J2VwaWtfcHl0aG9uJywgJy1waCcsICc3LjAnLCAnLXRuJywgJzgnLCAnLW1hJywgJzIwMCcsICctbWV0YWxfYmluZGluZycsICctaW1hZScsICc8aW5maWxlLm1hZT4nLCAnLW9tYWUnLCAnPG91dGZpbGUubWFlPic=

> <r_lp_tautomer_probability>
1

> <r_epik_Ionization_Penalty>
0.25455

> <r_epik_Ionization_Penalty_Charging>
0.254506

> <r_epik_Ionization_Penalty_Neutral>
4.43365e-05

> <r_epik_State_Penalty>
0.245983

> <r_epik_Charging_Adjusted_Penalty>
0.500488

> <i_epik_Tot_Q>
1

> <i_epik_Tot_abs_Q>
1

> <r_epik_Metal_State_Penalty>
0.245987

> <b_epik_Metal_Only>
0

> <s_lp_Force_Field>
OPLS_2005

> <r_lp_Energy>
56.9033

> <b_lp_Chiralities_Consistent>
1

> <s_lp_Variant>
AV-unprocessed.smi:1071-2

> <Gold.Version>
5.8.1

> <Gold.Id.Protein>
6NUR|6NUR_protein|mol2

> <Gold.PLP.Fitness>
38.9405

> <Gold.PLP.PLP>
-31.3955

> <Gold.PLP.part.hbond>
-2.0000

> <Gold.PLP.part.metal>
0.0000

> <Gold.PLP.part.buried>
1.1454

> <Gold.PLP.part.nonpolar>
-31.7738

> <Gold.PLP.part.repulsive>
1.3633

> <Gold.PLP.ligand.clash>
0.0000

> <Gold.PLP.ligand.torsion>
0.5370

> <Gold.PLP.Chemscore.Hbond>
2.8406

> <Gold.PLP.Chemscore.CHOScore>
0.0000

> <Gold.PLP.Chemscore.Metal>
0.0000

> <Gold.Chemscore.Hbonds>
donor molecule, donor type, donor heavy atom, donor atom, acceptor molecule, acceptor atom, score
      L1  H    16    47       P1 10175  2.00
      P1  H  7997  8010       L1     5  0.71

> <Gold.PLP.Chemscore.Internal.Correction>
0.0972

> <Gold.Rescore>
     Score         DG    S(hbond)    S(metal)    S(lipo)     H(rot)  DE(clash)    DE(int)     intcor
     12.27     -15.62       1.23        0.00      86.68       1.60       1.25       2.10       ----

> <Gold.Chemscore.Fitness>
12.2714

> <Gold.Chemscore.DG>
-15.6248

> <Gold.Chemscore.ZeroCoef>
-5.4800

> <Gold.Chemscore.Hbond>
1.2306

> <Gold.Chemscore.Metal>
0.0000

> <Gold.Chemscore.Lipo>
86.6849

> <Gold.Chemscore.Internal_Hbond>
0.0000

> <Gold.Chemscore.DEClash>
1.2494

> <Gold.Chemscore.DEInternal>
2.1040

> <Gold.Chemscore.Rot>
1.6045

> <Gold.Chemscore.Internal.Correction>
   9.000000E+99

> <Gold.Chemscore.Hbonds>
donor molecule, donor type, donor heavy atom, donor atom, acceptor molecule, acceptor atom, score
      L1  H    16    47       P1 10175  1.00
      P1  H  7997  8010       L1     5  0.16

> <Gold.Chemscore.Hbond.Weighted>
-4.1102

> <Gold.Chemscore.Metal.Weighted>
-0.0000

> <Gold.Chemscore.Lipo.Weighted>
-10.1421

> <Gold.Chemscore.Internal_Hbond.Weighted>
0.0000

> <Gold.Chemscore.DEClash.Weighted>
1.2494

> <Gold.Chemscore.DEInternal.Weighted>
2.1040

> <Gold.Chemscore.Rot.Weighted>
4.1075

> <Gold.Chemscore.Internal.Correction.Weighted>
   9.000000E+99

> <Gold.Protein.RotatedTorsions>
[ 6907 6896 6895 6894 ] final  174.06 input  -60.11 | X-H torsion
[ 7974 7965 7964 7962 ] final   75.82 input  175.53 | X-H torsion
[ 8008 7997 7996 7995 ] final   23.82 input   59.86 | X-H torsion
[ 10167 10162 10161 10158 ] final  141.34 input  -65.29 | X-H torsion
[ 10718 10713 10712 10709 ] final   -9.85 input   66.30 | X-H torsion
[ 10763 10752 10751 10750 ] final  -71.79 input  -60.55 | X-H torsion
[ 11005 11000 10999 10996 ] final   99.19 input  -57.11 | X-H torsion

> <Gold.Protein.ActiveResidues>
 VAL166  LYS551  ARG553  GLY616  TRP617  ASP618  TYR619  PRO620  LYS621  CYS622 
 ASP623  PHE694  ASN695  SER759  ASP760  ASP761  ALA762  ILE779  LEU786  VAL792 
 PHE793  MET794  SER795  GLU796  ALA797  LYS798  CYS799  TRP800  GLU811  SER814 

> <Gold.Protein.RotatedAtoms>
  151.7583  133.3332  159.3410 H   0  0  0  0  0  0  0  0  0  0  0  0  # atno 6907 bound_to 6896
  150.7508  134.6129  159.6105 H   0  0  0  0  0  0  0  0  0  0  0  0  # atno 6908 bound_to 6896
  152.3422  134.7121  160.0312 H   0  0  0  0  0  0  0  0  0  0  0  0  # atno 6909 bound_to 6896
  145.7107  139.2614  143.1652 H   0  0  0  0  0  0  0  0  0  0  0  0  # atno 7974 bound_to 7965
  154.9868  140.3109  155.4923 H   0  0  0  0  0  0  0  0  0  0  0  0  # atno 8008 bound_to 7997
  156.2945  140.2256  156.4910 H   0  0  0  0  0  0  0  0  0  0  0  0  # atno 8009 bound_to 7997
  154.7739  140.0450  157.1062 H   0  0  0  0  0  0  0  0  0  0  0  0  # atno 8010 bound_to 7997
  139.5023  144.6178  151.6123 H   0  0  0  0  0  0  0  0  0  0  0  0  # atno 10167 bound_to 10162
  156.6820  130.5040  149.5968 H   0  0  0  0  0  0  0  0  0  0  0  0  # atno 10718 bound_to 10713
  154.4367  135.5951  153.6103 H   0  0  0  0  0  0  0  0  0  0  0  0  # atno 10763 bound_to 10752
  152.9802  135.5988  154.3772 H   0  0  0  0  0  0  0  0  0  0  0  0  # atno 10764 bound_to 10752
  154.3617  135.2841  155.2295 H   0  0  0  0  0  0  0  0  0  0  0  0  # atno 10765 bound_to 10752
  139.8771  134.9084  156.4569 H   0  0  0  0  0  0  0  0  0  0  0  0  # atno 11005 bound_to 11000
  146.0715  140.7864  142.9686 LP  0  0  0  0  0  0  0  0  0  0  0  0  # atno 17320 bound_to 7965
  144.6943  140.3349  143.7209 LP  0  0  0  0  0  0  0  0  0  0  0  0  # atno 17321 bound_to 7965
  140.5871  143.9845  150.6302 LP  0  0  0  0  0  0  0  0  0  0  0  0  # atno 17342 bound_to 10162
  140.3013  143.3258  152.0968 LP  0  0  0  0  0  0  0  0  0  0  0  0  # atno 17343 bound_to 10162
  156.1860  130.6530  151.1007 LP  0  0  0  0  0  0  0  0  0  0  0  0  # atno 17370 bound_to 10713
  157.7040  131.0764  150.6728 LP  0  0  0  0  0  0  0  0  0  0  0  0  # atno 17371 bound_to 10713
  140.8891  133.7861  155.9552 LP  0  0  0  0  0  0  0  0  0  0  0  0  # atno 17394 bound_to 11000
  140.8772  134.2655  157.5162 LP  0  0  0  0  0  0  0  0  0  0  0  0  # atno 17395 bound_to 11000

$$$$
