AV-unprocessed.smi:3192|AV-procd|sdf|12200|dock2
  -GOLD-   2272018 33D 1   1.00000     0.00000
 Structure written by MMmdl.
 34 35  0  0  0  0  0  0  0  0  1 V2000
  150.9968  136.4199  155.5288 C   0  0  0  0  0  0  0  0  0  0  0  0
  152.2359  136.7308  156.1408 O   0  0  0  0  0  0  0  0  0  0  0  0
  152.3519  138.1061  156.4661 C   0  0  0  0  0  0  0  0  0  0  0  0
  153.1763  138.2479  157.7485 C   0  0  0  0  0  0  0  0  0  0  0  0
  153.2603  139.6296  158.0835 O   0  0  0  0  0  0  0  0  0  0  0  0
  153.6244  139.9820  159.3690 C   0  0  0  0  0  0  0  0  0  0  0  0
  154.2235  139.0471  160.1491 N   0  0  0  0  0  0  0  0  0  0  0  0
  154.5789  139.3895  161.4041 C   0  0  0  0  0  0  0  0  0  0  0  0
  154.3605  140.6699  161.9443 C   0  0  0  0  0  0  0  0  0  0  0  0
  153.7409  141.6405  161.1357 C   0  0  0  0  0  0  0  0  0  0  0  0
  153.3594  141.2980  159.8169 C   0  0  0  0  0  0  0  0  0  0  0  0
  152.7372  142.2045  158.9444 N   0  0  0  0  0  0  0  0  0  0  0  0
  152.8675  143.6432  159.1220 C   0  0  0  0  0  0  0  0  0  0  0  0
  152.0590  144.2321  160.2867 C   0  0  0  0  0  0  0  0  0  0  0  0
  151.7502  145.4205  159.3676 C   0  0  0  0  0  0  0  0  0  0  0  0
  151.9840  144.4740  158.1836 C   0  0  0  0  0  0  0  0  0  0  0  0
  150.9569  135.3543  155.3036 H   0  0  0  0  0  0  0  0  0  0  0  0
  150.8695  136.9669  154.5937 H   0  0  0  0  0  0  0  0  0  0  0  0
  150.1615  136.6555  156.1896 H   0  0  0  0  0  0  0  0  0  0  0  0
  152.8547  138.6264  155.6496 H   0  0  0  0  0  0  0  0  0  0  0  0
  151.3695  138.5642  156.5914 H   0  0  0  0  0  0  0  0  0  0  0  0
  152.7214  137.6688  158.5539 H   0  0  0  0  0  0  0  0  0  0  0  0
  154.1799  137.8552  157.5759 H   0  0  0  0  0  0  0  0  0  0  0  0
  155.0521  138.6198  161.9956 H   0  0  0  0  0  0  0  0  0  0  0  0
  154.6616  140.9023  162.9550 H   0  0  0  0  0  0  0  0  0  0  0  0
  153.5694  142.6275  161.5381 H   0  0  0  0  0  0  0  0  0  0  0  0
  152.1145  141.8563  158.2290 H   0  0  0  0  0  0  0  0  0  0  0  0
  153.9030  143.9877  159.1091 H   0  0  0  0  0  0  0  0  0  0  0  0
  151.1682  143.6524  160.5369 H   0  0  0  0  0  0  0  0  0  0  0  0
  152.6444  144.4782  161.1730 H   0  0  0  0  0  0  0  0  0  0  0  0
  150.7352  145.8103  159.4483 H   0  0  0  0  0  0  0  0  0  0  0  0
  152.4966  146.2141  159.4318 H   0  0  0  0  0  0  0  0  0  0  0  0
  152.5072  144.9179  157.3362 H   0  0  0  0  0  0  0  0  0  0  0  0
  151.0715  143.9610  157.8734 H   0  0  0  0  0  0  0  0  0  0  0  0
  1  2  1  0  0  0  0
  1 17  1  0  0  0  0
  1 18  1  0  0  0  0
  1 19  1  0  0  0  0
  2  3  1  0  0  0  0
  3  4  1  0  0  0  0
  3 20  1  0  0  0  0
  3 21  1  0  0  0  0
  4  5  1  0  0  0  0
  4 22  1  0  0  0  0
  4 23  1  0  0  0  0
  5  6  1  0  0  0  0
  6 11  1  0  0  0  0
  6  7  2  0  0  0  0
  7  8  1  0  0  0  0
  8  9  2  0  0  0  0
  8 24  1  0  0  0  0
  9 10  1  0  0  0  0
  9 25  1  0  0  0  0
 10 11  2  0  0  0  0
 10 26  1  0  0  0  0
 11 12  1  0  0  0  0
 12 13  1  0  0  0  0
 12 27  1  0  0  0  0
 13 16  1  0  0  0  0
 13 14  1  0  0  0  0
 13 28  1  0  0  0  0
 14 15  1  0  0  0  0
 14 29  1  0  0  0  0
 14 30  1  0  0  0  0
 15 16  1  0  0  0  0
 15 31  1  0  0  0  0
 15 32  1  0  0  0  0
 16 33  1  0  0  0  0
 16 34  1  0  0  0  0
M  END
> <s_m_source_file>
AV-unprocessed.smi

> <i_m_source_file_index>
3192

> <i_lp_mmshare_version>
43012

> <i_f3d_flags>
0

> <s_epik_input>
W0NIM11PW0NIMl1bQ0gyXU9jMW5bY0hdW2NIXVtjSF1jMVtOSF1bQ0hdMltDSDJdW0NIMl1bQ0gyXTI=

> <s_epik_cmdline>
J2VwaWtfcHl0aG9uJywgJy1waCcsICc3LjAnLCAnLXRuJywgJzgnLCAnLW1hJywgJzIwMCcsICctbWV0YWxfYmluZGluZycsICctaW1hZScsICc8aW5maWxlLm1hZT4nLCAnLW9tYWUnLCAnPG91dGZpbGUubWFlPic=

> <r_lp_tautomer_probability>
1

> <r_epik_Ionization_Penalty>
0.000851536

> <r_epik_Ionization_Penalty_Charging>
0

> <r_epik_Ionization_Penalty_Neutral>
0.000851536

> <r_epik_State_Penalty>
0.000481084

> <r_epik_Charging_Adjusted_Penalty>
0.000481084

> <i_epik_Tot_Q>
0

> <i_epik_Tot_abs_Q>
0

> <r_epik_Metal_State_Penalty>
-0

> <b_epik_Metal_Only>
0

> <s_lp_Force_Field>
OPLS_2005

> <r_lp_Energy>
16.6159

> <b_lp_Chiralities_Consistent>
1

> <s_lp_Variant>
AV-unprocessed.smi:3192-1

> <Gold.Version>
5.8.1

> <Gold.Id.Protein>
6NUR|6NUR_protein|mol2

> <Gold.PLP.Fitness>
40.8889

> <Gold.PLP.PLP>
-36.1336

> <Gold.PLP.part.hbond>
-2.0000

> <Gold.PLP.part.metal>
0.0000

> <Gold.PLP.part.buried>
-3.6249

> <Gold.PLP.part.nonpolar>
-31.0893

> <Gold.PLP.part.repulsive>
0.0807

> <Gold.PLP.ligand.clash>
0.0000

> <Gold.PLP.ligand.torsion>
0.7484

> <Gold.PLP.Chemscore.Hbond>
2.0000

> <Gold.PLP.Chemscore.CHOScore>
0.0000

> <Gold.PLP.Chemscore.Metal>
0.0000

> <Gold.Chemscore.Hbonds>
donor molecule, donor type, donor heavy atom, donor atom, acceptor molecule, acceptor atom, score
      P1  H  7997  8009       L1     5  0.90
      P1  H 10752 10765       L1     2  0.85

> <Gold.PLP.Chemscore.Internal.Correction>
0.2521

> <Gold.Rescore>
     Score         DG    S(hbond)    S(metal)    S(lipo)     H(rot)  DE(clash)    DE(int)     intcor
     16.46     -17.43       1.21        0.00     103.42       1.64       0.04       0.94       ----

> <Gold.Chemscore.Fitness>
16.4577

> <Gold.Chemscore.DG>
-17.4315

> <Gold.Chemscore.ZeroCoef>
-5.4800

> <Gold.Chemscore.Hbond>
1.2147

> <Gold.Chemscore.Metal>
0.0000

> <Gold.Chemscore.Lipo>
103.4211

> <Gold.Chemscore.Internal_Hbond>
0.0000

> <Gold.Chemscore.DEClash>
0.0382

> <Gold.Chemscore.DEInternal>
0.9356

> <Gold.Chemscore.Rot>
1.6430

> <Gold.Chemscore.Internal.Correction>
   9.000000E+99

> <Gold.Chemscore.Hbonds>
donor molecule, donor type, donor heavy atom, donor atom, acceptor molecule, acceptor atom, score
      P1  H  7997  8009       L1     5  0.09
      P1  H 10752 10765       L1     2  0.14

> <Gold.Chemscore.Hbond.Weighted>
-4.0571

> <Gold.Chemscore.Metal.Weighted>
-0.0000

> <Gold.Chemscore.Lipo.Weighted>
-12.1003

> <Gold.Chemscore.Internal_Hbond.Weighted>
0.0000

> <Gold.Chemscore.DEClash.Weighted>
0.0382

> <Gold.Chemscore.DEInternal.Weighted>
0.9356

> <Gold.Chemscore.Rot.Weighted>
4.2060

> <Gold.Chemscore.Internal.Correction.Weighted>
   9.000000E+99

> <Gold.Protein.RotatedTorsions>
[ 6907 6896 6895 6894 ] final  130.71 input  -60.11 | X-H torsion
[ 7974 7965 7964 7962 ] final -166.01 input  175.53 | X-H torsion
[ 8008 7997 7996 7995 ] final  149.77 input   59.86 | X-H torsion
[ 10167 10162 10161 10158 ] final  146.12 input  -65.29 | X-H torsion
[ 10718 10713 10712 10709 ] final -113.58 input   66.30 | X-H torsion
[ 10763 10752 10751 10750 ] final -139.03 input  -60.55 | X-H torsion
[ 11005 11000 10999 10996 ] final   57.74 input  -57.11 | X-H torsion

> <Gold.Protein.ActiveResidues>
 VAL166  LYS551  ARG553  GLY616  TRP617  ASP618  TYR619  PRO620  LYS621  CYS622 
 ASP623  PHE694  ASN695  SER759  ASP760  ASP761  ALA762  ILE779  LEU786  VAL792 
 PHE793  MET794  SER795  GLU796  ALA797  LYS798  CYS799  TRP800  GLU811  SER814 

> <Gold.Protein.RotatedAtoms>
  152.3499  133.6166  159.5936 H   0  0  0  0  0  0  0  0  0  0  0  0  # atno 6907 bound_to 6896
  150.7531  133.9591  159.3519 H   0  0  0  0  0  0  0  0  0  0  0  0  # atno 6908 bound_to 6896
  151.7444  135.0848  160.0372 H   0  0  0  0  0  0  0  0  0  0  0  0  # atno 6909 bound_to 6896
  144.7256  140.2730  143.6248 H   0  0  0  0  0  0  0  0  0  0  0  0  # atno 7974 bound_to 7965
  156.2742  140.2093  156.5911 H   0  0  0  0  0  0  0  0  0  0  0  0  # atno 8008 bound_to 7997
  154.6982  140.0523  157.0455 H   0  0  0  0  0  0  0  0  0  0  0  0  # atno 8009 bound_to 7997
  155.0772  140.3183  155.4615 H   0  0  0  0  0  0  0  0  0  0  0  0  # atno 8010 bound_to 7997
  139.4913  144.5852  151.6792 H   0  0  0  0  0  0  0  0  0  0  0  0  # atno 10167 bound_to 10162
  156.0775  130.5980  150.8661 H   0  0  0  0  0  0  0  0  0  0  0  0  # atno 10718 bound_to 10713
  154.8621  135.3594  154.5480 H   0  0  0  0  0  0  0  0  0  0  0  0  # atno 10763 bound_to 10752
  153.6099  135.7010  153.5356 H   0  0  0  0  0  0  0  0  0  0  0  0  # atno 10764 bound_to 10752
  153.3218  135.4149  155.1384 H   0  0  0  0  0  0  0  0  0  0  0  0  # atno 10765 bound_to 10752
  140.0430  134.5846  155.9358 H   0  0  0  0  0  0  0  0  0  0  0  0  # atno 11005 bound_to 11000
  145.8024  139.1970  143.2040 LP  0  0  0  0  0  0  0  0  0  0  0  0  # atno 17320 bound_to 7965
  146.0665  140.7915  142.9709 LP  0  0  0  0  0  0  0  0  0  0  0  0  # atno 17321 bound_to 7965
  140.5467  144.0492  150.6110 LP  0  0  0  0  0  0  0  0  0  0  0  0  # atno 17342 bound_to 10162
  140.3532  143.2951  152.0464 LP  0  0  0  0  0  0  0  0  0  0  0  0  # atno 17343 bound_to 10162
  157.5878  131.0945  150.9169 LP  0  0  0  0  0  0  0  0  0  0  0  0  # atno 17370 bound_to 10713
  156.9351  130.5364  149.5279 LP  0  0  0  0  0  0  0  0  0  0  0  0  # atno 17371 bound_to 10713
  141.1893  133.6565  156.5360 LP  0  0  0  0  0  0  0  0  0  0  0  0  # atno 17394 bound_to 11000
  140.4039  134.7332  157.4796 LP  0  0  0  0  0  0  0  0  0  0  0  0  # atno 17395 bound_to 11000

$$$$
