AV-unprocessed.smi:678|AV-procd|sdf|3317|dock7
  -GOLD-   22720 0283D 1   1.00000     0.00000
 Structure written by MMmdl.
 50 51  0  0  0  0  0  0  0  0  1 V2000
  147.4540  135.9434  163.1391 C   0  0  0  0  0  0  0  0  0  0  0  0
  147.6390  135.1649  161.8482 C   0  0  0  0  0  0  0  0  0  0  0  0
  147.5264  133.8192  161.8143 C   0  0  0  0  0  0  0  0  0  0  0  0
  147.7043  133.0871  160.5842 C   0  0  0  0  0  0  0  0  0  0  0  0
  147.9812  133.7794  159.4705 C   0  0  0  0  0  0  0  0  0  0  0  0
  148.0981  135.1821  159.4767 N   0  0  0  0  0  0  0  0  0  0  0  0
  148.4142  135.8206  158.1852 C   0  0  0  0  0  0  0  0  0  0  0  0
  149.8271  136.4229  158.1004 C   0  0  0  0  0  0  0  0  0  0  0  0
  150.6314  135.9521  157.2971 O   0  0  0  0  0  0  0  0  0  0  0  0
  150.1400  137.4218  158.9422 N   0  0  0  0  0  0  0  0  0  0  0  0
  151.4687  137.9947  159.1204 C   0  0  0  0  0  0  0  0  0  0  0  0
  151.7679  139.0380  158.0295 C   0  0  2  0  0  0  0  0  0  0  0  0
  151.3410  140.4652  158.4359 C   0  0  0  0  0  0  0  0  0  0  0  0
  151.5882  141.4342  157.3729 N   0  0  0  0  0  0  0  0  0  0  0  0
  151.1826  142.7930  157.7372 C   0  0  0  0  0  0  0  0  0  0  0  0
  152.2102  143.6114  158.5505 C   0  0  0  0  0  0  0  0  0  0  0  0
  152.6238  142.8496  159.8174 C   0  0  0  0  0  0  0  0  0  0  0  0
  151.6845  145.0110  158.9091 C   0  0  0  0  0  0  0  0  0  0  0  0
  150.9074  140.9902  156.1617 C   0  0  0  0  0  0  0  0  0  0  0  0
  151.3188  139.5636  155.7592 C   0  0  0  0  0  0  0  0  0  0  0  0
  151.0723  138.6709  156.8417 O   0  0  0  0  0  0  0  0  0  0  0  0
  147.9487  135.9206  160.6199 C   0  0  0  0  0  0  0  0  0  0  0  0
  148.0770  137.1460  160.6151 O   0  0  0  0  0  0  0  0  0  0  0  0
  147.2317  135.2811  163.9765 H   0  0  0  0  0  0  0  0  0  0  0  0
  146.6305  136.6518  163.0424 H   0  0  0  0  0  0  0  0  0  0  0  0
  148.3599  136.4999  163.3819 H   0  0  0  0  0  0  0  0  0  0  0  0
  147.2996  133.2745  162.7195 H   0  0  0  0  0  0  0  0  0  0  0  0
  147.6232  132.0101  160.5621 H   0  0  0  0  0  0  0  0  0  0  0  0
  148.1387  133.3087  158.5105 H   0  0  0  0  0  0  0  0  0  0  0  0
  148.3067  135.0885  157.3833 H   0  0  0  0  0  0  0  0  0  0  0  0
  147.6922  136.6029  157.9455 H   0  0  0  0  0  0  0  0  0  0  0  0
  149.4162  137.7607  159.5592 H   0  0  0  0  0  0  0  0  0  0  0  0
  151.5653  138.4399  160.1120 H   0  0  0  0  0  0  0  0  0  0  0  0
  152.1977  137.1856  159.0723 H   0  0  0  0  0  0  0  0  0  0  0  0
  152.8394  139.0273  157.8196 H   0  0  0  0  0  0  0  0  0  0  0  0
  150.2832  140.4691  158.7034 H   0  0  0  0  0  0  0  0  0  0  0  0
  151.8916  140.7509  159.3305 H   0  0  0  0  0  0  0  0  0  0  0  0
  150.9609  143.3483  156.8245 H   0  0  0  0  0  0  0  0  0  0  0  0
  150.2439  142.7499  158.2918 H   0  0  0  0  0  0  0  0  0  0  0  0
  153.1160  143.7320  157.9578 H   0  0  0  0  0  0  0  0  0  0  0  0
  151.7735  142.6917  160.4814 H   0  0  0  0  0  0  0  0  0  0  0  0
  153.3843  143.3976  160.3744 H   0  0  0  0  0  0  0  0  0  0  0  0
  153.0400  141.8725  159.5700 H   0  0  0  0  0  0  0  0  0  0  0  0
  150.7691  144.9514  159.4983 H   0  0  0  0  0  0  0  0  0  0  0  0
  151.4686  145.5958  158.0144 H   0  0  0  0  0  0  0  0  0  0  0  0
  152.4194  145.5692  159.4897 H   0  0  0  0  0  0  0  0  0  0  0  0
  149.8271  141.0227  156.3120 H   0  0  0  0  0  0  0  0  0  0  0  0
  151.1280  141.6734  155.3408 H   0  0  0  0  0  0  0  0  0  0  0  0
  150.7493  139.2362  154.8896 H   0  0  0  0  0  0  0  0  0  0  0  0
  152.3737  139.5293  155.4829 H   0  0  0  0  0  0  0  0  0  0  0  0
  1  2  1  0  0  0  0
  1 24  1  0  0  0  0
  1 25  1  0  0  0  0
  1 26  1  0  0  0  0
  2 22  1  0  0  0  0
  2  3  2  0  0  0  0
  3  4  1  0  0  0  0
  3 27  1  0  0  0  0
  4  5  2  0  0  0  0
  4 28  1  0  0  0  0
  5  6  1  0  0  0  0
  5 29  1  0  0  0  0
  6  7  1  0  0  0  0
  6 22  1  0  0  0  0
  7  8  1  0  0  0  0
  7 30  1  0  0  0  0
  7 31  1  0  0  0  0
  8  9  2  0  0  0  0
  8 10  1  0  0  0  0
 10 11  1  0  0  0  0
 10 32  1  0  0  0  0
 11 12  1  0  0  0  0
 11 33  1  0  0  0  0
 11 34  1  0  0  0  0
 12 21  1  0  0  0  0
 12 13  1  0  0  0  0
 12 35  1  0  0  0  0
 13 14  1  0  0  0  0
 13 36  1  0  0  0  0
 13 37  1  0  0  0  0
 14 15  1  0  0  0  0
 14 19  1  0  0  0  0
 15 16  1  0  0  0  0
 15 38  1  0  0  0  0
 15 39  1  0  0  0  0
 16 17  1  0  0  0  0
 16 18  1  0  0  0  0
 16 40  1  0  0  0  0
 17 41  1  0  0  0  0
 17 42  1  0  0  0  0
 17 43  1  0  0  0  0
 18 44  1  0  0  0  0
 18 45  1  0  0  0  0
 18 46  1  0  0  0  0
 19 20  1  0  0  0  0
 19 47  1  0  0  0  0
 19 48  1  0  0  0  0
 20 21  1  0  0  0  0
 20 49  1  0  0  0  0
 20 50  1  0  0  0  0
 22 23  2  0  0  0  0
M  END
> <s_m_source_file>
AV-unprocessed.smi

> <i_m_source_file_index>
678

> <i_lp_mmshare_version>
43012

> <i_f3d_flags>
0

> <s_epik_input>
W0NIM11jMVtjSF1bY0hdW2NIXW4oYzE9TylbQ0gyXUMoPU8pW05IXVtDSDJdW0NAQEhdMltDSDJdTihbQ0gyXVtDSDJdTzIpW0NIMl1bQ0hdKFtDSDNdKVtDSDNd

> <s_epik_cmdline>
J2VwaWtfcHl0aG9uJywgJy1waCcsICc3LjAnLCAnLXRuJywgJzgnLCAnLW1hJywgJzIwMCcsICctbWV0YWxfYmluZGluZycsICctaW1hZScsICc8aW5maWxlLm1hZT4nLCAnLW9tYWUnLCAnPG91dGZpbGUubWFlPic=

> <r_lp_tautomer_probability>
1

> <r_epik_Ionization_Penalty>
1.11669

> <r_epik_Ionization_Penalty_Charging>
7.32459e-07

> <r_epik_Ionization_Penalty_Neutral>
1.11669

> <r_epik_State_Penalty>
1.17516

> <r_epik_Charging_Adjusted_Penalty>
1.17516

> <i_epik_Tot_Q>
0

> <i_epik_Tot_abs_Q>
0

> <r_epik_Metal_State_Penalty>
1.17513

> <b_epik_Metal_Only>
0

> <s_lp_Force_Field>
OPLS_2005

> <r_lp_Energy>
32.9221

> <b_lp_Chiralities_Consistent>
1

> <s_lp_Variant>
AV-unprocessed.smi:678-5

> <Gold.Version>
5.8.1

> <Gold.Id.Protein>
6NUR|6NUR_protein|mol2

> <Gold.PLP.Fitness>
49.9078

> <Gold.PLP.PLP>
-47.0264

> <Gold.PLP.part.hbond>
-2.4650

> <Gold.PLP.part.metal>
0.0000

> <Gold.PLP.part.buried>
-5.3337

> <Gold.PLP.part.nonpolar>
-40.2007

> <Gold.PLP.part.repulsive>
0.2089

> <Gold.PLP.ligand.clash>
0.0000

> <Gold.PLP.ligand.torsion>
0.9170

> <Gold.PLP.Chemscore.Hbond>
1.5520

> <Gold.PLP.Chemscore.CHOScore>
0.0000

> <Gold.PLP.Chemscore.Metal>
0.0000

> <Gold.Chemscore.Hbonds>
donor molecule, donor type, donor heavy atom, donor atom, acceptor molecule, acceptor atom, score
      P1  H  6931  6943       L1    23  0.82
      P1  H  6934  6947       L1    23  0.62

> <Gold.PLP.Chemscore.Internal.Correction>
0.0595

> <Gold.Rescore>
     Score         DG    S(hbond)    S(metal)    S(lipo)     H(rot)  DE(clash)    DE(int)     intcor
     14.42     -19.71       1.58        0.00     116.35       1.82       0.03       5.26       ----

> <Gold.Chemscore.Fitness>
14.4223

> <Gold.Chemscore.DG>
-19.7099

> <Gold.Chemscore.ZeroCoef>
-5.4800

> <Gold.Chemscore.Hbond>
1.5830

> <Gold.Chemscore.Metal>
0.0000

> <Gold.Chemscore.Lipo>
116.3487

> <Gold.Chemscore.Internal_Hbond>
0.0000

> <Gold.Chemscore.DEClash>
0.0263

> <Gold.Chemscore.DEInternal>
5.2614

> <Gold.Chemscore.Rot>
1.8243

> <Gold.Chemscore.Internal.Correction>
   9.000000E+99

> <Gold.Chemscore.Hbonds>
donor molecule, donor type, donor heavy atom, donor atom, acceptor molecule, acceptor atom, score
      P1  H  6931  6943       L1    23  0.81
      P1  H  6934  6947       L1    23  0.61

> <Gold.Chemscore.Hbond.Weighted>
-5.2874

> <Gold.Chemscore.Metal.Weighted>
-0.0000

> <Gold.Chemscore.Lipo.Weighted>
-13.6128

> <Gold.Chemscore.Internal_Hbond.Weighted>
0.0000

> <Gold.Chemscore.DEClash.Weighted>
0.0263

> <Gold.Chemscore.DEInternal.Weighted>
5.2614

> <Gold.Chemscore.Rot.Weighted>
4.6703

> <Gold.Chemscore.Internal.Correction.Weighted>
   9.000000E+99

> <Gold.Protein.RotatedTorsions>
[ 6907 6896 6895 6894 ] final  -56.33 input  -60.11 | X-H torsion
[ 7974 7965 7964 7962 ] final   48.19 input  175.53 | X-H torsion
[ 8008 7997 7996 7995 ] final   80.32 input   59.86 | X-H torsion
[ 10167 10162 10161 10158 ] final  151.93 input  -65.29 | X-H torsion
[ 10718 10713 10712 10709 ] final   56.39 input   66.30 | X-H torsion
[ 10763 10752 10751 10750 ] final  -39.00 input  -60.55 | X-H torsion
[ 11005 11000 10999 10996 ] final  157.86 input  -57.11 | X-H torsion

> <Gold.Protein.ActiveResidues>
 VAL166  LYS551  ARG553  GLY616  TRP617  ASP618  TYR619  PRO620  LYS621  CYS622 
 ASP623  PHE694  ASN695  SER759  ASP760  ASP761  ALA762  ILE779  LEU786  VAL792 
 PHE793  MET794  SER795  GLU796  ALA797  LYS798  CYS799  TRP800  GLU811  SER814 

> <Gold.Protein.RotatedAtoms>
  150.8176  134.7367  159.6743 H   0  0  0  0  0  0  0  0  0  0  0  0  # atno 6907 bound_to 6896
  152.4294  134.5803  159.9956 H   0  0  0  0  0  0  0  0  0  0  0  0  # atno 6908 bound_to 6896
  151.5996  133.3320  159.3080 H   0  0  0  0  0  0  0  0  0  0  0  0  # atno 6909 bound_to 6896
  146.0227  139.4670  142.9887 H   0  0  0  0  0  0  0  0  0  0  0  0  # atno 7974 bound_to 7965
  155.8818  140.3443  155.5893 H   0  0  0  0  0  0  0  0  0  0  0  0  # atno 8008 bound_to 7997
  155.7711  140.0845  157.2127 H   0  0  0  0  0  0  0  0  0  0  0  0  # atno 8009 bound_to 7997
  154.4025  140.1518  156.2930 H   0  0  0  0  0  0  0  0  0  0  0  0  # atno 8010 bound_to 7997
  139.4836  144.5400  151.7581 H   0  0  0  0  0  0  0  0  0  0  0  0  # atno 10167 bound_to 10162
  157.5426  130.8708  149.8845 H   0  0  0  0  0  0  0  0  0  0  0  0  # atno 10718 bound_to 10713
  153.9222  135.6781  153.4747 H   0  0  0  0  0  0  0  0  0  0  0  0  # atno 10763 bound_to 10752
  153.1023  135.4822  154.8885 H   0  0  0  0  0  0  0  0  0  0  0  0  # atno 10764 bound_to 10752
  154.7472  135.3175  154.8580 H   0  0  0  0  0  0  0  0  0  0  0  0  # atno 10765 bound_to 10752
  140.1810  134.8475  157.2803 H   0  0  0  0  0  0  0  0  0  0  0  0  # atno 11005 bound_to 11000
  145.7167  141.0088  143.1424 LP  0  0  0  0  0  0  0  0  0  0  0  0  # atno 17320 bound_to 7965
  144.6996  139.8822  143.7448 LP  0  0  0  0  0  0  0  0  0  0  0  0  # atno 17321 bound_to 7965
  140.4938  144.1271  150.5956 LP  0  0  0  0  0  0  0  0  0  0  0  0  # atno 17342 bound_to 10162
  140.4141  143.2643  151.9797 LP  0  0  0  0  0  0  0  0  0  0  0  0  # atno 17343 bound_to 10162
  156.0509  130.3718  150.1203 LP  0  0  0  0  0  0  0  0  0  0  0  0  # atno 17370 bound_to 10713
  156.9381  130.9735  151.3521 LP  0  0  0  0  0  0  0  0  0  0  0  0  # atno 17371 bound_to 10713
  140.2267  134.3958  155.7540 LP  0  0  0  0  0  0  0  0  0  0  0  0  # atno 17394 bound_to 11000
  141.2223  133.7194  156.8576 LP  0  0  0  0  0  0  0  0  0  0  0  0  # atno 17395 bound_to 11000

$$$$
