AV-unprocessed.smi:682|AV-procd|sdf|3327|dock5
  -GOLD-   22720 0293D 1   1.00000     0.00000
 Structure written by MMmdl.
 41 42  0  0  0  0  0  0  0  0  1 V2000
  146.5043  142.8341  154.1798 C   0  0  0  0  0  0  0  0  0  0  0  0
  146.8148  141.6239  154.8592 O   0  0  0  0  0  0  0  0  0  0  0  0
  147.8486  140.8015  154.3004 C   0  0  2  0  0  0  0  0  0  0  0  0
  149.2151  141.4842  154.4388 C   0  0  0  0  0  0  0  0  0  0  0  0
  147.4115  140.2578  152.9263 C   0  0  0  0  0  0  0  0  0  0  0  0
  146.6659  139.1589  153.6810 C   0  0  1  0  0  0  0  0  0  0  0  0
  146.7365  137.8649  153.0106 N   0  0  0  0  0  0  0  0  0  0  0  0
  145.6666  137.1476  152.6421 C   0  0  0  0  0  0  0  0  0  0  0  0
  144.5061  137.5203  152.8150 O   0  0  0  0  0  0  0  0  0  0  0  0
  146.0285  135.9842  152.0771 N   0  0  0  0  0  0  0  0  0  0  0  0
  145.1740  134.9660  151.5834 C   0  0  0  0  0  0  0  0  0  0  0  0
  143.9856  134.5257  152.2221 C   0  0  0  0  0  0  0  0  0  0  0  0
  143.3957  133.5646  151.5272 N   0  0  0  0  0  0  0  0  0  0  0  0
  144.1895  133.3771  150.4449 N   0  0  0  0  0  0  0  0  0  0  0  0
  143.8238  132.3793  149.4625 C   0  0  0  0  0  0  0  0  0  0  0  0
  145.2863  134.2157  150.4470 C   0  0  0  0  0  0  0  0  0  0  0  0
  147.6712  139.3467  154.8466 C   0  0  0  0  0  0  0  0  0  0  0  0
  148.9314  138.4605  154.8248 C   0  0  0  0  0  0  0  0  0  0  0  0
  147.0918  139.2095  156.2590 C   0  0  0  0  0  0  0  0  0  0  0  0
  145.6011  143.2632  154.6135 H   0  0  0  0  0  0  0  0  0  0  0  0
  146.3191  142.6797  153.1172 H   0  0  0  0  0  0  0  0  0  0  0  0
  147.2976  143.5727  154.2939 H   0  0  0  0  0  0  0  0  0  0  0  0
  150.0265  140.8383  154.1052 H   0  0  0  0  0  0  0  0  0  0  0  0
  149.4187  141.7559  155.4746 H   0  0  0  0  0  0  0  0  0  0  0  0
  149.2833  142.3886  153.8346 H   0  0  0  0  0  0  0  0  0  0  0  0
  146.7684  140.9082  152.3342 H   0  0  0  0  0  0  0  0  0  0  0  0
  148.2487  139.8891  152.3309 H   0  0  0  0  0  0  0  0  0  0  0  0
  145.6506  139.4683  153.9405 H   0  0  0  0  0  0  0  0  0  0  0  0
  147.6558  137.4890  152.8305 H   0  0  0  0  0  0  0  0  0  0  0  0
  147.0186  135.8028  152.0014 H   0  0  0  0  0  0  0  0  0  0  0  0
  143.5396  134.8643  153.1457 H   0  0  0  0  0  0  0  0  0  0  0  0
  144.5645  132.3520  148.6628 H   0  0  0  0  0  0  0  0  0  0  0  0
  142.8506  132.6219  149.0349 H   0  0  0  0  0  0  0  0  0  0  0  0
  143.7748  131.3971  149.9335 H   0  0  0  0  0  0  0  0  0  0  0  0
  146.0237  134.1992  149.6582 H   0  0  0  0  0  0  0  0  0  0  0  0
  148.6966  137.4199  155.0512 H   0  0  0  0  0  0  0  0  0  0  0  0
  149.6644  138.7915  155.5611 H   0  0  0  0  0  0  0  0  0  0  0  0
  149.4259  138.4703  153.8534 H   0  0  0  0  0  0  0  0  0  0  0  0
  146.9345  138.1646  156.5283 H   0  0  0  0  0  0  0  0  0  0  0  0
  146.1248  139.7036  156.3537 H   0  0  0  0  0  0  0  0  0  0  0  0
  147.7546  139.6474  157.0057 H   0  0  0  0  0  0  0  0  0  0  0  0
  1  2  1  0  0  0  0
  1 20  1  0  0  0  0
  1 21  1  0  0  0  0
  1 22  1  0  0  0  0
  2  3  1  0  0  0  0
  3 17  1  0  0  0  0
  3  4  1  0  0  0  0
  3  5  1  0  0  0  0
  4 23  1  0  0  0  0
  4 24  1  0  0  0  0
  4 25  1  0  0  0  0
  5  6  1  0  0  0  0
  5 26  1  0  0  0  0
  5 27  1  0  0  0  0
  6  7  1  0  0  0  0
  6 17  1  0  0  0  0
  6 28  1  0  0  0  0
  7  8  1  0  0  0  0
  7 29  1  0  0  0  0
  8  9  2  0  0  0  0
  8 10  1  0  0  0  0
 10 11  1  0  0  0  0
 10 30  1  0  0  0  0
 11 16  2  0  0  0  0
 11 12  1  0  0  0  0
 12 13  2  0  0  0  0
 12 31  1  0  0  0  0
 13 14  1  0  0  0  0
 14 15  1  0  0  0  0
 14 16  1  0  0  0  0
 15 32  1  0  0  0  0
 15 33  1  0  0  0  0
 15 34  1  0  0  0  0
 16 35  1  0  0  0  0
 17 18  1  0  0  0  0
 17 19  1  0  0  0  0
 18 36  1  0  0  0  0
 18 37  1  0  0  0  0
 18 38  1  0  0  0  0
 19 39  1  0  0  0  0
 19 40  1  0  0  0  0
 19 41  1  0  0  0  0
M  END
> <s_m_source_file>
AV-unprocessed.smi

> <i_m_source_file_index>
682

> <i_lp_mmshare_version>
43012

> <i_f3d_flags>
0

> <s_epik_input>
W0NIM11PW0NAQF0xKFtDSDNdKVtDSDJdW0NASF0oQzEoW0NIM10pW0NIM10pW05IXUMoPU8pW05IXWMyW2NIXW5uKFtDSDNdKVtjSF0y

> <s_epik_cmdline>
J2VwaWtfcHl0aG9uJywgJy1waCcsICc3LjAnLCAnLXRuJywgJzgnLCAnLW1hJywgJzIwMCcsICctbWV0YWxfYmluZGluZycsICctaW1hZScsICc8aW5maWxlLm1hZT4nLCAnLW9tYWUnLCAnPG91dGZpbGUubWFlPic=

> <r_lp_tautomer_probability>
1

> <r_epik_Ionization_Penalty>
0.000192302

> <r_epik_Ionization_Penalty_Charging>
0

> <r_epik_Ionization_Penalty_Neutral>
0.000192302

> <r_epik_State_Penalty>
-0

> <r_epik_Charging_Adjusted_Penalty>
0

> <i_epik_Tot_Q>
0

> <i_epik_Tot_abs_Q>
0

> <r_epik_Metal_State_Penalty>
-0

> <b_epik_Metal_Only>
0

> <s_lp_Force_Field>
OPLS_2005

> <r_lp_Energy>
24.7984

> <b_lp_Chiralities_Consistent>
1

> <s_lp_Variant>
AV-unprocessed.smi:682-2

> <Gold.Version>
5.8.1

> <Gold.Id.Protein>
6NUR|6NUR_protein|mol2

> <Gold.PLP.Fitness>
37.0580

> <Gold.PLP.PLP>
-28.8606

> <Gold.PLP.part.hbond>
-2.0000

> <Gold.PLP.part.metal>
0.0000

> <Gold.PLP.part.buried>
-0.8871

> <Gold.PLP.part.nonpolar>
-26.2529

> <Gold.PLP.part.repulsive>
0.6893

> <Gold.PLP.ligand.clash>
0.0000

> <Gold.PLP.ligand.torsion>
0.5754

> <Gold.PLP.Chemscore.Hbond>
1.9913

> <Gold.PLP.Chemscore.CHOScore>
1.0000

> <Gold.PLP.Chemscore.Metal>
0.0000

> <Gold.Chemscore.Hbonds>
donor molecule, donor type, donor heavy atom, donor atom, acceptor molecule, acceptor atom, score
      L1  H     7    29       P1  7948  0.98
      L1  H    10    30       P1  7948  1.00
      L1  C    16    35       P1  7921  1.00

> <Gold.PLP.Chemscore.Internal.Correction>
0.3744

> <Gold.Rescore>
     Score         DG    S(hbond)    S(metal)    S(lipo)     H(rot)  DE(clash)    DE(int)     intcor
     15.24     -16.63       1.90        0.00      68.17       1.23       0.84       0.56       ----

> <Gold.Chemscore.Fitness>
15.2363

> <Gold.Chemscore.DG>
-16.6331

> <Gold.Chemscore.ZeroCoef>
-5.4800

> <Gold.Chemscore.Hbond>
1.8969

> <Gold.Chemscore.Metal>
0.0000

> <Gold.Chemscore.Lipo>
68.1671

> <Gold.Chemscore.Internal_Hbond>
0.0000

> <Gold.Chemscore.DEClash>
0.8367

> <Gold.Chemscore.DEInternal>
0.5601

> <Gold.Chemscore.Rot>
1.2336

> <Gold.Chemscore.Internal.Correction>
   9.000000E+99

> <Gold.Chemscore.Hbonds>
donor molecule, donor type, donor heavy atom, donor atom, acceptor molecule, acceptor atom, score
      L1  H     7    29       P1  7948  0.88
      L1  H    10    30       P1  7948  0.98

> <Gold.Chemscore.Hbond.Weighted>
-6.3356

> <Gold.Chemscore.Metal.Weighted>
-0.0000

> <Gold.Chemscore.Lipo.Weighted>
-7.9756

> <Gold.Chemscore.Internal_Hbond.Weighted>
0.0000

> <Gold.Chemscore.DEClash.Weighted>
0.8367

> <Gold.Chemscore.DEInternal.Weighted>
0.5601

> <Gold.Chemscore.Rot.Weighted>
3.1581

> <Gold.Chemscore.Internal.Correction.Weighted>
   9.000000E+99

> <Gold.Protein.RotatedTorsions>
[ 6907 6896 6895 6894 ] final  -92.55 input  -60.11 | X-H torsion
[ 7974 7965 7964 7962 ] final  148.02 input  175.53 | X-H torsion
[ 8008 7997 7996 7995 ] final   -5.80 input   59.86 | X-H torsion
[ 10167 10162 10161 10158 ] final -130.12 input  -65.29 | X-H torsion
[ 10718 10713 10712 10709 ] final  -16.66 input   66.30 | X-H torsion
[ 10763 10752 10751 10750 ] final  -99.02 input  -60.55 | X-H torsion
[ 11005 11000 10999 10996 ] final  142.96 input  -57.11 | X-H torsion

> <Gold.Protein.ActiveResidues>
 VAL166  LYS551  ARG553  GLY616  TRP617  ASP618  TYR619  PRO620  LYS621  CYS622 
 ASP623  PHE694  ASN695  SER759  ASP760  ASP761  ALA762  ILE779  LEU786  VAL792 
 PHE793  MET794  SER795  GLU796  ALA797  LYS798  CYS799  TRP800  GLU811  SER814 

> <Gold.Protein.RotatedAtoms>
  150.6908  134.2105  159.4357 H   0  0  0  0  0  0  0  0  0  0  0  0  # atno 6907 bound_to 6896
  152.0067  134.9896  160.0576 H   0  0  0  0  0  0  0  0  0  0  0  0  # atno 6908 bound_to 6896
  152.1527  133.4497  159.4858 H   0  0  0  0  0  0  0  0  0  0  0  0  # atno 6909 bound_to 6896
  144.8546  139.6101  143.5958 H   0  0  0  0  0  0  0  0  0  0  0  0  # atno 7974 bound_to 7965
  154.6002  140.2449  155.7802 H   0  0  0  0  0  0  0  0  0  0  0  0  # atno 8008 bound_to 7997
  156.2306  140.2968  156.0131 H   0  0  0  0  0  0  0  0  0  0  0  0  # atno 8009 bound_to 7997
  155.2223  140.0401  157.2940 H   0  0  0  0  0  0  0  0  0  0  0  0  # atno 8010 bound_to 7997
  139.9327  143.6254  152.2525 H   0  0  0  0  0  0  0  0  0  0  0  0  # atno 10167 bound_to 10162
  156.5844  130.4782  149.6306 H   0  0  0  0  0  0  0  0  0  0  0  0  # atno 10718 bound_to 10713
  154.7463  135.4987  153.9210 H   0  0  0  0  0  0  0  0  0  0  0  0  # atno 10763 bound_to 10752
  153.1096  135.6706  153.9533 H   0  0  0  0  0  0  0  0  0  0  0  0  # atno 10764 bound_to 10752
  153.9296  135.3079  155.3425 H   0  0  0  0  0  0  0  0  0  0  0  0  # atno 10765 bound_to 10752
  140.0517  134.9252  157.1028 H   0  0  0  0  0  0  0  0  0  0  0  0  # atno 11005 bound_to 11000
  146.2813  139.6884  142.9227 LP  0  0  0  0  0  0  0  0  0  0  0  0  # atno 17320 bound_to 7965
  145.4432  141.0424  143.2846 LP  0  0  0  0  0  0  0  0  0  0  0  0  # atno 17321 bound_to 7965
  139.6769  144.7658  151.1679 LP  0  0  0  0  0  0  0  0  0  0  0  0  # atno 17342 bound_to 10162
  140.7633  143.5782  150.8923 LP  0  0  0  0  0  0  0  0  0  0  0  0  # atno 17343 bound_to 10162
  156.2603  130.6958  151.1725 LP  0  0  0  0  0  0  0  0  0  0  0  0  # atno 17370 bound_to 10713
  157.7319  131.0604  150.5656 LP  0  0  0  0  0  0  0  0  0  0  0  0  # atno 17371 bound_to 10713
  140.3907  134.2187  155.7166 LP  0  0  0  0  0  0  0  0  0  0  0  0  # atno 17394 bound_to 11000
  141.1933  133.8153  157.0804 LP  0  0  0  0  0  0  0  0  0  0  0  0  # atno 17395 bound_to 11000

$$$$
