AV-unprocessed.smi:1036|AV-procd|sdf|4517|dock9
  -GOLD-   22720 2533D 1   1.00000     0.00000
 Structure written by MMmdl.
 42 44  0  0  0  0  0  0  0  0  2 V2000
  149.6171  140.0057  154.0292 O   0  0  0  0  0  0  0  0  0  0  0  0
  149.4261  138.8766  154.8545 C   0  0  0  0  0  0  0  0  0  0  0  0
  148.0586  138.2438  154.5668 C   0  0  0  0  0  0  0  0  0  0  0  0
  147.6972  137.2624  155.5772 N   0  0  0  0  0  0  0  0  0  0  0  0
  148.0159  135.9176  155.3628 C   0  0  0  0  0  0  0  0  0  0  0  0
  148.4878  135.3835  154.2045 N   0  3  0  0  0  0  0  0  0  0  0  0
  148.6860  134.0136  154.4006 C   0  0  0  0  0  0  0  0  0  0  0  0
  149.1545  133.0305  153.5344 C   0  0  0  0  0  0  0  0  0  0  0  0
  149.2416  131.7207  154.0503 C   0  0  0  0  0  0  0  0  0  0  0  0
  148.8703  131.4267  155.3786 C   0  0  0  0  0  0  0  0  0  0  0  0
  148.3949  132.4288  156.2497 C   0  0  0  0  0  0  0  0  0  0  0  0
  148.3113  133.7218  155.7343 C   0  0  0  0  0  0  0  0  0  0  0  0
  147.8979  134.9364  156.2948 N   0  0  0  0  0  0  0  0  0  0  0  0
  147.4424  134.9755  157.6923 C   0  0  0  0  0  0  0  0  0  0  0  0
  148.5290  134.5248  158.6879 C   0  0  1  0  0  0  0  0  0  0  0  0
  149.6828  135.3292  158.5289 O   0  0  0  0  0  0  0  0  0  0  0  0
  147.9984  134.5283  160.1151 C   0  0  0  0  0  0  0  0  0  0  0  0
  147.5713  135.7309  160.7224 C   0  0  0  0  0  0  0  0  0  0  0  0
  147.0706  135.7252  162.0387 C   0  0  0  0  0  0  0  0  0  0  0  0
  146.6645  136.8821  162.6134 F   0  0  0  0  0  0  0  0  0  0  0  0
  146.9898  134.5172  162.7563 C   0  0  0  0  0  0  0  0  0  0  0  0
  147.4057  133.3142  162.1552 C   0  0  0  0  0  0  0  0  0  0  0  0
  147.9059  133.3174  160.8383 C   0  0  0  0  0  0  0  0  0  0  0  0
  148.2914  132.1491  160.2704 F   0  0  0  0  0  0  0  0  0  0  0  0
  149.2967  139.8033  153.1633 H   0  0  0  0  0  0  0  0  0  0  0  0
  150.2400  138.1622  154.7240 H   0  0  0  0  0  0  0  0  0  0  0  0
  149.4611  139.2177  155.8897 H   0  0  0  0  0  0  0  0  0  0  0  0
  147.2978  139.0252  154.5802 H   0  0  0  0  0  0  0  0  0  0  0  0
  148.0390  137.7972  153.5715 H   0  0  0  0  0  0  0  0  0  0  0  0
  147.4283  137.5779  156.4985 H   0  0  0  0  0  0  0  0  0  0  0  0
  149.4406  133.2518  152.5166 H   0  0  0  0  0  0  0  0  0  0  0  0
  149.6014  130.9251  153.4140 H   0  0  0  0  0  0  0  0  0  0  0  0
  148.9517  130.4109  155.7374 H   0  0  0  0  0  0  0  0  0  0  0  0
  148.1143  132.1932  157.2658 H   0  0  0  0  0  0  0  0  0  0  0  0
  147.1242  135.9955  157.9119 H   0  0  0  0  0  0  0  0  0  0  0  0
  146.5517  134.3521  157.7789 H   0  0  0  0  0  0  0  0  0  0  0  0
  148.8362  133.5080  158.4418 H   0  0  0  0  0  0  0  0  0  0  0  0
  149.6082  135.8043  157.7153 H   0  0  0  0  0  0  0  0  0  0  0  0
  147.6211  136.6642  160.1810 H   0  0  0  0  0  0  0  0  0  0  0  0
  146.6055  134.5126  163.7657 H   0  0  0  0  0  0  0  0  0  0  0  0
  147.3380  132.3866  162.7041 H   0  0  0  0  0  0  0  0  0  0  0  0
  148.6621  135.9103  153.3586 H   0  0  0  0  0  0  0  0  0  0  0  0
  1  2  1  0  0  0  0
  1 25  1  0  0  0  0
  2  3  1  0  0  0  0
  2 26  1  0  0  0  0
  2 27  1  0  0  0  0
  3  4  1  0  0  0  0
  3 28  1  0  0  0  0
  3 29  1  0  0  0  0
  4  5  1  0  0  0  0
  4 30  1  0  0  0  0
  5 13  1  0  0  0  0
  5  6  2  0  0  0  0
  6  7  1  0  0  0  0
  6 42  1  0  0  0  0
  7 12  2  0  0  0  0
  7  8  1  0  0  0  0
  8  9  2  0  0  0  0
  8 31  1  0  0  0  0
  9 10  1  0  0  0  0
  9 32  1  0  0  0  0
 10 11  2  0  0  0  0
 10 33  1  0  0  0  0
 11 12  1  0  0  0  0
 11 34  1  0  0  0  0
 12 13  1  0  0  0  0
 13 14  1  0  0  0  0
 14 15  1  0  0  0  0
 14 35  1  0  0  0  0
 14 36  1  0  0  0  0
 15 16  1  0  0  0  0
 15 17  1  0  0  0  0
 15 37  1  0  0  0  0
 16 38  1  0  0  0  0
 17 23  1  0  0  0  0
 17 18  2  0  0  0  0
 18 19  1  0  0  0  0
 18 39  1  0  0  0  0
 19 20  1  0  0  0  0
 19 21  2  0  0  0  0
 21 22  1  0  0  0  0
 21 40  1  0  0  0  0
 22 23  2  0  0  0  0
 22 41  1  0  0  0  0
 23 24  1  0  0  0  0
M  CHG  1   6   1
M  END
> <s_m_source_file>
AV-unprocessed.smi

> <i_m_source_file_index>
1036

> <i_lp_mmshare_version>
43012

> <i_f3d_flags>
0

> <s_epik_input>
W09IXVtDSDJdW0NIMl1bTkhdYyhuMSluKGMoYzEyKVtjSF1bY0hdW2NIXVtjSF0yKVtDSDJdW0NASF0oW09IXSljM1tjSF1jKEYpW2NIXVtjSF1jM0Y=

> <s_epik_cmdline>
J2VwaWtfcHl0aG9uJywgJy1waCcsICc3LjAnLCAnLXRuJywgJzgnLCAnLW1hJywgJzIwMCcsICctbWV0YWxfYmluZGluZycsICctaW1hZScsICc8aW5maWxlLm1hZT4nLCAnLW9tYWUnLCAnPG91dGZpbGUubWFlPic=

> <r_epik_Ionization_Penalty>
0.0688114

> <r_epik_Ionization_Penalty_Charging>
0.0688055

> <r_epik_Ionization_Penalty_Neutral>
5.85933e-06

> <r_epik_State_Penalty>
0.0602293

> <r_epik_Charging_Adjusted_Penalty>
0.129035

> <i_epik_Tot_Q>
1

> <i_epik_Tot_abs_Q>
1

> <r_epik_Metal_State_Penalty>
2.77411

> <b_epik_Metal_Only>
0

> <s_lp_Force_Field>
OPLS_2005

> <r_lp_Energy>
24.5331

> <b_lp_Chiralities_Consistent>
1

> <s_lp_Variant>
AV-unprocessed.smi:1036-2

> <Gold.Version>
5.8.1

> <Gold.Id.Protein>
6NUR|6NUR_protein|mol2

> <Gold.PLP.Fitness>
52.1447

> <Gold.PLP.PLP>
-37.7587

> <Gold.PLP.part.hbond>
-3.9169

> <Gold.PLP.part.metal>
0.0000

> <Gold.PLP.part.buried>
-2.9733

> <Gold.PLP.part.nonpolar>
-31.3184

> <Gold.PLP.part.repulsive>
0.0000

> <Gold.PLP.ligand.clash>
0.0000

> <Gold.PLP.ligand.torsion>
0.2369

> <Gold.PLP.Chemscore.Hbond>
4.9440

> <Gold.PLP.Chemscore.CHOScore>
0.0000

> <Gold.PLP.Chemscore.Metal>
0.0000

> <Gold.Chemscore.Hbonds>
donor molecule, donor type, donor heavy atom, donor atom, acceptor molecule, acceptor atom, score
      L1  H     1    25       P1  7957  0.89
      L1  H     6    42       P1  7948  2.00
      P1  H  6896  6908       L1    16  0.75
      P1  H  7989  7998       L1     1  0.37

> <Gold.PLP.Chemscore.Internal.Correction>
0.0277

> <Gold.Rescore>
     Score         DG    S(hbond)    S(metal)    S(lipo)     H(rot)  DE(clash)    DE(int)     intcor
     16.72     -17.08       3.29        0.00      77.20       3.29       0.12       0.25       ----

> <Gold.Chemscore.Fitness>
16.7179

> <Gold.Chemscore.DG>
-17.0815

> <Gold.Chemscore.ZeroCoef>
-5.4800

> <Gold.Chemscore.Hbond>
3.2887

> <Gold.Chemscore.Metal>
0.0000

> <Gold.Chemscore.Lipo>
77.2042

> <Gold.Chemscore.Internal_Hbond>
0.0000

> <Gold.Chemscore.DEClash>
0.1166

> <Gold.Chemscore.DEInternal>
0.2469

> <Gold.Chemscore.Rot>
3.2874

> <Gold.Chemscore.Internal.Correction>
   9.000000E+99

> <Gold.Chemscore.Hbonds>
donor molecule, donor type, donor heavy atom, donor atom, acceptor molecule, acceptor atom, score
      L1  H     1    25       P1  7957  0.80
      L1  H     6    42       P1  7948  0.94
      P1  H  6896  6908       L1    16  0.09
      P1  H  7989  7998       L1     1  0.08

> <Gold.Chemscore.Hbond.Weighted>
-10.9844

> <Gold.Chemscore.Metal.Weighted>
-0.0000

> <Gold.Chemscore.Lipo.Weighted>
-9.0329

> <Gold.Chemscore.Internal_Hbond.Weighted>
0.0000

> <Gold.Chemscore.DEClash.Weighted>
0.1166

> <Gold.Chemscore.DEInternal.Weighted>
0.2469

> <Gold.Chemscore.Rot.Weighted>
8.4158

> <Gold.Chemscore.Internal.Correction.Weighted>
   9.000000E+99

> <Gold.Protein.RotatedTorsions>
[ 6907 6896 6895 6894 ] final  157.01 input  -60.11 | X-H torsion
[ 7974 7965 7964 7962 ] final    6.08 input  175.53 | X-H torsion
[ 8008 7997 7996 7995 ] final  166.61 input   59.86 | X-H torsion
[ 10167 10162 10161 10158 ] final   71.69 input  -65.29 | X-H torsion
[ 10718 10713 10712 10709 ] final  157.95 input   66.30 | X-H torsion
[ 10763 10752 10751 10750 ] final  -87.74 input  -60.55 | X-H torsion
[ 11005 11000 10999 10996 ] final  103.56 input  -57.11 | X-H torsion

> <Gold.Protein.ActiveResidues>
 VAL166  LYS551  ARG553  GLY616  TRP617  ASP618  TYR619  PRO620  LYS621  CYS622 
 ASP623  PHE694  ASN695  SER759  ASP760  ASP761  ALA762  ILE779  LEU786  VAL792 
 PHE793  MET794  SER795  GLU796  ALA797  LYS798  CYS799  TRP800  GLU811  SER814 

> <Gold.Protein.RotatedAtoms>
  152.0214  133.3900  159.4259 H   0  0  0  0  0  0  0  0  0  0  0  0  # atno 6907 bound_to 6896
  150.6890  134.3622  159.4964 H   0  0  0  0  0  0  0  0  0  0  0  0  # atno 6908 bound_to 6896
  152.1396  134.9072  160.0605 H   0  0  0  0  0  0  0  0  0  0  0  0  # atno 6909 bound_to 6896
  146.2437  140.0287  142.8391 H   0  0  0  0  0  0  0  0  0  0  0  0  # atno 7974 bound_to 7965
  156.1704  140.1639  156.8457 H   0  0  0  0  0  0  0  0  0  0  0  0  # atno 8008 bound_to 7997
  154.5251  140.0769  156.8277 H   0  0  0  0  0  0  0  0  0  0  0  0  # atno 8009 bound_to 7997
  155.3524  140.3391  155.4242 H   0  0  0  0  0  0  0  0  0  0  0  0  # atno 8010 bound_to 7997
  140.0434  144.5371  150.7417 H   0  0  0  0  0  0  0  0  0  0  0  0  # atno 10167 bound_to 10162
  157.1845  131.0640  151.2113 H   0  0  0  0  0  0  0  0  0  0  0  0  # atno 10718 bound_to 10713
  154.6369  135.5402  153.7744 H   0  0  0  0  0  0  0  0  0  0  0  0  # atno 10763 bound_to 10752
  153.0313  135.6449  154.1218 H   0  0  0  0  0  0  0  0  0  0  0  0  # atno 10764 bound_to 10752
  154.1145  135.2924  155.3203 H   0  0  0  0  0  0  0  0  0  0  0  0  # atno 10765 bound_to 10752
  139.8784  134.9267  156.5227 H   0  0  0  0  0  0  0  0  0  0  0  0  # atno 11005 bound_to 11000
  145.1174  140.9442  143.4620 LP  0  0  0  0  0  0  0  0  0  0  0  0  # atno 17320 bound_to 7965
  145.0515  139.3178  143.5926 LP  0  0  0  0  0  0  0  0  0  0  0  0  # atno 17321 bound_to 7965
  140.7250  143.2626  151.4152 LP  0  0  0  0  0  0  0  0  0  0  0  0  # atno 17342 bound_to 10162
  139.5999  144.1317  152.2186 LP  0  0  0  0  0  0  0  0  0  0  0  0  # atno 17343 bound_to 10162
  157.3921  130.7287  149.6705 LP  0  0  0  0  0  0  0  0  0  0  0  0  # atno 17370 bound_to 10713
  155.9720  130.4144  150.4129 LP  0  0  0  0  0  0  0  0  0  0  0  0  # atno 17371 bound_to 10713
  140.8438  133.8184  155.9101 LP  0  0  0  0  0  0  0  0  0  0  0  0  # atno 17394 bound_to 11000
  140.9211  134.2140  157.4926 LP  0  0  0  0  0  0  0  0  0  0  0  0  # atno 17395 bound_to 11000

$$$$
