AV-unprocessed.smi:2218|AV-procd|sdf|8976|dock2
  -GOLD-   2272012193D 1   1.00000     0.00000
 Structure written by MMmdl.
 32 32  0  0  0  0  0  0  0  0  2 V2000
  154.5775  140.8219  160.9257 C   0  0  0  0  0  0  0  0  0  0  0  0
  153.5686  141.8991  160.7202 C   0  0  0  0  0  0  0  0  0  0  0  0
  153.0407  142.1993  159.5308 N   0  0  0  0  0  0  0  0  0  0  0  0
  152.1218  143.2522  159.5993 C   0  0  0  0  0  0  0  0  0  0  0  0
  151.4268  143.7251  158.3529 C   0  0  0  0  0  0  0  0  0  0  0  0
  151.1861  142.5880  157.3507 C   0  0  0  0  0  0  0  0  0  0  0  0
  151.7903  141.5175  157.4370 O   0  0  0  0  0  0  0  0  0  0  0  0
  150.2926  142.8470  156.3838 N   0  0  0  0  0  0  0  0  0  0  0  0
  149.9380  141.9362  155.3016 C   0  0  0  0  0  0  0  0  0  0  0  0
  149.4902  140.5700  155.8453 C   0  0  0  0  0  0  0  0  0  0  0  0
  150.2653  139.4025  155.2191 C   0  0  0  0  0  0  0  0  0  0  0  0
  151.7011  139.2939  155.7701 C   0  0  0  0  0  0  0  0  0  0  0  0
  152.6198  138.4238  154.9022 C   0  0  0  0  0  0  0  0  0  0  0  0
  153.7169  138.9297  154.5800 O   0  0  0  0  0  0  0  0  0  0  0  0
  152.2328  137.2793  154.5759 O   0  5  0  0  0  0  0  0  0  0  0  0
  151.9548  143.7412  160.8720 C   0  0  0  0  0  0  0  0  0  0  0  0
  152.9570  142.9063  162.0265 S   0  0  0  0  0  0  0  0  0  0  0  0
  154.6101  140.1567  160.0621 H   0  0  0  0  0  0  0  0  0  0  0  0
  154.3227  140.2350  161.8081 H   0  0  0  0  0  0  0  0  0  0  0  0
  155.5653  141.2602  161.0685 H   0  0  0  0  0  0  0  0  0  0  0  0
  150.4691  144.1846  158.6004 H   0  0  0  0  0  0  0  0  0  0  0  0
  152.0208  144.4973  157.8626 H   0  0  0  0  0  0  0  0  0  0  0  0
  149.8390  143.7490  156.3858 H   0  0  0  0  0  0  0  0  0  0  0  0
  149.1592  142.3758  154.6760 H   0  0  0  0  0  0  0  0  0  0  0  0
  150.8142  141.8126  154.6647 H   0  0  0  0  0  0  0  0  0  0  0  0
  149.6214  140.5511  156.9280 H   0  0  0  0  0  0  0  0  0  0  0  0
  148.4240  140.4321  155.6609 H   0  0  0  0  0  0  0  0  0  0  0  0
  149.7256  138.4734  155.4081 H   0  0  0  0  0  0  0  0  0  0  0  0
  150.2940  139.5327  154.1361 H   0  0  0  0  0  0  0  0  0  0  0  0
  152.1431  140.2879  155.8489 H   0  0  0  0  0  0  0  0  0  0  0  0
  151.6826  138.8765  156.7774 H   0  0  0  0  0  0  0  0  0  0  0  0
  151.3101  144.5442  161.1965 H   0  0  0  0  0  0  0  0  0  0  0  0
  1  2  1  0  0  0  0
  1 18  1  0  0  0  0
  1 19  1  0  0  0  0
  1 20  1  0  0  0  0
  2 17  1  0  0  0  0
  2  3  2  0  0  0  0
  3  4  1  0  0  0  0
  4  5  1  0  0  0  0
  4 16  2  0  0  0  0
  5  6  1  0  0  0  0
  5 21  1  0  0  0  0
  5 22  1  0  0  0  0
  6  7  2  0  0  0  0
  6  8  1  0  0  0  0
  8  9  1  0  0  0  0
  8 23  1  0  0  0  0
  9 10  1  0  0  0  0
  9 24  1  0  0  0  0
  9 25  1  0  0  0  0
 10 11  1  0  0  0  0
 10 26  1  0  0  0  0
 10 27  1  0  0  0  0
 11 12  1  0  0  0  0
 11 28  1  0  0  0  0
 11 29  1  0  0  0  0
 12 13  1  0  0  0  0
 12 30  1  0  0  0  0
 12 31  1  0  0  0  0
 13 14  2  0  0  0  0
 13 15  1  0  0  0  0
 16 17  1  0  0  0  0
 16 32  1  0  0  0  0
M  CHG  1  15  -1
M  END
> <s_m_source_file>
AV-unprocessed.smi

> <i_m_source_file_index>
2218

> <i_lp_mmshare_version>
43012

> <i_f3d_flags>
0

> <s_epik_input>
W0NIM11jMW5jKFtjSF1zMSlbQ0gyXUMoPU8pW05IXVtDSDJdW0NIMl1bQ0gyXVtDSDJdQyg9TylbT0hd

> <s_epik_cmdline>
J2VwaWtfcHl0aG9uJywgJy1waCcsICc3LjAnLCAnLXRuJywgJzgnLCAnLW1hJywgJzIwMCcsICctbWV0YWxfYmluZGluZycsICctaW1hZScsICc8aW5maWxlLm1hZT4nLCAnLW9tYWUnLCAnPG91dGZpbGUubWFlPic=

> <r_epik_Ionization_Penalty>
0.0039764

> <r_epik_Ionization_Penalty_Charging>
0.00392012

> <r_epik_Ionization_Penalty_Neutral>
5.62812e-05

> <r_epik_State_Penalty>
0.00280293

> <r_epik_Charging_Adjusted_Penalty>
0.00672305

> <i_epik_Tot_Q>
-1

> <i_epik_Tot_abs_Q>
1

> <r_epik_Metal_State_Penalty>
-0

> <b_epik_Metal_Only>
0

> <s_lp_Force_Field>
OPLS_2005

> <r_lp_Energy>
1.59535

> <b_lp_Chiralities_Consistent>
1

> <s_lp_Variant>
AV-unprocessed.smi:2218-1

> <Gold.Version>
5.8.1

> <Gold.Id.Protein>
6NUR|6NUR_protein|mol2

> <Gold.PLP.Fitness>
50.1639

> <Gold.PLP.PLP>
-38.5115

> <Gold.PLP.part.hbond>
-2.7719

> <Gold.PLP.part.metal>
0.0000

> <Gold.PLP.part.buried>
-4.1472

> <Gold.PLP.part.nonpolar>
-32.1460

> <Gold.PLP.part.repulsive>
0.2138

> <Gold.PLP.ligand.clash>
0.0000

> <Gold.PLP.ligand.torsion>
1.1538

> <Gold.PLP.Chemscore.Hbond>
4.6400

> <Gold.PLP.Chemscore.CHOScore>
0.0000

> <Gold.PLP.Chemscore.Metal>
0.0000

> <Gold.Chemscore.Hbonds>
donor molecule, donor type, donor heavy atom, donor atom, acceptor molecule, acceptor atom, score
      L1  H     8    23       P1  8028  0.96
      P1  H  7997  8010       L1    14  2.00
      P1  H 10752 10765       L1    15  1.60

> <Gold.PLP.Chemscore.Internal.Correction>
0.0399

> <Gold.Rescore>
     Score         DG    S(hbond)    S(metal)    S(lipo)     H(rot)  DE(clash)    DE(int)     intcor
     12.51     -17.91       2.68        0.00      91.70       2.83       0.12       5.28       ----

> <Gold.Chemscore.Fitness>
12.5071

> <Gold.Chemscore.DG>
-17.9096

> <Gold.Chemscore.ZeroCoef>
-5.4800

> <Gold.Chemscore.Hbond>
2.6794

> <Gold.Chemscore.Metal>
0.0000

> <Gold.Chemscore.Lipo>
91.6980

> <Gold.Chemscore.Internal_Hbond>
0.0000

> <Gold.Chemscore.DEClash>
0.1219

> <Gold.Chemscore.DEInternal>
5.2806

> <Gold.Chemscore.Rot>
2.8313

> <Gold.Chemscore.Internal.Correction>
   9.000000E+99

> <Gold.Chemscore.Hbonds>
donor molecule, donor type, donor heavy atom, donor atom, acceptor molecule, acceptor atom, score
      L1  H     8    23       P1  8028  0.86
      P1  H  7997  8010       L1    14  0.91
      P1  H 10752 10765       L1    15  0.80

> <Gold.Chemscore.Hbond.Weighted>
-8.9491

> <Gold.Chemscore.Metal.Weighted>
-0.0000

> <Gold.Chemscore.Lipo.Weighted>
-10.7287

> <Gold.Chemscore.Internal_Hbond.Weighted>
0.0000

> <Gold.Chemscore.DEClash.Weighted>
0.1219

> <Gold.Chemscore.DEInternal.Weighted>
5.2806

> <Gold.Chemscore.Rot.Weighted>
7.2482

> <Gold.Chemscore.Internal.Correction.Weighted>
   9.000000E+99

> <Gold.Protein.RotatedTorsions>
[ 6907 6896 6895 6894 ] final   22.49 input  -60.11 | X-H torsion
[ 7974 7965 7964 7962 ] final  -17.14 input  175.53 | X-H torsion
[ 8008 7997 7996 7995 ] final  110.10 input   59.86 | X-H torsion
[ 10167 10162 10161 10158 ] final -112.99 input  -65.29 | X-H torsion
[ 10718 10713 10712 10709 ] final  130.95 input   66.30 | X-H torsion
[ 10763 10752 10751 10750 ] final  168.29 input  -60.55 | X-H torsion
[ 11005 11000 10999 10996 ] final  -60.57 input  -57.11 | X-H torsion

> <Gold.Protein.ActiveResidues>
 VAL166  LYS551  ARG553  GLY616  TRP617  ASP618  TYR619  PRO620  LYS621  CYS622 
 ASP623  PHE694  ASN695  SER759  ASP760  ASP761  ALA762  ILE779  LEU786  VAL792 
 PHE793  MET794  SER795  GLU796  ALA797  LYS798  CYS799  TRP800  GLU811  SER814 

> <Gold.Protein.RotatedAtoms>
  151.9279  135.0269  160.0526 H   0  0  0  0  0  0  0  0  0  0  0  0  # atno 6907 bound_to 6896
  152.2143  133.4930  159.5136 H   0  0  0  0  0  0  0  0  0  0  0  0  # atno 6908 bound_to 6896
  150.6984  134.1342  159.4124 H   0  0  0  0  0  0  0  0  0  0  0  0  # atno 6909 bound_to 6896
  146.1955  140.3736  142.8442 H   0  0  0  0  0  0  0  0  0  0  0  0  # atno 7974 bound_to 7965
  156.2028  140.3045  155.9563 H   0  0  0  0  0  0  0  0  0  0  0  0  # atno 8008 bound_to 7997
  155.2913  140.0442  157.3040 H   0  0  0  0  0  0  0  0  0  0  0  0  # atno 8009 bound_to 7997
  154.5593  140.2315  155.8369 H   0  0  0  0  0  0  0  0  0  0  0  0  # atno 8010 bound_to 7997
  140.1167  143.4479  152.1718 H   0  0  0  0  0  0  0  0  0  0  0  0  # atno 10167 bound_to 10162
  157.5014  131.1094  150.9422 H   0  0  0  0  0  0  0  0  0  0  0  0  # atno 10718 bound_to 10713
  154.3664  135.2753  155.2291 H   0  0  0  0  0  0  0  0  0  0  0  0  # atno 10763 bound_to 10752
  154.4457  135.5943  153.6162 H   0  0  0  0  0  0  0  0  0  0  0  0  # atno 10764 bound_to 10752
  152.9840  135.6029  154.3890 H   0  0  0  0  0  0  0  0  0  0  0  0  # atno 10765 bound_to 10752
  141.1292  133.6623  156.5243 H   0  0  0  0  0  0  0  0  0  0  0  0  # atno 11005 bound_to 11000
  144.8572  140.7087  143.6130 LP  0  0  0  0  0  0  0  0  0  0  0  0  # atno 17320 bound_to 7965
  145.3657  139.1671  143.4359 LP  0  0  0  0  0  0  0  0  0  0  0  0  # atno 17321 bound_to 7965
  139.5590  144.7393  151.4209 LP  0  0  0  0  0  0  0  0  0  0  0  0  # atno 17342 bound_to 10162
  140.6895  143.7894  150.7235 LP  0  0  0  0  0  0  0  0  0  0  0  0  # atno 17343 bound_to 10162
  157.0092  130.5630  149.5319 LP  0  0  0  0  0  0  0  0  0  0  0  0  # atno 17370 bound_to 10713
  156.0231  130.5326  150.8332 LP  0  0  0  0  0  0  0  0  0  0  0  0  # atno 17371 bound_to 10713
  140.4267  134.7139  157.4919 LP  0  0  0  0  0  0  0  0  0  0  0  0  # atno 17394 bound_to 11000
  140.0322  134.6389  155.9091 LP  0  0  0  0  0  0  0  0  0  0  0  0  # atno 17395 bound_to 11000

$$$$
