AV-unprocessed.smi:227|AV-procd|sdf|1734|dock6
  -GOLD-   2262020233D 1   1.00000     0.00000
 Structure written by MMmdl.
 54 58  0  0  0  0  0  0  0  0  1 V2000
  149.4704  135.6732  158.7393 O   0  0  0  0  0  0  0  0  0  0  0  0
  148.0709  135.8623  158.6984 C   0  0  0  0  0  0  0  0  0  0  0  0
  147.3269  134.8024  159.5515 C   0  0  1  0  0  0  0  0  0  0  0  0
  147.4069  133.3944  158.8898 C   0  0  0  0  0  0  0  0  0  0  0  0
  146.6579  133.2740  157.6468 N   0  0  0  0  0  0  0  0  0  0  0  0
  145.4585  132.6238  157.4702 C   0  0  0  0  0  0  0  0  0  0  0  0
  144.9811  132.6584  156.2572 N   0  0  0  0  0  0  0  0  0  0  0  0
  145.9257  133.3745  155.5307 C   0  0  0  0  0  0  0  0  0  0  0  0
  146.0438  133.7871  154.1691 C   0  0  0  0  0  0  0  0  0  0  0  0
  145.1256  133.5321  153.1949 N   0  0  0  0  0  0  0  0  0  0  0  0
  144.3957  134.6076  152.5385 C   0  0  1  0  0  0  0  0  0  0  0  0
  145.4459  135.2630  151.6203 C   0  0  0  0  0  0  0  0  0  0  0  0
  146.2840  134.0427  151.2095 C   0  0  0  0  0  0  0  0  0  0  0  0
  145.5456  132.9025  151.9489 C   0  0  2  0  0  0  0  0  0  0  0  0
  144.1822  132.5835  151.2944 C   0  0  2  0  0  0  0  0  0  0  0  0
  144.1776  132.2371  149.7932 C   0  0  0  0  0  0  0  0  0  0  0  0
  142.8584  132.0117  149.3441 O   0  0  0  0  0  0  0  0  0  0  0  0
  143.3821  133.8440  151.6665 C   0  0  0  0  0  0  0  0  0  0  0  0
  147.1706  134.4650  153.8236 N   0  0  0  0  0  0  0  0  0  0  0  0
  148.1048  134.7439  154.7354 C   0  0  0  0  0  0  0  0  0  0  0  0
  148.1171  134.4410  156.0330 N   0  0  0  0  0  0  0  0  0  0  0  0
  146.9981  133.7506  156.3918 C   0  0  0  0  0  0  0  0  0  0  0  0
  147.8213  134.7988  161.0329 C   0  0  2  0  0  0  0  0  0  0  0  0
  147.0793  133.8169  161.9358 C   0  0  0  0  0  0  0  0  0  0  0  0
  145.8531  134.6001  162.4057 C   0  0  0  0  0  0  0  0  0  0  0  0
  146.1747  135.9744  162.2270 O   0  0  0  0  0  0  0  0  0  0  0  0
  147.5309  136.0843  161.8214 C   0  0  0  0  0  0  0  0  0  0  0  0
  149.8790  136.3380  158.2060 H   0  0  0  0  0  0  0  0  0  0  0  0
  147.8313  136.8735  159.0261 H   0  0  0  0  0  0  0  0  0  0  0  0
  147.7945  135.7999  157.6485 H   0  0  0  0  0  0  0  0  0  0  0  0
  146.2739  135.0873  159.5584 H   0  0  0  0  0  0  0  0  0  0  0  0
  148.4392  133.1080  158.6972 H   0  0  0  0  0  0  0  0  0  0  0  0
  147.0385  132.6312  159.5756 H   0  0  0  0  0  0  0  0  0  0  0  0
  144.9412  132.1252  158.2770 H   0  0  0  0  0  0  0  0  0  0  0  0
  143.8965  135.3140  153.1987 H   0  0  0  0  0  0  0  0  0  0  0  0
  144.9989  135.7780  150.7694 H   0  0  0  0  0  0  0  0  0  0  0  0
  146.0553  135.9822  152.1692 H   0  0  0  0  0  0  0  0  0  0  0  0
  146.3480  133.9041  150.1316 H   0  0  0  0  0  0  0  0  0  0  0  0
  147.3042  134.1452  151.5815 H   0  0  0  0  0  0  0  0  0  0  0  0
  146.1567  132.0081  152.0740 H   0  0  0  0  0  0  0  0  0  0  0  0
  143.7468  131.7387  151.8316 H   0  0  0  0  0  0  0  0  0  0  0  0
  144.5969  133.0657  149.2220 H   0  0  0  0  0  0  0  0  0  0  0  0
  144.7934  131.3666  149.5704 H   0  0  0  0  0  0  0  0  0  0  0  0
  142.3459  132.7871  149.5150 H   0  0  0  0  0  0  0  0  0  0  0  0
  142.4937  133.5765  152.2403 H   0  0  0  0  0  0  0  0  0  0  0  0
  143.0595  134.4243  150.8011 H   0  0  0  0  0  0  0  0  0  0  0  0
  148.9646  135.2881  154.3734 H   0  0  0  0  0  0  0  0  0  0  0  0
  148.8930  134.5974  161.0479 H   0  0  0  0  0  0  0  0  0  0  0  0
  146.8109  132.8685  161.4756 H   0  0  0  0  0  0  0  0  0  0  0  0
  147.7067  133.5818  162.7969 H   0  0  0  0  0  0  0  0  0  0  0  0
  144.9791  134.3621  161.7985 H   0  0  0  0  0  0  0  0  0  0  0  0
  145.6119  134.3851  163.4470 H   0  0  0  0  0  0  0  0  0  0  0  0
  148.1517  136.1130  162.7187 H   0  0  0  0  0  0  0  0  0  0  0  0
  147.7154  137.0138  161.2885 H   0  0  0  0  0  0  0  0  0  0  0  0
  1  2  1  0  0  0  0
  1 28  1  0  0  0  0
  2  3  1  0  0  0  0
  2 29  1  0  0  0  0
  2 30  1  0  0  0  0
  3  4  1  0  0  0  0
  3 23  1  0  0  0  0
  3 31  1  0  0  0  0
  4  5  1  0  0  0  0
  4 32  1  0  0  0  0
  4 33  1  0  0  0  0
  5 22  1  0  0  0  0
  5  6  1  0  0  0  0
  6  7  2  0  0  0  0
  6 34  1  0  0  0  0
  7  8  1  0  0  0  0
  8 22  2  0  0  0  0
  8  9  1  0  0  0  0
  9 10  1  0  0  0  0
  9 19  2  0  0  0  0
 10 14  1  0  0  0  0
 10 11  1  0  0  0  0
 11 18  1  0  0  0  0
 11 12  1  0  0  0  0
 11 35  1  0  0  0  0
 12 13  1  0  0  0  0
 12 36  1  0  0  0  0
 12 37  1  0  0  0  0
 13 14  1  0  0  0  0
 13 38  1  0  0  0  0
 13 39  1  0  0  0  0
 14 15  1  0  0  0  0
 14 40  1  0  0  0  0
 15 16  1  0  0  0  0
 15 18  1  0  0  0  0
 15 41  1  0  0  0  0
 16 17  1  0  0  0  0
 16 42  1  0  0  0  0
 16 43  1  0  0  0  0
 17 44  1  0  0  0  0
 18 45  1  0  0  0  0
 18 46  1  0  0  0  0
 19 20  1  0  0  0  0
 20 21  2  0  0  0  0
 20 47  1  0  0  0  0
 21 22  1  0  0  0  0
 23 27  1  0  0  0  0
 23 24  1  0  0  0  0
 23 48  1  0  0  0  0
 24 25  1  0  0  0  0
 24 49  1  0  0  0  0
 24 50  1  0  0  0  0
 25 26  1  0  0  0  0
 25 51  1  0  0  0  0
 25 52  1  0  0  0  0
 26 27  1  0  0  0  0
 27 53  1  0  0  0  0
 27 54  1  0  0  0  0
M  END
> <s_m_source_file>
AV-unprocessed.smi

> <i_m_source_file_index>
227

> <i_lp_mmshare_version>
43012

> <i_f3d_flags>
0

> <s_epik_input>
W0NIMl0xT1tDSDJdW0NIMl1bQ0BIXTFbQ0BIXShbQ0gyXVtPSF0pW0NIMl1uKFtjSF1uMiljKGMyMyluW2NIXW5jM04oW0NASF00NSlbQ0BASF0oW0NIMl1bQ0gyXTQpW0NASF0oW0NIMl01KVtDSDJdW09IXQ==

> <s_epik_cmdline>
J2VwaWtfcHl0aG9uJywgJy1waCcsICc3LjAnLCAnLXRuJywgJzgnLCAnLW1hJywgJzIwMCcsICctbWV0YWxfYmluZGluZycsICctaW1hZScsICc8aW5maWxlLm1hZT4nLCAnLW9tYWUnLCAnPG91dGZpbGUubWFlPic=

> <r_lp_tautomer_probability>
1

> <r_epik_Ionization_Penalty>
0.0055791

> <r_epik_Ionization_Penalty_Charging>
0

> <r_epik_Ionization_Penalty_Neutral>
0.0055791

> <r_epik_State_Penalty>
0.00401299

> <r_epik_Charging_Adjusted_Penalty>
0.00401299

> <i_epik_Tot_Q>
0

> <i_epik_Tot_abs_Q>
0

> <r_epik_Metal_State_Penalty>
-0

> <b_epik_Metal_Only>
0

> <s_lp_Force_Field>
OPLS_2005

> <r_lp_Energy>
91.5897

> <b_lp_Chiralities_Consistent>
1

> <s_lp_Variant>
AV-unprocessed.smi:227-8

> <Gold.Version>
5.8.1

> <Gold.Id.Protein>
6NUR|6NUR_protein|mol2

> <Gold.PLP.Fitness>
46.4146

> <Gold.PLP.PLP>
-36.5311

> <Gold.PLP.part.hbond>
-3.9002

> <Gold.PLP.part.metal>
0.0000

> <Gold.PLP.part.buried>
-6.5684

> <Gold.PLP.part.nonpolar>
-26.7445

> <Gold.PLP.part.repulsive>
1.8759

> <Gold.PLP.ligand.clash>
0.0000

> <Gold.PLP.ligand.torsion>
0.4232

> <Gold.PLP.Chemscore.Hbond>
2.7591

> <Gold.PLP.Chemscore.CHOScore>
0.7684

> <Gold.PLP.Chemscore.Metal>
0.0000

> <Gold.Chemscore.Hbonds>
donor molecule, donor type, donor heavy atom, donor atom, acceptor molecule, acceptor atom, score
      L1  H    17    44       P1 10186  0.81
      P1  H  6896  6909       L1     1  1.00
      P1  H 10785 10796       L1    17  0.75
      L1  C    20    47       P1  7948  0.54

> <Gold.PLP.Chemscore.Internal.Correction>
0.1475

> <Gold.Rescore>
     Score         DG    S(hbond)    S(metal)    S(lipo)     H(rot)  DE(clash)    DE(int)     intcor
      9.44     -12.59       1.94        0.00      84.19       3.61       0.03       3.12       ----

> <Gold.Chemscore.Fitness>
9.4379

> <Gold.Chemscore.DG>
-12.5867

> <Gold.Chemscore.ZeroCoef>
-5.4800

> <Gold.Chemscore.Hbond>
1.9432

> <Gold.Chemscore.Metal>
0.0000

> <Gold.Chemscore.Lipo>
84.1941

> <Gold.Chemscore.Internal_Hbond>
0.0000

> <Gold.Chemscore.DEClash>
0.0291

> <Gold.Chemscore.DEInternal>
3.1197

> <Gold.Chemscore.Rot>
3.6071

> <Gold.Chemscore.Internal.Correction>
   9.000000E+99

> <Gold.Chemscore.Hbonds>
donor molecule, donor type, donor heavy atom, donor atom, acceptor molecule, acceptor atom, score
      L1  H    17    44       P1 10186  0.80
      P1  H  6896  6909       L1     1  0.74
      P1  H 10785 10796       L1    17  0.09

> <Gold.Chemscore.Hbond.Weighted>
-6.4902

> <Gold.Chemscore.Metal.Weighted>
-0.0000

> <Gold.Chemscore.Lipo.Weighted>
-9.8507

> <Gold.Chemscore.Internal_Hbond.Weighted>
0.0000

> <Gold.Chemscore.DEClash.Weighted>
0.0291

> <Gold.Chemscore.DEInternal.Weighted>
3.1197

> <Gold.Chemscore.Rot.Weighted>
9.2342

> <Gold.Chemscore.Internal.Correction.Weighted>
   9.000000E+99

> <Gold.Protein.RotatedTorsions>
[ 6907 6896 6895 6894 ] final   59.17 input  -60.11 | X-H torsion
[ 7974 7965 7964 7962 ] final  -66.29 input  175.53 | X-H torsion
[ 8008 7997 7996 7995 ] final -132.98 input   59.86 | X-H torsion
[ 10167 10162 10161 10158 ] final -157.24 input  -65.29 | X-H torsion
[ 10718 10713 10712 10709 ] final  130.48 input   66.30 | X-H torsion
[ 10763 10752 10751 10750 ] final   29.42 input  -60.55 | X-H torsion
[ 11005 11000 10999 10996 ] final  128.08 input  -57.11 | X-H torsion

> <Gold.Protein.ActiveResidues>
 VAL166  LYS551  ARG553  GLY616  TRP617  ASP618  TYR619  PRO620  LYS621  CYS622 
 ASP623  PHE694  ASN695  SER759  ASP760  ASP761  ALA762  ILE779  LEU786  VAL792 
 PHE793  MET794  SER795  GLU796  ALA797  LYS798  CYS799  TRP800  GLU811  SER814 

> <Gold.Protein.RotatedAtoms>
  152.3891  134.6471  160.0114 H   0  0  0  0  0  0  0  0  0  0  0  0  # atno 6907 bound_to 6896
  151.6710  133.3308  159.3204 H   0  0  0  0  0  0  0  0  0  0  0  0  # atno 6908 bound_to 6896
  150.7810  134.6799  159.6483 H   0  0  0  0  0  0  0  0  0  0  0  0  # atno 6909 bound_to 6896
  145.7436  140.8942  143.0517 H   0  0  0  0  0  0  0  0  0  0  0  0  # atno 7974 bound_to 7965
  155.3379  140.0470  157.3044 H   0  0  0  0  0  0  0  0  0  0  0  0  # atno 8008 bound_to 7997
  154.5293  140.2251  155.8799 H   0  0  0  0  0  0  0  0  0  0  0  0  # atno 8009 bound_to 7997
  156.1772  140.3082  155.9087 H   0  0  0  0  0  0  0  0  0  0  0  0  # atno 8010 bound_to 7997
  139.6786  143.9620  152.2324 H   0  0  0  0  0  0  0  0  0  0  0  0  # atno 10167 bound_to 10162
  157.5057  131.1095  150.9364 H   0  0  0  0  0  0  0  0  0  0  0  0  # atno 10718 bound_to 10713
  153.0431  135.6489  154.0888 H   0  0  0  0  0  0  0  0  0  0  0  0  # atno 10763 bound_to 10752
  154.0591  135.2889  155.3329 H   0  0  0  0  0  0  0  0  0  0  0  0  # atno 10764 bound_to 10752
  154.6669  135.5370  153.8154 H   0  0  0  0  0  0  0  0  0  0  0  0  # atno 10765 bound_to 10752
  139.9541  134.9616  156.8949 H   0  0  0  0  0  0  0  0  0  0  0  0  # atno 11005 bound_to 11000
  144.6865  139.9495  143.7477 LP  0  0  0  0  0  0  0  0  0  0  0  0  # atno 17320 bound_to 7965
  146.0424  139.3434  143.0689 LP  0  0  0  0  0  0  0  0  0  0  0  0  # atno 17321 bound_to 7965
  139.9404  144.6685  150.8272 LP  0  0  0  0  0  0  0  0  0  0  0  0  # atno 17342 bound_to 10162
  140.7644  143.3248  151.2540 LP  0  0  0  0  0  0  0  0  0  0  0  0  # atno 17343 bound_to 10162
  157.0020  130.5603  149.5312 LP  0  0  0  0  0  0  0  0  0  0  0  0  # atno 17370 bound_to 10713
  156.0257  130.5351  150.8400 LP  0  0  0  0  0  0  0  0  0  0  0  0  # atno 17371 bound_to 10713
  140.5649  134.0499  155.7411 LP  0  0  0  0  0  0  0  0  0  0  0  0  # atno 17394 bound_to 11000
  141.1210  133.9461  157.2729 LP  0  0  0  0  0  0  0  0  0  0  0  0  # atno 17395 bound_to 11000

$$$$
