AV-unprocessed.smi:2489|AV-procd|sdf|9798|dock9
  -GOLD-   2272013433D 1   1.00000     0.00000
 Structure written by MMmdl.
 33 34  0  0  0  0  0  0  0  0  1 V2000
  153.6214  141.7354  161.2517 C   0  0  0  0  0  0  0  0  0  0  0  0
  152.9752  141.3245  160.0559 O   0  0  0  0  0  0  0  0  0  0  0  0
  152.4897  142.3046  159.2177 C   0  0  0  0  0  0  0  0  0  0  0  0
  152.7150  143.6909  159.3897 C   0  0  0  0  0  0  0  0  0  0  0  0
  152.1573  144.5815  158.4541 C   0  0  0  0  0  0  0  0  0  0  0  0
  151.4178  144.1817  157.3998 N   0  0  0  0  0  0  0  0  0  0  0  0
  151.1913  142.8579  157.2196 C   0  0  0  0  0  0  0  0  0  0  0  0
  150.4259  142.3279  156.1476 N   0  0  0  0  0  0  0  0  0  0  0  0
  150.4728  141.0919  155.6137 C   0  0  0  0  0  0  0  0  0  0  0  0
  151.2426  140.2052  155.9847 O   0  0  0  0  0  0  0  0  0  0  0  0
  149.5074  140.8109  154.4480 C   0  0  1  0  0  0  0  0  0  0  0  0
  148.4151  139.7769  154.7902 C   0  0  0  0  0  0  0  0  0  0  0  0
  147.1132  140.5028  154.5018 C   0  0  0  0  0  0  0  0  0  0  0  0
  147.5050  141.9658  154.6680 C   0  0  2  0  0  0  0  0  0  0  0  0
  146.5699  142.9531  153.9622 C   0  0  0  0  0  0  0  0  0  0  0  0
  148.8001  142.0006  154.0882 O   0  0  0  0  0  0  0  0  0  0  0  0
  151.7149  141.8969  158.1127 C   0  0  0  0  0  0  0  0  0  0  0  0
  153.9474  140.8551  161.8055 H   0  0  0  0  0  0  0  0  0  0  0  0
  152.9457  142.2991  161.8965 H   0  0  0  0  0  0  0  0  0  0  0  0
  154.5056  142.3382  161.0402 H   0  0  0  0  0  0  0  0  0  0  0  0
  153.2963  144.0856  160.2090 H   0  0  0  0  0  0  0  0  0  0  0  0
  152.3093  145.6458  158.5553 H   0  0  0  0  0  0  0  0  0  0  0  0
  149.7491  142.9574  155.7411 H   0  0  0  0  0  0  0  0  0  0  0  0
  150.0918  140.4846  153.5873 H   0  0  0  0  0  0  0  0  0  0  0  0
  148.5087  138.8688  154.1940 H   0  0  0  0  0  0  0  0  0  0  0  0
  148.4430  139.4823  155.8405 H   0  0  0  0  0  0  0  0  0  0  0  0
  146.8039  140.3085  153.4737 H   0  0  0  0  0  0  0  0  0  0  0  0
  146.3008  140.2013  155.1636 H   0  0  0  0  0  0  0  0  0  0  0  0
  147.5846  142.2141  155.7279 H   0  0  0  0  0  0  0  0  0  0  0  0
  145.5650  142.9078  154.3822 H   0  0  0  0  0  0  0  0  0  0  0  0
  146.4983  142.7379  152.8956 H   0  0  0  0  0  0  0  0  0  0  0  0
  146.9311  143.9757  154.0719 H   0  0  0  0  0  0  0  0  0  0  0  0
  151.5254  140.8449  157.9545 H   0  0  0  0  0  0  0  0  0  0  0  0
  1  2  1  0  0  0  0
  1 18  1  0  0  0  0
  1 19  1  0  0  0  0
  1 20  1  0  0  0  0
  2  3  1  0  0  0  0
  3 17  1  0  0  0  0
  3  4  2  0  0  0  0
  4  5  1  0  0  0  0
  4 21  1  0  0  0  0
  5  6  2  0  0  0  0
  5 22  1  0  0  0  0
  6  7  1  0  0  0  0
  7  8  1  0  0  0  0
  7 17  2  0  0  0  0
  8  9  1  0  0  0  0
  8 23  1  0  0  0  0
  9 10  2  0  0  0  0
  9 11  1  0  0  0  0
 11 16  1  0  0  0  0
 11 12  1  0  0  0  0
 11 24  1  0  0  0  0
 12 13  1  0  0  0  0
 12 25  1  0  0  0  0
 12 26  1  0  0  0  0
 13 14  1  0  0  0  0
 13 27  1  0  0  0  0
 13 28  1  0  0  0  0
 14 15  1  0  0  0  0
 14 16  1  0  0  0  0
 14 29  1  0  0  0  0
 15 30  1  0  0  0  0
 15 31  1  0  0  0  0
 15 32  1  0  0  0  0
 17 33  1  0  0  0  0
M  END
> <s_m_source_file>
AV-unprocessed.smi

> <i_m_source_file_index>
2489

> <i_lp_mmshare_version>
43012

> <i_f3d_flags>
0

> <s_epik_input>
W0NIM11PYzFbY0hdW2NIXW5jKFtjSF0xKVtOSF1DKD1PKVtDQEBIXTJbQ0gyXVtDSDJdW0NASF0oTzIpW0NIM10=

> <s_epik_cmdline>
J2VwaWtfcHl0aG9uJywgJy1waCcsICc3LjAnLCAnLXRuJywgJzgnLCAnLW1hJywgJzIwMCcsICctbWV0YWxfYmluZGluZycsICctaW1hZScsICc8aW5maWxlLm1hZT4nLCAnLW9tYWUnLCAnPG91dGZpbGUubWFlPic=

> <r_epik_Ionization_Penalty>
0.0871917

> <r_epik_Ionization_Penalty_Charging>
0

> <r_epik_Ionization_Penalty_Neutral>
0.0871917

> <r_epik_State_Penalty>
0.146479

> <r_epik_Charging_Adjusted_Penalty>
0.146479

> <i_epik_Tot_Q>
0

> <i_epik_Tot_abs_Q>
0

> <r_epik_Metal_State_Penalty>
0.067489

> <b_epik_Metal_Only>
0

> <s_lp_Force_Field>
OPLS_2005

> <r_lp_Energy>
22.8638

> <b_lp_Chiralities_Consistent>
1

> <s_lp_Variant>
AV-unprocessed.smi:2489-4

> <Gold.Version>
5.8.1

> <Gold.Id.Protein>
6NUR|6NUR_protein|mol2

> <Gold.PLP.Fitness>
42.3577

> <Gold.PLP.PLP>
-38.6859

> <Gold.PLP.part.hbond>
-2.0000

> <Gold.PLP.part.metal>
0.0000

> <Gold.PLP.part.buried>
-5.5521

> <Gold.PLP.part.nonpolar>
-31.9900

> <Gold.PLP.part.repulsive>
0.7967

> <Gold.PLP.ligand.clash>
0.0000

> <Gold.PLP.ligand.torsion>
0.2470

> <Gold.PLP.Chemscore.Hbond>
1.3861

> <Gold.PLP.Chemscore.CHOScore>
0.0000

> <Gold.PLP.Chemscore.Metal>
0.0000

> <Gold.Chemscore.Hbonds>
donor molecule, donor type, donor heavy atom, donor atom, acceptor molecule, acceptor atom, score
      L1  H     8    23       P1  8028  1.00
      P1  H  8011  8017       L1    16  0.36

> <Gold.PLP.Chemscore.Internal.Correction>
0.0074

> <Gold.Rescore>
     Score         DG    S(hbond)    S(metal)    S(lipo)     H(rot)  DE(clash)    DE(int)     intcor
     13.20     -15.49       0.92        0.00      86.08       1.23       0.58       1.72       ----

> <Gold.Chemscore.Fitness>
13.1967

> <Gold.Chemscore.DG>
-15.4895

> <Gold.Chemscore.ZeroCoef>
-5.4800

> <Gold.Chemscore.Hbond>
0.9214

> <Gold.Chemscore.Metal>
0.0000

> <Gold.Chemscore.Lipo>
86.0825

> <Gold.Chemscore.Internal_Hbond>
0.0000

> <Gold.Chemscore.DEClash>
0.5757

> <Gold.Chemscore.DEInternal>
1.7171

> <Gold.Chemscore.Rot>
1.2264

> <Gold.Chemscore.Internal.Correction>
   9.000000E+99

> <Gold.Chemscore.Hbonds>
donor molecule, donor type, donor heavy atom, donor atom, acceptor molecule, acceptor atom, score
      L1  H     8    23       P1  8028  0.94
      P1  H  8011  8017       L1    16  0.08

> <Gold.Chemscore.Hbond.Weighted>
-3.0774

> <Gold.Chemscore.Metal.Weighted>
-0.0000

> <Gold.Chemscore.Lipo.Weighted>
-10.0717

> <Gold.Chemscore.Internal_Hbond.Weighted>
0.0000

> <Gold.Chemscore.DEClash.Weighted>
0.5757

> <Gold.Chemscore.DEInternal.Weighted>
1.7171

> <Gold.Chemscore.Rot.Weighted>
3.1396

> <Gold.Chemscore.Internal.Correction.Weighted>
   9.000000E+99

> <Gold.Protein.RotatedTorsions>
[ 6907 6896 6895 6894 ] final   30.01 input  -60.11 | X-H torsion
[ 7974 7965 7964 7962 ] final   34.77 input  175.53 | X-H torsion
[ 8008 7997 7996 7995 ] final   -8.23 input   59.86 | X-H torsion
[ 10167 10162 10161 10158 ] final  173.96 input  -65.29 | X-H torsion
[ 10718 10713 10712 10709 ] final -168.92 input   66.30 | X-H torsion
[ 10763 10752 10751 10750 ] final -176.40 input  -60.55 | X-H torsion
[ 11005 11000 10999 10996 ] final -136.31 input  -57.11 | X-H torsion

> <Gold.Protein.ActiveResidues>
 VAL166  LYS551  ARG553  GLY616  TRP617  ASP618  TYR619  PRO620  LYS621  CYS622 
 ASP623  PHE694  ASN695  SER759  ASP760  ASP761  ALA762  ILE779  LEU786  VAL792 
 PHE793  MET794  SER795  GLU796  ALA797  LYS798  CYS799  TRP800  GLU811  SER814 

> <Gold.Protein.RotatedAtoms>
  152.0397  134.9718  160.0573 H   0  0  0  0  0  0  0  0  0  0  0  0  # atno 6907 bound_to 6896
  152.1162  133.4323  159.4662 H   0  0  0  0  0  0  0  0  0  0  0  0  # atno 6908 bound_to 6896
  150.6846  134.2508  159.4553 H   0  0  0  0  0  0  0  0  0  0  0  0  # atno 6909 bound_to 6896
  146.1330  139.6227  142.9214 H   0  0  0  0  0  0  0  0  0  0  0  0  # atno 7974 bound_to 7965
  154.5762  140.2386  155.8120 H   0  0  0  0  0  0  0  0  0  0  0  0  # atno 8008 bound_to 7997
  156.2144  140.3016  155.9764 H   0  0  0  0  0  0  0  0  0  0  0  0  # atno 8009 bound_to 7997
  155.2623  140.0415  157.2989 H   0  0  0  0  0  0  0  0  0  0  0  0  # atno 8010 bound_to 7997
  139.5125  144.3202  152.0210 H   0  0  0  0  0  0  0  0  0  0  0  0  # atno 10167 bound_to 10162
  156.7039  130.9207  151.3082 H   0  0  0  0  0  0  0  0  0  0  0  0  # atno 10718 bound_to 10713
  154.5728  135.2829  155.0810 H   0  0  0  0  0  0  0  0  0  0  0  0  # atno 10763 bound_to 10752
  154.2176  135.6397  153.5138 H   0  0  0  0  0  0  0  0  0  0  0  0  # atno 10764 bound_to 10752
  153.0063  135.5506  154.6357 H   0  0  0  0  0  0  0  0  0  0  0  0  # atno 10765 bound_to 10752
  140.8817  134.1923  157.4586 H   0  0  0  0  0  0  0  0  0  0  0  0  # atno 11005 bound_to 11000
  145.5219  141.0431  143.2430 LP  0  0  0  0  0  0  0  0  0  0  0  0  # atno 17320 bound_to 7965
  144.7710  139.6735  143.7195 LP  0  0  0  0  0  0  0  0  0  0  0  0  # atno 17321 bound_to 7965
  140.2644  144.4033  150.6174 LP  0  0  0  0  0  0  0  0  0  0  0  0  # atno 17342 bound_to 10162
  140.6134  143.2171  151.6840 LP  0  0  0  0  0  0  0  0  0  0  0  0  # atno 17343 bound_to 10162
  157.6962  130.9284  150.0652 LP  0  0  0  0  0  0  0  0  0  0  0  0  # atno 17370 bound_to 10713
  156.1709  130.3646  149.9167 LP  0  0  0  0  0  0  0  0  0  0  0  0  # atno 17371 bound_to 10713
  139.8720  134.9820  156.5139 LP  0  0  0  0  0  0  0  0  0  0  0  0  # atno 17394 bound_to 11000
  140.8453  133.8174  155.9115 LP  0  0  0  0  0  0  0  0  0  0  0  0  # atno 17395 bound_to 11000

$$$$
