AV-unprocessed.smi:110|AV-procd|sdf|1077|dock1
  -GOLD-   2262018163D 1   1.00000     0.00000
 Structure written by MMmdl.
 46 50  0  0  0  0  0  0  0  0  1 V2000
  152.2926  132.8322  156.7657 O   0  0  0  0  0  0  0  0  0  0  0  0
  151.1962  133.1840  155.9488 C   0  0  0  0  0  0  0  0  0  0  0  0
  150.7195  134.6086  156.2845 C   0  0  1  0  0  0  0  0  0  0  0  0
  151.6927  135.5797  155.9010 O   0  0  0  0  0  0  0  0  0  0  0  0
  151.0813  136.7905  155.5653 C   0  0  2  0  0  0  0  0  0  0  0  0
  151.5534  137.8396  156.5242 N   0  0  0  0  0  0  0  0  0  0  0  0
  152.4378  137.6687  157.5653 C   0  0  0  0  0  0  0  0  0  0  0  0
  152.6937  138.7391  158.2657 N   0  0  0  0  0  0  0  0  0  0  0  0
  151.9088  139.7258  157.6818 C   0  0  0  0  0  0  0  0  0  0  0  0
  151.7010  141.1128  157.9314 C   0  0  0  0  0  0  0  0  0  0  0  0
  152.3114  141.8195  158.9107 N   0  0  0  0  0  0  0  0  0  0  0  0
  153.2878  141.1272  159.7646 C   0  0  0  0  0  0  0  0  0  0  0  0
  153.4135  141.9248  161.0765 C   0  0  0  0  0  0  0  0  0  0  0  0
  152.5018  143.0756  160.7990 C   0  0  0  0  0  0  0  0  0  0  0  0
  152.2396  144.1763  161.6330 C   0  0  0  0  0  0  0  0  0  0  0  0
  151.3530  145.1694  161.1641 C   0  0  0  0  0  0  0  0  0  0  0  0
  150.7589  145.0517  159.8859 C   0  0  0  0  0  0  0  0  0  0  0  0
  151.0386  143.9375  159.0645 C   0  0  0  0  0  0  0  0  0  0  0  0
  151.9104  142.9399  159.5472 C   0  0  0  0  0  0  0  0  0  0  0  0
  150.8729  141.7867  157.0940 N   0  0  0  0  0  0  0  0  0  0  0  0
  150.2554  141.1422  156.1011 C   0  0  0  0  0  0  0  0  0  0  0  0
  150.3408  139.8549  155.7634 N   0  0  0  0  0  0  0  0  0  0  0  0
  151.1927  139.1726  156.5815 C   0  0  0  0  0  0  0  0  0  0  0  0
  149.5614  136.5872  155.6472 C   0  0  1  0  0  0  0  0  0  0  0  0
  148.8491  137.2270  154.6047 O   0  0  0  0  0  0  0  0  0  0  0  0
  149.4459  135.0689  155.5634 C   0  0  1  0  0  0  0  0  0  0  0  0
  149.4329  134.6002  154.2238 O   0  0  0  0  0  0  0  0  0  0  0  0
  150.5414  134.6883  157.3568 H   0  0  0  0  0  0  0  0  0  0  0  0
  151.4296  137.1154  154.5839 H   0  0  0  0  0  0  0  0  0  0  0  0
  149.1873  136.9304  156.6119 H   0  0  0  0  0  0  0  0  0  0  0  0
  148.5459  134.7059  156.0606 H   0  0  0  0  0  0  0  0  0  0  0  0
  152.4991  131.9223  156.6156 H   0  0  0  0  0  0  0  0  0  0  0  0
  151.4639  133.0909  154.8959 H   0  0  0  0  0  0  0  0  0  0  0  0
  150.4004  132.4656  156.1475 H   0  0  0  0  0  0  0  0  0  0  0  0
  152.8988  136.7173  157.7878 H   0  0  0  0  0  0  0  0  0  0  0  0
  152.9664  140.1037  159.9639 H   0  0  0  0  0  0  0  0  0  0  0  0
  154.2484  141.0798  159.2508 H   0  0  0  0  0  0  0  0  0  0  0  0
  153.0622  141.3560  161.9376 H   0  0  0  0  0  0  0  0  0  0  0  0
  154.4332  142.2653  161.2571 H   0  0  0  0  0  0  0  0  0  0  0  0
  152.7061  144.2619  162.6033 H   0  0  0  0  0  0  0  0  0  0  0  0
  151.1324  146.0274  161.7819 H   0  0  0  0  0  0  0  0  0  0  0  0
  150.0891  145.8218  159.5329 H   0  0  0  0  0  0  0  0  0  0  0  0
  150.5919  143.8590  158.0843 H   0  0  0  0  0  0  0  0  0  0  0  0
  149.6012  141.7442  155.4879 H   0  0  0  0  0  0  0  0  0  0  0  0
  148.8182  136.6429  153.8623 H   0  0  0  0  0  0  0  0  0  0  0  0
  149.2382  135.3312  153.6566 H   0  0  0  0  0  0  0  0  0  0  0  0
  1  2  1  0  0  0  0
  1 32  1  0  0  0  0
  2  3  1  0  0  0  0
  2 33  1  0  0  0  0
  2 34  1  0  0  0  0
  3 28  1  0  0  0  0
  3 26  1  0  0  0  0
  3  4  1  0  0  0  0
  4  5  1  0  0  0  0
  5 29  1  0  0  0  0
  5  6  1  0  0  0  0
  5 24  1  0  0  0  0
  6 23  1  0  0  0  0
  6  7  1  0  0  0  0
  7  8  2  0  0  0  0
  7 35  1  0  0  0  0
  8  9  1  0  0  0  0
  9 23  2  0  0  0  0
  9 10  1  0  0  0  0
 10 11  1  0  0  0  0
 10 20  2  0  0  0  0
 11 19  1  0  0  0  0
 11 12  1  0  0  0  0
 12 13  1  0  0  0  0
 12 36  1  0  0  0  0
 12 37  1  0  0  0  0
 13 14  1  0  0  0  0
 13 38  1  0  0  0  0
 13 39  1  0  0  0  0
 14 19  2  0  0  0  0
 14 15  1  0  0  0  0
 15 16  2  0  0  0  0
 15 40  1  0  0  0  0
 16 17  1  0  0  0  0
 16 41  1  0  0  0  0
 17 18  2  0  0  0  0
 17 42  1  0  0  0  0
 18 19  1  0  0  0  0
 18 43  1  0  0  0  0
 20 21  1  0  0  0  0
 21 22  2  0  0  0  0
 21 44  1  0  0  0  0
 22 23  1  0  0  0  0
 24 30  1  0  0  0  0
 24 25  1  0  0  0  0
 24 26  1  0  0  0  0
 25 45  1  0  0  0  0
 26 31  1  0  0  0  0
 26 27  1  0  0  0  0
 27 46  1  0  0  0  0
M  END
> <s_m_source_file>
AV-unprocessed.smi

> <i_m_source_file_index>
110

> <i_lp_mmshare_version>
43012

> <i_f3d_flags>
0

> <s_epik_input>
W09IXVtDSDJdW0NASF0xT1tDQEhdKFtDQEhdKFtPSF0pW0NAQEhdMVtPSF0pbihbY0hdbjIpYyhjMjMpbltjSF1uYzNOKFtDSDJdW0NIMl00KWMoYzQ1KVtjSF1bY0hdW2NIXVtjSF01

> <s_epik_cmdline>
J2VwaWtfcHl0aG9uJywgJy1waCcsICc3LjAnLCAnLXRuJywgJzgnLCAnLW1hJywgJzIwMCcsICctbWV0YWxfYmluZGluZycsICctaW1hZScsICc8aW5maWxlLm1hZT4nLCAnLW9tYWUnLCAnPG91dGZpbGUubWFlPic=

> <r_lp_tautomer_probability>
1

> <r_epik_Ionization_Penalty>
0.00068475

> <r_epik_Ionization_Penalty_Charging>
0

> <r_epik_Ionization_Penalty_Neutral>
0.00068475

> <r_epik_State_Penalty>
0.000417442

> <r_epik_Charging_Adjusted_Penalty>
0.000417442

> <i_epik_Tot_Q>
0

> <i_epik_Tot_abs_Q>
0

> <r_epik_Metal_State_Penalty>
-0

> <b_epik_Metal_Only>
0

> <s_epik_Chemistry_Notes>
This compound contains an acetal/aminal-like group ( X-CH(R)-Y where X, Y are N, S, or O) that may be acid/base labile, releasing an aldehyde.

> <s_lp_Force_Field>
OPLS_2005

> <r_lp_Energy>
64.5887

> <b_lp_Chiralities_Consistent>
1

> <s_lp_Variant>
AV-unprocessed.smi:110-15

> <Gold.Version>
5.8.1

> <Gold.Id.Protein>
6NUR|6NUR_protein|mol2

> <Gold.PLP.Fitness>
59.4528

> <Gold.PLP.PLP>
-48.1936

> <Gold.PLP.part.hbond>
-4.0000

> <Gold.PLP.part.metal>
0.0000

> <Gold.PLP.part.buried>
-4.7324

> <Gold.PLP.part.nonpolar>
-40.2709

> <Gold.PLP.part.repulsive>
0.0853

> <Gold.PLP.ligand.clash>
0.0000

> <Gold.PLP.ligand.torsion>
0.1825

> <Gold.PLP.Chemscore.Hbond>
3.8280

> <Gold.PLP.Chemscore.CHOScore>
0.0000

> <Gold.PLP.Chemscore.Metal>
0.0000

> <Gold.Chemscore.Hbonds>
donor molecule, donor type, donor heavy atom, donor atom, acceptor molecule, acceptor atom, score
      L1  H    25    45       P1  7948  0.99
      L1  H    27    46       P1  7948  1.00
      P1  H 10752 10764       L1     4  0.96

> <Gold.PLP.Chemscore.Internal.Correction>
0.1402

> <Gold.Rescore>
     Score         DG    S(hbond)    S(metal)    S(lipo)     H(rot)  DE(clash)    DE(int)     intcor
     14.45     -18.30       2.71        0.00     106.15       3.38       1.19       2.66       ----

> <Gold.Chemscore.Fitness>
14.4506

> <Gold.Chemscore.DG>
-18.2951

> <Gold.Chemscore.ZeroCoef>
-5.4800

> <Gold.Chemscore.Hbond>
2.7119

> <Gold.Chemscore.Metal>
0.0000

> <Gold.Chemscore.Lipo>
106.1502

> <Gold.Chemscore.Internal_Hbond>
0.0000

> <Gold.Chemscore.DEClash>
1.1894

> <Gold.Chemscore.DEInternal>
2.6551

> <Gold.Chemscore.Rot>
3.3837

> <Gold.Chemscore.Internal.Correction>
   9.000000E+99

> <Gold.Chemscore.Hbonds>
donor molecule, donor type, donor heavy atom, donor atom, acceptor molecule, acceptor atom, score
      L1  H    25    45       P1  7948  0.90
      L1  H    27    46       P1  7948  0.37
      P1  H 10752 10764       L1     4  0.76

> <Gold.Chemscore.Hbond.Weighted>
-9.0577

> <Gold.Chemscore.Metal.Weighted>
-0.0000

> <Gold.Chemscore.Lipo.Weighted>
-12.4196

> <Gold.Chemscore.Internal_Hbond.Weighted>
0.0000

> <Gold.Chemscore.DEClash.Weighted>
1.1894

> <Gold.Chemscore.DEInternal.Weighted>
2.6551

> <Gold.Chemscore.Rot.Weighted>
8.6622

> <Gold.Chemscore.Internal.Correction.Weighted>
   9.000000E+99

> <Gold.Protein.RotatedTorsions>
[ 6907 6896 6895 6894 ] final   66.54 input  -60.11 | X-H torsion
[ 7974 7965 7964 7962 ] final  100.36 input  175.53 | X-H torsion
[ 8008 7997 7996 7995 ] final   68.56 input   59.86 | X-H torsion
[ 10167 10162 10161 10158 ] final   31.83 input  -65.29 | X-H torsion
[ 10718 10713 10712 10709 ] final -164.68 input   66.30 | X-H torsion
[ 10763 10752 10751 10750 ] final  -17.06 input  -60.55 | X-H torsion
[ 11005 11000 10999 10996 ] final  108.31 input  -57.11 | X-H torsion

> <Gold.Protein.ActiveResidues>
 VAL166  LYS551  ARG553  GLY616  TRP617  ASP618  TYR619  PRO620  LYS621  CYS622 
 ASP623  PHE694  ASN695  SER759  ASP760  ASP761  ALA762  ILE779  LEU786  VAL792 
 PHE793  MET794  SER795  GLU796  ALA797  LYS798  CYS799  TRP800  GLU811  SER814 

> <Gold.Protein.RotatedAtoms>
  152.4488  134.5438  159.9846 H   0  0  0  0  0  0  0  0  0  0  0  0  # atno 6907 bound_to 6896
  151.5516  133.3411  159.2962 H   0  0  0  0  0  0  0  0  0  0  0  0  # atno 6908 bound_to 6896
  150.8411  134.7735  159.6996 H   0  0  0  0  0  0  0  0  0  0  0  0  # atno 6909 bound_to 6896
  145.3867  139.2370  143.3374 H   0  0  0  0  0  0  0  0  0  0  0  0  # atno 7974 bound_to 7965
  155.7101  140.3494  155.4970 H   0  0  0  0  0  0  0  0  0  0  0  0  # atno 8008 bound_to 7997
  155.9363  140.1093  157.1114 H   0  0  0  0  0  0  0  0  0  0  0  0  # atno 8009 bound_to 7997
  154.4094  140.1221  156.4855 H   0  0  0  0  0  0  0  0  0  0  0  0  # atno 8010 bound_to 7997
  140.4554  144.0987  150.6200 H   0  0  0  0  0  0  0  0  0  0  0  0  # atno 10167 bound_to 10162
  156.6425  130.8974  151.2998 H   0  0  0  0  0  0  0  0  0  0  0  0  # atno 10718 bound_to 10713
  153.5681  135.7008  153.5517 H   0  0  0  0  0  0  0  0  0  0  0  0  # atno 10763 bound_to 10752
  153.3369  135.4032  155.1540 H   0  0  0  0  0  0  0  0  0  0  0  0  # atno 10764 bound_to 10752
  154.8637  135.3732  154.5202 H   0  0  0  0  0  0  0  0  0  0  0  0  # atno 10765 bound_to 10752
  139.8842  134.9427  156.5953 H   0  0  0  0  0  0  0  0  0  0  0  0  # atno 11005 bound_to 11000
  146.2817  140.4543  142.8774 LP  0  0  0  0  0  0  0  0  0  0  0  0  # atno 17320 bound_to 7965
  144.8469  140.6943  143.6193 LP  0  0  0  0  0  0  0  0  0  0  0  0  # atno 17321 bound_to 7965
  140.4158  143.2635  151.9777 LP  0  0  0  0  0  0  0  0  0  0  0  0  # atno 17342 bound_to 10162
  139.4800  144.5875  151.7828 LP  0  0  0  0  0  0  0  0  0  0  0  0  # atno 17343 bound_to 10162
  157.7166  130.9505  150.1280 LP  0  0  0  0  0  0  0  0  0  0  0  0  # atno 17370 bound_to 10713
  156.2147  130.3669  149.8627 LP  0  0  0  0  0  0  0  0  0  0  0  0  # atno 17371 bound_to 10713
  140.7925  133.8571  155.8658 LP  0  0  0  0  0  0  0  0  0  0  0  0  # atno 17394 bound_to 11000
  140.9665  134.1587  157.4612 LP  0  0  0  0  0  0  0  0  0  0  0  0  # atno 17395 bound_to 11000

$$$$
