AV-unprocessed.smi:2664|AV-procd|sdf|10326|dock10
  -GOLD-   2272014343D 1   1.00000     0.00000
 Structure written by MMmdl.
 43 44  0  0  0  0  0  0  0  0  1 V2000
  144.6877  136.1160  153.0358 O   0  0  0  0  0  0  0  0  0  0  0  0
  145.8583  136.0660  152.6593 C   0  0  0  0  0  0  0  0  0  0  0  0
  146.3805  135.1142  151.8666 N   0  0  0  0  0  0  0  0  0  0  0  0
  145.7270  134.0163  151.2431 C   0  0  0  0  0  0  0  0  0  0  0  0
  146.5323  132.9696  150.7483 C   0  0  0  0  0  0  0  0  0  0  0  0
  145.9116  131.8780  150.1088 C   0  0  0  0  0  0  0  0  0  0  0  0
  144.5768  131.7820  149.9344 N   0  0  0  0  0  0  0  0  0  0  0  0
  143.8081  132.7909  150.3968 C   0  0  0  0  0  0  0  0  0  0  0  0
  144.3271  133.9264  151.0503 C   0  0  0  0  0  0  0  0  0  0  0  0
  146.7926  136.9618  153.0136 N   0  0  0  0  0  0  0  0  0  0  0  0
  146.5835  138.1351  153.8666 C   0  0  2  0  0  0  0  0  0  0  0  0
  146.1523  139.3302  152.9783 C   0  0  0  0  0  0  0  0  0  0  0  0
  146.9354  139.4835  151.6606 C   0  0  0  0  0  0  0  0  0  0  0  0
  146.6896  138.3865  150.8063 O   0  0  0  0  0  0  0  0  0  0  0  0
  147.8618  138.4146  154.7099 C   0  0  0  0  0  0  0  0  0  0  0  0
  147.5874  139.3867  155.8869 C   0  0  0  0  0  0  0  0  0  0  0  0
  148.8471  139.6717  156.7198 C   0  0  0  0  0  0  0  0  0  0  0  0
  149.9800  140.2205  155.8443 C   0  0  0  0  0  0  0  0  0  0  0  0
  150.2844  139.2593  154.6890 C   0  0  0  0  0  0  0  0  0  0  0  0
  149.0269  138.9694  153.8536 C   0  0  0  0  0  0  0  0  0  0  0  0
  147.3777  135.1617  151.7185 H   0  0  0  0  0  0  0  0  0  0  0  0
  147.6065  132.9958  150.8584 H   0  0  0  0  0  0  0  0  0  0  0  0
  146.5043  131.0610  149.7247 H   0  0  0  0  0  0  0  0  0  0  0  0
  142.7448  132.6940  150.2345 H   0  0  0  0  0  0  0  0  0  0  0  0
  143.6479  134.6999  151.3736 H   0  0  0  0  0  0  0  0  0  0  0  0
  147.7287  136.8280  152.6606 H   0  0  0  0  0  0  0  0  0  0  0  0
  145.7712  137.9386  154.5685 H   0  0  0  0  0  0  0  0  0  0  0  0
  145.0973  139.2505  152.7208 H   0  0  0  0  0  0  0  0  0  0  0  0
  146.2522  140.2525  153.5518 H   0  0  0  0  0  0  0  0  0  0  0  0
  146.6205  140.3925  151.1477 H   0  0  0  0  0  0  0  0  0  0  0  0
  148.0071  139.5780  151.8351 H   0  0  0  0  0  0  0  0  0  0  0  0
  145.7934  138.4305  150.5090 H   0  0  0  0  0  0  0  0  0  0  0  0
  148.1898  137.4665  155.1392 H   0  0  0  0  0  0  0  0  0  0  0  0
  147.1879  140.3253  155.4997 H   0  0  0  0  0  0  0  0  0  0  0  0
  146.8267  138.9837  156.5549 H   0  0  0  0  0  0  0  0  0  0  0  0
  148.6144  140.3830  157.5126 H   0  0  0  0  0  0  0  0  0  0  0  0
  149.1745  138.7557  157.2130 H   0  0  0  0  0  0  0  0  0  0  0  0
  149.6979  141.1959  155.4464 H   0  0  0  0  0  0  0  0  0  0  0  0
  150.8756  140.3769  156.4463 H   0  0  0  0  0  0  0  0  0  0  0  0
  151.0626  139.6812  154.0524 H   0  0  0  0  0  0  0  0  0  0  0  0
  150.6831  138.3245  155.0854 H   0  0  0  0  0  0  0  0  0  0  0  0
  149.3045  138.2641  153.0721 H   0  0  0  0  0  0  0  0  0  0  0  0
  148.7087  139.8823  153.3483 H   0  0  0  0  0  0  0  0  0  0  0  0
  1  2  2  0  0  0  0
  2  3  1  0  0  0  0
  2 10  1  0  0  0  0
  3  4  1  0  0  0  0
  3 21  1  0  0  0  0
  4  9  1  0  0  0  0
  4  5  2  0  0  0  0
  5  6  1  0  0  0  0
  5 22  1  0  0  0  0
  6  7  2  0  0  0  0
  6 23  1  0  0  0  0
  7  8  1  0  0  0  0
  8  9  2  0  0  0  0
  8 24  1  0  0  0  0
  9 25  1  0  0  0  0
 10 11  1  0  0  0  0
 10 26  1  0  0  0  0
 11 12  1  0  0  0  0
 11 15  1  0  0  0  0
 11 27  1  0  0  0  0
 12 13  1  0  0  0  0
 12 28  1  0  0  0  0
 12 29  1  0  0  0  0
 13 14  1  0  0  0  0
 13 30  1  0  0  0  0
 13 31  1  0  0  0  0
 14 32  1  0  0  0  0
 15 20  1  0  0  0  0
 15 16  1  0  0  0  0
 15 33  1  0  0  0  0
 16 17  1  0  0  0  0
 16 34  1  0  0  0  0
 16 35  1  0  0  0  0
 17 18  1  0  0  0  0
 17 36  1  0  0  0  0
 17 37  1  0  0  0  0
 18 19  1  0  0  0  0
 18 38  1  0  0  0  0
 18 39  1  0  0  0  0
 19 20  1  0  0  0  0
 19 40  1  0  0  0  0
 19 41  1  0  0  0  0
 20 42  1  0  0  0  0
 20 43  1  0  0  0  0
M  END
> <s_m_source_file>
AV-unprocessed.smi

> <i_m_source_file_index>
2664

> <i_lp_mmshare_version>
43012

> <i_f3d_flags>
0

> <s_epik_input>
W2NIXTFbY0hdbltjSF1bY0hdYzFbTkhdQyg9TylbTkhdW0NASF0oW0NIMl1bQ0gyXVtPSF0pW0NIXTJbQ0gyXVtDSDJdW0NIMl1bQ0gyXVtDSDJdMg==

> <s_epik_cmdline>
J2VwaWtfcHl0aG9uJywgJy1waCcsICc3LjAnLCAnLXRuJywgJzgnLCAnLW1hJywgJzIwMCcsICctbWV0YWxfYmluZGluZycsICctaW1hZScsICc8aW5maWxlLm1hZT4nLCAnLW9tYWUnLCAnPG91dGZpbGUubWFlPic=

> <r_epik_Ionization_Penalty>
0.119281

> <r_epik_Ionization_Penalty_Charging>
0

> <r_epik_Ionization_Penalty_Neutral>
0.119281

> <r_epik_State_Penalty>
0.108806

> <r_epik_Charging_Adjusted_Penalty>
0.108806

> <i_epik_Tot_Q>
0

> <i_epik_Tot_abs_Q>
0

> <r_epik_Metal_State_Penalty>
0.0904205

> <b_epik_Metal_Only>
0

> <s_lp_Force_Field>
OPLS_2005

> <r_lp_Energy>
21.6864

> <b_lp_Chiralities_Consistent>
1

> <s_lp_Variant>
AV-unprocessed.smi:2664-1

> <Gold.Version>
5.8.1

> <Gold.Id.Protein>
6NUR|6NUR_protein|mol2

> <Gold.PLP.Fitness>
45.4079

> <Gold.PLP.PLP>
-29.5488

> <Gold.PLP.part.hbond>
-4.9375

> <Gold.PLP.part.metal>
0.0000

> <Gold.PLP.part.buried>
2.4531

> <Gold.PLP.part.nonpolar>
-27.4000

> <Gold.PLP.part.repulsive>
0.3136

> <Gold.PLP.ligand.clash>
0.0000

> <Gold.PLP.ligand.torsion>
0.7575

> <Gold.PLP.Chemscore.Hbond>
3.9600

> <Gold.PLP.Chemscore.CHOScore>
1.8125

> <Gold.PLP.Chemscore.Metal>
0.0000

> <Gold.Chemscore.Hbonds>
donor molecule, donor type, donor heavy atom, donor atom, acceptor molecule, acceptor atom, score
      L1  H     3    21       P1  7948  0.96
      L1  H    10    26       P1  7948  1.00
      L1  H    14    32       P1 10171  0.99
      P1  H  7954  7966       L1    14  1.00
      L1  C     6    23       P1 10747  0.84
      L1  C     8    24       P1 10186  0.98

> <Gold.PLP.Chemscore.Internal.Correction>
0.0567

> <Gold.Rescore>
     Score         DG    S(hbond)    S(metal)    S(lipo)     H(rot)  DE(clash)    DE(int)     intcor
     17.38     -22.23       3.84        0.00      82.07       2.23       2.56       2.29       ----

> <Gold.Chemscore.Fitness>
17.3810

> <Gold.Chemscore.DG>
-22.2252

> <Gold.Chemscore.ZeroCoef>
-5.4800

> <Gold.Chemscore.Hbond>
3.8441

> <Gold.Chemscore.Metal>
0.0000

> <Gold.Chemscore.Lipo>
82.0698

> <Gold.Chemscore.Internal_Hbond>
0.0000

> <Gold.Chemscore.DEClash>
2.5555

> <Gold.Chemscore.DEInternal>
2.2887

> <Gold.Chemscore.Rot>
2.2251

> <Gold.Chemscore.Internal.Correction>
   9.000000E+99

> <Gold.Chemscore.Hbonds>
donor molecule, donor type, donor heavy atom, donor atom, acceptor molecule, acceptor atom, score
      L1  H     3    21       P1  7948  0.84
      L1  H    10    26       P1  7948  0.97
      L1  H    14    32       P1 10171  0.92
      P1  H  7954  7966       L1    14  0.81
      P1  H 10785 10796       L1     7  0.02

> <Gold.Chemscore.Hbond.Weighted>
-12.8392

> <Gold.Chemscore.Metal.Weighted>
-0.0000

> <Gold.Chemscore.Lipo.Weighted>
-9.6022

> <Gold.Chemscore.Internal_Hbond.Weighted>
0.0000

> <Gold.Chemscore.DEClash.Weighted>
2.5555

> <Gold.Chemscore.DEInternal.Weighted>
2.2887

> <Gold.Chemscore.Rot.Weighted>
5.6962

> <Gold.Chemscore.Internal.Correction.Weighted>
   9.000000E+99

> <Gold.Protein.RotatedTorsions>
[ 6907 6896 6895 6894 ] final  143.64 input  -60.11 | X-H torsion
[ 7974 7965 7964 7962 ] final  145.29 input  175.53 | X-H torsion
[ 8008 7997 7996 7995 ] final   33.66 input   59.86 | X-H torsion
[ 10167 10162 10161 10158 ] final  -41.85 input  -65.29 | X-H torsion
[ 10718 10713 10712 10709 ] final -152.02 input   66.30 | X-H torsion
[ 10763 10752 10751 10750 ] final   63.41 input  -60.55 | X-H torsion
[ 11005 11000 10999 10996 ] final  125.42 input  -57.11 | X-H torsion

> <Gold.Protein.ActiveResidues>
 VAL166  LYS551  ARG553  GLY616  TRP617  ASP618  TYR619  PRO620  LYS621  CYS622 
 ASP623  PHE694  ASN695  SER759  ASP760  ASP761  ALA762  ILE779  LEU786  VAL792 
 PHE793  MET794  SER795  GLU796  ALA797  LYS798  CYS799  TRP800  GLU811  SER814 

> <Gold.Protein.RotatedAtoms>
  152.2037  133.4860  159.5072 H   0  0  0  0  0  0  0  0  0  0  0  0  # atno 6907 bound_to 6896
  150.6975  134.1557  159.4166 H   0  0  0  0  0  0  0  0  0  0  0  0  # atno 6908 bound_to 6896
  151.9475  135.0184  160.0590 H   0  0  0  0  0  0  0  0  0  0  0  0  # atno 6909 bound_to 6896
  144.8765  139.5765  143.5863 H   0  0  0  0  0  0  0  0  0  0  0  0  # atno 7974 bound_to 7965
  155.1422  140.3267  155.4449 H   0  0  0  0  0  0  0  0  0  0  0  0  # atno 8008 bound_to 7997
  156.2601  140.1991  156.6487 H   0  0  0  0  0  0  0  0  0  0  0  0  # atno 8009 bound_to 7997
  154.6534  140.0556  156.9967 H   0  0  0  0  0  0  0  0  0  0  0  0  # atno 8010 bound_to 7997
  140.6989  143.3071  151.3125 H   0  0  0  0  0  0  0  0  0  0  0  0  # atno 10167 bound_to 10162
  156.4670  130.8240  151.2470 H   0  0  0  0  0  0  0  0  0  0  0  0  # atno 10718 bound_to 10713
  153.0017  135.5430  154.6347 H   0  0  0  0  0  0  0  0  0  0  0  0  # atno 10763 bound_to 10752
  154.5616  135.2834  155.0916 H   0  0  0  0  0  0  0  0  0  0  0  0  # atno 10764 bound_to 10752
  154.2116  135.6466  153.5169 H   0  0  0  0  0  0  0  0  0  0  0  0  # atno 10765 bound_to 10752
  139.9406  134.9636  156.8556 H   0  0  0  0  0  0  0  0  0  0  0  0  # atno 11005 bound_to 11000
  146.2966  139.7296  142.9122 LP  0  0  0  0  0  0  0  0  0  0  0  0  # atno 17320 bound_to 7965
  145.4033  141.0388  143.3058 LP  0  0  0  0  0  0  0  0  0  0  0  0  # atno 17321 bound_to 7965
  139.6481  144.0414  152.2606 LP  0  0  0  0  0  0  0  0  0  0  0  0  # atno 17342 bound_to 10162
  139.9941  144.6340  150.7788 LP  0  0  0  0  0  0  0  0  0  0  0  0  # atno 17343 bound_to 10162
  157.7494  131.0089  150.3245 LP  0  0  0  0  0  0  0  0  0  0  0  0  # atno 17370 bound_to 10713
  156.3658  130.3855  149.7215 LP  0  0  0  0  0  0  0  0  0  0  0  0  # atno 17371 bound_to 10713
  140.5962  134.0214  155.7519 LP  0  0  0  0  0  0  0  0  0  0  0  0  # atno 17394 bound_to 11000
  141.1038  133.9726  157.3032 LP  0  0  0  0  0  0  0  0  0  0  0  0  # atno 17395 bound_to 11000

$$$$
