AV-unprocessed.smi:2995|AV-procd|sdf|11407|dock3
  -GOLD-   2272016333D 1   1.00000     0.00000
 Structure written by MMmdl.
 49 51  0  0  0  0  0  0  0  0  2 V2000
  146.5376  132.5950  161.7266 C   0  0  0  0  0  0  0  0  0  0  0  0
  147.1296  133.9847  161.5731 C   0  0  0  0  0  0  0  0  0  0  0  0
  147.2779  134.8125  162.7051 C   0  0  0  0  0  0  0  0  0  0  0  0
  147.8322  136.0954  162.5358 C   0  0  0  0  0  0  0  0  0  0  0  0
  148.2387  136.5740  161.3425 N   0  0  0  0  0  0  0  0  0  0  0  0
  148.0944  135.7811  160.2597 C   0  0  0  0  0  0  0  0  0  0  0  0
  147.5345  134.4798  160.3099 C   0  0  0  0  0  0  0  0  0  0  0  0
  147.4065  133.6444  159.1651 N   0  0  0  0  0  0  0  0  0  0  0  0
  148.2326  133.5492  158.1094 C   0  0  0  0  0  0  0  0  0  0  0  0
  149.2683  134.1960  157.9550 O   0  0  0  0  0  0  0  0  0  0  0  0
  147.7738  132.6650  157.2116 N   0  0  0  0  0  0  0  0  0  0  0  0
  148.4244  132.3431  155.9449 C   0  0  2  0  0  0  0  0  0  0  0  0
  148.3190  133.5232  154.9588 C   0  0  0  0  0  0  0  0  0  0  0  0
  148.8873  133.1479  153.5771 C   0  0  0  0  0  0  0  0  0  0  0  0
  148.2283  131.9380  153.0120 N   0  3  2  0  0  0  0  0  0  0  0  0
  146.8378  132.1649  152.5144 C   0  0  0  0  0  0  0  0  0  0  0  0
  146.1698  130.8998  151.9580 C   0  0  0  0  0  0  0  0  0  0  0  0
  145.0285  131.4056  151.0710 C   0  0  0  0  0  0  0  0  0  0  0  0
  145.4210  132.8249  150.6391 C   0  0  0  0  0  0  0  0  0  0  0  0
  146.7628  133.1229  151.3168 C   0  0  0  0  0  0  0  0  0  0  0  0
  148.3736  130.7830  153.9411 C   0  0  0  0  0  0  0  0  0  0  0  0
  147.7866  131.0836  155.3337 C   0  0  0  0  0  0  0  0  0  0  0  0
  146.2708  132.3893  162.7636 H   0  0  0  0  0  0  0  0  0  0  0  0
  147.2547  131.8389  161.4066 H   0  0  0  0  0  0  0  0  0  0  0  0
  145.6364  132.4961  161.1209 H   0  0  0  0  0  0  0  0  0  0  0  0
  146.9747  134.4764  163.6858 H   0  0  0  0  0  0  0  0  0  0  0  0
  147.9578  136.7528  163.3835 H   0  0  0  0  0  0  0  0  0  0  0  0
  148.4630  136.2066  159.3393 H   0  0  0  0  0  0  0  0  0  0  0  0
  146.5480  133.1166  159.1087 H   0  0  0  0  0  0  0  0  0  0  0  0
  146.9120  132.1815  157.4189 H   0  0  0  0  0  0  0  0  0  0  0  0
  149.4793  132.1308  156.1302 H   0  0  0  0  0  0  0  0  0  0  0  0
  147.2800  133.8395  154.8602 H   0  0  0  0  0  0  0  0  0  0  0  0
  148.8609  134.3853  155.3492 H   0  0  0  0  0  0  0  0  0  0  0  0
  148.8194  133.9930  152.8932 H   0  0  0  0  0  0  0  0  0  0  0  0
  149.9535  132.9393  153.6754 H   0  0  0  0  0  0  0  0  0  0  0  0
  146.2131  132.5620  153.3153 H   0  0  0  0  0  0  0  0  0  0  0  0
  146.8804  130.3403  151.3476 H   0  0  0  0  0  0  0  0  0  0  0  0
  145.8050  130.2330  152.7400 H   0  0  0  0  0  0  0  0  0  0  0  0
  144.8640  130.7474  150.2171 H   0  0  0  0  0  0  0  0  0  0  0  0
  144.0987  131.4389  151.6403 H   0  0  0  0  0  0  0  0  0  0  0  0
  145.4972  132.9140  149.5549 H   0  0  0  0  0  0  0  0  0  0  0  0
  144.6627  133.5349  150.9716 H   0  0  0  0  0  0  0  0  0  0  0  0
  146.8417  134.1710  151.6074 H   0  0  0  0  0  0  0  0  0  0  0  0
  147.5733  132.9110  150.6175 H   0  0  0  0  0  0  0  0  0  0  0  0
  147.9293  129.8800  153.5247 H   0  0  0  0  0  0  0  0  0  0  0  0
  149.4371  130.5620  154.0427 H   0  0  0  0  0  0  0  0  0  0  0  0
  147.9528  130.2293  155.9913 H   0  0  0  0  0  0  0  0  0  0  0  0
  146.7050  131.2047  155.2624 H   0  0  0  0  0  0  0  0  0  0  0  0
  148.7611  131.6954  152.1888 H   0  0  0  0  0  0  0  0  0  0  0  0
  1  2  1  0  0  0  0
  1 23  1  0  0  0  0
  1 24  1  0  0  0  0
  1 25  1  0  0  0  0
  2  7  1  0  0  0  0
  2  3  2  0  0  0  0
  3  4  1  0  0  0  0
  3 26  1  0  0  0  0
  4  5  2  0  0  0  0
  4 27  1  0  0  0  0
  5  6  1  0  0  0  0
  6  7  2  0  0  0  0
  6 28  1  0  0  0  0
  7  8  1  0  0  0  0
  8  9  1  0  0  0  0
  8 29  1  0  0  0  0
  9 10  2  0  0  0  0
  9 11  1  0  0  0  0
 11 12  1  0  0  0  0
 11 30  1  0  0  0  0
 12 22  1  0  0  0  0
 12 13  1  0  0  0  0
 12 31  1  0  0  0  0
 13 14  1  0  0  0  0
 13 32  1  0  0  0  0
 13 33  1  0  0  0  0
 14 15  1  0  0  0  0
 14 34  1  0  0  0  0
 14 35  1  0  0  0  0
 15 16  1  0  0  0  0
 15 21  1  0  0  0  0
 15 49  1  0  0  0  0
 16 20  1  0  0  0  0
 16 17  1  0  0  0  0
 16 36  1  0  0  0  0
 17 18  1  0  0  0  0
 17 37  1  0  0  0  0
 17 38  1  0  0  0  0
 18 19  1  0  0  0  0
 18 39  1  0  0  0  0
 18 40  1  0  0  0  0
 19 20  1  0  0  0  0
 19 41  1  0  0  0  0
 19 42  1  0  0  0  0
 20 43  1  0  0  0  0
 20 44  1  0  0  0  0
 21 22  1  0  0  0  0
 21 45  1  0  0  0  0
 21 46  1  0  0  0  0
 22 47  1  0  0  0  0
 22 48  1  0  0  0  0
M  CHG  1  15   1
M  END
> <s_m_source_file>
AV-unprocessed.smi

> <i_m_source_file_index>
2995

> <i_lp_mmshare_version>
43012

> <i_f3d_flags>
0

> <s_epik_input>
W0NIM11jMVtjSF1bY0hdbltjSF1jMVtOSF1DKD1PKVtOSF1bQ0hdMltDSDJdW0NIMl1OKFtDSDJdW0NIMl0yKVtDSF0zW0NIMl1bQ0gyXVtDSDJdW0NIMl0z

> <s_epik_cmdline>
J2VwaWtfcHl0aG9uJywgJy1waCcsICc3LjAnLCAnLXRuJywgJzgnLCAnLW1hJywgJzIwMCcsICctbWV0YWxfYmluZGluZycsICctaW1hZScsICc8aW5maWxlLm1hZT4nLCAnLW9tYWUnLCAnPG91dGZpbGUubWFlPic=

> <r_epik_Ionization_Penalty>
0.0196897

> <r_epik_Ionization_Penalty_Charging>
0.00179121

> <r_epik_Ionization_Penalty_Neutral>
0.0178985

> <r_epik_State_Penalty>
0.014187

> <r_epik_Charging_Adjusted_Penalty>
0.0159782

> <i_epik_Tot_Q>
1

> <i_epik_Tot_abs_Q>
1

> <r_epik_Metal_State_Penalty>
0.013703

> <b_epik_Metal_Only>
0

> <s_lp_Force_Field>
OPLS_2005

> <r_lp_Energy>
42.3495

> <b_lp_Chiralities_Consistent>
1

> <s_lp_Variant>
AV-unprocessed.smi:2995-2

> <Gold.Version>
5.8.1

> <Gold.Id.Protein>
6NUR|6NUR_protein|mol2

> <Gold.PLP.Fitness>
46.9253

> <Gold.PLP.PLP>
-38.8941

> <Gold.PLP.part.hbond>
-3.0000

> <Gold.PLP.part.metal>
0.0000

> <Gold.PLP.part.buried>
-5.3713

> <Gold.PLP.part.nonpolar>
-32.0991

> <Gold.PLP.part.repulsive>
0.0488

> <Gold.PLP.ligand.clash>
0.0000

> <Gold.PLP.ligand.torsion>
0.4502

> <Gold.PLP.Chemscore.Hbond>
2.9588

> <Gold.PLP.Chemscore.CHOScore>
0.0000

> <Gold.PLP.Chemscore.Metal>
0.0000

> <Gold.Chemscore.Hbonds>
donor molecule, donor type, donor heavy atom, donor atom, acceptor molecule, acceptor atom, score
      L1  H    15    49       P1 10747  0.88
      P1  H  6896  6908       L1    10  1.00
      P1  H  6931  6943       L1     5  1.00

> <Gold.PLP.Chemscore.Internal.Correction>
0.0554

> <Gold.Rescore>
     Score         DG    S(hbond)    S(metal)    S(lipo)     H(rot)  DE(clash)    DE(int)     intcor
     20.96     -22.09       2.28        0.00     102.67       1.17       0.03       1.10       ----

> <Gold.Chemscore.Fitness>
20.9620

> <Gold.Chemscore.DG>
-22.0890

> <Gold.Chemscore.ZeroCoef>
-5.4800

> <Gold.Chemscore.Hbond>
2.2754

> <Gold.Chemscore.Metal>
0.0000

> <Gold.Chemscore.Lipo>
102.6678

> <Gold.Chemscore.Internal_Hbond>
0.0000

> <Gold.Chemscore.DEClash>
0.0251

> <Gold.Chemscore.DEInternal>
1.1019

> <Gold.Chemscore.Rot>
1.1731

> <Gold.Chemscore.Internal.Correction>
   9.000000E+99

> <Gold.Chemscore.Hbonds>
donor molecule, donor type, donor heavy atom, donor atom, acceptor molecule, acceptor atom, score
      L1  H    15    49       P1 10747  0.79
      P1  H  6896  6908       L1    10  0.91
      P1  H  6931  6943       L1     5  0.25

> <Gold.Chemscore.Hbond.Weighted>
-7.5999

> <Gold.Chemscore.Metal.Weighted>
-0.0000

> <Gold.Chemscore.Lipo.Weighted>
-12.0121

> <Gold.Chemscore.Internal_Hbond.Weighted>
0.0000

> <Gold.Chemscore.DEClash.Weighted>
0.0251

> <Gold.Chemscore.DEInternal.Weighted>
1.1019

> <Gold.Chemscore.Rot.Weighted>
3.0030

> <Gold.Chemscore.Internal.Correction.Weighted>
   9.000000E+99

> <Gold.Protein.RotatedTorsions>
[ 6907 6896 6895 6894 ] final  127.30 input  -60.11 | X-H torsion
[ 7974 7965 7964 7962 ] final -171.56 input  175.53 | X-H torsion
[ 8008 7997 7996 7995 ] final    4.51 input   59.86 | X-H torsion
[ 10167 10162 10161 10158 ] final -114.07 input  -65.29 | X-H torsion
[ 10718 10713 10712 10709 ] final  123.06 input   66.30 | X-H torsion
[ 10763 10752 10751 10750 ] final   75.64 input  -60.55 | X-H torsion
[ 11005 11000 10999 10996 ] final  104.65 input  -57.11 | X-H torsion

> <Gold.Protein.ActiveResidues>
 VAL166  LYS551  ARG553  GLY616  TRP617  ASP618  TYR619  PRO620  LYS621  CYS622 
 ASP623  PHE694  ASN695  SER759  ASP760  ASP761  ALA762  ILE779  LEU786  VAL792 
 PHE793  MET794  SER795  GLU796  ALA797  LYS798  CYS799  TRP800  GLU811  SER814 

> <Gold.Protein.RotatedAtoms>
  152.3825  133.6566  159.6172 H   0  0  0  0  0  0  0  0  0  0  0  0  # atno 6907 bound_to 6896
  150.7752  133.9089  159.3372 H   0  0  0  0  0  0  0  0  0  0  0  0  # atno 6908 bound_to 6896
  151.6892  135.0950  160.0282 H   0  0  0  0  0  0  0  0  0  0  0  0  # atno 6909 bound_to 6896
  144.7155  140.1904  143.6349 H   0  0  0  0  0  0  0  0  0  0  0  0  # atno 7974 bound_to 7965
  154.7168  140.2704  155.6578 H   0  0  0  0  0  0  0  0  0  0  0  0  # atno 8008 bound_to 7997
  156.2812  140.2742  156.1752 H   0  0  0  0  0  0  0  0  0  0  0  0  # atno 8009 bound_to 7997
  155.0560  140.0371  157.2550 H   0  0  0  0  0  0  0  0  0  0  0  0  # atno 8010 bound_to 7997
  140.1050  143.4579  152.1788 H   0  0  0  0  0  0  0  0  0  0  0  0  # atno 10167 bound_to 10162
  157.5694  131.1084  150.8394 H   0  0  0  0  0  0  0  0  0  0  0  0  # atno 10718 bound_to 10713
  153.0669  135.4981  154.8219 H   0  0  0  0  0  0  0  0  0  0  0  0  # atno 10763 bound_to 10752
  154.6966  135.2994  154.9405 H   0  0  0  0  0  0  0  0  0  0  0  0  # atno 10764 bound_to 10752
  154.0142  135.6750  153.4820 H   0  0  0  0  0  0  0  0  0  0  0  0  # atno 10765 bound_to 10752
  139.8794  134.9308  156.5394 H   0  0  0  0  0  0  0  0  0  0  0  0  # atno 11005 bound_to 11000
  145.8774  139.2304  143.1625 LP  0  0  0  0  0  0  0  0  0  0  0  0  # atno 17320 bound_to 7965
  146.0027  140.8506  143.0010 LP  0  0  0  0  0  0  0  0  0  0  0  0  # atno 17321 bound_to 7965
  139.5650  144.7430  151.4047 LP  0  0  0  0  0  0  0  0  0  0  0  0  # atno 17342 bound_to 10162
  140.6957  143.7754  150.7323 LP  0  0  0  0  0  0  0  0  0  0  0  0  # atno 17343 bound_to 10162
  156.8870  130.5199  149.5288 LP  0  0  0  0  0  0  0  0  0  0  0  0  # atno 17370 bound_to 10713
  156.0740  130.5767  150.9439 LP  0  0  0  0  0  0  0  0  0  0  0  0  # atno 17371 bound_to 10713
  140.8322  133.8270  155.8995 LP  0  0  0  0  0  0  0  0  0  0  0  0  # atno 17394 bound_to 11000
  140.9318  134.2012  157.4859 LP  0  0  0  0  0  0  0  0  0  0  0  0  # atno 17395 bound_to 11000

$$$$
