AV-unprocessed.smi:212|AV-procd|sdf|1620|dock7
  -GOLD-   2262019553D 1   1.00000     0.00000
 Structure written by MMmdl.
 65 68  0  0  0  0  0  0  0  0  2 V2000
  145.7736  139.7908  155.2367 C   0  0  0  0  0  0  0  0  0  0  0  0
  145.8976  138.2580  155.3358 C   0  0  1  0  0  0  0  0  0  0  0  0
  145.7068  137.5619  153.9727 C   0  0  0  0  0  0  0  0  0  0  0  0
  145.7674  136.0839  154.1182 N   0  3  1  0  0  0  0  0  0  0  0  0
  145.4746  135.3565  152.8544 C   0  0  0  0  0  0  0  0  0  0  0  0
  145.1301  133.8663  153.0874 C   0  0  0  0  0  0  0  0  0  0  0  0
  144.1453  133.3774  152.0123 C   0  0  0  0  0  0  0  0  0  0  0  0
  146.3839  132.9723  153.1066 C   0  0  0  0  0  0  0  0  0  0  0  0
  144.4678  133.7304  154.3293 O   0  0  0  0  0  0  0  0  0  0  0  0
  147.0223  135.6336  154.7727 C   0  0  0  0  0  0  0  0  0  0  0  0
  147.2495  136.3544  156.1173 C   0  0  0  0  0  0  0  0  0  0  0  0
  147.1280  137.8045  155.9928 N   0  0  0  0  0  0  0  0  0  0  0  0
  148.2810  138.4498  155.6967 C   0  0  0  0  0  0  0  0  0  0  0  0
  148.8840  138.2610  154.4944 N   0  0  0  0  0  0  0  0  0  0  0  0
  150.0175  138.9083  154.2082 C   0  0  0  0  0  0  0  0  0  0  0  0
  150.6976  139.7725  154.9642 N   0  0  0  0  0  0  0  0  0  0  0  0
  150.0907  139.9682  156.1696 C   0  0  0  0  0  0  0  0  0  0  0  0
  148.8916  139.3446  156.6135 C   0  0  0  0  0  0  0  0  0  0  0  0
  148.5766  139.7709  157.8959 N   0  0  0  0  0  0  0  0  0  0  0  0
  149.5377  140.6015  158.1954 C   0  0  0  0  0  0  0  0  0  0  0  0
  150.4814  140.7953  157.2096 N   0  0  0  0  0  0  0  0  0  0  0  0
  151.6456  141.6691  157.2802 C   0  0  0  0  0  0  0  0  0  0  0  0
  152.4741  141.5247  158.5848 C   0  0  2  0  0  0  0  0  0  0  0  0
  152.4615  140.0578  159.0785 C   0  0  0  0  0  0  0  0  0  0  0  0
  153.1011  139.1879  158.1682 O   0  0  0  0  0  0  0  0  0  0  0  0
  152.0173  142.5315  159.6769 C   0  0  2  0  0  0  0  0  0  0  0  0
  152.1867  143.9930  159.2930 C   0  0  0  0  0  0  0  0  0  0  0  0
  152.0882  144.7021  160.6399 C   0  0  0  0  0  0  0  0  0  0  0  0
  152.5762  143.7742  161.6025 O   0  0  0  0  0  0  0  0  0  0  0  0
  152.8225  142.5184  160.9798 C   0  0  0  0  0  0  0  0  0  0  0  0
  144.7943  140.0756  154.8517 H   0  0  0  0  0  0  0  0  0  0  0  0
  146.5221  140.2185  154.5687 H   0  0  0  0  0  0  0  0  0  0  0  0
  145.8887  140.2593  156.2147 H   0  0  0  0  0  0  0  0  0  0  0  0
  145.0840  137.9268  155.9827 H   0  0  0  0  0  0  0  0  0  0  0  0
  144.7433  137.8483  153.5511 H   0  0  0  0  0  0  0  0  0  0  0  0
  146.4668  137.8916  153.2630 H   0  0  0  0  0  0  0  0  0  0  0  0
  144.6720  135.8566  152.3093 H   0  0  0  0  0  0  0  0  0  0  0  0
  146.3426  135.4048  152.1945 H   0  0  0  0  0  0  0  0  0  0  0  0
  144.5849  133.4422  151.0165 H   0  0  0  0  0  0  0  0  0  0  0  0
  143.2316  133.9731  152.0066 H   0  0  0  0  0  0  0  0  0  0  0  0
  143.8581  132.3379  152.1759 H   0  0  0  0  0  0  0  0  0  0  0  0
  146.9375  133.0521  152.1702 H   0  0  0  0  0  0  0  0  0  0  0  0
  146.1209  131.9226  153.2433 H   0  0  0  0  0  0  0  0  0  0  0  0
  147.0635  133.2430  153.9152 H   0  0  0  0  0  0  0  0  0  0  0  0
  143.7565  133.1160  154.2260 H   0  0  0  0  0  0  0  0  0  0  0  0
  146.9781  134.5576  154.9462 H   0  0  0  0  0  0  0  0  0  0  0  0
  147.8615  135.8066  154.0984 H   0  0  0  0  0  0  0  0  0  0  0  0
  146.5087  136.0171  156.8431 H   0  0  0  0  0  0  0  0  0  0  0  0
  148.2248  136.0884  156.5286 H   0  0  0  0  0  0  0  0  0  0  0  0
  150.4397  138.7069  153.2347 H   0  0  0  0  0  0  0  0  0  0  0  0
  149.5799  141.1044  159.1504 H   0  0  0  0  0  0  0  0  0  0  0  0
  152.2796  141.4472  156.4207 H   0  0  0  0  0  0  0  0  0  0  0  0
  151.3172  142.6990  157.1402 H   0  0  0  0  0  0  0  0  0  0  0  0
  153.5040  141.7677  158.3179 H   0  0  0  0  0  0  0  0  0  0  0  0
  152.9292  139.9687  160.0597 H   0  0  0  0  0  0  0  0  0  0  0  0
  151.4361  139.7015  159.1789 H   0  0  0  0  0  0  0  0  0  0  0  0
  152.6663  138.3492  158.1965 H   0  0  0  0  0  0  0  0  0  0  0  0
  150.9718  142.3502  159.9299 H   0  0  0  0  0  0  0  0  0  0  0  0
  153.1741  144.1584  158.8595 H   0  0  0  0  0  0  0  0  0  0  0  0
  151.4457  144.3536  158.5813 H   0  0  0  0  0  0  0  0  0  0  0  0
  152.6551  145.6330  160.6602 H   0  0  0  0  0  0  0  0  0  0  0  0
  151.0486  144.9321  160.8753 H   0  0  0  0  0  0  0  0  0  0  0  0
  152.5430  141.6965  161.6392 H   0  0  0  0  0  0  0  0  0  0  0  0
  153.8913  142.4432  160.7743 H   0  0  0  0  0  0  0  0  0  0  0  0
  145.0243  135.8355  154.7555 H   0  0  0  0  0  0  0  0  0  0  0  0
  1  2  1  0  0  0  0
  1 31  1  0  0  0  0
  1 32  1  0  0  0  0
  1 33  1  0  0  0  0
  2 12  1  0  0  0  0
  2  3  1  0  0  0  0
  2 34  1  0  0  0  0
  3  4  1  0  0  0  0
  3 35  1  0  0  0  0
  3 36  1  0  0  0  0
  4  5  1  0  0  0  0
  4 10  1  0  0  0  0
  4 65  1  0  0  0  0
  5  6  1  0  0  0  0
  5 37  1  0  0  0  0
  5 38  1  0  0  0  0
  6  7  1  0  0  0  0
  6  8  1  0  0  0  0
  6  9  1  0  0  0  0
  7 39  1  0  0  0  0
  7 40  1  0  0  0  0
  7 41  1  0  0  0  0
  8 42  1  0  0  0  0
  8 43  1  0  0  0  0
  8 44  1  0  0  0  0
  9 45  1  0  0  0  0
 10 11  1  0  0  0  0
 10 46  1  0  0  0  0
 10 47  1  0  0  0  0
 11 12  1  0  0  0  0
 11 48  1  0  0  0  0
 11 49  1  0  0  0  0
 12 13  1  0  0  0  0
 13 18  1  0  0  0  0
 13 14  2  0  0  0  0
 14 15  1  0  0  0  0
 15 16  2  0  0  0  0
 15 50  1  0  0  0  0
 16 17  1  0  0  0  0
 17 21  1  0  0  0  0
 17 18  2  0  0  0  0
 18 19  1  0  0  0  0
 19 20  2  0  0  0  0
 20 21  1  0  0  0  0
 20 51  1  0  0  0  0
 21 22  1  0  0  0  0
 22 23  1  0  0  0  0
 22 52  1  0  0  0  0
 22 53  1  0  0  0  0
 23 24  1  0  0  0  0
 23 26  1  0  0  0  0
 23 54  1  0  0  0  0
 24 25  1  0  0  0  0
 24 55  1  0  0  0  0
 24 56  1  0  0  0  0
 25 57  1  0  0  0  0
 26 30  1  0  0  0  0
 26 27  1  0  0  0  0
 26 58  1  0  0  0  0
 27 28  1  0  0  0  0
 27 59  1  0  0  0  0
 27 60  1  0  0  0  0
 28 29  1  0  0  0  0
 28 61  1  0  0  0  0
 28 62  1  0  0  0  0
 29 30  1  0  0  0  0
 30 63  1  0  0  0  0
 30 64  1  0  0  0  0
M  CHG  1   4   1
M  END
> <s_m_source_file>
AV-unprocessed.smi

> <i_m_source_file_index>
212

> <i_lp_mmshare_version>
43012

> <i_f3d_flags>
0

> <s_epik_input>
W0NIM11bQ0BASF0xW0NIMl1OKFtDSDJdQyhbQ0gzXSkoW0NIM10pW09IXSlbQ0gyXVtDSDJdTjFjKG5bY0hdbjIpYyhjMjMpbltjSF1uM1tDSDJdW0NASF0oW0NIMl1bT0hdKVtDQEBIXTRbQ0gyXVtDSDJdT1tDSDJdNA==

> <s_epik_cmdline>
J2VwaWtfcHl0aG9uJywgJy1waCcsICc3LjAnLCAnLXRuJywgJzgnLCAnLW1hJywgJzIwMCcsICctbWV0YWxfYmluZGluZycsICctaW1hZScsICc8aW5maWxlLm1hZT4nLCAnLW9tYWUnLCAnPG91dGZpbGUubWFlPic=

> <r_lp_tautomer_probability>
1

> <r_epik_Ionization_Penalty>
0.00182193

> <r_epik_Ionization_Penalty_Charging>
0.00173996

> <r_epik_Ionization_Penalty_Neutral>
8.19718e-05

> <r_epik_State_Penalty>
-0

> <r_epik_Charging_Adjusted_Penalty>
0.00173996

> <i_epik_Tot_Q>
1

> <i_epik_Tot_abs_Q>
1

> <r_epik_Metal_State_Penalty>
-0

> <b_epik_Metal_Only>
0

> <s_lp_Force_Field>
OPLS_2005

> <r_lp_Energy>
59.7923

> <b_lp_Chiralities_Consistent>
1

> <s_lp_Variant>
AV-unprocessed.smi:212-4

> <Gold.Version>
5.8.1

> <Gold.Id.Protein>
6NUR|6NUR_protein|mol2

> <Gold.PLP.Fitness>
47.2520

> <Gold.PLP.PLP>
-37.2237

> <Gold.PLP.part.hbond>
-3.0000

> <Gold.PLP.part.metal>
0.0000

> <Gold.PLP.part.buried>
-6.4482

> <Gold.PLP.part.nonpolar>
-27.6016

> <Gold.PLP.part.repulsive>
0.4165

> <Gold.PLP.ligand.clash>
0.0000

> <Gold.PLP.ligand.torsion>
1.3426

> <Gold.PLP.Chemscore.Hbond>
2.9920

> <Gold.PLP.Chemscore.CHOScore>
0.8539

> <Gold.PLP.Chemscore.Metal>
0.0000

> <Gold.Chemscore.Hbonds>
donor molecule, donor type, donor heavy atom, donor atom, acceptor molecule, acceptor atom, score
      L1  H     9    45       P1 10957  1.00
      P1  H  7989  7998       L1    16  0.94
      P1  H  7997  8009       L1    25  0.91
      L1  C    15    50       P1  7957  0.71

> <Gold.PLP.Chemscore.Internal.Correction>
1.1759

> <Gold.Rescore>
     Score         DG    S(hbond)    S(metal)    S(lipo)     H(rot)  DE(clash)    DE(int)     intcor
     13.26     -14.75       2.48        0.00      88.97       3.68       0.13       1.36       ----

> <Gold.Chemscore.Fitness>
13.2602

> <Gold.Chemscore.DG>
-14.7546

> <Gold.Chemscore.ZeroCoef>
-5.4800

> <Gold.Chemscore.Hbond>
2.4818

> <Gold.Chemscore.Metal>
0.0000

> <Gold.Chemscore.Lipo>
88.9679

> <Gold.Chemscore.Internal_Hbond>
0.0000

> <Gold.Chemscore.DEClash>
0.1334

> <Gold.Chemscore.DEInternal>
1.3610

> <Gold.Chemscore.Rot>
3.6812

> <Gold.Chemscore.Internal.Correction>
   9.000000E+99

> <Gold.Chemscore.Hbonds>
donor molecule, donor type, donor heavy atom, donor atom, acceptor molecule, acceptor atom, score
      L1  H     9    45       P1 10957  0.98
      P1  H  7989  7998       L1    16  0.23
      P1  H  7997  8009       L1    25  0.82

> <Gold.Chemscore.Hbond.Weighted>
-8.2893

> <Gold.Chemscore.Metal.Weighted>
-0.0000

> <Gold.Chemscore.Lipo.Weighted>
-10.4092

> <Gold.Chemscore.Internal_Hbond.Weighted>
0.0000

> <Gold.Chemscore.DEClash.Weighted>
0.1334

> <Gold.Chemscore.DEInternal.Weighted>
1.3610

> <Gold.Chemscore.Rot.Weighted>
9.4239

> <Gold.Chemscore.Internal.Correction.Weighted>
   9.000000E+99

> <Gold.Protein.RotatedTorsions>
[ 6907 6896 6895 6894 ] final -143.87 input  -60.11 | X-H torsion
[ 7974 7965 7964 7962 ] final -120.26 input  175.53 | X-H torsion
[ 8008 7997 7996 7995 ] final  162.40 input   59.86 | X-H torsion
[ 10167 10162 10161 10158 ] final  115.78 input  -65.29 | X-H torsion
[ 10718 10713 10712 10709 ] final  -24.95 input   66.30 | X-H torsion
[ 10763 10752 10751 10750 ] final   90.24 input  -60.55 | X-H torsion
[ 11005 11000 10999 10996 ] final  171.20 input  -57.11 | X-H torsion

> <Gold.Protein.ActiveResidues>
 VAL166  LYS551  ARG553  GLY616  TRP617  ASP618  TYR619  PRO620  LYS621  CYS622 
 ASP623  PHE694  ASN695  SER759  ASP760  ASP761  ALA762  ILE779  LEU786  VAL792 
 PHE793  MET794  SER795  GLU796  ALA797  LYS798  CYS799  TRP800  GLU811  SER814 

> <Gold.Protein.RotatedAtoms>
  151.1063  133.5206  159.2607 H   0  0  0  0  0  0  0  0  0  0  0  0  # atno 6907 bound_to 6896
  151.2017  135.0445  159.8885 H   0  0  0  0  0  0  0  0  0  0  0  0  # atno 6908 bound_to 6896
  152.5447  134.0890  159.8322 H   0  0  0  0  0  0  0  0  0  0  0  0  # atno 6909 bound_to 6896
  145.0534  140.8236  143.4196 H   0  0  0  0  0  0  0  0  0  0  0  0  # atno 7974 bound_to 7965
  156.2034  140.1751  156.7852 H   0  0  0  0  0  0  0  0  0  0  0  0  # atno 8008 bound_to 7997
  154.5622  140.0697  156.8866 H   0  0  0  0  0  0  0  0  0  0  0  0  # atno 8009 bound_to 7997
  155.2828  140.3350  155.4259 H   0  0  0  0  0  0  0  0  0  0  0  0  # atno 8010 bound_to 7997
  139.6293  144.7113  151.2466 H   0  0  0  0  0  0  0  0  0  0  0  0  # atno 10167 bound_to 10162
  156.4708  130.4524  149.6870 H   0  0  0  0  0  0  0  0  0  0  0  0  # atno 10718 bound_to 10713
  153.1955  135.4441  155.0202 H   0  0  0  0  0  0  0  0  0  0  0  0  # atno 10763 bound_to 10752
  154.8116  135.3297  154.7292 H   0  0  0  0  0  0  0  0  0  0  0  0  # atno 10764 bound_to 10752
  153.7742  135.6982  153.4956 H   0  0  0  0  0  0  0  0  0  0  0  0  # atno 10765 bound_to 10752
  140.3165  134.7473  157.4031 H   0  0  0  0  0  0  0  0  0  0  0  0  # atno 11005 bound_to 11000
  145.1499  139.2521  143.5446 LP  0  0  0  0  0  0  0  0  0  0  0  0  # atno 17320 bound_to 7965
  146.3519  140.1198  142.8600 LP  0  0  0  0  0  0  0  0  0  0  0  0  # atno 17321 bound_to 7965
  140.7430  143.6509  150.8249 LP  0  0  0  0  0  0  0  0  0  0  0  0  # atno 17342 bound_to 10162
  140.0132  143.5621  152.2831 LP  0  0  0  0  0  0  0  0  0  0  0  0  # atno 17343 bound_to 10162
  156.3620  130.7486  151.2460 LP  0  0  0  0  0  0  0  0  0  0  0  0  # atno 17370 bound_to 10713
  157.7491  131.0347  150.4331 LP  0  0  0  0  0  0  0  0  0  0  0  0  # atno 17371 bound_to 10713
  140.0979  134.5513  155.8381 LP  0  0  0  0  0  0  0  0  0  0  0  0  # atno 17394 bound_to 11000
  141.2096  133.6686  156.6453 LP  0  0  0  0  0  0  0  0  0  0  0  0  # atno 17395 bound_to 11000

$$$$
