AV-unprocessed.smi:686|AV-procd|sdf|3349|dock5
  -GOLD-   22720 0323D 1   1.00000     0.00000
 Structure written by MMmdl.
 40 41  0  0  0  0  0  0  0  0  3 V2000
  150.3025  135.4174  155.0936 C   0  0  0  0  0  0  0  0  0  0  0  0
  149.5822  134.0577  155.2653 C   0  0  2  0  0  0  0  0  0  0  0  0
  149.3544  133.3866  153.9049 C   0  0  0  0  0  0  0  0  0  0  0  0
  148.0731  133.9357  153.3997 N   0  3  1  0  0  0  0  0  0  0  0  0
  147.3594  133.0982  152.3937 C   0  0  0  0  0  0  0  0  0  0  0  0
  146.1354  133.8277  151.8065 C   0  0  0  0  0  0  0  0  0  0  0  0
  146.9092  131.7594  153.0080 C   0  0  0  0  0  0  0  0  0  0  0  0
  147.2676  134.3414  154.5813 C   0  0  0  0  0  0  0  0  0  0  0  0
  148.1436  134.1118  155.8209 C   0  0  2  0  0  0  0  0  0  0  0  0
  147.9360  135.1357  156.8396 N   0  5  0  0  0  0  0  0  0  0  0  0
  147.5013  134.7526  158.3612 S   0  0  0  0  0  0  0  0  0  0  0  0
  146.0702  134.4382  158.5098 O   0  0  0  0  0  0  0  0  0  0  0  0
  148.4478  133.7933  158.9500 O   0  0  0  0  0  0  0  0  0  0  0  0
  147.7872  136.3422  159.2656 C   0  0  0  0  0  0  0  0  0  0  0  0
  147.3574  136.1999  160.6984 C   0  0  0  0  0  0  0  0  0  0  0  0
  147.1170  135.0080  161.4369 C   0  0  0  0  0  0  0  0  0  0  0  0
  146.7602  135.4645  162.6725 C   0  0  0  0  0  0  0  0  0  0  0  0
  146.7857  136.8206  162.7038 O   0  0  0  0  0  0  0  0  0  0  0  0
  147.1713  137.2811  161.4398 N   0  0  0  0  0  0  0  0  0  0  0  0
  149.7392  136.1172  154.4736 H   0  0  0  0  0  0  0  0  0  0  0  0
  151.2733  135.2763  154.6176 H   0  0  0  0  0  0  0  0  0  0  0  0
  150.4960  135.9009  156.0527 H   0  0  0  0  0  0  0  0  0  0  0  0
  150.2068  133.4216  155.8937 H   0  0  0  0  0  0  0  0  0  0  0  0
  150.1703  133.5780  153.2067 H   0  0  0  0  0  0  0  0  0  0  0  0
  149.2792  132.3013  154.0189 H   0  0  0  0  0  0  0  0  0  0  0  0
  148.0514  132.8880  151.5766 H   0  0  0  0  0  0  0  0  0  0  0  0
  145.5948  133.1850  151.1106 H   0  0  0  0  0  0  0  0  0  0  0  0
  146.4172  134.7223  151.2512 H   0  0  0  0  0  0  0  0  0  0  0  0
  145.4374  134.1248  152.5900 H   0  0  0  0  0  0  0  0  0  0  0  0
  146.3713  131.1564  152.2760 H   0  0  0  0  0  0  0  0  0  0  0  0
  146.2427  131.9184  153.8565 H   0  0  0  0  0  0  0  0  0  0  0  0
  147.7500  131.1589  153.3547 H   0  0  0  0  0  0  0  0  0  0  0  0
  146.9968  135.3914  154.4598 H   0  0  0  0  0  0  0  0  0  0  0  0
  146.3426  133.7706  154.6725 H   0  0  0  0  0  0  0  0  0  0  0  0
  147.9029  133.1179  156.2011 H   0  0  0  0  0  0  0  0  0  0  0  0
  148.8474  136.5860  159.2017 H   0  0  0  0  0  0  0  0  0  0  0  0
  147.2318  137.1377  158.7697 H   0  0  0  0  0  0  0  0  0  0  0  0
  147.1878  133.9821  161.1074 H   0  0  0  0  0  0  0  0  0  0  0  0
  146.4754  134.9734  163.5913 H   0  0  0  0  0  0  0  0  0  0  0  0
  148.3180  134.7991  152.9368 H   0  0  0  0  0  0  0  0  0  0  0  0
  1  2  1  0  0  0  0
  1 20  1  0  0  0  0
  1 21  1  0  0  0  0
  1 22  1  0  0  0  0
  2  9  1  0  0  0  0
  2  3  1  0  0  0  0
  2 23  1  0  0  0  0
  3  4  1  0  0  0  0
  3 24  1  0  0  0  0
  3 25  1  0  0  0  0
  4  5  1  0  0  0  0
  4  8  1  0  0  0  0
  4 40  1  0  0  0  0
  5  6  1  0  0  0  0
  5  7  1  0  0  0  0
  5 26  1  0  0  0  0
  6 27  1  0  0  0  0
  6 28  1  0  0  0  0
  6 29  1  0  0  0  0
  7 30  1  0  0  0  0
  7 31  1  0  0  0  0
  7 32  1  0  0  0  0
  8  9  1  0  0  0  0
  8 33  1  0  0  0  0
  8 34  1  0  0  0  0
  9 10  1  0  0  0  0
  9 35  1  0  0  0  0
 10 11  1  0  0  0  0
 11 12  2  0  0  0  0
 11 13  2  0  0  0  0
 11 14  1  0  0  0  0
 14 15  1  0  0  0  0
 14 36  1  0  0  0  0
 14 37  1  0  0  0  0
 15 19  2  0  0  0  0
 15 16  1  0  0  0  0
 16 17  2  0  0  0  0
 16 38  1  0  0  0  0
 17 18  1  0  0  0  0
 17 39  1  0  0  0  0
 18 19  1  0  0  0  0
M  CHG  1   4   1
M  CHG  1  10  -1
M  END
> <s_m_source_file>
AV-unprocessed.smi

> <i_m_source_file_index>
686

> <i_lp_mmshare_version>
43012

> <i_f3d_flags>
0

> <s_epik_input>
W0NIM11bQ0BASF0xW0NIMl1OKFtDSF0oW0NIM10pW0NIM10pW0NIMl1bQ0BIXTFbTkhdUyg9TykoPU8pW0NIMl1jMltjSF1bY0hdb24y

> <s_epik_cmdline>
J2VwaWtfcHl0aG9uJywgJy1waCcsICc3LjAnLCAnLXRuJywgJzgnLCAnLW1hJywgJzIwMCcsICctbWV0YWxfYmluZGluZycsICctaW1hZScsICc8aW5maWxlLm1hZT4nLCAnLW9tYWUnLCAnPG91dGZpbGUubWFlPic=

> <r_epik_Ionization_Penalty>
3.62478

> <r_epik_Ionization_Penalty_Charging>
3.62478

> <r_epik_Ionization_Penalty_Neutral>
2.03645e-10

> <r_epik_State_Penalty>
3.6247

> <r_epik_Charging_Adjusted_Penalty>
7.24949

> <i_epik_Tot_Q>
0

> <i_epik_Tot_abs_Q>
2

> <r_epik_Metal_State_Penalty>
0.530836

> <b_epik_Metal_Only>
1

> <s_lp_Force_Field>
OPLS_2005

> <r_lp_Energy>
21.5589

> <b_lp_Chiralities_Consistent>
1

> <s_lp_Variant>
AV-unprocessed.smi:686-13

> <Gold.Version>
5.8.1

> <Gold.Id.Protein>
6NUR|6NUR_protein|mol2

> <Gold.PLP.Fitness>
45.0214

> <Gold.PLP.PLP>
-31.5155

> <Gold.PLP.part.hbond>
-4.1602

> <Gold.PLP.part.metal>
0.0000

> <Gold.PLP.part.buried>
-4.6779

> <Gold.PLP.part.nonpolar>
-22.6242

> <Gold.PLP.part.repulsive>
0.0000

> <Gold.PLP.ligand.clash>
0.0000

> <Gold.PLP.ligand.torsion>
0.9128

> <Gold.PLP.Chemscore.Hbond>
4.7680

> <Gold.PLP.Chemscore.CHOScore>
0.0000

> <Gold.PLP.Chemscore.Metal>
0.0000

> <Gold.Chemscore.Hbonds>
donor molecule, donor type, donor heavy atom, donor atom, acceptor molecule, acceptor atom, score
      L1  H     4    40       P1  7948  2.00
      P1  H  6896  6909       L1    13  0.42
      P1  H  6931  6943       L1    19  0.57
      P1  H  6934  6947       L1    19  1.00

> <Gold.PLP.Chemscore.Internal.Correction>
1.0274

> <Gold.Rescore>
     Score         DG    S(hbond)    S(metal)    S(lipo)     H(rot)  DE(clash)    DE(int)     intcor
     18.39     -20.07       3.34        0.00      64.71       1.61       0.02       1.66       ----

> <Gold.Chemscore.Fitness>
18.3940

> <Gold.Chemscore.DG>
-20.0746

> <Gold.Chemscore.ZeroCoef>
-5.4800

> <Gold.Chemscore.Hbond>
3.3405

> <Gold.Chemscore.Metal>
0.0000

> <Gold.Chemscore.Lipo>
64.7121

> <Gold.Chemscore.Internal_Hbond>
0.0000

> <Gold.Chemscore.DEClash>
0.0158

> <Gold.Chemscore.DEInternal>
1.6649

> <Gold.Chemscore.Rot>
1.6149

> <Gold.Chemscore.Internal.Correction>
   9.000000E+99

> <Gold.Chemscore.Hbonds>
donor molecule, donor type, donor heavy atom, donor atom, acceptor molecule, acceptor atom, score
      L1  H     4    40       P1  7948  0.65
      P1  H  6896  6909       L1    13  0.40
      P1  H  6931  6943       L1    19  0.14
      P1  H  6934  6947       L1    19  0.94

> <Gold.Chemscore.Hbond.Weighted>
-11.1574

> <Gold.Chemscore.Metal.Weighted>
-0.0000

> <Gold.Chemscore.Lipo.Weighted>
-7.5713

> <Gold.Chemscore.Internal_Hbond.Weighted>
0.0000

> <Gold.Chemscore.DEClash.Weighted>
0.0158

> <Gold.Chemscore.DEInternal.Weighted>
1.6649

> <Gold.Chemscore.Rot.Weighted>
4.1341

> <Gold.Chemscore.Internal.Correction.Weighted>
   9.000000E+99

> <Gold.Protein.RotatedTorsions>
[ 6907 6896 6895 6894 ] final   13.90 input  -60.11 | X-H torsion
[ 7974 7965 7964 7962 ] final  -18.44 input  175.53 | X-H torsion
[ 8008 7997 7996 7995 ] final  132.40 input   59.86 | X-H torsion
[ 10167 10162 10161 10158 ] final -142.08 input  -65.29 | X-H torsion
[ 10718 10713 10712 10709 ] final  -47.72 input   66.30 | X-H torsion
[ 10763 10752 10751 10750 ] final  -35.74 input  -60.55 | X-H torsion
[ 11005 11000 10999 10996 ] final   73.02 input  -57.11 | X-H torsion

> <Gold.Protein.ActiveResidues>
 VAL166  LYS551  ARG553  GLY616  TRP617  ASP618  TYR619  PRO620  LYS621  CYS622 
 ASP623  PHE694  ASN695  SER759  ASP760  ASP761  ALA762  ILE779  LEU786  VAL792 
 PHE793  MET794  SER795  GLU796  ALA797  LYS798  CYS799  TRP800  GLU811  SER814 

> <Gold.Protein.RotatedAtoms>
  151.7937  135.0728  160.0390 H   0  0  0  0  0  0  0  0  0  0  0  0  # atno 6907 bound_to 6896
  152.3138  133.5776  159.5707 H   0  0  0  0  0  0  0  0  0  0  0  0  # atno 6908 bound_to 6896
  150.7333  134.0029  159.3686 H   0  0  0  0  0  0  0  0  0  0  0  0  # atno 6909 bound_to 6896
  146.1892  140.3921  142.8464 H   0  0  0  0  0  0  0  0  0  0  0  0  # atno 7974 bound_to 7965
  156.2982  140.2547  156.3084 H   0  0  0  0  0  0  0  0  0  0  0  0  # atno 8008 bound_to 7997
  154.9350  140.0397  157.2086 H   0  0  0  0  0  0  0  0  0  0  0  0  # atno 8009 bound_to 7997
  154.8181  140.2855  155.5810 H   0  0  0  0  0  0  0  0  0  0  0  0  # atno 8010 bound_to 7997
  139.8123  143.7686  152.2664 H   0  0  0  0  0  0  0  0  0  0  0  0  # atno 10167 bound_to 10162
  156.2057  130.4158  149.9181 H   0  0  0  0  0  0  0  0  0  0  0  0  # atno 10718 bound_to 10713
  153.8682  135.6833  153.4776 H   0  0  0  0  0  0  0  0  0  0  0  0  # atno 10763 bound_to 10752
  153.1302  135.4701  154.9335 H   0  0  0  0  0  0  0  0  0  0  0  0  # atno 10764 bound_to 10752
  154.7726  135.3243  154.8107 H   0  0  0  0  0  0  0  0  0  0  0  0  # atno 10765 bound_to 10752
  139.9461  134.7310  156.0976 H   0  0  0  0  0  0  0  0  0  0  0  0  # atno 11005 bound_to 11000
  144.8454  140.6921  143.6202 LP  0  0  0  0  0  0  0  0  0  0  0  0  # atno 17320 bound_to 7965
  145.3845  139.1629  143.4262 LP  0  0  0  0  0  0  0  0  0  0  0  0  # atno 17321 bound_to 7965
  139.7839  144.7435  151.0049 LP  0  0  0  0  0  0  0  0  0  0  0  0  # atno 17342 bound_to 10162
  140.7817  143.4513  151.0409 LP  0  0  0  0  0  0  0  0  0  0  0  0  # atno 17343 bound_to 10162
  156.6876  130.8883  151.3584 LP  0  0  0  0  0  0  0  0  0  0  0  0  # atno 17370 bound_to 10713
  157.7011  130.9334  150.0788 LP  0  0  0  0  0  0  0  0  0  0  0  0  # atno 17371 bound_to 10713
  141.1112  133.6643  156.2982 LP  0  0  0  0  0  0  0  0  0  0  0  0  # atno 17394 bound_to 11000
  140.5831  134.5725  157.5484 LP  0  0  0  0  0  0  0  0  0  0  0  0  # atno 17395 bound_to 11000

$$$$
