AV-unprocessed.smi:285|AV-procd|sdf|2170|dock8
  -GOLD-   2262021533D 1   1.00000     0.00000
 Structure written by MMmdl.
 31 33  0  0  0  0  0  0  0  0  1 V2000
  155.1198  141.0229  160.6233 N   0  0  0  0  0  0  0  0  0  0  0  0
  153.8874  141.3562  160.2152 C   0  0  0  0  0  0  0  0  0  0  0  0
  153.2823  142.4173  160.7982 N   0  0  0  0  0  0  0  0  0  0  0  0
  152.0513  142.7682  160.4125 C   0  0  0  0  0  0  0  0  0  0  0  0
  151.2728  142.2032  159.4859 N   0  0  0  0  0  0  0  0  0  0  0  0
  151.8846  141.1347  158.8949 C   0  0  0  0  0  0  0  0  0  0  0  0
  153.1888  140.6484  159.2048 C   0  0  0  0  0  0  0  0  0  0  0  0
  153.4899  139.5451  158.4161 N   0  0  0  0  0  0  0  0  0  0  0  0
  152.4139  139.4071  157.6928 C   0  0  0  0  0  0  0  0  0  0  0  0
  152.2837  137.9956  156.4206 Br  0  0  0  0  0  0  0  0  0  0  0  0
  151.3945  140.3082  157.9025 N   0  0  0  0  0  0  0  0  0  0  0  0
  150.0605  140.3936  157.2317 C   0  0  1  0  0  0  0  0  0  0  0  0
  149.9101  141.7165  156.4869 C   0  0  0  0  0  0  0  0  0  0  0  0
  149.0227  141.2885  155.3400 C   0  0  1  0  0  0  0  0  0  0  0  0
  149.1332  142.1860  154.2546 O   0  0  0  0  0  0  0  0  0  0  0  0
  149.5865  139.9010  155.0133 C   0  0  2  0  0  0  0  0  0  0  0  0
  148.5658  138.9731  154.3364 C   0  0  0  0  0  0  0  0  0  0  0  0
  148.1212  139.5397  153.1225 O   0  0  0  0  0  0  0  0  0  0  0  0
  149.9606  139.3706  156.2864 O   0  0  0  0  0  0  0  0  0  0  0  0
  155.5918  140.2339  160.2050 H   0  0  0  0  0  0  0  0  0  0  0  0
  155.5734  141.5597  161.3483 H   0  0  0  0  0  0  0  0  0  0  0  0
  151.6288  143.6235  160.9189 H   0  0  0  0  0  0  0  0  0  0  0  0
  149.3143  140.2460  158.0120 H   0  0  0  0  0  0  0  0  0  0  0  0
  149.4750  142.4856  157.1257 H   0  0  0  0  0  0  0  0  0  0  0  0
  150.8825  142.0555  156.1246 H   0  0  0  0  0  0  0  0  0  0  0  0
  147.9856  141.2197  155.6721 H   0  0  0  0  0  0  0  0  0  0  0  0
  148.9225  143.0549  154.5615 H   0  0  0  0  0  0  0  0  0  0  0  0
  150.4848  140.0095  154.4024 H   0  0  0  0  0  0  0  0  0  0  0  0
  148.9842  137.9810  154.1640 H   0  0  0  0  0  0  0  0  0  0  0  0
  147.6914  138.8489  154.9760 H   0  0  0  0  0  0  0  0  0  0  0  0
  148.8286  139.5035  152.4967 H   0  0  0  0  0  0  0  0  0  0  0  0
  1  2  1  0  0  0  0
  1 20  1  0  0  0  0
  1 21  1  0  0  0  0
  2  7  1  0  0  0  0
  2  3  2  0  0  0  0
  3  4  1  0  0  0  0
  4  5  2  0  0  0  0
  4 22  1  0  0  0  0
  5  6  1  0  0  0  0
  6 11  1  0  0  0  0
  6  7  2  0  0  0  0
  7  8  1  0  0  0  0
  8  9  2  0  0  0  0
  9 10  1  0  0  0  0
  9 11  1  0  0  0  0
 11 12  1  0  0  0  0
 12 19  1  0  0  0  0
 12 13  1  0  0  0  0
 12 23  1  0  0  0  0
 13 14  1  0  0  0  0
 13 24  1  0  0  0  0
 13 25  1  0  0  0  0
 14 15  1  0  0  0  0
 14 16  1  0  0  0  0
 14 26  1  0  0  0  0
 15 27  1  0  0  0  0
 16 17  1  0  0  0  0
 16 19  1  0  0  0  0
 16 28  1  0  0  0  0
 17 18  1  0  0  0  0
 17 29  1  0  0  0  0
 17 30  1  0  0  0  0
 18 31  1  0  0  0  0
M  END
> <s_m_source_file>
AV-unprocessed.smi

> <i_m_source_file_index>
285

> <i_lp_mmshare_version>
43012

> <i_f3d_flags>
0

> <s_epik_input>
bjFbY0hdbmMoW05IMl0pYyhjMTIpbmMoQnIpbjJbQ0BASF0zW0NIMl1bQ0BASF0oW09IXSlbQ0BIXShPMylbQ0gyXVtPSF0=

> <s_epik_cmdline>
J2VwaWtfcHl0aG9uJywgJy1waCcsICc3LjAnLCAnLXRuJywgJzgnLCAnLW1hJywgJzIwMCcsICctbWV0YWxfYmluZGluZycsICctaW1hZScsICc8aW5maWxlLm1hZT4nLCAnLW9tYWUnLCAnPG91dGZpbGUubWFlPic=

> <r_lp_tautomer_probability>
1

> <r_epik_Ionization_Penalty>
0.000103242

> <r_epik_Ionization_Penalty_Charging>
0

> <r_epik_Ionization_Penalty_Neutral>
0.000103242

> <r_epik_State_Penalty>
-0

> <r_epik_Charging_Adjusted_Penalty>
0

> <i_epik_Tot_Q>
0

> <i_epik_Tot_abs_Q>
0

> <r_epik_Metal_State_Penalty>
-0

> <b_epik_Metal_Only>
0

> <s_epik_Chemistry_Notes>
This compound contains an acetal/aminal-like group ( X-CH(R)-Y where X, Y are N, S, or O) that may be acid/base labile, releasing an aldehyde.

> <s_lp_Force_Field>
OPLS_2005

> <r_lp_Energy>
32.6465

> <b_lp_Chiralities_Consistent>
1

> <s_lp_Variant>
AV-unprocessed.smi:285-6

> <Gold.Version>
5.8.1

> <Gold.Id.Protein>
6NUR|6NUR_protein|mol2

> <Gold.PLP.Fitness>
40.9061

> <Gold.PLP.PLP>
-31.0971

> <Gold.PLP.part.hbond>
-5.6084

> <Gold.PLP.part.metal>
0.0000

> <Gold.PLP.part.buried>
-3.3135

> <Gold.PLP.part.nonpolar>
-20.8814

> <Gold.PLP.part.repulsive>
0.0414

> <Gold.PLP.ligand.clash>
0.0000

> <Gold.PLP.ligand.torsion>
0.0090

> <Gold.PLP.Chemscore.Hbond>
3.2728

> <Gold.PLP.Chemscore.CHOScore>
0.0000

> <Gold.PLP.Chemscore.Metal>
0.0000

> <Gold.Chemscore.Hbonds>
donor molecule, donor type, donor heavy atom, donor atom, acceptor molecule, acceptor atom, score
      L1  H    15    27       P1  8028  1.00
      L1  H    18    31       P1  7957  1.00
      P1  H  7997  8008       L1     8  1.00
      P1  H  8011  8017       L1    15  0.29

> <Gold.PLP.Chemscore.Internal.Correction>
0.0086

> <Gold.Rescore>
     Score         DG    S(hbond)    S(metal)    S(lipo)     H(rot)  DE(clash)    DE(int)     intcor
      9.15     -10.92       2.65        0.00      37.67       3.06       0.17       1.60       ----

> <Gold.Chemscore.Fitness>
9.1533

> <Gold.Chemscore.DG>
-10.9193

> <Gold.Chemscore.ZeroCoef>
-5.4800

> <Gold.Chemscore.Hbond>
2.6549

> <Gold.Chemscore.Metal>
0.0000

> <Gold.Chemscore.Lipo>
37.6697

> <Gold.Chemscore.Internal_Hbond>
0.0000

> <Gold.Chemscore.DEClash>
0.1706

> <Gold.Chemscore.DEInternal>
1.5953

> <Gold.Chemscore.Rot>
3.0607

> <Gold.Chemscore.Internal.Correction>
   9.000000E+99

> <Gold.Chemscore.Hbonds>
donor molecule, donor type, donor heavy atom, donor atom, acceptor molecule, acceptor atom, score
      L1  H    15    27       P1  8028  0.98
      L1  H    18    31       P1  7957  0.96
      P1  H  7997  8008       L1     8  0.41
      P1  H  8011  8017       L1    15  0.13

> <Gold.Chemscore.Hbond.Weighted>
-8.8673

> <Gold.Chemscore.Metal.Weighted>
-0.0000

> <Gold.Chemscore.Lipo.Weighted>
-4.4074

> <Gold.Chemscore.Internal_Hbond.Weighted>
0.0000

> <Gold.Chemscore.DEClash.Weighted>
0.1706

> <Gold.Chemscore.DEInternal.Weighted>
1.5953

> <Gold.Chemscore.Rot.Weighted>
7.8354

> <Gold.Chemscore.Internal.Correction.Weighted>
   9.000000E+99

> <Gold.Protein.RotatedTorsions>
[ 6907 6896 6895 6894 ] final -134.62 input  -60.11 | X-H torsion
[ 7974 7965 7964 7962 ] final -131.77 input  175.53 | X-H torsion
[ 8008 7997 7996 7995 ] final -109.49 input   59.86 | X-H torsion
[ 10167 10162 10161 10158 ] final  -93.97 input  -65.29 | X-H torsion
[ 10718 10713 10712 10709 ] final -131.28 input   66.30 | X-H torsion
[ 10763 10752 10751 10750 ] final -162.26 input  -60.55 | X-H torsion
[ 11005 11000 10999 10996 ] final  -12.80 input  -57.11 | X-H torsion

> <Gold.Protein.ActiveResidues>
 VAL166  LYS551  ARG553  GLY616  TRP617  ASP618  TYR619  PRO620  LYS621  CYS622 
 ASP623  PHE694  ASN695  SER759  ASP760  ASP761  ALA762  ILE779  LEU786  VAL792 
 PHE793  MET794  SER795  GLU796  ALA797  LYS798  CYS799  TRP800  GLU811  SER814 

> <Gold.Protein.RotatedAtoms>
  150.9880  133.6178  159.2712 H   0  0  0  0  0  0  0  0  0  0  0  0  # atno 6907 bound_to 6896
  151.3409  135.0862  159.9380 H   0  0  0  0  0  0  0  0  0  0  0  0  # atno 6908 bound_to 6896
  152.5237  133.9491  159.7718 H   0  0  0  0  0  0  0  0  0  0  0  0  # atno 6909 bound_to 6896
  144.9348  140.7171  143.4883 H   0  0  0  0  0  0  0  0  0  0  0  0  # atno 7974 bound_to 7965
  154.9601  140.0399  157.2186 H   0  0  0  0  0  0  0  0  0  0  0  0  # atno 8008 bound_to 7997
  154.7897  140.2833  155.5979 H   0  0  0  0  0  0  0  0  0  0  0  0  # atno 8009 bound_to 7997
  156.2948  140.2576  156.2741 H   0  0  0  0  0  0  0  0  0  0  0  0  # atno 8010 bound_to 7997
  140.3192  143.3059  152.0064 H   0  0  0  0  0  0  0  0  0  0  0  0  # atno 10167 bound_to 10162
  156.2228  130.6989  151.0775 H   0  0  0  0  0  0  0  0  0  0  0  0  # atno 10718 bound_to 10713
  154.7230  135.3030  154.9017 H   0  0  0  0  0  0  0  0  0  0  0  0  # atno 10763 bound_to 10752
  153.9883  135.6722  153.4757 H   0  0  0  0  0  0  0  0  0  0  0  0  # atno 10764 bound_to 10752
  153.0850  135.4989  154.8497 H   0  0  0  0  0  0  0  0  0  0  0  0  # atno 10765 bound_to 10752
  140.7695  133.8450  155.9194 H   0  0  0  0  0  0  0  0  0  0  0  0  # atno 11005 bound_to 11000
  145.3084  139.1827  143.4652 LP  0  0  0  0  0  0  0  0  0  0  0  0  # atno 17320 bound_to 7965
  146.3262  140.3085  142.8625 LP  0  0  0  0  0  0  0  0  0  0  0  0  # atno 17321 bound_to 7965
  139.4877  144.6324  151.7043 LP  0  0  0  0  0  0  0  0  0  0  0  0  # atno 17342 bound_to 10162
  140.5499  144.0443  150.6122 LP  0  0  0  0  0  0  0  0  0  0  0  0  # atno 17343 bound_to 10162
  157.7096  131.0740  150.6547 LP  0  0  0  0  0  0  0  0  0  0  0  0  # atno 17370 bound_to 10713
  156.6611  130.4512  149.5687 LP  0  0  0  0  0  0  0  0  0  0  0  0  # atno 17371 bound_to 10713
  140.9587  134.1683  157.4671 LP  0  0  0  0  0  0  0  0  0  0  0  0  # atno 17394 bound_to 11000
  139.8758  134.9937  156.5656 LP  0  0  0  0  0  0  0  0  0  0  0  0  # atno 17395 bound_to 11000

$$$$
