AV-unprocessed.smi:91|AV-procd|sdf|834|dock9
  -GOLD-   2262017263D 1   1.00000     0.00000
 Structure written by MMmdl.
 60 63  0  0  0  0  0  0  0  0  1 V2000
  152.8225  131.1521  158.2674 C   0  0  0  0  0  0  0  0  0  0  0  0
  151.8198  132.1395  158.0863 O   0  0  0  0  0  0  0  0  0  0  0  0
  151.0465  131.9768  156.9044 C   0  0  0  0  0  0  0  0  0  0  0  0
  150.3115  133.2656  156.4948 C   0  0  1  0  0  0  0  0  0  0  0  0
  151.2862  134.4265  156.2270 C   0  0  0  0  0  0  0  0  0  0  0  0
  150.5679  135.5711  155.6782 N   0  0  0  0  0  0  0  0  0  0  0  0
  151.2019  136.7695  155.7581 C   0  0  0  0  0  0  0  0  0  0  0  0
  151.8268  137.2139  154.6364 N   0  0  0  0  0  0  0  0  0  0  0  0
  152.4817  138.3778  154.6387 C   0  0  0  0  0  0  0  0  0  0  0  0
  152.6321  139.2473  155.6383 N   0  0  0  0  0  0  0  0  0  0  0  0
  152.0019  138.8157  156.7672 C   0  0  0  0  0  0  0  0  0  0  0  0
  151.2744  137.5991  156.9186 C   0  0  0  0  0  0  0  0  0  0  0  0
  150.7791  137.5157  158.2166 N   0  0  0  0  0  0  0  0  0  0  0  0
  151.1926  138.6086  158.7956 C   0  0  0  0  0  0  0  0  0  0  0  0
  151.9172  139.4568  157.9910 N   0  0  0  0  0  0  0  0  0  0  0  0
  152.4960  140.7324  158.3746 C   0  0  0  0  0  0  0  0  0  0  0  0
  151.5253  141.7058  159.0959 C   0  0  2  0  0  0  0  0  0  0  0  0
  150.6271  142.3570  158.0160 C   0  0  0  0  0  0  0  0  0  0  0  0
  151.1865  143.5511  157.5092 O   0  0  0  0  0  0  0  0  0  0  0  0
  152.2593  142.7615  159.9798 C   0  0  2  0  0  0  0  0  0  0  0  0
  152.9102  142.2236  161.2562 C   0  0  0  0  0  0  0  0  0  0  0  0
  152.7579  143.3434  162.2898 C   0  0  0  0  0  0  0  0  0  0  0  0
  152.1811  144.4287  161.5825 O   0  0  0  0  0  0  0  0  0  0  0  0
  151.3800  143.8761  160.5548 C   0  0  0  0  0  0  0  0  0  0  0  0
  149.7917  135.2524  154.4867 C   0  0  0  0  0  0  0  0  0  0  0  0
  148.8350  134.0684  154.7467 C   0  0  0  0  0  0  0  0  0  0  0  0
  147.6568  134.4694  155.6604 C   0  0  0  0  0  0  0  0  0  0  0  0
  148.2817  133.5473  153.4116 C   0  0  0  0  0  0  0  0  0  0  0  0
  149.5770  132.9776  155.3040 O   0  0  0  0  0  0  0  0  0  0  0  0
  153.4064  131.3896  159.1565 H   0  0  0  0  0  0  0  0  0  0  0  0
  153.5064  131.1213  157.4182 H   0  0  0  0  0  0  0  0  0  0  0  0
  152.3951  130.1599  158.4105 H   0  0  0  0  0  0  0  0  0  0  0  0
  151.7263  131.6838  156.1038 H   0  0  0  0  0  0  0  0  0  0  0  0
  150.3430  131.1512  157.0228 H   0  0  0  0  0  0  0  0  0  0  0  0
  149.6147  133.5430  157.2839 H   0  0  0  0  0  0  0  0  0  0  0  0
  151.8039  134.6842  157.1512 H   0  0  0  0  0  0  0  0  0  0  0  0
  152.0505  134.1196  155.5118 H   0  0  0  0  0  0  0  0  0  0  0  0
  152.9519  138.6513  153.7057 H   0  0  0  0  0  0  0  0  0  0  0  0
  150.9656  138.8336  159.8277 H   0  0  0  0  0  0  0  0  0  0  0  0
  153.3651  140.5416  159.0057 H   0  0  0  0  0  0  0  0  0  0  0  0
  152.8776  141.1931  157.4625 H   0  0  0  0  0  0  0  0  0  0  0  0
  150.8769  141.1090  159.7390 H   0  0  0  0  0  0  0  0  0  0  0  0
  150.4339  141.6621  157.1982 H   0  0  0  0  0  0  0  0  0  0  0  0
  149.6564  142.6270  158.4328 H   0  0  0  0  0  0  0  0  0  0  0  0
  150.6147  143.8899  156.8374 H   0  0  0  0  0  0  0  0  0  0  0  0
  153.0338  143.2421  159.3798 H   0  0  0  0  0  0  0  0  0  0  0  0
  152.4093  141.3246  161.6169 H   0  0  0  0  0  0  0  0  0  0  0  0
  153.9605  141.9817  161.0971 H   0  0  0  0  0  0  0  0  0  0  0  0
  152.0863  143.0360  163.0927 H   0  0  0  0  0  0  0  0  0  0  0  0
  153.7098  143.6336  162.7349 H   0  0  0  0  0  0  0  0  0  0  0  0
  151.1174  144.6336  159.8160 H   0  0  0  0  0  0  0  0  0  0  0  0
  150.4610  143.4780  160.9888 H   0  0  0  0  0  0  0  0  0  0  0  0
  149.2193  136.1221  154.1614 H   0  0  0  0  0  0  0  0  0  0  0  0
  150.4838  134.9977  153.6829 H   0  0  0  0  0  0  0  0  0  0  0  0
  147.0233  135.2123  155.1749 H   0  0  0  0  0  0  0  0  0  0  0  0
  147.9877  134.9065  156.6021 H   0  0  0  0  0  0  0  0  0  0  0  0
  147.0317  133.6079  155.8965 H   0  0  0  0  0  0  0  0  0  0  0  0
  147.7138  134.3180  152.8893 H   0  0  0  0  0  0  0  0  0  0  0  0
  147.6206  132.6936  153.5642 H   0  0  0  0  0  0  0  0  0  0  0  0
  149.0861  133.2242  152.7499 H   0  0  0  0  0  0  0  0  0  0  0  0
  1  2  1  0  0  0  0
  1 30  1  0  0  0  0
  1 31  1  0  0  0  0
  1 32  1  0  0  0  0
  2  3  1  0  0  0  0
  3  4  1  0  0  0  0
  3 33  1  0  0  0  0
  3 34  1  0  0  0  0
  4 29  1  0  0  0  0
  4  5  1  0  0  0  0
  4 35  1  0  0  0  0
  5  6  1  0  0  0  0
  5 36  1  0  0  0  0
  5 37  1  0  0  0  0
  6  7  1  0  0  0  0
  6 25  1  0  0  0  0
  7 12  1  0  0  0  0
  7  8  2  0  0  0  0
  8  9  1  0  0  0  0
  9 10  2  0  0  0  0
  9 38  1  0  0  0  0
 10 11  1  0  0  0  0
 11 15  1  0  0  0  0
 11 12  2  0  0  0  0
 12 13  1  0  0  0  0
 13 14  2  0  0  0  0
 14 15  1  0  0  0  0
 14 39  1  0  0  0  0
 15 16  1  0  0  0  0
 16 17  1  0  0  0  0
 16 40  1  0  0  0  0
 16 41  1  0  0  0  0
 17 18  1  0  0  0  0
 17 20  1  0  0  0  0
 17 42  1  0  0  0  0
 18 19  1  0  0  0  0
 18 43  1  0  0  0  0
 18 44  1  0  0  0  0
 19 45  1  0  0  0  0
 20 24  1  0  0  0  0
 20 21  1  0  0  0  0
 20 46  1  0  0  0  0
 21 22  1  0  0  0  0
 21 47  1  0  0  0  0
 21 48  1  0  0  0  0
 22 23  1  0  0  0  0
 22 49  1  0  0  0  0
 22 50  1  0  0  0  0
 23 24  1  0  0  0  0
 24 51  1  0  0  0  0
 24 52  1  0  0  0  0
 25 26  1  0  0  0  0
 25 53  1  0  0  0  0
 25 54  1  0  0  0  0
 26 27  1  0  0  0  0
 26 28  1  0  0  0  0
 26 29  1  0  0  0  0
 27 55  1  0  0  0  0
 27 56  1  0  0  0  0
 27 57  1  0  0  0  0
 28 58  1  0  0  0  0
 28 59  1  0  0  0  0
 28 60  1  0  0  0  0
M  END
> <s_m_source_file>
AV-unprocessed.smi

> <i_m_source_file_index>
91

> <i_lp_mmshare_version>
43012

> <i_f3d_flags>
0

> <s_epik_input>
W0NIM11PW0NIMl1bQ0BASF0oTzEpW0NIMl1OKFtDSDJdQzEoW0NIM10pW0NIM10pYyhuW2NIXW4yKWMoYzIzKW5bY0hdbjNbQ0gyXVtDQEhdKFtDSDJdW09IXSlbQ0BASF00W0NIMl1bQ0gyXU9bQ0gyXTQ=

> <s_epik_cmdline>
J2VwaWtfcHl0aG9uJywgJy1waCcsICc3LjAnLCAnLXRuJywgJzgnLCAnLW1hJywgJzIwMCcsICctbWV0YWxfYmluZGluZycsICctaW1hZScsICc8aW5maWxlLm1hZT4nLCAnLW9tYWUnLCAnPG91dGZpbGUubWFlPic=

> <r_lp_tautomer_probability>
1

> <r_epik_Ionization_Penalty>
8.63591e-05

> <r_epik_Ionization_Penalty_Charging>
0

> <r_epik_Ionization_Penalty_Neutral>
8.63591e-05

> <r_epik_State_Penalty>
-0

> <r_epik_Charging_Adjusted_Penalty>
0

> <i_epik_Tot_Q>
0

> <i_epik_Tot_abs_Q>
0

> <r_epik_Metal_State_Penalty>
-0

> <b_epik_Metal_Only>
0

> <s_lp_Force_Field>
OPLS_2005

> <r_lp_Energy>
49.706

> <b_lp_Chiralities_Consistent>
1

> <s_lp_Variant>
AV-unprocessed.smi:91-2

> <Gold.Version>
5.8.1

> <Gold.Id.Protein>
6NUR|6NUR_protein|mol2

> <Gold.PLP.Fitness>
53.2761

> <Gold.PLP.PLP>
-43.9171

> <Gold.PLP.part.hbond>
-3.9466

> <Gold.PLP.part.metal>
0.0000

> <Gold.PLP.part.buried>
-6.4141

> <Gold.PLP.part.nonpolar>
-33.9029

> <Gold.PLP.part.repulsive>
0.6263

> <Gold.PLP.ligand.clash>
0.0000

> <Gold.PLP.ligand.torsion>
1.3840

> <Gold.PLP.Chemscore.Hbond>
3.8550

> <Gold.PLP.Chemscore.CHOScore>
0.0000

> <Gold.PLP.Chemscore.Metal>
0.0000

> <Gold.Chemscore.Hbonds>
donor molecule, donor type, donor heavy atom, donor atom, acceptor molecule, acceptor atom, score
      L1  H    19    45       P1  8028  0.50
      P1  H  6896  6908       L1     2  1.00
      P1  H  7997  8010       L1    10  1.00
      P1  H 10752 10764       L1     8  0.90

> <Gold.PLP.Chemscore.Internal.Correction>
0.5620

> <Gold.Rescore>
     Score         DG    S(hbond)    S(metal)    S(lipo)     H(rot)  DE(clash)    DE(int)     intcor
     18.45     -19.86       2.94        0.00     105.14       3.03       0.11       1.31       ----

> <Gold.Chemscore.Fitness>
18.4460

> <Gold.Chemscore.DG>
-19.8587

> <Gold.Chemscore.ZeroCoef>
-5.4800

> <Gold.Chemscore.Hbond>
2.9430

> <Gold.Chemscore.Metal>
0.0000

> <Gold.Chemscore.Lipo>
105.1435

> <Gold.Chemscore.Internal_Hbond>
0.0000

> <Gold.Chemscore.DEClash>
0.1069

> <Gold.Chemscore.DEInternal>
1.3058

> <Gold.Chemscore.Rot>
3.0284

> <Gold.Chemscore.Internal.Correction>
   9.000000E+99

> <Gold.Chemscore.Hbonds>
donor molecule, donor type, donor heavy atom, donor atom, acceptor molecule, acceptor atom, score
      L1  H    19    45       P1  8028  0.50
      P1  H  6896  6908       L1     2  0.98
      P1  H  7997  8010       L1    10  0.71
      P1  H 10752 10764       L1     8  0.28

> <Gold.Chemscore.Hbond.Weighted>
-9.8297

> <Gold.Chemscore.Metal.Weighted>
-0.0000

> <Gold.Chemscore.Lipo.Weighted>
-12.3018

> <Gold.Chemscore.Internal_Hbond.Weighted>
0.0000

> <Gold.Chemscore.DEClash.Weighted>
0.1069

> <Gold.Chemscore.DEInternal.Weighted>
1.3058

> <Gold.Chemscore.Rot.Weighted>
7.7528

> <Gold.Chemscore.Internal.Correction.Weighted>
   9.000000E+99

> <Gold.Protein.RotatedTorsions>
[ 6907 6896 6895 6894 ] final   70.43 input  -60.11 | X-H torsion
[ 7974 7965 7964 7962 ] final  -26.37 input  175.53 | X-H torsion
[ 8008 7997 7996 7995 ] final   90.46 input   59.86 | X-H torsion
[ 10167 10162 10161 10158 ] final -114.58 input  -65.29 | X-H torsion
[ 10718 10713 10712 10709 ] final   62.08 input   66.30 | X-H torsion
[ 10763 10752 10751 10750 ] final  -87.11 input  -60.55 | X-H torsion
[ 11005 11000 10999 10996 ] final   27.88 input  -57.11 | X-H torsion

> <Gold.Protein.ActiveResidues>
 VAL166  LYS551  ARG553  GLY616  TRP617  ASP618  TYR619  PRO620  LYS621  CYS622 
 ASP623  PHE694  ASN695  SER759  ASP760  ASP761  ALA762  ILE779  LEU786  VAL792 
 PHE793  MET794  SER795  GLU796  ALA797  LYS798  CYS799  TRP800  GLU811  SER814 

> <Gold.Protein.RotatedAtoms>
  152.4748  134.4870  159.9683 H   0  0  0  0  0  0  0  0  0  0  0  0  # atno 6907 bound_to 6896
  151.4889  133.3523  159.2858 H   0  0  0  0  0  0  0  0  0  0  0  0  # atno 6908 bound_to 6896
  150.8780  134.8194  159.7266 H   0  0  0  0  0  0  0  0  0  0  0  0  # atno 6909 bound_to 6896
  146.1429  140.5011  142.8644 H   0  0  0  0  0  0  0  0  0  0  0  0  # atno 7974 bound_to 7965
  156.0122  140.3349  155.6952 H   0  0  0  0  0  0  0  0  0  0  0  0  # atno 8008 bound_to 7997
  155.6142  140.0668  157.2715 H   0  0  0  0  0  0  0  0  0  0  0  0  # atno 8009 bound_to 7997
  154.4285  140.1788  156.1291 H   0  0  0  0  0  0  0  0  0  0  0  0  # atno 8010 bound_to 7997
  140.0994  143.4627  152.1821 H   0  0  0  0  0  0  0  0  0  0  0  0  # atno 10167 bound_to 10162
  157.5875  130.9030  149.9542 H   0  0  0  0  0  0  0  0  0  0  0  0  # atno 10718 bound_to 10713
  154.6300  135.5425  153.7670 H   0  0  0  0  0  0  0  0  0  0  0  0  # atno 10763 bound_to 10752
  153.0280  135.6433  154.1315 H   0  0  0  0  0  0  0  0  0  0  0  0  # atno 10764 bound_to 10752
  154.1246  135.2918  155.3180 H   0  0  0  0  0  0  0  0  0  0  0  0  # atno 10765 bound_to 10752
  140.3216  134.2537  155.7716 H   0  0  0  0  0  0  0  0  0  0  0  0  # atno 11005 bound_to 11000
  144.7813  140.5846  143.6603 LP  0  0  0  0  0  0  0  0  0  0  0  0  # atno 17320 bound_to 7965
  145.5004  139.1483  143.3660 LP  0  0  0  0  0  0  0  0  0  0  0  0  # atno 17321 bound_to 7965
  139.5680  144.7446  151.3969 LP  0  0  0  0  0  0  0  0  0  0  0  0  # atno 17342 bound_to 10162
  140.6986  143.7688  150.7366 LP  0  0  0  0  0  0  0  0  0  0  0  0  # atno 17343 bound_to 10162
  156.0925  130.3662  150.0367 LP  0  0  0  0  0  0  0  0  0  0  0  0  # atno 17370 bound_to 10713
  156.8496  130.9454  151.3626 LP  0  0  0  0  0  0  0  0  0  0  0  0  # atno 17371 bound_to 10713
  141.2085  133.7775  157.0054 LP  0  0  0  0  0  0  0  0  0  0  0  0  # atno 17394 bound_to 11000
  140.0937  134.9577  157.1816 LP  0  0  0  0  0  0  0  0  0  0  0  0  # atno 17395 bound_to 11000

$$$$
