AV-unprocessed.smi:13|AV-procd|sdf|71|dock5
  -GOLD-   2262015193D 1   1.00000     0.00000
 Structure written by MMmdl.
 54 58  0  0  0  0  0  0  0  0  1 V2000
  153.6204  138.2469  161.1283 C   0  0  0  0  0  0  0  0  0  0  0  0
  154.2708  139.0653  160.0133 C   0  0  0  0  0  0  0  0  0  0  0  0
  155.6283  139.5397  160.5506 C   0  0  0  0  0  0  0  0  0  0  0  0
  154.3239  138.3907  158.6340 C   0  0  0  0  0  0  0  0  0  0  0  0
  153.9588  139.6780  158.0700 N   0  0  0  0  0  0  0  0  0  0  0  0
  153.1291  139.5874  156.9149 C   0  0  0  0  0  0  0  0  0  0  0  0
  153.6382  139.1840  155.7201 N   0  0  0  0  0  0  0  0  0  0  0  0
  152.8638  139.0869  154.6361 C   0  0  0  0  0  0  0  0  0  0  0  0
  151.5599  139.3396  154.5187 N   0  0  0  0  0  0  0  0  0  0  0  0
  151.0312  139.7384  155.7097 C   0  0  0  0  0  0  0  0  0  0  0  0
  151.7360  139.8816  156.9388 C   0  0  0  0  0  0  0  0  0  0  0  0
  150.8623  140.2953  157.9372 N   0  0  0  0  0  0  0  0  0  0  0  0
  149.7107  140.3983  157.3322 C   0  0  0  0  0  0  0  0  0  0  0  0
  149.7228  140.0913  155.9906 N   0  0  0  0  0  0  0  0  0  0  0  0
  148.5887  140.1297  155.0801 C   0  0  0  0  0  0  0  0  0  0  0  0
  147.9991  141.5475  154.8983 C   0  0  1  0  0  0  0  0  0  0  0  0
  149.0603  142.4649  154.6945 O   0  0  0  0  0  0  0  0  0  0  0  0
  147.0207  141.6721  153.7339 C   0  0  0  0  0  0  0  0  0  0  0  0
  146.0502  142.7396  154.2185 C   0  0  0  0  0  0  0  0  0  0  0  0
  145.8994  142.4183  155.5906 O   0  0  0  0  0  0  0  0  0  0  0  0
  147.1678  142.0256  156.1057 C   0  0  0  0  0  0  0  0  0  0  0  0
  153.3577  140.1099  159.3273 C   0  0  2  0  0  0  0  0  0  0  0  0
  153.5245  141.6126  159.5780 C   0  0  2  0  0  0  0  0  0  0  0  0
  153.1031  142.0561  160.9798 C   0  0  0  0  0  0  0  0  0  0  0  0
  152.6916  143.5095  160.7976 C   0  0  0  0  0  0  0  0  0  0  0  0
  152.6019  143.6850  159.2805 C   0  0  0  0  0  0  0  0  0  0  0  0
  152.6420  142.3651  158.7608 O   0  0  0  0  0  0  0  0  0  0  0  0
  154.2347  137.3907  161.4082 H   0  0  0  0  0  0  0  0  0  0  0  0
  152.6478  137.8594  160.8234 H   0  0  0  0  0  0  0  0  0  0  0  0
  153.4608  138.8479  162.0242 H   0  0  0  0  0  0  0  0  0  0  0  0
  156.1471  140.1769  159.8338 H   0  0  0  0  0  0  0  0  0  0  0  0
  156.2872  138.6965  160.7597 H   0  0  0  0  0  0  0  0  0  0  0  0
  155.5256  140.1071  161.4752 H   0  0  0  0  0  0  0  0  0  0  0  0
  155.3124  138.0418  158.3336 H   0  0  0  0  0  0  0  0  0  0  0  0
  153.5546  137.6291  158.4911 H   0  0  0  0  0  0  0  0  0  0  0  0
  153.3609  138.7592  153.7350 H   0  0  0  0  0  0  0  0  0  0  0  0
  148.8151  140.7100  157.8498 H   0  0  0  0  0  0  0  0  0  0  0  0
  148.9100  139.7306  154.1171 H   0  0  0  0  0  0  0  0  0  0  0  0
  147.8249  139.4464  155.4536 H   0  0  0  0  0  0  0  0  0  0  0  0
  148.7693  143.3233  154.9623 H   0  0  0  0  0  0  0  0  0  0  0  0
  147.4942  141.9171  152.7823 H   0  0  0  0  0  0  0  0  0  0  0  0
  146.4715  140.7396  153.6012 H   0  0  0  0  0  0  0  0  0  0  0  0
  146.4792  143.7375  154.1166 H   0  0  0  0  0  0  0  0  0  0  0  0
  145.0962  142.7156  153.6913 H   0  0  0  0  0  0  0  0  0  0  0  0
  147.0220  141.2391  156.8468 H   0  0  0  0  0  0  0  0  0  0  0  0
  147.6319  142.8710  156.6162 H   0  0  0  0  0  0  0  0  0  0  0  0
  152.3172  139.7864  159.3984 H   0  0  0  0  0  0  0  0  0  0  0  0
  154.5480  141.9378  159.3824 H   0  0  0  0  0  0  0  0  0  0  0  0
  152.2437  141.4737  161.3152 H   0  0  0  0  0  0  0  0  0  0  0  0
  153.8954  141.9368  161.7179 H   0  0  0  0  0  0  0  0  0  0  0  0
  151.7325  143.7015  161.2796 H   0  0  0  0  0  0  0  0  0  0  0  0
  153.4254  144.1945  161.2234 H   0  0  0  0  0  0  0  0  0  0  0  0
  151.6952  144.2046  158.9698 H   0  0  0  0  0  0  0  0  0  0  0  0
  153.4608  144.2438  158.9064 H   0  0  0  0  0  0  0  0  0  0  0  0
  1  2  1  0  0  0  0
  1 28  1  0  0  0  0
  1 29  1  0  0  0  0
  1 30  1  0  0  0  0
  2 22  1  0  0  0  0
  2  3  1  0  0  0  0
  2  4  1  0  0  0  0
  3 31  1  0  0  0  0
  3 32  1  0  0  0  0
  3 33  1  0  0  0  0
  4  5  1  0  0  0  0
  4 34  1  0  0  0  0
  4 35  1  0  0  0  0
  5  6  1  0  0  0  0
  5 22  1  0  0  0  0
  6 11  1  0  0  0  0
  6  7  2  0  0  0  0
  7  8  1  0  0  0  0
  8  9  2  0  0  0  0
  8 36  1  0  0  0  0
  9 10  1  0  0  0  0
 10 14  1  0  0  0  0
 10 11  2  0  0  0  0
 11 12  1  0  0  0  0
 12 13  2  0  0  0  0
 13 14  1  0  0  0  0
 13 37  1  0  0  0  0
 14 15  1  0  0  0  0
 15 16  1  0  0  0  0
 15 38  1  0  0  0  0
 15 39  1  0  0  0  0
 16 21  1  0  0  0  0
 16 17  1  0  0  0  0
 16 18  1  0  0  0  0
 17 40  1  0  0  0  0
 18 19  1  0  0  0  0
 18 41  1  0  0  0  0
 18 42  1  0  0  0  0
 19 20  1  0  0  0  0
 19 43  1  0  0  0  0
 19 44  1  0  0  0  0
 20 21  1  0  0  0  0
 21 45  1  0  0  0  0
 21 46  1  0  0  0  0
 22 23  1  0  0  0  0
 22 47  1  0  0  0  0
 23 27  1  0  0  0  0
 23 24  1  0  0  0  0
 23 48  1  0  0  0  0
 24 25  1  0  0  0  0
 24 49  1  0  0  0  0
 24 50  1  0  0  0  0
 25 26  1  0  0  0  0
 25 51  1  0  0  0  0
 25 52  1  0  0  0  0
 26 27  1  0  0  0  0
 26 53  1  0  0  0  0
 26 54  1  0  0  0  0
M  END
> <s_m_source_file>
AV-unprocessed.smi

> <i_m_source_file_index>
13

> <i_lp_mmshare_version>
43012

> <i_f3d_flags>
0

> <s_epik_input>
TzFbQ0gyXVtDSDJdW0NIMl1bQ0BIXTFbQ0BASF0yTihbQ0gyXUMyKFtDSDNdKVtDSDNdKWMobltjSF1uMyljKGMzNCluW2NIXW40W0NIMl1bQ0BAXTUoW09IXSlbQ0gyXVtDSDJdT1tDSDJdNQ==

> <s_epik_cmdline>
J2VwaWtfcHl0aG9uJywgJy1waCcsICc3LjAnLCAnLXRuJywgJzgnLCAnLW1hJywgJzIwMCcsICctbWV0YWxfYmluZGluZycsICctaW1hZScsICc8aW5maWxlLm1hZT4nLCAnLW9tYWUnLCAnPG91dGZpbGUubWFlPic=

> <r_lp_tautomer_probability>
1

> <r_epik_Ionization_Penalty>
0.00202764

> <r_epik_Ionization_Penalty_Charging>
0

> <r_epik_Ionization_Penalty_Neutral>
0.00202764

> <r_epik_State_Penalty>
0.00134017

> <r_epik_Charging_Adjusted_Penalty>
0.00134017

> <i_epik_Tot_Q>
0

> <i_epik_Tot_abs_Q>
0

> <r_epik_Metal_State_Penalty>
-0

> <b_epik_Metal_Only>
0

> <s_lp_Force_Field>
OPLS_2005

> <r_lp_Energy>
61.7559

> <b_lp_Chiralities_Consistent>
1

> <s_lp_Variant>
AV-unprocessed.smi:13-3

> <Gold.Version>
5.8.1

> <Gold.Id.Protein>
6NUR|6NUR_protein|mol2

> <Gold.PLP.Fitness>
49.7392

> <Gold.PLP.PLP>
-42.9793

> <Gold.PLP.part.hbond>
-4.2618

> <Gold.PLP.part.metal>
0.0000

> <Gold.PLP.part.buried>
-4.4314

> <Gold.PLP.part.nonpolar>
-35.0496

> <Gold.PLP.part.repulsive>
0.2438

> <Gold.PLP.ligand.clash>
0.0000

> <Gold.PLP.ligand.torsion>
0.4308

> <Gold.PLP.Chemscore.Hbond>
2.3980

> <Gold.PLP.Chemscore.CHOScore>
0.0000

> <Gold.PLP.Chemscore.Metal>
0.0000

> <Gold.Chemscore.Hbonds>
donor molecule, donor type, donor heavy atom, donor atom, acceptor molecule, acceptor atom, score
      L1  H    17    40       P1  8028  1.00
      P1  H  7989  7998       L1     9  0.95
      P1  H  7997  8009       L1     5  0.12

> <Gold.PLP.Chemscore.Internal.Correction>
0.4273

> <Gold.Rescore>
     Score         DG    S(hbond)    S(metal)    S(lipo)     H(rot)  DE(clash)    DE(int)     intcor
     11.36     -16.23       1.21        0.00     107.61       2.30       1.77       3.10       ----

> <Gold.Chemscore.Fitness>
11.3558

> <Gold.Chemscore.DG>
-16.2283

> <Gold.Chemscore.ZeroCoef>
-5.4800

> <Gold.Chemscore.Hbond>
1.2110

> <Gold.Chemscore.Metal>
0.0000

> <Gold.Chemscore.Lipo>
107.6105

> <Gold.Chemscore.Internal_Hbond>
0.0000

> <Gold.Chemscore.DEClash>
1.7705

> <Gold.Chemscore.DEInternal>
3.1020

> <Gold.Chemscore.Rot>
2.2996

> <Gold.Chemscore.Internal.Correction>
   9.000000E+99

> <Gold.Chemscore.Hbonds>
donor molecule, donor type, donor heavy atom, donor atom, acceptor molecule, acceptor atom, score
      L1  H    17    40       P1  8028  0.93
      P1  H  7989  7998       L1     9  0.12
      P1  H  7997  8009       L1     5  0.01

> <Gold.Chemscore.Hbond.Weighted>
-4.0448

> <Gold.Chemscore.Metal.Weighted>
-0.0000

> <Gold.Chemscore.Lipo.Weighted>
-12.5904

> <Gold.Chemscore.Internal_Hbond.Weighted>
0.0000

> <Gold.Chemscore.DEClash.Weighted>
1.7705

> <Gold.Chemscore.DEInternal.Weighted>
3.1020

> <Gold.Chemscore.Rot.Weighted>
5.8869

> <Gold.Chemscore.Internal.Correction.Weighted>
   9.000000E+99

> <Gold.Protein.RotatedTorsions>
[ 6907 6896 6895 6894 ] final  168.11 input  -60.11 | X-H torsion
[ 7974 7965 7964 7962 ] final  -81.92 input  175.53 | X-H torsion
[ 8008 7997 7996 7995 ] final   94.69 input   59.86 | X-H torsion
[ 10167 10162 10161 10158 ] final -151.97 input  -65.29 | X-H torsion
[ 10718 10713 10712 10709 ] final   86.89 input   66.30 | X-H torsion
[ 10763 10752 10751 10750 ] final  -91.89 input  -60.55 | X-H torsion
[ 11005 11000 10999 10996 ] final -149.75 input  -57.11 | X-H torsion

> <Gold.Protein.ActiveResidues>
 VAL166  LYS551  ARG553  GLY616  TRP617  ASP618  TYR619  PRO620  LYS621  CYS622 
 ASP623  PHE694  ASN695  SER759  ASP760  ASP761  ALA762  ILE779  LEU786  VAL792 
 PHE793  MET794  SER795  GLU796  ALA797  LYS798  CYS799  TRP800  GLU811  SER814 

> <Gold.Protein.RotatedAtoms>
  151.8528  133.3443  159.3678 H   0  0  0  0  0  0  0  0  0  0  0  0  # atno 6907 bound_to 6896
  150.7201  134.5282  159.5696 H   0  0  0  0  0  0  0  0  0  0  0  0  # atno 6908 bound_to 6896
  152.2779  134.7861  160.0453 H   0  0  0  0  0  0  0  0  0  0  0  0  # atno 6909 bound_to 6896
  145.5402  140.9510  143.1555 H   0  0  0  0  0  0  0  0  0  0  0  0  # atno 7974 bound_to 7965
  156.0607  140.3296  155.7458 H   0  0  0  0  0  0  0  0  0  0  0  0  # atno 8008 bound_to 7997
  155.5460  140.0606  157.2877 H   0  0  0  0  0  0  0  0  0  0  0  0  # atno 8009 bound_to 7997
  154.4480  140.1902  156.0627 H   0  0  0  0  0  0  0  0  0  0  0  0  # atno 8010 bound_to 7997
  139.7222  143.8939  152.2507 H   0  0  0  0  0  0  0  0  0  0  0  0  # atno 10167 bound_to 10162
  157.6934  131.0234  150.3041 H   0  0  0  0  0  0  0  0  0  0  0  0  # atno 10718 bound_to 10713
  154.6806  135.5251  153.8258 H   0  0  0  0  0  0  0  0  0  0  0  0  # atno 10763 bound_to 10752
  153.0562  135.6551  154.0581 H   0  0  0  0  0  0  0  0  0  0  0  0  # atno 10764 bound_to 10752
  154.0469  135.2972  155.3326 H   0  0  0  0  0  0  0  0  0  0  0  0  # atno 10765 bound_to 10752
  140.7474  134.3445  157.5134 H   0  0  0  0  0  0  0  0  0  0  0  0  # atno 11005 bound_to 11000
  144.7581  139.7024  143.7246 LP  0  0  0  0  0  0  0  0  0  0  0  0  # atno 17320 bound_to 7965
  146.1986  139.5267  142.9758 LP  0  0  0  0  0  0  0  0  0  0  0  0  # atno 17321 bound_to 7965
  139.8839  144.7003  150.8847 LP  0  0  0  0  0  0  0  0  0  0  0  0  # atno 17342 bound_to 10162
  140.7756  143.3639  151.1775 LP  0  0  0  0  0  0  0  0  0  0  0  0  # atno 17343 bound_to 10162
  156.3552  130.3837  149.7296 LP  0  0  0  0  0  0  0  0  0  0  0  0  # atno 17370 bound_to 10713
  156.4760  130.8019  151.3035 LP  0  0  0  0  0  0  0  0  0  0  0  0  # atno 17371 bound_to 10713
  139.8794  134.9120  156.3051 LP  0  0  0  0  0  0  0  0  0  0  0  0  # atno 17394 bound_to 11000
  140.9781  133.7284  156.0632 LP  0  0  0  0  0  0  0  0  0  0  0  0  # atno 17395 bound_to 11000

$$$$
