AV-unprocessed.smi:344|AV-procd|sdf|2390|dock2
  -GOLD-   2262022323D 1   1.00000     0.00000
 Structure written by MMmdl.
 37 38  0  0  0  0  0  0  0  0  2 V2000
  148.1029  135.1384  154.0177 N   0  0  0  0  0  0  0  0  0  0  0  0
  149.0395  135.2164  154.9677 C   0  0  0  0  0  0  0  0  0  0  0  0
  148.7661  135.1599  156.1650 O   0  0  0  0  0  0  0  0  0  0  0  0
  150.4893  135.3978  154.5109 C   0  0  0  0  0  0  0  0  0  0  0  0
  151.0340  136.7148  154.9834 C   0  0  0  0  0  0  0  0  0  0  0  0
  151.5671  137.7136  154.2096 C   0  0  0  0  0  0  0  0  0  0  0  0
  152.0702  139.0741  155.1714 S   0  0  0  0  0  0  0  0  0  0  0  0
  151.5450  138.2252  156.6271 C   0  0  0  0  0  0  0  0  0  0  0  0
  151.6178  138.7148  157.8745 N   0  5  0  0  0  0  0  0  0  0  0  0
  152.7196  139.4012  158.2620 C   0  0  0  0  0  0  0  0  0  0  0  0
  153.9033  139.1742  158.0076 O   0  0  0  0  0  0  0  0  0  0  0  0
  152.3623  140.6057  159.1378 C   0  0  0  0  0  0  0  0  0  0  0  0
  153.5997  141.4621  159.4637 C   0  0  0  0  0  0  0  0  0  0  0  0
  153.2449  142.8599  160.0010 C   0  0  0  0  0  0  0  0  0  0  0  0
  152.4804  142.8258  161.3262 C   0  0  0  0  0  0  0  0  0  0  0  0
  151.8117  144.2001  161.4357 C   0  0  0  0  0  0  0  0  0  0  0  0
  151.6865  144.7322  159.9999 C   0  0  0  0  0  0  0  0  0  0  0  0
  152.3185  143.6722  159.0905 C   0  0  0  0  0  0  0  0  0  0  0  0
  151.0326  137.0220  156.3475 N   0  0  0  0  0  0  0  0  0  0  0  0
  147.1367  134.9977  154.2736 H   0  0  0  0  0  0  0  0  0  0  0  0
  148.3699  135.1996  153.0450 H   0  0  0  0  0  0  0  0  0  0  0  0
  151.0883  134.5690  154.8905 H   0  0  0  0  0  0  0  0  0  0  0  0
  150.5350  135.3361  153.4229 H   0  0  0  0  0  0  0  0  0  0  0  0
  151.6881  137.7342  153.1370 H   0  0  0  0  0  0  0  0  0  0  0  0
  151.6235  141.2114  158.6114 H   0  0  0  0  0  0  0  0  0  0  0  0
  151.8777  140.2683  160.0558 H   0  0  0  0  0  0  0  0  0  0  0  0
  154.2323  140.9425  160.1853 H   0  0  0  0  0  0  0  0  0  0  0  0
  154.2012  141.5744  158.5604 H   0  0  0  0  0  0  0  0  0  0  0  0
  154.1639  143.4275  160.1559 H   0  0  0  0  0  0  0  0  0  0  0  0
  151.7126  142.0513  161.2914 H   0  0  0  0  0  0  0  0  0  0  0  0
  153.1280  142.6090  162.1764 H   0  0  0  0  0  0  0  0  0  0  0  0
  150.8437  144.1335  161.9333 H   0  0  0  0  0  0  0  0  0  0  0  0
  152.4355  144.8739  162.0241 H   0  0  0  0  0  0  0  0  0  0  0  0
  150.6479  144.9196  159.7249 H   0  0  0  0  0  0  0  0  0  0  0  0
  152.2234  145.6771  159.9083 H   0  0  0  0  0  0  0  0  0  0  0  0
  152.8457  144.1153  158.2449 H   0  0  0  0  0  0  0  0  0  0  0  0
  151.5360  143.0273  158.6876 H   0  0  0  0  0  0  0  0  0  0  0  0
  1  2  1  0  0  0  0
  1 20  1  0  0  0  0
  1 21  1  0  0  0  0
  2  3  2  0  0  0  0
  2  4  1  0  0  0  0
  4  5  1  0  0  0  0
  4 22  1  0  0  0  0
  4 23  1  0  0  0  0
  5 19  1  0  0  0  0
  5  6  2  0  0  0  0
  6  7  1  0  0  0  0
  6 24  1  0  0  0  0
  7  8  1  0  0  0  0
  8  9  1  0  0  0  0
  8 19  2  0  0  0  0
  9 10  1  0  0  0  0
 10 11  2  0  0  0  0
 10 12  1  0  0  0  0
 12 13  1  0  0  0  0
 12 25  1  0  0  0  0
 12 26  1  0  0  0  0
 13 14  1  0  0  0  0
 13 27  1  0  0  0  0
 13 28  1  0  0  0  0
 14 18  1  0  0  0  0
 14 15  1  0  0  0  0
 14 29  1  0  0  0  0
 15 16  1  0  0  0  0
 15 30  1  0  0  0  0
 15 31  1  0  0  0  0
 16 17  1  0  0  0  0
 16 32  1  0  0  0  0
 16 33  1  0  0  0  0
 17 18  1  0  0  0  0
 17 34  1  0  0  0  0
 17 35  1  0  0  0  0
 18 36  1  0  0  0  0
 18 37  1  0  0  0  0
M  CHG  1   9  -1
M  END
> <s_m_source_file>
AV-unprocessed.smi

> <i_m_source_file_index>
344

> <i_lp_mmshare_version>
43012

> <i_f3d_flags>
0

> <s_epik_input>
W05IMl1DKD1PKVtDSDJdYzFbY0hdc2MobjEpW05IXUMoPU8pW0NIMl1bQ0gyXVtDSF0yW0NIMl1bQ0gyXVtDSDJdW0NIMl0y

> <s_epik_cmdline>
J2VwaWtfcHl0aG9uJywgJy1waCcsICc3LjAnLCAnLXRuJywgJzgnLCAnLW1hJywgJzIwMCcsICctbWV0YWxfYmluZGluZycsICctaW1hZScsICc8aW5maWxlLm1hZT4nLCAnLW9tYWUnLCAnPG91dGZpbGUubWFlPic=

> <r_lp_tautomer_probability>
1

> <r_epik_Ionization_Penalty>
5.48595

> <r_epik_Ionization_Penalty_Charging>
4.99802

> <r_epik_Ionization_Penalty_Neutral>
0.48793

> <r_epik_State_Penalty>
4.99789

> <r_epik_Charging_Adjusted_Penalty>
9.99592

> <i_epik_Tot_Q>
-1

> <i_epik_Tot_abs_Q>
1

> <r_epik_Metal_State_Penalty>
1.11866

> <b_epik_Metal_Only>
1

> <s_lp_Force_Field>
OPLS_2005

> <r_lp_Energy>
17.7805

> <b_lp_Chiralities_Consistent>
1

> <s_lp_Variant>
AV-unprocessed.smi:344-2

> <Gold.Version>
5.8.1

> <Gold.Id.Protein>
6NUR|6NUR_protein|mol2

> <Gold.PLP.Fitness>
47.3472

> <Gold.PLP.PLP>
-39.4999

> <Gold.PLP.part.hbond>
-2.0000

> <Gold.PLP.part.metal>
0.0000

> <Gold.PLP.part.buried>
-3.7218

> <Gold.PLP.part.nonpolar>
-34.3551

> <Gold.PLP.part.repulsive>
0.0185

> <Gold.PLP.ligand.clash>
0.0000

> <Gold.PLP.ligand.torsion>
0.7471

> <Gold.PLP.Chemscore.Hbond>
2.0000

> <Gold.PLP.Chemscore.CHOScore>
1.0000

> <Gold.PLP.Chemscore.Metal>
0.0000

> <Gold.Chemscore.Hbonds>
donor molecule, donor type, donor heavy atom, donor atom, acceptor molecule, acceptor atom, score
      L1  H     1    21       P1  7948  0.91
      P1  H  7997  8008       L1    11  0.84
      L1  C     6    24       P1  7949  0.99

> <Gold.PLP.Chemscore.Internal.Correction>
0.3415

> <Gold.Rescore>
     Score         DG    S(hbond)    S(metal)    S(lipo)     H(rot)  DE(clash)    DE(int)     intcor
     16.80     -18.02       1.94        0.00     104.12       2.39       0.03       1.20       ----

> <Gold.Chemscore.Fitness>
16.7979

> <Gold.Chemscore.DG>
-18.0227

> <Gold.Chemscore.ZeroCoef>
-5.4800

> <Gold.Chemscore.Hbond>
1.9405

> <Gold.Chemscore.Metal>
0.0000

> <Gold.Chemscore.Lipo>
104.1166

> <Gold.Chemscore.Internal_Hbond>
0.0000

> <Gold.Chemscore.DEClash>
0.0256

> <Gold.Chemscore.DEInternal>
1.1993

> <Gold.Chemscore.Rot>
2.3907

> <Gold.Chemscore.Internal.Correction>
   9.000000E+99

> <Gold.Chemscore.Hbonds>
donor molecule, donor type, donor heavy atom, donor atom, acceptor molecule, acceptor atom, score
      L1  H     1    21       P1  7948  0.83
      P1  H  7997  8008       L1    11  0.80

> <Gold.Chemscore.Hbond.Weighted>
-6.4812

> <Gold.Chemscore.Metal.Weighted>
-0.0000

> <Gold.Chemscore.Lipo.Weighted>
-12.1816

> <Gold.Chemscore.Internal_Hbond.Weighted>
0.0000

> <Gold.Chemscore.DEClash.Weighted>
0.0256

> <Gold.Chemscore.DEInternal.Weighted>
1.1993

> <Gold.Chemscore.Rot.Weighted>
6.1201

> <Gold.Chemscore.Internal.Correction.Weighted>
   9.000000E+99

> <Gold.Protein.RotatedTorsions>
[ 6907 6896 6895 6894 ] final  -51.24 input  -60.11 | X-H torsion
[ 7974 7965 7964 7962 ] final   15.02 input  175.53 | X-H torsion
[ 8008 7997 7996 7995 ] final  -86.38 input   59.86 | X-H torsion
[ 10167 10162 10161 10158 ] final   92.01 input  -65.29 | X-H torsion
[ 10718 10713 10712 10709 ] final   50.09 input   66.30 | X-H torsion
[ 10763 10752 10751 10750 ] final  167.61 input  -60.55 | X-H torsion
[ 11005 11000 10999 10996 ] final  172.95 input  -57.11 | X-H torsion

> <Gold.Protein.ActiveResidues>
 VAL166  LYS551  ARG553  GLY616  TRP617  ASP618  TYR619  PRO620  LYS621  CYS622 
 ASP623  PHE694  ASN695  SER759  ASP760  ASP761  ALA762  ILE779  LEU786  VAL792 
 PHE793  MET794  SER795  GLU796  ALA797  LYS798  CYS799  TRP800  GLU811  SER814 

> <Gold.Protein.RotatedAtoms>
  150.8630  134.7987  159.7097 H   0  0  0  0  0  0  0  0  0  0  0  0  # atno 6907 bound_to 6896
  152.4661  134.5069  159.9751 H   0  0  0  0  0  0  0  0  0  0  0  0  # atno 6908 bound_to 6896
  151.5169  133.3435  159.2930 H   0  0  0  0  0  0  0  0  0  0  0  0  # atno 6909 bound_to 6896
  146.2290  139.8956  142.8547 H   0  0  0  0  0  0  0  0  0  0  0  0  # atno 7974 bound_to 7965
  154.6512  140.0579  156.9958 H   0  0  0  0  0  0  0  0  0  0  0  0  # atno 8008 bound_to 7997
  155.1368  140.3261  155.4443 H   0  0  0  0  0  0  0  0  0  0  0  0  # atno 8009 bound_to 7997
  156.2577  140.1971  156.6485 H   0  0  0  0  0  0  0  0  0  0  0  0  # atno 8010 bound_to 7997
  139.8318  144.6683  150.9390 H   0  0  0  0  0  0  0  0  0  0  0  0  # atno 10167 bound_to 10162
  157.4850  130.8339  149.8137 H   0  0  0  0  0  0  0  0  0  0  0  0  # atno 10718 bound_to 10713
  154.3564  135.2753  155.2344 H   0  0  0  0  0  0  0  0  0  0  0  0  # atno 10763 bound_to 10752
  154.4551  135.5921  153.6221 H   0  0  0  0  0  0  0  0  0  0  0  0  # atno 10764 bound_to 10752
  152.9846  135.6051  154.3780 H   0  0  0  0  0  0  0  0  0  0  0  0  # atno 10765 bound_to 10752
  140.3353  134.7323  157.4163 H   0  0  0  0  0  0  0  0  0  0  0  0  # atno 11005 bound_to 11000
  145.2374  140.9996  143.3955 LP  0  0  0  0  0  0  0  0  0  0  0  0  # atno 17320 bound_to 7965
  144.9480  139.4114  143.6416 LP  0  0  0  0  0  0  0  0  0  0  0  0  # atno 17321 bound_to 7965
  140.7806  143.3993  151.1176 LP  0  0  0  0  0  0  0  0  0  0  0  0  # atno 17342 bound_to 10162
  139.7646  143.8584  152.3108 LP  0  0  0  0  0  0  0  0  0  0  0  0  # atno 17343 bound_to 10162
  156.0142  130.3820  150.2165 LP  0  0  0  0  0  0  0  0  0  0  0  0  # atno 17370 bound_to 10713
  157.0352  131.0019  151.3300 LP  0  0  0  0  0  0  0  0  0  0  0  0  # atno 17371 bound_to 10713
  140.0826  134.5710  155.8524 LP  0  0  0  0  0  0  0  0  0  0  0  0  # atno 17394 bound_to 11000
  141.2053  133.6646  156.6171 LP  0  0  0  0  0  0  0  0  0  0  0  0  # atno 17395 bound_to 11000

$$$$
