AV-unprocessed.smi:652|AV-procd|sdf|3195|dock7
  -GOLD-   22720 0123D 1   1.00000     0.00000
 Structure written by MMmdl.
 48 49  0  0  0  0  0  0  0  0  2 V2000
  147.8614  136.4029  162.6027 C   0  0  0  0  0  0  0  0  0  0  0  0
  146.8920  135.8556  161.5430 C   0  0  0  0  0  0  0  0  0  0  0  0
  147.1255  134.3618  161.2817 C   0  0  0  0  0  0  0  0  0  0  0  0
  147.0291  136.5955  160.2912 N   0  0  0  0  0  0  0  0  0  0  0  0
  148.1226  136.6107  159.5127 C   0  0  0  0  0  0  0  0  0  0  0  0
  149.1487  135.9833  159.7773 O   0  0  0  0  0  0  0  0  0  0  0  0
  148.0402  137.4722  158.2483 C   0  0  0  0  0  0  0  0  0  0  0  0
  149.1549  137.1552  157.2296 C   0  0  0  0  0  0  0  0  0  0  0  0
  149.4012  138.2727  156.2837 N   0  3  2  0  0  0  0  0  0  0  0  0
  150.0571  137.8145  155.0358 C   0  0  0  0  0  0  0  0  0  0  0  0
  150.2588  138.9915  154.0683 C   0  0  0  0  0  0  0  0  0  0  0  0
  151.0139  140.0090  154.7130 O   0  0  0  0  0  0  0  0  0  0  0  0
  150.3449  140.5359  155.8545 C   0  0  2  0  0  0  0  0  0  0  0  0
  151.1947  141.6808  156.4232 C   0  0  0  0  0  0  0  0  0  0  0  0
  150.3636  142.7380  156.9785 N   0  0  0  0  0  0  0  0  0  0  0  0
  150.8000  143.4767  158.0852 C   0  0  0  0  0  0  0  0  0  0  0  0
  151.7837  144.4884  157.9948 C   0  0  0  0  0  0  0  0  0  0  0  0
  152.1332  145.1625  159.1779 C   0  0  0  0  0  0  0  0  0  0  0  0
  151.4761  144.7763  160.3601 C   0  0  0  0  0  0  0  0  0  0  0  0
  150.5427  143.7989  160.3875 N   0  0  0  0  0  0  0  0  0  0  0  0
  150.2107  143.1578  159.2611 N   0  0  0  0  0  0  0  0  0  0  0  0
  150.1583  139.4012  156.8809 C   0  0  0  0  0  0  0  0  0  0  0  0
  147.7598  135.8592  163.5421 H   0  0  0  0  0  0  0  0  0  0  0  0
  147.6684  137.4555  162.8126 H   0  0  0  0  0  0  0  0  0  0  0  0
  148.8983  136.3124  162.2775 H   0  0  0  0  0  0  0  0  0  0  0  0
  145.8716  135.9711  161.9131 H   0  0  0  0  0  0  0  0  0  0  0  0
  146.9911  133.7797  162.1939 H   0  0  0  0  0  0  0  0  0  0  0  0
  148.1351  134.1752  160.9142 H   0  0  0  0  0  0  0  0  0  0  0  0
  146.4237  133.9773  160.5407 H   0  0  0  0  0  0  0  0  0  0  0  0
  146.2322  137.1432  160.0007 H   0  0  0  0  0  0  0  0  0  0  0  0
  147.0660  137.3153  157.7822 H   0  0  0  0  0  0  0  0  0  0  0  0
  148.0806  138.5179  158.5534 H   0  0  0  0  0  0  0  0  0  0  0  0
  150.0841  136.8941  157.7393 H   0  0  0  0  0  0  0  0  0  0  0  0
  148.8594  136.2763  156.6535 H   0  0  0  0  0  0  0  0  0  0  0  0
  151.0199  137.3596  155.2743 H   0  0  0  0  0  0  0  0  0  0  0  0
  149.4493  137.0466  154.5557 H   0  0  0  0  0  0  0  0  0  0  0  0
  150.7981  138.6602  153.1808 H   0  0  0  0  0  0  0  0  0  0  0  0
  149.3006  139.3888  153.7296 H   0  0  0  0  0  0  0  0  0  0  0  0
  149.3675  140.9259  155.5631 H   0  0  0  0  0  0  0  0  0  0  0  0
  151.8361  141.2963  157.2171 H   0  0  0  0  0  0  0  0  0  0  0  0
  151.8454  142.0875  155.6477 H   0  0  0  0  0  0  0  0  0  0  0  0
  149.6222  143.1189  156.4079 H   0  0  0  0  0  0  0  0  0  0  0  0
  152.2627  144.7487  157.0630 H   0  0  0  0  0  0  0  0  0  0  0  0
  152.8765  145.9457  159.1797 H   0  0  0  0  0  0  0  0  0  0  0  0
  151.7020  145.2580  161.2997 H   0  0  0  0  0  0  0  0  0  0  0  0
  149.6293  139.7911  157.7500 H   0  0  0  0  0  0  0  0  0  0  0  0
  151.1292  139.0452  157.2299 H   0  0  0  0  0  0  0  0  0  0  0  0
  148.4969  138.6326  156.0132 H   0  0  0  0  0  0  0  0  0  0  0  0
  1  2  1  0  0  0  0
  1 23  1  0  0  0  0
  1 24  1  0  0  0  0
  1 25  1  0  0  0  0
  2  3  1  0  0  0  0
  2  4  1  0  0  0  0
  2 26  1  0  0  0  0
  3 27  1  0  0  0  0
  3 28  1  0  0  0  0
  3 29  1  0  0  0  0
  4  5  1  0  0  0  0
  4 30  1  0  0  0  0
  5  6  2  0  0  0  0
  5  7  1  0  0  0  0
  7  8  1  0  0  0  0
  7 31  1  0  0  0  0
  7 32  1  0  0  0  0
  8  9  1  0  0  0  0
  8 33  1  0  0  0  0
  8 34  1  0  0  0  0
  9 22  1  0  0  0  0
  9 10  1  0  0  0  0
  9 48  1  0  0  0  0
 10 11  1  0  0  0  0
 10 35  1  0  0  0  0
 10 36  1  0  0  0  0
 11 12  1  0  0  0  0
 11 37  1  0  0  0  0
 11 38  1  0  0  0  0
 12 13  1  0  0  0  0
 13 14  1  0  0  0  0
 13 22  1  0  0  0  0
 13 39  1  0  0  0  0
 14 15  1  0  0  0  0
 14 40  1  0  0  0  0
 14 41  1  0  0  0  0
 15 16  1  0  0  0  0
 15 42  1  0  0  0  0
 16 21  1  0  0  0  0
 16 17  2  0  0  0  0
 17 18  1  0  0  0  0
 17 43  1  0  0  0  0
 18 19  2  0  0  0  0
 18 44  1  0  0  0  0
 19 20  1  0  0  0  0
 19 45  1  0  0  0  0
 20 21  2  0  0  0  0
 22 46  1  0  0  0  0
 22 47  1  0  0  0  0
M  CHG  1   9   1
M  END
> <s_m_source_file>
AV-unprocessed.smi

> <i_m_source_file_index>
652

> <i_lp_mmshare_version>
43012

> <i_f3d_flags>
0

> <s_epik_input>
W0NIM11bQ0hdKFtDSDNdKVtOSF1DKD1PKVtDSDJdW0NIMl1OMVtDSDJdW0NIMl1PW0NASF0oW0NIMl0xKVtDSDJdW05IXWMyW2NIXVtjSF1bY0hdbm4y

> <s_epik_cmdline>
J2VwaWtfcHl0aG9uJywgJy1waCcsICc3LjAnLCAnLXRuJywgJzgnLCAnLW1hJywgJzIwMCcsICctbWV0YWxfYmluZGluZycsICctaW1hZScsICc8aW5maWxlLm1hZT4nLCAnLW9tYWUnLCAnPG91dGZpbGUubWFlPic=

> <r_lp_tautomer_probability>
0.999978

> <r_epik_Ionization_Penalty>
0.433079

> <r_epik_Ionization_Penalty_Charging>
0.413784

> <r_epik_Ionization_Penalty_Neutral>
0.0192945

> <r_epik_State_Penalty>
0.425138

> <r_epik_Charging_Adjusted_Penalty>
0.838922

> <i_epik_Tot_Q>
1

> <i_epik_Tot_abs_Q>
1

> <r_epik_Metal_State_Penalty>
0.422073

> <b_epik_Metal_Only>
0

> <s_lp_Force_Field>
OPLS_2005

> <r_lp_Energy>
22.402

> <b_lp_Chiralities_Consistent>
1

> <s_lp_Variant>
AV-unprocessed.smi:652-4

> <Gold.Version>
5.8.1

> <Gold.Id.Protein>
6NUR|6NUR_protein|mol2

> <Gold.PLP.Fitness>
47.2844

> <Gold.PLP.PLP>
-42.0267

> <Gold.PLP.part.hbond>
-4.7055

> <Gold.PLP.part.metal>
0.0000

> <Gold.PLP.part.buried>
-6.0885

> <Gold.PLP.part.nonpolar>
-31.0619

> <Gold.PLP.part.repulsive>
0.4358

> <Gold.PLP.ligand.clash>
0.0000

> <Gold.PLP.ligand.torsion>
1.8471

> <Gold.PLP.Chemscore.Hbond>
2.9280

> <Gold.PLP.Chemscore.CHOScore>
0.0000

> <Gold.PLP.Chemscore.Metal>
0.0000

> <Gold.Chemscore.Hbonds>
donor molecule, donor type, donor heavy atom, donor atom, acceptor molecule, acceptor atom, score
      L1  H    15    42       P1  8028  0.90
      P1  H  6896  6909       L1     6  0.94
      P1  H  7989  7998       L1    12  1.00

> <Gold.PLP.Chemscore.Internal.Correction>
0.1680

> <Gold.Rescore>
     Score         DG    S(hbond)    S(metal)    S(lipo)     H(rot)  DE(clash)    DE(int)     intcor
     17.72     -20.60       2.84        0.00      97.70       2.26       0.23       2.66       ----

> <Gold.Chemscore.Fitness>
17.7164

> <Gold.Chemscore.DG>
-20.5998

> <Gold.Chemscore.ZeroCoef>
-5.4800

> <Gold.Chemscore.Hbond>
2.8363

> <Gold.Chemscore.Metal>
0.0000

> <Gold.Chemscore.Lipo>
97.6982

> <Gold.Chemscore.Internal_Hbond>
0.0000

> <Gold.Chemscore.DEClash>
0.2280

> <Gold.Chemscore.DEInternal>
2.6554

> <Gold.Chemscore.Rot>
2.2594

> <Gold.Chemscore.Internal.Correction>
   9.000000E+99

> <Gold.Chemscore.Hbonds>
donor molecule, donor type, donor heavy atom, donor atom, acceptor molecule, acceptor atom, score
      L1  H    15    42       P1  8028  0.88
      P1  H  6896  6909       L1     6  0.87
      P1  H  7989  7998       L1    12  0.44

> <Gold.Chemscore.Hbond.Weighted>
-9.4732

> <Gold.Chemscore.Metal.Weighted>
-0.0000

> <Gold.Chemscore.Lipo.Weighted>
-11.4307

> <Gold.Chemscore.Internal_Hbond.Weighted>
0.0000

> <Gold.Chemscore.DEClash.Weighted>
0.2280

> <Gold.Chemscore.DEInternal.Weighted>
2.6554

> <Gold.Chemscore.Rot.Weighted>
5.7841

> <Gold.Chemscore.Internal.Correction.Weighted>
   9.000000E+99

> <Gold.Protein.RotatedTorsions>
[ 6907 6896 6895 6894 ] final   52.23 input  -60.11 | X-H torsion
[ 7974 7965 7964 7962 ] final -126.69 input  175.53 | X-H torsion
[ 8008 7997 7996 7995 ] final  -41.15 input   59.86 | X-H torsion
[ 10167 10162 10161 10158 ] final -114.04 input  -65.29 | X-H torsion
[ 10718 10713 10712 10709 ] final   83.23 input   66.30 | X-H torsion
[ 10763 10752 10751 10750 ] final   50.14 input  -60.55 | X-H torsion
[ 11005 11000 10999 10996 ] final  -18.74 input  -57.11 | X-H torsion

> <Gold.Protein.ActiveResidues>
 VAL166  LYS551  ARG553  GLY616  TRP617  ASP618  TYR619  PRO620  LYS621  CYS622 
 ASP623  PHE694  ASN695  SER759  ASP760  ASP761  ALA762  ILE779  LEU786  VAL792 
 PHE793  MET794  SER795  GLU796  ALA797  LYS798  CYS799  TRP800  GLU811  SER814 

> <Gold.Protein.RotatedAtoms>
  152.3210  134.7379  160.0313 H   0  0  0  0  0  0  0  0  0  0  0  0  # atno 6907 bound_to 6896
  151.7828  133.3346  159.3484 H   0  0  0  0  0  0  0  0  0  0  0  0  # atno 6908 bound_to 6896
  150.7370  134.5846  159.6001 H   0  0  0  0  0  0  0  0  0  0  0  0  # atno 6909 bound_to 6896
  144.9847  140.7674  143.4591 H   0  0  0  0  0  0  0  0  0  0  0  0  # atno 7974 bound_to 7965
  154.4006  140.1507  156.3143 H   0  0  0  0  0  0  0  0  0  0  0  0  # atno 8008 bound_to 7997
  155.8587  140.3454  155.5720 H   0  0  0  0  0  0  0  0  0  0  0  0  # atno 8009 bound_to 7997
  155.7904  140.0856  157.2002 H   0  0  0  0  0  0  0  0  0  0  0  0  # atno 8010 bound_to 7997
  140.1053  143.4576  152.1787 H   0  0  0  0  0  0  0  0  0  0  0  0  # atno 10167 bound_to 10162
  157.6874  131.0082  150.2493 H   0  0  0  0  0  0  0  0  0  0  0  0  # atno 10718 bound_to 10713
  152.9785  135.5888  154.4204 H   0  0  0  0  0  0  0  0  0  0  0  0  # atno 10763 bound_to 10752
  154.3829  135.2767  155.2202 H   0  0  0  0  0  0  0  0  0  0  0  0  # atno 10764 bound_to 10752
  154.4108  135.6082  153.6006 H   0  0  0  0  0  0  0  0  0  0  0  0  # atno 10765 bound_to 10752
  140.8298  133.8005  155.9747 H   0  0  0  0  0  0  0  0  0  0  0  0  # atno 11005 bound_to 11000
  145.2371  139.2089  143.5012 LP  0  0  0  0  0  0  0  0  0  0  0  0  # atno 17320 bound_to 7965
  146.3417  140.2259  142.8592 LP  0  0  0  0  0  0  0  0  0  0  0  0  # atno 17321 bound_to 7965
  139.5649  144.7429  151.4051 LP  0  0  0  0  0  0  0  0  0  0  0  0  # atno 17342 bound_to 10162
  140.6955  143.7758  150.7321 LP  0  0  0  0  0  0  0  0  0  0  0  0  # atno 17343 bound_to 10162
  156.3092  130.3769  149.7677 LP  0  0  0  0  0  0  0  0  0  0  0  0  # atno 17370 bound_to 10713
  156.5282  130.8246  151.3228 LP  0  0  0  0  0  0  0  0  0  0  0  0  # atno 17371 bound_to 10713
  140.9010  134.2378  157.5041 LP  0  0  0  0  0  0  0  0  0  0  0  0  # atno 17394 bound_to 11000
  139.8705  134.9706  156.4708 LP  0  0  0  0  0  0  0  0  0  0  0  0  # atno 17395 bound_to 11000

$$$$
