AV-unprocessed.smi:2344|AV-procd|sdf|9360|dock8
  -GOLD-   2272012583D 1   1.00000     0.00000
 Structure written by MMmdl.
 35 36  0  0  0  0  0  0  0  0  1 V2000
  150.9969  142.3170  156.6184 C   0  0  0  0  0  0  0  0  0  0  0  0
  150.2956  141.2063  155.8651 C   0  0  0  0  0  0  0  0  0  0  0  0
  150.9836  140.0394  155.4822 C   0  0  0  0  0  0  0  0  0  0  0  0
  150.2829  139.0366  154.7847 C   0  0  0  0  0  0  0  0  0  0  0  0
  148.9140  139.2225  154.4877 C   0  0  0  0  0  0  0  0  0  0  0  0
  148.3022  138.1541  153.7797 N   0  0  0  0  0  0  0  0  0  0  0  0
  147.0205  137.7506  153.8281 C   0  0  0  0  0  0  0  0  0  0  0  0
  146.1383  138.2568  154.5225 O   0  0  0  0  0  0  0  0  0  0  0  0
  146.8112  136.7042  153.0169 N   0  0  0  0  0  0  0  0  0  0  0  0
  145.5378  136.0105  152.8626 C   0  0  1  0  0  0  0  0  0  0  0  0
  144.9421  136.3058  151.5123 C   0  0  0  0  0  0  0  0  0  0  0  0
  144.7477  135.2090  150.7836 C   0  0  0  0  0  0  0  0  0  0  0  0
  145.1860  133.9550  151.4950 C   0  0  1  0  0  0  0  0  0  0  0  0
  146.2203  133.1384  150.6965 C   0  0  0  0  0  0  0  0  0  0  0  0
  146.7563  132.0779  151.4640 O   0  0  0  0  0  0  0  0  0  0  0  0
  145.6978  134.4666  152.8662 C   0  0  0  0  0  0  0  0  0  0  0  0
  148.2596  140.3499  154.8624 N   0  0  0  0  0  0  0  0  0  0  0  0
  148.9314  141.3103  155.5310 C   0  0  0  0  0  0  0  0  0  0  0  0
  144.8342  136.3322  153.6324 H   0  0  0  0  0  0  0  0  0  0  0  0
  144.2986  133.3403  151.6504 H   0  0  0  0  0  0  0  0  0  0  0  0
  152.0773  142.2607  156.4830 H   0  0  0  0  0  0  0  0  0  0  0  0
  150.7794  142.2441  157.6840 H   0  0  0  0  0  0  0  0  0  0  0  0
  150.6618  143.2925  156.2647 H   0  0  0  0  0  0  0  0  0  0  0  0
  152.0300  139.9111  155.7173 H   0  0  0  0  0  0  0  0  0  0  0  0
  150.7958  138.1349  154.4829 H   0  0  0  0  0  0  0  0  0  0  0  0
  148.9129  137.6337  153.1676 H   0  0  0  0  0  0  0  0  0  0  0  0
  147.5906  136.3476  152.4836 H   0  0  0  0  0  0  0  0  0  0  0  0
  144.6978  137.3102  151.1988 H   0  0  0  0  0  0  0  0  0  0  0  0
  144.3254  135.1893  149.7897 H   0  0  0  0  0  0  0  0  0  0  0  0
  145.7623  132.7261  149.7971 H   0  0  0  0  0  0  0  0  0  0  0  0
  147.0386  133.7816  150.3712 H   0  0  0  0  0  0  0  0  0  0  0  0
  147.5377  131.7625  151.0361 H   0  0  0  0  0  0  0  0  0  0  0  0
  146.7318  134.1667  153.0441 H   0  0  0  0  0  0  0  0  0  0  0  0
  145.1092  134.0309  153.6743 H   0  0  0  0  0  0  0  0  0  0  0  0
  148.3623  142.1862  155.8061 H   0  0  0  0  0  0  0  0  0  0  0  0
  1  2  1  0  0  0  0
  1 21  1  0  0  0  0
  1 22  1  0  0  0  0
  1 23  1  0  0  0  0
  2 18  1  0  0  0  0
  2  3  2  0  0  0  0
  3  4  1  0  0  0  0
  3 24  1  0  0  0  0
  4  5  2  0  0  0  0
  4 25  1  0  0  0  0
  5  6  1  0  0  0  0
  5 17  1  0  0  0  0
  6  7  1  0  0  0  0
  6 26  1  0  0  0  0
  7  8  2  0  0  0  0
  7  9  1  0  0  0  0
  9 10  1  0  0  0  0
  9 27  1  0  0  0  0
 10 19  1  0  0  0  0
 10 16  1  0  0  0  0
 10 11  1  0  0  0  0
 11 12  2  0  0  0  0
 11 28  1  0  0  0  0
 12 13  1  0  0  0  0
 12 29  1  0  0  0  0
 13 20  1  0  0  0  0
 13 14  1  0  0  0  0
 13 16  1  0  0  0  0
 14 15  1  0  0  0  0
 14 30  1  0  0  0  0
 14 31  1  0  0  0  0
 15 32  1  0  0  0  0
 16 33  1  0  0  0  0
 16 34  1  0  0  0  0
 17 18  2  0  0  0  0
 18 35  1  0  0  0  0
M  END
> <s_m_source_file>
AV-unprocessed.smi

> <i_m_source_file_index>
2344

> <i_lp_mmshare_version>
43012

> <i_f3d_flags>
0

> <s_epik_input>
W0NIM11jMVtjSF1bY0hdYyhuW2NIXTEpW05IXUMoPU8pW05IXVtDQEBIXTJbQ0hdPVtDSF1bQ0BASF0oW0NIMl0yKVtDSDJdW09IXQ==

> <s_epik_cmdline>
J2VwaWtfcHl0aG9uJywgJy1waCcsICc3LjAnLCAnLXRuJywgJzgnLCAnLW1hJywgJzIwMCcsICctbWV0YWxfYmluZGluZycsICctaW1hZScsICc8aW5maWxlLm1hZT4nLCAnLW9tYWUnLCAnPG91dGZpbGUubWFlPic=

> <r_lp_tautomer_probability>
1

> <r_epik_Ionization_Penalty>
5.7643e-05

> <r_epik_Ionization_Penalty_Charging>
0

> <r_epik_Ionization_Penalty_Neutral>
5.7643e-05

> <r_epik_State_Penalty>
-0

> <r_epik_Charging_Adjusted_Penalty>
0

> <i_epik_Tot_Q>
0

> <i_epik_Tot_abs_Q>
0

> <r_epik_Metal_State_Penalty>
-0

> <b_epik_Metal_Only>
0

> <s_lp_Force_Field>
OPLS_2005

> <r_lp_Energy>
18.1017

> <b_lp_Chiralities_Consistent>
1

> <s_lp_Variant>
AV-unprocessed.smi:2344-4

> <Gold.Version>
5.8.1

> <Gold.Id.Protein>
6NUR|6NUR_protein|mol2

> <Gold.PLP.Fitness>
39.3443

> <Gold.PLP.PLP>
-28.3934

> <Gold.PLP.part.hbond>
-2.8992

> <Gold.PLP.part.metal>
0.0000

> <Gold.PLP.part.buried>
-3.0513

> <Gold.PLP.part.nonpolar>
-23.1271

> <Gold.PLP.part.repulsive>
0.2009

> <Gold.PLP.ligand.clash>
0.0000

> <Gold.PLP.ligand.torsion>
0.3751

> <Gold.PLP.Chemscore.Hbond>
2.8960

> <Gold.PLP.Chemscore.CHOScore>
1.0000

> <Gold.PLP.Chemscore.Metal>
0.0000

> <Gold.Chemscore.Hbonds>
donor molecule, donor type, donor heavy atom, donor atom, acceptor molecule, acceptor atom, score
      L1  H     6    26       P1  7948  0.90
      L1  H     9    27       P1  7948  0.91
      L1  H    15    32       P1 10747  1.00
      L1  C    18    35       P1  8028  0.87

> <Gold.PLP.Chemscore.Internal.Correction>
0.0132

> <Gold.Rescore>
     Score         DG    S(hbond)    S(metal)    S(lipo)     H(rot)  DE(clash)    DE(int)     intcor
     16.39     -17.94       2.86        0.00      64.71       1.82       0.06       1.49       ----

> <Gold.Chemscore.Fitness>
16.3897

> <Gold.Chemscore.DG>
-17.9379

> <Gold.Chemscore.ZeroCoef>
-5.4800

> <Gold.Chemscore.Hbond>
2.8569

> <Gold.Chemscore.Metal>
0.0000

> <Gold.Chemscore.Lipo>
64.7077

> <Gold.Chemscore.Internal_Hbond>
0.0000

> <Gold.Chemscore.DEClash>
0.0579

> <Gold.Chemscore.DEInternal>
1.4904

> <Gold.Chemscore.Rot>
1.8184

> <Gold.Chemscore.Internal.Correction>
   9.000000E+99

> <Gold.Chemscore.Hbonds>
donor molecule, donor type, donor heavy atom, donor atom, acceptor molecule, acceptor atom, score
      L1  H     6    26       P1  7948  0.88
      L1  H     9    27       P1  7948  0.87
      L1  H    15    32       P1 10747  1.00

> <Gold.Chemscore.Hbond.Weighted>
-9.5422

> <Gold.Chemscore.Metal.Weighted>
-0.0000

> <Gold.Chemscore.Lipo.Weighted>
-7.5708

> <Gold.Chemscore.Internal_Hbond.Weighted>
0.0000

> <Gold.Chemscore.DEClash.Weighted>
0.0579

> <Gold.Chemscore.DEInternal.Weighted>
1.4904

> <Gold.Chemscore.Rot.Weighted>
4.6551

> <Gold.Chemscore.Internal.Correction.Weighted>
   9.000000E+99

> <Gold.Protein.RotatedTorsions>
[ 6907 6896 6895 6894 ] final -153.01 input  -60.11 | X-H torsion
[ 7974 7965 7964 7962 ] final -101.44 input  175.53 | X-H torsion
[ 8008 7997 7996 7995 ] final -107.39 input   59.86 | X-H torsion
[ 10167 10162 10161 10158 ] final   58.86 input  -65.29 | X-H torsion
[ 10718 10713 10712 10709 ] final   94.33 input   66.30 | X-H torsion
[ 10763 10752 10751 10750 ] final  -78.77 input  -60.55 | X-H torsion
[ 11005 11000 10999 10996 ] final   56.76 input  -57.11 | X-H torsion

> <Gold.Protein.ActiveResidues>
 VAL166  LYS551  ARG553  GLY616  TRP617  ASP618  TYR619  PRO620  LYS621  CYS622 
 ASP623  PHE694  ASN695  SER759  ASP760  ASP761  ALA762  ILE779  LEU786  VAL792 
 PHE793  MET794  SER795  GLU796  ALA797  LYS798  CYS799  TRP800  GLU811  SER814 

> <Gold.Protein.RotatedAtoms>
  151.2362  133.4424  159.2605 H   0  0  0  0  0  0  0  0  0  0  0  0  # atno 6907 bound_to 6896
  151.0748  134.9821  159.8337 H   0  0  0  0  0  0  0  0  0  0  0  0  # atno 6908 bound_to 6896
  152.5417  134.2305  159.8876 H   0  0  0  0  0  0  0  0  0  0  0  0  # atno 6909 bound_to 6896
  145.2816  140.9328  143.2928 H   0  0  0  0  0  0  0  0  0  0  0  0  # atno 7974 bound_to 7965
  154.9287  140.0405  157.2036 H   0  0  0  0  0  0  0  0  0  0  0  0  # atno 8008 bound_to 7997
  154.8182  140.2879  155.5783 H   0  0  0  0  0  0  0  0  0  0  0  0  # atno 8009 bound_to 7997
  156.2977  140.2524  156.3084 H   0  0  0  0  0  0  0  0  0  0  0  0  # atno 8010 bound_to 7997
  140.1827  144.4165  150.6608 H   0  0  0  0  0  0  0  0  0  0  0  0  # atno 10167 bound_to 10162
  157.6948  131.0508  150.4170 H   0  0  0  0  0  0  0  0  0  0  0  0  # atno 10718 bound_to 10713
  154.5301  135.5718  153.6752 H   0  0  0  0  0  0  0  0  0  0  0  0  # atno 10763 bound_to 10752
  152.9937  135.6202  154.2640 H   0  0  0  0  0  0  0  0  0  0  0  0  # atno 10764 bound_to 10752
  154.2566  135.2857  155.2775 H   0  0  0  0  0  0  0  0  0  0  0  0  # atno 10765 bound_to 10752
  140.0504  134.5745  155.9270 H   0  0  0  0  0  0  0  0  0  0  0  0  # atno 11005 bound_to 11000
  144.9248  139.4368  143.6523 LP  0  0  0  0  0  0  0  0  0  0  0  0  # atno 17320 bound_to 7965
  146.3214  139.8128  142.8942 LP  0  0  0  0  0  0  0  0  0  0  0  0  # atno 17321 bound_to 7965
  140.6509  143.2224  151.6080 LP  0  0  0  0  0  0  0  0  0  0  0  0  # atno 17342 bound_to 10162
  139.5289  144.2975  152.1101 LP  0  0  0  0  0  0  0  0  0  0  0  0  # atno 17343 bound_to 10162
  156.4548  130.4019  149.6613 LP  0  0  0  0  0  0  0  0  0  0  0  0  # atno 17370 bound_to 10713
  156.3749  130.7549  151.2536 LP  0  0  0  0  0  0  0  0  0  0  0  0  # atno 17371 bound_to 10713
  141.1927  133.6576  156.5516 LP  0  0  0  0  0  0  0  0  0  0  0  0  # atno 17394 bound_to 11000
  140.3926  134.7427  157.4731 LP  0  0  0  0  0  0  0  0  0  0  0  0  # atno 17395 bound_to 11000

$$$$
