AV-unprocessed.smi:2453|AV-procd|sdf|9691|dock7
  -GOLD-   2272013333D 1   1.00000     0.00000
 Structure written by MMmdl.
 41 42  0  0  0  0  0  0  0  0  2 V2000
  147.2585  139.4334  152.9173 C   0  0  0  0  0  0  0  0  0  0  0  0
  148.2213  140.0063  153.9429 C   0  0  0  0  0  0  0  0  0  0  0  0
  148.2052  141.3922  154.2137 C   0  0  0  0  0  0  0  0  0  0  0  0
  149.0518  141.9151  155.1253 N   0  3  0  0  0  0  0  0  0  0  0  0
  149.9357  141.1647  155.8151 C   0  0  0  0  0  0  0  0  0  0  0  0
  150.0026  139.7751  155.5916 C   0  0  0  0  0  0  0  0  0  0  0  0
  149.1441  139.1782  154.6328 C   0  0  0  0  0  0  0  0  0  0  0  0
  149.1346  137.7789  154.3694 N   0  0  0  0  0  0  0  0  0  0  0  0
  149.2561  136.7609  155.2388 C   0  0  0  0  0  0  0  0  0  0  0  0
  149.4556  136.8811  156.4472 O   0  0  0  0  0  0  0  0  0  0  0  0
  149.1463  135.5785  154.6152 N   0  0  0  0  0  0  0  0  0  0  0  0
  149.2184  134.2624  155.2499 C   0  0  2  0  0  0  0  0  0  0  0  0
  150.4539  134.2287  156.1720 C   0  0  0  0  0  0  0  0  0  0  0  0
  150.6425  132.8519  156.8227 C   0  0  0  0  0  0  0  0  0  0  0  0
  150.7303  131.7539  155.7559 C   0  0  0  0  0  0  0  0  0  0  0  0
  149.4896  131.7663  154.8517 C   0  0  0  0  0  0  0  0  0  0  0  0
  149.2695  133.1406  154.1784 C   0  0  1  0  0  0  0  0  0  0  0  0
  148.0032  133.1238  153.2926 C   0  0  0  0  0  0  0  0  0  0  0  0
  147.6486  134.4315  152.8945 O   0  0  0  0  0  0  0  0  0  0  0  0
  146.6340  140.2132  152.4803 H   0  0  0  0  0  0  0  0  0  0  0  0
  146.6019  138.6965  153.3808 H   0  0  0  0  0  0  0  0  0  0  0  0
  147.8069  138.9489  152.1089 H   0  0  0  0  0  0  0  0  0  0  0  0
  147.5416  142.0966  153.7329 H   0  0  0  0  0  0  0  0  0  0  0  0
  150.5540  141.6925  156.5264 H   0  0  0  0  0  0  0  0  0  0  0  0
  150.7020  139.1921  156.1709 H   0  0  0  0  0  0  0  0  0  0  0  0
  149.0754  137.5232  153.3947 H   0  0  0  0  0  0  0  0  0  0  0  0
  148.9910  135.5837  153.6176 H   0  0  0  0  0  0  0  0  0  0  0  0
  148.3355  134.0920  155.8687 H   0  0  0  0  0  0  0  0  0  0  0  0
  151.3488  134.4811  155.6010 H   0  0  0  0  0  0  0  0  0  0  0  0
  150.3603  134.9884  156.9490 H   0  0  0  0  0  0  0  0  0  0  0  0
  151.5444  132.8496  157.4355 H   0  0  0  0  0  0  0  0  0  0  0  0
  149.8091  132.6461  157.4956 H   0  0  0  0  0  0  0  0  0  0  0  0
  151.6268  131.8981  155.1514 H   0  0  0  0  0  0  0  0  0  0  0  0
  150.8323  130.7789  156.2333 H   0  0  0  0  0  0  0  0  0  0  0  0
  149.5946  130.9878  154.0955 H   0  0  0  0  0  0  0  0  0  0  0  0
  148.6110  131.5025  155.4418 H   0  0  0  0  0  0  0  0  0  0  0  0
  150.1275  133.3385  153.5330 H   0  0  0  0  0  0  0  0  0  0  0  0
  148.1591  132.5063  152.4074 H   0  0  0  0  0  0  0  0  0  0  0  0
  147.1506  132.7052  153.8266 H   0  0  0  0  0  0  0  0  0  0  0  0
  148.4275  134.8776  152.5988 H   0  0  0  0  0  0  0  0  0  0  0  0
  149.0184  142.9190  155.3050 H   0  0  0  0  0  0  0  0  0  0  0  0
  1  2  1  0  0  0  0
  1 20  1  0  0  0  0
  1 21  1  0  0  0  0
  1 22  1  0  0  0  0
  2  7  1  0  0  0  0
  2  3  2  0  0  0  0
  3  4  1  0  0  0  0
  3 23  1  0  0  0  0
  4  5  2  0  0  0  0
  4 41  1  0  0  0  0
  5  6  1  0  0  0  0
  5 24  1  0  0  0  0
  6  7  2  0  0  0  0
  6 25  1  0  0  0  0
  7  8  1  0  0  0  0
  8  9  1  0  0  0  0
  8 26  1  0  0  0  0
  9 10  2  0  0  0  0
  9 11  1  0  0  0  0
 11 12  1  0  0  0  0
 11 27  1  0  0  0  0
 12 17  1  0  0  0  0
 12 13  1  0  0  0  0
 12 28  1  0  0  0  0
 13 14  1  0  0  0  0
 13 29  1  0  0  0  0
 13 30  1  0  0  0  0
 14 15  1  0  0  0  0
 14 31  1  0  0  0  0
 14 32  1  0  0  0  0
 15 16  1  0  0  0  0
 15 33  1  0  0  0  0
 15 34  1  0  0  0  0
 16 17  1  0  0  0  0
 16 35  1  0  0  0  0
 16 36  1  0  0  0  0
 17 18  1  0  0  0  0
 17 37  1  0  0  0  0
 18 19  1  0  0  0  0
 18 38  1  0  0  0  0
 18 39  1  0  0  0  0
 19 40  1  0  0  0  0
M  CHG  1   4   1
M  END
> <s_m_source_file>
AV-unprocessed.smi

> <i_m_source_file_index>
2453

> <i_lp_mmshare_version>
43012

> <i_f3d_flags>
0

> <s_epik_input>
W0NIM11jMVtjSF1uW2NIXVtjSF1jMVtOSF1DKD1PKVtOSF1bQ0BASF0yW0NIMl1bQ0gyXVtDSDJdW0NIMl1bQ0BIXTJbQ0gyXVtPSF0=

> <s_epik_cmdline>
J2VwaWtfcHl0aG9uJywgJy1waCcsICc3LjAnLCAnLXRuJywgJzgnLCAnLW1hJywgJzIwMCcsICctbWV0YWxfYmluZGluZycsICctaW1hZScsICc8aW5maWxlLm1hZT4nLCAnLW9tYWUnLCAnPG91dGZpbGUubWFlPic=

> <r_epik_Ionization_Penalty>
0.71493

> <r_epik_Ionization_Penalty_Charging>
0.714909

> <r_epik_Ionization_Penalty_Neutral>
2.10174e-05

> <r_epik_State_Penalty>
0.738815

> <r_epik_Charging_Adjusted_Penalty>
1.45372

> <i_epik_Tot_Q>
1

> <i_epik_Tot_abs_Q>
1

> <r_epik_Metal_State_Penalty>
0.896004

> <b_epik_Metal_Only>
0

> <s_lp_Force_Field>
OPLS_2005

> <r_lp_Energy>
24.2673

> <b_lp_Chiralities_Consistent>
1

> <s_lp_Variant>
AV-unprocessed.smi:2453-5

> <Gold.Version>
5.8.1

> <Gold.Id.Protein>
6NUR|6NUR_protein|mol2

> <Gold.PLP.Fitness>
48.5151

> <Gold.PLP.PLP>
-34.5168

> <Gold.PLP.part.hbond>
-4.0000

> <Gold.PLP.part.metal>
0.0000

> <Gold.PLP.part.buried>
-2.9929

> <Gold.PLP.part.nonpolar>
-27.6968

> <Gold.PLP.part.repulsive>
0.2554

> <Gold.PLP.ligand.clash>
0.0000

> <Gold.PLP.ligand.torsion>
0.5056

> <Gold.PLP.Chemscore.Hbond>
5.0000

> <Gold.PLP.Chemscore.CHOScore>
0.0000

> <Gold.PLP.Chemscore.Metal>
0.0000

> <Gold.Chemscore.Hbonds>
donor molecule, donor type, donor heavy atom, donor atom, acceptor molecule, acceptor atom, score
      L1  H     4    41       P1  8028  2.00
      L1  H     8    26       P1  7948  1.00
      L1  H    11    27       P1  7948  1.00
      L1  H    19    40       P1  7948  0.90

> <Gold.PLP.Chemscore.Internal.Correction>
0.0095

> <Gold.Rescore>
     Score         DG    S(hbond)    S(metal)    S(lipo)     H(rot)  DE(clash)    DE(int)     intcor
     17.98     -22.00       3.68        0.00      74.89       1.77       0.02       4.00       ----

> <Gold.Chemscore.Fitness>
17.9768

> <Gold.Chemscore.DG>
-22.0048

> <Gold.Chemscore.ZeroCoef>
-5.4800

> <Gold.Chemscore.Hbond>
3.6841

> <Gold.Chemscore.Metal>
0.0000

> <Gold.Chemscore.Lipo>
74.8878

> <Gold.Chemscore.Internal_Hbond>
0.0000

> <Gold.Chemscore.DEClash>
0.0243

> <Gold.Chemscore.DEInternal>
4.0036

> <Gold.Chemscore.Rot>
1.7742

> <Gold.Chemscore.Internal.Correction>
   9.000000E+99

> <Gold.Chemscore.Hbonds>
donor molecule, donor type, donor heavy atom, donor atom, acceptor molecule, acceptor atom, score
      L1  H     4    41       P1  8028  1.00
      L1  H     8    26       P1  7948  0.95
      L1  H    11    27       P1  7948  0.82
      L1  H    19    40       P1  7948  0.34

> <Gold.Chemscore.Hbond.Weighted>
-12.3048

> <Gold.Chemscore.Metal.Weighted>
-0.0000

> <Gold.Chemscore.Lipo.Weighted>
-8.7619

> <Gold.Chemscore.Internal_Hbond.Weighted>
0.0000

> <Gold.Chemscore.DEClash.Weighted>
0.0243

> <Gold.Chemscore.DEInternal.Weighted>
4.0036

> <Gold.Chemscore.Rot.Weighted>
4.5419

> <Gold.Chemscore.Internal.Correction.Weighted>
   9.000000E+99

> <Gold.Protein.RotatedTorsions>
[ 6907 6896 6895 6894 ] final  167.48 input  -60.11 | X-H torsion
[ 7974 7965 7964 7962 ] final -157.55 input  175.53 | X-H torsion
[ 8008 7997 7996 7995 ] final  -66.49 input   59.86 | X-H torsion
[ 10167 10162 10161 10158 ] final  -72.58 input  -65.29 | X-H torsion
[ 10718 10713 10712 10709 ] final  159.14 input   66.30 | X-H torsion
[ 10763 10752 10751 10750 ] final  -80.10 input  -60.55 | X-H torsion
[ 11005 11000 10999 10996 ] final   76.19 input  -57.11 | X-H torsion

> <Gold.Protein.ActiveResidues>
 VAL166  LYS551  ARG553  GLY616  TRP617  ASP618  TYR619  PRO620  LYS621  CYS622 
 ASP623  PHE694  ASN695  SER759  ASP760  ASP761  ALA762  ILE779  LEU786  VAL792 
 PHE793  MET794  SER795  GLU796  ALA797  LYS798  CYS799  TRP800  GLU811  SER814 

> <Gold.Protein.RotatedAtoms>
  151.8626  133.3460  159.3708 H   0  0  0  0  0  0  0  0  0  0  0  0  # atno 6907 bound_to 6896
  150.7175  134.5191  159.5654 H   0  0  0  0  0  0  0  0  0  0  0  0  # atno 6908 bound_to 6896
  152.2708  134.7935  160.0465 H   0  0  0  0  0  0  0  0  0  0  0  0  # atno 6909 bound_to 6896
  144.7543  140.3952  143.6024 H   0  0  0  0  0  0  0  0  0  0  0  0  # atno 7974 bound_to 7965
  154.4738  140.0911  156.7211 H   0  0  0  0  0  0  0  0  0  0  0  0  # atno 8008 bound_to 7997
  155.4651  140.3462  155.4300 H   0  0  0  0  0  0  0  0  0  0  0  0  # atno 8009 bound_to 7997
  156.1083  140.1441  156.9362 H   0  0  0  0  0  0  0  0  0  0  0  0  # atno 8010 bound_to 7997
  140.5181  143.2335  151.7478 H   0  0  0  0  0  0  0  0  0  0  0  0  # atno 10167 bound_to 10162
  157.1682  131.0604  151.2196 H   0  0  0  0  0  0  0  0  0  0  0  0  # atno 10718 bound_to 10713
  154.5470  135.5672  153.6889 H   0  0  0  0  0  0  0  0  0  0  0  0  # atno 10763 bound_to 10752
  152.9979  135.6241  154.2425 H   0  0  0  0  0  0  0  0  0  0  0  0  # atno 10764 bound_to 10752
  154.2358  135.2864  155.2852 H   0  0  0  0  0  0  0  0  0  0  0  0  # atno 10765 bound_to 10752
  139.9309  134.7580  156.1364 H   0  0  0  0  0  0  0  0  0  0  0  0  # atno 11005 bound_to 11000
  145.6833  139.1623  143.2688 LP  0  0  0  0  0  0  0  0  0  0  0  0  # atno 17320 bound_to 7965
  146.1534  140.6893  142.9311 LP  0  0  0  0  0  0  0  0  0  0  0  0  # atno 17321 bound_to 7965
  139.4915  144.4295  151.9889 LP  0  0  0  0  0  0  0  0  0  0  0  0  # atno 17342 bound_to 10162
  140.3390  144.3226  150.5971 LP  0  0  0  0  0  0  0  0  0  0  0  0  # atno 17343 bound_to 10162
  157.4068  130.7363  149.6808 LP  0  0  0  0  0  0  0  0  0  0  0  0  # atno 17370 bound_to 10713
  155.9742  130.4106  150.3938 LP  0  0  0  0  0  0  0  0  0  0  0  0  # atno 17371 bound_to 10713
  141.0897  133.6719  156.2514 LP  0  0  0  0  0  0  0  0  0  0  0  0  # atno 17394 bound_to 11000
  140.6204  134.5368  157.5546 LP  0  0  0  0  0  0  0  0  0  0  0  0  # atno 17395 bound_to 11000

$$$$
