AV-unprocessed.smi:1859|AV-procd|sdf|7545|dock1
  -GOLD-   22720 9263D 1   1.00000     0.00000
 Structure written by MMmdl.
 46 48  0  0  0  0  0  0  0  0  2 V2000
  145.2270  135.7699  153.3025 O   0  0  0  0  0  0  0  0  0  0  0  0
  145.8230  135.5149  152.2555 C   0  0  0  0  0  0  0  0  0  0  0  0
  146.5173  136.4334  151.5653 N   0  0  0  0  0  0  0  0  0  0  0  0
  146.6720  137.8294  151.9578 C   0  0  0  0  0  0  0  0  0  0  0  0
  147.0261  137.9678  153.4485 C   0  0  0  0  0  0  0  0  0  0  0  0
  147.9012  139.1756  153.7195 C   0  0  0  0  0  0  0  0  0  0  0  0
  149.2573  139.0482  154.0913 C   0  0  0  0  0  0  0  0  0  0  0  0
  150.0211  140.2113  154.3213 C   0  0  0  0  0  0  0  0  0  0  0  0
  149.4139  141.4757  154.1741 C   0  0  0  0  0  0  0  0  0  0  0  0
  148.0568  141.5449  153.7979 C   0  0  0  0  0  0  0  0  0  0  0  0
  147.3587  140.4076  153.5854 N   0  3  0  0  0  0  0  0  0  0  0  0
  145.7999  134.0938  151.6781 C   0  0  2  0  0  0  0  0  0  0  0  0
  145.0017  134.0442  150.3539 C   0  0  0  0  0  0  0  0  0  0  0  0
  144.8467  132.6021  149.8328 C   0  0  0  0  0  0  0  0  0  0  0  0
  144.3093  131.6766  150.9385 C   0  0  0  0  0  0  0  0  0  0  0  0
  145.2143  131.7502  152.0947 N   0  0  0  0  0  0  0  0  0  0  0  0
  146.0421  130.7655  152.5258 C   0  0  0  0  0  0  0  0  0  0  0  0
  146.7588  130.9001  153.5188 O   0  0  0  0  0  0  0  0  0  0  0  0
  146.0726  129.4980  151.7269 C   0  0  0  0  0  0  0  0  0  0  0  0
  145.6720  128.2267  152.4453 C   0  0  0  0  0  0  0  0  0  0  0  0
  147.1147  128.4503  152.0757 C   0  0  0  0  0  0  0  0  0  0  0  0
  145.2041  133.0914  152.6936 C   0  0  0  0  0  0  0  0  0  0  0  0
  146.9798  136.1401  150.7166 H   0  0  0  0  0  0  0  0  0  0  0  0
  147.4366  138.3019  151.3386 H   0  0  0  0  0  0  0  0  0  0  0  0
  145.7369  138.3481  151.7455 H   0  0  0  0  0  0  0  0  0  0  0  0
  146.1153  138.0465  154.0440 H   0  0  0  0  0  0  0  0  0  0  0  0
  147.5460  137.0761  153.8008 H   0  0  0  0  0  0  0  0  0  0  0  0
  149.7088  138.0721  154.1967 H   0  0  0  0  0  0  0  0  0  0  0  0
  151.0601  140.1341  154.6067 H   0  0  0  0  0  0  0  0  0  0  0  0
  149.9813  142.3788  154.3461 H   0  0  0  0  0  0  0  0  0  0  0  0
  147.5128  142.4682  153.6619 H   0  0  0  0  0  0  0  0  0  0  0  0
  146.8274  133.7902  151.4681 H   0  0  0  0  0  0  0  0  0  0  0  0
  144.0081  134.4697  150.5046 H   0  0  0  0  0  0  0  0  0  0  0  0
  145.4870  134.6599  149.5956 H   0  0  0  0  0  0  0  0  0  0  0  0
  144.1783  132.5868  148.9716 H   0  0  0  0  0  0  0  0  0  0  0  0
  145.8115  132.2319  149.4841 H   0  0  0  0  0  0  0  0  0  0  0  0
  143.3150  132.0061  151.2434 H   0  0  0  0  0  0  0  0  0  0  0  0
  144.1656  130.6683  150.5530 H   0  0  0  0  0  0  0  0  0  0  0  0
  145.8285  129.5821  150.6694 H   0  0  0  0  0  0  0  0  0  0  0  0
  145.4094  128.2936  153.4997 H   0  0  0  0  0  0  0  0  0  0  0  0
  145.1030  127.4964  151.8740 H   0  0  0  0  0  0  0  0  0  0  0  0
  147.5253  127.8700  151.2521 H   0  0  0  0  0  0  0  0  0  0  0  0
  147.8097  128.6411  152.8912 H   0  0  0  0  0  0  0  0  0  0  0  0
  145.7562  133.1369  153.6337 H   0  0  0  0  0  0  0  0  0  0  0  0
  144.1763  133.3603  152.9448 H   0  0  0  0  0  0  0  0  0  0  0  0
  146.3780  140.4817  153.3137 H   0  0  0  0  0  0  0  0  0  0  0  0
  1  2  2  0  0  0  0
  2  3  1  0  0  0  0
  2 12  1  0  0  0  0
  3  4  1  0  0  0  0
  3 23  1  0  0  0  0
  4  5  1  0  0  0  0
  4 24  1  0  0  0  0
  4 25  1  0  0  0  0
  5  6  1  0  0  0  0
  5 26  1  0  0  0  0
  5 27  1  0  0  0  0
  6 11  1  0  0  0  0
  6  7  2  0  0  0  0
  7  8  1  0  0  0  0
  7 28  1  0  0  0  0
  8  9  2  0  0  0  0
  8 29  1  0  0  0  0
  9 10  1  0  0  0  0
  9 30  1  0  0  0  0
 10 11  2  0  0  0  0
 10 31  1  0  0  0  0
 11 46  1  0  0  0  0
 12 22  1  0  0  0  0
 12 13  1  0  0  0  0
 12 32  1  0  0  0  0
 13 14  1  0  0  0  0
 13 33  1  0  0  0  0
 13 34  1  0  0  0  0
 14 15  1  0  0  0  0
 14 35  1  0  0  0  0
 14 36  1  0  0  0  0
 15 16  1  0  0  0  0
 15 37  1  0  0  0  0
 15 38  1  0  0  0  0
 16 17  1  0  0  0  0
 16 22  1  0  0  0  0
 17 18  2  0  0  0  0
 17 19  1  0  0  0  0
 19 21  1  0  0  0  0
 19 20  1  0  0  0  0
 19 39  1  0  0  0  0
 20 21  1  0  0  0  0
 20 40  1  0  0  0  0
 20 41  1  0  0  0  0
 21 42  1  0  0  0  0
 21 43  1  0  0  0  0
 22 44  1  0  0  0  0
 22 45  1  0  0  0  0
M  CHG  1  11   1
M  END
> <s_m_source_file>
AV-unprocessed.smi

> <i_m_source_file_index>
1859

> <i_lp_mmshare_version>
43012

> <i_f3d_flags>
0

> <s_epik_input>
W0NIMl0xW0NIMl1bQ0hdMUMoPU8pTihbQ0gyXTIpW0NIMl1bQ0gyXVtDSDJdW0NASF0yQyg9TylbTkhdW0NIMl1bQ0gyXWMzW2NIXVtjSF1bY0hdW2NIXW4z

> <s_epik_cmdline>
J2VwaWtfcHl0aG9uJywgJy1waCcsICc3LjAnLCAnLXRuJywgJzgnLCAnLW1hJywgJzIwMCcsICctbWV0YWxfYmluZGluZycsICctaW1hZScsICc8aW5maWxlLm1hZT4nLCAnLW9tYWUnLCAnPG91dGZpbGUubWFlPic=

> <r_epik_Ionization_Penalty>
1.84754

> <r_epik_Ionization_Penalty_Charging>
1.84754

> <r_epik_Ionization_Penalty_Neutral>
7.35743e-08

> <r_epik_State_Penalty>
1.96477

> <r_epik_Charging_Adjusted_Penalty>
3.81231

> <i_epik_Tot_Q>
1

> <i_epik_Tot_abs_Q>
1

> <r_epik_Metal_State_Penalty>
1.99062

> <b_epik_Metal_Only>
0

> <s_lp_Force_Field>
OPLS_2005

> <r_lp_Energy>
35.3834

> <b_lp_Chiralities_Consistent>
1

> <s_lp_Variant>
AV-unprocessed.smi:1859-3

> <Gold.Version>
5.8.1

> <Gold.Id.Protein>
6NUR|6NUR_protein|mol2

> <Gold.PLP.Fitness>
46.6768

> <Gold.PLP.PLP>
-41.7116

> <Gold.PLP.part.hbond>
-2.0000

> <Gold.PLP.part.metal>
0.0000

> <Gold.PLP.part.buried>
-1.9377

> <Gold.PLP.part.nonpolar>
-37.8874

> <Gold.PLP.part.repulsive>
0.2883

> <Gold.PLP.ligand.clash>
0.0000

> <Gold.PLP.ligand.torsion>
0.6094

> <Gold.PLP.Chemscore.Hbond>
2.0000

> <Gold.PLP.Chemscore.CHOScore>
0.0000

> <Gold.PLP.Chemscore.Metal>
0.0000

> <Gold.PLP.Chemscore.Internal.Correction>
0.1841

> <Gold.Rescore>
     Score         DG    S(hbond)    S(metal)    S(lipo)     H(rot)  DE(clash)    DE(int)     intcor
     14.48     -16.84       1.11        0.00     102.50       1.70       0.29       2.07       ----

> <Gold.Chemscore.Fitness>
14.4795

> <Gold.Chemscore.DG>
-16.8376

> <Gold.Chemscore.ZeroCoef>
-5.4800

> <Gold.Chemscore.Hbond>
1.1114

> <Gold.Chemscore.Metal>
0.0000

> <Gold.Chemscore.Lipo>
102.5001

> <Gold.Chemscore.Internal_Hbond>
0.0000

> <Gold.Chemscore.DEClash>
0.2852

> <Gold.Chemscore.DEInternal>
2.0729

> <Gold.Chemscore.Rot>
1.6980

> <Gold.Chemscore.Internal.Correction>
   9.000000E+99

> <Gold.Chemscore.Hbond.Weighted>
-3.7120

> <Gold.Chemscore.Metal.Weighted>
-0.0000

> <Gold.Chemscore.Lipo.Weighted>
-11.9925

> <Gold.Chemscore.Internal_Hbond.Weighted>
0.0000

> <Gold.Chemscore.DEClash.Weighted>
0.2852

> <Gold.Chemscore.DEInternal.Weighted>
2.0729

> <Gold.Chemscore.Rot.Weighted>
4.3469

> <Gold.Chemscore.Internal.Correction.Weighted>
   9.000000E+99

> <Gold.Protein.RotatedTorsions>
[ 6907 6896 6895 6894 ] final  -68.74 input  -60.11 | X-H torsion
[ 7974 7965 7964 7962 ] final   63.49 input  175.53 | X-H torsion
[ 8008 7997 7996 7995 ] final  -94.41 input   59.86 | X-H torsion
[ 10167 10162 10161 10158 ] final  -48.73 input  -65.29 | X-H torsion
[ 10718 10713 10712 10709 ] final  -84.30 input   66.30 | X-H torsion
[ 10763 10752 10751 10750 ] final  161.84 input  -60.55 | X-H torsion
[ 11005 11000 10999 10996 ] final   30.12 input  -57.11 | X-H torsion

> <Gold.Protein.ActiveResidues>
 VAL166  LYS551  ARG553  GLY616  TRP617  ASP618  TYR619  PRO620  LYS621  CYS622 
 ASP623  PHE694  ASN695  SER759  ASP760  ASP761  ALA762  ILE779  LEU786  VAL792 
 PHE793  MET794  SER795  GLU796  ALA797  LYS798  CYS799  TRP800  GLU811  SER814 

> <Gold.Protein.RotatedAtoms>
  150.7340  134.5695  159.5882 H   0  0  0  0  0  0  0  0  0  0  0  0  # atno 6907 bound_to 6896
  152.3138  134.7462  160.0339 H   0  0  0  0  0  0  0  0  0  0  0  0  # atno 6908 bound_to 6896
  151.8001  133.3333  159.3561 H   0  0  0  0  0  0  0  0  0  0  0  0  # atno 6909 bound_to 6896
  145.8612  139.3316  143.0818 H   0  0  0  0  0  0  0  0  0  0  0  0  # atno 7974 bound_to 7965
  154.7481  140.0489  157.0869 H   0  0  0  0  0  0  0  0  0  0  0  0  # atno 8008 bound_to 7997
  155.0092  140.3134  155.4817 H   0  0  0  0  0  0  0  0  0  0  0  0  # atno 8009 bound_to 7997
  156.2879  140.2187  156.5206 H   0  0  0  0  0  0  0  0  0  0  0  0  # atno 8010 bound_to 7997
  140.6718  143.2727  151.4112 H   0  0  0  0  0  0  0  0  0  0  0  0  # atno 10167 bound_to 10162
  156.0008  130.4693  150.4389 H   0  0  0  0  0  0  0  0  0  0  0  0  # atno 10718 bound_to 10713
  154.2691  135.2766  155.2746 H   0  0  0  0  0  0  0  0  0  0  0  0  # atno 10763 bound_to 10752
  154.5317  135.5728  153.6768 H   0  0  0  0  0  0  0  0  0  0  0  0  # atno 10764 bound_to 10752
  152.9948  135.6229  154.2845 H   0  0  0  0  0  0  0  0  0  0  0  0  # atno 10765 bound_to 10752
  140.2978  134.2791  155.7761 H   0  0  0  0  0  0  0  0  0  0  0  0  # atno 11005 bound_to 11000
  145.9246  140.9092  143.0388 LP  0  0  0  0  0  0  0  0  0  0  0  0  # atno 17320 bound_to 7965
  144.6726  140.1335  143.7442 LP  0  0  0  0  0  0  0  0  0  0  0  0  # atno 17321 bound_to 7965
  139.5990  144.1337  152.2176 LP  0  0  0  0  0  0  0  0  0  0  0  0  # atno 17342 bound_to 10162
  140.0715  144.5775  150.7188 LP  0  0  0  0  0  0  0  0  0  0  0  0  # atno 17343 bound_to 10162
  157.2432  131.0530  151.2424 LP  0  0  0  0  0  0  0  0  0  0  0  0  # atno 17370 bound_to 10713
  157.3600  130.7126  149.6495 LP  0  0  0  0  0  0  0  0  0  0  0  0  # atno 17371 bound_to 10713
  141.2134  133.7626  156.9721 LP  0  0  0  0  0  0  0  0  0  0  0  0  # atno 17394 bound_to 11000
  140.1137  134.9461  157.2103 LP  0  0  0  0  0  0  0  0  0  0  0  0  # atno 17395 bound_to 11000

$$$$
