AV-unprocessed.smi:3220|AV-procd|sdf|12298|dock4
  -GOLD-   2272018143D 1   1.00000     0.00000
 Structure written by MMmdl.
 33 34  0  0  0  0  0  0  0  0  1 V2000
  152.3887  140.2089  157.7665 C   0  0  0  0  0  0  0  0  0  0  0  0
  151.1288  140.7649  157.0892 C   0  0  1  0  0  0  0  0  0  0  0  0
  151.3552  142.2062  156.5828 C   0  0  0  0  0  0  0  0  0  0  0  0
  151.6585  143.1396  157.6533 N   0  0  0  0  0  0  0  0  0  0  0  0
  151.7138  144.5168  157.6008 C   0  0  0  0  0  0  0  0  0  0  0  0
  152.0218  144.9588  158.8554 C   0  0  0  0  0  0  0  0  0  0  0  0
  152.1417  143.7616  159.6152 C   0  0  0  0  0  0  0  0  0  0  0  0
  151.9281  142.6743  158.8922 N   0  0  0  0  0  0  0  0  0  0  0  0
  150.7545  139.8784  155.9878 N   0  0  0  0  0  0  0  0  0  0  0  0
  151.5823  139.4057  155.0424 C   0  0  0  0  0  0  0  0  0  0  0  0
  152.7781  139.6951  154.9839 O   0  0  0  0  0  0  0  0  0  0  0  0
  150.9580  138.4548  154.0101 C   0  0  2  0  0  0  0  0  0  0  0  0
  149.4332  138.2923  154.1703 C   0  0  0  0  0  0  0  0  0  0  0  0
  149.2365  136.8048  154.4076 C   0  0  0  0  0  0  0  0  0  0  0  0
  150.5892  136.3640  154.9474 C   0  0  0  0  0  0  0  0  0  0  0  0
  151.5017  137.1481  154.1929 O   0  0  0  0  0  0  0  0  0  0  0  0
  152.6868  140.8314  158.6106 H   0  0  0  0  0  0  0  0  0  0  0  0
  153.2288  140.1664  157.0721 H   0  0  0  0  0  0  0  0  0  0  0  0
  152.2180  139.2012  158.1467 H   0  0  0  0  0  0  0  0  0  0  0  0
  150.3383  140.7750  157.8421 H   0  0  0  0  0  0  0  0  0  0  0  0
  152.1843  142.2285  155.8739 H   0  0  0  0  0  0  0  0  0  0  0  0
  150.4775  142.5652  156.0431 H   0  0  0  0  0  0  0  0  0  0  0  0
  151.5239  145.0612  156.6874 H   0  0  0  0  0  0  0  0  0  0  0  0
  152.1418  145.9812  159.1814 H   0  0  0  0  0  0  0  0  0  0  0  0
  152.3772  143.6510  160.6635 H   0  0  0  0  0  0  0  0  0  0  0  0
  149.7872  139.5913  155.9478 H   0  0  0  0  0  0  0  0  0  0  0  0
  151.2018  138.7887  153.0003 H   0  0  0  0  0  0  0  0  0  0  0  0
  149.0446  138.8628  155.0157 H   0  0  0  0  0  0  0  0  0  0  0  0
  148.8941  138.6263  153.2833 H   0  0  0  0  0  0  0  0  0  0  0  0
  148.4143  136.5850  155.0891 H   0  0  0  0  0  0  0  0  0  0  0  0
  149.0373  136.3016  153.4605 H   0  0  0  0  0  0  0  0  0  0  0  0
  150.6831  136.5989  156.0087 H   0  0  0  0  0  0  0  0  0  0  0  0
  150.7694  135.2970  154.8144 H   0  0  0  0  0  0  0  0  0  0  0  0
  1  2  1  0  0  0  0
  1 17  1  0  0  0  0
  1 18  1  0  0  0  0
  1 19  1  0  0  0  0
  2  3  1  0  0  0  0
  2  9  1  0  0  0  0
  2 20  1  0  0  0  0
  3  4  1  0  0  0  0
  3 21  1  0  0  0  0
  3 22  1  0  0  0  0
  4  8  1  0  0  0  0
  4  5  1  0  0  0  0
  5  6  2  0  0  0  0
  5 23  1  0  0  0  0
  6  7  1  0  0  0  0
  6 24  1  0  0  0  0
  7  8  2  0  0  0  0
  7 25  1  0  0  0  0
  9 10  1  0  0  0  0
  9 26  1  0  0  0  0
 10 11  2  0  0  0  0
 10 12  1  0  0  0  0
 12 16  1  0  0  0  0
 12 13  1  0  0  0  0
 12 27  1  0  0  0  0
 13 14  1  0  0  0  0
 13 28  1  0  0  0  0
 13 29  1  0  0  0  0
 14 15  1  0  0  0  0
 14 30  1  0  0  0  0
 14 31  1  0  0  0  0
 15 16  1  0  0  0  0
 15 32  1  0  0  0  0
 15 33  1  0  0  0  0
M  END
> <s_m_source_file>
AV-unprocessed.smi

> <i_m_source_file_index>
3220

> <i_lp_mmshare_version>
43012

> <i_f3d_flags>
0

> <s_epik_input>
bjFbY0hdW2NIXVtjSF1uMVtDSDJdW0NAQEhdKFtDSDNdKVtOSF1DKD1PKVtDQEBIXTJbQ0gyXVtDSDJdW0NIMl1PMg==

> <s_epik_cmdline>
J2VwaWtfcHl0aG9uJywgJy1waCcsICc3LjAnLCAnLXRuJywgJzgnLCAnLW1hJywgJzIwMCcsICctbWV0YWxfYmluZGluZycsICctaW1hZScsICc8aW5maWxlLm1hZT4nLCAnLW9tYWUnLCAnPG91dGZpbGUubWFlPic=

> <r_lp_tautomer_probability>
1

> <r_epik_Ionization_Penalty>
0.00033363

> <r_epik_Ionization_Penalty_Charging>
0

> <r_epik_Ionization_Penalty_Neutral>
0.00033363

> <r_epik_State_Penalty>
-0

> <r_epik_Charging_Adjusted_Penalty>
0

> <i_epik_Tot_Q>
0

> <i_epik_Tot_abs_Q>
0

> <r_epik_Metal_State_Penalty>
-0

> <b_epik_Metal_Only>
0

> <s_lp_Force_Field>
OPLS_2005

> <r_lp_Energy>
18.0853

> <b_lp_Chiralities_Consistent>
1

> <s_lp_Variant>
AV-unprocessed.smi:3220-2

> <Gold.Version>
5.8.1

> <Gold.Id.Protein>
6NUR|6NUR_protein|mol2

> <Gold.PLP.Fitness>
41.2948

> <Gold.PLP.PLP>
-33.0328

> <Gold.PLP.part.hbond>
-2.8533

> <Gold.PLP.part.metal>
0.0000

> <Gold.PLP.part.buried>
-4.9118

> <Gold.PLP.part.nonpolar>
-26.3666

> <Gold.PLP.part.repulsive>
0.2116

> <Gold.PLP.ligand.clash>
0.0334

> <Gold.PLP.ligand.torsion>
0.3395

> <Gold.PLP.Chemscore.Hbond>
2.0336

> <Gold.PLP.Chemscore.CHOScore>
0.9507

> <Gold.PLP.Chemscore.Metal>
0.0000

> <Gold.Chemscore.Hbonds>
donor molecule, donor type, donor heavy atom, donor atom, acceptor molecule, acceptor atom, score
      P1  H  7997  8010       L1    11  1.00
      P1  H 10752 10765       L1    16  0.59
      L1  C     5    23       P1  8028  0.22

> <Gold.PLP.Chemscore.Internal.Correction>
0.0217

> <Gold.Rescore>
     Score         DG    S(hbond)    S(metal)    S(lipo)     H(rot)  DE(clash)    DE(int)     intcor
     13.83     -16.91       1.98        0.00      76.57       1.62       0.04       3.04       ----

> <Gold.Chemscore.Fitness>
13.8304

> <Gold.Chemscore.DG>
-16.9127

> <Gold.Chemscore.ZeroCoef>
-5.4800

> <Gold.Chemscore.Hbond>
1.9837

> <Gold.Chemscore.Metal>
0.0000

> <Gold.Chemscore.Lipo>
76.5730

> <Gold.Chemscore.Internal_Hbond>
0.0000

> <Gold.Chemscore.DEClash>
0.0383

> <Gold.Chemscore.DEInternal>
3.0440

> <Gold.Chemscore.Rot>
1.6219

> <Gold.Chemscore.Internal.Correction>
   9.000000E+99

> <Gold.Chemscore.Hbonds>
donor molecule, donor type, donor heavy atom, donor atom, acceptor molecule, acceptor atom, score
      P1  H  7997  8010       L1    11  0.98
      P1  H 10752 10765       L1    16  0.05

> <Gold.Chemscore.Hbond.Weighted>
-6.6256

> <Gold.Chemscore.Metal.Weighted>
-0.0000

> <Gold.Chemscore.Lipo.Weighted>
-8.9590

> <Gold.Chemscore.Internal_Hbond.Weighted>
0.0000

> <Gold.Chemscore.DEClash.Weighted>
0.0383

> <Gold.Chemscore.DEInternal.Weighted>
3.0440

> <Gold.Chemscore.Rot.Weighted>
4.1520

> <Gold.Chemscore.Internal.Correction.Weighted>
   9.000000E+99

> <Gold.Protein.RotatedTorsions>
[ 6907 6896 6895 6894 ] final  -33.74 input  -60.11 | X-H torsion
[ 7974 7965 7964 7962 ] final   76.00 input  175.53 | X-H torsion
[ 8008 7997 7996 7995 ] final  108.26 input   59.86 | X-H torsion
[ 10167 10162 10161 10158 ] final  158.03 input  -65.29 | X-H torsion
[ 10718 10713 10712 10709 ] final   99.54 input   66.30 | X-H torsion
[ 10763 10752 10751 10750 ] final  158.61 input  -60.55 | X-H torsion
[ 11005 11000 10999 10996 ] final   35.04 input  -57.11 | X-H torsion

> <Gold.Protein.ActiveResidues>
 VAL166  LYS551  ARG553  GLY616  TRP617  ASP618  TYR619  PRO620  LYS621  CYS622 
 ASP623  PHE694  ASN695  SER759  ASP760  ASP761  ALA762  ILE779  LEU786  VAL792 
 PHE793  MET794  SER795  GLU796  ALA797  LYS798  CYS799  TRP800  GLU811  SER814 

> <Gold.Protein.RotatedAtoms>
  151.0617  134.9741  159.8263 H   0  0  0  0  0  0  0  0  0  0  0  0  # atno 6907 bound_to 6896
  152.5396  134.2409  159.8872 H   0  0  0  0  0  0  0  0  0  0  0  0  # atno 6908 bound_to 6896
  151.2429  133.4347  159.2642 H   0  0  0  0  0  0  0  0  0  0  0  0  # atno 6909 bound_to 6896
  145.7084  139.2606  143.1665 H   0  0  0  0  0  0  0  0  0  0  0  0  # atno 7974 bound_to 7965
  156.1889  140.3079  155.9294 H   0  0  0  0  0  0  0  0  0  0  0  0  # atno 8008 bound_to 7997
  155.3217  140.0456  157.3056 H   0  0  0  0  0  0  0  0  0  0  0  0  # atno 8009 bound_to 7997
  154.5429  140.2267  155.8621 H   0  0  0  0  0  0  0  0  0  0  0  0  # atno 8010 bound_to 7997
  139.4825  144.4863  151.8373 H   0  0  0  0  0  0  0  0  0  0  0  0  # atno 10167 bound_to 10162
  157.6874  131.0672  150.4964 H   0  0  0  0  0  0  0  0  0  0  0  0  # atno 10718 bound_to 10713
  154.2188  135.2783  155.2932 H   0  0  0  0  0  0  0  0  0  0  0  0  # atno 10763 bound_to 10752
  154.5719  135.5616  153.7106 H   0  0  0  0  0  0  0  0  0  0  0  0  # atno 10764 bound_to 10752
  153.0046  135.6323  154.2328 H   0  0  0  0  0  0  0  0  0  0  0  0  # atno 10765 bound_to 10752
  140.2467  134.3351  155.7905 H   0  0  0  0  0  0  0  0  0  0  0  0  # atno 11005 bound_to 11000
  146.0735  140.7843  142.9676 LP  0  0  0  0  0  0  0  0  0  0  0  0  # atno 17320 bound_to 7965
  144.6949  140.3378  143.7204 LP  0  0  0  0  0  0  0  0  0  0  0  0  # atno 17321 bound_to 7965
  140.4343  144.2073  150.5889 LP  0  0  0  0  0  0  0  0  0  0  0  0  # atno 17342 bound_to 10162
  140.4748  143.2400  151.9039 LP  0  0  0  0  0  0  0  0  0  0  0  0  # atno 17343 bound_to 10162
  156.5288  130.4179  149.6212 LP  0  0  0  0  0  0  0  0  0  0  0  0  # atno 17370 bound_to 10713
  156.3088  130.7217  151.2105 LP  0  0  0  0  0  0  0  0  0  0  0  0  # atno 17371 bound_to 10713
  141.2205  133.7330  156.8972 LP  0  0  0  0  0  0  0  0  0  0  0  0  # atno 17394 bound_to 11000
  140.1599  134.9173  157.2701 LP  0  0  0  0  0  0  0  0  0  0  0  0  # atno 17395 bound_to 11000

$$$$
