AV-unprocessed.smi:366|AV-procd|sdf|2430|dock9
  -GOLD-   2262022373D 1   1.00000     0.00000
 Structure written by MMmdl.
 50 51  0  0  0  0  0  0  0  0  1 V2000
  153.3188  137.5385  159.6688 C   0  0  0  0  0  0  0  0  0  0  0  0
  153.2776  138.6664  158.6431 C   0  0  0  0  0  0  0  0  0  0  0  0
  154.2418  139.4212  158.5223 O   0  0  0  0  0  0  0  0  0  0  0  0
  152.1585  138.7691  157.9081 N   0  0  0  0  0  0  0  0  0  0  0  0
  151.9185  139.7638  156.8604 C   0  0  1  0  0  0  0  0  0  0  0  0
  151.2236  139.0687  155.6739 C   0  0  0  0  0  0  0  0  0  0  0  0
  150.9848  139.6892  154.6363 O   0  0  0  0  0  0  0  0  0  0  0  0
  150.9225  137.7728  155.8382 N   0  0  0  0  0  0  0  0  0  0  0  0
  150.2741  136.9440  154.8333 C   0  0  0  0  0  0  0  0  0  0  0  0
  150.4704  135.4688  155.1168 C   0  0  0  0  0  0  0  0  0  0  0  0
  151.3524  135.0363  156.1255 C   0  0  0  0  0  0  0  0  0  0  0  0
  151.5102  133.6547  156.3456 C   0  0  0  0  0  0  0  0  0  0  0  0
  150.7844  132.7395  155.5454 C   0  0  0  0  0  0  0  0  0  0  0  0
  150.9286  131.3492  155.7467 N   0  0  0  0  0  0  0  0  0  0  0  0
  151.0908  130.4990  154.5685 C   0  0  0  0  0  0  0  0  0  0  0  0
  150.9388  129.0170  154.9501 C   0  0  0  0  0  0  0  0  0  0  0  0
  151.8544  128.6944  155.9912 O   0  0  0  0  0  0  0  0  0  0  0  0
  151.6054  129.4549  157.1685 C   0  0  0  0  0  0  0  0  0  0  0  0
  151.7783  130.9537  156.8677 C   0  0  0  0  0  0  0  0  0  0  0  0
  149.9341  133.1642  154.5771 N   0  0  0  0  0  0  0  0  0  0  0  0
  149.7861  134.4896  154.3700 C   0  0  0  0  0  0  0  0  0  0  0  0
  151.0029  140.8873  157.4303 C   0  0  0  0  0  0  0  0  0  0  0  0
  150.5255  141.8821  156.3514 C   0  0  0  0  0  0  0  0  0  0  0  0
  151.6918  141.6698  158.5659 C   0  0  0  0  0  0  0  0  0  0  0  0
  152.3236  137.1334  159.8571 H   0  0  0  0  0  0  0  0  0  0  0  0
  153.7229  137.9007  160.6143 H   0  0  0  0  0  0  0  0  0  0  0  0
  153.9563  136.7303  159.3105 H   0  0  0  0  0  0  0  0  0  0  0  0
  151.4220  138.0984  158.0717 H   0  0  0  0  0  0  0  0  0  0  0  0
  152.8677  140.1974  156.5379 H   0  0  0  0  0  0  0  0  0  0  0  0
  151.1522  137.3351  156.7187 H   0  0  0  0  0  0  0  0  0  0  0  0
  149.2062  137.1663  154.8011 H   0  0  0  0  0  0  0  0  0  0  0  0
  150.6791  137.1813  153.8481 H   0  0  0  0  0  0  0  0  0  0  0  0
  151.8994  135.7497  156.7243 H   0  0  0  0  0  0  0  0  0  0  0  0
  152.1708  133.3171  157.1299 H   0  0  0  0  0  0  0  0  0  0  0  0
  150.3470  130.7542  153.8125 H   0  0  0  0  0  0  0  0  0  0  0  0
  152.0749  130.6726  154.1310 H   0  0  0  0  0  0  0  0  0  0  0  0
  149.9178  128.7991  155.2676 H   0  0  0  0  0  0  0  0  0  0  0  0
  151.1453  128.3843  154.0870 H   0  0  0  0  0  0  0  0  0  0  0  0
  150.6019  129.2471  157.5435 H   0  0  0  0  0  0  0  0  0  0  0  0
  152.3046  129.1451  157.9450 H   0  0  0  0  0  0  0  0  0  0  0  0
  152.8173  131.1652  156.6117 H   0  0  0  0  0  0  0  0  0  0  0  0
  151.5529  131.5223  157.7685 H   0  0  0  0  0  0  0  0  0  0  0  0
  149.1029  134.7754  153.5837 H   0  0  0  0  0  0  0  0  0  0  0  0
  150.1118  140.4245  157.8585 H   0  0  0  0  0  0  0  0  0  0  0  0
  151.3701  142.3472  155.8423 H   0  0  0  0  0  0  0  0  0  0  0  0
  149.9258  142.6793  156.7918 H   0  0  0  0  0  0  0  0  0  0  0  0
  149.9029  141.4037  155.5954 H   0  0  0  0  0  0  0  0  0  0  0  0
  152.6168  142.1327  158.2214 H   0  0  0  0  0  0  0  0  0  0  0  0
  151.9361  141.0301  159.4140 H   0  0  0  0  0  0  0  0  0  0  0  0
  151.0461  142.4627  158.9442 H   0  0  0  0  0  0  0  0  0  0  0  0
  1  2  1  0  0  0  0
  1 25  1  0  0  0  0
  1 26  1  0  0  0  0
  1 27  1  0  0  0  0
  2  3  2  0  0  0  0
  2  4  1  0  0  0  0
  4  5  1  0  0  0  0
  4 28  1  0  0  0  0
  5  6  1  0  0  0  0
  5 22  1  0  0  0  0
  5 29  1  0  0  0  0
  6  7  2  0  0  0  0
  6  8  1  0  0  0  0
  8  9  1  0  0  0  0
  8 30  1  0  0  0  0
  9 10  1  0  0  0  0
  9 31  1  0  0  0  0
  9 32  1  0  0  0  0
 10 21  1  0  0  0  0
 10 11  2  0  0  0  0
 11 12  1  0  0  0  0
 11 33  1  0  0  0  0
 12 13  2  0  0  0  0
 12 34  1  0  0  0  0
 13 14  1  0  0  0  0
 13 20  1  0  0  0  0
 14 19  1  0  0  0  0
 14 15  1  0  0  0  0
 15 16  1  0  0  0  0
 15 35  1  0  0  0  0
 15 36  1  0  0  0  0
 16 17  1  0  0  0  0
 16 37  1  0  0  0  0
 16 38  1  0  0  0  0
 17 18  1  0  0  0  0
 18 19  1  0  0  0  0
 18 39  1  0  0  0  0
 18 40  1  0  0  0  0
 19 41  1  0  0  0  0
 19 42  1  0  0  0  0
 20 21  2  0  0  0  0
 21 43  1  0  0  0  0
 22 23  1  0  0  0  0
 22 24  1  0  0  0  0
 22 44  1  0  0  0  0
 23 45  1  0  0  0  0
 23 46  1  0  0  0  0
 23 47  1  0  0  0  0
 24 48  1  0  0  0  0
 24 49  1  0  0  0  0
 24 50  1  0  0  0  0
M  END
> <s_m_source_file>
AV-unprocessed.smi

> <i_m_source_file_index>
366

> <i_lp_mmshare_version>
43012

> <i_f3d_flags>
0

> <s_epik_input>
W0NIM11DKD1PKVtOSF1bQ0BASF0oW0NIXShbQ0gzXSlbQ0gzXSlDKD1PKVtOSF1bQ0gyXWMxW2NIXVtjSF1jKG5bY0hdMSlOMltDSDJdW0NIMl1PW0NIMl1bQ0gyXTI=

> <s_epik_cmdline>
J2VwaWtfcHl0aG9uJywgJy1waCcsICc3LjAnLCAnLXRuJywgJzgnLCAnLW1hJywgJzIwMCcsICctbWV0YWxfYmluZGluZycsICctaW1hZScsICc8aW5maWxlLm1hZT4nLCAnLW9tYWUnLCAnPG91dGZpbGUubWFlPic=

> <r_lp_tautomer_probability>
1

> <r_epik_Ionization_Penalty>
0.00485188

> <r_epik_Ionization_Penalty_Charging>
0

> <r_epik_Ionization_Penalty_Neutral>
0.00485188

> <r_epik_State_Penalty>
0.00351951

> <r_epik_Charging_Adjusted_Penalty>
0.00351951

> <i_epik_Tot_Q>
0

> <i_epik_Tot_abs_Q>
0

> <r_epik_Metal_State_Penalty>
-0

> <b_epik_Metal_Only>
0

> <s_lp_Force_Field>
OPLS_2005

> <r_lp_Energy>
20.5125

> <b_lp_Chiralities_Consistent>
1

> <s_lp_Variant>
AV-unprocessed.smi:366-2

> <Gold.Version>
5.8.1

> <Gold.Id.Protein>
6NUR|6NUR_protein|mol2

> <Gold.PLP.Fitness>
39.0009

> <Gold.PLP.PLP>
-31.0002

> <Gold.PLP.part.hbond>
-2.0000

> <Gold.PLP.part.metal>
0.0000

> <Gold.PLP.part.buried>
-4.2878

> <Gold.PLP.part.nonpolar>
-24.7318

> <Gold.PLP.part.repulsive>
0.2793

> <Gold.PLP.ligand.clash>
0.0000

> <Gold.PLP.ligand.torsion>
0.7237

> <Gold.PLP.Chemscore.Hbond>
2.0000

> <Gold.PLP.Chemscore.CHOScore>
0.9948

> <Gold.PLP.Chemscore.Metal>
0.0000

> <Gold.Chemscore.Hbonds>
donor molecule, donor type, donor heavy atom, donor atom, acceptor molecule, acceptor atom, score
      P1  H  7989  7998       L1     7  1.00
      P1  H  7997  8010       L1     3  1.00
      L1  C    21    43       P1  7948  0.89

> <Gold.PLP.Chemscore.Internal.Correction>
0.4638

> <Gold.Rescore>
     Score         DG    S(hbond)    S(metal)    S(lipo)     H(rot)  DE(clash)    DE(int)     intcor
     13.32     -15.40       2.00        0.00      75.53       2.18       0.01       2.07       ----

> <Gold.Chemscore.Fitness>
13.3226

> <Gold.Chemscore.DG>
-15.4024

> <Gold.Chemscore.ZeroCoef>
-5.4800

> <Gold.Chemscore.Hbond>
1.9968

> <Gold.Chemscore.Metal>
0.0000

> <Gold.Chemscore.Lipo>
75.5328

> <Gold.Chemscore.Internal_Hbond>
0.0000

> <Gold.Chemscore.DEClash>
0.0121

> <Gold.Chemscore.DEInternal>
2.0676

> <Gold.Chemscore.Rot>
2.1813

> <Gold.Chemscore.Internal.Correction>
   9.000000E+99

> <Gold.Chemscore.Hbonds>
donor molecule, donor type, donor heavy atom, donor atom, acceptor molecule, acceptor atom, score
      P1  H  7989  7998       L1     7  1.00
      P1  H  7997  8010       L1     3  0.97

> <Gold.Chemscore.Hbond.Weighted>
-6.6692

> <Gold.Chemscore.Metal.Weighted>
-0.0000

> <Gold.Chemscore.Lipo.Weighted>
-8.8373

> <Gold.Chemscore.Internal_Hbond.Weighted>
0.0000

> <Gold.Chemscore.DEClash.Weighted>
0.0121

> <Gold.Chemscore.DEInternal.Weighted>
2.0676

> <Gold.Chemscore.Rot.Weighted>
5.5842

> <Gold.Chemscore.Internal.Correction.Weighted>
   9.000000E+99

> <Gold.Protein.RotatedTorsions>
[ 6907 6896 6895 6894 ] final   76.45 input  -60.11 | X-H torsion
[ 7974 7965 7964 7962 ] final   51.07 input  175.53 | X-H torsion
[ 8008 7997 7996 7995 ] final    1.93 input   59.86 | X-H torsion
[ 10167 10162 10161 10158 ] final  -77.07 input  -65.29 | X-H torsion
[ 10718 10713 10712 10709 ] final -167.44 input   66.30 | X-H torsion
[ 10763 10752 10751 10750 ] final -105.43 input  -60.55 | X-H torsion
[ 11005 11000 10999 10996 ] final  -15.05 input  -57.11 | X-H torsion

> <Gold.Protein.ActiveResidues>
 VAL166  LYS551  ARG553  GLY616  TRP617  ASP618  TYR619  PRO620  LYS621  CYS622 
 ASP623  PHE694  ASN695  SER759  ASP760  ASP761  ALA762  ILE779  LEU786  VAL792 
 PHE793  MET794  SER795  GLU796  ALA797  LYS798  CYS799  TRP800  GLU811  SER814 

> <Gold.Protein.RotatedAtoms>
  152.5073  134.3967  159.9402 H   0  0  0  0  0  0  0  0  0  0  0  0  # atno 6907 bound_to 6896
  151.3930  133.3776  159.2731 H   0  0  0  0  0  0  0  0  0  0  0  0  # atno 6908 bound_to 6896
  150.9418  134.8848  159.7676 H   0  0  0  0  0  0  0  0  0  0  0  0  # atno 6909 bound_to 6896
  145.9950  139.4378  143.0050 H   0  0  0  0  0  0  0  0  0  0  0  0  # atno 7974 bound_to 7965
  154.6856  140.2642  155.6864 H   0  0  0  0  0  0  0  0  0  0  0  0  # atno 8008 bound_to 7997
  156.2713  140.2801  156.1338 H   0  0  0  0  0  0  0  0  0  0  0  0  # atno 8009 bound_to 7997
  155.0970  140.0374  157.2675 H   0  0  0  0  0  0  0  0  0  0  0  0  # atno 8010 bound_to 7997
  140.4802  143.2404  151.8070 H   0  0  0  0  0  0  0  0  0  0  0  0  # atno 10167 bound_to 10162
  156.6824  130.9127  151.3059 H   0  0  0  0  0  0  0  0  0  0  0  0  # atno 10718 bound_to 10713
  154.7946  135.4749  154.0131 H   0  0  0  0  0  0  0  0  0  0  0  0  # atno 10763 bound_to 10752
  153.1684  135.6821  153.8650 H   0  0  0  0  0  0  0  0  0  0  0  0  # atno 10764 bound_to 10752
  153.8241  135.3200  155.3391 H   0  0  0  0  0  0  0  0  0  0  0  0  # atno 10765 bound_to 10752
  140.7926  133.8276  155.9394 H   0  0  0  0  0  0  0  0  0  0  0  0  # atno 11005 bound_to 11000
  145.7574  140.9949  143.1218 LP  0  0  0  0  0  0  0  0  0  0  0  0  # atno 17320 bound_to 7965
  144.6900  139.9288  143.7471 LP  0  0  0  0  0  0  0  0  0  0  0  0  # atno 17321 bound_to 7965
  139.4832  144.4782  151.9340 LP  0  0  0  0  0  0  0  0  0  0  0  0  # atno 17342 bound_to 10162
  140.3868  144.2667  150.5903 LP  0  0  0  0  0  0  0  0  0  0  0  0  # atno 17343 bound_to 10162
  157.7039  130.9363  150.0868 LP  0  0  0  0  0  0  0  0  0  0  0  0  # atno 17370 bound_to 10713
  156.1857  130.3652  149.8975 LP  0  0  0  0  0  0  0  0  0  0  0  0  # atno 17371 bound_to 10713
  140.9374  134.1944  157.4822 LP  0  0  0  0  0  0  0  0  0  0  0  0  # atno 17394 bound_to 11000
  139.8729  134.9858  156.5296 LP  0  0  0  0  0  0  0  0  0  0  0  0  # atno 17395 bound_to 11000

$$$$
