AV-unprocessed.smi:540|AV-procd|sdf|2870|dock9
  -GOLD-   2262023363D 1   1.00000     0.00000
 Structure written by MMmdl.
 48 50  0  0  0  0  0  0  0  0  2 V2000
  150.2954  138.7449  154.2142 C   0  0  0  0  0  0  0  0  0  0  0  0
  151.6056  138.8528  154.9973 C   0  0  0  0  0  0  0  0  0  0  0  0
  151.3897  139.6813  156.1249 O   0  0  0  0  0  0  0  0  0  0  0  0
  152.3815  139.5262  157.1259 C   0  0  0  0  0  0  0  0  0  0  0  0
  151.8790  140.1253  158.4468 C   0  0  0  0  0  0  0  0  0  0  0  0
  152.7389  139.7570  159.5715 N   0  0  0  0  0  0  0  0  0  0  0  0
  153.3572  140.5844  160.4586 C   0  0  0  0  0  0  0  0  0  0  0  0
  153.2086  141.9728  160.4205 N   0  0  0  0  0  0  0  0  0  0  0  0
  153.4848  142.7796  159.2337 C   0  0  0  0  0  0  0  0  0  0  0  0
  152.3167  143.7305  158.9177 C   0  0  0  0  0  0  0  0  0  0  0  0
  152.0206  144.6586  160.1088 C   0  0  0  0  0  0  0  0  0  0  0  0
  150.8031  145.5557  159.8467 C   0  0  0  0  0  0  0  0  0  0  0  0
  151.8461  143.8132  161.3823 C   0  0  0  0  0  0  0  0  0  0  0  0
  153.0394  142.8593  161.5716 C   0  0  0  0  0  0  0  0  0  0  0  0
  154.1549  139.9673  161.3318 N   0  0  0  0  0  0  0  0  0  0  0  0
  154.0188  138.6315  160.9901 C   0  0  0  0  0  0  0  0  0  0  0  0
  153.1809  138.4762  159.9295 C   0  0  0  0  0  0  0  0  0  0  0  0
  152.8787  137.1635  159.3111 C   0  0  0  0  0  0  0  0  0  0  0  0
  152.1328  137.0702  158.3387 O   0  0  0  0  0  0  0  0  0  0  0  0
  153.5204  136.1317  159.9451 N   0  5  0  0  0  0  0  0  0  0  0  0
  154.3702  136.2458  161.0236 C   0  0  0  0  0  0  0  0  0  0  0  0
  154.9119  135.2629  161.5312 O   0  0  0  0  0  0  0  0  0  0  0  0
  154.6308  137.4804  161.5565 N   0  0  0  0  0  0  0  0  0  0  0  0
  155.5361  137.6329  162.6994 C   0  0  0  0  0  0  0  0  0  0  0  0
  150.4175  138.1160  153.3324 H   0  0  0  0  0  0  0  0  0  0  0  0
  149.9582  139.7271  153.8819 H   0  0  0  0  0  0  0  0  0  0  0  0
  149.5070  138.3111  154.8299 H   0  0  0  0  0  0  0  0  0  0  0  0
  151.9335  137.8619  155.3146 H   0  0  0  0  0  0  0  0  0  0  0  0
  152.3868  139.2747  154.3636 H   0  0  0  0  0  0  0  0  0  0  0  0
  152.6075  138.4676  157.2620 H   0  0  0  0  0  0  0  0  0  0  0  0
  153.3046  140.0204  156.8204 H   0  0  0  0  0  0  0  0  0  0  0  0
  151.8139  141.2053  158.3629 H   0  0  0  0  0  0  0  0  0  0  0  0
  150.8566  139.8115  158.6413 H   0  0  0  0  0  0  0  0  0  0  0  0
  154.4058  143.3440  159.3847 H   0  0  0  0  0  0  0  0  0  0  0  0
  153.6591  142.1244  158.3796 H   0  0  0  0  0  0  0  0  0  0  0  0
  152.5524  144.3213  158.0321 H   0  0  0  0  0  0  0  0  0  0  0  0
  151.4296  143.1446  158.6722 H   0  0  0  0  0  0  0  0  0  0  0  0
  152.8866  145.3065  160.2522 H   0  0  0  0  0  0  0  0  0  0  0  0
  149.9001  144.9643  159.6921 H   0  0  0  0  0  0  0  0  0  0  0  0
  150.9539  146.1718  158.9599 H   0  0  0  0  0  0  0  0  0  0  0  0
  150.6221  146.2260  160.6872 H   0  0  0  0  0  0  0  0  0  0  0  0
  151.7529  144.4632  162.2528 H   0  0  0  0  0  0  0  0  0  0  0  0
  150.9203  143.2402  161.3236 H   0  0  0  0  0  0  0  0  0  0  0  0
  152.9310  142.2790  162.4871 H   0  0  0  0  0  0  0  0  0  0  0  0
  153.9540  143.4392  161.7024 H   0  0  0  0  0  0  0  0  0  0  0  0
  155.1959  137.0307  163.5430 H   0  0  0  0  0  0  0  0  0  0  0  0
  155.6076  138.6635  163.0458 H   0  0  0  0  0  0  0  0  0  0  0  0
  156.5421  137.3071  162.4323 H   0  0  0  0  0  0  0  0  0  0  0  0
  1  2  1  0  0  0  0
  1 25  1  0  0  0  0
  1 26  1  0  0  0  0
  1 27  1  0  0  0  0
  2  3  1  0  0  0  0
  2 28  1  0  0  0  0
  2 29  1  0  0  0  0
  3  4  1  0  0  0  0
  4  5  1  0  0  0  0
  4 30  1  0  0  0  0
  4 31  1  0  0  0  0
  5  6  1  0  0  0  0
  5 32  1  0  0  0  0
  5 33  1  0  0  0  0
  6 17  1  0  0  0  0
  6  7  1  0  0  0  0
  7  8  1  0  0  0  0
  7 15  2  0  0  0  0
  8 14  1  0  0  0  0
  8  9  1  0  0  0  0
  9 10  1  0  0  0  0
  9 34  1  0  0  0  0
  9 35  1  0  0  0  0
 10 11  1  0  0  0  0
 10 36  1  0  0  0  0
 10 37  1  0  0  0  0
 11 12  1  0  0  0  0
 11 13  1  0  0  0  0
 11 38  1  0  0  0  0
 12 39  1  0  0  0  0
 12 40  1  0  0  0  0
 12 41  1  0  0  0  0
 13 14  1  0  0  0  0
 13 42  1  0  0  0  0
 13 43  1  0  0  0  0
 14 44  1  0  0  0  0
 14 45  1  0  0  0  0
 15 16  1  0  0  0  0
 16 23  1  0  0  0  0
 16 17  2  0  0  0  0
 17 18  1  0  0  0  0
 18 19  2  0  0  0  0
 18 20  1  0  0  0  0
 20 21  1  0  0  0  0
 21 22  2  0  0  0  0
 21 23  1  0  0  0  0
 23 24  1  0  0  0  0
 24 46  1  0  0  0  0
 24 47  1  0  0  0  0
 24 48  1  0  0  0  0
M  CHG  1  20  -1
M  END
> <s_m_source_file>
AV-unprocessed.smi

> <i_m_source_file_index>
540

> <i_lp_mmshare_version>
43012

> <i_f3d_flags>
0

> <s_epik_input>
W0NIM11uMWMoPU8pW25IXWMoPU8pYyhjMTIpbihbQ0gyXVtDSDJdT1tDSDJdW0NIM10pYyhuMilOM1tDSDJdW0NIMl1bQ0hdKFtDSDNdKVtDSDJdW0NIMl0z

> <s_epik_cmdline>
J2VwaWtfcHl0aG9uJywgJy1waCcsICc3LjAnLCAnLXRuJywgJzgnLCAnLW1hJywgJzIwMCcsICctbWV0YWxfYmluZGluZycsICctaW1hZScsICc8aW5maWxlLm1hZT4nLCAnLW9tYWUnLCAnPG91dGZpbGUubWFlPic=

> <r_lp_tautomer_probability>
1

> <r_epik_Ionization_Penalty>
5.11981

> <r_epik_Ionization_Penalty_Charging>
0.0737583

> <r_epik_Ionization_Penalty_Neutral>
5.04605

> <r_epik_State_Penalty>
5.03218

> <r_epik_Charging_Adjusted_Penalty>
5.10594

> <i_epik_Tot_Q>
-1

> <i_epik_Tot_abs_Q>
1

> <r_epik_Metal_State_Penalty>
1.14277

> <b_epik_Metal_Only>
1

> <s_lp_Force_Field>
OPLS_2005

> <r_lp_Energy>
41.1943

> <b_lp_Chiralities_Consistent>
1

> <s_lp_Variant>
AV-unprocessed.smi:540-2

> <Gold.Version>
5.8.1

> <Gold.Id.Protein>
6NUR|6NUR_protein|mol2

> <Gold.PLP.Fitness>
52.6117

> <Gold.PLP.PLP>
-48.2803

> <Gold.PLP.part.hbond>
-1.0000

> <Gold.PLP.part.metal>
0.0000

> <Gold.PLP.part.buried>
-3.3779

> <Gold.PLP.part.nonpolar>
-42.3955

> <Gold.PLP.part.repulsive>
0.0000

> <Gold.PLP.ligand.clash>
0.0000

> <Gold.PLP.ligand.torsion>
1.0984

> <Gold.PLP.Chemscore.Hbond>
2.0000

> <Gold.PLP.Chemscore.CHOScore>
0.0000

> <Gold.PLP.Chemscore.Metal>
0.0000

> <Gold.Chemscore.Hbonds>
donor molecule, donor type, donor heavy atom, donor atom, acceptor molecule, acceptor atom, score
      P1  H  6896  6908       L1    20  2.00

> <Gold.PLP.Chemscore.Internal.Correction>
0.5281

> <Gold.Rescore>
     Score         DG    S(hbond)    S(metal)    S(lipo)     H(rot)  DE(clash)    DE(int)     intcor
     14.18     -16.88       0.74        0.00     110.18       1.55       0.48       2.22       ----

> <Gold.Chemscore.Fitness>
14.1782

> <Gold.Chemscore.DG>
-16.8798

> <Gold.Chemscore.ZeroCoef>
-5.4800

> <Gold.Chemscore.Hbond>
0.7441

> <Gold.Chemscore.Metal>
0.0000

> <Gold.Chemscore.Lipo>
110.1821

> <Gold.Chemscore.Internal_Hbond>
0.0000

> <Gold.Chemscore.DEClash>
0.4815

> <Gold.Chemscore.DEInternal>
2.2202

> <Gold.Chemscore.Rot>
1.5534

> <Gold.Chemscore.Internal.Correction>
   9.000000E+99

> <Gold.Chemscore.Hbonds>
donor molecule, donor type, donor heavy atom, donor atom, acceptor molecule, acceptor atom, score
      P1  H  6896  6908       L1    20  0.65

> <Gold.Chemscore.Hbond.Weighted>
-2.4853

> <Gold.Chemscore.Metal.Weighted>
-0.0000

> <Gold.Chemscore.Lipo.Weighted>
-12.8913

> <Gold.Chemscore.Internal_Hbond.Weighted>
0.0000

> <Gold.Chemscore.DEClash.Weighted>
0.4815

> <Gold.Chemscore.DEInternal.Weighted>
2.2202

> <Gold.Chemscore.Rot.Weighted>
3.9768

> <Gold.Chemscore.Internal.Correction.Weighted>
   9.000000E+99

> <Gold.Protein.RotatedTorsions>
[ 6907 6896 6895 6894 ] final  -58.44 input  -60.11 | X-H torsion
[ 7974 7965 7964 7962 ] final   45.23 input  175.53 | X-H torsion
[ 8008 7997 7996 7995 ] final -103.38 input   59.86 | X-H torsion
[ 10167 10162 10161 10158 ] final   43.98 input  -65.29 | X-H torsion
[ 10718 10713 10712 10709 ] final -127.65 input   66.30 | X-H torsion
[ 10763 10752 10751 10750 ] final   95.15 input  -60.55 | X-H torsion
[ 11005 11000 10999 10996 ] final   34.18 input  -57.11 | X-H torsion

> <Gold.Protein.ActiveResidues>
 VAL166  LYS551  ARG553  GLY616  TRP617  ASP618  TYR619  PRO620  LYS621  CYS622 
 ASP623  PHE694  ASN695  SER759  ASP760  ASP761  ALA762  ILE779  LEU786  VAL792 
 PHE793  MET794  SER795  GLU796  ALA797  LYS798  CYS799  TRP800  GLU811  SER814 

> <Gold.Protein.RotatedAtoms>
  150.8007  134.7098  159.6596 H   0  0  0  0  0  0  0  0  0  0  0  0  # atno 6907 bound_to 6896
  152.4123  134.6099  160.0032 H   0  0  0  0  0  0  0  0  0  0  0  0  # atno 6908 bound_to 6896
  151.6339  133.3293  159.3151 H   0  0  0  0  0  0  0  0  0  0  0  0  # atno 6909 bound_to 6896
  146.0498  139.4987  142.9725 H   0  0  0  0  0  0  0  0  0  0  0  0  # atno 7974 bound_to 7965
  154.8701  140.0423  157.1719 H   0  0  0  0  0  0  0  0  0  0  0  0  # atno 8008 bound_to 7997
  154.8748  140.2963  155.5439 H   0  0  0  0  0  0  0  0  0  0  0  0  # atno 8009 bound_to 7997
  156.2999  140.2422  156.3742 H   0  0  0  0  0  0  0  0  0  0  0  0  # atno 8010 bound_to 7997
  140.3389  144.2495  150.6158 H   0  0  0  0  0  0  0  0  0  0  0  0  # atno 10167 bound_to 10162
  156.1876  130.6774  151.0384 H   0  0  0  0  0  0  0  0  0  0  0  0  # atno 10718 bound_to 10713
  153.2498  135.4264  155.0785 H   0  0  0  0  0  0  0  0  0  0  0  0  # atno 10763 bound_to 10752
  154.8377  135.3423  154.6529 H   0  0  0  0  0  0  0  0  0  0  0  0  # atno 10764 bound_to 10752
  153.6951  135.7031  153.5136 H   0  0  0  0  0  0  0  0  0  0  0  0  # atno 10765 bound_to 10752
  140.2555  134.3253  155.7875 H   0  0  0  0  0  0  0  0  0  0  0  0  # atno 11005 bound_to 11000
  145.6743  141.0208  143.1640 LP  0  0  0  0  0  0  0  0  0  0  0  0  # atno 17320 bound_to 7965
  144.7117  139.8347  143.7412 LP  0  0  0  0  0  0  0  0  0  0  0  0  # atno 17321 bound_to 7965
  140.5327  143.2240  151.8212 LP  0  0  0  0  0  0  0  0  0  0  0  0  # atno 17342 bound_to 10162
  139.4844  144.4699  151.9437 LP  0  0  0  0  0  0  0  0  0  0  0  0  # atno 17343 bound_to 10162
  157.6909  131.0810  150.7110 LP  0  0  0  0  0  0  0  0  0  0  0  0  # atno 17370 bound_to 10713
  156.7167  130.4668  149.5533 LP  0  0  0  0  0  0  0  0  0  0  0  0  # atno 17371 bound_to 10713
  141.2196  133.7378  156.9105 LP  0  0  0  0  0  0  0  0  0  0  0  0  # atno 17394 bound_to 11000
  140.1516  134.9226  157.2599 LP  0  0  0  0  0  0  0  0  0  0  0  0  # atno 17395 bound_to 11000

$$$$
