AV-unprocessed.smi:1824|AV-procd|sdf|7411|dock7
  -GOLD-   22720 9 83D 1   1.00000     0.00000
 Structure written by MMmdl.
 45 47  0  0  0  0  0  0  0  0  2 V2000
  148.8463  136.1373  159.5563 C   0  0  0  0  0  0  0  0  0  0  0  0
  149.1369  135.8865  158.0728 C   0  0  1  0  0  0  0  0  0  0  0  0
  150.1420  136.9031  157.5008 C   0  0  0  0  0  0  0  0  0  0  0  0
  150.4913  136.6075  156.1136 N   0  0  0  0  0  0  0  0  0  0  0  0
  151.4414  137.5692  155.5514 C   0  0  0  0  0  0  0  0  0  0  0  0
  151.0048  139.0463  155.6149 C   0  0  2  0  0  0  0  0  0  0  0  0
  150.9248  139.5414  154.2927 O   0  0  0  0  0  0  0  0  0  0  0  0
  152.0037  139.8951  156.4254 C   0  0  0  0  0  0  0  0  0  0  0  0
  151.4455  141.1884  156.8469 N   0  0  0  0  0  0  0  0  0  0  0  0
  150.5897  142.0192  156.1920 C   0  0  0  0  0  0  0  0  0  0  0  0
  150.3689  143.0977  156.9940 N   0  3  0  0  0  0  0  0  0  0  0  0
  151.0959  142.9554  158.1782 C   0  0  0  0  0  0  0  0  0  0  0  0
  151.1975  143.7848  159.2905 C   0  0  0  0  0  0  0  0  0  0  0  0
  152.0358  143.3454  160.3364 C   0  0  0  0  0  0  0  0  0  0  0  0
  152.1723  144.1153  161.4419 F   0  0  0  0  0  0  0  0  0  0  0  0
  152.7343  142.1223  160.2523 C   0  0  0  0  0  0  0  0  0  0  0  0
  153.5303  141.7385  161.2783 F   0  0  0  0  0  0  0  0  0  0  0  0
  152.6218  141.2893  159.1198 C   0  0  0  0  0  0  0  0  0  0  0  0
  151.7907  141.7309  158.0907 C   0  0  0  0  0  0  0  0  0  0  0  0
  151.0239  135.2509  156.0414 C   0  0  0  0  0  0  0  0  0  0  0  0
  150.0586  134.1977  156.6204 C   0  0  2  0  0  0  0  0  0  0  0  0
  148.8441  133.9210  155.7173 C   0  0  0  0  0  0  0  0  0  0  0  0
  149.6643  134.5677  157.9424 O   0  0  0  0  0  0  0  0  0  0  0  0
  148.4236  137.1303  159.7109 H   0  0  0  0  0  0  0  0  0  0  0  0
  149.7549  136.0627  160.1545 H   0  0  0  0  0  0  0  0  0  0  0  0
  148.1326  135.4088  159.9422 H   0  0  0  0  0  0  0  0  0  0  0  0
  148.1974  135.9557  157.5236 H   0  0  0  0  0  0  0  0  0  0  0  0
  149.7046  137.8971  157.5800 H   0  0  0  0  0  0  0  0  0  0  0  0
  151.0442  136.9091  158.1146 H   0  0  0  0  0  0  0  0  0  0  0  0
  152.4018  137.4557  156.0569 H   0  0  0  0  0  0  0  0  0  0  0  0
  151.6295  137.3205  154.5056 H   0  0  0  0  0  0  0  0  0  0  0  0
  150.0231  139.1436  156.0767 H   0  0  0  0  0  0  0  0  0  0  0  0
  150.0260  139.4760  154.0065 H   0  0  0  0  0  0  0  0  0  0  0  0
  152.2909  139.3612  157.3323 H   0  0  0  0  0  0  0  0  0  0  0  0
  152.9254  140.0645  155.8685 H   0  0  0  0  0  0  0  0  0  0  0  0
  150.1635  141.8532  155.2129 H   0  0  0  0  0  0  0  0  0  0  0  0
  150.6658  144.7223  159.3591 H   0  0  0  0  0  0  0  0  0  0  0  0
  153.1674  140.3592  159.0644 H   0  0  0  0  0  0  0  0  0  0  0  0
  151.2602  134.9963  155.0073 H   0  0  0  0  0  0  0  0  0  0  0  0
  151.9655  135.2029  156.5908 H   0  0  0  0  0  0  0  0  0  0  0  0
  150.6045  133.2587  156.7154 H   0  0  0  0  0  0  0  0  0  0  0  0
  149.1614  133.5275  154.7514 H   0  0  0  0  0  0  0  0  0  0  0  0
  148.2612  134.8218  155.5256 H   0  0  0  0  0  0  0  0  0  0  0  0
  148.1814  133.1847  156.1723 H   0  0  0  0  0  0  0  0  0  0  0  0
  149.7670  143.8731  156.7471 H   0  0  0  0  0  0  0  0  0  0  0  0
  1  2  1  0  0  0  0
  1 24  1  0  0  0  0
  1 25  1  0  0  0  0
  1 26  1  0  0  0  0
  2 23  1  0  0  0  0
  2  3  1  0  0  0  0
  2 27  1  0  0  0  0
  3  4  1  0  0  0  0
  3 28  1  0  0  0  0
  3 29  1  0  0  0  0
  4  5  1  0  0  0  0
  4 20  1  0  0  0  0
  5  6  1  0  0  0  0
  5 30  1  0  0  0  0
  5 31  1  0  0  0  0
  6  7  1  0  0  0  0
  6  8  1  0  0  0  0
  6 32  1  0  0  0  0
  7 33  1  0  0  0  0
  8  9  1  0  0  0  0
  8 34  1  0  0  0  0
  8 35  1  0  0  0  0
  9 19  1  0  0  0  0
  9 10  1  0  0  0  0
 10 11  2  0  0  0  0
 10 36  1  0  0  0  0
 11 12  1  0  0  0  0
 11 45  1  0  0  0  0
 12 19  2  0  0  0  0
 12 13  1  0  0  0  0
 13 14  2  0  0  0  0
 13 37  1  0  0  0  0
 14 15  1  0  0  0  0
 14 16  1  0  0  0  0
 16 17  1  0  0  0  0
 16 18  2  0  0  0  0
 18 19  1  0  0  0  0
 18 38  1  0  0  0  0
 20 21  1  0  0  0  0
 20 39  1  0  0  0  0
 20 40  1  0  0  0  0
 21 22  1  0  0  0  0
 21 23  1  0  0  0  0
 21 41  1  0  0  0  0
 22 42  1  0  0  0  0
 22 43  1  0  0  0  0
 22 44  1  0  0  0  0
M  CHG  1  11   1
M  END
> <s_m_source_file>
AV-unprocessed.smi

> <i_m_source_file_index>
1824

> <i_lp_mmshare_version>
43012

> <i_f3d_flags>
0

> <s_epik_input>
W0NIM11bQ0BASF0xW0NIMl1OKFtDSDJdW0NASF0oTzEpW0NIM10pW0NIMl1bQ0BIXShbT0hdKVtDSDJdbihbY0hdbjIpYyhjMjMpW2NIXWMoRiljKEYpW2NIXTM=

> <s_epik_cmdline>
J2VwaWtfcHl0aG9uJywgJy1waCcsICc3LjAnLCAnLXRuJywgJzgnLCAnLW1hJywgJzIwMCcsICctbWV0YWxfYmluZGluZycsICctaW1hZScsICc8aW5maWxlLm1hZT4nLCAnLW9tYWUnLCAnPG91dGZpbGUubWFlPic=

> <r_epik_Ionization_Penalty>
2.58709

> <r_epik_Ionization_Penalty_Charging>
2.37273

> <r_epik_Ionization_Penalty_Neutral>
0.214359

> <r_epik_State_Penalty>
2.71799

> <r_epik_Charging_Adjusted_Penalty>
5.09071

> <i_epik_Tot_Q>
1

> <i_epik_Tot_abs_Q>
1

> <r_epik_Metal_State_Penalty>
6.80217

> <b_epik_Metal_Only>
0

> <s_lp_Force_Field>
OPLS_2005

> <r_lp_Energy>
35.2196

> <b_lp_Chiralities_Consistent>
1

> <s_lp_Variant>
AV-unprocessed.smi:1824-19

> <Gold.Version>
5.8.1

> <Gold.Id.Protein>
6NUR|6NUR_protein|mol2

> <Gold.PLP.Fitness>
53.1764

> <Gold.PLP.PLP>
-43.5847

> <Gold.PLP.part.hbond>
-3.0000

> <Gold.PLP.part.metal>
0.0000

> <Gold.PLP.part.buried>
-5.4875

> <Gold.PLP.part.nonpolar>
-35.5056

> <Gold.PLP.part.repulsive>
0.0509

> <Gold.PLP.ligand.clash>
0.0000

> <Gold.PLP.ligand.torsion>
1.2341

> <Gold.PLP.Chemscore.Hbond>
4.0000

> <Gold.PLP.Chemscore.CHOScore>
0.0000

> <Gold.PLP.Chemscore.Metal>
0.0000

> <Gold.Chemscore.Hbonds>
donor molecule, donor type, donor heavy atom, donor atom, acceptor molecule, acceptor atom, score
      L1  H    11    45       P1  8028  2.00
      P1  H  6896  6909       L1    23  1.00
      P1  H  7989  7998       L1     7  1.00

> <Gold.PLP.Chemscore.Internal.Correction>
0.0598

> <Gold.Rescore>
     Score         DG    S(hbond)    S(metal)    S(lipo)     H(rot)  DE(clash)    DE(int)     intcor
     18.75     -20.03       2.73        0.00      97.21       2.32       0.04       1.24       ----

> <Gold.Chemscore.Fitness>
18.7465

> <Gold.Chemscore.DG>
-20.0298

> <Gold.Chemscore.ZeroCoef>
-5.4800

> <Gold.Chemscore.Hbond>
2.7297

> <Gold.Chemscore.Metal>
0.0000

> <Gold.Chemscore.Lipo>
97.2148

> <Gold.Chemscore.Internal_Hbond>
0.0000

> <Gold.Chemscore.DEClash>
0.0422

> <Gold.Chemscore.DEInternal>
1.2411

> <Gold.Chemscore.Rot>
2.3210

> <Gold.Chemscore.Internal.Correction>
   9.000000E+99

> <Gold.Chemscore.Hbonds>
donor molecule, donor type, donor heavy atom, donor atom, acceptor molecule, acceptor atom, score
      L1  H    11    45       P1  8028  0.95
      P1  H  6896  6909       L1    23  0.83
      P1  H  7989  7998       L1     7  0.65

> <Gold.Chemscore.Hbond.Weighted>
-9.1173

> <Gold.Chemscore.Metal.Weighted>
-0.0000

> <Gold.Chemscore.Lipo.Weighted>
-11.3741

> <Gold.Chemscore.Internal_Hbond.Weighted>
0.0000

> <Gold.Chemscore.DEClash.Weighted>
0.0422

> <Gold.Chemscore.DEInternal.Weighted>
1.2411

> <Gold.Chemscore.Rot.Weighted>
5.9416

> <Gold.Chemscore.Internal.Correction.Weighted>
   9.000000E+99

> <Gold.Protein.RotatedTorsions>
[ 6907 6896 6895 6894 ] final   15.91 input  -60.11 | X-H torsion
[ 7974 7965 7964 7962 ] final   15.37 input  175.53 | X-H torsion
[ 8008 7997 7996 7995 ] final   10.13 input   59.86 | X-H torsion
[ 10167 10162 10161 10158 ] final  -39.53 input  -65.29 | X-H torsion
[ 10718 10713 10712 10709 ] final   69.21 input   66.30 | X-H torsion
[ 10763 10752 10751 10750 ] final   54.73 input  -60.55 | X-H torsion
[ 11005 11000 10999 10996 ] final -112.27 input  -57.11 | X-H torsion

> <Gold.Protein.ActiveResidues>
 VAL166  LYS551  ARG553  GLY616  TRP617  ASP618  TYR619  PRO620  LYS621  CYS622 
 ASP623  PHE694  ASN695  SER759  ASP760  ASP761  ALA762  ILE779  LEU786  VAL792 
 PHE793  MET794  SER795  GLU796  ALA797  LYS798  CYS799  TRP800  GLU811  SER814 

> <Gold.Protein.RotatedAtoms>
  151.8256  135.0638  160.0430 H   0  0  0  0  0  0  0  0  0  0  0  0  # atno 6907 bound_to 6896
  152.2918  133.5565  159.5571 H   0  0  0  0  0  0  0  0  0  0  0  0  # atno 6908 bound_to 6896
  150.7233  134.0333  159.3783 H   0  0  0  0  0  0  0  0  0  0  0  0  # atno 6909 bound_to 6896
  146.2280  139.8904  142.8556 H   0  0  0  0  0  0  0  0  0  0  0  0  # atno 7974 bound_to 7965
  154.7892  140.2832  155.6004 H   0  0  0  0  0  0  0  0  0  0  0  0  # atno 8008 bound_to 7997
  156.2962  140.2608  156.2665 H   0  0  0  0  0  0  0  0  0  0  0  0  # atno 8009 bound_to 7997
  154.9690  140.0376  157.2215 H   0  0  0  0  0  0  0  0  0  0  0  0  # atno 8010 bound_to 7997
  140.7061  143.3209  151.2795 H   0  0  0  0  0  0  0  0  0  0  0  0  # atno 10167 bound_to 10162
  157.6333  130.9414  150.0483 H   0  0  0  0  0  0  0  0  0  0  0  0  # atno 10718 bound_to 10713
  152.9808  135.5735  154.4952 H   0  0  0  0  0  0  0  0  0  0  0  0  # atno 10763 bound_to 10752
  154.4480  135.2777  155.1803 H   0  0  0  0  0  0  0  0  0  0  0  0  # atno 10764 bound_to 10752
  154.3443  135.6223  153.5665 H   0  0  0  0  0  0  0  0  0  0  0  0  # atno 10765 bound_to 10752
  141.0685  133.9419  157.2532 H   0  0  0  0  0  0  0  0  0  0  0  0  # atno 11005 bound_to 11000
  145.2423  141.0014  143.3928 LP  0  0  0  0  0  0  0  0  0  0  0  0  # atno 17320 bound_to 7965
  144.9442  139.4155  143.6434 LP  0  0  0  0  0  0  0  0  0  0  0  0  # atno 17321 bound_to 7965
  139.6662  144.0100  152.2724 LP  0  0  0  0  0  0  0  0  0  0  0  0  # atno 17342 bound_to 10162
  139.9684  144.6510  150.8012 LP  0  0  0  0  0  0  0  0  0  0  0  0  # atno 17343 bound_to 10162
  156.1553  130.3643  149.9378 LP  0  0  0  0  0  0  0  0  0  0  0  0  # atno 17370 bound_to 10713
  156.7388  130.9071  151.3631 LP  0  0  0  0  0  0  0  0  0  0  0  0  # atno 17371 bound_to 10713
  139.9500  135.0177  156.8965 LP  0  0  0  0  0  0  0  0  0  0  0  0  # atno 17394 bound_to 11000
  140.5723  134.0431  155.7435 LP  0  0  0  0  0  0  0  0  0  0  0  0  # atno 17395 bound_to 11000

$$$$
