AV-unprocessed.smi:774|AV-procd|sdf|3692|dock10
  -GOLD-   22720 1113D 1   1.00000     0.00000
 Structure written by MMmdl.
 37 38  0  0  0  0  0  0  0  0  1 V2000
  145.7551  132.0544  149.6487 C   0  0  0  0  0  0  0  0  0  0  0  0
  144.3948  132.5678  150.1281 C   0  0  0  0  0  0  0  0  0  0  0  0
  144.4338  133.0104  151.8865 S   0  0  0  0  0  0  0  0  0  0  0  0
  144.1803  134.8058  151.7760 C   0  0  1  0  0  0  0  0  0  0  0  0
  144.0514  135.4627  153.1483 C   0  0  0  0  0  0  0  0  0  0  0  0
  144.3495  136.9386  152.8842 C   0  0  0  0  0  0  0  0  0  0  0  0
  145.3591  136.9614  151.7227 C   0  0  1  0  0  0  0  0  0  0  0  0
  146.6937  137.3140  152.2038 N   0  0  0  0  0  0  0  0  0  0  0  0
  146.9802  138.2856  153.0822 C   0  0  0  0  0  0  0  0  0  0  0  0
  146.1274  139.0010  153.6051 O   0  0  0  0  0  0  0  0  0  0  0  0
  148.3050  138.3568  153.3007 N   0  0  0  0  0  0  0  0  0  0  0  0
  149.0451  139.2614  154.1126 C   0  0  0  0  0  0  0  0  0  0  0  0
  148.3342  140.3203  154.7151 C   0  0  0  0  0  0  0  0  0  0  0  0
  149.0224  141.2370  155.5320 C   0  0  0  0  0  0  0  0  0  0  0  0
  150.4065  141.0591  155.7171 C   0  0  0  0  0  0  0  0  0  0  0  0
  151.1047  140.0542  155.1489 N   0  0  0  0  0  0  0  0  0  0  0  0
  150.4381  139.1780  154.3661 C   0  0  0  0  0  0  0  0  0  0  0  0
  145.3534  135.5430  151.1205 C   0  0  0  0  0  0  0  0  0  0  0  0
  145.7195  131.7871  148.5924 H   0  0  0  0  0  0  0  0  0  0  0  0
  146.0599  131.1681  150.2057 H   0  0  0  0  0  0  0  0  0  0  0  0
  146.5279  132.8132  149.7744 H   0  0  0  0  0  0  0  0  0  0  0  0
  144.1024  133.4416  149.5457 H   0  0  0  0  0  0  0  0  0  0  0  0
  143.6318  131.8051  149.9720 H   0  0  0  0  0  0  0  0  0  0  0  0
  143.2692  134.9999  151.2081 H   0  0  0  0  0  0  0  0  0  0  0  0
  143.0703  135.3078  153.5983 H   0  0  0  0  0  0  0  0  0  0  0  0
  144.7998  135.0568  153.8305 H   0  0  0  0  0  0  0  0  0  0  0  0
  143.4318  137.4386  152.5710 H   0  0  0  0  0  0  0  0  0  0  0  0
  144.7040  137.4532  153.7783 H   0  0  0  0  0  0  0  0  0  0  0  0
  145.0149  137.6724  150.9695 H   0  0  0  0  0  0  0  0  0  0  0  0
  147.4614  136.7744  151.8313 H   0  0  0  0  0  0  0  0  0  0  0  0
  148.8640  137.6815  152.8002 H   0  0  0  0  0  0  0  0  0  0  0  0
  147.2712  140.4311  154.5568 H   0  0  0  0  0  0  0  0  0  0  0  0
  148.5016  142.0558  156.0058 H   0  0  0  0  0  0  0  0  0  0  0  0
  150.9673  141.7413  156.3388 H   0  0  0  0  0  0  0  0  0  0  0  0
  151.0601  138.4030  153.9496 H   0  0  0  0  0  0  0  0  0  0  0  0
  146.2864  135.0258  151.3515 H   0  0  0  0  0  0  0  0  0  0  0  0
  145.2613  135.5646  150.0342 H   0  0  0  0  0  0  0  0  0  0  0  0
  1  2  1  0  0  0  0
  1 19  1  0  0  0  0
  1 20  1  0  0  0  0
  1 21  1  0  0  0  0
  2  3  1  0  0  0  0
  2 22  1  0  0  0  0
  2 23  1  0  0  0  0
  3  4  1  0  0  0  0
  4 18  1  0  0  0  0
  4  5  1  0  0  0  0
  4 24  1  0  0  0  0
  5  6  1  0  0  0  0
  5 25  1  0  0  0  0
  5 26  1  0  0  0  0
  6  7  1  0  0  0  0
  6 27  1  0  0  0  0
  6 28  1  0  0  0  0
  7  8  1  0  0  0  0
  7 18  1  0  0  0  0
  7 29  1  0  0  0  0
  8  9  1  0  0  0  0
  8 30  1  0  0  0  0
  9 10  2  0  0  0  0
  9 11  1  0  0  0  0
 11 12  1  0  0  0  0
 11 31  1  0  0  0  0
 12 17  1  0  0  0  0
 12 13  2  0  0  0  0
 13 14  1  0  0  0  0
 13 32  1  0  0  0  0
 14 15  2  0  0  0  0
 14 33  1  0  0  0  0
 15 16  1  0  0  0  0
 15 34  1  0  0  0  0
 16 17  2  0  0  0  0
 17 35  1  0  0  0  0
 18 36  1  0  0  0  0
 18 37  1  0  0  0  0
M  END
> <s_m_source_file>
AV-unprocessed.smi

> <i_m_source_file_index>
774

> <i_lp_mmshare_version>
43012

> <i_f3d_flags>
0

> <s_epik_input>
W0NIM11bQ0gyXVNbQ0BASF0xW0NIMl1bQ0gyXVtDQEhdKFtDSDJdMSlbTkhdQyg9TylbTkhdYzJbY0hdW2NIXVtjSF1uW2NIXTI=

> <s_epik_cmdline>
J2VwaWtfcHl0aG9uJywgJy1waCcsICc3LjAnLCAnLXRuJywgJzgnLCAnLW1hJywgJzIwMCcsICctbWV0YWxfYmluZGluZycsICctaW1hZScsICc8aW5maWxlLm1hZT4nLCAnLW9tYWUnLCAnPG91dGZpbGUubWFlPic=

> <r_epik_Ionization_Penalty>
0.00485718

> <r_epik_Ionization_Penalty_Charging>
0

> <r_epik_Ionization_Penalty_Neutral>
0.00485718

> <r_epik_State_Penalty>
0.00349461

> <r_epik_Charging_Adjusted_Penalty>
0.00349461

> <i_epik_Tot_Q>
0

> <i_epik_Tot_abs_Q>
0

> <r_epik_Metal_State_Penalty>
-0

> <b_epik_Metal_Only>
0

> <s_lp_Force_Field>
OPLS_2005

> <r_lp_Energy>
20.4228

> <b_lp_Chiralities_Consistent>
1

> <s_lp_Variant>
AV-unprocessed.smi:774-2

> <Gold.Version>
5.8.1

> <Gold.Id.Protein>
6NUR|6NUR_protein|mol2

> <Gold.PLP.Fitness>
39.7558

> <Gold.PLP.PLP>
-34.1212

> <Gold.PLP.part.hbond>
-3.9646

> <Gold.PLP.part.metal>
0.0000

> <Gold.PLP.part.buried>
0.6641

> <Gold.PLP.part.nonpolar>
-32.0190

> <Gold.PLP.part.repulsive>
1.6404

> <Gold.PLP.ligand.clash>
0.0000

> <Gold.PLP.ligand.torsion>
0.6316

> <Gold.PLP.Chemscore.Hbond>
2.2975

> <Gold.PLP.Chemscore.CHOScore>
0.0000

> <Gold.PLP.Chemscore.Metal>
0.0000

> <Gold.Chemscore.Hbonds>
donor molecule, donor type, donor heavy atom, donor atom, acceptor molecule, acceptor atom, score
      L1  H     8    30       P1  7948  1.00
      L1  H    11    31       P1  7948  1.00
      P1  H  7989  7998       L1    16  0.25

> <Gold.PLP.Chemscore.Internal.Correction>
0.0054

> <Gold.Rescore>
     Score         DG    S(hbond)    S(metal)    S(lipo)     H(rot)  DE(clash)    DE(int)     intcor
     14.47     -18.05       1.95        0.00      80.19       1.30       0.17       3.40       ----

> <Gold.Chemscore.Fitness>
14.4733

> <Gold.Chemscore.DG>
-18.0468

> <Gold.Chemscore.ZeroCoef>
-5.4800

> <Gold.Chemscore.Hbond>
1.9528

> <Gold.Chemscore.Metal>
0.0000

> <Gold.Chemscore.Lipo>
80.1943

> <Gold.Chemscore.Internal_Hbond>
0.0000

> <Gold.Chemscore.DEClash>
0.1702

> <Gold.Chemscore.DEInternal>
3.4033

> <Gold.Chemscore.Rot>
1.3041

> <Gold.Chemscore.Internal.Correction>
   9.000000E+99

> <Gold.Chemscore.Hbonds>
donor molecule, donor type, donor heavy atom, donor atom, acceptor molecule, acceptor atom, score
      L1  H     8    30       P1  7948  0.94
      L1  H    11    31       P1  7948  0.95

> <Gold.Chemscore.Hbond.Weighted>
-6.5225

> <Gold.Chemscore.Metal.Weighted>
-0.0000

> <Gold.Chemscore.Lipo.Weighted>
-9.3827

> <Gold.Chemscore.Internal_Hbond.Weighted>
0.0000

> <Gold.Chemscore.DEClash.Weighted>
0.1702

> <Gold.Chemscore.DEInternal.Weighted>
3.4033

> <Gold.Chemscore.Rot.Weighted>
3.3384

> <Gold.Chemscore.Internal.Correction.Weighted>
   9.000000E+99

> <Gold.Protein.RotatedTorsions>
[ 6907 6896 6895 6894 ] final  157.86 input  -60.11 | X-H torsion
[ 7974 7965 7964 7962 ] final  152.24 input  175.53 | X-H torsion
[ 8008 7997 7996 7995 ] final   30.65 input   59.86 | X-H torsion
[ 10167 10162 10161 10158 ] final   36.37 input  -65.29 | X-H torsion
[ 10718 10713 10712 10709 ] final -144.54 input   66.30 | X-H torsion
[ 10763 10752 10751 10750 ] final  179.75 input  -60.55 | X-H torsion
[ 11005 11000 10999 10996 ] final   62.05 input  -57.11 | X-H torsion

> <Gold.Protein.ActiveResidues>
 VAL166  LYS551  ARG553  GLY616  TRP617  ASP618  TYR619  PRO620  LYS621  CYS622 
 ASP623  PHE694  ASN695  SER759  ASP760  ASP761  ALA762  ILE779  LEU786  VAL792 
 PHE793  MET794  SER795  GLU796  ALA797  LYS798  CYS799  TRP800  GLU811  SER814 

> <Gold.Protein.RotatedAtoms>
  152.0089  133.3854  159.4211 H   0  0  0  0  0  0  0  0  0  0  0  0  # atno 6907 bound_to 6896
  150.6901  134.3752  159.5019 H   0  0  0  0  0  0  0  0  0  0  0  0  # atno 6908 bound_to 6896
  152.1510  134.8988  160.0598 H   0  0  0  0  0  0  0  0  0  0  0  0  # atno 6909 bound_to 6896
  144.8236  139.6642  143.6089 H   0  0  0  0  0  0  0  0  0  0  0  0  # atno 7974 bound_to 7965
  155.0938  140.3222  155.4566 H   0  0  0  0  0  0  0  0  0  0  0  0  # atno 8008 bound_to 7997
  156.2735  140.2073  156.6011 H   0  0  0  0  0  0  0  0  0  0  0  0  # atno 8009 bound_to 7997
  154.6883  140.0519  157.0324 H   0  0  0  0  0  0  0  0  0  0  0  0  # atno 8010 bound_to 7997
  140.4134  144.1561  150.6141 H   0  0  0  0  0  0  0  0  0  0  0  0  # atno 10167 bound_to 10162
  156.3714  130.7789  151.1971 H   0  0  0  0  0  0  0  0  0  0  0  0  # atno 10718 bound_to 10713
  154.5247  135.2796  155.1232 H   0  0  0  0  0  0  0  0  0  0  0  0  # atno 10763 bound_to 10752
  154.2776  135.6291  153.5338 H   0  0  0  0  0  0  0  0  0  0  0  0  # atno 10764 bound_to 10752
  152.9944  135.5643  154.5745 H   0  0  0  0  0  0  0  0  0  0  0  0  # atno 10765 bound_to 10752
  140.0119  134.6284  155.9768 H   0  0  0  0  0  0  0  0  0  0  0  0  # atno 11005 bound_to 11000
  146.2542  139.6265  142.9406 LP  0  0  0  0  0  0  0  0  0  0  0  0  # atno 17320 bound_to 7965
  145.5050  141.0437  143.2519 LP  0  0  0  0  0  0  0  0  0  0  0  0  # atno 17321 bound_to 7965
  140.4613  143.2448  151.9216 LP  0  0  0  0  0  0  0  0  0  0  0  0  # atno 17342 bound_to 10162
  139.4782  144.5464  151.8451 LP  0  0  0  0  0  0  0  0  0  0  0  0  # atno 17343 bound_to 10162
  157.7484  131.0371  150.4441 LP  0  0  0  0  0  0  0  0  0  0  0  0  # atno 17370 bound_to 10713
  156.4668  130.4044  149.6542 LP  0  0  0  0  0  0  0  0  0  0  0  0  # atno 17371 bound_to 10713
  141.1716  133.6538  156.4674 LP  0  0  0  0  0  0  0  0  0  0  0  0  # atno 17394 bound_to 11000
  140.4540  134.6903  157.5053 LP  0  0  0  0  0  0  0  0  0  0  0  0  # atno 17395 bound_to 11000

$$$$
