AV-unprocessed.smi:1492|AV-procd|sdf|6042|dock6
  -GOLD-   22720 6153D 1   1.00000     0.00000
 Structure written by MMmdl.
 53 54  0  0  0  0  0  0  0  0  2 V2000
  142.9608  136.1139  153.1942 C   0  0  0  0  0  0  0  0  0  0  0  0
  143.5458  135.1138  154.2104 C   0  0  0  0  0  0  0  0  0  0  0  0
  144.8589  134.3580  153.8154 C   0  0  1  0  0  0  0  0  0  0  0  0
  145.8394  135.3700  153.1718 C   0  0  0  0  0  0  0  0  0  0  0  0
  145.5256  133.7683  155.1000 C   0  0  0  0  0  0  0  0  0  0  0  0
  146.1634  134.7944  155.9227 N   0  0  0  0  0  0  0  0  0  0  0  0
  147.0132  134.5873  156.9398 C   0  0  0  0  0  0  0  0  0  0  0  0
  147.2594  133.4762  157.4042 O   0  0  0  0  0  0  0  0  0  0  0  0
  147.7219  135.8213  157.5050 C   0  0  0  0  0  0  0  0  0  0  0  0
  147.5637  136.0538  159.0088 C   0  0  0  0  0  0  0  0  0  0  0  0
  146.3754  135.9539  159.6572 C   0  0  0  0  0  0  0  0  0  0  0  0
  145.0623  135.5883  158.9888 C   0  0  0  0  0  0  0  0  0  0  0  0
  146.2797  136.1961  161.0163 N   0  0  0  0  0  0  0  0  0  0  0  0
  147.4317  136.5629  161.6922 C   0  0  0  0  0  0  0  0  0  0  0  0
  147.2137  136.8269  163.1656 C   0  0  0  0  0  0  0  0  0  0  0  0
  148.6080  136.6954  161.1596 N   0  0  0  0  0  0  0  0  0  0  0  0
  148.7611  136.4507  159.7860 C   0  0  0  0  0  0  0  0  0  0  0  0
  149.8602  136.5811  159.2490 O   0  0  0  0  0  0  0  0  0  0  0  0
  144.5347  133.2335  152.8527 N   0  3  0  0  0  0  0  0  0  0  0  0
  143.9535  133.6274  151.5362 C   0  0  0  0  0  0  0  0  0  0  0  0
  143.5353  132.3896  150.7232 C   0  0  0  0  0  0  0  0  0  0  0  0
  144.6406  131.5153  150.5554 O   0  0  0  0  0  0  0  0  0  0  0  0
  145.1298  131.0501  151.8035 C   0  0  0  0  0  0  0  0  0  0  0  0
  145.6291  132.2428  152.6322 C   0  0  0  0  0  0  0  0  0  0  0  0
  145.3788  136.0979  161.4629 H   0  0  0  0  0  0  0  0  0  0  0  0
  142.0268  136.5274  153.5749 H   0  0  0  0  0  0  0  0  0  0  0  0
  142.7304  135.6421  152.2399 H   0  0  0  0  0  0  0  0  0  0  0  0
  143.6177  136.9596  153.0036 H   0  0  0  0  0  0  0  0  0  0  0  0
  143.6923  135.6315  155.1593 H   0  0  0  0  0  0  0  0  0  0  0  0
  142.7448  134.3959  154.3795 H   0  0  0  0  0  0  0  0  0  0  0  0
  146.1096  136.1628  153.8684 H   0  0  0  0  0  0  0  0  0  0  0  0
  145.4118  135.8480  152.2905 H   0  0  0  0  0  0  0  0  0  0  0  0
  146.7792  134.9065  152.8744 H   0  0  0  0  0  0  0  0  0  0  0  0
  144.7765  133.2834  155.7252 H   0  0  0  0  0  0  0  0  0  0  0  0
  146.2206  132.9625  154.8673 H   0  0  0  0  0  0  0  0  0  0  0  0
  146.0027  135.7521  155.6469 H   0  0  0  0  0  0  0  0  0  0  0  0
  148.7777  135.7386  157.2482 H   0  0  0  0  0  0  0  0  0  0  0  0
  147.3731  136.7057  156.9695 H   0  0  0  0  0  0  0  0  0  0  0  0
  144.8430  136.2795  158.1745 H   0  0  0  0  0  0  0  0  0  0  0  0
  144.2286  135.6241  159.6914 H   0  0  0  0  0  0  0  0  0  0  0  0
  145.1121  134.5783  158.5815 H   0  0  0  0  0  0  0  0  0  0  0  0
  148.1386  137.1500  163.6452 H   0  0  0  0  0  0  0  0  0  0  0  0
  146.8672  135.9225  163.6665 H   0  0  0  0  0  0  0  0  0  0  0  0
  146.4674  137.6097  163.3050 H   0  0  0  0  0  0  0  0  0  0  0  0
  143.0567  134.2315  151.6530 H   0  0  0  0  0  0  0  0  0  0  0  0
  144.6745  134.2164  150.9688 H   0  0  0  0  0  0  0  0  0  0  0  0
  142.7136  131.8645  151.2108 H   0  0  0  0  0  0  0  0  0  0  0  0
  143.1748  132.6928  149.7401 H   0  0  0  0  0  0  0  0  0  0  0  0
  144.3546  130.5006  152.3372 H   0  0  0  0  0  0  0  0  0  0  0  0
  145.9465  130.3513  151.6222 H   0  0  0  0  0  0  0  0  0  0  0  0
  146.4625  132.7092  152.1071 H   0  0  0  0  0  0  0  0  0  0  0  0
  146.0180  131.8545  153.5711 H   0  0  0  0  0  0  0  0  0  0  0  0
  143.7985  132.7172  153.3127 H   0  0  0  0  0  0  0  0  0  0  0  0
  1  2  1  0  0  0  0
  1 26  1  0  0  0  0
  1 27  1  0  0  0  0
  1 28  1  0  0  0  0
  2  3  1  0  0  0  0
  2 29  1  0  0  0  0
  2 30  1  0  0  0  0
  3  4  1  0  0  0  0
  3  5  1  0  0  0  0
  3 19  1  0  0  0  0
  4 31  1  0  0  0  0
  4 32  1  0  0  0  0
  4 33  1  0  0  0  0
  5  6  1  0  0  0  0
  5 34  1  0  0  0  0
  5 35  1  0  0  0  0
  6  7  1  0  0  0  0
  6 36  1  0  0  0  0
  7  8  2  0  0  0  0
  7  9  1  0  0  0  0
  9 37  1  0  0  0  0
  9 38  1  0  0  0  0
  9 10  1  0  0  0  0
 10 17  1  0  0  0  0
 10 11  2  0  0  0  0
 11 12  1  0  0  0  0
 11 13  1  0  0  0  0
 12 39  1  0  0  0  0
 12 40  1  0  0  0  0
 12 41  1  0  0  0  0
 13 25  1  0  0  0  0
 13 14  1  0  0  0  0
 14 15  1  0  0  0  0
 14 16  2  0  0  0  0
 15 42  1  0  0  0  0
 15 43  1  0  0  0  0
 15 44  1  0  0  0  0
 16 17  1  0  0  0  0
 17 18  2  0  0  0  0
 19 24  1  0  0  0  0
 19 20  1  0  0  0  0
 19 53  1  0  0  0  0
 20 21  1  0  0  0  0
 20 45  1  0  0  0  0
 20 46  1  0  0  0  0
 21 22  1  0  0  0  0
 21 47  1  0  0  0  0
 21 48  1  0  0  0  0
 22 23  1  0  0  0  0
 23 24  1  0  0  0  0
 23 49  1  0  0  0  0
 23 50  1  0  0  0  0
 24 51  1  0  0  0  0
 24 52  1  0  0  0  0
M  CHG  1  19   1
M  END
> <s_m_source_file>
AV-unprocessed.smi

> <i_m_source_file_index>
1492

> <i_lp_mmshare_version>
43012

> <i_f3d_flags>
0

> <s_epik_input>
W0NIMl0xW0NIMl1PW0NIMl1bQ0gyXU4xW0NAQF0oW0NIM10pKFtDSDJdW0NIM10pW0NIMl1bTkhdQyg9TylbQ0gyXWMyYyhbQ0gzXSluYyhbQ0gzXSlbbkhdYzI9Tw==

> <s_epik_cmdline>
J2VwaWtfcHl0aG9uJywgJy1waCcsICc3LjAnLCAnLXRuJywgJzgnLCAnLW1hJywgJzIwMCcsICctbWV0YWxfYmluZGluZycsICctaW1hZScsICc8aW5maWxlLm1hZT4nLCAnLW9tYWUnLCAnPG91dGZpbGUubWFlPic=

> <r_lp_tautomer_probability>
0.156392

> <r_epik_Ionization_Penalty>
0.523233

> <r_epik_Ionization_Penalty_Charging>
0.523147

> <r_epik_Ionization_Penalty_Neutral>
8.52784e-05

> <r_epik_State_Penalty>
1.66677

> <r_epik_Charging_Adjusted_Penalty>
2.18991

> <i_epik_Tot_Q>
1

> <i_epik_Tot_abs_Q>
1

> <r_epik_Metal_State_Penalty>
1.84524

> <b_epik_Metal_Only>
0

> <s_lp_Force_Field>
OPLS_2005

> <r_lp_Energy>
37.6543

> <b_lp_Chiralities_Consistent>
1

> <s_lp_Variant>
AV-unprocessed.smi:1492-7

> <Gold.Version>
5.8.1

> <Gold.Id.Protein>
6NUR|6NUR_protein|mol2

> <Gold.PLP.Fitness>
37.9170

> <Gold.PLP.PLP>
-27.2937

> <Gold.PLP.part.hbond>
-2.9729

> <Gold.PLP.part.metal>
0.0000

> <Gold.PLP.part.buried>
-6.3805

> <Gold.PLP.part.nonpolar>
-19.8509

> <Gold.PLP.part.repulsive>
0.2078

> <Gold.PLP.ligand.clash>
0.0000

> <Gold.PLP.ligand.torsion>
0.7957

> <Gold.PLP.Chemscore.Hbond>
3.9825

> <Gold.PLP.Chemscore.CHOScore>
0.0000

> <Gold.PLP.Chemscore.Metal>
0.0000

> <Gold.Chemscore.Hbonds>
donor molecule, donor type, donor heavy atom, donor atom, acceptor molecule, acceptor atom, score
      L1  H    19    53       P1 10957  1.79
      P1  H  6896  6909       L1    18  1.00
      P1  H  6931  6943       L1    16  0.90

> <Gold.PLP.Chemscore.Internal.Correction>
0.2671

> <Gold.Rescore>
     Score         DG    S(hbond)    S(metal)    S(lipo)     H(rot)  DE(clash)    DE(int)     intcor
     10.24     -12.41       1.84        0.00      54.73       2.19       0.22       1.95       ----

> <Gold.Chemscore.Fitness>
10.2370

> <Gold.Chemscore.DG>
-12.4122

> <Gold.Chemscore.ZeroCoef>
-5.4800

> <Gold.Chemscore.Hbond>
1.8387

> <Gold.Chemscore.Metal>
0.0000

> <Gold.Chemscore.Lipo>
54.7336

> <Gold.Chemscore.Internal_Hbond>
0.0000

> <Gold.Chemscore.DEClash>
0.2213

> <Gold.Chemscore.DEInternal>
1.9540

> <Gold.Chemscore.Rot>
2.1926

> <Gold.Chemscore.Internal.Correction>
   9.000000E+99

> <Gold.Chemscore.Hbonds>
donor molecule, donor type, donor heavy atom, donor atom, acceptor molecule, acceptor atom, score
      L1  H    19    53       P1 10957  0.38
      P1  H  6896  6909       L1    18  0.53
      P1  H  6931  6943       L1    16  0.18

> <Gold.Chemscore.Hbond.Weighted>
-6.1414

> <Gold.Chemscore.Metal.Weighted>
-0.0000

> <Gold.Chemscore.Lipo.Weighted>
-6.4038

> <Gold.Chemscore.Internal_Hbond.Weighted>
0.0000

> <Gold.Chemscore.DEClash.Weighted>
0.2213

> <Gold.Chemscore.DEInternal.Weighted>
1.9540

> <Gold.Chemscore.Rot.Weighted>
5.6129

> <Gold.Chemscore.Internal.Correction.Weighted>
   9.000000E+99

> <Gold.Protein.RotatedTorsions>
[ 6907 6896 6895 6894 ] final   76.40 input  -60.11 | X-H torsion
[ 7974 7965 7964 7962 ] final  -94.94 input  175.53 | X-H torsion
[ 8008 7997 7996 7995 ] final  -18.87 input   59.86 | X-H torsion
[ 10167 10162 10161 10158 ] final   97.23 input  -65.29 | X-H torsion
[ 10718 10713 10712 10709 ] final   84.67 input   66.30 | X-H torsion
[ 10763 10752 10751 10750 ] final  -52.60 input  -60.55 | X-H torsion
[ 11005 11000 10999 10996 ] final  -96.91 input  -57.11 | X-H torsion

> <Gold.Protein.ActiveResidues>
 VAL166  LYS551  ARG553  GLY616  TRP617  ASP618  TYR619  PRO620  LYS621  CYS622 
 ASP623  PHE694  ASN695  SER759  ASP760  ASP761  ALA762  ILE779  LEU786  VAL792 
 PHE793  MET794  SER795  GLU796  ALA797  LYS798  CYS799  TRP800  GLU811  SER814 

> <Gold.Protein.RotatedAtoms>
  152.5071  134.3975  159.9404 H   0  0  0  0  0  0  0  0  0  0  0  0  # atno 6907 bound_to 6896
  151.3937  133.3774  159.2732 H   0  0  0  0  0  0  0  0  0  0  0  0  # atno 6908 bound_to 6896
  150.9413  134.8843  159.7673 H   0  0  0  0  0  0  0  0  0  0  0  0  # atno 6909 bound_to 6896
  145.3667  140.9499  143.2470 H   0  0  0  0  0  0  0  0  0  0  0  0  # atno 7974 bound_to 7965
  154.4876  140.2104  155.9621 H   0  0  0  0  0  0  0  0  0  0  0  0  # atno 8008 bound_to 7997
  156.1258  140.3205  155.8244 H   0  0  0  0  0  0  0  0  0  0  0  0  # atno 8009 bound_to 7997
  155.4386  140.0508  157.3003 H   0  0  0  0  0  0  0  0  0  0  0  0  # atno 8010 bound_to 7997
  139.7820  144.6884  151.0009 H   0  0  0  0  0  0  0  0  0  0  0  0  # atno 10167 bound_to 10162
  157.6902  131.0143  150.2707 H   0  0  0  0  0  0  0  0  0  0  0  0  # atno 10718 bound_to 10713
  154.1454  135.6498  153.4951 H   0  0  0  0  0  0  0  0  0  0  0  0  # atno 10763 bound_to 10752
  153.0153  135.5325  154.6863 H   0  0  0  0  0  0  0  0  0  0  0  0  # atno 10764 bound_to 10752
  154.6135  135.2956  155.0376 H   0  0  0  0  0  0  0  0  0  0  0  0  # atno 10765 bound_to 10752
  141.1396  133.8132  157.0635 H   0  0  0  0  0  0  0  0  0  0  0  0  # atno 11005 bound_to 11000
  144.8606  139.5182  143.6814 LP  0  0  0  0  0  0  0  0  0  0  0  0  # atno 17320 bound_to 7965
  146.2903  139.7121  142.9165 LP  0  0  0  0  0  0  0  0  0  0  0  0  # atno 17321 bound_to 7965
  140.7818  143.4472  151.0465 LP  0  0  0  0  0  0  0  0  0  0  0  0  # atno 17342 bound_to 10162
  139.8153  143.7895  152.3174 LP  0  0  0  0  0  0  0  0  0  0  0  0  # atno 17343 bound_to 10162
  156.3270  130.3794  149.7524 LP  0  0  0  0  0  0  0  0  0  0  0  0  # atno 17370 bound_to 10713
  156.5076  130.8157  151.3156 LP  0  0  0  0  0  0  0  0  0  0  0  0  # atno 17371 bound_to 10713
  140.0556  134.9782  157.1214 LP  0  0  0  0  0  0  0  0  0  0  0  0  # atno 17394 bound_to 11000
  140.3924  134.2170  155.7165 LP  0  0  0  0  0  0  0  0  0  0  0  0  # atno 17395 bound_to 11000

$$$$
