AV-unprocessed.smi:37|AV-procd|sdf|327|dock3
  -GOLD-   2262016153D 1   1.00000     0.00000
 Structure written by MMmdl.
 43 44  0  0  0  0  0  0  0  0  2 V2000
  149.1802  133.9014  157.1180 C   0  0  0  0  0  0  0  0  0  0  0  0
  149.3368  135.1821  157.9490 C   0  0  0  0  0  0  0  0  0  0  0  0
  149.0712  136.4416  157.1271 C   0  0  0  0  0  0  0  0  0  0  0  0
  148.1907  137.2413  157.4455 O   0  0  0  0  0  0  0  0  0  0  0  0
  149.8803  136.5450  156.0610 O   0  0  0  0  0  0  0  0  0  0  0  0
  149.7322  137.6391  155.1717 C   0  0  0  0  0  0  0  0  0  0  0  0
  150.7357  138.7366  155.5490 C   0  0  2  0  0  0  0  0  0  0  0  0
  150.4355  139.2975  156.8220 O   0  0  0  0  0  0  0  0  0  0  0  0
  150.9055  140.6141  156.8869 C   0  0  1  0  0  0  0  0  0  0  0  0
  151.9646  140.7298  157.9600 N   0  0  0  0  0  0  0  0  0  0  0  0
  151.9696  141.7854  158.8572 C   0  0  0  0  0  0  0  0  0  0  0  0
  152.9176  141.8849  159.8114 C   0  0  0  0  0  0  0  0  0  0  0  0
  152.8950  142.9179  160.6711 F   0  0  0  0  0  0  0  0  0  0  0  0
  153.9615  140.8655  159.9038 C   0  0  0  0  0  0  0  0  0  0  0  0
  154.8260  140.9643  160.7735 O   0  0  0  0  0  0  0  0  0  0  0  0
  153.9293  139.8361  159.0083 N   0  5  0  0  0  0  0  0  0  0  0  0
  152.9696  139.7286  158.0434 C   0  0  0  0  0  0  0  0  0  0  0  0
  152.9233  138.7988  157.2375 O   0  0  0  0  0  0  0  0  0  0  0  0
  151.4213  140.9952  155.4823 C   0  0  1  0  0  0  0  0  0  0  0  0
  153.3992  140.7888  155.2723 Br  0  0  0  0  0  0  0  0  0  0  0  0
  150.7450  139.9487  154.6140 C   0  0  2  0  0  0  0  0  0  0  0  0
  149.4099  140.3366  154.3047 O   0  0  0  0  0  0  0  0  0  0  0  0
  149.1531  141.5567  153.7998 C   0  0  0  0  0  0  0  0  0  0  0  0
  149.9688  142.4688  153.6642 O   0  0  0  0  0  0  0  0  0  0  0  0
  147.6884  141.7341  153.4059 C   0  0  0  0  0  0  0  0  0  0  0  0
  147.0781  143.0144  153.9928 C   0  0  0  0  0  0  0  0  0  0  0  0
  149.4249  133.0244  157.7171 H   0  0  0  0  0  0  0  0  0  0  0  0
  149.8439  133.9061  156.2527 H   0  0  0  0  0  0  0  0  0  0  0  0
  148.1577  133.7795  156.7583 H   0  0  0  0  0  0  0  0  0  0  0  0
  148.6528  135.1634  158.7978 H   0  0  0  0  0  0  0  0  0  0  0  0
  150.3461  135.2358  158.3579 H   0  0  0  0  0  0  0  0  0  0  0  0
  149.9267  137.2942  154.1553 H   0  0  0  0  0  0  0  0  0  0  0  0
  148.7119  138.0245  155.2000 H   0  0  0  0  0  0  0  0  0  0  0  0
  151.7425  138.3169  155.5849 H   0  0  0  0  0  0  0  0  0  0  0  0
  150.0717  141.2342  157.2205 H   0  0  0  0  0  0  0  0  0  0  0  0
  151.2037  142.5447  158.8088 H   0  0  0  0  0  0  0  0  0  0  0  0
  151.1607  142.0243  155.2324 H   0  0  0  0  0  0  0  0  0  0  0  0
  151.3032  139.7407  153.6999 H   0  0  0  0  0  0  0  0  0  0  0  0
  147.6160  141.7495  152.3181 H   0  0  0  0  0  0  0  0  0  0  0  0
  147.1245  140.8659  153.7482 H   0  0  0  0  0  0  0  0  0  0  0  0
  146.0227  143.0907  153.7307 H   0  0  0  0  0  0  0  0  0  0  0  0
  147.5761  143.9071  153.6123 H   0  0  0  0  0  0  0  0  0  0  0  0
  147.1500  143.0258  155.0810 H   0  0  0  0  0  0  0  0  0  0  0  0
  1  2  1  0  0  0  0
  1 27  1  0  0  0  0
  1 28  1  0  0  0  0
  1 29  1  0  0  0  0
  2  3  1  0  0  0  0
  2 30  1  0  0  0  0
  2 31  1  0  0  0  0
  3  4  2  0  0  0  0
  3  5  1  0  0  0  0
  5  6  1  0  0  0  0
  6  7  1  0  0  0  0
  6 32  1  0  0  0  0
  6 33  1  0  0  0  0
  7 21  1  0  0  0  0
  7  8  1  0  0  0  0
  7 34  1  0  0  0  0
  8  9  1  0  0  0  0
  9 10  1  0  0  0  0
  9 19  1  0  0  0  0
  9 35  1  0  0  0  0
 10 17  1  0  0  0  0
 10 11  1  0  0  0  0
 11 12  2  0  0  0  0
 11 36  1  0  0  0  0
 12 13  1  0  0  0  0
 12 14  1  0  0  0  0
 14 15  2  0  0  0  0
 14 16  1  0  0  0  0
 16 17  1  0  0  0  0
 17 18  2  0  0  0  0
 19 20  1  0  0  0  0
 19 21  1  0  0  0  0
 19 37  1  0  0  0  0
 21 22  1  0  0  0  0
 21 38  1  0  0  0  0
 22 23  1  0  0  0  0
 23 24  2  0  0  0  0
 23 25  1  0  0  0  0
 25 26  1  0  0  0  0
 25 39  1  0  0  0  0
 25 40  1  0  0  0  0
 26 41  1  0  0  0  0
 26 42  1  0  0  0  0
 26 43  1  0  0  0  0
M  CHG  1  16  -1
M  END
> <s_m_source_file>
AV-unprocessed.smi

> <i_m_source_file_index>
37

> <i_lp_mmshare_version>
43012

> <i_f3d_flags>
0

> <s_epik_input>
W0NIM11bQ0gyXUMoPU8pT1tDSDJdW0NAQEhdMU9bQ0BASF0objJbY0hdYyhGKWMoPU8pW25IXWMyPU8pW0NAQEhdKEJyKVtDQEhdMU9DKD1PKVtDSDJdW0NIM10=

> <s_epik_cmdline>
J2VwaWtfcHl0aG9uJywgJy1waCcsICc3LjAnLCAnLXRuJywgJzgnLCAnLW1hJywgJzIwMCcsICctbWV0YWxfYmluZGluZycsICctaW1hZScsICc8aW5maWxlLm1hZT4nLCAnLW9tYWUnLCAnPG91dGZpbGUubWFlPic=

> <r_epik_Ionization_Penalty>
1.08158

> <r_epik_Ionization_Penalty_Charging>
9.05154e-09

> <r_epik_Ionization_Penalty_Neutral>
1.08158

> <r_epik_State_Penalty>
1.13706

> <r_epik_Charging_Adjusted_Penalty>
1.13706

> <i_epik_Tot_Q>
-1

> <i_epik_Tot_abs_Q>
1

> <r_epik_Metal_State_Penalty>
0.00343535

> <b_epik_Metal_Only>
0

> <s_epik_Chemistry_Notes>
This compound has an ester and may undergo hydrolysis at high or low pH. This compound contains an acetal/aminal-like group ( X-CH(R)-Y where X, Y are N, S, or O) that may be acid/base labile, releasing an aldehyde.

> <s_lp_Force_Field>
OPLS_2005

> <r_lp_Energy>
34.9368

> <b_lp_Chiralities_Consistent>
1

> <s_lp_Variant>
AV-unprocessed.smi:37-25

> <Gold.Version>
5.8.1

> <Gold.Id.Protein>
6NUR|6NUR_protein|mol2

> <Gold.PLP.Fitness>
41.8366

> <Gold.PLP.PLP>
-38.0915

> <Gold.PLP.part.hbond>
-3.8052

> <Gold.PLP.part.metal>
0.0000

> <Gold.PLP.part.buried>
-4.3598

> <Gold.PLP.part.nonpolar>
-30.3569

> <Gold.PLP.part.repulsive>
1.8278

> <Gold.PLP.ligand.clash>
0.0681

> <Gold.PLP.ligand.torsion>
0.8868

> <Gold.PLP.Chemscore.Hbond>
1.7722

> <Gold.PLP.Chemscore.CHOScore>
0.0000

> <Gold.PLP.Chemscore.Metal>
0.0000

> <Gold.Chemscore.Hbonds>
donor molecule, donor type, donor heavy atom, donor atom, acceptor molecule, acceptor atom, score
      P1  H  8011  8017       L1    24  0.01

> <Gold.PLP.Chemscore.Internal.Correction>
0.2702

> <Gold.Rescore>
     Score         DG    S(hbond)    S(metal)    S(lipo)     H(rot)  DE(clash)    DE(int)     intcor
      0.78      -8.55       1.11        0.00      66.14       3.27       1.99       5.78       ----

> <Gold.Chemscore.Fitness>
0.7800

> <Gold.Chemscore.DG>
-8.5534

> <Gold.Chemscore.ZeroCoef>
-5.4800

> <Gold.Chemscore.Hbond>
1.1073

> <Gold.Chemscore.Metal>
0.0000

> <Gold.Chemscore.Lipo>
66.1404

> <Gold.Chemscore.Internal_Hbond>
0.0000

> <Gold.Chemscore.DEClash>
1.9901

> <Gold.Chemscore.DEInternal>
5.7833

> <Gold.Chemscore.Rot>
3.2669

> <Gold.Chemscore.Internal.Correction>
   9.000000E+99

> <Gold.Chemscore.Hbond.Weighted>
-3.6983

> <Gold.Chemscore.Metal.Weighted>
-0.0000

> <Gold.Chemscore.Lipo.Weighted>
-7.7384

> <Gold.Chemscore.Internal_Hbond.Weighted>
0.0000

> <Gold.Chemscore.DEClash.Weighted>
1.9901

> <Gold.Chemscore.DEInternal.Weighted>
5.7833

> <Gold.Chemscore.Rot.Weighted>
8.3634

> <Gold.Chemscore.Internal.Correction.Weighted>
   9.000000E+99

> <Gold.Protein.RotatedTorsions>
[ 6907 6896 6895 6894 ] final   88.75 input  -60.11 | X-H torsion
[ 7974 7965 7964 7962 ] final   88.23 input  175.53 | X-H torsion
[ 8008 7997 7996 7995 ] final    5.03 input   59.86 | X-H torsion
[ 10167 10162 10161 10158 ] final -174.81 input  -65.29 | X-H torsion
[ 10718 10713 10712 10709 ] final   54.40 input   66.30 | X-H torsion
[ 10763 10752 10751 10750 ] final   33.17 input  -60.55 | X-H torsion
[ 11005 11000 10999 10996 ] final -133.94 input  -57.11 | X-H torsion

> <Gold.Protein.ActiveResidues>
 VAL166  LYS551  ARG553  GLY616  TRP617  ASP618  TYR619  PRO620  LYS621  CYS622 
 ASP623  PHE694  ASN695  SER759  ASP760  ASP761  ALA762  ILE779  LEU786  VAL792 
 PHE793  MET794  SER795  GLU796  ALA797  LYS798  CYS799  TRP800  GLU811  SER814 

> <Gold.Protein.RotatedAtoms>
  152.5429  134.2072  159.8735 H   0  0  0  0  0  0  0  0  0  0  0  0  # atno 6907 bound_to 6896
  151.2057  133.4578  159.2604 H   0  0  0  0  0  0  0  0  0  0  0  0  # atno 6908 bound_to 6896
  151.0945  134.9948  159.8474 H   0  0  0  0  0  0  0  0  0  0  0  0  # atno 6909 bound_to 6896
  145.5484  139.2293  143.2526 H   0  0  0  0  0  0  0  0  0  0  0  0  # atno 7974 bound_to 7965
  154.7233  140.2716  155.6522 H   0  0  0  0  0  0  0  0  0  0  0  0  # atno 8008 bound_to 7997
  156.2830  140.2730  156.1836 H   0  0  0  0  0  0  0  0  0  0  0  0  # atno 8009 bound_to 7997
  155.0478  140.0371  157.2523 H   0  0  0  0  0  0  0  0  0  0  0  0  # atno 8010 bound_to 7997
  139.5614  144.1861  152.1244 H   0  0  0  0  0  0  0  0  0  0  0  0  # atno 10167 bound_to 10162
  157.5253  130.8593  149.8614 H   0  0  0  0  0  0  0  0  0  0  0  0  # atno 10718 bound_to 10713
  153.0225  135.6394  154.1470 H   0  0  0  0  0  0  0  0  0  0  0  0  # atno 10763 bound_to 10752
  154.1203  135.2847  155.3211 H   0  0  0  0  0  0  0  0  0  0  0  0  # atno 10764 bound_to 10752
  154.6268  135.5506  153.7698 H   0  0  0  0  0  0  0  0  0  0  0  0  # atno 10765 bound_to 10752
  140.9035  134.1660  157.4443 H   0  0  0  0  0  0  0  0  0  0  0  0  # atno 11005 bound_to 11000
  146.1934  140.6306  142.9135 LP  0  0  0  0  0  0  0  0  0  0  0  0  # atno 17320 bound_to 7965
  144.7542  140.5265  143.6781 LP  0  0  0  0  0  0  0  0  0  0  0  0  # atno 17321 bound_to 7965
  140.1375  144.5232  150.6764 LP  0  0  0  0  0  0  0  0  0  0  0  0  # atno 17342 bound_to 10162
  140.6894  143.2367  151.5173 LP  0  0  0  0  0  0  0  0  0  0  0  0  # atno 17343 bound_to 10162
  156.0383  130.3745  150.1502 LP  0  0  0  0  0  0  0  0  0  0  0  0  # atno 17370 bound_to 10713
  156.9689  130.9828  151.3463 LP  0  0  0  0  0  0  0  0  0  0  0  0  # atno 17371 bound_to 10713
  139.8746  134.9907  156.5517 LP  0  0  0  0  0  0  0  0  0  0  0  0  # atno 17394 bound_to 11000
  140.8200  133.8361  155.8887 LP  0  0  0  0  0  0  0  0  0  0  0  0  # atno 17395 bound_to 11000

$$$$
