AV-unprocessed.smi:219|AV-procd|sdf|1679|dock6
  -GOLD-   2262020113D 1   1.00000     0.00000
 Structure written by MMmdl.
 50 53  0  0  0  0  0  0  0  0  1 V2000
  149.0904  139.5334  153.9000 N   0  0  0  0  0  0  0  0  0  0  0  0
  148.9865  140.7296  154.4843 C   0  0  0  0  0  0  0  0  0  0  0  0
  149.0025  141.7773  153.8417 O   0  0  0  0  0  0  0  0  0  0  0  0
  148.8845  140.7517  156.0141 C   0  0  0  0  0  0  0  0  0  0  0  0
  150.2475  140.7728  156.7671 C   0  0  1  0  0  0  0  0  0  0  0  0
  150.5730  142.2315  157.1648 C   0  0  0  0  0  0  0  0  0  0  0  0
  151.8905  142.3424  157.9424 C   0  0  0  0  0  0  0  0  0  0  0  0
  151.8487  141.4216  159.1655 C   0  0  0  0  0  0  0  0  0  0  0  0
  151.5470  139.9817  158.7316 C   0  0  0  0  0  0  0  0  0  0  0  0
  150.3047  139.9039  157.9593 N   0  0  0  0  0  0  0  0  0  0  0  0
  149.9324  138.6169  157.7778 C   0  0  0  0  0  0  0  0  0  0  0  0
  149.2900  137.9481  158.7723 N   0  0  0  0  0  0  0  0  0  0  0  0
  148.9399  136.6704  158.5958 C   0  0  0  0  0  0  0  0  0  0  0  0
  149.1340  135.8907  157.5296 N   0  0  0  0  0  0  0  0  0  0  0  0
  149.7825  136.5615  156.5342 C   0  0  0  0  0  0  0  0  0  0  0  0
  150.2053  137.9191  156.5727 C   0  0  0  0  0  0  0  0  0  0  0  0
  150.8247  138.2629  155.3788 N   0  0  0  0  0  0  0  0  0  0  0  0
  150.7755  137.1659  154.6732 C   0  0  0  0  0  0  0  0  0  0  0  0
  150.1787  136.0908  155.2943 N   0  0  0  0  0  0  0  0  0  0  0  0
  149.9973  134.7555  154.7457 C   0  0  0  0  0  0  0  0  0  0  0  0
  148.5146  134.3334  154.6091 C   0  0  1  0  0  0  0  0  0  0  0  0
  147.7462  135.4532  154.2046 O   0  0  0  0  0  0  0  0  0  0  0  0
  148.3114  133.2223  153.5856 C   0  0  0  0  0  0  0  0  0  0  0  0
  147.0946  132.4829  154.1246 C   0  0  0  0  0  0  0  0  0  0  0  0
  147.3191  132.4904  155.5237 O   0  0  0  0  0  0  0  0  0  0  0  0
  147.8841  133.7459  155.8900 C   0  0  0  0  0  0  0  0  0  0  0  0
  149.1549  139.4719  152.8943 H   0  0  0  0  0  0  0  0  0  0  0  0
  149.0992  138.6954  154.4629 H   0  0  0  0  0  0  0  0  0  0  0  0
  148.3121  141.6460  156.2639 H   0  0  0  0  0  0  0  0  0  0  0  0
  148.2759  139.9136  156.3570 H   0  0  0  0  0  0  0  0  0  0  0  0
  151.0312  140.4387  156.0852 H   0  0  0  0  0  0  0  0  0  0  0  0
  150.6287  142.8596  156.2749 H   0  0  0  0  0  0  0  0  0  0  0  0
  149.7622  142.6327  157.7749 H   0  0  0  0  0  0  0  0  0  0  0  0
  152.7255  142.0654  157.2977 H   0  0  0  0  0  0  0  0  0  0  0  0
  152.0607  143.3739  158.2520 H   0  0  0  0  0  0  0  0  0  0  0  0
  152.7987  141.4613  159.6987 H   0  0  0  0  0  0  0  0  0  0  0  0
  151.0834  141.7656  159.8627 H   0  0  0  0  0  0  0  0  0  0  0  0
  152.3760  139.6032  158.1312 H   0  0  0  0  0  0  0  0  0  0  0  0
  151.4759  139.3434  159.6139 H   0  0  0  0  0  0  0  0  0  0  0  0
  148.4359  136.2043  159.4293 H   0  0  0  0  0  0  0  0  0  0  0  0
  151.1811  137.1106  153.6734 H   0  0  0  0  0  0  0  0  0  0  0  0
  150.4911  134.7143  153.7739 H   0  0  0  0  0  0  0  0  0  0  0  0
  150.5292  134.0522  155.3877 H   0  0  0  0  0  0  0  0  0  0  0  0
  148.2320  135.9302  153.5494 H   0  0  0  0  0  0  0  0  0  0  0  0
  148.1776  133.5830  152.5647 H   0  0  0  0  0  0  0  0  0  0  0  0
  149.1663  132.5445  153.5877 H   0  0  0  0  0  0  0  0  0  0  0  0
  146.1739  133.0221  153.8961 H   0  0  0  0  0  0  0  0  0  0  0  0
  147.0086  131.4683  153.7356 H   0  0  0  0  0  0  0  0  0  0  0  0
  148.6187  133.5705  156.6749 H   0  0  0  0  0  0  0  0  0  0  0  0
  147.1118  134.3957  156.3051 H   0  0  0  0  0  0  0  0  0  0  0  0
  1  2  1  0  0  0  0
  1 27  1  0  0  0  0
  1 28  1  0  0  0  0
  2  3  2  0  0  0  0
  2  4  1  0  0  0  0
  4  5  1  0  0  0  0
  4 29  1  0  0  0  0
  4 30  1  0  0  0  0
  5 10  1  0  0  0  0
  5  6  1  0  0  0  0
  5 31  1  0  0  0  0
  6  7  1  0  0  0  0
  6 32  1  0  0  0  0
  6 33  1  0  0  0  0
  7  8  1  0  0  0  0
  7 34  1  0  0  0  0
  7 35  1  0  0  0  0
  8  9  1  0  0  0  0
  8 36  1  0  0  0  0
  8 37  1  0  0  0  0
  9 10  1  0  0  0  0
  9 38  1  0  0  0  0
  9 39  1  0  0  0  0
 10 11  1  0  0  0  0
 11 16  1  0  0  0  0
 11 12  2  0  0  0  0
 12 13  1  0  0  0  0
 13 14  2  0  0  0  0
 13 40  1  0  0  0  0
 14 15  1  0  0  0  0
 15 19  1  0  0  0  0
 15 16  2  0  0  0  0
 16 17  1  0  0  0  0
 17 18  2  0  0  0  0
 18 19  1  0  0  0  0
 18 41  1  0  0  0  0
 19 20  1  0  0  0  0
 20 21  1  0  0  0  0
 20 42  1  0  0  0  0
 20 43  1  0  0  0  0
 21 26  1  0  0  0  0
 21 22  1  0  0  0  0
 21 23  1  0  0  0  0
 22 44  1  0  0  0  0
 23 24  1  0  0  0  0
 23 45  1  0  0  0  0
 23 46  1  0  0  0  0
 24 25  1  0  0  0  0
 24 47  1  0  0  0  0
 24 48  1  0  0  0  0
 25 26  1  0  0  0  0
 26 49  1  0  0  0  0
 26 50  1  0  0  0  0
M  END
> <s_m_source_file>
AV-unprocessed.smi

> <i_m_source_file_index>
219

> <i_lp_mmshare_version>
43012

> <i_f3d_flags>
0

> <s_epik_input>
W05IMl1DKD1PKVtDSDJdW0NAQEhdMVtDSDJdW0NIMl1bQ0gyXVtDSDJdTjFjKG5bY0hdbjIpYyhjMjMpbltjSF1uM1tDSDJdW0NAQF00KFtPSF0pW0NIMl1bQ0gyXU9bQ0gyXTQ=

> <s_epik_cmdline>
J2VwaWtfcHl0aG9uJywgJy1waCcsICc3LjAnLCAnLXRuJywgJzgnLCAnLW1hJywgJzIwMCcsICctbWV0YWxfYmluZGluZycsICctaW1hZScsICc8aW5maWxlLm1hZT4nLCAnLW9tYWUnLCAnPG91dGZpbGUubWFlPic=

> <r_lp_tautomer_probability>
1

> <r_epik_Ionization_Penalty>
0.00228532

> <r_epik_Ionization_Penalty_Charging>
0

> <r_epik_Ionization_Penalty_Neutral>
0.00228532

> <r_epik_State_Penalty>
0.00140978

> <r_epik_Charging_Adjusted_Penalty>
0.00140978

> <i_epik_Tot_Q>
0

> <i_epik_Tot_abs_Q>
0

> <r_epik_Metal_State_Penalty>
-0

> <b_epik_Metal_Only>
0

> <s_lp_Force_Field>
OPLS_2005

> <r_lp_Energy>
37.1625

> <b_lp_Chiralities_Consistent>
1

> <s_lp_Variant>
AV-unprocessed.smi:219-2

> <Gold.Version>
5.8.1

> <Gold.Id.Protein>
6NUR|6NUR_protein|mol2

> <Gold.PLP.Fitness>
40.8133

> <Gold.PLP.PLP>
-33.5214

> <Gold.PLP.part.hbond>
-3.9598

> <Gold.PLP.part.metal>
0.0000

> <Gold.PLP.part.buried>
-5.7726

> <Gold.PLP.part.nonpolar>
-23.3846

> <Gold.PLP.part.repulsive>
0.3777

> <Gold.PLP.ligand.clash>
0.0000

> <Gold.PLP.ligand.torsion>
1.9315

> <Gold.PLP.Chemscore.Hbond>
2.6320

> <Gold.PLP.Chemscore.CHOScore>
1.0000

> <Gold.PLP.Chemscore.Metal>
0.0000

> <Gold.Chemscore.Hbonds>
donor molecule, donor type, donor heavy atom, donor atom, acceptor molecule, acceptor atom, score
      L1  H     1    27       P1  7957  1.00
      L1  H    22    44       P1  7948  1.00
      P1  H  8011  8017       L1     3  0.58
      L1  C    18    41       P1  7949  1.00

> <Gold.PLP.Chemscore.Internal.Correction>
0.2589

> <Gold.Rescore>
     Score         DG    S(hbond)    S(metal)    S(lipo)     H(rot)  DE(clash)    DE(int)     intcor
      7.30     -13.21       2.57        0.00      66.44       3.37       0.07       5.84       ----

> <Gold.Chemscore.Fitness>
7.2997

> <Gold.Chemscore.DG>
-13.2059

> <Gold.Chemscore.ZeroCoef>
-5.4800

> <Gold.Chemscore.Hbond>
2.5687

> <Gold.Chemscore.Metal>
0.0000

> <Gold.Chemscore.Lipo>
66.4358

> <Gold.Chemscore.Internal_Hbond>
0.0000

> <Gold.Chemscore.DEClash>
0.0684

> <Gold.Chemscore.DEInternal>
5.8378

> <Gold.Chemscore.Rot>
3.3697

> <Gold.Chemscore.Internal.Correction>
   9.000000E+99

> <Gold.Chemscore.Hbonds>
donor molecule, donor type, donor heavy atom, donor atom, acceptor molecule, acceptor atom, score
      L1  H     1    27       P1  7957  0.99
      L1  H    22    44       P1  7948  0.98
      P1  H  8011  8017       L1     3  0.58

> <Gold.Chemscore.Hbond.Weighted>
-8.5793

> <Gold.Chemscore.Metal.Weighted>
-0.0000

> <Gold.Chemscore.Lipo.Weighted>
-7.7730

> <Gold.Chemscore.Internal_Hbond.Weighted>
0.0000

> <Gold.Chemscore.DEClash.Weighted>
0.0684

> <Gold.Chemscore.DEInternal.Weighted>
5.8378

> <Gold.Chemscore.Rot.Weighted>
8.6264

> <Gold.Chemscore.Internal.Correction.Weighted>
   9.000000E+99

> <Gold.Protein.RotatedTorsions>
[ 6907 6896 6895 6894 ] final   78.91 input  -60.11 | X-H torsion
[ 7974 7965 7964 7962 ] final   73.36 input  175.53 | X-H torsion
[ 8008 7997 7996 7995 ] final  125.61 input   59.86 | X-H torsion
[ 10167 10162 10161 10158 ] final  -85.90 input  -65.29 | X-H torsion
[ 10718 10713 10712 10709 ] final   10.71 input   66.30 | X-H torsion
[ 10763 10752 10751 10750 ] final -145.77 input  -60.55 | X-H torsion
[ 11005 11000 10999 10996 ] final  -92.29 input  -57.11 | X-H torsion

> <Gold.Protein.ActiveResidues>
 VAL166  LYS551  ARG553  GLY616  TRP617  ASP618  TYR619  PRO620  LYS621  CYS622 
 ASP623  PHE694  ASN695  SER759  ASP760  ASP761  ALA762  ILE779  LEU786  VAL792 
 PHE793  MET794  SER795  GLU796  ALA797  LYS798  CYS799  TRP800  GLU811  SER814 

> <Gold.Protein.RotatedAtoms>
  152.5178  134.3591  159.9278 H   0  0  0  0  0  0  0  0  0  0  0  0  # atno 6907 bound_to 6896
  151.3543  133.3907  159.2691 H   0  0  0  0  0  0  0  0  0  0  0  0  # atno 6908 bound_to 6896
  150.9702  134.9095  159.7841 H   0  0  0  0  0  0  0  0  0  0  0  0  # atno 6909 bound_to 6896
  145.7419  139.2724  143.1481 H   0  0  0  0  0  0  0  0  0  0  0  0  # atno 7974 bound_to 7965
  156.2839  140.2712  156.1978 H   0  0  0  0  0  0  0  0  0  0  0  0  # atno 8008 bound_to 7997
  155.0392  140.0386  157.2521 H   0  0  0  0  0  0  0  0  0  0  0  0  # atno 8009 bound_to 7997
  154.7288  140.2702  155.6480 H   0  0  0  0  0  0  0  0  0  0  0  0  # atno 8010 bound_to 7997
  140.3993  143.2670  151.9163 H   0  0  0  0  0  0  0  0  0  0  0  0  # atno 10167 bound_to 10162
  156.9849  130.6020  149.5680 H   0  0  0  0  0  0  0  0  0  0  0  0  # atno 10718 bound_to 10713
  154.8368  135.3404  154.6556 H   0  0  0  0  0  0  0  0  0  0  0  0  # atno 10763 bound_to 10752
  153.7170  135.6960  153.5027 H   0  0  0  0  0  0  0  0  0  0  0  0  # atno 10764 bound_to 10752
  153.2409  135.4385  155.0650 H   0  0  0  0  0  0  0  0  0  0  0  0  # atno 10765 bound_to 10752
  141.1525  133.7811  156.9999 H   0  0  0  0  0  0  0  0  0  0  0  0  # atno 11005 bound_to 11000
  146.0440  140.8137  142.9815 LP  0  0  0  0  0  0  0  0  0  0  0  0  # atno 17320 bound_to 7965
  144.6869  140.2952  143.7272 LP  0  0  0  0  0  0  0  0  0  0  0  0  # atno 17321 bound_to 7965
  139.4785  144.5650  151.8180 LP  0  0  0  0  0  0  0  0  0  0  0  0  # atno 17342 bound_to 10162
  140.4757  144.1523  150.5924 LP  0  0  0  0  0  0  0  0  0  0  0  0  # atno 17343 bound_to 10162
  156.0230  130.5324  150.8327 LP  0  0  0  0  0  0  0  0  0  0  0  0  # atno 17370 bound_to 10713
  157.5500  131.0943  150.9709 LP  0  0  0  0  0  0  0  0  0  0  0  0  # atno 17371 bound_to 10713
  140.0947  134.9571  157.1830 LP  0  0  0  0  0  0  0  0  0  0  0  0  # atno 17394 bound_to 11000
  140.3399  134.2716  155.7214 LP  0  0  0  0  0  0  0  0  0  0  0  0  # atno 17395 bound_to 11000

$$$$
