AV-unprocessed.smi:3032|AV-procd|sdf|11562|dock1
  -GOLD-   2272016523D 1   1.00000     0.00000
 Structure written by MMmdl.
 37 38  0  0  0  0  0  0  0  0  1 V2000
  151.8458  145.6420  159.7004 C   0  0  0  0  0  0  0  0  0  0  0  0
  152.1892  144.2639  159.1176 C   0  0  1  0  0  0  0  0  0  0  0  0
  152.8697  143.3624  160.1652 C   0  0  0  0  0  0  0  0  0  0  0  0
  153.2048  141.9791  159.5858 C   0  0  0  0  0  0  0  0  0  0  0  0
  151.9522  141.2971  159.0135 C   0  0  0  0  0  0  0  0  0  0  0  0
  151.2694  142.1839  157.9517 C   0  0  1  0  0  0  0  0  0  0  0  0
  150.0009  141.5169  157.4051 C   0  0  0  0  0  0  0  0  0  0  0  0
  149.6505  140.4141  157.8267 O   0  0  0  0  0  0  0  0  0  0  0  0
  149.3077  142.2098  156.4871 N   0  0  0  0  0  0  0  0  0  0  0  0
  148.0200  141.8133  155.9206 C   0  0  0  0  0  0  0  0  0  0  0  0
  148.1402  141.3576  154.4524 C   0  0  0  0  0  0  0  0  0  0  0  0
  148.8503  140.0519  154.2798 C   0  0  0  0  0  0  0  0  0  0  0  0
  148.2316  138.9965  153.7479 N   0  0  0  0  0  0  0  0  0  0  0  0
  149.2214  138.0787  153.7089 N   0  0  0  0  0  0  0  0  0  0  0  0
  150.3326  138.6245  154.2003 C   0  0  0  0  0  0  0  0  0  0  0  0
  150.1743  139.8833  154.5858 N   0  0  0  0  0  0  0  0  0  0  0  0
  150.9385  143.5714  158.5428 C   0  0  0  0  0  0  0  0  0  0  0  0
  151.1350  145.5586  160.5233 H   0  0  0  0  0  0  0  0  0  0  0  0
  151.4026  146.2890  158.9429 H   0  0  0  0  0  0  0  0  0  0  0  0
  152.7374  146.1417  160.0800 H   0  0  0  0  0  0  0  0  0  0  0  0
  152.8937  144.4196  158.2991 H   0  0  0  0  0  0  0  0  0  0  0  0
  153.7814  143.8361  160.5307 H   0  0  0  0  0  0  0  0  0  0  0  0
  152.2156  143.2437  161.0302 H   0  0  0  0  0  0  0  0  0  0  0  0
  153.9562  142.0825  158.8021 H   0  0  0  0  0  0  0  0  0  0  0  0
  153.6488  141.3511  160.3586 H   0  0  0  0  0  0  0  0  0  0  0  0
  152.2279  140.3352  158.5790 H   0  0  0  0  0  0  0  0  0  0  0  0
  151.2589  141.0806  159.8280 H   0  0  0  0  0  0  0  0  0  0  0  0
  151.9685  142.3243  157.1251 H   0  0  0  0  0  0  0  0  0  0  0  0
  149.6727  143.1065  156.2001 H   0  0  0  0  0  0  0  0  0  0  0  0
  147.6177  140.9992  156.5235 H   0  0  0  0  0  0  0  0  0  0  0  0
  147.2980  142.6279  155.9956 H   0  0  0  0  0  0  0  0  0  0  0  0
  147.1439  141.2716  154.0163 H   0  0  0  0  0  0  0  0  0  0  0  0
  148.6576  142.1229  153.8728 H   0  0  0  0  0  0  0  0  0  0  0  0
  151.2714  138.0956  154.2734 H   0  0  0  0  0  0  0  0  0  0  0  0
  150.1869  143.4738  159.3282 H   0  0  0  0  0  0  0  0  0  0  0  0
  150.4946  144.2032  157.7721 H   0  0  0  0  0  0  0  0  0  0  0  0
  149.0967  137.1425  153.3512 H   0  0  0  0  0  0  0  0  0  0  0  0
  1  2  1  0  0  0  0
  1 18  1  0  0  0  0
  1 19  1  0  0  0  0
  1 20  1  0  0  0  0
  2 17  1  0  0  0  0
  2  3  1  0  0  0  0
  2 21  1  0  0  0  0
  3  4  1  0  0  0  0
  3 22  1  0  0  0  0
  3 23  1  0  0  0  0
  4  5  1  0  0  0  0
  4 24  1  0  0  0  0
  4 25  1  0  0  0  0
  5  6  1  0  0  0  0
  5 26  1  0  0  0  0
  5 27  1  0  0  0  0
  6  7  1  0  0  0  0
  6 17  1  0  0  0  0
  6 28  1  0  0  0  0
  7  8  2  0  0  0  0
  7  9  1  0  0  0  0
  9 10  1  0  0  0  0
  9 29  1  0  0  0  0
 10 11  1  0  0  0  0
 10 30  1  0  0  0  0
 10 31  1  0  0  0  0
 11 32  1  0  0  0  0
 11 33  1  0  0  0  0
 11 12  1  0  0  0  0
 12 16  1  0  0  0  0
 12 13  2  0  0  0  0
 13 14  1  0  0  0  0
 14 15  1  0  0  0  0
 14 37  1  0  0  0  0
 15 16  2  0  0  0  0
 15 34  1  0  0  0  0
 17 35  1  0  0  0  0
 17 36  1  0  0  0  0
M  END
> <s_m_source_file>
AV-unprocessed.smi

> <i_m_source_file_index>
3032

> <i_lp_mmshare_version>
43012

> <i_f3d_flags>
0

> <s_epik_input>
W0NIM11bQ0BASF0xW0NIMl1bQ0gyXVtDSDJdW0NASF0oW0NIMl0xKUMoPU8pW05IXVtDSDJdW0NIMl1jMm5uW2NIXVtuSF0y

> <s_epik_cmdline>
J2VwaWtfcHl0aG9uJywgJy1waCcsICc3LjAnLCAnLXRuJywgJzgnLCAnLW1hJywgJzIwMCcsICctbWV0YWxfYmluZGluZycsICctaW1hZScsICc8aW5maWxlLm1hZT4nLCAnLW9tYWUnLCAnPG91dGZpbGUubWFlPic=

> <r_epik_Ionization_Penalty>
0.000752022

> <r_epik_Ionization_Penalty_Charging>
0

> <r_epik_Ionization_Penalty_Neutral>
0.000752022

> <r_epik_State_Penalty>
0.639926

> <r_epik_Charging_Adjusted_Penalty>
0.639926

> <i_epik_Tot_Q>
0

> <i_epik_Tot_abs_Q>
0

> <r_epik_Metal_State_Penalty>
0.76532

> <b_epik_Metal_Only>
0

> <s_lp_Force_Field>
OPLS_2005

> <r_lp_Energy>
8.74502

> <b_lp_Chiralities_Consistent>
1

> <s_lp_Variant>
AV-unprocessed.smi:3032-6

> <Gold.Version>
5.8.1

> <Gold.Id.Protein>
6NUR|6NUR_protein|mol2

> <Gold.PLP.Fitness>
45.1647

> <Gold.PLP.PLP>
-37.1875

> <Gold.PLP.part.hbond>
-3.7851

> <Gold.PLP.part.metal>
0.0000

> <Gold.PLP.part.buried>
-4.6986

> <Gold.PLP.part.nonpolar>
-30.6764

> <Gold.PLP.part.repulsive>
1.1834

> <Gold.PLP.ligand.clash>
0.0000

> <Gold.PLP.ligand.torsion>
0.1141

> <Gold.PLP.Chemscore.Hbond>
2.7280

> <Gold.PLP.Chemscore.CHOScore>
0.0000

> <Gold.PLP.Chemscore.Metal>
0.0000

> <Gold.Chemscore.Hbonds>
donor molecule, donor type, donor heavy atom, donor atom, acceptor molecule, acceptor atom, score
      L1  H     9    29       P1  8028  0.69
      L1  H    14    37       P1  7948  0.83
      P1  H  7989  7998       L1    16  0.91

> <Gold.PLP.Chemscore.Internal.Correction>
0.0215

> <Gold.Rescore>
     Score         DG    S(hbond)    S(metal)    S(lipo)     H(rot)  DE(clash)    DE(int)     intcor
     15.54     -15.62       1.89        0.00      81.88       2.25       0.00       0.07       ----

> <Gold.Chemscore.Fitness>
15.5402

> <Gold.Chemscore.DG>
-15.6199

> <Gold.Chemscore.ZeroCoef>
-5.4800

> <Gold.Chemscore.Hbond>
1.8922

> <Gold.Chemscore.Metal>
0.0000

> <Gold.Chemscore.Lipo>
81.8830

> <Gold.Chemscore.Internal_Hbond>
0.0000

> <Gold.Chemscore.DEClash>
0.0048

> <Gold.Chemscore.DEInternal>
0.0749

> <Gold.Chemscore.Rot>
2.2501

> <Gold.Chemscore.Internal.Correction>
   9.000000E+99

> <Gold.Chemscore.Hbonds>
donor molecule, donor type, donor heavy atom, donor atom, acceptor molecule, acceptor atom, score
      L1  H     9    29       P1  8028  0.68
      L1  H    14    37       P1  7948  0.83
      P1  H  7989  7998       L1    16  0.29

> <Gold.Chemscore.Hbond.Weighted>
-6.3199

> <Gold.Chemscore.Metal.Weighted>
-0.0000

> <Gold.Chemscore.Lipo.Weighted>
-9.5803

> <Gold.Chemscore.Internal_Hbond.Weighted>
0.0000

> <Gold.Chemscore.DEClash.Weighted>
0.0048

> <Gold.Chemscore.DEInternal.Weighted>
0.0749

> <Gold.Chemscore.Rot.Weighted>
5.7603

> <Gold.Chemscore.Internal.Correction.Weighted>
   9.000000E+99

> <Gold.Protein.RotatedTorsions>
[ 6907 6896 6895 6894 ] final  139.22 input  -60.11 | X-H torsion
[ 7974 7965 7964 7962 ] final   80.60 input  175.53 | X-H torsion
[ 8008 7997 7996 7995 ] final    4.32 input   59.86 | X-H torsion
[ 10167 10162 10161 10158 ] final   52.21 input  -65.29 | X-H torsion
[ 10718 10713 10712 10709 ] final  159.77 input   66.30 | X-H torsion
[ 10763 10752 10751 10750 ] final  116.41 input  -60.55 | X-H torsion
[ 11005 11000 10999 10996 ] final  130.44 input  -57.11 | X-H torsion

> <Gold.Protein.ActiveResidues>
 VAL166  LYS551  ARG553  GLY616  TRP617  ASP618  TYR619  PRO620  LYS621  CYS622 
 ASP623  PHE694  ASN695  SER759  ASP760  ASP761  ALA762  ILE779  LEU786  VAL792 
 PHE793  MET794  SER795  GLU796  ALA797  LYS798  CYS799  TRP800  GLU811  SER814 

> <Gold.Protein.RotatedAtoms>
  152.2575  133.5268  159.5361 H   0  0  0  0  0  0  0  0  0  0  0  0  # atno 6907 bound_to 6896
  150.7114  134.0876  159.3929 H   0  0  0  0  0  0  0  0  0  0  0  0  # atno 6908 bound_to 6896
  151.8794  135.0459  160.0538 H   0  0  0  0  0  0  0  0  0  0  0  0  # atno 6909 bound_to 6896
  145.6490  139.2443  143.1987 H   0  0  0  0  0  0  0  0  0  0  0  0  # atno 7974 bound_to 7965
  154.7145  140.2699  155.6598 H   0  0  0  0  0  0  0  0  0  0  0  0  # atno 8008 bound_to 7997
  156.2805  140.2746  156.1722 H   0  0  0  0  0  0  0  0  0  0  0  0  # atno 8009 bound_to 7997
  155.0589  140.0371  157.2560 H   0  0  0  0  0  0  0  0  0  0  0  0  # atno 8010 bound_to 7997
  140.2537  144.3450  150.6340 H   0  0  0  0  0  0  0  0  0  0  0  0  # atno 10167 bound_to 10162
  157.1596  131.0584  151.2239 H   0  0  0  0  0  0  0  0  0  0  0  0  # atno 10718 bound_to 10713
  153.5368  135.3567  155.2700 H   0  0  0  0  0  0  0  0  0  0  0  0  # atno 10763 bound_to 10752
  154.8721  135.4081  154.3089 H   0  0  0  0  0  0  0  0  0  0  0  0  # atno 10764 bound_to 10752
  153.3789  135.7067  153.6649 H   0  0  0  0  0  0  0  0  0  0  0  0  # atno 10765 bound_to 10752
  139.9672  134.9587  156.9294 H   0  0  0  0  0  0  0  0  0  0  0  0  # atno 11005 bound_to 11000
  146.1219  140.7298  142.9453 LP  0  0  0  0  0  0  0  0  0  0  0  0  # atno 17320 bound_to 7965
  144.7129  140.4106  143.7066 LP  0  0  0  0  0  0  0  0  0  0  0  0  # atno 17321 bound_to 7965
  140.6020  143.2167  151.7053 LP  0  0  0  0  0  0  0  0  0  0  0  0  # atno 17342 bound_to 10162
  139.5038  144.3778  152.0407 LP  0  0  0  0  0  0  0  0  0  0  0  0  # atno 17343 bound_to 10162
  157.4145  130.7403  149.6865 LP  0  0  0  0  0  0  0  0  0  0  0  0  # atno 17370 bound_to 10713
  155.9756  130.4086  150.3837 LP  0  0  0  0  0  0  0  0  0  0  0  0  # atno 17371 bound_to 10713
  140.5371  134.0757  155.7331 LP  0  0  0  0  0  0  0  0  0  0  0  0  # atno 17394 bound_to 11000
  141.1352  133.9234  157.2450 LP  0  0  0  0  0  0  0  0  0  0  0  0  # atno 17395 bound_to 11000

$$$$
