AV-unprocessed.smi:2356|AV-procd|sdf|9398|dock3
  -GOLD-   2272013 33D 1   1.00000     0.00000
 Structure written by MMmdl.
 54 57  0  0  0  0  0  0  0  0  2 V2000
  147.5485  141.9655  154.1732 C   0  0  0  0  0  0  0  0  0  0  0  0
  148.6482  141.1556  154.8408 C   0  0  0  0  0  0  0  0  0  0  0  0
  149.5227  141.8501  155.6028 N   0  3  0  0  0  0  0  0  0  0  0  0
  150.5538  141.2860  156.2666 C   0  0  0  0  0  0  0  0  0  0  0  0
  151.3740  142.1415  157.0153 N   0  0  0  0  0  0  0  0  0  0  0  0
  152.2945  141.4728  157.9198 C   0  0  0  0  0  0  0  0  0  0  0  0
  152.7581  142.5494  158.9047 C   0  0  0  0  0  0  0  0  0  0  0  0
  151.6827  143.6401  158.8331 C   0  0  0  0  0  0  0  0  0  0  0  0
  150.6598  143.1172  157.8213 C   0  0  0  0  0  0  0  0  0  0  0  0
  150.7426  139.8889  156.1808 C   0  0  0  0  0  0  0  0  0  0  0  0
  149.8590  139.1190  155.3990 C   0  0  0  0  0  0  0  0  0  0  0  0
  148.7999  139.7522  154.6999 C   0  0  0  0  0  0  0  0  0  0  0  0
  147.8642  139.0333  153.9050 N   0  0  0  0  0  0  0  0  0  0  0  0
  147.2833  137.8422  154.1499 C   0  0  0  0  0  0  0  0  0  0  0  0
  147.4988  137.1506  155.1426 O   0  0  0  0  0  0  0  0  0  0  0  0
  146.4280  137.4379  153.1933 N   0  0  0  0  0  0  0  0  0  0  0  0
  145.6346  136.2077  153.1409 C   0  0  1  0  0  0  0  0  0  0  0  0
  144.1411  136.5603  153.0731 C   0  0  0  0  0  0  0  0  0  0  0  0
  143.2901  135.2957  152.8752 C   0  0  0  0  0  0  0  0  0  0  0  0
  143.7151  134.6012  151.7073 O   0  0  0  0  0  0  0  0  0  0  0  0
  145.0620  134.1450  151.7859 C   0  0  1  0  0  0  0  0  0  0  0  0
  145.3591  133.3285  150.5441 C   0  0  0  0  0  0  0  0  0  0  0  0
  144.2403  132.8301  149.6597 C   0  0  0  0  0  0  0  0  0  0  0  0
  145.0326  131.8538  150.4955 C   0  0  0  0  0  0  0  0  0  0  0  0
  146.0057  135.3547  151.9144 C   0  0  0  0  0  0  0  0  0  0  0  0
  146.8478  141.3535  153.6065 H   0  0  0  0  0  0  0  0  0  0  0  0
  147.9854  142.6930  153.4886 H   0  0  0  0  0  0  0  0  0  0  0  0
  146.9777  142.5107  154.9253 H   0  0  0  0  0  0  0  0  0  0  0  0
  151.7917  140.6670  158.4558 H   0  0  0  0  0  0  0  0  0  0  0  0
  153.1342  141.0403  157.3750 H   0  0  0  0  0  0  0  0  0  0  0  0
  152.8745  142.1469  159.9116 H   0  0  0  0  0  0  0  0  0  0  0  0
  153.7220  142.9571  158.5970 H   0  0  0  0  0  0  0  0  0  0  0  0
  151.2242  143.8368  159.8024 H   0  0  0  0  0  0  0  0  0  0  0  0
  152.1238  144.5724  158.4785 H   0  0  0  0  0  0  0  0  0  0  0  0
  150.2613  143.9214  157.2020 H   0  0  0  0  0  0  0  0  0  0  0  0
  149.8242  142.6474  158.3417 H   0  0  0  0  0  0  0  0  0  0  0  0
  151.5501  139.4043  156.7100 H   0  0  0  0  0  0  0  0  0  0  0  0
  150.0051  138.0508  155.3647 H   0  0  0  0  0  0  0  0  0  0  0  0
  147.6541  139.4451  153.0074 H   0  0  0  0  0  0  0  0  0  0  0  0
  146.2987  138.0703  152.4167 H   0  0  0  0  0  0  0  0  0  0  0  0
  145.8011  135.6259  154.0494 H   0  0  0  0  0  0  0  0  0  0  0  0
  143.8320  137.0795  153.9811 H   0  0  0  0  0  0  0  0  0  0  0  0
  143.9584  137.2453  152.2436 H   0  0  0  0  0  0  0  0  0  0  0  0
  143.3564  134.6412  153.7456 H   0  0  0  0  0  0  0  0  0  0  0  0
  142.2400  135.5657  152.7609 H   0  0  0  0  0  0  0  0  0  0  0  0
  145.1715  133.4992  152.6594 H   0  0  0  0  0  0  0  0  0  0  0  0
  146.2715  133.6275  150.0310 H   0  0  0  0  0  0  0  0  0  0  0  0
  143.2182  133.0413  149.9675 H   0  0  0  0  0  0  0  0  0  0  0  0
  144.4133  132.8306  148.5855 H   0  0  0  0  0  0  0  0  0  0  0  0
  145.7336  131.2014  149.9791 H   0  0  0  0  0  0  0  0  0  0  0  0
  144.5370  131.4154  151.3596 H   0  0  0  0  0  0  0  0  0  0  0  0
  145.9430  135.9623  151.0102 H   0  0  0  0  0  0  0  0  0  0  0  0
  147.0376  135.0099  151.9858 H   0  0  0  0  0  0  0  0  0  0  0  0
  149.3960  142.8594  155.6814 H   0  0  0  0  0  0  0  0  0  0  0  0
  1  2  1  0  0  0  0
  1 26  1  0  0  0  0
  1 27  1  0  0  0  0
  1 28  1  0  0  0  0
  2 12  1  0  0  0  0
  2  3  2  0  0  0  0
  3  4  1  0  0  0  0
  3 54  1  0  0  0  0
  4  5  1  0  0  0  0
  4 10  2  0  0  0  0
  5  9  1  0  0  0  0
  5  6  1  0  0  0  0
  6  7  1  0  0  0  0
  6 29  1  0  0  0  0
  6 30  1  0  0  0  0
  7  8  1  0  0  0  0
  7 31  1  0  0  0  0
  7 32  1  0  0  0  0
  8  9  1  0  0  0  0
  8 33  1  0  0  0  0
  8 34  1  0  0  0  0
  9 35  1  0  0  0  0
  9 36  1  0  0  0  0
 10 11  1  0  0  0  0
 10 37  1  0  0  0  0
 11 12  2  0  0  0  0
 11 38  1  0  0  0  0
 12 13  1  0  0  0  0
 13 14  1  0  0  0  0
 13 39  1  0  0  0  0
 14 15  2  0  0  0  0
 14 16  1  0  0  0  0
 16 17  1  0  0  0  0
 16 40  1  0  0  0  0
 17 25  1  0  0  0  0
 17 18  1  0  0  0  0
 17 41  1  0  0  0  0
 18 19  1  0  0  0  0
 18 42  1  0  0  0  0
 18 43  1  0  0  0  0
 19 20  1  0  0  0  0
 19 44  1  0  0  0  0
 19 45  1  0  0  0  0
 20 21  1  0  0  0  0
 21 22  1  0  0  0  0
 21 25  1  0  0  0  0
 21 46  1  0  0  0  0
 22 24  1  0  0  0  0
 22 23  1  0  0  0  0
 22 47  1  0  0  0  0
 23 24  1  0  0  0  0
 23 48  1  0  0  0  0
 23 49  1  0  0  0  0
 24 50  1  0  0  0  0
 24 51  1  0  0  0  0
 25 52  1  0  0  0  0
 25 53  1  0  0  0  0
M  CHG  1   3   1
M  END
> <s_m_source_file>
AV-unprocessed.smi

> <i_m_source_file_index>
2356

> <i_lp_mmshare_version>
43012

> <i_f3d_flags>
0

> <s_epik_input>
W0NIMl0xW0NIMl1bQ0gyXVtDSDJdTjFjKG5jMltDSDNdKVtjSF1bY0hdYzJbTkhdQyg9TylbTkhdW0NAQEhdM1tDSDJdW0NIMl1PW0NASF0oW0NIMl0zKVtDSF00W0NIMl1bQ0gyXTQ=

> <s_epik_cmdline>
J2VwaWtfcHl0aG9uJywgJy1waCcsICc3LjAnLCAnLXRuJywgJzgnLCAnLW1hJywgJzIwMCcsICctbWV0YWxfYmluZGluZycsICctaW1hZScsICc8aW5maWxlLm1hZT4nLCAnLW9tYWUnLCAnPG91dGZpbGUubWFlPic=

> <r_lp_tautomer_probability>
0.999994

> <r_epik_Ionization_Penalty>
0.534681

> <r_epik_Ionization_Penalty_Charging>
0.534661

> <r_epik_Ionization_Penalty_Neutral>
1.99132e-05

> <r_epik_State_Penalty>
0.543738

> <r_epik_Charging_Adjusted_Penalty>
1.0784

> <i_epik_Tot_Q>
1

> <i_epik_Tot_abs_Q>
1

> <r_epik_Metal_State_Penalty>
0.74699

> <b_epik_Metal_Only>
0

> <s_lp_Force_Field>
OPLS_2005

> <r_lp_Energy>
63.5996

> <b_lp_Chiralities_Consistent>
1

> <s_lp_Variant>
AV-unprocessed.smi:2356-6

> <Gold.Version>
5.8.1

> <Gold.Id.Protein>
6NUR|6NUR_protein|mol2

> <Gold.PLP.Fitness>
43.6556

> <Gold.PLP.PLP>
-39.7143

> <Gold.PLP.part.hbond>
-1.6533

> <Gold.PLP.part.metal>
0.0000

> <Gold.PLP.part.buried>
-5.0095

> <Gold.PLP.part.nonpolar>
-33.4912

> <Gold.PLP.part.repulsive>
0.4941

> <Gold.PLP.ligand.clash>
0.0000

> <Gold.PLP.ligand.torsion>
1.5739

> <Gold.PLP.Chemscore.Hbond>
2.0000

> <Gold.PLP.Chemscore.CHOScore>
0.0000

> <Gold.PLP.Chemscore.Metal>
0.0000

> <Gold.Chemscore.Hbonds>
donor molecule, donor type, donor heavy atom, donor atom, acceptor molecule, acceptor atom, score
      L1  H     3    54       P1  8028  2.00

> <Gold.PLP.Chemscore.Internal.Correction>
1.0890

> <Gold.Rescore>
     Score         DG    S(hbond)    S(metal)    S(lipo)     H(rot)  DE(clash)    DE(int)     intcor
     16.71     -19.16       1.00        0.00     116.99       1.31       0.46       1.99       ----

> <Gold.Chemscore.Fitness>
16.7052

> <Gold.Chemscore.DG>
-19.1607

> <Gold.Chemscore.ZeroCoef>
-5.4800

> <Gold.Chemscore.Hbond>
0.9987

> <Gold.Chemscore.Metal>
0.0000

> <Gold.Chemscore.Lipo>
116.9944

> <Gold.Chemscore.Internal_Hbond>
0.0000

> <Gold.Chemscore.DEClash>
0.4645

> <Gold.Chemscore.DEInternal>
1.9911

> <Gold.Chemscore.Rot>
1.3060

> <Gold.Chemscore.Internal.Correction>
   9.000000E+99

> <Gold.Chemscore.Hbonds>
donor molecule, donor type, donor heavy atom, donor atom, acceptor molecule, acceptor atom, score
      L1  H     3    54       P1  8028  1.00

> <Gold.Chemscore.Hbond.Weighted>
-3.3357

> <Gold.Chemscore.Metal.Weighted>
-0.0000

> <Gold.Chemscore.Lipo.Weighted>
-13.6883

> <Gold.Chemscore.Internal_Hbond.Weighted>
0.0000

> <Gold.Chemscore.DEClash.Weighted>
0.4645

> <Gold.Chemscore.DEInternal.Weighted>
1.9911

> <Gold.Chemscore.Rot.Weighted>
3.3433

> <Gold.Chemscore.Internal.Correction.Weighted>
   9.000000E+99

> <Gold.Protein.RotatedTorsions>
[ 6907 6896 6895 6894 ] final  -38.07 input  -60.11 | X-H torsion
[ 7974 7965 7964 7962 ] final   78.44 input  175.53 | X-H torsion
[ 8008 7997 7996 7995 ] final   77.34 input   59.86 | X-H torsion
[ 10167 10162 10161 10158 ] final  117.77 input  -65.29 | X-H torsion
[ 10718 10713 10712 10709 ] final   14.33 input   66.30 | X-H torsion
[ 10763 10752 10751 10750 ] final   20.84 input  -60.55 | X-H torsion
[ 11005 11000 10999 10996 ] final  116.23 input  -57.11 | X-H torsion

> <Gold.Protein.ActiveResidues>
 VAL166  LYS551  ARG553  GLY616  TRP617  ASP618  TYR619  PRO620  LYS621  CYS622 
 ASP623  PHE694  ASN695  SER759  ASP760  ASP761  ALA762  ILE779  LEU786  VAL792 
 PHE793  MET794  SER795  GLU796  ALA797  LYS798  CYS799  TRP800  GLU811  SER814 

> <Gold.Protein.RotatedAtoms>
  151.0069  134.9366  159.7985 H   0  0  0  0  0  0  0  0  0  0  0  0  # atno 6907 bound_to 6896
  152.5292  134.3080  159.9113 H   0  0  0  0  0  0  0  0  0  0  0  0  # atno 6908 bound_to 6896
  151.3085  133.4049  159.2679 H   0  0  0  0  0  0  0  0  0  0  0  0  # atno 6909 bound_to 6896
  145.6771  139.2513  143.1835 H   0  0  0  0  0  0  0  0  0  0  0  0  # atno 7974 bound_to 7965
  155.8403  140.3462  155.5627 H   0  0  0  0  0  0  0  0  0  0  0  0  # atno 8008 bound_to 7997
  155.8148  140.0904  157.1903 H   0  0  0  0  0  0  0  0  0  0  0  0  # atno 8009 bound_to 7997
  154.4005  140.1441  156.3417 H   0  0  0  0  0  0  0  0  0  0  0  0  # atno 8010 bound_to 7997
  139.6156  144.7091  151.2746 H   0  0  0  0  0  0  0  0  0  0  0  0  # atno 10167 bound_to 10162
  157.0375  130.6218  149.5745 H   0  0  0  0  0  0  0  0  0  0  0  0  # atno 10718 bound_to 10713
  153.1044  135.6681  153.9613 H   0  0  0  0  0  0  0  0  0  0  0  0  # atno 10763 bound_to 10752
  153.9174  135.3018  155.3449 H   0  0  0  0  0  0  0  0  0  0  0  0  # atno 10764 bound_to 10752
  154.7465  135.5055  153.9290 H   0  0  0  0  0  0  0  0  0  0  0  0  # atno 10765 bound_to 10752
  139.9034  134.9595  156.7166 H   0  0  0  0  0  0  0  0  0  0  0  0  # atno 11005 bound_to 11000
  146.0996  140.7560  142.9556 LP  0  0  0  0  0  0  0  0  0  0  0  0  # atno 17320 bound_to 7965
  144.7038  140.3766  143.7135 LP  0  0  0  0  0  0  0  0  0  0  0  0  # atno 17321 bound_to 7965
  140.7349  143.6753  150.8047 LP  0  0  0  0  0  0  0  0  0  0  0  0  # atno 17342 bound_to 10162
  140.0355  143.5399  152.2741 LP  0  0  0  0  0  0  0  0  0  0  0  0  # atno 17343 bound_to 10162
  156.0049  130.5134  150.7794 LP  0  0  0  0  0  0  0  0  0  0  0  0  # atno 17370 bound_to 10713
  157.5130  131.0926  151.0174 LP  0  0  0  0  0  0  0  0  0  0  0  0  # atno 17371 bound_to 10713
  140.7033  133.9287  155.8038 LP  0  0  0  0  0  0  0  0  0  0  0  0  # atno 17394 bound_to 11000
  141.0355  134.0696  157.3964 LP  0  0  0  0  0  0  0  0  0  0  0  0  # atno 17395 bound_to 11000

$$$$
