AV-unprocessed.smi:2858|AV-procd|sdf|11000|dock2
  -GOLD-   2272015453D 1   1.00000     0.00000
 Structure written by MMmdl.
 40 41  0  0  0  0  0  0  0  0  2 V2000
  145.2823  135.7715  152.9446 O   0  0  0  0  0  0  0  0  0  0  0  0
  145.7037  136.9044  152.7271 C   0  0  0  0  0  0  0  0  0  0  0  0
  145.8852  137.8842  153.8966 C   0  0  0  0  0  0  0  0  0  0  0  0
  146.0317  139.3024  153.4781 N   0  3  1  0  0  0  0  0  0  0  0  0
  146.3131  140.1990  154.6270 C   0  0  0  0  0  0  0  0  0  0  0  0
  146.9983  141.5068  154.1967 C   0  0  0  0  0  0  0  0  0  0  0  0
  148.5263  141.3608  154.1016 C   0  0  0  0  0  0  0  0  0  0  0  0
  149.2123  142.2422  155.0399 N   0  0  0  0  0  0  0  0  0  0  0  0
  150.0668  141.8330  155.9894 C   0  0  0  0  0  0  0  0  0  0  0  0
  150.3705  140.6519  156.1604 O   0  0  0  0  0  0  0  0  0  0  0  0
  150.5361  142.8700  156.7056 N   0  0  0  0  0  0  0  0  0  0  0  0
  151.4612  142.8441  157.7835 C   0  0  0  0  0  0  0  0  0  0  0  0
  151.8660  144.1131  158.2564 C   0  0  0  0  0  0  0  0  0  0  0  0
  152.7828  144.1949  159.3225 C   0  0  0  0  0  0  0  0  0  0  0  0
  153.2701  143.0043  159.8903 C   0  0  0  0  0  0  0  0  0  0  0  0
  152.8159  141.7826  159.3605 C   0  0  0  0  0  0  0  0  0  0  0  0
  151.9387  141.7016  158.3378 N   0  0  0  0  0  0  0  0  0  0  0  0
  146.9943  139.4490  152.3594 C   0  0  0  0  0  0  0  0  0  0  0  0
  146.5154  138.6446  151.1382 C   0  0  0  0  0  0  0  0  0  0  0  0
  146.0181  137.3162  151.4881 N   0  0  0  0  0  0  0  0  0  0  0  0
  145.0311  137.7915  154.5689 H   0  0  0  0  0  0  0  0  0  0  0  0
  146.7695  137.5782  154.4576 H   0  0  0  0  0  0  0  0  0  0  0  0
  145.3721  140.4565  155.1153 H   0  0  0  0  0  0  0  0  0  0  0  0
  146.9126  139.6716  155.3708 H   0  0  0  0  0  0  0  0  0  0  0  0
  146.6109  141.8306  153.2313 H   0  0  0  0  0  0  0  0  0  0  0  0
  146.7537  142.2974  154.9075 H   0  0  0  0  0  0  0  0  0  0  0  0
  148.8178  140.3343  154.3256 H   0  0  0  0  0  0  0  0  0  0  0  0
  148.8677  141.5658  153.0854 H   0  0  0  0  0  0  0  0  0  0  0  0
  149.0161  143.2300  154.9669 H   0  0  0  0  0  0  0  0  0  0  0  0
  150.1945  143.7846  156.4500 H   0  0  0  0  0  0  0  0  0  0  0  0
  151.4811  145.0181  157.8093 H   0  0  0  0  0  0  0  0  0  0  0  0
  153.1052  145.1547  159.6980 H   0  0  0  0  0  0  0  0  0  0  0  0
  153.9731  143.0263  160.7099 H   0  0  0  0  0  0  0  0  0  0  0  0
  153.1651  140.8454  159.7680 H   0  0  0  0  0  0  0  0  0  0  0  0
  147.1169  140.4929  152.0732 H   0  0  0  0  0  0  0  0  0  0  0  0
  147.9744  139.0939  152.6825 H   0  0  0  0  0  0  0  0  0  0  0  0
  145.7039  139.1794  150.6435 H   0  0  0  0  0  0  0  0  0  0  0  0
  147.3189  138.5495  150.4075 H   0  0  0  0  0  0  0  0  0  0  0  0
  145.8976  136.6599  150.7295 H   0  0  0  0  0  0  0  0  0  0  0  0
  145.1296  139.5766  153.1160 H   0  0  0  0  0  0  0  0  0  0  0  0
  1  2  2  0  0  0  0
  2 20  1  0  0  0  0
  2  3  1  0  0  0  0
  3  4  1  0  0  0  0
  3 21  1  0  0  0  0
  3 22  1  0  0  0  0
  4  5  1  0  0  0  0
  4 18  1  0  0  0  0
  4 40  1  0  0  0  0
  5  6  1  0  0  0  0
  5 23  1  0  0  0  0
  5 24  1  0  0  0  0
  6  7  1  0  0  0  0
  6 25  1  0  0  0  0
  6 26  1  0  0  0  0
  7  8  1  0  0  0  0
  7 27  1  0  0  0  0
  7 28  1  0  0  0  0
  8  9  1  0  0  0  0
  8 29  1  0  0  0  0
  9 10  2  0  0  0  0
  9 11  1  0  0  0  0
 11 12  1  0  0  0  0
 11 30  1  0  0  0  0
 12 17  1  0  0  0  0
 12 13  2  0  0  0  0
 13 14  1  0  0  0  0
 13 31  1  0  0  0  0
 14 15  2  0  0  0  0
 14 32  1  0  0  0  0
 15 16  1  0  0  0  0
 15 33  1  0  0  0  0
 16 17  2  0  0  0  0
 16 34  1  0  0  0  0
 18 19  1  0  0  0  0
 18 35  1  0  0  0  0
 18 36  1  0  0  0  0
 19 20  1  0  0  0  0
 19 37  1  0  0  0  0
 19 38  1  0  0  0  0
 20 39  1  0  0  0  0
M  CHG  1   4   1
M  END
> <s_m_source_file>
AV-unprocessed.smi

> <i_m_source_file_index>
2858

> <i_lp_mmshare_version>
43012

> <i_f3d_flags>
0

> <s_epik_input>
Tz1DMVtDSDJdTihbQ0gyXVtDSDJdW05IXTEpW0NIMl1bQ0gyXVtDSDJdW05IXUMoPU8pW05IXWMyW2NIXVtjSF1bY0hdW2NIXW4y

> <s_epik_cmdline>
J2VwaWtfcHl0aG9uJywgJy1waCcsICc3LjAnLCAnLXRuJywgJzgnLCAnLW1hJywgJzIwMCcsICctbWV0YWxfYmluZGluZycsICctaW1hZScsICc8aW5maWxlLm1hZT4nLCAnLW9tYWUnLCAnPG91dGZpbGUubWFlPic=

> <r_epik_Ionization_Penalty>
0.11034

> <r_epik_Ionization_Penalty_Charging>
0.110189

> <r_epik_Ionization_Penalty_Neutral>
0.000150894

> <r_epik_State_Penalty>
0.0999426

> <r_epik_Charging_Adjusted_Penalty>
0.210132

> <i_epik_Tot_Q>
1

> <i_epik_Tot_abs_Q>
1

> <r_epik_Metal_State_Penalty>
0.172915

> <b_epik_Metal_Only>
0

> <s_lp_Force_Field>
OPLS_2005

> <r_lp_Energy>
20.0709

> <b_lp_Chiralities_Consistent>
1

> <s_lp_Variant>
AV-unprocessed.smi:2858-2

> <Gold.Version>
5.8.1

> <Gold.Id.Protein>
6NUR|6NUR_protein|mol2

> <Gold.PLP.Fitness>
49.1493

> <Gold.PLP.PLP>
-38.9060

> <Gold.PLP.part.hbond>
-4.6267

> <Gold.PLP.part.metal>
0.0000

> <Gold.PLP.part.buried>
-0.1529

> <Gold.PLP.part.nonpolar>
-35.0994

> <Gold.PLP.part.repulsive>
0.4593

> <Gold.PLP.ligand.clash>
0.0000

> <Gold.PLP.ligand.torsion>
0.8390

> <Gold.PLP.Chemscore.Hbond>
3.9600

> <Gold.PLP.Chemscore.CHOScore>
0.0000

> <Gold.PLP.Chemscore.Metal>
0.0000

> <Gold.Chemscore.Hbonds>
donor molecule, donor type, donor heavy atom, donor atom, acceptor molecule, acceptor atom, score
      L1  H     4    40       P1 10175  2.00
      L1  H     8    29       P1  8028  1.00
      L1  H    11    30       P1  8028  0.94

> <Gold.PLP.Chemscore.Internal.Correction>
0.0413

> <Gold.Rescore>
     Score         DG    S(hbond)    S(metal)    S(lipo)     H(rot)  DE(clash)    DE(int)     intcor
     16.92     -20.40       2.88        0.00      90.69       2.08       1.34       2.14       ----

> <Gold.Chemscore.Fitness>
16.9198

> <Gold.Chemscore.DG>
-20.3997

> <Gold.Chemscore.ZeroCoef>
-5.4800

> <Gold.Chemscore.Hbond>
2.8824

> <Gold.Chemscore.Metal>
0.0000

> <Gold.Chemscore.Lipo>
90.6933

> <Gold.Chemscore.Internal_Hbond>
0.0000

> <Gold.Chemscore.DEClash>
1.3355

> <Gold.Chemscore.DEInternal>
2.1445

> <Gold.Chemscore.Rot>
2.0777

> <Gold.Chemscore.Internal.Correction>
   9.000000E+99

> <Gold.Chemscore.Hbonds>
donor molecule, donor type, donor heavy atom, donor atom, acceptor molecule, acceptor atom, score
      L1  H     4    40       P1 10175  1.00
      L1  H     8    29       P1  8028  0.96
      L1  H    11    30       P1  8028  0.92

> <Gold.Chemscore.Hbond.Weighted>
-9.6274

> <Gold.Chemscore.Metal.Weighted>
-0.0000

> <Gold.Chemscore.Lipo.Weighted>
-10.6111

> <Gold.Chemscore.Internal_Hbond.Weighted>
0.0000

> <Gold.Chemscore.DEClash.Weighted>
1.3355

> <Gold.Chemscore.DEInternal.Weighted>
2.1445

> <Gold.Chemscore.Rot.Weighted>
5.3188

> <Gold.Chemscore.Internal.Correction.Weighted>
   9.000000E+99

> <Gold.Protein.RotatedTorsions>
[ 6907 6896 6895 6894 ] final   -6.32 input  -60.11 | X-H torsion
[ 7974 7965 7964 7962 ] final  164.34 input  175.53 | X-H torsion
[ 8008 7997 7996 7995 ] final  104.49 input   59.86 | X-H torsion
[ 10167 10162 10161 10158 ] final  -12.00 input  -65.29 | X-H torsion
[ 10718 10713 10712 10709 ] final    5.92 input   66.30 | X-H torsion
[ 10763 10752 10751 10750 ] final   33.38 input  -60.55 | X-H torsion
[ 11005 11000 10999 10996 ] final  131.08 input  -57.11 | X-H torsion

> <Gold.Protein.ActiveResidues>
 VAL166  LYS551  ARG553  GLY616  TRP617  ASP618  TYR619  PRO620  LYS621  CYS622 
 ASP623  PHE694  ASN695  SER759  ASP760  ASP761  ALA762  ILE779  LEU786  VAL792 
 PHE793  MET794  SER795  GLU796  ALA797  LYS798  CYS799  TRP800  GLU811  SER814 

> <Gold.Protein.RotatedAtoms>
  151.4675  135.1043  159.9741 H   0  0  0  0  0  0  0  0  0  0  0  0  # atno 6907 bound_to 6896
  152.4829  133.8296  159.7107 H   0  0  0  0  0  0  0  0  0  0  0  0  # atno 6908 bound_to 6896
  150.8915  133.7176  159.2930 H   0  0  0  0  0  0  0  0  0  0  0  0  # atno 6909 bound_to 6896
  144.7549  139.8312  143.6353 H   0  0  0  0  0  0  0  0  0  0  0  0  # atno 7974 bound_to 7965
  156.1578  140.3147  155.8755 H   0  0  0  0  0  0  0  0  0  0  0  0  # atno 8008 bound_to 7997
  155.3844  140.0489  157.3060 H   0  0  0  0  0  0  0  0  0  0  0  0  # atno 8009 bound_to 7997
  154.5117  140.2167  155.9154 H   0  0  0  0  0  0  0  0  0  0  0  0  # atno 8010 bound_to 7997
  140.7151  143.5579  150.9228 H   0  0  0  0  0  0  0  0  0  0  0  0  # atno 10167 bound_to 10162
  156.9145  130.5768  149.5647 H   0  0  0  0  0  0  0  0  0  0  0  0  # atno 10718 bound_to 10713
  153.0215  135.6388  154.1503 H   0  0  0  0  0  0  0  0  0  0  0  0  # atno 10763 bound_to 10752
  154.1237  135.2845  155.3204 H   0  0  0  0  0  0  0  0  0  0  0  0  # atno 10764 bound_to 10752
  154.6245  135.5513  153.7674 H   0  0  0  0  0  0  0  0  0  0  0  0  # atno 10765 bound_to 10752
  139.9709  134.9577  156.9386 H   0  0  0  0  0  0  0  0  0  0  0  0  # atno 11005 bound_to 11000
  146.1547  139.4641  143.0026 LP  0  0  0  0  0  0  0  0  0  0  0  0  # atno 17320 bound_to 7965
  145.6813  141.0190  143.1605 LP  0  0  0  0  0  0  0  0  0  0  0  0  # atno 17321 bound_to 7965
  139.9304  143.6500  152.3077 LP  0  0  0  0  0  0  0  0  0  0  0  0  # atno 17342 bound_to 10162
  139.6948  144.7642  151.1375 LP  0  0  0  0  0  0  0  0  0  0  0  0  # atno 17343 bound_to 10162
  156.0520  130.5588  150.9010 LP  0  0  0  0  0  0  0  0  0  0  0  0  # atno 17370 bound_to 10713
  157.5946  131.0943  150.9061 LP  0  0  0  0  0  0  0  0  0  0  0  0  # atno 17371 bound_to 10713
  140.5295  134.0827  155.7312 LP  0  0  0  0  0  0  0  0  0  0  0  0  # atno 17394 bound_to 11000
  141.1388  133.9174  157.2372 LP  0  0  0  0  0  0  0  0  0  0  0  0  # atno 17395 bound_to 11000

$$$$
