AV-unprocessed.smi:792|AV-procd|sdf|3750|dock4
  -GOLD-   22720 1183D 1   1.00000     0.00000
 Structure written by MMmdl.
 46 47  0  0  0  0  0  0  0  0  1 V2000
  151.7638  145.4408  159.2385 C   0  0  0  0  0  0  0  0  0  0  0  0
  151.9080  143.9363  159.1423 C   0  0  0  0  0  0  0  0  0  0  0  0
  152.7372  143.2294  160.0386 C   0  0  0  0  0  0  0  0  0  0  0  0
  152.8334  141.8312  159.9023 C   0  0  0  0  0  0  0  0  0  0  0  0
  152.0995  141.1955  158.8800 C   0  0  0  0  0  0  0  0  0  0  0  0
  152.1691  139.6935  158.6894 C   0  0  0  0  0  0  0  0  0  0  0  0
  151.3481  139.2249  157.4813 C   0  0  0  0  0  0  0  0  0  0  0  0
  150.1455  138.5314  157.9197 N   0  0  0  0  0  0  0  0  0  0  0  0
  150.1439  137.4574  158.7191 C   0  0  0  0  0  0  0  0  0  0  0  0
  151.1608  136.9467  159.1892 O   0  0  0  0  0  0  0  0  0  0  0  0
  148.9017  137.0047  158.9430 N   0  0  0  0  0  0  0  0  0  0  0  0
  148.5644  135.8589  159.7864 C   0  0  0  0  0  0  0  0  0  0  0  0
  147.6835  136.2254  160.9964 C   0  0  0  0  0  0  0  0  0  0  0  0
  147.3258  137.3961  161.1426 O   0  0  0  0  0  0  0  0  0  0  0  0
  147.3214  135.2477  161.8630 N   0  0  0  0  0  0  0  0  0  0  0  0
  147.6773  133.8364  161.6613 C   0  0  0  0  0  0  0  0  0  0  0  0
  146.3987  133.0404  161.3411 C   0  0  0  0  0  0  0  0  0  0  0  0
  145.3430  133.2226  162.4478 C   0  0  0  0  0  0  0  0  0  0  0  0
  145.1152  134.7102  162.7760 C   0  0  0  0  0  0  0  0  0  0  0  0
  146.4540  135.4240  163.0366 C   0  0  0  0  0  0  0  0  0  0  0  0
  151.3010  141.9949  158.0352 C   0  0  0  0  0  0  0  0  0  0  0  0
  151.2024  143.3361  158.1584 N   0  0  0  0  0  0  0  0  0  0  0  0
  152.3628  145.8442  160.0555 H   0  0  0  0  0  0  0  0  0  0  0  0
  150.7225  145.7119  159.4147 H   0  0  0  0  0  0  0  0  0  0  0  0
  152.0909  145.9132  158.3119 H   0  0  0  0  0  0  0  0  0  0  0  0
  153.2877  143.7435  160.8127 H   0  0  0  0  0  0  0  0  0  0  0  0
  153.4607  141.2593  160.5701 H   0  0  0  0  0  0  0  0  0  0  0  0
  153.2127  139.3983  158.5713 H   0  0  0  0  0  0  0  0  0  0  0  0
  151.8115  139.2054  159.5973 H   0  0  0  0  0  0  0  0  0  0  0  0
  151.0667  140.0804  156.8648 H   0  0  0  0  0  0  0  0  0  0  0  0
  151.9438  138.5580  156.8562 H   0  0  0  0  0  0  0  0  0  0  0  0
  149.2610  138.8873  157.5878 H   0  0  0  0  0  0  0  0  0  0  0  0
  148.1308  137.4963  158.5149 H   0  0  0  0  0  0  0  0  0  0  0  0
  148.0308  135.1375  159.1673 H   0  0  0  0  0  0  0  0  0  0  0  0
  149.4819  135.3755  160.1265 H   0  0  0  0  0  0  0  0  0  0  0  0
  148.4095  133.6913  160.8662 H   0  0  0  0  0  0  0  0  0  0  0  0
  148.1440  133.4480  162.5677 H   0  0  0  0  0  0  0  0  0  0  0  0
  145.9906  133.3777  160.3872 H   0  0  0  0  0  0  0  0  0  0  0  0
  146.6347  131.9826  161.2215 H   0  0  0  0  0  0  0  0  0  0  0  0
  144.4041  132.7512  162.1563 H   0  0  0  0  0  0  0  0  0  0  0  0
  145.6800  132.7078  163.3484 H   0  0  0  0  0  0  0  0  0  0  0  0
  144.5985  135.1951  161.9466 H   0  0  0  0  0  0  0  0  0  0  0  0
  144.4632  134.8040  163.6448 H   0  0  0  0  0  0  0  0  0  0  0  0
  146.9423  134.9877  163.9093 H   0  0  0  0  0  0  0  0  0  0  0  0
  146.2748  136.4647  163.3008 H   0  0  0  0  0  0  0  0  0  0  0  0
  150.7261  141.5475  157.2377 H   0  0  0  0  0  0  0  0  0  0  0  0
  1  2  1  0  0  0  0
  1 23  1  0  0  0  0
  1 24  1  0  0  0  0
  1 25  1  0  0  0  0
  2 22  1  0  0  0  0
  2  3  2  0  0  0  0
  3  4  1  0  0  0  0
  3 26  1  0  0  0  0
  4  5  2  0  0  0  0
  4 27  1  0  0  0  0
  5  6  1  0  0  0  0
  5 21  1  0  0  0  0
  6  7  1  0  0  0  0
  6 28  1  0  0  0  0
  6 29  1  0  0  0  0
  7  8  1  0  0  0  0
  7 30  1  0  0  0  0
  7 31  1  0  0  0  0
  8  9  1  0  0  0  0
  8 32  1  0  0  0  0
  9 10  2  0  0  0  0
  9 11  1  0  0  0  0
 11 12  1  0  0  0  0
 11 33  1  0  0  0  0
 12 13  1  0  0  0  0
 12 34  1  0  0  0  0
 12 35  1  0  0  0  0
 13 14  2  0  0  0  0
 13 15  1  0  0  0  0
 15 20  1  0  0  0  0
 15 16  1  0  0  0  0
 16 17  1  0  0  0  0
 16 36  1  0  0  0  0
 16 37  1  0  0  0  0
 17 18  1  0  0  0  0
 17 38  1  0  0  0  0
 17 39  1  0  0  0  0
 18 19  1  0  0  0  0
 18 40  1  0  0  0  0
 18 41  1  0  0  0  0
 19 20  1  0  0  0  0
 19 42  1  0  0  0  0
 19 43  1  0  0  0  0
 20 44  1  0  0  0  0
 20 45  1  0  0  0  0
 21 22  2  0  0  0  0
 21 46  1  0  0  0  0
M  END
> <s_m_source_file>
AV-unprocessed.smi

> <i_m_source_file_index>
792

> <i_lp_mmshare_version>
43012

> <i_f3d_flags>
0

> <s_epik_input>
W0NIM11jMVtjSF1bY0hdYyhbY0hdbjEpW0NIMl1bQ0gyXVtOSF1DKD1PKVtOSF1bQ0gyXUMoPU8pTjJbQ0gyXVtDSDJdW0NIMl1bQ0gyXVtDSDJdMg==

> <s_epik_cmdline>
J2VwaWtfcHl0aG9uJywgJy1waCcsICc3LjAnLCAnLXRuJywgJzgnLCAnLW1hJywgJzIwMCcsICctbWV0YWxfYmluZGluZycsICctaW1hZScsICc8aW5maWxlLm1hZT4nLCAnLW9tYWUnLCAnPG91dGZpbGUubWFlPic=

> <r_epik_Ionization_Penalty>
0.0629971

> <r_epik_Ionization_Penalty_Charging>
0

> <r_epik_Ionization_Penalty_Neutral>
0.0629971

> <r_epik_State_Penalty>
0.0547377

> <r_epik_Charging_Adjusted_Penalty>
0.0547377

> <i_epik_Tot_Q>
0

> <i_epik_Tot_abs_Q>
0

> <r_epik_Metal_State_Penalty>
0.0494478

> <b_epik_Metal_Only>
0

> <s_lp_Force_Field>
OPLS_2005

> <r_lp_Energy>
16.0081

> <b_lp_Chiralities_Consistent>
1

> <s_lp_Variant>
AV-unprocessed.smi:792-1

> <Gold.Version>
5.8.1

> <Gold.Id.Protein>
6NUR|6NUR_protein|mol2

> <Gold.PLP.Fitness>
56.1386

> <Gold.PLP.PLP>
-48.5029

> <Gold.PLP.part.hbond>
-3.0000

> <Gold.PLP.part.metal>
0.0000

> <Gold.PLP.part.buried>
-6.1918

> <Gold.PLP.part.nonpolar>
-40.4826

> <Gold.PLP.part.repulsive>
0.3521

> <Gold.PLP.ligand.clash>
0.0000

> <Gold.PLP.ligand.torsion>
0.3566

> <Gold.PLP.Chemscore.Hbond>
2.7760

> <Gold.PLP.Chemscore.CHOScore>
0.0000

> <Gold.PLP.Chemscore.Metal>
0.0000

> <Gold.Chemscore.Hbonds>
donor molecule, donor type, donor heavy atom, donor atom, acceptor molecule, acceptor atom, score
      P1  H  6896  6907       L1    10  1.00
      P1  H  6931  6943       L1    14  0.71
      P1  H  6934  6947       L1    14  1.00

> <Gold.PLP.Chemscore.Internal.Correction>
0.0210

> <Gold.Rescore>
     Score         DG    S(hbond)    S(metal)    S(lipo)     H(rot)  DE(clash)    DE(int)     intcor
     22.01     -22.97       2.59        0.00     114.29       1.78       0.51       0.45       ----

> <Gold.Chemscore.Fitness>
22.0065

> <Gold.Chemscore.DG>
-22.9685

> <Gold.Chemscore.ZeroCoef>
-5.4800

> <Gold.Chemscore.Hbond>
2.5932

> <Gold.Chemscore.Metal>
0.0000

> <Gold.Chemscore.Lipo>
114.2868

> <Gold.Chemscore.Internal_Hbond>
0.0000

> <Gold.Chemscore.DEClash>
0.5136

> <Gold.Chemscore.DEInternal>
0.4485

> <Gold.Chemscore.Rot>
1.7751

> <Gold.Chemscore.Internal.Correction>
   9.000000E+99

> <Gold.Chemscore.Hbonds>
donor molecule, donor type, donor heavy atom, donor atom, acceptor molecule, acceptor atom, score
      P1  H  6896  6907       L1    10  0.94
      P1  H  6931  6943       L1    14  0.24
      P1  H  6934  6947       L1    14  0.96

> <Gold.Chemscore.Hbond.Weighted>
-8.6611

> <Gold.Chemscore.Metal.Weighted>
-0.0000

> <Gold.Chemscore.Lipo.Weighted>
-13.3716

> <Gold.Chemscore.Internal_Hbond.Weighted>
0.0000

> <Gold.Chemscore.DEClash.Weighted>
0.5136

> <Gold.Chemscore.DEInternal.Weighted>
0.4485

> <Gold.Chemscore.Rot.Weighted>
4.5441

> <Gold.Chemscore.Internal.Correction.Weighted>
   9.000000E+99

> <Gold.Protein.RotatedTorsions>
[ 6907 6896 6895 6894 ] final  -26.28 input  -60.11 | X-H torsion
[ 7974 7965 7964 7962 ] final   82.00 input  175.53 | X-H torsion
[ 8008 7997 7996 7995 ] final  123.82 input   59.86 | X-H torsion
[ 10167 10162 10161 10158 ] final   74.72 input  -65.29 | X-H torsion
[ 10718 10713 10712 10709 ] final -162.58 input   66.30 | X-H torsion
[ 10763 10752 10751 10750 ] final  140.82 input  -60.55 | X-H torsion
[ 11005 11000 10999 10996 ] final  -44.13 input  -57.11 | X-H torsion

> <Gold.Protein.ActiveResidues>
 VAL166  LYS551  ARG553  GLY616  TRP617  ASP618  TYR619  PRO620  LYS621  CYS622 
 ASP623  PHE694  ASN695  SER759  ASP760  ASP761  ALA762  ILE779  LEU786  VAL792 
 PHE793  MET794  SER795  GLU796  ALA797  LYS798  CYS799  TRP800  GLU811  SER814 

> <Gold.Protein.RotatedAtoms>
  151.1632  135.0283  159.8719 H   0  0  0  0  0  0  0  0  0  0  0  0  # atno 6907 bound_to 6896
  152.5451  134.1255  159.8427 H   0  0  0  0  0  0  0  0  0  0  0  0  # atno 6908 bound_to 6896
  151.1352  133.4963  159.2630 H   0  0  0  0  0  0  0  0  0  0  0  0  # atno 6909 bound_to 6896
  145.6308  139.2404  143.2086 H   0  0  0  0  0  0  0  0  0  0  0  0  # atno 7974 bound_to 7965
  156.2780  140.2754  156.1689 H   0  0  0  0  0  0  0  0  0  0  0  0  # atno 8008 bound_to 7997
  155.0675  140.0387  157.2615 H   0  0  0  0  0  0  0  0  0  0  0  0  # atno 8009 bound_to 7997
  154.7067  140.2660  155.6673 H   0  0  0  0  0  0  0  0  0  0  0  0  # atno 8010 bound_to 7997
  140.0106  144.5616  150.7661 H   0  0  0  0  0  0  0  0  0  0  0  0  # atno 10167 bound_to 10162
  156.6124  130.8856  151.2939 H   0  0  0  0  0  0  0  0  0  0  0  0  # atno 10718 bound_to 10713
  153.9290  135.2992  155.3446 H   0  0  0  0  0  0  0  0  0  0  0  0  # atno 10763 bound_to 10752
  154.7536  135.4968  153.9337 H   0  0  0  0  0  0  0  0  0  0  0  0  # atno 10764 bound_to 10752
  153.1101  135.6757  153.9620 H   0  0  0  0  0  0  0  0  0  0  0  0  # atno 10765 bound_to 10752
  141.0430  133.6772  156.2829 H   0  0  0  0  0  0  0  0  0  0  0  0  # atno 11005 bound_to 11000
  146.1358  140.7124  142.9390 LP  0  0  0  0  0  0  0  0  0  0  0  0  # atno 17320 bound_to 7965
  144.7194  140.4323  143.7019 LP  0  0  0  0  0  0  0  0  0  0  0  0  # atno 17321 bound_to 7965
  140.7383  143.2776  151.3695 LP  0  0  0  0  0  0  0  0  0  0  0  0  # atno 17342 bound_to 10162
  139.6207  144.0912  152.2389 LP  0  0  0  0  0  0  0  0  0  0  0  0  # atno 17343 bound_to 10162
  157.7250  130.9610  150.1598 LP  0  0  0  0  0  0  0  0  0  0  0  0  # atno 17370 bound_to 10713
  156.2379  130.3688  149.8371 LP  0  0  0  0  0  0  0  0  0  0  0  0  # atno 17371 bound_to 10713
  140.6199  134.5372  157.5546 LP  0  0  0  0  0  0  0  0  0  0  0  0  # atno 17394 bound_to 11000
  139.9290  134.8000  156.0985 LP  0  0  0  0  0  0  0  0  0  0  0  0  # atno 17395 bound_to 11000

$$$$
