AV-unprocessed.smi:1263|AV-procd|sdf|5310|dock1
  -GOLD-   22720 4433D 1   1.00000     0.00000
 Structure written by MMmdl.
 44 46  0  0  0  0  0  0  0  0  2 V2000
  145.0314  142.8994  155.6678 C   0  0  0  0  0  0  0  0  0  0  0  0
  145.3360  141.6969  154.9698 O   0  0  0  0  0  0  0  0  0  0  0  0
  146.6590  141.3115  154.8652 C   0  0  0  0  0  0  0  0  0  0  0  0
  147.5987  142.0486  155.5093 N   0  0  0  0  0  0  0  0  0  0  0  0
  148.8910  141.6771  155.4033 C   0  0  0  0  0  0  0  0  0  0  0  0
  149.3137  140.5659  154.6510 C   0  0  0  0  0  0  0  0  0  0  0  0
  148.3413  139.7995  153.9827 C   0  0  0  0  0  0  0  0  0  0  0  0
  146.9786  140.1673  154.0970 C   0  0  0  0  0  0  0  0  0  0  0  0
  145.9193  139.4748  153.4479 N   0  0  0  0  0  0  0  0  0  0  0  0
  145.8513  138.1758  153.1111 C   0  0  0  0  0  0  0  0  0  0  0  0
  146.7235  137.3354  153.3301 O   0  0  0  0  0  0  0  0  0  0  0  0
  144.6866  137.8907  152.5109 N   0  0  0  0  0  0  0  0  0  0  0  0
  144.2832  136.5662  152.0472 C   0  0  2  0  0  0  0  0  0  0  0  0
  144.0638  135.6064  153.2323 C   0  0  0  0  0  0  0  0  0  0  0  0
  143.7348  134.1869  152.7408 C   0  0  0  0  0  0  0  0  0  0  0  0
  144.7976  133.6737  151.8410 N   0  3  1  0  0  0  0  0  0  0  0  0
  144.5596  132.2695  151.4420 C   0  0  0  0  0  0  0  0  0  0  0  0
  145.2948  131.8619  150.1864 C   0  0  0  0  0  0  0  0  0  0  0  0
  143.8063  132.1264  150.1401 C   0  0  0  0  0  0  0  0  0  0  0  0
  145.0023  134.5608  150.6689 C   0  0  0  0  0  0  0  0  0  0  0  0
  145.3591  135.9898  151.1120 C   0  0  0  0  0  0  0  0  0  0  0  0
  143.9535  143.0598  155.6568 H   0  0  0  0  0  0  0  0  0  0  0  0
  145.4989  143.7645  155.1953 H   0  0  0  0  0  0  0  0  0  0  0  0
  145.3469  142.8465  156.7108 H   0  0  0  0  0  0  0  0  0  0  0  0
  149.6103  142.2881  155.9279 H   0  0  0  0  0  0  0  0  0  0  0  0
  150.3606  140.3102  154.5835 H   0  0  0  0  0  0  0  0  0  0  0  0
  148.6605  138.9588  153.3869 H   0  0  0  0  0  0  0  0  0  0  0  0
  145.0869  140.0220  153.2831 H   0  0  0  0  0  0  0  0  0  0  0  0
  144.0260  138.6425  152.3774 H   0  0  0  0  0  0  0  0  0  0  0  0
  143.3521  136.6566  151.4841 H   0  0  0  0  0  0  0  0  0  0  0  0
  144.9578  135.5762  153.8571 H   0  0  0  0  0  0  0  0  0  0  0  0
  143.2549  135.9675  153.8687 H   0  0  0  0  0  0  0  0  0  0  0  0
  143.6282  133.5210  153.5979 H   0  0  0  0  0  0  0  0  0  0  0  0
  142.7781  134.1829  152.2159 H   0  0  0  0  0  0  0  0  0  0  0  0
  144.4068  131.5558  152.2501 H   0  0  0  0  0  0  0  0  0  0  0  0
  145.9484  132.5909  149.7106 H   0  0  0  0  0  0  0  0  0  0  0  0
  145.6198  130.8264  150.1081 H   0  0  0  0  0  0  0  0  0  0  0  0
  143.1506  131.2647  150.0308 H   0  0  0  0  0  0  0  0  0  0  0  0
  143.4727  133.0308  149.6345 H   0  0  0  0  0  0  0  0  0  0  0  0
  145.8034  134.1633  150.0449 H   0  0  0  0  0  0  0  0  0  0  0  0
  144.0995  134.5713  150.0559 H   0  0  0  0  0  0  0  0  0  0  0  0
  145.4750  136.6285  150.2354 H   0  0  0  0  0  0  0  0  0  0  0  0
  146.3259  135.9805  151.6180 H   0  0  0  0  0  0  0  0  0  0  0  0
  145.6582  133.6831  152.3695 H   0  0  0  0  0  0  0  0  0  0  0  0
  1  2  1  0  0  0  0
  1 22  1  0  0  0  0
  1 23  1  0  0  0  0
  1 24  1  0  0  0  0
  2  3  1  0  0  0  0
  3  8  1  0  0  0  0
  3  4  2  0  0  0  0
  4  5  1  0  0  0  0
  5  6  2  0  0  0  0
  5 25  1  0  0  0  0
  6  7  1  0  0  0  0
  6 26  1  0  0  0  0
  7  8  2  0  0  0  0
  7 27  1  0  0  0  0
  8  9  1  0  0  0  0
  9 10  1  0  0  0  0
  9 28  1  0  0  0  0
 10 11  2  0  0  0  0
 10 12  1  0  0  0  0
 12 13  1  0  0  0  0
 12 29  1  0  0  0  0
 13 21  1  0  0  0  0
 13 14  1  0  0  0  0
 13 30  1  0  0  0  0
 14 15  1  0  0  0  0
 14 31  1  0  0  0  0
 14 32  1  0  0  0  0
 15 16  1  0  0  0  0
 15 33  1  0  0  0  0
 15 34  1  0  0  0  0
 16 17  1  0  0  0  0
 16 20  1  0  0  0  0
 16 44  1  0  0  0  0
 17 19  1  0  0  0  0
 17 18  1  0  0  0  0
 17 35  1  0  0  0  0
 18 19  1  0  0  0  0
 18 36  1  0  0  0  0
 18 37  1  0  0  0  0
 19 38  1  0  0  0  0
 19 39  1  0  0  0  0
 20 21  1  0  0  0  0
 20 40  1  0  0  0  0
 20 41  1  0  0  0  0
 21 42  1  0  0  0  0
 21 43  1  0  0  0  0
M  CHG  1  16   1
M  END
> <s_m_source_file>
AV-unprocessed.smi

> <i_m_source_file_index>
1263

> <i_lp_mmshare_version>
43012

> <i_f3d_flags>
0

> <s_epik_input>
W0NIM11PYzFuW2NIXVtjSF1bY0hdYzFbTkhdQyg9TylbTkhdW0NIXTJbQ0gyXVtDSDJdTihbQ0gyXVtDSDJdMilbQ0hdM1tDSDJdW0NIMl0z

> <s_epik_cmdline>
J2VwaWtfcHl0aG9uJywgJy1waCcsICc3LjAnLCAnLXRuJywgJzgnLCAnLW1hJywgJzIwMCcsICctbWV0YWxfYmluZGluZycsICctaW1hZScsICc8aW5maWxlLm1hZT4nLCAnLW9tYWUnLCAnPG91dGZpbGUubWFlPic=

> <r_lp_tautomer_probability>
1

> <r_epik_Ionization_Penalty>
0.115628

> <r_epik_Ionization_Penalty_Charging>
0.115549

> <r_epik_Ionization_Penalty_Neutral>
7.89431e-05

> <r_epik_State_Penalty>
0.105184

> <r_epik_Charging_Adjusted_Penalty>
0.220733

> <i_epik_Tot_Q>
1

> <i_epik_Tot_abs_Q>
1

> <r_epik_Metal_State_Penalty>
0.105186

> <b_epik_Metal_Only>
0

> <s_lp_Force_Field>
OPLS_2005

> <r_lp_Energy>
28.8205

> <b_lp_Chiralities_Consistent>
1

> <s_lp_Variant>
AV-unprocessed.smi:1263-1

> <Gold.Version>
5.8.1

> <Gold.Id.Protein>
6NUR|6NUR_protein|mol2

> <Gold.PLP.Fitness>
38.3003

> <Gold.PLP.PLP>
-31.2506

> <Gold.PLP.part.hbond>
-3.0000

> <Gold.PLP.part.metal>
0.0000

> <Gold.PLP.part.buried>
-1.9932

> <Gold.PLP.part.nonpolar>
-29.4482

> <Gold.PLP.part.repulsive>
3.1539

> <Gold.PLP.ligand.clash>
0.0000

> <Gold.PLP.ligand.torsion>
0.8629

> <Gold.PLP.Chemscore.Hbond>
1.9920

> <Gold.PLP.Chemscore.CHOScore>
0.5081

> <Gold.PLP.Chemscore.Metal>
0.0000

> <Gold.Chemscore.Hbonds>
donor molecule, donor type, donor heavy atom, donor atom, acceptor molecule, acceptor atom, score
      L1  H     9    28       P1 10175  1.00
      L1  H    12    29       P1 10175  0.99
      L1  C     5    25       P1  8028  0.52

> <Gold.PLP.Chemscore.Internal.Correction>
1.2751

> <Gold.Rescore>
     Score         DG    S(hbond)    S(metal)    S(lipo)     H(rot)  DE(clash)    DE(int)     intcor
     14.90     -17.25       1.94        0.00      76.43       1.43       0.19       2.16       ----

> <Gold.Chemscore.Fitness>
14.9026

> <Gold.Chemscore.DG>
-17.2527

> <Gold.Chemscore.ZeroCoef>
-5.4800

> <Gold.Chemscore.Hbond>
1.9447

> <Gold.Chemscore.Metal>
0.0000

> <Gold.Chemscore.Lipo>
76.4323

> <Gold.Chemscore.Internal_Hbond>
0.0000

> <Gold.Chemscore.DEClash>
0.1857

> <Gold.Chemscore.DEInternal>
2.1645

> <Gold.Chemscore.Rot>
1.4318

> <Gold.Chemscore.Internal.Correction>
   9.000000E+99

> <Gold.Chemscore.Hbonds>
donor molecule, donor type, donor heavy atom, donor atom, acceptor molecule, acceptor atom, score
      L1  H     9    28       P1 10175  0.98
      L1  H    12    29       P1 10175  0.93

> <Gold.Chemscore.Hbond.Weighted>
-6.4954

> <Gold.Chemscore.Metal.Weighted>
-0.0000

> <Gold.Chemscore.Lipo.Weighted>
-8.9426

> <Gold.Chemscore.Internal_Hbond.Weighted>
0.0000

> <Gold.Chemscore.DEClash.Weighted>
0.1857

> <Gold.Chemscore.DEInternal.Weighted>
2.1645

> <Gold.Chemscore.Rot.Weighted>
3.6653

> <Gold.Chemscore.Internal.Correction.Weighted>
   9.000000E+99

> <Gold.Protein.RotatedTorsions>
[ 6907 6896 6895 6894 ] final   17.53 input  -60.11 | X-H torsion
[ 7974 7965 7964 7962 ] final  -88.07 input  175.53 | X-H torsion
[ 8008 7997 7996 7995 ] final    9.10 input   59.86 | X-H torsion
[ 10167 10162 10161 10158 ] final   46.05 input  -65.29 | X-H torsion
[ 10718 10713 10712 10709 ] final  -36.55 input   66.30 | X-H torsion
[ 10763 10752 10751 10750 ] final  157.19 input  -60.55 | X-H torsion
[ 11005 11000 10999 10996 ] final   82.72 input  -57.11 | X-H torsion

> <Gold.Protein.ActiveResidues>
 VAL166  LYS551  ARG553  GLY616  TRP617  ASP618  TYR619  PRO620  LYS621  CYS622 
 ASP623  PHE694  ASN695  SER759  ASP760  ASP761  ALA762  ILE779  LEU786  VAL792 
 PHE793  MET794  SER795  GLU796  ALA797  LYS798  CYS799  TRP800  GLU811  SER814 

> <Gold.Protein.RotatedAtoms>
  151.8511  135.0557  160.0458 H   0  0  0  0  0  0  0  0  0  0  0  0  # atno 6907 bound_to 6896
  152.2735  133.5400  159.5462 H   0  0  0  0  0  0  0  0  0  0  0  0  # atno 6908 bound_to 6896
  150.7161  134.0580  159.3863 H   0  0  0  0  0  0  0  0  0  0  0  0  # atno 6909 bound_to 6896
  145.4581  140.9561  143.1985 H   0  0  0  0  0  0  0  0  0  0  0  0  # atno 7974 bound_to 7965
  154.7756  140.2809  155.6104 H   0  0  0  0  0  0  0  0  0  0  0  0  # atno 8008 bound_to 7997
  156.2941  140.2633  156.2496 H   0  0  0  0  0  0  0  0  0  0  0  0  # atno 8009 bound_to 7997
  154.9847  140.0374  157.2283 H   0  0  0  0  0  0  0  0  0  0  0  0  # atno 8010 bound_to 7997
  140.3179  144.2741  150.6188 H   0  0  0  0  0  0  0  0  0  0  0  0  # atno 10167 bound_to 10162
  156.3255  130.4271  149.7921 H   0  0  0  0  0  0  0  0  0  0  0  0  # atno 10718 bound_to 10713
  154.1962  135.2792  155.3006 H   0  0  0  0  0  0  0  0  0  0  0  0  # atno 10763 bound_to 10752
  154.5890  135.5566  153.7263 H   0  0  0  0  0  0  0  0  0  0  0  0  # atno 10764 bound_to 10752
  153.0099  135.6363  154.2101 H   0  0  0  0  0  0  0  0  0  0  0  0  # atno 10765 bound_to 10752
  139.9054  134.8092  156.2213 H   0  0  0  0  0  0  0  0  0  0  0  0  # atno 11005 bound_to 11000
  144.8020  139.6123  143.7067 LP  0  0  0  0  0  0  0  0  0  0  0  0  # atno 17320 bound_to 7965
  146.2467  139.6112  142.9455 LP  0  0  0  0  0  0  0  0  0  0  0  0  # atno 17321 bound_to 7965
  140.5510  143.2206  151.7927 LP  0  0  0  0  0  0  0  0  0  0  0  0  # atno 17342 bound_to 10162
  139.4880  144.4476  151.9691 LP  0  0  0  0  0  0  0  0  0  0  0  0  # atno 17343 bound_to 10162
  156.5213  130.8216  151.3204 LP  0  0  0  0  0  0  0  0  0  0  0  0  # atno 17370 bound_to 10713
  157.7420  130.9882  150.2487 LP  0  0  0  0  0  0  0  0  0  0  0  0  # atno 17371 bound_to 10713
  141.0404  133.6941  156.1587 LP  0  0  0  0  0  0  0  0  0  0  0  0  # atno 17394 bound_to 11000
  140.6964  134.4611  157.5587 LP  0  0  0  0  0  0  0  0  0  0  0  0  # atno 17395 bound_to 11000

$$$$
