AV-unprocessed.smi:3311|AV-procd|sdf|12725|dock6
  -GOLD-   2272019 63D 1   1.00000     0.00000
 Structure written by MMmdl.
 43 44  0  0  0  0  0  0  0  0  1 V2000
  152.3596  138.6921  156.0937 C   0  0  0  0  0  0  0  0  0  0  0  0
  151.5855  139.9422  155.6175 C   0  0  2  0  0  0  0  0  0  0  0  0
  151.0763  140.7122  156.7589 N   0  0  0  0  0  0  0  0  0  0  0  0
  152.0738  141.1152  157.7532 C   0  0  0  0  0  0  0  0  0  0  0  0
  151.6139  142.3312  158.5888 C   0  0  0  0  0  0  0  0  0  0  0  0
  150.2831  142.0742  159.0014 O   0  0  0  0  0  0  0  0  0  0  0  0
  152.5121  142.5745  159.8288 C   0  0  0  0  0  0  0  0  0  0  0  0
  152.1551  143.8661  160.5863 C   0  0  0  0  0  0  0  0  0  0  0  0
  152.1732  145.0862  159.6556 C   0  0  0  0  0  0  0  0  0  0  0  0
  151.2334  144.8764  158.4606 C   0  0  0  0  0  0  0  0  0  0  0  0
  151.5883  143.5914  157.6908 C   0  0  0  0  0  0  0  0  0  0  0  0
  150.4127  139.5998  154.6594 C   0  0  1  0  0  0  0  0  0  0  0  0
  150.0164  138.1124  154.7176 C   0  0  0  0  0  0  0  0  0  0  0  0
  149.2371  140.4249  154.9113 N   0  0  0  0  0  0  0  0  0  0  0  0
  148.6249  141.3341  154.0712 C   0  0  0  0  0  0  0  0  0  0  0  0
  147.5615  141.8626  154.7452 C   0  0  0  0  0  0  0  0  0  0  0  0
  147.6053  141.2099  156.0085 C   0  0  0  0  0  0  0  0  0  0  0  0
  148.6084  140.3526  156.1054 N   0  0  0  0  0  0  0  0  0  0  0  0
  152.7580  138.1170  155.2585 H   0  0  0  0  0  0  0  0  0  0  0  0
  151.7171  138.0285  156.6734 H   0  0  0  0  0  0  0  0  0  0  0  0
  153.2171  138.9524  156.7128 H   0  0  0  0  0  0  0  0  0  0  0  0
  152.2865  140.5666  155.0619 H   0  0  0  0  0  0  0  0  0  0  0  0
  150.5944  141.5391  156.4198 H   0  0  0  0  0  0  0  0  0  0  0  0
  152.2772  140.2860  158.4299 H   0  0  0  0  0  0  0  0  0  0  0  0
  153.0178  141.3500  157.2593 H   0  0  0  0  0  0  0  0  0  0  0  0
  149.7105  142.6775  158.5528 H   0  0  0  0  0  0  0  0  0  0  0  0
  152.4548  141.7314  160.5182 H   0  0  0  0  0  0  0  0  0  0  0  0
  153.5535  142.6322  159.5087 H   0  0  0  0  0  0  0  0  0  0  0  0
  151.1689  143.7668  161.0412 H   0  0  0  0  0  0  0  0  0  0  0  0
  152.8564  144.0177  161.4073 H   0  0  0  0  0  0  0  0  0  0  0  0
  151.8814  145.9804  160.2073 H   0  0  0  0  0  0  0  0  0  0  0  0
  153.1887  145.2601  159.2975 H   0  0  0  0  0  0  0  0  0  0  0  0
  150.2012  144.8279  158.8091 H   0  0  0  0  0  0  0  0  0  0  0  0
  151.2896  145.7353  157.7914 H   0  0  0  0  0  0  0  0  0  0  0  0
  152.5695  143.7244  157.2328 H   0  0  0  0  0  0  0  0  0  0  0  0
  150.8888  143.4541  156.8649 H   0  0  0  0  0  0  0  0  0  0  0  0
  150.7435  139.8101  153.6401 H   0  0  0  0  0  0  0  0  0  0  0  0
  150.8402  137.4650  154.4165 H   0  0  0  0  0  0  0  0  0  0  0  0
  149.1821  137.9044  154.0468 H   0  0  0  0  0  0  0  0  0  0  0  0
  149.7154  137.8185  155.7235 H   0  0  0  0  0  0  0  0  0  0  0  0
  148.9923  141.5249  153.0735 H   0  0  0  0  0  0  0  0  0  0  0  0
  146.8598  142.6027  154.3904 H   0  0  0  0  0  0  0  0  0  0  0  0
  146.9425  141.3328  156.8523 H   0  0  0  0  0  0  0  0  0  0  0  0
  1  2  1  0  0  0  0
  1 19  1  0  0  0  0
  1 20  1  0  0  0  0
  1 21  1  0  0  0  0
  2  3  1  0  0  0  0
  2 12  1  0  0  0  0
  2 22  1  0  0  0  0
  3  4  1  0  0  0  0
  3 23  1  0  0  0  0
  4  5  1  0  0  0  0
  4 24  1  0  0  0  0
  4 25  1  0  0  0  0
  5 11  1  0  0  0  0
  5  6  1  0  0  0  0
  5  7  1  0  0  0  0
  6 26  1  0  0  0  0
  7  8  1  0  0  0  0
  7 27  1  0  0  0  0
  7 28  1  0  0  0  0
  8  9  1  0  0  0  0
  8 29  1  0  0  0  0
  8 30  1  0  0  0  0
  9 10  1  0  0  0  0
  9 31  1  0  0  0  0
  9 32  1  0  0  0  0
 10 11  1  0  0  0  0
 10 33  1  0  0  0  0
 10 34  1  0  0  0  0
 11 35  1  0  0  0  0
 11 36  1  0  0  0  0
 12 13  1  0  0  0  0
 12 14  1  0  0  0  0
 12 37  1  0  0  0  0
 13 38  1  0  0  0  0
 13 39  1  0  0  0  0
 13 40  1  0  0  0  0
 14 18  1  0  0  0  0
 14 15  1  0  0  0  0
 15 16  2  0  0  0  0
 15 41  1  0  0  0  0
 16 17  1  0  0  0  0
 16 42  1  0  0  0  0
 17 18  2  0  0  0  0
 17 43  1  0  0  0  0
M  END
> <s_m_source_file>
AV-unprocessed.smi

> <i_m_source_file_index>
3311

> <i_lp_mmshare_version>
43012

> <i_f3d_flags>
0

> <s_epik_input>
bjFbY0hdW2NIXVtjSF1uMVtDQEBIXShbQ0gzXSlbQ0BIXShbQ0gzXSlbTkhdW0NIMl1DMihbT0hdKVtDSDJdW0NIMl1bQ0gyXVtDSDJdW0NIMl0y

> <s_epik_cmdline>
J2VwaWtfcHl0aG9uJywgJy1waCcsICc3LjAnLCAnLXRuJywgJzgnLCAnLW1hJywgJzIwMCcsICctbWV0YWxfYmluZGluZycsICctaW1hZScsICc8aW5maWxlLm1hZT4nLCAnLW9tYWUnLCAnPG91dGZpbGUubWFlPic=

> <r_lp_tautomer_probability>
1

> <r_epik_Ionization_Penalty>
2.222

> <r_epik_Ionization_Penalty_Charging>
0

> <r_epik_Ionization_Penalty_Neutral>
2.222

> <r_epik_State_Penalty>
2.36562

> <r_epik_Charging_Adjusted_Penalty>
2.36562

> <i_epik_Tot_Q>
0

> <i_epik_Tot_abs_Q>
0

> <r_epik_Metal_State_Penalty>
2.36435

> <b_epik_Metal_Only>
0

> <s_lp_Force_Field>
OPLS_2005

> <r_lp_Energy>
27.677

> <b_lp_Chiralities_Consistent>
1

> <s_lp_Variant>
AV-unprocessed.smi:3311-7

> <Gold.Version>
5.8.1

> <Gold.Id.Protein>
6NUR|6NUR_protein|mol2

> <Gold.PLP.Fitness>
41.1458

> <Gold.PLP.PLP>
-40.9887

> <Gold.PLP.part.hbond>
-0.9756

> <Gold.PLP.part.metal>
0.0000

> <Gold.PLP.part.buried>
-2.8165

> <Gold.PLP.part.nonpolar>
-36.2025

> <Gold.PLP.part.repulsive>
0.0295

> <Gold.PLP.ligand.clash>
0.0000

> <Gold.PLP.ligand.torsion>
1.4677

> <Gold.PLP.Chemscore.Hbond>
0.0000

> <Gold.PLP.Chemscore.CHOScore>
1.0000

> <Gold.PLP.Chemscore.Metal>
0.0000

> <Gold.Chemscore.Hbonds>
donor molecule, donor type, donor heavy atom, donor atom, acceptor molecule, acceptor atom, score
      L1  C    15    41       P1  7957  1.00

> <Gold.PLP.Chemscore.Internal.Correction>
0.0926

> <Gold.Rescore>
     Score         DG    S(hbond)    S(metal)    S(lipo)     H(rot)  DE(clash)    DE(int)     intcor
     11.67     -14.66       0.00        0.00     123.74       2.07       0.10       2.89       ----

> <Gold.Chemscore.Fitness>
11.6717

> <Gold.Chemscore.DG>
-14.6618

> <Gold.Chemscore.ZeroCoef>
-5.4800

> <Gold.Chemscore.Hbond>
0.0000

> <Gold.Chemscore.Metal>
0.0000

> <Gold.Chemscore.Lipo>
123.7390

> <Gold.Chemscore.Internal_Hbond>
0.0000

> <Gold.Chemscore.DEClash>
0.1004

> <Gold.Chemscore.DEInternal>
2.8897

> <Gold.Chemscore.Rot>
2.0686

> <Gold.Chemscore.Internal.Correction>
   9.000000E+99

> <Gold.Chemscore.Hbond.Weighted>
-0.0000

> <Gold.Chemscore.Metal.Weighted>
-0.0000

> <Gold.Chemscore.Lipo.Weighted>
-14.4775

> <Gold.Chemscore.Internal_Hbond.Weighted>
0.0000

> <Gold.Chemscore.DEClash.Weighted>
0.1004

> <Gold.Chemscore.DEInternal.Weighted>
2.8897

> <Gold.Chemscore.Rot.Weighted>
5.2957

> <Gold.Chemscore.Internal.Correction.Weighted>
   9.000000E+99

> <Gold.Protein.RotatedTorsions>
[ 6907 6896 6895 6894 ] final -116.87 input  -60.11 | X-H torsion
[ 7974 7965 7964 7962 ] final  126.78 input  175.53 | X-H torsion
[ 8008 7997 7996 7995 ] final -146.65 input   59.86 | X-H torsion
[ 10167 10162 10161 10158 ] final   46.61 input  -65.29 | X-H torsion
[ 10718 10713 10712 10709 ] final   63.00 input   66.30 | X-H torsion
[ 10763 10752 10751 10750 ] final    4.34 input  -60.55 | X-H torsion
[ 11005 11000 10999 10996 ] final  128.46 input  -57.11 | X-H torsion

> <Gold.Protein.ActiveResidues>
 VAL166  LYS551  ARG553  GLY616  TRP617  ASP618  TYR619  PRO620  LYS621  CYS622 
 ASP623  PHE694  ASN695  SER759  ASP760  ASP761  ALA762  ILE779  LEU786  VAL792 
 PHE793  MET794  SER795  GLU796  ALA797  LYS798  CYS799  TRP800  GLU811  SER814 

> <Gold.Protein.RotatedAtoms>
  150.8091  133.8456  159.3191 H   0  0  0  0  0  0  0  0  0  0  0  0  # atno 6907 bound_to 6896
  151.6247  135.1027  160.0118 H   0  0  0  0  0  0  0  0  0  0  0  0  # atno 6908 bound_to 6896
  152.4182  133.7033  159.6493 H   0  0  0  0  0  0  0  0  0  0  0  0  # atno 6909 bound_to 6896
  145.0579  139.3829  143.5020 H   0  0  0  0  0  0  0  0  0  0  0  0  # atno 7974 bound_to 7965
  155.5629  140.0627  157.2825 H   0  0  0  0  0  0  0  0  0  0  0  0  # atno 8008 bound_to 7997
  154.4385  140.1882  156.0846 H   0  0  0  0  0  0  0  0  0  0  0  0  # atno 8009 bound_to 7997
  156.0434  140.3293  155.7272 H   0  0  0  0  0  0  0  0  0  0  0  0  # atno 8010 bound_to 7997
  140.3122  144.2807  150.6198 H   0  0  0  0  0  0  0  0  0  0  0  0  # atno 10167 bound_to 10162
  157.5940  130.9081  149.9659 H   0  0  0  0  0  0  0  0  0  0  0  0  # atno 10718 bound_to 10713
  153.2725  135.6933  153.7467 H   0  0  0  0  0  0  0  0  0  0  0  0  # atno 10763 bound_to 10752
  153.6485  135.3381  155.3093 H   0  0  0  0  0  0  0  0  0  0  0  0  # atno 10764 bound_to 10752
  154.8468  135.4448  154.1752 H   0  0  0  0  0  0  0  0  0  0  0  0  # atno 10765 bound_to 10752
  139.9562  134.9612  156.9006 H   0  0  0  0  0  0  0  0  0  0  0  0  # atno 11005 bound_to 11000
  146.3522  140.0263  142.8654 LP  0  0  0  0  0  0  0  0  0  0  0  0  # atno 17320 bound_to 7965
  145.1445  140.9589  143.4469 LP  0  0  0  0  0  0  0  0  0  0  0  0  # atno 17321 bound_to 7965
  140.5558  143.2199  151.7850 LP  0  0  0  0  0  0  0  0  0  0  0  0  # atno 17342 bound_to 10162
  139.4891  144.4415  151.9758 LP  0  0  0  0  0  0  0  0  0  0  0  0  # atno 17343 bound_to 10162
  156.1000  130.3656  150.0236 LP  0  0  0  0  0  0  0  0  0  0  0  0  # atno 17370 bound_to 10713
  156.8353  130.9407  151.3635 LP  0  0  0  0  0  0  0  0  0  0  0  0  # atno 17371 bound_to 10713
  140.5604  134.0541  155.7397 LP  0  0  0  0  0  0  0  0  0  0  0  0  # atno 17394 bound_to 11000
  141.1234  133.9424  157.2685 LP  0  0  0  0  0  0  0  0  0  0  0  0  # atno 17395 bound_to 11000

$$$$
