AV-unprocessed.smi:685|AV-procd|sdf|3336|dock10
  -GOLD-   22720 0303D 1   1.00000     0.00000
 Structure written by MMmdl.
 51 52  0  0  0  0  0  0  0  0  2 V2000
  147.7048  141.4302  153.7563 C   0  0  0  0  0  0  0  0  0  0  0  0
  148.8399  141.1572  154.6855 C   0  0  0  0  0  0  0  0  0  0  0  0
  149.4821  142.1089  155.4144 N   0  3  0  0  0  0  0  0  0  0  0  0
  150.4520  141.5506  156.1531 N   0  0  0  0  0  0  0  0  0  0  0  0
  151.2659  142.4046  157.0183 C   0  0  0  0  0  0  0  0  0  0  0  0
  150.4945  140.2052  155.9363 C   0  0  0  0  0  0  0  0  0  0  0  0
  151.4566  139.2692  156.5928 C   0  0  0  0  0  0  0  0  0  0  0  0
  149.4740  139.9525  155.0105 C   0  0  0  0  0  0  0  0  0  0  0  0
  149.1029  138.6085  154.4497 C   0  0  0  0  0  0  0  0  0  0  0  0
  148.0643  137.8587  155.3123 C   0  0  1  0  0  0  0  0  0  0  0  0
  146.8264  138.7126  155.6279 C   0  0  0  0  0  0  0  0  0  0  0  0
  147.6396  136.6322  154.6431 N   0  0  0  0  0  0  0  0  0  0  0  0
  146.8024  135.7197  155.1617 C   0  0  0  0  0  0  0  0  0  0  0  0
  146.3045  135.8244  156.2832 O   0  0  0  0  0  0  0  0  0  0  0  0
  146.4787  134.5128  154.2762 C   0  0  0  0  0  0  0  0  0  0  0  0
  145.6341  134.8844  153.0423 C   0  0  0  0  0  0  0  0  0  0  0  0
  145.0491  133.6590  152.3177 C   0  0  0  0  0  0  0  0  0  0  0  0
  146.0721  132.9187  151.4534 C   0  0  0  0  0  0  0  0  0  0  0  0
  145.2350  132.0737  150.4882 C   0  0  0  0  0  0  0  0  0  0  0  0
  143.8750  132.7785  150.3717 C   0  0  0  0  0  0  0  0  0  0  0  0
  143.9270  133.9790  151.3246 C   0  0  0  0  0  0  0  0  0  0  0  0
  146.9104  140.6981  153.9026 H   0  0  0  0  0  0  0  0  0  0  0  0
  148.0437  141.3720  152.7219 H   0  0  0  0  0  0  0  0  0  0  0  0
  147.2943  142.4248  153.9321 H   0  0  0  0  0  0  0  0  0  0  0  0
  151.4679  141.8807  157.9531 H   0  0  0  0  0  0  0  0  0  0  0  0
  150.7351  143.3327  157.2352 H   0  0  0  0  0  0  0  0  0  0  0  0
  152.2063  142.6282  156.5142 H   0  0  0  0  0  0  0  0  0  0  0  0
  151.6327  138.3956  155.9658 H   0  0  0  0  0  0  0  0  0  0  0  0
  151.0591  138.9358  157.5513 H   0  0  0  0  0  0  0  0  0  0  0  0
  152.4142  139.7614  156.7638 H   0  0  0  0  0  0  0  0  0  0  0  0
  148.7288  138.7079  153.4303 H   0  0  0  0  0  0  0  0  0  0  0  0
  150.0077  138.0061  154.3607 H   0  0  0  0  0  0  0  0  0  0  0  0
  148.5247  137.5816  156.2622 H   0  0  0  0  0  0  0  0  0  0  0  0
  147.0937  139.6118  156.1834 H   0  0  0  0  0  0  0  0  0  0  0  0
  146.1121  138.1569  156.2364 H   0  0  0  0  0  0  0  0  0  0  0  0
  146.3146  139.0234  154.7164 H   0  0  0  0  0  0  0  0  0  0  0  0
  148.0007  136.4692  153.7142 H   0  0  0  0  0  0  0  0  0  0  0  0
  147.4196  134.0614  153.9601 H   0  0  0  0  0  0  0  0  0  0  0  0
  145.9557  133.7619  154.8695 H   0  0  0  0  0  0  0  0  0  0  0  0
  144.8279  135.5590  153.3347 H   0  0  0  0  0  0  0  0  0  0  0  0
  146.2525  135.4389  152.3348 H   0  0  0  0  0  0  0  0  0  0  0  0
  144.6649  132.9566  153.0593 H   0  0  0  0  0  0  0  0  0  0  0  0
  146.6673  133.6352  150.8850 H   0  0  0  0  0  0  0  0  0  0  0  0
  146.7604  132.3149  152.0457 H   0  0  0  0  0  0  0  0  0  0  0  0
  145.7257  131.9660  149.5204 H   0  0  0  0  0  0  0  0  0  0  0  0
  145.0951  131.0719  150.8960 H   0  0  0  0  0  0  0  0  0  0  0  0
  143.6697  133.0966  149.3492 H   0  0  0  0  0  0  0  0  0  0  0  0
  143.0779  132.0945  150.6657 H   0  0  0  0  0  0  0  0  0  0  0  0
  142.9702  134.1549  151.8173 H   0  0  0  0  0  0  0  0  0  0  0  0
  144.1763  134.8782  150.7593 H   0  0  0  0  0  0  0  0  0  0  0  0
  149.3065  143.1053  155.4474 H   0  0  0  0  0  0  0  0  0  0  0  0
  1  2  1  0  0  0  0
  1 22  1  0  0  0  0
  1 23  1  0  0  0  0
  1 24  1  0  0  0  0
  2  8  1  0  0  0  0
  2  3  2  0  0  0  0
  3  4  1  0  0  0  0
  3 51  1  0  0  0  0
  4  5  1  0  0  0  0
  4  6  1  0  0  0  0
  5 25  1  0  0  0  0
  5 26  1  0  0  0  0
  5 27  1  0  0  0  0
  6  7  1  0  0  0  0
  6  8  2  0  0  0  0
  7 28  1  0  0  0  0
  7 29  1  0  0  0  0
  7 30  1  0  0  0  0
  8  9  1  0  0  0  0
  9 10  1  0  0  0  0
  9 31  1  0  0  0  0
  9 32  1  0  0  0  0
 10 11  1  0  0  0  0
 10 12  1  0  0  0  0
 10 33  1  0  0  0  0
 11 34  1  0  0  0  0
 11 35  1  0  0  0  0
 11 36  1  0  0  0  0
 12 13  1  0  0  0  0
 12 37  1  0  0  0  0
 13 14  2  0  0  0  0
 13 15  1  0  0  0  0
 15 16  1  0  0  0  0
 15 38  1  0  0  0  0
 15 39  1  0  0  0  0
 16 17  1  0  0  0  0
 16 40  1  0  0  0  0
 16 41  1  0  0  0  0
 17 21  1  0  0  0  0
 17 18  1  0  0  0  0
 17 42  1  0  0  0  0
 18 19  1  0  0  0  0
 18 43  1  0  0  0  0
 18 44  1  0  0  0  0
 19 20  1  0  0  0  0
 19 45  1  0  0  0  0
 19 46  1  0  0  0  0
 20 21  1  0  0  0  0
 20 47  1  0  0  0  0
 20 48  1  0  0  0  0
 21 49  1  0  0  0  0
 21 50  1  0  0  0  0
M  CHG  1   3   1
M  END
> <s_m_source_file>
AV-unprocessed.smi

> <i_m_source_file_index>
685

> <i_lp_mmshare_version>
43012

> <i_f3d_flags>
0

> <s_epik_input>
W0NIM11jMW5uKFtDSDNdKWMoW0NIM10pYzFbQ0gyXVtDQEhdKFtDSDNdKVtOSF1DKD1PKVtDSDJdW0NIMl1bQ0hdMltDSDJdW0NIMl1bQ0gyXVtDSDJdMg==

> <s_epik_cmdline>
J2VwaWtfcHl0aG9uJywgJy1waCcsICc3LjAnLCAnLXRuJywgJzgnLCAnLW1hJywgJzIwMCcsICctbWV0YWxfYmluZGluZycsICctaW1hZScsICc8aW5maWxlLm1hZT4nLCAnLW9tYWUnLCAnPG91dGZpbGUubWFlPic=

> <r_lp_tautomer_probability>
1

> <r_epik_Ionization_Penalty>
2.26429

> <r_epik_Ionization_Penalty_Charging>
2.26429

> <r_epik_Ionization_Penalty_Neutral>
2.3289e-07

> <r_epik_State_Penalty>
2.41237

> <r_epik_Charging_Adjusted_Penalty>
4.67666

> <i_epik_Tot_Q>
1

> <i_epik_Tot_abs_Q>
1

> <r_epik_Metal_State_Penalty>
2.42525

> <b_epik_Metal_Only>
0

> <s_lp_Force_Field>
OPLS_2005

> <r_lp_Energy>
28.4866

> <b_lp_Chiralities_Consistent>
1

> <s_lp_Variant>
AV-unprocessed.smi:685-4

> <Gold.Version>
5.8.1

> <Gold.Id.Protein>
6NUR|6NUR_protein|mol2

> <Gold.PLP.Fitness>
47.3819

> <Gold.PLP.PLP>
-39.5883

> <Gold.PLP.part.hbond>
-2.0000

> <Gold.PLP.part.metal>
0.0000

> <Gold.PLP.part.buried>
-5.1921

> <Gold.PLP.part.nonpolar>
-33.0306

> <Gold.PLP.part.repulsive>
0.2076

> <Gold.PLP.ligand.clash>
0.0000

> <Gold.PLP.ligand.torsion>
0.6422

> <Gold.PLP.Chemscore.Hbond>
3.0000

> <Gold.PLP.Chemscore.CHOScore>
0.0000

> <Gold.PLP.Chemscore.Metal>
0.0000

> <Gold.Chemscore.Hbonds>
donor molecule, donor type, donor heavy atom, donor atom, acceptor molecule, acceptor atom, score
      L1  H     3    51       P1  8028  2.00
      L1  H    12    37       P1  7948  0.84

> <Gold.PLP.Chemscore.Internal.Correction>
0.0779

> <Gold.Rescore>
     Score         DG    S(hbond)    S(metal)    S(lipo)     H(rot)  DE(clash)    DE(int)     intcor
     18.41     -19.04       1.99        0.00      94.22       1.61       0.07       0.56       ----

> <Gold.Chemscore.Fitness>
18.4095

> <Gold.Chemscore.DG>
-19.0367

> <Gold.Chemscore.ZeroCoef>
-5.4800

> <Gold.Chemscore.Hbond>
1.9920

> <Gold.Chemscore.Metal>
0.0000

> <Gold.Chemscore.Lipo>
94.2193

> <Gold.Chemscore.Internal_Hbond>
0.0000

> <Gold.Chemscore.DEClash>
0.0668

> <Gold.Chemscore.DEInternal>
0.5604

> <Gold.Chemscore.Rot>
1.6095

> <Gold.Chemscore.Internal.Correction>
   9.000000E+99

> <Gold.Chemscore.Hbonds>
donor molecule, donor type, donor heavy atom, donor atom, acceptor molecule, acceptor atom, score
      L1  H     3    51       P1  8028  1.00
      L1  H    12    37       P1  7948  0.82

> <Gold.Chemscore.Hbond.Weighted>
-6.6533

> <Gold.Chemscore.Metal.Weighted>
-0.0000

> <Gold.Chemscore.Lipo.Weighted>
-11.0237

> <Gold.Chemscore.Internal_Hbond.Weighted>
0.0000

> <Gold.Chemscore.DEClash.Weighted>
0.0668

> <Gold.Chemscore.DEInternal.Weighted>
0.5604

> <Gold.Chemscore.Rot.Weighted>
4.1202

> <Gold.Chemscore.Internal.Correction.Weighted>
   9.000000E+99

> <Gold.Protein.RotatedTorsions>
[ 6907 6896 6895 6894 ] final -176.92 input  -60.11 | X-H torsion
[ 7974 7965 7964 7962 ] final -157.45 input  175.53 | X-H torsion
[ 8008 7997 7996 7995 ] final -127.87 input   59.86 | X-H torsion
[ 10167 10162 10161 10158 ] final  -60.47 input  -65.29 | X-H torsion
[ 10718 10713 10712 10709 ] final -170.50 input   66.30 | X-H torsion
[ 10763 10752 10751 10750 ] final  -81.42 input  -60.55 | X-H torsion
[ 11005 11000 10999 10996 ] final    1.37 input  -57.11 | X-H torsion

> <Gold.Protein.ActiveResidues>
 VAL166  LYS551  ARG553  GLY616  TRP617  ASP618  TYR619  PRO620  LYS621  CYS622 
 ASP623  PHE694  ASN695  SER759  ASP760  ASP761  ALA762  ILE779  LEU786  VAL792 
 PHE793  MET794  SER795  GLU796  ALA797  LYS798  CYS799  TRP800  GLU811  SER814 

> <Gold.Protein.RotatedAtoms>
  151.6126  133.3346  159.3070 H   0  0  0  0  0  0  0  0  0  0  0  0  # atno 6907 bound_to 6896
  150.8148  134.7327  159.6732 H   0  0  0  0  0  0  0  0  0  0  0  0  # atno 6908 bound_to 6896
  152.4244  134.5901  160.0023 H   0  0  0  0  0  0  0  0  0  0  0  0  # atno 6909 bound_to 6896
  144.7548  140.3967  143.6021 H   0  0  0  0  0  0  0  0  0  0  0  0  # atno 7974 bound_to 7965
  155.2533  140.0433  157.2989 H   0  0  0  0  0  0  0  0  0  0  0  0  # atno 8008 bound_to 7997
  154.5755  140.2386  155.8098 H   0  0  0  0  0  0  0  0  0  0  0  0  # atno 8009 bound_to 7997
  156.2155  140.2986  155.9837 H   0  0  0  0  0  0  0  0  0  0  0  0  # atno 8010 bound_to 7997
  140.6069  143.2376  151.5800 H   0  0  0  0  0  0  0  0  0  0  0  0  # atno 10167 bound_to 10162
  156.7270  130.9292  151.3102 H   0  0  0  0  0  0  0  0  0  0  0  0  # atno 10718 bound_to 10713
  154.5633  135.5627  153.7028 H   0  0  0  0  0  0  0  0  0  0  0  0  # atno 10763 bound_to 10752
  153.0025  135.6279  154.2214 H   0  0  0  0  0  0  0  0  0  0  0  0  # atno 10764 bound_to 10752
  154.2152  135.2872  155.2924 H   0  0  0  0  0  0  0  0  0  0  0  0  # atno 10765 bound_to 10752
  140.6162  133.9703  155.8202 H   0  0  0  0  0  0  0  0  0  0  0  0  # atno 11005 bound_to 11000
  145.6819  139.1620  143.2696 LP  0  0  0  0  0  0  0  0  0  0  0  0  # atno 17320 bound_to 7965
  146.1544  140.6879  142.9307 LP  0  0  0  0  0  0  0  0  0  0  0  0  # atno 17321 bound_to 7965
  139.5332  144.2856  152.1193 LP  0  0  0  0  0  0  0  0  0  0  0  0  # atno 17342 bound_to 10162
  140.2048  144.4622  150.6414 LP  0  0  0  0  0  0  0  0  0  0  0  0  # atno 17343 bound_to 10162
  157.6874  130.9199  150.0423 LP  0  0  0  0  0  0  0  0  0  0  0  0  # atno 17370 bound_to 10713
  156.1555  130.3643  149.9375 LP  0  0  0  0  0  0  0  0  0  0  0  0  # atno 17371 bound_to 10713
  141.0774  134.0114  157.3437 LP  0  0  0  0  0  0  0  0  0  0  0  0  # atno 17394 bound_to 11000
  139.9172  135.0198  156.7926 LP  0  0  0  0  0  0  0  0  0  0  0  0  # atno 17395 bound_to 11000

$$$$
