AV-unprocessed.smi:705|AV-procd|sdf|3450|dock2
  -GOLD-   22720 0433D 1   1.00000     0.00000
 Structure written by MMmdl.
 28 29  0  0  0  0  0  0  0  0  3 V2000
  153.7706  138.1265  161.5607 N   0  0  0  0  0  0  0  0  0  0  0  0
  152.8790  137.8052  160.6202 C   0  0  0  0  0  0  0  0  0  0  0  0
  152.5219  136.6487  160.4019 O   0  0  0  0  0  0  0  0  0  0  0  0
  152.3324  138.9577  159.8321 C   0  0  0  0  0  0  0  0  0  0  0  0
  152.8785  140.2660  159.8661 C   0  0  0  0  0  0  0  0  0  0  0  0
  151.9705  140.8992  158.9400 C   0  0  0  0  0  0  0  0  0  0  0  0
  152.1825  142.3698  158.6365 C   0  0  2  0  0  0  0  0  0  0  0  0
  152.2124  143.2169  159.9219 C   0  0  0  0  0  0  0  0  0  0  0  0
  152.3829  144.7051  159.5804 C   0  0  0  0  0  0  0  0  0  0  0  0
  151.3041  145.1677  158.5865 C   0  0  0  0  0  0  0  0  0  0  0  0
  151.3199  144.3287  157.3684 N   0  3  0  0  0  0  0  0  0  0  0  0
  151.1157  142.8923  157.6552 C   0  0  0  0  0  0  0  0  0  0  0  0
  151.0397  140.0542  158.4584 N   0  0  0  0  0  0  0  0  0  0  0  0
  151.2721  138.8744  159.0068 N   0  5  0  0  0  0  0  0  0  0  0  0
  154.1867  137.4104  162.1364 H   0  0  0  0  0  0  0  0  0  0  0  0
  154.0170  139.0989  161.6821 H   0  0  0  0  0  0  0  0  0  0  0  0
  153.7217  140.6632  160.4176 H   0  0  0  0  0  0  0  0  0  0  0  0
  153.1553  142.4708  158.1521 H   0  0  0  0  0  0  0  0  0  0  0  0
  151.2855  143.0767  160.4800 H   0  0  0  0  0  0  0  0  0  0  0  0
  153.0218  142.8872  160.5743 H   0  0  0  0  0  0  0  0  0  0  0  0
  152.3346  145.3044  160.4901 H   0  0  0  0  0  0  0  0  0  0  0  0
  153.3724  144.8712  159.1524 H   0  0  0  0  0  0  0  0  0  0  0  0
  150.3162  145.1145  159.0464 H   0  0  0  0  0  0  0  0  0  0  0  0
  151.4698  146.2078  158.3052 H   0  0  0  0  0  0  0  0  0  0  0  0
  150.5922  144.6428  156.7424 H   0  0  0  0  0  0  0  0  0  0  0  0
  151.1557  142.3357  156.7184 H   0  0  0  0  0  0  0  0  0  0  0  0
  150.1150  142.7513  158.0668 H   0  0  0  0  0  0  0  0  0  0  0  0
  152.2141  144.4391  156.9124 H   0  0  0  0  0  0  0  0  0  0  0  0
  1  2  1  0  0  0  0
  1 15  1  0  0  0  0
  1 16  1  0  0  0  0
  2  3  2  0  0  0  0
  2  4  1  0  0  0  0
  4 14  1  0  0  0  0
  4  5  2  0  0  0  0
  5  6  1  0  0  0  0
  5 17  1  0  0  0  0
  6  7  1  0  0  0  0
  6 13  2  0  0  0  0
  7 12  1  0  0  0  0
  7  8  1  0  0  0  0
  7 18  1  0  0  0  0
  8  9  1  0  0  0  0
  8 19  1  0  0  0  0
  8 20  1  0  0  0  0
  9 10  1  0  0  0  0
  9 21  1  0  0  0  0
  9 22  1  0  0  0  0
 10 11  1  0  0  0  0
 10 23  1  0  0  0  0
 10 24  1  0  0  0  0
 11 12  1  0  0  0  0
 11 25  1  0  0  0  0
 11 28  1  0  0  0  0
 12 26  1  0  0  0  0
 12 27  1  0  0  0  0
 13 14  1  0  0  0  0
M  CHG  1  11   1
M  CHG  1  14  -1
M  END
> <s_m_source_file>
AV-unprocessed.smi

> <i_m_source_file_index>
705

> <i_lp_mmshare_version>
43012

> <i_f3d_flags>
0

> <s_epik_input>
W05IMl1DKD1PKWMxW2NIXWMoW25IXW4xKVtDQEBIXTJbQ0gyXVtDSDJdW0NIMl1bTkhdW0NIMl0y

> <s_epik_cmdline>
J2VwaWtfcHl0aG9uJywgJy1waCcsICc3LjAnLCAnLXRuJywgJzgnLCAnLW1hJywgJzIwMCcsICctbWV0YWxfYmluZGluZycsICctaW1hZScsICc8aW5maWxlLm1hZT4nLCAnLW9tYWUnLCAnPG91dGZpbGUubWFlPic=

> <r_lp_tautomer_probability>
0.5

> <r_epik_Ionization_Penalty>
8.1602

> <r_epik_Ionization_Penalty_Charging>
5.25561

> <r_epik_Ionization_Penalty_Neutral>
2.90459

> <r_epik_State_Penalty>
5.66605

> <r_epik_Charging_Adjusted_Penalty>
10.9217

> <i_epik_Tot_Q>
0

> <i_epik_Tot_abs_Q>
2

> <r_epik_Metal_State_Penalty>
1.68656

> <b_epik_Metal_Only>
1

> <s_lp_Force_Field>
OPLS_2005

> <r_lp_Energy>
5.1844

> <b_lp_Chiralities_Consistent>
1

> <s_lp_Variant>
AV-unprocessed.smi:705-5

> <Gold.Version>
5.8.1

> <Gold.Id.Protein>
6NUR|6NUR_protein|mol2

> <Gold.PLP.Fitness>
36.7924

> <Gold.PLP.PLP>
-27.9742

> <Gold.PLP.part.hbond>
-2.0000

> <Gold.PLP.part.metal>
0.0000

> <Gold.PLP.part.buried>
-5.3772

> <Gold.PLP.part.nonpolar>
-21.0560

> <Gold.PLP.part.repulsive>
0.0327

> <Gold.PLP.ligand.clash>
0.0000

> <Gold.PLP.ligand.torsion>
0.1015

> <Gold.PLP.Chemscore.Hbond>
3.0000

> <Gold.PLP.Chemscore.CHOScore>
0.0000

> <Gold.PLP.Chemscore.Metal>
0.0000

> <Gold.Chemscore.Hbonds>
donor molecule, donor type, donor heavy atom, donor atom, acceptor molecule, acceptor atom, score
      L1  H    11    25       P1  8028  2.00
      P1  H  6896  6909       L1     3  1.00

> <Gold.PLP.Chemscore.Internal.Correction>
0.0213

> <Gold.Rescore>
     Score         DG    S(hbond)    S(metal)    S(lipo)     H(rot)  DE(clash)    DE(int)     intcor
     18.49     -18.53       2.00        0.00      76.41       1.00       0.03       0.02       ----

> <Gold.Chemscore.Fitness>
18.4852

> <Gold.Chemscore.DG>
-18.5345

> <Gold.Chemscore.ZeroCoef>
-5.4800

> <Gold.Chemscore.Hbond>
1.9983

> <Gold.Chemscore.Metal>
0.0000

> <Gold.Chemscore.Lipo>
76.4121

> <Gold.Chemscore.Internal_Hbond>
0.0000

> <Gold.Chemscore.DEClash>
0.0270

> <Gold.Chemscore.DEInternal>
0.0222

> <Gold.Chemscore.Rot>
1.0000

> <Gold.Chemscore.Internal.Correction>
   9.000000E+99

> <Gold.Chemscore.Hbonds>
donor molecule, donor type, donor heavy atom, donor atom, acceptor molecule, acceptor atom, score
      L1  H    11    25       P1  8028  0.88
      P1  H  6896  6909       L1     3  1.00

> <Gold.Chemscore.Hbond.Weighted>
-6.6742

> <Gold.Chemscore.Metal.Weighted>
-0.0000

> <Gold.Chemscore.Lipo.Weighted>
-8.9402

> <Gold.Chemscore.Internal_Hbond.Weighted>
0.0000

> <Gold.Chemscore.DEClash.Weighted>
0.0270

> <Gold.Chemscore.DEInternal.Weighted>
0.0222

> <Gold.Chemscore.Rot.Weighted>
2.5600

> <Gold.Chemscore.Internal.Correction.Weighted>
   9.000000E+99

> <Gold.Protein.RotatedTorsions>
[ 6907 6896 6895 6894 ] final  147.53 input  -60.11 | X-H torsion
[ 7974 7965 7964 7962 ] final  -48.74 input  175.53 | X-H torsion
[ 8008 7997 7996 7995 ] final  150.09 input   59.86 | X-H torsion
[ 10167 10162 10161 10158 ] final   50.41 input  -65.29 | X-H torsion
[ 10718 10713 10712 10709 ] final -121.76 input   66.30 | X-H torsion
[ 10763 10752 10751 10750 ] final   15.05 input  -60.55 | X-H torsion
[ 11005 11000 10999 10996 ] final  140.59 input  -57.11 | X-H torsion

> <Gold.Protein.ActiveResidues>
 VAL166  LYS551  ARG553  GLY616  TRP617  ASP618  TYR619  PRO620  LYS621  CYS622 
 ASP623  PHE694  ASN695  SER759  ASP760  ASP761  ALA762  ILE779  LEU786  VAL792 
 PHE793  MET794  SER795  GLU796  ALA797  LYS798  CYS799  TRP800  GLU811  SER814 

> <Gold.Protein.RotatedAtoms>
  152.1535  133.4537  159.4825 H   0  0  0  0  0  0  0  0  0  0  0  0  # atno 6907 bound_to 6896
  150.6898  134.2159  159.4387 H   0  0  0  0  0  0  0  0  0  0  0  0  # atno 6908 bound_to 6896
  152.0057  134.9903  160.0617 H   0  0  0  0  0  0  0  0  0  0  0  0  # atno 6909 bound_to 6896
  145.9479  140.7600  142.9519 H   0  0  0  0  0  0  0  0  0  0  0  0  # atno 7974 bound_to 7965
  156.2729  140.2084  156.5962 H   0  0  0  0  0  0  0  0  0  0  0  0  # atno 8008 bound_to 7997
  154.6943  140.0527  157.0418 H   0  0  0  0  0  0  0  0  0  0  0  0  # atno 8009 bound_to 7997
  155.0823  140.3188  155.4601 H   0  0  0  0  0  0  0  0  0  0  0  0  # atno 8010 bound_to 7997
  140.2727  144.3247  150.6286 H   0  0  0  0  0  0  0  0  0  0  0  0  # atno 10167 bound_to 10162
  156.1363  130.6433  150.9702 H   0  0  0  0  0  0  0  0  0  0  0  0  # atno 10718 bound_to 10713
  153.1562  135.6787  153.8809 H   0  0  0  0  0  0  0  0  0  0  0  0  # atno 10763 bound_to 10752
  153.8219  135.3129  155.3412 H   0  0  0  0  0  0  0  0  0  0  0  0  # atno 10764 bound_to 10752
  154.7899  135.4840  154.0117 H   0  0  0  0  0  0  0  0  0  0  0  0  # atno 10765 bound_to 10752
  140.0338  134.9339  157.0714 H   0  0  0  0  0  0  0  0  0  0  0  0  # atno 11005 bound_to 11000
  144.6790  140.2387  143.7346 LP  0  0  0  0  0  0  0  0  0  0  0  0  # atno 17320 bound_to 7965
  145.8211  139.2044  143.1937 LP  0  0  0  0  0  0  0  0  0  0  0  0  # atno 17321 bound_to 7965
  140.5877  143.2169  151.7312 LP  0  0  0  0  0  0  0  0  0  0  0  0  # atno 17342 bound_to 10162
  139.4984  144.3987  152.0204 LP  0  0  0  0  0  0  0  0  0  0  0  0  # atno 17343 bound_to 10162
  157.6535  131.0893  150.7998 LP  0  0  0  0  0  0  0  0  0  0  0  0  # atno 17370 bound_to 10713
  156.8077  130.4942  149.5360 LP  0  0  0  0  0  0  0  0  0  0  0  0  # atno 17371 bound_to 10713
  140.4181  134.1910  155.7164 LP  0  0  0  0  0  0  0  0  0  0  0  0  # atno 17394 bound_to 11000
  141.1846  133.8340  157.1134 LP  0  0  0  0  0  0  0  0  0  0  0  0  # atno 17395 bound_to 11000

$$$$
