AV-unprocessed.smi:3094|AV-procd|sdf|11791|dock4
  -GOLD-   2272017163D 1   1.00000     0.00000
 Structure written by MMmdl.
 29 30  0  0  0  0  0  0  0  0  1 V2000
  149.3689  141.5093  154.8138 C   0  0  0  0  0  0  0  0  0  0  0  0
  150.2963  141.3202  156.0217 C   0  0  1  0  0  0  0  0  0  0  0  0
  151.6249  140.6515  155.6097 C   0  0  0  0  0  0  0  0  0  0  0  0
  151.4381  139.3076  155.0942 N   0  0  0  0  0  0  0  0  0  0  0  0
  150.2339  138.6386  154.9177 C   0  0  0  0  0  0  0  0  0  0  0  0
  150.5455  137.3945  154.4180 C   0  0  0  0  0  0  0  0  0  0  0  0
  151.9260  137.2795  154.2722 N   0  0  0  0  0  0  0  0  0  0  0  0
  152.3866  138.4517  154.6895 C   0  0  0  0  0  0  0  0  0  0  0  0
  150.5381  142.6220  156.6435 N   0  0  0  0  0  0  0  0  0  0  0  0
  151.3558  142.8574  157.6821 C   0  0  0  0  0  0  0  0  0  0  0  0
  152.0009  141.9726  158.2460 O   0  0  0  0  0  0  0  0  0  0  0  0
  151.4266  144.2945  158.0813 C   0  0  0  0  0  0  0  0  0  0  0  0
  152.7736  144.9802  157.9779 C   0  0  0  0  0  0  0  0  0  0  0  0
  152.2051  144.6433  159.3337 C   0  0  0  0  0  0  0  0  0  0  0  0
  149.1472  140.5541  154.3370 H   0  0  0  0  0  0  0  0  0  0  0  0
  149.8199  142.1592  154.0630 H   0  0  0  0  0  0  0  0  0  0  0  0
  148.4191  141.9538  155.1131 H   0  0  0  0  0  0  0  0  0  0  0  0
  149.7770  140.6647  156.7232 H   0  0  0  0  0  0  0  0  0  0  0  0
  152.1142  141.2385  154.8314 H   0  0  0  0  0  0  0  0  0  0  0  0
  152.3160  140.6155  156.4534 H   0  0  0  0  0  0  0  0  0  0  0  0
  149.2829  139.0875  155.1637 H   0  0  0  0  0  0  0  0  0  0  0  0
  149.8871  136.5800  154.1540 H   0  0  0  0  0  0  0  0  0  0  0  0
  153.4401  138.6898  154.7093 H   0  0  0  0  0  0  0  0  0  0  0  0
  150.0520  143.4111  156.2426 H   0  0  0  0  0  0  0  0  0  0  0  0
  150.5521  144.9048  157.8604 H   0  0  0  0  0  0  0  0  0  0  0  0
  153.6272  144.3986  157.6333 H   0  0  0  0  0  0  0  0  0  0  0  0
  152.7733  146.0231  157.6675 H   0  0  0  0  0  0  0  0  0  0  0  0
  151.8203  145.4584  159.9432 H   0  0  0  0  0  0  0  0  0  0  0  0
  152.6852  143.8405  159.8909 H   0  0  0  0  0  0  0  0  0  0  0  0
  1  2  1  0  0  0  0
  1 15  1  0  0  0  0
  1 16  1  0  0  0  0
  1 17  1  0  0  0  0
  2  3  1  0  0  0  0
  2  9  1  0  0  0  0
  2 18  1  0  0  0  0
  3  4  1  0  0  0  0
  3 19  1  0  0  0  0
  3 20  1  0  0  0  0
  4  8  1  0  0  0  0
  4  5  1  0  0  0  0
  5  6  2  0  0  0  0
  5 21  1  0  0  0  0
  6  7  1  0  0  0  0
  6 22  1  0  0  0  0
  7  8  2  0  0  0  0
  8 23  1  0  0  0  0
  9 10  1  0  0  0  0
  9 24  1  0  0  0  0
 10 11  2  0  0  0  0
 10 12  1  0  0  0  0
 12 14  1  0  0  0  0
 12 13  1  0  0  0  0
 12 25  1  0  0  0  0
 13 14  1  0  0  0  0
 13 26  1  0  0  0  0
 13 27  1  0  0  0  0
 14 28  1  0  0  0  0
 14 29  1  0  0  0  0
M  END
> <s_m_source_file>
AV-unprocessed.smi

> <i_m_source_file_index>
3094

> <i_lp_mmshare_version>
43012

> <i_f3d_flags>
0

> <s_epik_input>
W0NIMl0xW0NIMl1bQ0hdMUMoPU8pW05IXVtDQEhdKFtDSDNdKVtDSDJdbjJbY0hdW2NIXW5bY0hdMg==

> <s_epik_cmdline>
J2VwaWtfcHl0aG9uJywgJy1waCcsICc3LjAnLCAnLXRuJywgJzgnLCAnLW1hJywgJzIwMCcsICctbWV0YWxfYmluZGluZycsICctaW1hZScsICc8aW5maWxlLm1hZT4nLCAnLW9tYWUnLCAnPG91dGZpbGUubWFlPic=

> <r_lp_tautomer_probability>
1

> <r_epik_Ionization_Penalty>
0.642614

> <r_epik_Ionization_Penalty_Charging>
0.642614

> <r_epik_Ionization_Penalty_Neutral>
4.09963e-08

> <r_epik_State_Penalty>
0.660429

> <r_epik_Charging_Adjusted_Penalty>
1.30304

> <i_epik_Tot_Q>
0

> <i_epik_Tot_abs_Q>
0

> <r_epik_Metal_State_Penalty>
0.31224

> <b_epik_Metal_Only>
0

> <s_lp_Force_Field>
OPLS_2005

> <r_lp_Energy>
7.79034

> <b_lp_Chiralities_Consistent>
1

> <s_lp_Variant>
AV-unprocessed.smi:3094-4

> <Gold.Version>
5.8.1

> <Gold.Id.Protein>
6NUR|6NUR_protein|mol2

> <Gold.PLP.Fitness>
44.7190

> <Gold.PLP.PLP>
-35.9100

> <Gold.PLP.part.hbond>
-2.0000

> <Gold.PLP.part.metal>
0.0000

> <Gold.PLP.part.buried>
-0.9107

> <Gold.PLP.part.nonpolar>
-31.7939

> <Gold.PLP.part.repulsive>
0.2129

> <Gold.PLP.ligand.clash>
0.0008

> <Gold.PLP.ligand.torsion>
0.0890

> <Gold.PLP.Chemscore.Hbond>
1.9920

> <Gold.PLP.Chemscore.CHOScore>
0.9720

> <Gold.PLP.Chemscore.Metal>
0.0000

> <Gold.Chemscore.Hbonds>
donor molecule, donor type, donor heavy atom, donor atom, acceptor molecule, acceptor atom, score
      L1  H     9    24       P1  8028  1.00
      P1  H 10752 10765       L1     7  0.99
      L1  C     6    22       P1  7948  0.87

> <Gold.PLP.Chemscore.Internal.Correction>
0.0959

> <Gold.Rescore>
     Score         DG    S(hbond)    S(metal)    S(lipo)     H(rot)  DE(clash)    DE(int)     intcor
     15.27     -15.48       1.96        0.00      69.62       1.83       0.00       0.20       ----

> <Gold.Chemscore.Fitness>
15.2734

> <Gold.Chemscore.DG>
-15.4780

> <Gold.Chemscore.ZeroCoef>
-5.4800

> <Gold.Chemscore.Hbond>
1.9609

> <Gold.Chemscore.Metal>
0.0000

> <Gold.Chemscore.Lipo>
69.6186

> <Gold.Chemscore.Internal_Hbond>
0.0000

> <Gold.Chemscore.DEClash>
0.0021

> <Gold.Chemscore.DEInternal>
0.2025

> <Gold.Chemscore.Rot>
1.8347

> <Gold.Chemscore.Internal.Correction>
   9.000000E+99

> <Gold.Chemscore.Hbonds>
donor molecule, donor type, donor heavy atom, donor atom, acceptor molecule, acceptor atom, score
      L1  H     9    24       P1  8028  1.00
      P1  H 10752 10765       L1     7  0.94

> <Gold.Chemscore.Hbond.Weighted>
-6.5495

> <Gold.Chemscore.Metal.Weighted>
-0.0000

> <Gold.Chemscore.Lipo.Weighted>
-8.1454

> <Gold.Chemscore.Internal_Hbond.Weighted>
0.0000

> <Gold.Chemscore.DEClash.Weighted>
0.0021

> <Gold.Chemscore.DEInternal.Weighted>
0.2025

> <Gold.Chemscore.Rot.Weighted>
4.6969

> <Gold.Chemscore.Internal.Correction.Weighted>
   9.000000E+99

> <Gold.Protein.RotatedTorsions>
[ 6907 6896 6895 6894 ] final   33.55 input  -60.11 | X-H torsion
[ 7974 7965 7964 7962 ] final -154.25 input  175.53 | X-H torsion
[ 8008 7997 7996 7995 ] final  142.20 input   59.86 | X-H torsion
[ 10167 10162 10161 10158 ] final  128.98 input  -65.29 | X-H torsion
[ 10718 10713 10712 10709 ] final  156.19 input   66.30 | X-H torsion
[ 10763 10752 10751 10750 ] final  162.15 input  -60.55 | X-H torsion
[ 11005 11000 10999 10996 ] final  110.38 input  -57.11 | X-H torsion

> <Gold.Protein.ActiveResidues>
 VAL166  LYS551  ARG553  GLY616  TRP617  ASP618  TYR619  PRO620  LYS621  CYS622 
 ASP623  PHE694  ASN695  SER759  ASP760  ASP761  ALA762  ILE779  LEU786  VAL792 
 PHE793  MET794  SER795  GLU796  ALA797  LYS798  CYS799  TRP800  GLU811  SER814 

> <Gold.Protein.RotatedAtoms>
  152.0900  134.9413  160.0571 H   0  0  0  0  0  0  0  0  0  0  0  0  # atno 6907 bound_to 6896
  152.0669  133.4083  159.4450 H   0  0  0  0  0  0  0  0  0  0  0  0  # atno 6908 bound_to 6896
  150.6837  134.3057  159.4768 H   0  0  0  0  0  0  0  0  0  0  0  0  # atno 6909 bound_to 6896
  144.7699  140.4413  143.5915 H   0  0  0  0  0  0  0  0  0  0  0  0  # atno 7974 bound_to 7965
  156.2953  140.2295  156.4689 H   0  0  0  0  0  0  0  0  0  0  0  0  # atno 8008 bound_to 7997
  154.7953  140.0451  157.1253 H   0  0  0  0  0  0  0  0  0  0  0  0  # atno 8009 bound_to 7997
  154.9597  140.3053  155.5040 H   0  0  0  0  0  0  0  0  0  0  0  0  # atno 8010 bound_to 7997
  139.5500  144.6805  151.4353 H   0  0  0  0  0  0  0  0  0  0  0  0  # atno 10167 bound_to 10162
  157.2083  131.0692  151.1984 H   0  0  0  0  0  0  0  0  0  0  0  0  # atno 10718 bound_to 10713
  154.2739  135.2765  155.2726 H   0  0  0  0  0  0  0  0  0  0  0  0  # atno 10763 bound_to 10752
  154.5277  135.5738  153.6736 H   0  0  0  0  0  0  0  0  0  0  0  0  # atno 10764 bound_to 10752
  152.9940  135.6220  154.2895 H   0  0  0  0  0  0  0  0  0  0  0  0  # atno 10765 bound_to 10752
  139.8880  134.9482  156.6269 H   0  0  0  0  0  0  0  0  0  0  0  0  # atno 11005 bound_to 11000
  145.6357  139.1542  143.2944 LP  0  0  0  0  0  0  0  0  0  0  0  0  # atno 17320 bound_to 7965
  146.1836  140.6457  142.9177 LP  0  0  0  0  0  0  0  0  0  0  0  0  # atno 17321 bound_to 7965
  140.6760  143.8189  150.7059 LP  0  0  0  0  0  0  0  0  0  0  0  0  # atno 17342 bound_to 10162
  140.1627  143.4261  152.2055 LP  0  0  0  0  0  0  0  0  0  0  0  0  # atno 17343 bound_to 10162
  157.3698  130.7175  149.6557 LP  0  0  0  0  0  0  0  0  0  0  0  0  # atno 17370 bound_to 10713
  155.9693  130.4202  150.4412 LP  0  0  0  0  0  0  0  0  0  0  0  0  # atno 17371 bound_to 10713
  140.7696  133.8749  155.8481 LP  0  0  0  0  0  0  0  0  0  0  0  0  # atno 17394 bound_to 11000
  140.9853  134.1351  157.4457 LP  0  0  0  0  0  0  0  0  0  0  0  0  # atno 17395 bound_to 11000

$$$$
