AV-unprocessed.smi:821|AV-procd|sdf|3840|dock4
  -GOLD-   22720 1283D 1   1.00000     0.00000
 Structure written by MMmdl.
 45 46  0  0  0  0  0  0  0  0  2 V2000
  152.1814  136.9016  156.4705 C   0  0  0  0  0  0  0  0  0  0  0  0
  151.0212  137.8469  156.1307 C   0  0  2  0  0  0  0  0  0  0  0  0
  150.5567  137.6740  154.6657 C   0  0  0  0  0  0  0  0  0  0  0  0
  149.6841  136.4890  154.4554 N   0  3  0  0  0  0  0  0  0  0  0  0
  150.3762  135.2094  154.7387 C   0  0  0  0  0  0  0  0  0  0  0  0
  149.4491  134.0162  154.4460 C   0  0  0  0  0  0  0  0  0  0  0  0
  148.2435  134.1447  155.1898 O   0  0  0  0  0  0  0  0  0  0  0  0
  147.5340  135.3321  154.8588 C   0  0  0  0  0  0  0  0  0  0  0  0
  148.4017  136.5548  155.1970 C   0  0  0  0  0  0  0  0  0  0  0  0
  151.4303  139.2284  156.3846 N   0  0  0  0  0  0  0  0  0  0  0  0
  150.6978  140.1631  157.0105 C   0  0  0  0  0  0  0  0  0  0  0  0
  149.6000  139.9382  157.5200 O   0  0  0  0  0  0  0  0  0  0  0  0
  151.2924  141.5769  157.0481 C   0  0  0  0  0  0  0  0  0  0  0  0
  151.9290  141.8820  158.3416 N   0  0  0  0  0  0  0  0  0  0  0  0
  151.5888  143.1021  158.9519 C   0  0  0  0  0  0  0  0  0  0  0  0
  152.1215  143.4776  160.1225 C   0  0  0  0  0  0  0  0  0  0  0  0
  153.0687  142.5936  160.7569 C   0  0  0  0  0  0  0  0  0  0  0  0
  153.4191  141.4148  160.1925 C   0  0  0  0  0  0  0  0  0  0  0  0
  154.4200  140.4674  160.8503 C   0  0  0  0  0  0  0  0  0  0  0  0
  153.9693  139.2125  160.8283 F   0  0  0  0  0  0  0  0  0  0  0  0
  155.5853  140.5018  160.2030 F   0  0  0  0  0  0  0  0  0  0  0  0
  154.6498  140.7949  162.1226 F   0  0  0  0  0  0  0  0  0  0  0  0
  152.8211  141.0079  158.9049 C   0  0  0  0  0  0  0  0  0  0  0  0
  153.1083  139.9451  158.3503 O   0  0  0  0  0  0  0  0  0  0  0  0
  151.8977  135.8610  156.3107 H   0  0  0  0  0  0  0  0  0  0  0  0
  152.4782  137.0041  157.5148 H   0  0  0  0  0  0  0  0  0  0  0  0
  153.0576  137.1057  155.8540 H   0  0  0  0  0  0  0  0  0  0  0  0
  150.1958  137.5789  156.7915 H   0  0  0  0  0  0  0  0  0  0  0  0
  149.9979  138.5675  154.3828 H   0  0  0  0  0  0  0  0  0  0  0  0
  151.4139  137.6259  153.9924 H   0  0  0  0  0  0  0  0  0  0  0  0
  151.2761  135.1302  154.1275 H   0  0  0  0  0  0  0  0  0  0  0  0
  150.6934  135.1893  155.7826 H   0  0  0  0  0  0  0  0  0  0  0  0
  149.2261  133.9461  153.3813 H   0  0  0  0  0  0  0  0  0  0  0  0
  149.9384  133.0836  154.7268 H   0  0  0  0  0  0  0  0  0  0  0  0
  147.2595  135.3292  153.8026 H   0  0  0  0  0  0  0  0  0  0  0  0
  146.6059  135.3597  155.4296 H   0  0  0  0  0  0  0  0  0  0  0  0
  148.5979  136.5889  156.2697 H   0  0  0  0  0  0  0  0  0  0  0  0
  147.8578  137.4640  154.9455 H   0  0  0  0  0  0  0  0  0  0  0  0
  152.3285  139.5074  156.0161 H   0  0  0  0  0  0  0  0  0  0  0  0
  152.0032  141.6667  156.2258 H   0  0  0  0  0  0  0  0  0  0  0  0
  150.5159  142.3161  156.8406 H   0  0  0  0  0  0  0  0  0  0  0  0
  150.8786  143.7103  158.4108 H   0  0  0  0  0  0  0  0  0  0  0  0
  151.8519  144.4195  160.5774 H   0  0  0  0  0  0  0  0  0  0  0  0
  153.5002  142.8958  161.6994 H   0  0  0  0  0  0  0  0  0  0  0  0
  149.4548  136.4737  153.4713 H   0  0  0  0  0  0  0  0  0  0  0  0
  1  2  1  0  0  0  0
  1 25  1  0  0  0  0
  1 26  1  0  0  0  0
  1 27  1  0  0  0  0
  2  3  1  0  0  0  0
  2 10  1  0  0  0  0
  2 28  1  0  0  0  0
  3  4  1  0  0  0  0
  3 29  1  0  0  0  0
  3 30  1  0  0  0  0
  4  9  1  0  0  0  0
  4  5  1  0  0  0  0
  4 45  1  0  0  0  0
  5  6  1  0  0  0  0
  5 31  1  0  0  0  0
  5 32  1  0  0  0  0
  6  7  1  0  0  0  0
  6 33  1  0  0  0  0
  6 34  1  0  0  0  0
  7  8  1  0  0  0  0
  8  9  1  0  0  0  0
  8 35  1  0  0  0  0
  8 36  1  0  0  0  0
  9 37  1  0  0  0  0
  9 38  1  0  0  0  0
 10 11  1  0  0  0  0
 10 39  1  0  0  0  0
 11 12  2  0  0  0  0
 11 13  1  0  0  0  0
 13 14  1  0  0  0  0
 13 40  1  0  0  0  0
 13 41  1  0  0  0  0
 14 23  1  0  0  0  0
 14 15  1  0  0  0  0
 15 16  2  0  0  0  0
 15 42  1  0  0  0  0
 16 17  1  0  0  0  0
 16 43  1  0  0  0  0
 17 18  2  0  0  0  0
 17 44  1  0  0  0  0
 18 19  1  0  0  0  0
 18 23  1  0  0  0  0
 19 20  1  0  0  0  0
 19 21  1  0  0  0  0
 19 22  1  0  0  0  0
 23 24  2  0  0  0  0
M  CHG  1   4   1
M  END
> <s_m_source_file>
AV-unprocessed.smi

> <i_m_source_file_index>
821

> <i_lp_mmshare_version>
43012

> <i_f3d_flags>
0

> <s_epik_input>
W0NIMl0xW0NIMl1PW0NIMl1bQ0gyXU4xW0NIMl1bQ0BASF0oW0NIM10pW05IXUMoPU8pW0NIMl1uMltjSF1bY0hdW2NIXWMoQyhGKShGKUYpYzI9Tw==

> <s_epik_cmdline>
J2VwaWtfcHl0aG9uJywgJy1waCcsICc3LjAnLCAnLXRuJywgJzgnLCAnLW1hJywgJzIwMCcsICctbWV0YWxfYmluZGluZycsICctaW1hZScsICc8aW5maWxlLm1hZT4nLCAnLW9tYWUnLCAnPG91dGZpbGUubWFlPic=

> <r_lp_tautomer_probability>
1

> <r_epik_Ionization_Penalty>
0.656654

> <r_epik_Ionization_Penalty_Charging>
0.656653

> <r_epik_Ionization_Penalty_Neutral>
9.12373e-08

> <r_epik_State_Penalty>
0.675641

> <r_epik_Charging_Adjusted_Penalty>
1.33229

> <i_epik_Tot_Q>
1

> <i_epik_Tot_abs_Q>
1

> <r_epik_Metal_State_Penalty>
0.675695

> <b_epik_Metal_Only>
0

> <s_lp_Force_Field>
OPLS_2005

> <r_lp_Energy>
29.4747

> <b_lp_Chiralities_Consistent>
1

> <s_lp_Variant>
AV-unprocessed.smi:821-3

> <Gold.Version>
5.8.1

> <Gold.Id.Protein>
6NUR|6NUR_protein|mol2

> <Gold.PLP.Fitness>
46.6738

> <Gold.PLP.PLP>
-39.8836

> <Gold.PLP.part.hbond>
-2.0203

> <Gold.PLP.part.metal>
0.0000

> <Gold.PLP.part.buried>
-2.9325

> <Gold.PLP.part.nonpolar>
-34.7648

> <Gold.PLP.part.repulsive>
0.1746

> <Gold.PLP.ligand.clash>
0.0000

> <Gold.PLP.ligand.torsion>
1.3179

> <Gold.PLP.Chemscore.Hbond>
3.0000

> <Gold.PLP.Chemscore.CHOScore>
0.0000

> <Gold.PLP.Chemscore.Metal>
0.0000

> <Gold.Chemscore.Hbonds>
donor molecule, donor type, donor heavy atom, donor atom, acceptor molecule, acceptor atom, score
      L1  H     4    45       P1  7948  2.00
      P1  H  7997  8009       L1    24  1.00

> <Gold.PLP.Chemscore.Internal.Correction>
0.4261

> <Gold.Rescore>
     Score         DG    S(hbond)    S(metal)    S(lipo)     H(rot)  DE(clash)    DE(int)     intcor
     10.90     -16.62       1.90        0.00      88.57       2.17       0.07       5.65       ----

> <Gold.Chemscore.Fitness>
10.9047

> <Gold.Chemscore.DG>
-16.6199

> <Gold.Chemscore.ZeroCoef>
-5.4800

> <Gold.Chemscore.Hbond>
1.8970

> <Gold.Chemscore.Metal>
0.0000

> <Gold.Chemscore.Lipo>
88.5731

> <Gold.Chemscore.Internal_Hbond>
0.0000

> <Gold.Chemscore.DEClash>
0.0659

> <Gold.Chemscore.DEInternal>
5.6493

> <Gold.Chemscore.Rot>
2.1716

> <Gold.Chemscore.Internal.Correction>
   9.000000E+99

> <Gold.Chemscore.Hbonds>
donor molecule, donor type, donor heavy atom, donor atom, acceptor molecule, acceptor atom, score
      L1  H     4    45       P1  7948  0.74
      P1  H  7997  8009       L1    24  0.86

> <Gold.Chemscore.Hbond.Weighted>
-6.3361

> <Gold.Chemscore.Metal.Weighted>
-0.0000

> <Gold.Chemscore.Lipo.Weighted>
-10.3631

> <Gold.Chemscore.Internal_Hbond.Weighted>
0.0000

> <Gold.Chemscore.DEClash.Weighted>
0.0659

> <Gold.Chemscore.DEInternal.Weighted>
5.6493

> <Gold.Chemscore.Rot.Weighted>
5.5592

> <Gold.Chemscore.Internal.Correction.Weighted>
   9.000000E+99

> <Gold.Protein.RotatedTorsions>
[ 6907 6896 6895 6894 ] final   20.82 input  -60.11 | X-H torsion
[ 7974 7965 7964 7962 ] final   32.31 input  175.53 | X-H torsion
[ 8008 7997 7996 7995 ] final  148.84 input   59.86 | X-H torsion
[ 10167 10162 10161 10158 ] final  166.68 input  -65.29 | X-H torsion
[ 10718 10713 10712 10709 ] final  116.80 input   66.30 | X-H torsion
[ 10763 10752 10751 10750 ] final  144.36 input  -60.55 | X-H torsion
[ 11005 11000 10999 10996 ] final -149.97 input  -57.11 | X-H torsion

> <Gold.Protein.ActiveResidues>
 VAL166  LYS551  ARG553  GLY616  TRP617  ASP618  TYR619  PRO620  LYS621  CYS622 
 ASP623  PHE694  ASN695  SER759  ASP760  ASP761  ALA762  ILE779  LEU786  VAL792 
 PHE793  MET794  SER795  GLU796  ALA797  LYS798  CYS799  TRP800  GLU811  SER814 

> <Gold.Protein.RotatedAtoms>
  151.9022  135.0373  160.0507 H   0  0  0  0  0  0  0  0  0  0  0  0  # atno 6907 bound_to 6896
  152.2348  133.5083  159.5245 H   0  0  0  0  0  0  0  0  0  0  0  0  # atno 6908 bound_to 6896
  150.7036  134.1084  159.4034 H   0  0  0  0  0  0  0  0  0  0  0  0  # atno 6909 bound_to 6896
  146.1494  139.6542  142.9109 H   0  0  0  0  0  0  0  0  0  0  0  0  # atno 7974 bound_to 7965
  156.2777  140.2118  156.5763 H   0  0  0  0  0  0  0  0  0  0  0  0  # atno 8008 bound_to 7997
  154.7095  140.0513  157.0559 H   0  0  0  0  0  0  0  0  0  0  0  0  # atno 8009 bound_to 7997
  155.0625  140.3168  155.4659 H   0  0  0  0  0  0  0  0  0  0  0  0  # atno 8010 bound_to 7997
  139.4929  144.4002  151.9418 H   0  0  0  0  0  0  0  0  0  0  0  0  # atno 10167 bound_to 10162
  157.6138  131.1029  150.7524 H   0  0  0  0  0  0  0  0  0  0  0  0  # atno 10718 bound_to 10713
  153.9876  135.2935  155.3415 H   0  0  0  0  0  0  0  0  0  0  0  0  # atno 10763 bound_to 10752
  154.7233  135.5100  153.8849 H   0  0  0  0  0  0  0  0  0  0  0  0  # atno 10764 bound_to 10752
  153.0825  135.6683  154.0132 H   0  0  0  0  0  0  0  0  0  0  0  0  # atno 10765 bound_to 10752
  140.7451  134.3470  157.5139 H   0  0  0  0  0  0  0  0  0  0  0  0  # atno 11005 bound_to 11000
  145.4859  141.0438  143.2620 LP  0  0  0  0  0  0  0  0  0  0  0  0  # atno 17320 bound_to 7965
  144.7886  139.6375  143.7123 LP  0  0  0  0  0  0  0  0  0  0  0  0  # atno 17321 bound_to 7965
  140.3441  144.3168  150.5961 LP  0  0  0  0  0  0  0  0  0  0  0  0  # atno 17342 bound_to 10162
  140.5541  143.2202  151.7877 LP  0  0  0  0  0  0  0  0  0  0  0  0  # atno 17343 bound_to 10162
  156.7896  130.4885  149.5387 LP  0  0  0  0  0  0  0  0  0  0  0  0  # atno 17370 bound_to 10713
  156.1251  130.6138  151.0251 LP  0  0  0  0  0  0  0  0  0  0  0  0  # atno 17371 bound_to 10713
  139.8798  134.9106  156.3017 LP  0  0  0  0  0  0  0  0  0  0  0  0  # atno 17394 bound_to 11000
  140.9801  133.7272  156.0660 LP  0  0  0  0  0  0  0  0  0  0  0  0  # atno 17395 bound_to 11000

$$$$
