AV-unprocessed.smi:116|AV-procd|sdf|1128|dock3
  -GOLD-   2262018253D 1   1.00000     0.00000
 Structure written by MMmdl.
 38 41  0  0  0  0  0  0  0  0  1 V2000
  153.1809  139.2705  155.9705 O   0  0  0  0  0  0  0  0  0  0  0  0
  152.3046  138.4858  156.3372 C   0  0  0  0  0  0  0  0  0  0  0  0
  151.3695  137.8465  155.4180 C   0  0  0  0  0  0  0  0  0  0  0  0
  151.4300  138.1292  154.1056 F   0  0  0  0  0  0  0  0  0  0  0  0
  150.4392  136.9748  155.8628 C   0  0  0  0  0  0  0  0  0  0  0  0
  150.3074  136.6264  157.1963 N   0  0  0  0  0  0  0  0  0  0  0  0
  149.2522  135.6425  157.6501 C   0  0  1  0  0  0  0  0  0  0  0  0
  148.2840  135.3369  156.5019 C   0  0  0  0  0  0  0  0  0  0  0  0
  148.8787  134.0729  155.9202 C   0  0  0  0  0  0  0  0  0  0  0  0
  149.4171  133.3857  157.1696 C   0  0  0  0  0  0  0  0  0  0  0  0
  149.8728  134.4417  158.0110 O   0  0  0  0  0  0  0  0  0  0  0  0
  151.1552  137.2132  158.1611 C   0  0  0  0  0  0  0  0  0  0  0  0
  151.0403  136.9318  159.3561 O   0  0  0  0  0  0  0  0  0  0  0  0
  152.1307  138.1288  157.6978 N   0  0  0  0  0  0  0  0  0  0  0  0
  153.0411  138.7038  158.6761 C   0  0  0  0  0  0  0  0  0  0  0  0
  152.7726  140.1675  158.8552 C   0  0  0  0  0  0  0  0  0  0  0  0
  152.1144  140.8867  157.9366 N   0  0  0  0  0  0  0  0  0  0  0  0
  151.9946  142.2083  158.3561 C   0  0  0  0  0  0  0  0  0  0  0  0
  151.3576  143.2652  157.6647 C   0  0  0  0  0  0  0  0  0  0  0  0
  151.3067  144.5647  158.2075 C   0  0  0  0  0  0  0  0  0  0  0  0
  151.8951  144.8342  159.4577 C   0  0  0  0  0  0  0  0  0  0  0  0
  152.5360  143.8023  160.1672 C   0  0  0  0  0  0  0  0  0  0  0  0
  152.5833  142.5065  159.6203 C   0  0  0  0  0  0  0  0  0  0  0  0
  153.3141  141.0515  160.2892 S   0  0  0  0  0  0  0  0  0  0  0  0
  149.7723  136.5393  155.1339 H   0  0  0  0  0  0  0  0  0  0  0  0
  148.7758  136.0844  158.5266 H   0  0  0  0  0  0  0  0  0  0  0  0
  147.2982  135.1363  156.9230 H   0  0  0  0  0  0  0  0  0  0  0  0
  148.2050  136.1609  155.7917 H   0  0  0  0  0  0  0  0  0  0  0  0
  148.1520  133.4663  155.3792 H   0  0  0  0  0  0  0  0  0  0  0  0
  149.6952  134.3168  155.2396 H   0  0  0  0  0  0  0  0  0  0  0  0
  148.6168  132.8503  157.6825 H   0  0  0  0  0  0  0  0  0  0  0  0
  150.2149  132.6759  156.9497 H   0  0  0  0  0  0  0  0  0  0  0  0
  152.9320  138.1675  159.6197 H   0  0  0  0  0  0  0  0  0  0  0  0
  154.0653  138.5255  158.3443 H   0  0  0  0  0  0  0  0  0  0  0  0
  150.9020  143.0723  156.7048 H   0  0  0  0  0  0  0  0  0  0  0  0
  150.8146  145.3565  157.6622 H   0  0  0  0  0  0  0  0  0  0  0  0
  151.8547  145.8313  159.8711 H   0  0  0  0  0  0  0  0  0  0  0  0
  152.9895  144.0025  161.1266 H   0  0  0  0  0  0  0  0  0  0  0  0
  1  2  2  0  0  0  0
  2 14  1  0  0  0  0
  2  3  1  0  0  0  0
  3  4  1  0  0  0  0
  3  5  2  0  0  0  0
  5  6  1  0  0  0  0
  5 25  1  0  0  0  0
  6  7  1  0  0  0  0
  6 12  1  0  0  0  0
  7 11  1  0  0  0  0
  7  8  1  0  0  0  0
  7 26  1  0  0  0  0
  8  9  1  0  0  0  0
  8 27  1  0  0  0  0
  8 28  1  0  0  0  0
  9 10  1  0  0  0  0
  9 29  1  0  0  0  0
  9 30  1  0  0  0  0
 10 11  1  0  0  0  0
 10 31  1  0  0  0  0
 10 32  1  0  0  0  0
 12 13  2  0  0  0  0
 12 14  1  0  0  0  0
 14 15  1  0  0  0  0
 15 16  1  0  0  0  0
 15 33  1  0  0  0  0
 15 34  1  0  0  0  0
 16 24  1  0  0  0  0
 16 17  2  0  0  0  0
 17 18  1  0  0  0  0
 18 23  2  0  0  0  0
 18 19  1  0  0  0  0
 19 20  2  0  0  0  0
 19 35  1  0  0  0  0
 20 21  1  0  0  0  0
 20 36  1  0  0  0  0
 21 22  2  0  0  0  0
 21 37  1  0  0  0  0
 22 23  1  0  0  0  0
 22 38  1  0  0  0  0
 23 24  1  0  0  0  0
M  END
> <s_m_source_file>
AV-unprocessed.smi

> <i_m_source_file_index>
116

> <i_lp_mmshare_version>
43012

> <i_f3d_flags>
0

> <s_epik_input>
TzFbQ0gyXVtDSDJdW0NIMl1bQ0BIXTFuKFtjSF1jKEYpYzI9TyljKD1PKW4yW0NIMl1jKG4zKXNjKGMzNClbY0hdW2NIXVtjSF1bY0hdNA==

> <s_epik_cmdline>
J2VwaWtfcHl0aG9uJywgJy1waCcsICc3LjAnLCAnLXRuJywgJzgnLCAnLW1hJywgJzIwMCcsICctbWV0YWxfYmluZGluZycsICctaW1hZScsICc8aW5maWxlLm1hZT4nLCAnLW9tYWUnLCAnPG91dGZpbGUubWFlPic=

> <r_lp_tautomer_probability>
1

> <r_epik_Ionization_Penalty>
4.2492e-05

> <r_epik_Ionization_Penalty_Charging>
2.84664e-09

> <r_epik_Ionization_Penalty_Neutral>
4.24891e-05

> <r_epik_State_Penalty>
-0

> <r_epik_Charging_Adjusted_Penalty>
2.84664e-09

> <i_epik_Tot_Q>
0

> <i_epik_Tot_abs_Q>
0

> <r_epik_Metal_State_Penalty>
-0

> <b_epik_Metal_Only>
0

> <s_epik_Chemistry_Notes>
This compound contains an acetal/aminal-like group ( X-CH(R)-Y where X, Y are N, S, or O) that may be acid/base labile, releasing an aldehyde.

> <s_lp_Force_Field>
OPLS_2005

> <r_lp_Energy>
30.7685

> <b_lp_Chiralities_Consistent>
1

> <s_lp_Variant>
AV-unprocessed.smi:116-2

> <Gold.Version>
5.8.1

> <Gold.Id.Protein>
6NUR|6NUR_protein|mol2

> <Gold.PLP.Fitness>
48.1853

> <Gold.PLP.PLP>
-41.4018

> <Gold.PLP.part.hbond>
-2.8849

> <Gold.PLP.part.metal>
0.0000

> <Gold.PLP.part.buried>
-7.3590

> <Gold.PLP.part.nonpolar>
-31.7189

> <Gold.PLP.part.repulsive>
0.0000

> <Gold.PLP.ligand.clash>
0.0000

> <Gold.PLP.ligand.torsion>
0.6005

> <Gold.PLP.Chemscore.Hbond>
2.6560

> <Gold.PLP.Chemscore.CHOScore>
0.0000

> <Gold.PLP.Chemscore.Metal>
0.0000

> <Gold.Chemscore.Hbonds>
donor molecule, donor type, donor heavy atom, donor atom, acceptor molecule, acceptor atom, score
      P1  H  6896  6907       L1    13  1.00
      P1  H  6896  6909       L1    11  0.64
      P1  H  7997  8008       L1     1  0.98

> <Gold.PLP.Chemscore.Internal.Correction>
0.0166

> <Gold.Rescore>
     Score         DG    S(hbond)    S(metal)    S(lipo)     H(rot)  DE(clash)    DE(int)     intcor
     19.88     -22.42       2.69        0.00     101.13       1.52       0.01       2.53       ----

> <Gold.Chemscore.Fitness>
19.8785

> <Gold.Chemscore.DG>
-22.4187

> <Gold.Chemscore.ZeroCoef>
-5.4800

> <Gold.Chemscore.Hbond>
2.6916

> <Gold.Chemscore.Metal>
0.0000

> <Gold.Chemscore.Lipo>
101.1342

> <Gold.Chemscore.Internal_Hbond>
0.0000

> <Gold.Chemscore.DEClash>
0.0098

> <Gold.Chemscore.DEInternal>
2.5305

> <Gold.Chemscore.Rot>
1.5172

> <Gold.Chemscore.Internal.Correction>
   9.000000E+99

> <Gold.Chemscore.Hbonds>
donor molecule, donor type, donor heavy atom, donor atom, acceptor molecule, acceptor atom, score
      P1  H  6896  6907       L1    13  0.97
      P1  H  6896  6909       L1    11  0.39
      P1  H  7997  8008       L1     1  0.90

> <Gold.Chemscore.Hbond.Weighted>
-8.9901

> <Gold.Chemscore.Metal.Weighted>
-0.0000

> <Gold.Chemscore.Lipo.Weighted>
-11.8327

> <Gold.Chemscore.Internal_Hbond.Weighted>
0.0000

> <Gold.Chemscore.DEClash.Weighted>
0.0098

> <Gold.Chemscore.DEInternal.Weighted>
2.5305

> <Gold.Chemscore.Rot.Weighted>
3.8841

> <Gold.Chemscore.Internal.Correction.Weighted>
   9.000000E+99

> <Gold.Protein.RotatedTorsions>
[ 6907 6896 6895 6894 ] final   -7.93 input  -60.11 | X-H torsion
[ 7974 7965 7964 7962 ] final  -70.79 input  175.53 | X-H torsion
[ 8008 7997 7996 7995 ] final  -21.57 input   59.86 | X-H torsion
[ 10167 10162 10161 10158 ] final   81.97 input  -65.29 | X-H torsion
[ 10718 10713 10712 10709 ] final -154.50 input   66.30 | X-H torsion
[ 10763 10752 10751 10750 ] final  141.18 input  -60.55 | X-H torsion
[ 11005 11000 10999 10996 ] final  -56.38 input  -57.11 | X-H torsion

> <Gold.Protein.ActiveResidues>
 VAL166  LYS551  ARG553  GLY616  TRP617  ASP618  TYR619  PRO620  LYS621  CYS622 
 ASP623  PHE694  ASN695  SER759  ASP760  ASP761  ALA762  ILE779  LEU786  VAL792 
 PHE793  MET794  SER795  GLU796  ALA797  LYS798  CYS799  TRP800  GLU811  SER814 

> <Gold.Protein.RotatedAtoms>
  151.4418  135.1021  159.9672 H   0  0  0  0  0  0  0  0  0  0  0  0  # atno 6907 bound_to 6896
  152.4920  133.8522  159.7217 H   0  0  0  0  0  0  0  0  0  0  0  0  # atno 6908 bound_to 6896
  150.9083  133.6971  159.2889 H   0  0  0  0  0  0  0  0  0  0  0  0  # atno 6909 bound_to 6896
  145.6865  140.9169  143.0804 H   0  0  0  0  0  0  0  0  0  0  0  0  # atno 7974 bound_to 7965
  154.4697  140.2031  156.0025 H   0  0  0  0  0  0  0  0  0  0  0  0  # atno 8008 bound_to 7997
  156.0990  140.3247  155.7887 H   0  0  0  0  0  0  0  0  0  0  0  0  # atno 8009 bound_to 7997
  155.4830  140.0540  157.2955 H   0  0  0  0  0  0  0  0  0  0  0  0  # atno 8010 bound_to 7997
  139.9337  144.6135  150.8320 H   0  0  0  0  0  0  0  0  0  0  0  0  # atno 10167 bound_to 10162
  156.5001  130.8387  151.2605 H   0  0  0  0  0  0  0  0  0  0  0  0  # atno 10718 bound_to 10713
  153.9350  135.2986  155.3444 H   0  0  0  0  0  0  0  0  0  0  0  0  # atno 10763 bound_to 10752
  154.7507  135.4982  153.9287 H   0  0  0  0  0  0  0  0  0  0  0  0  # atno 10764 bound_to 10752
  153.1072  135.6750  153.9671 H   0  0  0  0  0  0  0  0  0  0  0  0  # atno 10765 bound_to 10752
  141.1117  133.6610  156.4610 H   0  0  0  0  0  0  0  0  0  0  0  0  # atno 11005 bound_to 11000
  144.7010  139.8765  143.7444 LP  0  0  0  0  0  0  0  0  0  0  0  0  # atno 17320 bound_to 7965
  146.0919  139.3909  143.0400 LP  0  0  0  0  0  0  0  0  0  0  0  0  # atno 17321 bound_to 7965
  140.7630  143.3213  151.2616 LP  0  0  0  0  0  0  0  0  0  0  0  0  # atno 17342 bound_to 10162
  139.6761  143.9935  152.2782 LP  0  0  0  0  0  0  0  0  0  0  0  0  # atno 17343 bound_to 10162
  157.7464  130.9984  150.2853 LP  0  0  0  0  0  0  0  0  0  0  0  0  # atno 17370 bound_to 10713
  156.3341  130.3805  149.7465 LP  0  0  0  0  0  0  0  0  0  0  0  0  # atno 17371 bound_to 10713
  140.4756  134.6712  157.5149 LP  0  0  0  0  0  0  0  0  0  0  0  0  # atno 17394 bound_to 11000
  140.0015  134.6829  155.9523 LP  0  0  0  0  0  0  0  0  0  0  0  0  # atno 17395 bound_to 11000

$$$$
