AV-unprocessed.smi:2858|AV-procd|sdf|11001|dock9
  -GOLD-   2272015453D 1   1.00000     0.00000
 Structure written by MMmdl.
 39 40  0  0  0  0  0  0  0  0  1 V2000
  146.4735  137.7498  150.2428 O   0  0  0  0  0  0  0  0  0  0  0  0
  146.4406  137.7969  151.4703 C   0  0  0  0  0  0  0  0  0  0  0  0
  146.7463  139.1199  152.1940 C   0  0  0  0  0  0  0  0  0  0  0  0
  146.9920  139.0046  153.6525 N   0  0  0  0  0  0  0  0  0  0  0  0
  147.0304  140.3415  154.2518 C   0  0  0  0  0  0  0  0  0  0  0  0
  148.2638  141.1646  153.8294 C   0  0  0  0  0  0  0  0  0  0  0  0
  149.4950  140.9152  154.7190 C   0  0  0  0  0  0  0  0  0  0  0  0
  149.7862  142.0653  155.5672 N   0  0  0  0  0  0  0  0  0  0  0  0
  150.4203  142.0110  156.7477 C   0  0  0  0  0  0  0  0  0  0  0  0
  150.8380  140.9652  157.2458 O   0  0  0  0  0  0  0  0  0  0  0  0
  150.5342  143.2340  157.2958 N   0  0  0  0  0  0  0  0  0  0  0  0
  151.1209  143.5879  158.5404 C   0  0  0  0  0  0  0  0  0  0  0  0
  151.0899  144.9676  158.8459 C   0  0  0  0  0  0  0  0  0  0  0  0
  151.6439  145.4216  160.0584 C   0  0  0  0  0  0  0  0  0  0  0  0
  152.2149  144.4831  160.9363 C   0  0  0  0  0  0  0  0  0  0  0  0
  152.2052  143.1285  160.5562 C   0  0  0  0  0  0  0  0  0  0  0  0
  151.6754  142.6914  159.3942 N   0  0  0  0  0  0  0  0  0  0  0  0
  145.9964  138.1279  154.2732 C   0  0  0  0  0  0  0  0  0  0  0  0
  146.1197  136.7161  153.6707 C   0  0  0  0  0  0  0  0  0  0  0  0
  146.1150  136.7283  152.2125 N   0  0  0  0  0  0  0  0  0  0  0  0
  147.6099  139.5874  151.7187 H   0  0  0  0  0  0  0  0  0  0  0  0
  145.8944  139.7793  152.0187 H   0  0  0  0  0  0  0  0  0  0  0  0
  146.1415  140.8988  153.9512 H   0  0  0  0  0  0  0  0  0  0  0  0
  146.9862  140.2613  155.3393 H   0  0  0  0  0  0  0  0  0  0  0  0
  148.5122  140.8897  152.8037 H   0  0  0  0  0  0  0  0  0  0  0  0
  148.0362  142.2291  153.7932 H   0  0  0  0  0  0  0  0  0  0  0  0
  149.3195  140.0586  155.3698 H   0  0  0  0  0  0  0  0  0  0  0  0
  150.3652  140.6668  154.1090 H   0  0  0  0  0  0  0  0  0  0  0  0
  149.4778  142.9663  155.2325 H   0  0  0  0  0  0  0  0  0  0  0  0
  150.1494  144.0007  156.7646 H   0  0  0  0  0  0  0  0  0  0  0  0
  150.6461  145.6753  158.1606 H   0  0  0  0  0  0  0  0  0  0  0  0
  151.6301  146.4718  160.3099 H   0  0  0  0  0  0  0  0  0  0  0  0
  152.6486  144.7928  161.8755 H   0  0  0  0  0  0  0  0  0  0  0  0
  152.6336  142.3756  161.2010 H   0  0  0  0  0  0  0  0  0  0  0  0
  146.1430  138.0577  155.3497 H   0  0  0  0  0  0  0  0  0  0  0  0
  144.9931  138.5266  154.1126 H   0  0  0  0  0  0  0  0  0  0  0  0
  147.0481  136.2496  154.0027 H   0  0  0  0  0  0  0  0  0  0  0  0
  145.3056  136.0834  154.0247 H   0  0  0  0  0  0  0  0  0  0  0  0
  145.8923  135.8642  151.7397 H   0  0  0  0  0  0  0  0  0  0  0  0
  1  2  2  0  0  0  0
  2 20  1  0  0  0  0
  2  3  1  0  0  0  0
  3  4  1  0  0  0  0
  3 21  1  0  0  0  0
  3 22  1  0  0  0  0
  4  5  1  0  0  0  0
  4 18  1  0  0  0  0
  5  6  1  0  0  0  0
  5 23  1  0  0  0  0
  5 24  1  0  0  0  0
  6  7  1  0  0  0  0
  6 25  1  0  0  0  0
  6 26  1  0  0  0  0
  7  8  1  0  0  0  0
  7 27  1  0  0  0  0
  7 28  1  0  0  0  0
  8  9  1  0  0  0  0
  8 29  1  0  0  0  0
  9 10  2  0  0  0  0
  9 11  1  0  0  0  0
 11 12  1  0  0  0  0
 11 30  1  0  0  0  0
 12 17  1  0  0  0  0
 12 13  2  0  0  0  0
 13 14  1  0  0  0  0
 13 31  1  0  0  0  0
 14 15  2  0  0  0  0
 14 32  1  0  0  0  0
 15 16  1  0  0  0  0
 15 33  1  0  0  0  0
 16 17  2  0  0  0  0
 16 34  1  0  0  0  0
 18 19  1  0  0  0  0
 18 35  1  0  0  0  0
 18 36  1  0  0  0  0
 19 20  1  0  0  0  0
 19 37  1  0  0  0  0
 19 38  1  0  0  0  0
 20 39  1  0  0  0  0
M  END
> <s_m_source_file>
AV-unprocessed.smi

> <i_m_source_file_index>
2858

> <i_lp_mmshare_version>
43012

> <i_f3d_flags>
0

> <s_epik_input>
Tz1DMVtDSDJdTihbQ0gyXVtDSDJdW05IXTEpW0NIMl1bQ0gyXVtDSDJdW05IXUMoPU8pW05IXWMyW2NIXVtjSF1bY0hdW2NIXW4y

> <s_epik_cmdline>
J2VwaWtfcHl0aG9uJywgJy1waCcsICc3LjAnLCAnLXRuJywgJzgnLCAnLW1hJywgJzIwMCcsICctbWV0YWxfYmluZGluZycsICctaW1hZScsICc8aW5maWxlLm1hZT4nLCAnLW9tYWUnLCAnPG91dGZpbGUubWFlPic=

> <r_epik_Ionization_Penalty>
1.05093

> <r_epik_Ionization_Penalty_Charging>
0

> <r_epik_Ionization_Penalty_Neutral>
1.05093

> <r_epik_State_Penalty>
1.10373

> <r_epik_Charging_Adjusted_Penalty>
1.10373

> <i_epik_Tot_Q>
0

> <i_epik_Tot_abs_Q>
0

> <r_epik_Metal_State_Penalty>
1.17671

> <b_epik_Metal_Only>
0

> <s_lp_Force_Field>
OPLS_2005

> <r_lp_Energy>
22.2327

> <b_lp_Chiralities_Consistent>
1

> <s_lp_Variant>
AV-unprocessed.smi:2858-3

> <Gold.Version>
5.8.1

> <Gold.Id.Protein>
6NUR|6NUR_protein|mol2

> <Gold.PLP.Fitness>
44.2124

> <Gold.PLP.PLP>
-37.3617

> <Gold.PLP.part.hbond>
-3.9687

> <Gold.PLP.part.metal>
0.0000

> <Gold.PLP.part.buried>
-1.7165

> <Gold.PLP.part.nonpolar>
-34.0300

> <Gold.PLP.part.repulsive>
3.1089

> <Gold.PLP.ligand.clash>
0.0000

> <Gold.PLP.ligand.torsion>
0.7396

> <Gold.PLP.Chemscore.Hbond>
2.7680

> <Gold.PLP.Chemscore.CHOScore>
0.0000

> <Gold.PLP.Chemscore.Metal>
0.0000

> <Gold.Chemscore.Hbonds>
donor molecule, donor type, donor heavy atom, donor atom, acceptor molecule, acceptor atom, score
      L1  H     8    29       P1  8028  0.98
      L1  H    11    30       P1  8028  1.00
      P1  H  7954  7966       L1     1  0.78

> <Gold.PLP.Chemscore.Internal.Correction>
0.0259

> <Gold.Rescore>
     Score         DG    S(hbond)    S(metal)    S(lipo)     H(rot)  DE(clash)    DE(int)     intcor
     13.65     -18.27       2.65        0.00      77.97       2.02       2.60       2.02       ----

> <Gold.Chemscore.Fitness>
13.6490

> <Gold.Chemscore.DG>
-18.2678

> <Gold.Chemscore.ZeroCoef>
-5.4800

> <Gold.Chemscore.Hbond>
2.6465

> <Gold.Chemscore.Metal>
0.0000

> <Gold.Chemscore.Lipo>
77.9739

> <Gold.Chemscore.Internal_Hbond>
0.0000

> <Gold.Chemscore.DEClash>
2.6035

> <Gold.Chemscore.DEInternal>
2.0153

> <Gold.Chemscore.Rot>
2.0213

> <Gold.Chemscore.Internal.Correction>
   9.000000E+99

> <Gold.Chemscore.Hbonds>
donor molecule, donor type, donor heavy atom, donor atom, acceptor molecule, acceptor atom, score
      L1  H     8    29       P1  8028  0.93
      L1  H    11    30       P1  8028  0.96
      P1  H  7954  7966       L1     1  0.35

> <Gold.Chemscore.Hbond.Weighted>
-8.8393

> <Gold.Chemscore.Metal.Weighted>
-0.0000

> <Gold.Chemscore.Lipo.Weighted>
-9.1229

> <Gold.Chemscore.Internal_Hbond.Weighted>
0.0000

> <Gold.Chemscore.DEClash.Weighted>
2.6035

> <Gold.Chemscore.DEInternal.Weighted>
2.0153

> <Gold.Chemscore.Rot.Weighted>
5.1744

> <Gold.Chemscore.Internal.Correction.Weighted>
   9.000000E+99

> <Gold.Protein.RotatedTorsions>
[ 6907 6896 6895 6894 ] final -105.32 input  -60.11 | X-H torsion
[ 7974 7965 7964 7962 ] final   64.63 input  175.53 | X-H torsion
[ 8008 7997 7996 7995 ] final -135.23 input   59.86 | X-H torsion
[ 10167 10162 10161 10158 ] final  -62.96 input  -65.29 | X-H torsion
[ 10718 10713 10712 10709 ] final  118.72 input   66.30 | X-H torsion
[ 10763 10752 10751 10750 ] final    8.09 input  -60.55 | X-H torsion
[ 11005 11000 10999 10996 ] final  -11.34 input  -57.11 | X-H torsion

> <Gold.Protein.ActiveResidues>
 VAL166  LYS551  ARG553  GLY616  TRP617  ASP618  TYR619  PRO620  LYS621  CYS622 
 ASP623  PHE694  ASN695  SER759  ASP760  ASP761  ALA762  ILE779  LEU786  VAL792 
 PHE793  MET794  SER795  GLU796  ALA797  LYS798  CYS799  TRP800  GLU811  SER814 

> <Gold.Protein.RotatedAtoms>
  150.7331  134.0144  159.3680 H   0  0  0  0  0  0  0  0  0  0  0  0  # atno 6907 bound_to 6896
  151.8106  135.0680  160.0421 H   0  0  0  0  0  0  0  0  0  0  0  0  # atno 6908 bound_to 6896
  152.3075  133.5682  159.5695 H   0  0  0  0  0  0  0  0  0  0  0  0  # atno 6909 bound_to 6896
  145.8480  139.3236  143.0892 H   0  0  0  0  0  0  0  0  0  0  0  0  # atno 7974 bound_to 7965
  155.3752  140.0490  157.3045 H   0  0  0  0  0  0  0  0  0  0  0  0  # atno 8008 bound_to 7997
  154.5110  140.2191  155.9119 H   0  0  0  0  0  0  0  0  0  0  0  0  # atno 8009 bound_to 7997
  156.1582  140.3122  155.8768 H   0  0  0  0  0  0  0  0  0  0  0  0  # atno 8010 bound_to 7997
  140.5903  143.2340  151.6153 H   0  0  0  0  0  0  0  0  0  0  0  0  # atno 10167 bound_to 10162
  157.6011  131.1051  150.7795 H   0  0  0  0  0  0  0  0  0  0  0  0  # atno 10718 bound_to 10713
  153.2290  135.6890  153.7912 H   0  0  0  0  0  0  0  0  0  0  0  0  # atno 10763 bound_to 10752
  153.7083  135.3286  155.3241 H   0  0  0  0  0  0  0  0  0  0  0  0  # atno 10764 bound_to 10752
  154.8305  135.4584  154.1168 H   0  0  0  0  0  0  0  0  0  0  0  0  # atno 10765 bound_to 10752
  140.7542  133.8567  155.9070 H   0  0  0  0  0  0  0  0  0  0  0  0  # atno 11005 bound_to 11000
  145.9390  140.8993  143.0317 LP  0  0  0  0  0  0  0  0  0  0  0  0  # atno 17320 bound_to 7965
  144.6730  140.1523  143.7429 LP  0  0  0  0  0  0  0  0  0  0  0  0  # atno 17321 bound_to 7965
  139.5223  144.3166  152.0947 LP  0  0  0  0  0  0  0  0  0  0  0  0  # atno 17342 bound_to 10162
  140.2329  144.4349  150.6292 LP  0  0  0  0  0  0  0  0  0  0  0  0  # atno 17343 bound_to 10162
  156.8194  130.4979  149.5345 LP  0  0  0  0  0  0  0  0  0  0  0  0  # atno 17370 bound_to 10713
  156.1085  130.6022  151.0009 LP  0  0  0  0  0  0  0  0  0  0  0  0  # atno 17371 bound_to 10713
  140.9722  134.1515  157.4566 LP  0  0  0  0  0  0  0  0  0  0  0  0  # atno 17394 bound_to 11000
  139.8782  134.9982  156.5890 LP  0  0  0  0  0  0  0  0  0  0  0  0  # atno 17395 bound_to 11000

$$$$
