AV-unprocessed.smi:458|AV-procd|sdf|2620|dock5
  -GOLD-   2262023 23D 1   1.00000     0.00000
 Structure written by MMmdl.
 36 38  0  0  0  0  0  0  0  0  1 V2000
  151.4186  136.4566  154.3278 O   0  0  0  0  0  0  0  0  0  0  0  0
  151.6445  137.7418  154.8645 C   0  0  0  0  0  0  0  0  0  0  0  0
  150.4831  138.6704  154.6738 C   0  0  0  0  0  0  0  0  0  0  0  0
  149.3840  138.2883  154.0222 N   0  0  0  0  0  0  0  0  0  0  0  0
  148.5799  139.4080  154.0969 C   0  0  0  0  0  0  0  0  0  0  0  0
  147.2773  139.6376  153.5985 C   0  0  0  0  0  0  0  0  0  0  0  0
  146.6422  140.8793  153.8065 C   0  0  0  0  0  0  0  0  0  0  0  0
  147.2976  141.9062  154.5164 C   0  0  0  0  0  0  0  0  0  0  0  0
  148.5957  141.6981  155.0209 C   0  0  0  0  0  0  0  0  0  0  0  0
  149.2276  140.4581  154.8068 C   0  0  0  0  0  0  0  0  0  0  0  0
  150.4718  139.9408  155.1552 N   0  0  0  0  0  0  0  0  0  0  0  0
  151.5107  140.6446  155.8986 C   0  0  0  0  0  0  0  0  0  0  0  0
  151.3299  140.5426  157.4276 C   0  0  2  0  0  0  0  0  0  0  0  0
  150.1276  139.8645  157.7333 O   0  0  0  0  0  0  0  0  0  0  0  0
  151.3986  141.9129  158.0831 C   0  0  0  0  0  0  0  0  0  0  0  0
  152.3832  142.1800  159.0586 C   0  0  0  0  0  0  0  0  0  0  0  0
  152.4566  143.4500  159.6636 C   0  0  0  0  0  0  0  0  0  0  0  0
  151.5477  144.4604  159.2949 C   0  0  0  0  0  0  0  0  0  0  0  0
  151.6193  145.6810  159.8764 F   0  0  0  0  0  0  0  0  0  0  0  0
  150.5659  144.2011  158.3196 C   0  0  0  0  0  0  0  0  0  0  0  0
  150.4920  142.9315  157.7143 C   0  0  0  0  0  0  0  0  0  0  0  0
  151.1519  136.5499  153.4263 H   0  0  0  0  0  0  0  0  0  0  0  0
  151.8490  137.6368  155.9304 H   0  0  0  0  0  0  0  0  0  0  0  0
  152.5400  138.1752  154.4191 H   0  0  0  0  0  0  0  0  0  0  0  0
  146.7658  138.8564  153.0561 H   0  0  0  0  0  0  0  0  0  0  0  0
  145.6466  141.0443  153.4213 H   0  0  0  0  0  0  0  0  0  0  0  0
  146.8030  142.8535  154.6732 H   0  0  0  0  0  0  0  0  0  0  0  0
  149.0990  142.4826  155.5658 H   0  0  0  0  0  0  0  0  0  0  0  0
  152.4722  140.2175  155.6113 H   0  0  0  0  0  0  0  0  0  0  0  0
  151.5417  141.6896  155.5934 H   0  0  0  0  0  0  0  0  0  0  0  0
  152.1348  139.9328  157.8388 H   0  0  0  0  0  0  0  0  0  0  0  0
  149.5585  139.9085  156.9804 H   0  0  0  0  0  0  0  0  0  0  0  0
  153.0872  141.4127  159.3462 H   0  0  0  0  0  0  0  0  0  0  0  0
  153.2115  143.6497  160.4099 H   0  0  0  0  0  0  0  0  0  0  0  0
  149.8701  144.9763  158.0341 H   0  0  0  0  0  0  0  0  0  0  0  0
  149.7380  142.7426  156.9641 H   0  0  0  0  0  0  0  0  0  0  0  0
  1  2  1  0  0  0  0
  1 22  1  0  0  0  0
  2  3  1  0  0  0  0
  2 23  1  0  0  0  0
  2 24  1  0  0  0  0
  3 11  1  0  0  0  0
  3  4  2  0  0  0  0
  4  5  1  0  0  0  0
  5 10  2  0  0  0  0
  5  6  1  0  0  0  0
  6  7  2  0  0  0  0
  6 25  1  0  0  0  0
  7  8  1  0  0  0  0
  7 26  1  0  0  0  0
  8  9  2  0  0  0  0
  8 27  1  0  0  0  0
  9 10  1  0  0  0  0
  9 28  1  0  0  0  0
 10 11  1  0  0  0  0
 11 12  1  0  0  0  0
 12 13  1  0  0  0  0
 12 29  1  0  0  0  0
 12 30  1  0  0  0  0
 13 14  1  0  0  0  0
 13 15  1  0  0  0  0
 13 31  1  0  0  0  0
 14 32  1  0  0  0  0
 15 21  1  0  0  0  0
 15 16  2  0  0  0  0
 16 17  1  0  0  0  0
 16 33  1  0  0  0  0
 17 18  2  0  0  0  0
 17 34  1  0  0  0  0
 18 19  1  0  0  0  0
 18 20  1  0  0  0  0
 20 21  2  0  0  0  0
 20 35  1  0  0  0  0
 21 36  1  0  0  0  0
M  END
> <s_m_source_file>
AV-unprocessed.smi

> <i_m_source_file_index>
458

> <i_lp_mmshare_version>
43012

> <i_f3d_flags>
0

> <s_epik_input>
W2NIXTFbY0hdW2NIXVtjSF1jKGMxMiluKGMobjIpW0NIMl1bT0hdKVtDSDJdW0NASF0oW09IXSljM1tjSF1bY0hdYyhGKVtjSF1bY0hdMw==

> <s_epik_cmdline>
J2VwaWtfcHl0aG9uJywgJy1waCcsICc3LjAnLCAnLXRuJywgJzgnLCAnLW1hJywgJzIwMCcsICctbWV0YWxfYmluZGluZycsICctaW1hZScsICc8aW5maWxlLm1hZT4nLCAnLW9tYWUnLCAnPG91dGZpbGUubWFlPic=

> <r_epik_Ionization_Penalty>
0.0634724

> <r_epik_Ionization_Penalty_Charging>
0

> <r_epik_Ionization_Penalty_Neutral>
0.0634724

> <r_epik_State_Penalty>
0.0551572

> <r_epik_Charging_Adjusted_Penalty>
0.0551572

> <i_epik_Tot_Q>
0

> <i_epik_Tot_abs_Q>
0

> <r_epik_Metal_State_Penalty>
5.78034e-05

> <b_epik_Metal_Only>
0

> <s_lp_Force_Field>
OPLS_2005

> <r_lp_Energy>
12.4444

> <b_lp_Chiralities_Consistent>
1

> <s_lp_Variant>
AV-unprocessed.smi:458-1

> <Gold.Version>
5.8.1

> <Gold.Id.Protein>
6NUR|6NUR_protein|mol2

> <Gold.PLP.Fitness>
52.7188

> <Gold.PLP.PLP>
-48.8903

> <Gold.PLP.part.hbond>
-2.0000

> <Gold.PLP.part.metal>
0.0000

> <Gold.PLP.part.buried>
-1.1223

> <Gold.PLP.part.nonpolar>
-46.9723

> <Gold.PLP.part.repulsive>
1.1338

> <Gold.PLP.ligand.clash>
0.0000

> <Gold.PLP.ligand.torsion>
1.1074

> <Gold.PLP.Chemscore.Hbond>
2.0000

> <Gold.PLP.Chemscore.CHOScore>
0.0000

> <Gold.PLP.Chemscore.Metal>
0.0000

> <Gold.Chemscore.Hbonds>
donor molecule, donor type, donor heavy atom, donor atom, acceptor molecule, acceptor atom, score
      L1  H     1    22       P1  7949  1.00
      P1  H 10752 10765       L1     1  1.00

> <Gold.PLP.Chemscore.Internal.Correction>
0.0433

> <Gold.Rescore>
     Score         DG    S(hbond)    S(metal)    S(lipo)     H(rot)  DE(clash)    DE(int)     intcor
     14.45     -17.23       1.56        0.00     116.11       2.75       0.96       1.82       ----

> <Gold.Chemscore.Fitness>
14.4537

> <Gold.Chemscore.DG>
-17.2285

> <Gold.Chemscore.ZeroCoef>
-5.4800

> <Gold.Chemscore.Hbond>
1.5581

> <Gold.Chemscore.Metal>
0.0000

> <Gold.Chemscore.Lipo>
116.1051

> <Gold.Chemscore.Internal_Hbond>
0.0000

> <Gold.Chemscore.DEClash>
0.9590

> <Gold.Chemscore.DEInternal>
1.8158

> <Gold.Chemscore.Rot>
2.7500

> <Gold.Chemscore.Internal.Correction>
   9.000000E+99

> <Gold.Chemscore.Hbonds>
donor molecule, donor type, donor heavy atom, donor atom, acceptor molecule, acceptor atom, score
      L1  H     1    22       P1  7949  0.41
      P1  H 10752 10765       L1     1  0.33

> <Gold.Chemscore.Hbond.Weighted>
-5.2041

> <Gold.Chemscore.Metal.Weighted>
-0.0000

> <Gold.Chemscore.Lipo.Weighted>
-13.5843

> <Gold.Chemscore.Internal_Hbond.Weighted>
0.0000

> <Gold.Chemscore.DEClash.Weighted>
0.9590

> <Gold.Chemscore.DEInternal.Weighted>
1.8158

> <Gold.Chemscore.Rot.Weighted>
7.0399

> <Gold.Chemscore.Internal.Correction.Weighted>
   9.000000E+99

> <Gold.Protein.RotatedTorsions>
[ 6907 6896 6895 6894 ] final -174.07 input  -60.11 | X-H torsion
[ 7974 7965 7964 7962 ] final   81.66 input  175.53 | X-H torsion
[ 8008 7997 7996 7995 ] final  -75.30 input   59.86 | X-H torsion
[ 10167 10162 10161 10158 ] final  101.43 input  -65.29 | X-H torsion
[ 10718 10713 10712 10709 ] final    4.17 input   66.30 | X-H torsion
[ 10763 10752 10751 10750 ] final  162.06 input  -60.55 | X-H torsion
[ 11005 11000 10999 10996 ] final   -2.82 input  -57.11 | X-H torsion

> <Gold.Protein.ActiveResidues>
 VAL166  LYS551  ARG553  GLY616  TRP617  ASP618  TYR619  PRO620  LYS621  CYS622 
 ASP623  PHE694  ASN695  SER759  ASP760  ASP761  ALA762  ILE779  LEU786  VAL792 
 PHE793  MET794  SER795  GLU796  ALA797  LYS798  CYS799  TRP800  GLU811  SER814 

> <Gold.Protein.RotatedAtoms>
  151.5664  133.3396  159.2980 H   0  0  0  0  0  0  0  0  0  0  0  0  # atno 6907 bound_to 6896
  150.8393  134.7681  159.6930 H   0  0  0  0  0  0  0  0  0  0  0  0  # atno 6908 bound_to 6896
  152.4464  134.5493  159.9914 H   0  0  0  0  0  0  0  0  0  0  0  0  # atno 6909 bound_to 6896
  145.6353  139.2413  143.2061 H   0  0  0  0  0  0  0  0  0  0  0  0  # atno 7974 bound_to 7965
  154.5404  140.0746  156.8501 H   0  0  0  0  0  0  0  0  0  0  0  0  # atno 8008 bound_to 7997
  155.3191  140.3395  155.4223 H   0  0  0  0  0  0  0  0  0  0  0  0  # atno 8009 bound_to 7997
  156.1869  140.1672  156.8154 H   0  0  0  0  0  0  0  0  0  0  0  0  # atno 8010 bound_to 7997
  139.7438  144.7003  151.0534 H   0  0  0  0  0  0  0  0  0  0  0  0  # atno 10167 bound_to 10162
  156.8886  130.5679  149.5650 H   0  0  0  0  0  0  0  0  0  0  0  0  # atno 10718 bound_to 10713
  154.2725  135.2765  155.2732 H   0  0  0  0  0  0  0  0  0  0  0  0  # atno 10763 bound_to 10752
  154.5289  135.5735  153.6746 H   0  0  0  0  0  0  0  0  0  0  0  0  # atno 10764 bound_to 10752
  152.9943  135.6223  154.2880 H   0  0  0  0  0  0  0  0  0  0  0  0  # atno 10765 bound_to 10752
  140.6626  133.9307  155.8445 H   0  0  0  0  0  0  0  0  0  0  0  0  # atno 11005 bound_to 11000
  146.1324  140.7168  142.9406 LP  0  0  0  0  0  0  0  0  0  0  0  0  # atno 17320 bound_to 7965
  144.7178  140.4269  143.7031 LP  0  0  0  0  0  0  0  0  0  0  0  0  # atno 17321 bound_to 7965
  140.7789  143.4891  150.9916 LP  0  0  0  0  0  0  0  0  0  0  0  0  # atno 17342 bound_to 10162
  139.8579  143.7352  152.3175 LP  0  0  0  0  0  0  0  0  0  0  0  0  # atno 17343 bound_to 10162
  156.0640  130.5687  150.9252 LP  0  0  0  0  0  0  0  0  0  0  0  0  # atno 17370 bound_to 10713
  157.6097  131.0937  150.8816 LP  0  0  0  0  0  0  0  0  0  0  0  0  # atno 17371 bound_to 10713
  141.0454  134.0562  157.3851 LP  0  0  0  0  0  0  0  0  0  0  0  0  # atno 17394 bound_to 11000
  139.9008  135.0163  156.7258 LP  0  0  0  0  0  0  0  0  0  0  0  0  # atno 17395 bound_to 11000

$$$$
