AV-unprocessed.smi:3349|AV-procd|sdf|12937|dock10
  -GOLD-   2272019373D 1   1.00000     0.00000
 Structure written by MMmdl.
 41 42  0  0  0  0  0  0  0  0  2 V2000
  146.0017  135.7046  152.7972 C   0  0  0  0  0  0  0  0  0  0  0  0
  146.6501  135.3903  154.1675 C   0  0  2  0  0  0  0  0  0  0  0  0
  146.8624  136.7042  154.9742 C   0  0  0  0  0  0  0  0  0  0  0  0
  147.8481  137.5993  154.3739 N   0  0  0  0  0  0  0  0  0  0  0  0
  148.2999  138.7336  154.9332 C   0  0  0  0  0  0  0  0  0  0  0  0
  147.9134  139.1393  156.0299 O   0  0  0  0  0  0  0  0  0  0  0  0
  149.3422  139.5234  154.1270 C   0  0  1  0  0  0  0  0  0  0  0  0
  149.2569  141.0427  154.3772 C   0  0  0  0  0  0  0  0  0  0  0  0
  150.6777  138.9953  154.3771 N   0  0  0  0  0  0  0  0  0  0  0  0
  151.1254  137.7387  154.3276 C   0  0  0  0  0  0  0  0  0  0  0  0
  152.4010  137.6070  154.6632 N   0  0  0  0  0  0  0  0  0  0  0  0
  152.7000  138.9111  154.9380 C   0  0  0  0  0  0  0  0  0  0  0  0
  151.7012  139.7818  154.7944 N   0  0  0  0  0  0  0  0  0  0  0  0
  147.9139  134.5967  153.9988 N   0  3  0  0  0  0  0  0  0  0  0  0
  148.7936  134.5738  155.2017 C   0  0  0  0  0  0  0  0  0  0  0  0
  150.0615  133.7365  154.9617 C   0  0  0  0  0  0  0  0  0  0  0  0
  149.7040  132.4199  154.5744 O   0  0  0  0  0  0  0  0  0  0  0  0
  148.9818  132.4239  153.3537 C   0  0  0  0  0  0  0  0  0  0  0  0
  147.6683  133.2021  153.5339 C   0  0  0  0  0  0  0  0  0  0  0  0
  145.1190  136.3359  152.8948 H   0  0  0  0  0  0  0  0  0  0  0  0
  145.6541  134.8087  152.2856 H   0  0  0  0  0  0  0  0  0  0  0  0
  146.7008  136.2209  152.1388 H   0  0  0  0  0  0  0  0  0  0  0  0
  145.9543  134.7671  154.7316 H   0  0  0  0  0  0  0  0  0  0  0  0
  145.9398  137.2772  155.0655 H   0  0  0  0  0  0  0  0  0  0  0  0
  147.1898  136.4721  155.9882 H   0  0  0  0  0  0  0  0  0  0  0  0
  148.2168  137.3351  153.4715 H   0  0  0  0  0  0  0  0  0  0  0  0
  149.1285  139.3621  153.0690 H   0  0  0  0  0  0  0  0  0  0  0  0
  148.2653  141.4252  154.1332 H   0  0  0  0  0  0  0  0  0  0  0  0
  149.9746  141.5789  153.7557 H   0  0  0  0  0  0  0  0  0  0  0  0
  149.4632  141.3017  155.4163 H   0  0  0  0  0  0  0  0  0  0  0  0
  150.5042  136.9019  154.0443 H   0  0  0  0  0  0  0  0  0  0  0  0
  153.6812  139.2273  155.2601 H   0  0  0  0  0  0  0  0  0  0  0  0
  149.1250  135.5776  155.4622 H   0  0  0  0  0  0  0  0  0  0  0  0
  148.2386  134.1784  156.0541 H   0  0  0  0  0  0  0  0  0  0  0  0
  150.6941  134.1958  154.2000 H   0  0  0  0  0  0  0  0  0  0  0  0
  150.6540  133.6849  155.8755 H   0  0  0  0  0  0  0  0  0  0  0  0
  149.5869  132.8559  152.5549 H   0  0  0  0  0  0  0  0  0  0  0  0
  148.7690  131.3935  153.0683 H   0  0  0  0  0  0  0  0  0  0  0  0
  147.0284  132.6860  154.2514 H   0  0  0  0  0  0  0  0  0  0  0  0
  147.1516  133.1914  152.5765 H   0  0  0  0  0  0  0  0  0  0  0  0
  148.4460  135.0545  153.2723 H   0  0  0  0  0  0  0  0  0  0  0  0
  1  2  1  0  0  0  0
  1 20  1  0  0  0  0
  1 21  1  0  0  0  0
  1 22  1  0  0  0  0
  2  3  1  0  0  0  0
  2 14  1  0  0  0  0
  2 23  1  0  0  0  0
  3  4  1  0  0  0  0
  3 24  1  0  0  0  0
  3 25  1  0  0  0  0
  4  5  1  0  0  0  0
  4 26  1  0  0  0  0
  5  6  2  0  0  0  0
  5  7  1  0  0  0  0
  7  8  1  0  0  0  0
  7  9  1  0  0  0  0
  7 27  1  0  0  0  0
  8 28  1  0  0  0  0
  8 29  1  0  0  0  0
  8 30  1  0  0  0  0
  9 13  1  0  0  0  0
  9 10  1  0  0  0  0
 10 11  2  0  0  0  0
 10 31  1  0  0  0  0
 11 12  1  0  0  0  0
 12 13  2  0  0  0  0
 12 32  1  0  0  0  0
 14 19  1  0  0  0  0
 14 15  1  0  0  0  0
 14 41  1  0  0  0  0
 15 16  1  0  0  0  0
 15 33  1  0  0  0  0
 15 34  1  0  0  0  0
 16 17  1  0  0  0  0
 16 35  1  0  0  0  0
 16 36  1  0  0  0  0
 17 18  1  0  0  0  0
 18 19  1  0  0  0  0
 18 37  1  0  0  0  0
 18 38  1  0  0  0  0
 19 39  1  0  0  0  0
 19 40  1  0  0  0  0
M  CHG  1  14   1
M  END
> <s_m_source_file>
AV-unprocessed.smi

> <i_m_source_file_index>
3349

> <i_lp_mmshare_version>
43012

> <i_f3d_flags>
0

> <s_epik_input>
W0NIMl0xW0NIMl1PW0NIMl1bQ0gyXU4xW0NASF0oW0NIM10pW0NIMl1bTkhdQyg9TylbQ0BIXShbQ0gzXSluMltjSF1uW2NIXW4y

> <s_epik_cmdline>
J2VwaWtfcHl0aG9uJywgJy1waCcsICc3LjAnLCAnLXRuJywgJzgnLCAnLW1hJywgJzIwMCcsICctbWV0YWxfYmluZGluZycsICctaW1hZScsICc8aW5maWxlLm1hZT4nLCAnLW9tYWUnLCAnPG91dGZpbGUubWFlPic=

> <r_lp_tautomer_probability>
1

> <r_epik_Ionization_Penalty>
0.71326

> <r_epik_Ionization_Penalty_Charging>
0.713252

> <r_epik_Ionization_Penalty_Neutral>
8.10337e-06

> <r_epik_State_Penalty>
0.737017

> <r_epik_Charging_Adjusted_Penalty>
1.45027

> <i_epik_Tot_Q>
1

> <i_epik_Tot_abs_Q>
1

> <r_epik_Metal_State_Penalty>
0.73702

> <b_epik_Metal_Only>
0

> <s_lp_Force_Field>
OPLS_2005

> <r_lp_Energy>
26.6465

> <b_lp_Chiralities_Consistent>
1

> <s_lp_Variant>
AV-unprocessed.smi:3349-7

> <Gold.Version>
5.8.1

> <Gold.Id.Protein>
6NUR|6NUR_protein|mol2

> <Gold.PLP.Fitness>
44.2938

> <Gold.PLP.PLP>
-29.8109

> <Gold.PLP.part.hbond>
-4.0000

> <Gold.PLP.part.metal>
0.0000

> <Gold.PLP.part.buried>
-1.1840

> <Gold.PLP.part.nonpolar>
-25.0209

> <Gold.PLP.part.repulsive>
0.2309

> <Gold.PLP.ligand.clash>
0.0000

> <Gold.PLP.ligand.torsion>
1.0563

> <Gold.PLP.Chemscore.Hbond>
4.5300

> <Gold.PLP.Chemscore.CHOScore>
0.9532

> <Gold.PLP.Chemscore.Metal>
0.0000

> <Gold.Chemscore.Hbonds>
donor molecule, donor type, donor heavy atom, donor atom, acceptor molecule, acceptor atom, score
      L1  H     4    26       P1  7948  0.88
      L1  H    14    41       P1  7948  2.00
      P1  H  7989  7998       L1    13  0.85
      P1  H 10752 10765       L1    11  0.60
      L1  C    10    31       P1  7948  0.41
      L1  C    10    31       P1  7949  0.13

> <Gold.PLP.Chemscore.Internal.Correction>
0.1459

> <Gold.Rescore>
     Score         DG    S(hbond)    S(metal)    S(lipo)     H(rot)  DE(clash)    DE(int)     intcor
     12.77     -14.21       3.18        0.00      41.51       2.63       0.37       1.07       ----

> <Gold.Chemscore.Fitness>
12.7669

> <Gold.Chemscore.DG>
-14.2107

> <Gold.Chemscore.ZeroCoef>
-5.4800

> <Gold.Chemscore.Hbond>
3.1779

> <Gold.Chemscore.Metal>
0.0000

> <Gold.Chemscore.Lipo>
41.5107

> <Gold.Chemscore.Internal_Hbond>
0.0000

> <Gold.Chemscore.DEClash>
0.3692

> <Gold.Chemscore.DEInternal>
1.0746

> <Gold.Chemscore.Rot>
2.6329

> <Gold.Chemscore.Internal.Correction>
   9.000000E+99

> <Gold.Chemscore.Hbonds>
donor molecule, donor type, donor heavy atom, donor atom, acceptor molecule, acceptor atom, score
      L1  H     4    26       P1  7948  0.85
      L1  H    14    41       P1  7948  0.85
      P1  H  7989  7998       L1    13  0.14
      P1  H 10752 10765       L1    11  0.37

> <Gold.Chemscore.Hbond.Weighted>
-10.6142

> <Gold.Chemscore.Metal.Weighted>
-0.0000

> <Gold.Chemscore.Lipo.Weighted>
-4.8567

> <Gold.Chemscore.Internal_Hbond.Weighted>
0.0000

> <Gold.Chemscore.DEClash.Weighted>
0.3692

> <Gold.Chemscore.DEInternal.Weighted>
1.0746

> <Gold.Chemscore.Rot.Weighted>
6.7403

> <Gold.Chemscore.Internal.Correction.Weighted>
   9.000000E+99

> <Gold.Protein.RotatedTorsions>
[ 6907 6896 6895 6894 ] final -176.35 input  -60.11 | X-H torsion
[ 7974 7965 7964 7962 ] final  -75.51 input  175.53 | X-H torsion
[ 8008 7997 7996 7995 ] final  -18.94 input   59.86 | X-H torsion
[ 10167 10162 10161 10158 ] final   80.22 input  -65.29 | X-H torsion
[ 10718 10713 10712 10709 ] final   -2.29 input   66.30 | X-H torsion
[ 10763 10752 10751 10750 ] final  155.39 input  -60.55 | X-H torsion
[ 11005 11000 10999 10996 ] final  -56.77 input  -57.11 | X-H torsion

> <Gold.Protein.ActiveResidues>
 VAL166  LYS551  ARG553  GLY616  TRP617  ASP618  TYR619  PRO620  LYS621  CYS622 
 ASP623  PHE694  ASN695  SER759  ASP760  ASP761  ALA762  ILE779  LEU786  VAL792 
 PHE793  MET794  SER795  GLU796  ALA797  LYS798  CYS799  TRP800  GLU811  SER814 

> <Gold.Protein.RotatedAtoms>
  151.6034  133.3354  159.3051 H   0  0  0  0  0  0  0  0  0  0  0  0  # atno 6907 bound_to 6896
  150.8195  134.7399  159.6771 H   0  0  0  0  0  0  0  0  0  0  0  0  # atno 6908 bound_to 6896
  152.4289  134.5820  160.0002 H   0  0  0  0  0  0  0  0  0  0  0  0  # atno 6909 bound_to 6896
  145.6250  140.9353  143.1117 H   0  0  0  0  0  0  0  0  0  0  0  0  # atno 7974 bound_to 7965
  154.4871  140.2102  155.9631 H   0  0  0  0  0  0  0  0  0  0  0  0  # atno 8008 bound_to 7997
  156.1252  140.3206  155.8235 H   0  0  0  0  0  0  0  0  0  0  0  0  # atno 8009 bound_to 7997
  155.4397  140.0509  157.3002 H   0  0  0  0  0  0  0  0  0  0  0  0  # atno 8010 bound_to 7997
  139.9520  144.6019  150.8152 H   0  0  0  0  0  0  0  0  0  0  0  0  # atno 10167 bound_to 10162
  156.7929  130.5368  149.5733 H   0  0  0  0  0  0  0  0  0  0  0  0  # atno 10718 bound_to 10713
  154.1676  135.2806  155.3090 H   0  0  0  0  0  0  0  0  0  0  0  0  # atno 10763 bound_to 10752
  154.6100  135.5502  153.7466 H   0  0  0  0  0  0  0  0  0  0  0  0  # atno 10764 bound_to 10752
  153.0174  135.6413  154.1816 H   0  0  0  0  0  0  0  0  0  0  0  0  # atno 10765 bound_to 10752
  141.1135  133.6610  156.4669 H   0  0  0  0  0  0  0  0  0  0  0  0  # atno 11005 bound_to 11000
  144.7216  139.8012  143.7380 LP  0  0  0  0  0  0  0  0  0  0  0  0  # atno 17320 bound_to 7965
  146.1401  139.4456  143.0114 LP  0  0  0  0  0  0  0  0  0  0  0  0  # atno 17321 bound_to 7965
  140.7580  143.3097  151.2874 LP  0  0  0  0  0  0  0  0  0  0  0  0  # atno 17342 bound_to 10162
  139.6621  144.0171  152.2699 LP  0  0  0  0  0  0  0  0  0  0  0  0  # atno 17343 bound_to 10162
  156.1148  130.6066  151.0103 LP  0  0  0  0  0  0  0  0  0  0  0  0  # atno 17370 bound_to 10713
  157.6591  131.0884  150.7879 LP  0  0  0  0  0  0  0  0  0  0  0  0  # atno 17371 bound_to 10713
  140.4711  134.6753  157.5129 LP  0  0  0  0  0  0  0  0  0  0  0  0  # atno 17394 bound_to 11000
  140.0042  134.6789  155.9481 LP  0  0  0  0  0  0  0  0  0  0  0  0  # atno 17395 bound_to 11000

$$$$
