AV-unprocessed.smi:2855|AV-procd|sdf|10986|dock3
  -GOLD-   2272015443D 1   1.00000     0.00000
 Structure written by MMmdl.
 46 47  0  0  0  0  0  0  0  0  2 V2000
  144.2252  137.5137  161.3385 C   0  0  0  0  0  0  0  0  0  0  0  0
  145.7374  137.2484  161.3516 C   0  0  1  0  0  0  0  0  0  0  0  0
  146.1219  136.2230  162.4370 C   0  0  0  0  0  0  0  0  0  0  0  0
  147.6282  135.9021  162.4092 C   0  0  0  0  0  0  0  0  0  0  0  0
  148.0832  135.3625  161.0295 C   0  0  1  0  0  0  0  0  0  0  0  0
  147.5218  133.9322  160.7069 C   0  0  0  0  0  0  0  0  0  0  0  0
  147.6502  132.9602  161.8979 C   0  0  0  0  0  0  0  0  0  0  0  0
  148.1822  133.2655  159.4842 C   0  0  0  0  0  0  0  0  0  0  0  0
  147.7549  136.4890  160.0010 C   0  0  1  0  0  0  0  0  0  0  0  0
  148.2683  136.2551  158.6546 N   0  0  0  0  0  0  0  0  0  0  0  0
  148.1148  137.0768  157.6048 C   0  0  0  0  0  0  0  0  0  0  0  0
  147.4943  138.1393  157.6633 O   0  0  0  0  0  0  0  0  0  0  0  0
  148.7375  136.6049  156.2840 C   0  0  0  0  0  0  0  0  0  0  0  0
  149.8699  137.4406  155.8541 N   0  0  0  0  0  0  0  0  0  0  0  0
  149.6664  138.8300  155.7797 C   0  0  0  0  0  0  0  0  0  0  0  0
  150.6465  139.6728  155.4018 C   0  0  0  0  0  0  0  0  0  0  0  0
  151.9484  139.1104  155.0653 C   0  0  0  0  0  0  0  0  0  0  0  0
  152.8546  139.8644  154.7164 O   0  0  0  0  0  0  0  0  0  0  0  0
  152.0971  137.7562  155.1551 N   0  5  0  0  0  0  0  0  0  0  0  0
  151.0909  136.9112  155.5403 C   0  0  0  0  0  0  0  0  0  0  0  0
  151.2464  135.6918  155.6105 O   0  0  0  0  0  0  0  0  0  0  0  0
  146.2470  136.8063  159.9644 C   0  0  0  0  0  0  0  0  0  0  0  0
  143.6660  136.6097  161.0954 H   0  0  0  0  0  0  0  0  0  0  0  0
  143.9663  138.2739  160.6011 H   0  0  0  0  0  0  0  0  0  0  0  0
  143.8804  137.8669  162.3108 H   0  0  0  0  0  0  0  0  0  0  0  0
  146.2310  138.1892  161.5996 H   0  0  0  0  0  0  0  0  0  0  0  0
  145.8533  136.6106  163.4203 H   0  0  0  0  0  0  0  0  0  0  0  0
  145.5455  135.3069  162.3064 H   0  0  0  0  0  0  0  0  0  0  0  0
  148.1824  136.8142  162.6355 H   0  0  0  0  0  0  0  0  0  0  0  0
  147.8884  135.2197  163.2165 H   0  0  0  0  0  0  0  0  0  0  0  0
  149.1688  135.2677  161.0803 H   0  0  0  0  0  0  0  0  0  0  0  0
  146.4575  134.0097  160.4897 H   0  0  0  0  0  0  0  0  0  0  0  0
  148.6794  132.9013  162.2534 H   0  0  0  0  0  0  0  0  0  0  0  0
  147.3392  131.9522  161.6224 H   0  0  0  0  0  0  0  0  0  0  0  0
  147.0159  133.2515  162.7342 H   0  0  0  0  0  0  0  0  0  0  0  0
  149.2698  133.2914  159.5584 H   0  0  0  0  0  0  0  0  0  0  0  0
  147.8906  133.7356  158.5473 H   0  0  0  0  0  0  0  0  0  0  0  0
  147.8862  132.2202  159.3926 H   0  0  0  0  0  0  0  0  0  0  0  0
  148.2472  137.4007  160.3465 H   0  0  0  0  0  0  0  0  0  0  0  0
  148.7937  135.4050  158.5108 H   0  0  0  0  0  0  0  0  0  0  0  0
  149.0498  135.5624  156.3724 H   0  0  0  0  0  0  0  0  0  0  0  0
  147.9565  136.6046  155.5228 H   0  0  0  0  0  0  0  0  0  0  0  0
  148.6762  139.1645  156.0519 H   0  0  0  0  0  0  0  0  0  0  0  0
  150.4744  140.7378  155.3522 H   0  0  0  0  0  0  0  0  0  0  0  0
  145.6849  135.9417  159.6110 H   0  0  0  0  0  0  0  0  0  0  0  0
  146.0583  137.6034  159.2440 H   0  0  0  0  0  0  0  0  0  0  0  0
  1  2  1  0  0  0  0
  1 23  1  0  0  0  0
  1 24  1  0  0  0  0
  1 25  1  0  0  0  0
  2 22  1  0  0  0  0
  2  3  1  0  0  0  0
  2 26  1  0  0  0  0
  3  4  1  0  0  0  0
  3 27  1  0  0  0  0
  3 28  1  0  0  0  0
  4  5  1  0  0  0  0
  4 29  1  0  0  0  0
  4 30  1  0  0  0  0
  5  6  1  0  0  0  0
  5  9  1  0  0  0  0
  5 31  1  0  0  0  0
  6  7  1  0  0  0  0
  6  8  1  0  0  0  0
  6 32  1  0  0  0  0
  7 33  1  0  0  0  0
  7 34  1  0  0  0  0
  7 35  1  0  0  0  0
  8 36  1  0  0  0  0
  8 37  1  0  0  0  0
  8 38  1  0  0  0  0
  9 10  1  0  0  0  0
  9 22  1  0  0  0  0
  9 39  1  0  0  0  0
 10 11  1  0  0  0  0
 10 40  1  0  0  0  0
 11 12  2  0  0  0  0
 11 13  1  0  0  0  0
 13 14  1  0  0  0  0
 13 41  1  0  0  0  0
 13 42  1  0  0  0  0
 14 20  1  0  0  0  0
 14 15  1  0  0  0  0
 15 16  2  0  0  0  0
 15 43  1  0  0  0  0
 16 17  1  0  0  0  0
 16 44  1  0  0  0  0
 17 18  2  0  0  0  0
 17 19  1  0  0  0  0
 19 20  1  0  0  0  0
 20 21  2  0  0  0  0
 22 45  1  0  0  0  0
 22 46  1  0  0  0  0
M  CHG  1  19  -1
M  END
> <s_m_source_file>
AV-unprocessed.smi

> <i_m_source_file_index>
2855

> <i_lp_mmshare_version>
43012

> <i_f3d_flags>
0

> <s_epik_input>
W0NIM11bQ0BASF0xW0NIMl1bQ0gyXVtDQEBIXShbQ0hdKFtDSDNdKVtDSDNdKVtDQEhdKFtDSDJdMSlbTkhdQyg9TylbQ0gyXW4yW2NIXVtjSF1jKD1PKVtuSF1jMj1P

> <s_epik_cmdline>
J2VwaWtfcHl0aG9uJywgJy1waCcsICc3LjAnLCAnLXRuJywgJzgnLCAnLW1hJywgJzIwMCcsICctbWV0YWxfYmluZGluZycsICctaW1hZScsICc8aW5maWxlLm1hZT4nLCAnLW9tYWUnLCAnPG91dGZpbGUubWFlPic=

> <r_lp_tautomer_probability>
0.999537

> <r_epik_Ionization_Penalty>
3.12102

> <r_epik_Ionization_Penalty_Charging>
2.9581e-08

> <r_epik_Ionization_Penalty_Neutral>
3.12102

> <r_epik_State_Penalty>
3.12011

> <r_epik_Charging_Adjusted_Penalty>
3.12011

> <i_epik_Tot_Q>
-1

> <i_epik_Tot_abs_Q>
1

> <r_epik_Metal_State_Penalty>
0.463583

> <b_epik_Metal_Only>
1

> <s_lp_Force_Field>
OPLS_2005

> <r_lp_Energy>
27.3846

> <b_lp_Chiralities_Consistent>
1

> <s_lp_Variant>
AV-unprocessed.smi:2855-10

> <Gold.Version>
5.8.1

> <Gold.Id.Protein>
6NUR|6NUR_protein|mol2

> <Gold.PLP.Fitness>
36.7100

> <Gold.PLP.PLP>
-30.3487

> <Gold.PLP.part.hbond>
-3.4254

> <Gold.PLP.part.metal>
0.0000

> <Gold.PLP.part.buried>
-2.8599

> <Gold.PLP.part.nonpolar>
-23.1610

> <Gold.PLP.part.repulsive>
0.2655

> <Gold.PLP.ligand.clash>
0.0000

> <Gold.PLP.ligand.torsion>
0.2808

> <Gold.PLP.Chemscore.Hbond>
2.2800

> <Gold.PLP.Chemscore.CHOScore>
0.0000

> <Gold.PLP.Chemscore.Metal>
0.0000

> <Gold.Chemscore.Hbonds>
donor molecule, donor type, donor heavy atom, donor atom, acceptor molecule, acceptor atom, score
      P1  H  7989  7998       L1    18  0.26
      P1  H  7997  8009       L1    18  1.00
      P1  H 10752 10763       L1    21  0.95

> <Gold.PLP.Chemscore.Internal.Correction>
0.0829

> <Gold.Rescore>
     Score         DG    S(hbond)    S(metal)    S(lipo)     H(rot)  DE(clash)    DE(int)     intcor
     10.75     -13.46       1.57        0.00      62.92       1.81       0.06       2.66       ----

> <Gold.Chemscore.Fitness>
10.7501

> <Gold.Chemscore.DG>
-13.4633

> <Gold.Chemscore.ZeroCoef>
-5.4800

> <Gold.Chemscore.Hbond>
1.5732

> <Gold.Chemscore.Metal>
0.0000

> <Gold.Chemscore.Lipo>
62.9247

> <Gold.Chemscore.Internal_Hbond>
0.0000

> <Gold.Chemscore.DEClash>
0.0580

> <Gold.Chemscore.DEInternal>
2.6552

> <Gold.Chemscore.Rot>
1.8100

> <Gold.Chemscore.Internal.Correction>
   9.000000E+99

> <Gold.Chemscore.Hbonds>
donor molecule, donor type, donor heavy atom, donor atom, acceptor molecule, acceptor atom, score
      P1  H  7989  7998       L1    18  0.02
      P1  H  7997  8009       L1    18  0.96
      P1  H 10752 10763       L1    21  0.21

> <Gold.Chemscore.Hbond.Weighted>
-5.2546

> <Gold.Chemscore.Metal.Weighted>
-0.0000

> <Gold.Chemscore.Lipo.Weighted>
-7.3622

> <Gold.Chemscore.Internal_Hbond.Weighted>
0.0000

> <Gold.Chemscore.DEClash.Weighted>
0.0580

> <Gold.Chemscore.DEInternal.Weighted>
2.6552

> <Gold.Chemscore.Rot.Weighted>
4.6335

> <Gold.Chemscore.Internal.Correction.Weighted>
   9.000000E+99

> <Gold.Protein.RotatedTorsions>
[ 6907 6896 6895 6894 ] final   68.94 input  -60.11 | X-H torsion
[ 7974 7965 7964 7962 ] final -159.99 input  175.53 | X-H torsion
[ 8008 7997 7996 7995 ] final -127.71 input   59.86 | X-H torsion
[ 10167 10162 10161 10158 ] final  176.78 input  -65.29 | X-H torsion
[ 10718 10713 10712 10709 ] final   73.29 input   66.30 | X-H torsion
[ 10763 10752 10751 10750 ] final   63.20 input  -60.55 | X-H torsion
[ 11005 11000 10999 10996 ] final   55.26 input  -57.11 | X-H torsion

> <Gold.Protein.ActiveResidues>
 VAL166  LYS551  ARG553  GLY616  TRP617  ASP618  TYR619  PRO620  LYS621  CYS622 
 ASP623  PHE694  ASN695  SER759  ASP760  ASP761  ALA762  ILE779  LEU786  VAL792 
 PHE793  MET794  SER795  GLU796  ALA797  LYS798  CYS799  TRP800  GLU811  SER814 

> <Gold.Protein.RotatedAtoms>
  152.4654  134.5088  159.9747 H   0  0  0  0  0  0  0  0  0  0  0  0  # atno 6907 bound_to 6896
  151.5127  133.3476  159.2895 H   0  0  0  0  0  0  0  0  0  0  0  0  # atno 6908 bound_to 6896
  150.8636  134.8022  159.7163 H   0  0  0  0  0  0  0  0  0  0  0  0  # atno 6909 bound_to 6896
  144.7444  140.3606  143.6097 H   0  0  0  0  0  0  0  0  0  0  0  0  # atno 7974 bound_to 7965
  155.2507  140.0432  157.2986 H   0  0  0  0  0  0  0  0  0  0  0  0  # atno 8008 bound_to 7997
  154.5771  140.2390  155.8077 H   0  0  0  0  0  0  0  0  0  0  0  0  # atno 8009 bound_to 7997
  156.2166  140.2983  155.9861 H   0  0  0  0  0  0  0  0  0  0  0  0  # atno 8010 bound_to 7997
  139.5227  144.2876  152.0492 H   0  0  0  0  0  0  0  0  0  0  0  0  # atno 10167 bound_to 10162
  157.6541  130.9621  150.1048 H   0  0  0  0  0  0  0  0  0  0  0  0  # atno 10718 bound_to 10713
  153.0009  135.5437  154.6314 H   0  0  0  0  0  0  0  0  0  0  0  0  # atno 10763 bound_to 10752
  154.5591  135.2832  155.0938 H   0  0  0  0  0  0  0  0  0  0  0  0  # atno 10764 bound_to 10752
  154.2148  135.6461  153.5179 H   0  0  0  0  0  0  0  0  0  0  0  0  # atno 10765 bound_to 10752
  140.0621  134.5587  155.9140 H   0  0  0  0  0  0  0  0  0  0  0  0  # atno 11005 bound_to 11000
  145.7181  139.1702  143.2500 LP  0  0  0  0  0  0  0  0  0  0  0  0  # atno 17320 bound_to 7965
  146.1297  140.7201  142.9418 LP  0  0  0  0  0  0  0  0  0  0  0  0  # atno 17321 bound_to 7965
  140.2328  144.4350  150.6293 LP  0  0  0  0  0  0  0  0  0  0  0  0  # atno 17342 bound_to 10162
  140.6343  143.2192  151.6427 LP  0  0  0  0  0  0  0  0  0  0  0  0  # atno 17343 bound_to 10162
  156.1961  130.3657  149.8847 LP  0  0  0  0  0  0  0  0  0  0  0  0  # atno 17370 bound_to 10713
  156.6763  130.8840  151.3569 LP  0  0  0  0  0  0  0  0  0  0  0  0  # atno 17371 bound_to 10713
  141.1977  133.6598  156.5757 LP  0  0  0  0  0  0  0  0  0  0  0  0  # atno 17394 bound_to 11000
  140.3754  134.7570  157.4626 LP  0  0  0  0  0  0  0  0  0  0  0  0  # atno 17395 bound_to 11000

$$$$
