AV-unprocessed.smi:2218|AV-procd|sdf|8976|dock10
  -GOLD-   2272012193D 1   1.00000     0.00000
 Structure written by MMmdl.
 32 32  0  0  0  0  0  0  0  0  2 V2000
  154.5468  140.8895  161.4775 C   0  0  0  0  0  0  0  0  0  0  0  0
  153.5953  141.9437  161.0261 C   0  0  0  0  0  0  0  0  0  0  0  0
  153.1966  142.0852  159.7594 N   0  0  0  0  0  0  0  0  0  0  0  0
  152.3067  143.1516  159.5905 C   0  0  0  0  0  0  0  0  0  0  0  0
  151.7526  143.4589  158.2271 C   0  0  0  0  0  0  0  0  0  0  0  0
  150.9594  142.2836  157.6401 C   0  0  0  0  0  0  0  0  0  0  0  0
  151.3023  141.1162  157.8354 O   0  0  0  0  0  0  0  0  0  0  0  0
  149.8900  142.6173  156.9015 N   0  0  0  0  0  0  0  0  0  0  0  0
  149.0176  141.6740  156.2120 C   0  0  0  0  0  0  0  0  0  0  0  0
  149.7654  140.9416  155.0863 C   0  0  0  0  0  0  0  0  0  0  0  0
  150.5156  139.6995  155.5868 C   0  0  0  0  0  0  0  0  0  0  0  0
  151.4285  139.0935  154.5023 C   0  0  0  0  0  0  0  0  0  0  0  0
  152.5303  138.1903  155.0720 C   0  0  0  0  0  0  0  0  0  0  0  0
  153.6938  138.6464  155.0323 O   0  0  0  0  0  0  0  0  0  0  0  0
  152.2117  137.0741  155.5397 O   0  5  0  0  0  0  0  0  0  0  0  0
  152.0292  143.8139  160.7613 C   0  0  0  0  0  0  0  0  0  0  0  0
  152.8873  143.1307  162.1145 S   0  0  0  0  0  0  0  0  0  0  0  0
  154.6451  140.1112  160.7200 H   0  0  0  0  0  0  0  0  0  0  0  0
  154.1889  140.4339  162.4008 H   0  0  0  0  0  0  0  0  0  0  0  0
  155.5282  141.3279  161.6596 H   0  0  0  0  0  0  0  0  0  0  0  0
  151.1050  144.3357  158.2667 H   0  0  0  0  0  0  0  0  0  0  0  0
  152.5629  143.7058  157.5401 H   0  0  0  0  0  0  0  0  0  0  0  0
  149.6757  143.5979  156.7925 H   0  0  0  0  0  0  0  0  0  0  0  0
  148.5950  140.9603  156.9214 H   0  0  0  0  0  0  0  0  0  0  0  0
  148.1783  142.2327  155.7972 H   0  0  0  0  0  0  0  0  0  0  0  0
  149.0553  140.6471  154.3124 H   0  0  0  0  0  0  0  0  0  0  0  0
  150.4744  141.6216  154.6125 H   0  0  0  0  0  0  0  0  0  0  0  0
  151.1094  139.9694  156.4614 H   0  0  0  0  0  0  0  0  0  0  0  0
  149.7911  138.9541  155.9187 H   0  0  0  0  0  0  0  0  0  0  0  0
  150.8320  138.5077  153.8019 H   0  0  0  0  0  0  0  0  0  0  0  0
  151.9001  139.8896  153.9254 H   0  0  0  0  0  0  0  0  0  0  0  0
  151.3794  144.6639  160.9066 H   0  0  0  0  0  0  0  0  0  0  0  0
  1  2  1  0  0  0  0
  1 18  1  0  0  0  0
  1 19  1  0  0  0  0
  1 20  1  0  0  0  0
  2 17  1  0  0  0  0
  2  3  2  0  0  0  0
  3  4  1  0  0  0  0
  4  5  1  0  0  0  0
  4 16  2  0  0  0  0
  5  6  1  0  0  0  0
  5 21  1  0  0  0  0
  5 22  1  0  0  0  0
  6  7  2  0  0  0  0
  6  8  1  0  0  0  0
  8  9  1  0  0  0  0
  8 23  1  0  0  0  0
  9 10  1  0  0  0  0
  9 24  1  0  0  0  0
  9 25  1  0  0  0  0
 10 11  1  0  0  0  0
 10 26  1  0  0  0  0
 10 27  1  0  0  0  0
 11 12  1  0  0  0  0
 11 28  1  0  0  0  0
 11 29  1  0  0  0  0
 12 13  1  0  0  0  0
 12 30  1  0  0  0  0
 12 31  1  0  0  0  0
 13 14  2  0  0  0  0
 13 15  1  0  0  0  0
 16 17  1  0  0  0  0
 16 32  1  0  0  0  0
M  CHG  1  15  -1
M  END
> <s_m_source_file>
AV-unprocessed.smi

> <i_m_source_file_index>
2218

> <i_lp_mmshare_version>
43012

> <i_f3d_flags>
0

> <s_epik_input>
W0NIM11jMW5jKFtjSF1zMSlbQ0gyXUMoPU8pW05IXVtDSDJdW0NIMl1bQ0gyXVtDSDJdQyg9TylbT0hd

> <s_epik_cmdline>
J2VwaWtfcHl0aG9uJywgJy1waCcsICc3LjAnLCAnLXRuJywgJzgnLCAnLW1hJywgJzIwMCcsICctbWV0YWxfYmluZGluZycsICctaW1hZScsICc8aW5maWxlLm1hZT4nLCAnLW9tYWUnLCAnPG91dGZpbGUubWFlPic=

> <r_epik_Ionization_Penalty>
0.0039764

> <r_epik_Ionization_Penalty_Charging>
0.00392012

> <r_epik_Ionization_Penalty_Neutral>
5.62812e-05

> <r_epik_State_Penalty>
0.00280293

> <r_epik_Charging_Adjusted_Penalty>
0.00672305

> <i_epik_Tot_Q>
-1

> <i_epik_Tot_abs_Q>
1

> <r_epik_Metal_State_Penalty>
-0

> <b_epik_Metal_Only>
0

> <s_lp_Force_Field>
OPLS_2005

> <r_lp_Energy>
1.59535

> <b_lp_Chiralities_Consistent>
1

> <s_lp_Variant>
AV-unprocessed.smi:2218-1

> <Gold.Version>
5.8.1

> <Gold.Id.Protein>
6NUR|6NUR_protein|mol2

> <Gold.PLP.Fitness>
51.4039

> <Gold.PLP.PLP>
-39.2747

> <Gold.PLP.part.hbond>
-3.0000

> <Gold.PLP.part.metal>
0.0000

> <Gold.PLP.part.buried>
-3.5009

> <Gold.PLP.part.nonpolar>
-32.8616

> <Gold.PLP.part.repulsive>
0.0591

> <Gold.PLP.ligand.clash>
0.0000

> <Gold.PLP.ligand.torsion>
0.7437

> <Gold.PLP.Chemscore.Hbond>
4.5280

> <Gold.PLP.Chemscore.CHOScore>
0.0000

> <Gold.PLP.Chemscore.Metal>
0.0000

> <Gold.Chemscore.Hbonds>
donor molecule, donor type, donor heavy atom, donor atom, acceptor molecule, acceptor atom, score
      L1  H     8    23       P1  8028  0.83
      P1  H  7997  8009       L1    14  1.73
      P1  H 10752 10763       L1    15  1.76

> <Gold.PLP.Chemscore.Internal.Correction>
0.0326

> <Gold.Rescore>
     Score         DG    S(hbond)    S(metal)    S(lipo)     H(rot)  DE(clash)    DE(int)     intcor
     14.56     -18.07       2.65        0.00      93.99       2.83       0.09       3.42       ----

> <Gold.Chemscore.Fitness>
14.5610

> <Gold.Chemscore.DG>
-18.0733

> <Gold.Chemscore.ZeroCoef>
-5.4800

> <Gold.Chemscore.Hbond>
2.6482

> <Gold.Chemscore.Metal>
0.0000

> <Gold.Chemscore.Lipo>
93.9862

> <Gold.Chemscore.Internal_Hbond>
0.0000

> <Gold.Chemscore.DEClash>
0.0885

> <Gold.Chemscore.DEInternal>
3.4239

> <Gold.Chemscore.Rot>
2.8313

> <Gold.Chemscore.Internal.Correction>
   9.000000E+99

> <Gold.Chemscore.Hbonds>
donor molecule, donor type, donor heavy atom, donor atom, acceptor molecule, acceptor atom, score
      L1  H     8    23       P1  8028  0.83
      P1  H  7997  8009       L1    14  0.85
      P1  H 10752 10763       L1    15  0.84

> <Gold.Chemscore.Hbond.Weighted>
-8.8451

> <Gold.Chemscore.Metal.Weighted>
-0.0000

> <Gold.Chemscore.Lipo.Weighted>
-10.9964

> <Gold.Chemscore.Internal_Hbond.Weighted>
0.0000

> <Gold.Chemscore.DEClash.Weighted>
0.0885

> <Gold.Chemscore.DEInternal.Weighted>
3.4239

> <Gold.Chemscore.Rot.Weighted>
7.2482

> <Gold.Chemscore.Internal.Correction.Weighted>
   9.000000E+99

> <Gold.Protein.RotatedTorsions>
[ 6907 6896 6895 6894 ] final  102.52 input  -60.11 | X-H torsion
[ 7974 7965 7964 7962 ] final   29.68 input  175.53 | X-H torsion
[ 8008 7997 7996 7995 ] final -133.95 input   59.86 | X-H torsion
[ 10167 10162 10161 10158 ] final -171.88 input  -65.29 | X-H torsion
[ 10718 10713 10712 10709 ] final  121.81 input   66.30 | X-H torsion
[ 10763 10752 10751 10750 ] final   77.10 input  -60.55 | X-H torsion
[ 11005 11000 10999 10996 ] final  103.93 input  -57.11 | X-H torsion

> <Gold.Protein.ActiveResidues>
 VAL166  LYS551  ARG553  GLY616  TRP617  ASP618  TYR619  PRO620  LYS621  CYS622 
 ASP623  PHE694  ASN695  SER759  ASP760  ASP761  ALA762  ILE779  LEU786  VAL792 
 PHE793  MET794  SER795  GLU796  ALA797  LYS798  CYS799  TRP800  GLU811  SER814 

> <Gold.Protein.RotatedAtoms>
  152.5321  133.9963  159.7873 H   0  0  0  0  0  0  0  0  0  0  0  0  # atno 6907 bound_to 6896
  151.0190  133.5886  159.2680 H   0  0  0  0  0  0  0  0  0  0  0  0  # atno 6908 bound_to 6896
  151.2933  135.0755  159.9265 H   0  0  0  0  0  0  0  0  0  0  0  0  # atno 6909 bound_to 6896
  146.1657  139.6889  142.9003 H   0  0  0  0  0  0  0  0  0  0  0  0  # atno 7974 bound_to 7965
  155.3540  140.0479  157.3046 H   0  0  0  0  0  0  0  0  0  0  0  0  # atno 8008 bound_to 7997
  154.5213  140.2226  155.8936 H   0  0  0  0  0  0  0  0  0  0  0  0  # atno 8009 bound_to 7997
  156.1692  140.3099  155.8949 H   0  0  0  0  0  0  0  0  0  0  0  0  # atno 8010 bound_to 7997
  139.5777  144.1495  152.1472 H   0  0  0  0  0  0  0  0  0  0  0  0  # atno 10167 bound_to 10162
  157.5790  131.1076  150.8224 H   0  0  0  0  0  0  0  0  0  0  0  0  # atno 10718 bound_to 10713
  153.0773  135.4927  154.8432 H   0  0  0  0  0  0  0  0  0  0  0  0  # atno 10763 bound_to 10752
  154.7105  135.3019  154.9207 H   0  0  0  0  0  0  0  0  0  0  0  0  # atno 10764 bound_to 10752
  153.9902  135.6779  153.4807 H   0  0  0  0  0  0  0  0  0  0  0  0  # atno 10765 bound_to 10752
  139.8787  134.9281  156.5284 H   0  0  0  0  0  0  0  0  0  0  0  0  # atno 11005 bound_to 11000
  145.4474  141.0426  143.2823 LP  0  0  0  0  0  0  0  0  0  0  0  0  # atno 17320 bound_to 7965
  144.8089  139.6000  143.7038 LP  0  0  0  0  0  0  0  0  0  0  0  0  # atno 17321 bound_to 7965
  140.1041  144.5514  150.6968 LP  0  0  0  0  0  0  0  0  0  0  0  0  # atno 17342 bound_to 10162
  140.7058  143.2467  151.4731 LP  0  0  0  0  0  0  0  0  0  0  0  0  # atno 17343 bound_to 10162
  156.8675  130.5134  149.5299 LP  0  0  0  0  0  0  0  0  0  0  0  0  # atno 17370 bound_to 10713
  156.0835  130.5840  150.9606 LP  0  0  0  0  0  0  0  0  0  0  0  0  # atno 17371 bound_to 10713
  140.8399  133.8213  155.9065 LP  0  0  0  0  0  0  0  0  0  0  0  0  # atno 17394 bound_to 11000
  140.9247  134.2097  157.4903 LP  0  0  0  0  0  0  0  0  0  0  0  0  # atno 17395 bound_to 11000

$$$$
