AV-unprocessed.smi:1878|AV-procd|sdf|7628|dock8
  -GOLD-   22720 9353D 1   1.00000     0.00000
 Structure written by MMmdl.
 34 35  0  0  0  0  0  0  0  0  2 V2000
  148.2428  137.1905  160.8783 O   0  0  0  0  0  0  0  0  0  0  0  0
  148.7040  136.3658  160.0861 C   0  0  0  0  0  0  0  0  0  0  0  0
  148.1128  135.1728  159.9467 N   0  0  0  0  0  0  0  0  0  0  0  0
  146.9272  134.7357  160.6739 C   0  0  0  0  0  0  0  0  0  0  0  0
  147.2800  134.3038  162.1042 C   0  0  0  0  0  0  0  0  0  0  0  0
  148.1794  133.3217  162.0585 F   0  0  0  0  0  0  0  0  0  0  0  0
  147.7985  135.3270  162.7838 F   0  0  0  0  0  0  0  0  0  0  0  0
  146.1941  133.8601  162.7377 F   0  0  0  0  0  0  0  0  0  0  0  0
  149.7933  136.5307  159.3003 N   0  5  0  0  0  0  0  0  0  0  0  0
  150.2841  137.7600  159.0786 C   0  0  0  0  0  0  0  0  0  0  0  0
  149.4967  138.7796  158.5022 C   0  0  0  0  0  0  0  0  0  0  0  0
  150.0487  140.0570  158.2900 C   0  0  0  0  0  0  0  0  0  0  0  0
  151.3895  140.2949  158.6697 C   0  0  0  0  0  0  0  0  0  0  0  0
  151.9872  141.5559  158.4730 N   0  0  0  0  0  0  0  0  0  0  0  0
  153.0074  142.0705  159.3729 C   0  0  0  0  0  0  0  0  0  0  0  0
  153.2776  143.4904  158.8775 C   0  0  0  0  0  0  0  0  0  0  0  0
  151.9181  143.9330  158.3362 C   0  0  0  0  0  0  0  0  0  0  0  0
  151.2901  142.6418  157.7983 C   0  0  0  0  0  0  0  0  0  0  0  0
  152.1531  139.3238  159.2223 N   0  0  0  0  0  0  0  0  0  0  0  0
  151.6114  138.1030  159.4188 C   0  0  0  0  0  0  0  0  0  0  0  0
  148.5165  134.5215  159.2895 H   0  0  0  0  0  0  0  0  0  0  0  0
  146.2023  135.5506  160.6989 H   0  0  0  0  0  0  0  0  0  0  0  0
  146.4598  133.9057  160.1416 H   0  0  0  0  0  0  0  0  0  0  0  0
  148.4731  138.5838  158.2171 H   0  0  0  0  0  0  0  0  0  0  0  0
  149.4419  140.8256  157.8358 H   0  0  0  0  0  0  0  0  0  0  0  0
  152.6197  142.0851  160.3925 H   0  0  0  0  0  0  0  0  0  0  0  0
  153.9093  141.4578  159.3535 H   0  0  0  0  0  0  0  0  0  0  0  0
  153.6622  144.1465  159.6585 H   0  0  0  0  0  0  0  0  0  0  0  0
  154.0064  143.4660  158.0664 H   0  0  0  0  0  0  0  0  0  0  0  0
  151.3106  144.3203  159.1552 H   0  0  0  0  0  0  0  0  0  0  0  0
  151.9949  144.7134  157.5785 H   0  0  0  0  0  0  0  0  0  0  0  0
  151.4534  142.5499  156.7243 H   0  0  0  0  0  0  0  0  0  0  0  0
  150.2161  142.6238  157.9861 H   0  0  0  0  0  0  0  0  0  0  0  0
  152.2671  137.3693  159.8649 H   0  0  0  0  0  0  0  0  0  0  0  0
  1  2  2  0  0  0  0
  2  3  1  0  0  0  0
  2  9  1  0  0  0  0
  3  4  1  0  0  0  0
  3 21  1  0  0  0  0
  4  5  1  0  0  0  0
  4 22  1  0  0  0  0
  4 23  1  0  0  0  0
  5  6  1  0  0  0  0
  5  7  1  0  0  0  0
  5  8  1  0  0  0  0
  9 10  1  0  0  0  0
 10 20  1  0  0  0  0
 10 11  2  0  0  0  0
 11 12  1  0  0  0  0
 11 24  1  0  0  0  0
 12 13  2  0  0  0  0
 12 25  1  0  0  0  0
 13 14  1  0  0  0  0
 13 19  1  0  0  0  0
 14 18  1  0  0  0  0
 14 15  1  0  0  0  0
 15 16  1  0  0  0  0
 15 26  1  0  0  0  0
 15 27  1  0  0  0  0
 16 17  1  0  0  0  0
 16 28  1  0  0  0  0
 16 29  1  0  0  0  0
 17 18  1  0  0  0  0
 17 30  1  0  0  0  0
 17 31  1  0  0  0  0
 18 32  1  0  0  0  0
 18 33  1  0  0  0  0
 19 20  2  0  0  0  0
 20 34  1  0  0  0  0
M  CHG  1   9  -1
M  END
> <s_m_source_file>
AV-unprocessed.smi

> <i_m_source_file_index>
1878

> <i_lp_mmshare_version>
43012

> <i_f3d_flags>
0

> <s_epik_input>
RkMoRikoRilbQ0gyXVtOSF1DKD1PKVtOSF1jMVtjSF1bY0hdYyhuW2NIXTEpTjJbQ0gyXVtDSDJdW0NIMl1bQ0gyXTI=

> <s_epik_cmdline>
J2VwaWtfcHl0aG9uJywgJy1waCcsICc3LjAnLCAnLXRuJywgJzgnLCAnLW1hJywgJzIwMCcsICctbWV0YWxfYmluZGluZycsICctaW1hZScsICc8aW5maWxlLm1hZT4nLCAnLW9tYWUnLCAnPG91dGZpbGUubWFlPic=

> <r_lp_tautomer_probability>
1

> <r_epik_Ionization_Penalty>
8.41125

> <r_epik_Ionization_Penalty_Charging>
6.79601

> <r_epik_Ionization_Penalty_Neutral>
1.61524

> <r_epik_State_Penalty>
6.86553

> <r_epik_Charging_Adjusted_Penalty>
13.6615

> <i_epik_Tot_Q>
-1

> <i_epik_Tot_abs_Q>
1

> <r_epik_Metal_State_Penalty>
2.85642

> <b_epik_Metal_Only>
1

> <s_lp_Force_Field>
OPLS_2005

> <r_lp_Energy>
22.1987

> <b_lp_Chiralities_Consistent>
1

> <s_lp_Variant>
AV-unprocessed.smi:1878-3

> <Gold.Version>
5.8.1

> <Gold.Id.Protein>
6NUR|6NUR_protein|mol2

> <Gold.PLP.Fitness>
51.5613

> <Gold.PLP.PLP>
-42.1576

> <Gold.PLP.part.hbond>
-3.0000

> <Gold.PLP.part.metal>
0.0000

> <Gold.PLP.part.buried>
-5.6776

> <Gold.PLP.part.nonpolar>
-34.2552

> <Gold.PLP.part.repulsive>
0.0790

> <Gold.PLP.ligand.clash>
0.0000

> <Gold.PLP.ligand.torsion>
0.9507

> <Gold.PLP.Chemscore.Hbond>
3.5210

> <Gold.PLP.Chemscore.CHOScore>
0.0000

> <Gold.PLP.Chemscore.Metal>
0.0000

> <Gold.Chemscore.Hbonds>
donor molecule, donor type, donor heavy atom, donor atom, acceptor molecule, acceptor atom, score
      P1  H  6896  6907       L1     9  1.98
      P1  H  6931  6943       L1     1  0.91
      P1  H  6934  6947       L1     1  0.51

> <Gold.PLP.Chemscore.Internal.Correction>
0.7423

> <Gold.Rescore>
     Score         DG    S(hbond)    S(metal)    S(lipo)     H(rot)  DE(clash)    DE(int)     intcor
     17.40     -19.74       2.49        0.00      72.69       1.00       0.06       2.27       ----

> <Gold.Chemscore.Fitness>
17.4047

> <Gold.Chemscore.DG>
-19.7377

> <Gold.Chemscore.ZeroCoef>
-5.4800

> <Gold.Chemscore.Hbond>
2.4890

> <Gold.Chemscore.Metal>
0.0000

> <Gold.Chemscore.Lipo>
72.6869

> <Gold.Chemscore.Internal_Hbond>
0.0000

> <Gold.Chemscore.DEClash>
0.0597

> <Gold.Chemscore.DEInternal>
2.2732

> <Gold.Chemscore.Rot>
1.0000

> <Gold.Chemscore.Internal.Correction>
   9.000000E+99

> <Gold.Chemscore.Hbonds>
donor molecule, donor type, donor heavy atom, donor atom, acceptor molecule, acceptor atom, score
      P1  H  6896  6907       L1     9  0.28
      P1  H  6931  6943       L1     1  0.89
      P1  H  6934  6947       L1     1  0.50

> <Gold.Chemscore.Hbond.Weighted>
-8.3133

> <Gold.Chemscore.Metal.Weighted>
-0.0000

> <Gold.Chemscore.Lipo.Weighted>
-8.5044

> <Gold.Chemscore.Internal_Hbond.Weighted>
0.0000

> <Gold.Chemscore.DEClash.Weighted>
0.0597

> <Gold.Chemscore.DEInternal.Weighted>
2.2732

> <Gold.Chemscore.Rot.Weighted>
2.5600

> <Gold.Chemscore.Internal.Correction.Weighted>
   9.000000E+99

> <Gold.Protein.RotatedTorsions>
[ 6907 6896 6895 6894 ] final  -56.63 input  -60.11 | X-H torsion
[ 7974 7965 7964 7962 ] final  -17.69 input  175.53 | X-H torsion
[ 8008 7997 7996 7995 ] final  157.72 input   59.86 | X-H torsion
[ 10167 10162 10161 10158 ] final -140.18 input  -65.29 | X-H torsion
[ 10718 10713 10712 10709 ] final -142.56 input   66.30 | X-H torsion
[ 10763 10752 10751 10750 ] final  156.03 input  -60.55 | X-H torsion
[ 11005 11000 10999 10996 ] final   38.61 input  -57.11 | X-H torsion

> <Gold.Protein.ActiveResidues>
 VAL166  LYS551  ARG553  GLY616  TRP617  ASP618  TYR619  PRO620  LYS621  CYS622 
 ASP623  PHE694  ASN695  SER759  ASP760  ASP761  ALA762  ILE779  LEU786  VAL792 
 PHE793  MET794  SER795  GLU796  ALA797  LYS798  CYS799  TRP800  GLU811  SER814 

> <Gold.Protein.RotatedAtoms>
  150.8152  134.7330  159.6723 H   0  0  0  0  0  0  0  0  0  0  0  0  # atno 6907 bound_to 6896
  152.4271  134.5845  159.9967 H   0  0  0  0  0  0  0  0  0  0  0  0  # atno 6908 bound_to 6896
  151.6044  133.3316  159.3090 H   0  0  0  0  0  0  0  0  0  0  0  0  # atno 6909 bound_to 6896
  146.1929  140.3815  142.8451 H   0  0  0  0  0  0  0  0  0  0  0  0  # atno 7974 bound_to 7965
  156.2346  140.1877  156.7152 H   0  0  0  0  0  0  0  0  0  0  0  0  # atno 8008 bound_to 7997
  154.6084  140.0625  156.9489 H   0  0  0  0  0  0  0  0  0  0  0  0  # atno 8009 bound_to 7997
  155.2057  140.3296  155.4339 H   0  0  0  0  0  0  0  0  0  0  0  0  # atno 8010 bound_to 7997
  139.8306  143.7452  152.2666 H   0  0  0  0  0  0  0  0  0  0  0  0  # atno 10167 bound_to 10162
  156.3473  130.7669  151.1816 H   0  0  0  0  0  0  0  0  0  0  0  0  # atno 10718 bound_to 10713
  154.1778  135.2801  155.3061 H   0  0  0  0  0  0  0  0  0  0  0  0  # atno 10763 bound_to 10752
  154.6026  135.5525  153.7393 H   0  0  0  0  0  0  0  0  0  0  0  0  # atno 10764 bound_to 10752
  153.0146  135.6395  154.1917 H   0  0  0  0  0  0  0  0  0  0  0  0  # atno 10765 bound_to 10752
  140.2109  134.3756  155.8049 H   0  0  0  0  0  0  0  0  0  0  0  0  # atno 11005 bound_to 11000
  144.8522  140.7017  143.6161 LP  0  0  0  0  0  0  0  0  0  0  0  0  # atno 17320 bound_to 7965
  145.3737  139.1653  143.4318 LP  0  0  0  0  0  0  0  0  0  0  0  0  # atno 17321 bound_to 7965
  139.7658  144.7492  151.0297 LP  0  0  0  0  0  0  0  0  0  0  0  0  # atno 17342 bound_to 10162
  140.7807  143.4700  151.0160 LP  0  0  0  0  0  0  0  0  0  0  0  0  # atno 17343 bound_to 10162
  157.7456  131.0437  150.4758 LP  0  0  0  0  0  0  0  0  0  0  0  0  # atno 17370 bound_to 10713
  156.4948  130.4103  149.6386 LP  0  0  0  0  0  0  0  0  0  0  0  0  # atno 17371 bound_to 10713
  141.2226  133.7143  156.8417 LP  0  0  0  0  0  0  0  0  0  0  0  0  # atno 17394 bound_to 11000
  140.1951  134.8937  157.3105 LP  0  0  0  0  0  0  0  0  0  0  0  0  # atno 17395 bound_to 11000

$$$$
