AV-unprocessed.smi:1868|AV-procd|sdf|7586|dock7
  -GOLD-   22720 9293D 1   1.00000     0.00000
 Structure written by MMmdl.
 47 49  0  0  0  0  0  0  0  0  2 V2000
  148.3421  130.4039  153.4127 C   0  0  0  0  0  0  0  0  0  0  0  0
  149.6963  130.4205  154.0479 C   0  0  0  0  0  0  0  0  0  0  0  0
  150.5910  129.4553  153.8380 N   0  0  0  0  0  0  0  0  0  0  0  0
  151.6728  129.8756  154.5873 C   0  0  0  0  0  0  0  0  0  0  0  0
  152.9406  129.2831  154.7833 C   0  0  0  0  0  0  0  0  0  0  0  0
  153.8998  129.9058  155.6087 C   0  0  0  0  0  0  0  0  0  0  0  0
  153.6060  131.1275  156.2482 C   0  0  0  0  0  0  0  0  0  0  0  0
  152.3488  131.7348  156.0670 C   0  0  0  0  0  0  0  0  0  0  0  0
  151.3942  131.1083  155.2431 C   0  0  0  0  0  0  0  0  0  0  0  0
  150.0895  131.4225  154.8724 N   0  0  0  0  0  0  0  0  0  0  0  0
  149.3263  132.5901  155.2909 C   0  0  0  0  0  0  0  0  0  0  0  0
  148.9545  133.5195  154.1163 C   0  0  2  0  0  0  0  0  0  0  0  0
  149.7621  134.6746  154.2234 O   0  0  0  0  0  0  0  0  0  0  0  0
  147.4669  133.9411  154.1106 C   0  0  0  0  0  0  0  0  0  0  0  0
  146.9381  134.2056  152.7480 N   0  3  2  0  0  0  0  0  0  0  0  0
  145.5857  134.8198  152.7869 C   0  0  0  0  0  0  0  0  0  0  0  0
  145.1075  135.2110  151.3774 C   0  0  0  0  0  0  0  0  0  0  0  0
  145.1291  134.0193  150.4037 C   0  0  2  0  0  0  0  0  0  0  0  0
  143.9900  133.0175  150.6627 C   0  0  0  0  0  0  0  0  0  0  0  0
  146.5202  133.3609  150.4341 C   0  0  0  0  0  0  0  0  0  0  0  0
  146.9690  133.0096  151.8640 C   0  0  0  0  0  0  0  0  0  0  0  0
  148.2138  129.5032  152.8114 H   0  0  0  0  0  0  0  0  0  0  0  0
  148.2208  131.2692  152.7610 H   0  0  0  0  0  0  0  0  0  0  0  0
  147.5621  130.4198  154.1730 H   0  0  0  0  0  0  0  0  0  0  0  0
  153.1760  128.3475  154.2975 H   0  0  0  0  0  0  0  0  0  0  0  0
  154.8658  129.4441  155.7512 H   0  0  0  0  0  0  0  0  0  0  0  0
  154.3469  131.5979  156.8779 H   0  0  0  0  0  0  0  0  0  0  0  0
  152.1221  132.6694  156.5576 H   0  0  0  0  0  0  0  0  0  0  0  0
  148.4242  132.2463  155.7989 H   0  0  0  0  0  0  0  0  0  0  0  0
  149.9021  133.1349  156.0401 H   0  0  0  0  0  0  0  0  0  0  0  0
  149.2136  133.0173  153.1861 H   0  0  0  0  0  0  0  0  0  0  0  0
  149.3365  135.3912  153.7784 H   0  0  0  0  0  0  0  0  0  0  0  0
  146.8394  133.1789  154.5731 H   0  0  0  0  0  0  0  0  0  0  0  0
  147.3631  134.8342  154.7293 H   0  0  0  0  0  0  0  0  0  0  0  0
  144.8818  134.1291  153.2533 H   0  0  0  0  0  0  0  0  0  0  0  0
  145.6069  135.7135  153.4120 H   0  0  0  0  0  0  0  0  0  0  0  0
  144.1064  135.6406  151.4274 H   0  0  0  0  0  0  0  0  0  0  0  0
  145.7545  135.9999  150.9912 H   0  0  0  0  0  0  0  0  0  0  0  0
  144.9714  134.4119  149.3982 H   0  0  0  0  0  0  0  0  0  0  0  0
  144.0606  132.5561  151.6473 H   0  0  0  0  0  0  0  0  0  0  0  0
  144.0004  132.2170  149.9227 H   0  0  0  0  0  0  0  0  0  0  0  0
  143.0182  133.5076  150.5983 H   0  0  0  0  0  0  0  0  0  0  0  0
  146.5288  132.4673  149.8089 H   0  0  0  0  0  0  0  0  0  0  0  0
  147.2480  134.0438  149.9936 H   0  0  0  0  0  0  0  0  0  0  0  0
  147.9755  132.5965  151.8189 H   0  0  0  0  0  0  0  0  0  0  0  0
  146.3331  132.2277  152.2812 H   0  0  0  0  0  0  0  0  0  0  0  0
  147.5465  134.8969  152.3339 H   0  0  0  0  0  0  0  0  0  0  0  0
  1  2  1  0  0  0  0
  1 22  1  0  0  0  0
  1 23  1  0  0  0  0
  1 24  1  0  0  0  0
  2 10  1  0  0  0  0
  2  3  2  0  0  0  0
  3  4  1  0  0  0  0
  4  9  2  0  0  0  0
  4  5  1  0  0  0  0
  5  6  2  0  0  0  0
  5 25  1  0  0  0  0
  6  7  1  0  0  0  0
  6 26  1  0  0  0  0
  7  8  2  0  0  0  0
  7 27  1  0  0  0  0
  8  9  1  0  0  0  0
  8 28  1  0  0  0  0
  9 10  1  0  0  0  0
 10 11  1  0  0  0  0
 11 12  1  0  0  0  0
 11 29  1  0  0  0  0
 11 30  1  0  0  0  0
 12 13  1  0  0  0  0
 12 14  1  0  0  0  0
 12 31  1  0  0  0  0
 13 32  1  0  0  0  0
 14 15  1  0  0  0  0
 14 33  1  0  0  0  0
 14 34  1  0  0  0  0
 15 21  1  0  0  0  0
 15 16  1  0  0  0  0
 15 47  1  0  0  0  0
 16 17  1  0  0  0  0
 16 35  1  0  0  0  0
 16 36  1  0  0  0  0
 17 18  1  0  0  0  0
 17 37  1  0  0  0  0
 17 38  1  0  0  0  0
 18 19  1  0  0  0  0
 18 20  1  0  0  0  0
 18 39  1  0  0  0  0
 19 40  1  0  0  0  0
 19 41  1  0  0  0  0
 19 42  1  0  0  0  0
 20 21  1  0  0  0  0
 20 43  1  0  0  0  0
 20 44  1  0  0  0  0
 21 45  1  0  0  0  0
 21 46  1  0  0  0  0
M  CHG  1  15   1
M  END
> <s_m_source_file>
AV-unprocessed.smi

> <i_m_source_file_index>
1868

> <i_lp_mmshare_version>
43012

> <i_f3d_flags>
0

> <s_epik_input>
W2NIXTFbY0hdW2NIXVtjSF1jKGMxMiluKGMobjIpW0NIM10pW0NIMl1bQ0BIXShbT0hdKVtDSDJdTjNbQ0gyXVtDSDJdW0NIXShbQ0gzXSlbQ0gyXVtDSDJdMw==

> <s_epik_cmdline>
J2VwaWtfcHl0aG9uJywgJy1waCcsICc3LjAnLCAnLXRuJywgJzgnLCAnLW1hJywgJzIwMCcsICctbWV0YWxfYmluZGluZycsICctaW1hZScsICc8aW5maWxlLm1hZT4nLCAnLW9tYWUnLCAnPG91dGZpbGUubWFlPic=

> <r_epik_Ionization_Penalty>
0.101157

> <r_epik_Ionization_Penalty_Charging>
0.00181365

> <r_epik_Ionization_Penalty_Neutral>
0.0993436

> <r_epik_State_Penalty>
0.0871902

> <r_epik_Charging_Adjusted_Penalty>
0.0890039

> <i_epik_Tot_Q>
1

> <i_epik_Tot_abs_Q>
1

> <r_epik_Metal_State_Penalty>
9.24346e-05

> <b_epik_Metal_Only>
0

> <s_lp_Force_Field>
OPLS_2005

> <r_lp_Energy>
25.8314

> <b_lp_Chiralities_Consistent>
1

> <s_lp_Variant>
AV-unprocessed.smi:1868-3

> <Gold.Version>
5.8.1

> <Gold.Id.Protein>
6NUR|6NUR_protein|mol2

> <Gold.PLP.Fitness>
44.1175

> <Gold.PLP.PLP>
-37.7199

> <Gold.PLP.part.hbond>
-2.2422

> <Gold.PLP.part.metal>
0.0000

> <Gold.PLP.part.buried>
-2.8663

> <Gold.PLP.part.nonpolar>
-32.5930

> <Gold.PLP.part.repulsive>
0.1265

> <Gold.PLP.ligand.clash>
0.0000

> <Gold.PLP.ligand.torsion>
1.0737

> <Gold.PLP.Chemscore.Hbond>
2.8426

> <Gold.PLP.Chemscore.CHOScore>
0.0000

> <Gold.PLP.Chemscore.Metal>
0.0000

> <Gold.Chemscore.Hbonds>
donor molecule, donor type, donor heavy atom, donor atom, acceptor molecule, acceptor atom, score
      L1  H    13    32       P1  7948  0.72
      L1  H    15    47       P1  7948  2.00

> <Gold.PLP.Chemscore.Internal.Correction>
0.0173

> <Gold.Rescore>
     Score         DG    S(hbond)    S(metal)    S(lipo)     H(rot)  DE(clash)    DE(int)     intcor
     13.24     -14.32       1.05        0.00      87.54       1.92       0.02       1.06       ----

> <Gold.Chemscore.Fitness>
13.2414

> <Gold.Chemscore.DG>
-14.3217

> <Gold.Chemscore.ZeroCoef>
-5.4800

> <Gold.Chemscore.Hbond>
1.0522

> <Gold.Chemscore.Metal>
0.0000

> <Gold.Chemscore.Lipo>
87.5395

> <Gold.Chemscore.Internal_Hbond>
0.0000

> <Gold.Chemscore.DEClash>
0.0231

> <Gold.Chemscore.DEInternal>
1.0571

> <Gold.Chemscore.Rot>
1.9198

> <Gold.Chemscore.Internal.Correction>
   9.000000E+99

> <Gold.Chemscore.Hbonds>
donor molecule, donor type, donor heavy atom, donor atom, acceptor molecule, acceptor atom, score
      L1  H    13    32       P1  7948  0.24
      L1  H    15    47       P1  7948  0.93

> <Gold.Chemscore.Hbond.Weighted>
-3.5143

> <Gold.Chemscore.Metal.Weighted>
-0.0000

> <Gold.Chemscore.Lipo.Weighted>
-10.2421

> <Gold.Chemscore.Internal_Hbond.Weighted>
0.0000

> <Gold.Chemscore.DEClash.Weighted>
0.0231

> <Gold.Chemscore.DEInternal.Weighted>
1.0571

> <Gold.Chemscore.Rot.Weighted>
4.9147

> <Gold.Chemscore.Internal.Correction.Weighted>
   9.000000E+99

> <Gold.Protein.RotatedTorsions>
[ 6907 6896 6895 6894 ] final  127.20 input  -60.11 | X-H torsion
[ 7974 7965 7964 7962 ] final -115.68 input  175.53 | X-H torsion
[ 8008 7997 7996 7995 ] final  175.77 input   59.86 | X-H torsion
[ 10167 10162 10161 10158 ] final  121.47 input  -65.29 | X-H torsion
[ 10718 10713 10712 10709 ] final  -91.20 input   66.30 | X-H torsion
[ 10763 10752 10751 10750 ] final   -4.48 input  -60.55 | X-H torsion
[ 11005 11000 10999 10996 ] final -154.02 input  -57.11 | X-H torsion

> <Gold.Protein.ActiveResidues>
 VAL166  LYS551  ARG553  GLY616  TRP617  ASP618  TYR619  PRO620  LYS621  CYS622 
 ASP623  PHE694  ASN695  SER759  ASP760  ASP761  ALA762  ILE779  LEU786  VAL792 
 PHE793  MET794  SER795  GLU796  ALA797  LYS798  CYS799  TRP800  GLU811  SER814 

> <Gold.Protein.RotatedAtoms>
  152.3834  133.6578  159.6179 H   0  0  0  0  0  0  0  0  0  0  0  0  # atno 6907 bound_to 6896
  150.7759  133.9075  159.3368 H   0  0  0  0  0  0  0  0  0  0  0  0  # atno 6908 bound_to 6896
  151.6876  135.0953  160.0279 H   0  0  0  0  0  0  0  0  0  0  0  0  # atno 6909 bound_to 6896
  145.1055  140.8579  143.3901 H   0  0  0  0  0  0  0  0  0  0  0  0  # atno 7974 bound_to 7965
  156.0836  140.1400  156.9681 H   0  0  0  0  0  0  0  0  0  0  0  0  # atno 8008 bound_to 7997
  154.4599  140.0947  156.6913 H   0  0  0  0  0  0  0  0  0  0  0  0  # atno 8009 bound_to 7997
  155.5035  140.3451  155.4377 H   0  0  0  0  0  0  0  0  0  0  0  0  # atno 8010 bound_to 7997
  139.5918  144.7028  151.3272 H   0  0  0  0  0  0  0  0  0  0  0  0  # atno 10167 bound_to 10162
  155.9992  130.4939  150.5438 H   0  0  0  0  0  0  0  0  0  0  0  0  # atno 10718 bound_to 10713
  153.3854  135.7000  153.6534 H   0  0  0  0  0  0  0  0  0  0  0  0  # atno 10763 bound_to 10752
  153.5129  135.3628  155.2595 H   0  0  0  0  0  0  0  0  0  0  0  0  # atno 10764 bound_to 10752
  154.8697  135.4139  154.3160 H   0  0  0  0  0  0  0  0  0  0  0  0  # atno 10765 bound_to 10752
  140.7018  134.3928  157.5208 H   0  0  0  0  0  0  0  0  0  0  0  0  # atno 11005 bound_to 11000
  145.0906  139.2893  143.5737 LP  0  0  0  0  0  0  0  0  0  0  0  0  # atno 17320 bound_to 7965
  146.3528  140.0442  142.8640 LP  0  0  0  0  0  0  0  0  0  0  0  0  # atno 17321 bound_to 7965
  140.7179  143.7216  150.7691 LP  0  0  0  0  0  0  0  0  0  0  0  0  # atno 17342 bound_to 10162
  140.0773  143.5002  152.2548 LP  0  0  0  0  0  0  0  0  0  0  0  0  # atno 17343 bound_to 10162
  157.3371  131.0710  151.1817 LP  0  0  0  0  0  0  0  0  0  0  0  0  # atno 17370 bound_to 10713
  157.2678  130.6689  149.6005 LP  0  0  0  0  0  0  0  0  0  0  0  0  # atno 17371 bound_to 10713
  139.8894  134.8830  156.2420 LP  0  0  0  0  0  0  0  0  0  0  0  0  # atno 17394 bound_to 11000
  141.0157  133.7070  156.1185 LP  0  0  0  0  0  0  0  0  0  0  0  0  # atno 17395 bound_to 11000

$$$$
