AV-unprocessed.smi:208|AV-procd|sdf|1606|dock10
  -GOLD-   2262019523D 1   1.00000     0.00000
 Structure written by MMmdl.
 50 53  0  0  0  0  0  0  0  0  1 V2000
  151.6512  139.4486  155.4063 C   0  0  0  0  0  0  0  0  0  0  0  0
  151.9582  138.6086  156.6559 C   0  0  0  0  0  0  0  0  0  0  0  0
  151.4423  139.2111  157.9920 C   0  0  1  0  0  0  0  0  0  0  0  0
  152.4068  140.3172  158.4754 C   0  0  0  0  0  0  0  0  0  0  0  0
  153.5253  139.9816  158.8688 O   0  0  0  0  0  0  0  0  0  0  0  0
  152.0078  141.6115  158.4655 N   0  0  0  0  0  0  0  0  0  0  0  0
  152.9048  142.6718  158.9275 C   0  0  0  0  0  0  0  0  0  0  0  0
  150.6807  142.0696  158.0348 C   0  0  0  0  0  0  0  0  0  0  0  0
  149.8670  141.0152  157.2716 C   0  0  0  0  0  0  0  0  0  0  0  0
  150.0604  139.6989  157.8712 N   0  0  0  0  0  0  0  0  0  0  0  0
  149.0483  138.7938  157.8005 C   0  0  0  0  0  0  0  0  0  0  0  0
  148.2566  138.7710  156.6948 N   0  0  0  0  0  0  0  0  0  0  0  0
  147.2783  137.8693  156.5799 C   0  0  0  0  0  0  0  0  0  0  0  0
  146.9200  136.9148  157.4392 N   0  0  0  0  0  0  0  0  0  0  0  0
  147.6950  136.9407  158.5601 C   0  0  0  0  0  0  0  0  0  0  0  0
  148.7706  137.8381  158.8206 C   0  0  0  0  0  0  0  0  0  0  0  0
  149.3158  137.5639  160.0696 N   0  0  0  0  0  0  0  0  0  0  0  0
  148.6186  136.5543  160.5115 C   0  0  0  0  0  0  0  0  0  0  0  0
  147.6169  136.1208  159.6729 N   0  0  0  0  0  0  0  0  0  0  0  0
  146.6957  135.0211  159.9206 C   0  0  0  0  0  0  0  0  0  0  0  0
  145.8966  135.1394  161.2338 C   0  0  0  0  0  0  0  0  0  0  0  0
  145.1412  136.4849  161.2468 C   0  0  0  0  0  0  0  0  0  0  0  0
  145.9811  137.5751  161.5708 O   0  0  0  0  0  0  0  0  0  0  0  0
  145.0784  133.9064  161.6457 C   0  0  0  0  0  0  0  0  0  0  0  0
  145.6983  133.8596  162.9496 O   0  0  0  0  0  0  0  0  0  0  0  0
  146.6974  134.8004  162.4998 C   0  0  0  0  0  0  0  0  0  0  0  0
  151.9032  138.8941  154.5023 H   0  0  0  0  0  0  0  0  0  0  0  0
  152.2247  140.3734  155.3818 H   0  0  0  0  0  0  0  0  0  0  0  0
  150.5931  139.7051  155.3520 H   0  0  0  0  0  0  0  0  0  0  0  0
  151.4934  137.6349  156.4937 H   0  0  0  0  0  0  0  0  0  0  0  0
  153.0289  138.4109  156.7097 H   0  0  0  0  0  0  0  0  0  0  0  0
  151.5004  138.4405  158.7581 H   0  0  0  0  0  0  0  0  0  0  0  0
  153.7579  142.7691  158.2546 H   0  0  0  0  0  0  0  0  0  0  0  0
  153.2813  142.4551  159.9285 H   0  0  0  0  0  0  0  0  0  0  0  0
  152.4050  143.6402  158.9727 H   0  0  0  0  0  0  0  0  0  0  0  0
  150.1328  142.3563  158.9335 H   0  0  0  0  0  0  0  0  0  0  0  0
  150.7694  142.9697  157.4250 H   0  0  0  0  0  0  0  0  0  0  0  0
  148.8178  141.3142  157.2754 H   0  0  0  0  0  0  0  0  0  0  0  0
  150.1827  140.9816  156.2284 H   0  0  0  0  0  0  0  0  0  0  0  0
  146.7024  137.9175  155.6675 H   0  0  0  0  0  0  0  0  0  0  0  0
  148.8118  136.1007  161.4728 H   0  0  0  0  0  0  0  0  0  0  0  0
  146.0220  134.9526  159.0655 H   0  0  0  0  0  0  0  0  0  0  0  0
  147.2700  134.0939  159.9152 H   0  0  0  0  0  0  0  0  0  0  0  0
  144.6868  136.6843  160.2759 H   0  0  0  0  0  0  0  0  0  0  0  0
  144.3346  136.4765  161.9800 H   0  0  0  0  0  0  0  0  0  0  0  0
  145.7315  137.9066  162.4200 H   0  0  0  0  0  0  0  0  0  0  0  0
  144.0028  134.0791  161.6956 H   0  0  0  0  0  0  0  0  0  0  0  0
  145.3008  133.0076  161.0698 H   0  0  0  0  0  0  0  0  0  0  0  0
  147.6514  134.3089  162.3015 H   0  0  0  0  0  0  0  0  0  0  0  0
  146.8316  135.6353  163.1883 H   0  0  0  0  0  0  0  0  0  0  0  0
  1  2  1  0  0  0  0
  1 27  1  0  0  0  0
  1 28  1  0  0  0  0
  1 29  1  0  0  0  0
  2  3  1  0  0  0  0
  2 30  1  0  0  0  0
  2 31  1  0  0  0  0
  3 10  1  0  0  0  0
  3  4  1  0  0  0  0
  3 32  1  0  0  0  0
  4  5  2  0  0  0  0
  4  6  1  0  0  0  0
  6  7  1  0  0  0  0
  6  8  1  0  0  0  0
  7 33  1  0  0  0  0
  7 34  1  0  0  0  0
  7 35  1  0  0  0  0
  8  9  1  0  0  0  0
  8 36  1  0  0  0  0
  8 37  1  0  0  0  0
  9 10  1  0  0  0  0
  9 38  1  0  0  0  0
  9 39  1  0  0  0  0
 10 11  1  0  0  0  0
 11 16  1  0  0  0  0
 11 12  2  0  0  0  0
 12 13  1  0  0  0  0
 13 14  2  0  0  0  0
 13 40  1  0  0  0  0
 14 15  1  0  0  0  0
 15 19  1  0  0  0  0
 15 16  2  0  0  0  0
 16 17  1  0  0  0  0
 17 18  2  0  0  0  0
 18 19  1  0  0  0  0
 18 41  1  0  0  0  0
 19 20  1  0  0  0  0
 20 21  1  0  0  0  0
 20 42  1  0  0  0  0
 20 43  1  0  0  0  0
 21 26  1  0  0  0  0
 21 22  1  0  0  0  0
 21 24  1  0  0  0  0
 22 23  1  0  0  0  0
 22 44  1  0  0  0  0
 22 45  1  0  0  0  0
 23 46  1  0  0  0  0
 24 25  1  0  0  0  0
 24 47  1  0  0  0  0
 24 48  1  0  0  0  0
 25 26  1  0  0  0  0
 26 49  1  0  0  0  0
 26 50  1  0  0  0  0
M  END
> <s_m_source_file>
AV-unprocessed.smi

> <i_m_source_file_index>
208

> <i_lp_mmshare_version>
43012

> <i_f3d_flags>
0

> <s_epik_input>
W0NIM11bQ0gyXVtDQEBIXTFDKD1PKU4oW0NIM10pW0NIMl1bQ0gyXU4xYyhuW2NIXW4yKWMoYzIzKW5bY0hdbjNbQ0gyXUM0KFtDSDJdW09IXSlbQ0gyXU9bQ0gyXTQ=

> <s_epik_cmdline>
J2VwaWtfcHl0aG9uJywgJy1waCcsICc3LjAnLCAnLXRuJywgJzgnLCAnLW1hJywgJzIwMCcsICctbWV0YWxfYmluZGluZycsICctaW1hZScsICc8aW5maWxlLm1hZT4nLCAnLW9tYWUnLCAnPG91dGZpbGUubWFlPic=

> <r_lp_tautomer_probability>
1

> <r_epik_Ionization_Penalty>
0.000581289

> <r_epik_Ionization_Penalty_Charging>
0

> <r_epik_Ionization_Penalty_Neutral>
0.000581289

> <r_epik_State_Penalty>
0.000280365

> <r_epik_Charging_Adjusted_Penalty>
0.000280365

> <i_epik_Tot_Q>
0

> <i_epik_Tot_abs_Q>
0

> <r_epik_Metal_State_Penalty>
-0

> <b_epik_Metal_Only>
0

> <s_lp_Force_Field>
OPLS_2005

> <r_lp_Energy>
42.9171

> <b_lp_Chiralities_Consistent>
1

> <s_lp_Variant>
AV-unprocessed.smi:208-2

> <Gold.Version>
5.8.1

> <Gold.Id.Protein>
6NUR|6NUR_protein|mol2

> <Gold.PLP.Fitness>
37.6026

> <Gold.PLP.PLP>
-33.5949

> <Gold.PLP.part.hbond>
-4.1571

> <Gold.PLP.part.metal>
0.0000

> <Gold.PLP.part.buried>
-4.4761

> <Gold.PLP.part.nonpolar>
-25.7209

> <Gold.PLP.part.repulsive>
0.0467

> <Gold.PLP.ligand.clash>
0.0000

> <Gold.PLP.ligand.torsion>
1.3555

> <Gold.PLP.Chemscore.Hbond>
2.0768

> <Gold.PLP.Chemscore.CHOScore>
0.0000

> <Gold.PLP.Chemscore.Metal>
0.0000

> <Gold.Chemscore.Hbonds>
donor molecule, donor type, donor heavy atom, donor atom, acceptor molecule, acceptor atom, score
      P1  H  6931  6943       L1    17  0.06
      P1  H  6934  6947       L1    23  0.96
      P1  H  7997  8008       L1     5  0.84

> <Gold.PLP.Chemscore.Internal.Correction>
0.4883

> <Gold.Rescore>
     Score         DG    S(hbond)    S(metal)    S(lipo)     H(rot)  DE(clash)    DE(int)     intcor
      9.20     -12.21       1.46        0.00      69.66       2.46       0.31       2.70       ----

> <Gold.Chemscore.Fitness>
9.1962

> <Gold.Chemscore.DG>
-12.2142

> <Gold.Chemscore.ZeroCoef>
-5.4800

> <Gold.Chemscore.Hbond>
1.4613

> <Gold.Chemscore.Metal>
0.0000

> <Gold.Chemscore.Lipo>
69.6626

> <Gold.Chemscore.Internal_Hbond>
0.0000

> <Gold.Chemscore.DEClash>
0.3136

> <Gold.Chemscore.DEInternal>
2.7044

> <Gold.Chemscore.Rot>
2.4598

> <Gold.Chemscore.Internal.Correction>
   9.000000E+99

> <Gold.Chemscore.Hbonds>
donor molecule, donor type, donor heavy atom, donor atom, acceptor molecule, acceptor atom, score
      P1  H  6934  6947       L1    23  0.23
      P1  H  7997  8008       L1     5  0.36

> <Gold.Chemscore.Hbond.Weighted>
-4.8809

> <Gold.Chemscore.Metal.Weighted>
-0.0000

> <Gold.Chemscore.Lipo.Weighted>
-8.1505

> <Gold.Chemscore.Internal_Hbond.Weighted>
0.0000

> <Gold.Chemscore.DEClash.Weighted>
0.3136

> <Gold.Chemscore.DEInternal.Weighted>
2.7044

> <Gold.Chemscore.Rot.Weighted>
6.2972

> <Gold.Chemscore.Internal.Correction.Weighted>
   9.000000E+99

> <Gold.Protein.RotatedTorsions>
[ 6907 6896 6895 6894 ] final  152.63 input  -60.11 | X-H torsion
[ 7974 7965 7964 7962 ] final  112.87 input  175.53 | X-H torsion
[ 8008 7997 7996 7995 ] final  -93.52 input   59.86 | X-H torsion
[ 10167 10162 10161 10158 ] final  136.05 input  -65.29 | X-H torsion
[ 10718 10713 10712 10709 ] final  170.35 input   66.30 | X-H torsion
[ 10763 10752 10751 10750 ] final   80.28 input  -60.55 | X-H torsion
[ 11005 11000 10999 10996 ] final  171.61 input  -57.11 | X-H torsion

> <Gold.Protein.ActiveResidues>
 VAL166  LYS551  ARG553  GLY616  TRP617  ASP618  TYR619  PRO620  LYS621  CYS622 
 ASP623  PHE694  ASN695  SER759  ASP760  ASP761  ALA762  ILE779  LEU786  VAL792 
 PHE793  MET794  SER795  GLU796  ALA797  LYS798  CYS799  TRP800  GLU811  SER814 

> <Gold.Protein.RotatedAtoms>
  152.0840  133.4167  159.4513 H   0  0  0  0  0  0  0  0  0  0  0  0  # atno 6907 bound_to 6896
  150.6862  134.2949  159.4691 H   0  0  0  0  0  0  0  0  0  0  0  0  # atno 6908 bound_to 6896
  152.0794  134.9481  160.0624 H   0  0  0  0  0  0  0  0  0  0  0  0  # atno 6909 bound_to 6896
  145.2240  139.2849  143.4203 H   0  0  0  0  0  0  0  0  0  0  0  0  # atno 7974 bound_to 7965
  154.7367  140.0498  157.0775 H   0  0  0  0  0  0  0  0  0  0  0  0  # atno 8008 bound_to 7997
  155.0231  140.3149  155.4767 H   0  0  0  0  0  0  0  0  0  0  0  0  # atno 8009 bound_to 7997
  156.2855  140.2163  156.5350 H   0  0  0  0  0  0  0  0  0  0  0  0  # atno 8010 bound_to 7997
  139.5194  144.6485  151.5372 H   0  0  0  0  0  0  0  0  0  0  0  0  # atno 10167 bound_to 10162
  157.0094  131.0200  151.2807 H   0  0  0  0  0  0  0  0  0  0  0  0  # atno 10718 bound_to 10713
  153.1020  135.4808  154.8885 H   0  0  0  0  0  0  0  0  0  0  0  0  # atno 10763 bound_to 10752
  154.7389  135.3077  154.8764 H   0  0  0  0  0  0  0  0  0  0  0  0  # atno 10764 bound_to 10752
  153.9378  135.6837  153.4798 H   0  0  0  0  0  0  0  0  0  0  0  0  # atno 10765 bound_to 10752
  140.3209  134.7438  157.4063 H   0  0  0  0  0  0  0  0  0  0  0  0  # atno 11005 bound_to 11000
  146.3369  140.2555  142.8600 LP  0  0  0  0  0  0  0  0  0  0  0  0  # atno 17320 bound_to 7965
  144.9738  140.8394  143.5439 LP  0  0  0  0  0  0  0  0  0  0  0  0  # atno 17321 bound_to 7965
  140.6279  143.9132  150.6580 LP  0  0  0  0  0  0  0  0  0  0  0  0  # atno 17342 bound_to 10162
  140.2427  143.3652  152.1473 LP  0  0  0  0  0  0  0  0  0  0  0  0  # atno 17343 bound_to 10162
  157.5331  130.8071  149.7940 LP  0  0  0  0  0  0  0  0  0  0  0  0  # atno 17370 bound_to 10713
  156.0141  130.3821  150.2166 LP  0  0  0  0  0  0  0  0  0  0  0  0  # atno 17371 bound_to 10713
  140.0943  134.5559  155.8414 LP  0  0  0  0  0  0  0  0  0  0  0  0  # atno 17394 bound_to 11000
  141.2087  133.6676  156.6387 LP  0  0  0  0  0  0  0  0  0  0  0  0  # atno 17395 bound_to 11000

$$$$
