AV-unprocessed.smi:97|AV-procd|sdf|862|dock2
  -GOLD-   2262017313D 1   1.00000     0.00000
 Structure written by MMmdl.
 46 49  0  0  0  0  0  0  0  0  1 V2000
  150.9988  136.0397  154.5569 O   0  0  0  0  0  0  0  0  0  0  0  0
  150.2261  136.5007  155.3960 C   0  0  0  0  0  0  0  0  0  0  0  0
  148.9871  135.6833  155.8036 C   0  0  0  0  0  0  0  0  0  0  0  0
  148.6700  134.5527  154.8999 N   0  0  0  0  0  0  0  0  0  0  0  0
  149.4377  133.3646  154.9885 C   0  0  0  0  0  0  0  0  0  0  0  0
  150.3579  133.2578  155.7999 O   0  0  0  0  0  0  0  0  0  0  0  0
  149.0541  132.2969  154.0714 C   0  0  0  0  0  0  0  0  0  0  0  0
  149.7418  131.1425  154.0688 F   0  0  0  0  0  0  0  0  0  0  0  0
  148.0155  132.4488  153.2242 C   0  0  0  0  0  0  0  0  0  0  0  0
  147.2575  133.6034  153.1692 N   0  0  0  0  0  0  0  0  0  0  0  0
  146.0934  133.7291  152.2131 C   0  0  1  0  0  0  0  0  0  0  0  0
  146.5591  133.4827  150.7733 C   0  0  0  0  0  0  0  0  0  0  0  0
  146.1834  132.0316  150.5632 C   0  0  0  0  0  0  0  0  0  0  0  0
  144.9127  131.9204  151.3966 C   0  0  0  0  0  0  0  0  0  0  0  0
  145.1418  132.7537  152.5284 O   0  0  0  0  0  0  0  0  0  0  0  0
  147.5846  134.6948  154.0017 C   0  0  0  0  0  0  0  0  0  0  0  0
  146.9369  135.7426  153.9518 O   0  0  0  0  0  0  0  0  0  0  0  0
  150.3964  137.7096  155.9571 N   0  0  0  0  0  0  0  0  0  0  0  0
  151.4242  138.6745  155.5871 C   0  0  0  0  0  0  0  0  0  0  0  0
  151.3978  139.9360  156.4386 C   0  0  0  0  0  0  0  0  0  0  0  0
  150.8002  141.1313  155.9508 C   0  0  0  0  0  0  0  0  0  0  0  0
  150.7716  142.3028  156.7401 C   0  0  0  0  0  0  0  0  0  0  0  0
  151.3454  142.2430  158.0199 C   0  0  0  0  0  0  0  0  0  0  0  0
  151.9206  141.0854  158.5015 C   0  0  0  0  0  0  0  0  0  0  0  0
  151.9626  139.9082  157.7365 C   0  0  0  0  0  0  0  0  0  0  0  0
  152.3941  141.3010  159.7553 O   0  0  0  0  0  0  0  0  0  0  0  0
  152.0981  142.6412  160.0525 C   0  0  0  0  0  0  0  0  0  0  0  0
  151.4393  143.2213  158.9561 O   0  0  0  0  0  0  0  0  0  0  0  0
  149.1367  135.3194  156.8216 H   0  0  0  0  0  0  0  0  0  0  0  0
  148.1467  136.3726  155.8951 H   0  0  0  0  0  0  0  0  0  0  0  0
  147.7772  131.6274  152.5651 H   0  0  0  0  0  0  0  0  0  0  0  0
  145.6622  134.7185  152.3735 H   0  0  0  0  0  0  0  0  0  0  0  0
  145.9837  134.1268  150.1072 H   0  0  0  0  0  0  0  0  0  0  0  0
  147.6209  133.6915  150.6372 H   0  0  0  0  0  0  0  0  0  0  0  0
  146.0298  131.7762  149.5144 H   0  0  0  0  0  0  0  0  0  0  0  0
  146.9588  131.3782  150.9648 H   0  0  0  0  0  0  0  0  0  0  0  0
  144.0581  132.3087  150.8409 H   0  0  0  0  0  0  0  0  0  0  0  0
  144.6901  130.8951  151.6922 H   0  0  0  0  0  0  0  0  0  0  0  0
  149.7213  138.0081  156.6456 H   0  0  0  0  0  0  0  0  0  0  0  0
  152.3969  138.1989  155.7124 H   0  0  0  0  0  0  0  0  0  0  0  0
  151.3405  138.9310  154.5295 H   0  0  0  0  0  0  0  0  0  0  0  0
  150.3585  141.1575  154.9655 H   0  0  0  0  0  0  0  0  0  0  0  0
  150.3212  143.2128  156.3723 H   0  0  0  0  0  0  0  0  0  0  0  0
  152.4175  139.0115  158.1312 H   0  0  0  0  0  0  0  0  0  0  0  0
  151.4547  142.6870  160.9317 H   0  0  0  0  0  0  0  0  0  0  0  0
  153.0227  143.1843  160.2519 H   0  0  0  0  0  0  0  0  0  0  0  0
  1  2  2  0  0  0  0
  2  3  1  0  0  0  0
  2 18  1  0  0  0  0
  3  4  1  0  0  0  0
  3 29  1  0  0  0  0
  3 30  1  0  0  0  0
  4 16  1  0  0  0  0
  4  5  1  0  0  0  0
  5  6  2  0  0  0  0
  5  7  1  0  0  0  0
  7  8  1  0  0  0  0
  7  9  2  0  0  0  0
  9 10  1  0  0  0  0
  9 31  1  0  0  0  0
 10 11  1  0  0  0  0
 10 16  1  0  0  0  0
 11 15  1  0  0  0  0
 11 12  1  0  0  0  0
 11 32  1  0  0  0  0
 12 13  1  0  0  0  0
 12 33  1  0  0  0  0
 12 34  1  0  0  0  0
 13 14  1  0  0  0  0
 13 35  1  0  0  0  0
 13 36  1  0  0  0  0
 14 15  1  0  0  0  0
 14 37  1  0  0  0  0
 14 38  1  0  0  0  0
 16 17  2  0  0  0  0
 18 19  1  0  0  0  0
 18 39  1  0  0  0  0
 19 20  1  0  0  0  0
 19 40  1  0  0  0  0
 19 41  1  0  0  0  0
 20 25  1  0  0  0  0
 20 21  2  0  0  0  0
 21 22  1  0  0  0  0
 21 42  1  0  0  0  0
 22 23  2  0  0  0  0
 22 43  1  0  0  0  0
 23 28  1  0  0  0  0
 23 24  1  0  0  0  0
 24 25  2  0  0  0  0
 24 26  1  0  0  0  0
 25 44  1  0  0  0  0
 26 27  1  0  0  0  0
 27 28  1  0  0  0  0
 27 45  1  0  0  0  0
 27 46  1  0  0  0  0
M  END
> <s_m_source_file>
AV-unprocessed.smi

> <i_m_source_file_index>
97

> <i_lp_mmshare_version>
43012

> <i_f3d_flags>
0

> <s_epik_input>
TzFbQ0gyXU9jKGMxMilbY0hdYyhbY0hdW2NIXTIpW0NIMl1bTkhdQyg9TylbQ0gyXW4zYyg9TyljKEYpW2NIXW4oYzM9TylbQ0BASF00W0NIMl1bQ0gyXVtDSDJdTzQ=

> <s_epik_cmdline>
J2VwaWtfcHl0aG9uJywgJy1waCcsICc3LjAnLCAnLXRuJywgJzgnLCAnLW1hJywgJzIwMCcsICctbWV0YWxfYmluZGluZycsICctaW1hZScsICc8aW5maWxlLm1hZT4nLCAnLW9tYWUnLCAnPG91dGZpbGUubWFlPic=

> <r_lp_tautomer_probability>
1

> <r_epik_Ionization_Penalty>
3.79042e-08

> <r_epik_Ionization_Penalty_Charging>
3.81036e-09

> <r_epik_Ionization_Penalty_Neutral>
3.40938e-08

> <r_epik_State_Penalty>
-0

> <r_epik_Charging_Adjusted_Penalty>
3.81036e-09

> <i_epik_Tot_Q>
0

> <i_epik_Tot_abs_Q>
0

> <r_epik_Metal_State_Penalty>
-0

> <b_epik_Metal_Only>
0

> <s_epik_Chemistry_Notes>
This compound contains an acetal/aminal-like group ( X-CH(R)-Y where X, Y are N, S, or O) that may be acid/base labile, releasing an aldehyde.

> <s_lp_Force_Field>
OPLS_2005

> <r_lp_Energy>
39.492

> <b_lp_Chiralities_Consistent>
1

> <s_lp_Variant>
AV-unprocessed.smi:97-2

> <Gold.Version>
5.8.1

> <Gold.Id.Protein>
6NUR|6NUR_protein|mol2

> <Gold.PLP.Fitness>
46.5266

> <Gold.PLP.PLP>
-43.3695

> <Gold.PLP.part.hbond>
-1.0000

> <Gold.PLP.part.metal>
0.0000

> <Gold.PLP.part.buried>
-4.9988

> <Gold.PLP.part.nonpolar>
-37.6125

> <Gold.PLP.part.repulsive>
2.2732

> <Gold.PLP.ligand.clash>
0.0000

> <Gold.PLP.ligand.torsion>
0.6744

> <Gold.PLP.Chemscore.Hbond>
1.0000

> <Gold.PLP.Chemscore.CHOScore>
0.4807

> <Gold.PLP.Chemscore.Metal>
0.0000

> <Gold.Chemscore.Hbonds>
donor molecule, donor type, donor heavy atom, donor atom, acceptor molecule, acceptor atom, score
      P1  H 10752 10763       L1     1  1.00
      L1  C     9    31       P1 10747  0.59

> <Gold.PLP.Chemscore.Internal.Correction>
0.0638

> <Gold.Rescore>
     Score         DG    S(hbond)    S(metal)    S(lipo)     H(rot)  DE(clash)    DE(int)     intcor
     11.55     -12.31       1.00        0.00      86.42       2.58       0.05       0.71       ----

> <Gold.Chemscore.Fitness>
11.5520

> <Gold.Chemscore.DG>
-12.3099

> <Gold.Chemscore.ZeroCoef>
-5.4800

> <Gold.Chemscore.Hbond>
0.9953

> <Gold.Chemscore.Metal>
0.0000

> <Gold.Chemscore.Lipo>
86.4150

> <Gold.Chemscore.Internal_Hbond>
0.0000

> <Gold.Chemscore.DEClash>
0.0494

> <Gold.Chemscore.DEInternal>
0.7085

> <Gold.Chemscore.Rot>
2.5801

> <Gold.Chemscore.Internal.Correction>
   9.000000E+99

> <Gold.Chemscore.Hbonds>
donor molecule, donor type, donor heavy atom, donor atom, acceptor molecule, acceptor atom, score
      P1  H 10752 10763       L1     1  0.98

> <Gold.Chemscore.Hbond.Weighted>
-3.3243

> <Gold.Chemscore.Metal.Weighted>
-0.0000

> <Gold.Chemscore.Lipo.Weighted>
-10.1106

> <Gold.Chemscore.Internal_Hbond.Weighted>
0.0000

> <Gold.Chemscore.DEClash.Weighted>
0.0494

> <Gold.Chemscore.DEInternal.Weighted>
0.7085

> <Gold.Chemscore.Rot.Weighted>
6.6050

> <Gold.Chemscore.Internal.Correction.Weighted>
   9.000000E+99

> <Gold.Protein.RotatedTorsions>
[ 6907 6896 6895 6894 ] final  -29.02 input  -60.11 | X-H torsion
[ 7974 7965 7964 7962 ] final  -64.61 input  175.53 | X-H torsion
[ 8008 7997 7996 7995 ] final  -35.03 input   59.86 | X-H torsion
[ 10167 10162 10161 10158 ] final   27.06 input  -65.29 | X-H torsion
[ 10718 10713 10712 10709 ] final   -6.41 input   66.30 | X-H torsion
[ 10763 10752 10751 10750 ] final   47.46 input  -60.55 | X-H torsion
[ 11005 11000 10999 10996 ] final -104.76 input  -57.11 | X-H torsion

> <Gold.Protein.ActiveResidues>
 VAL166  LYS551  ARG553  GLY616  TRP617  ASP618  TYR619  PRO620  LYS621  CYS622 
 ASP623  PHE694  ASN695  SER759  ASP760  ASP761  ALA762  ILE779  LEU786  VAL792 
 PHE793  MET794  SER795  GLU796  ALA797  LYS798  CYS799  TRP800  GLU811  SER814 

> <Gold.Protein.RotatedAtoms>
  151.1249  135.0099  159.8555 H   0  0  0  0  0  0  0  0  0  0  0  0  # atno 6907 bound_to 6896
  152.5449  134.1679  159.8595 H   0  0  0  0  0  0  0  0  0  0  0  0  # atno 6908 bound_to 6896
  151.1741  133.4721  159.2627 H   0  0  0  0  0  0  0  0  0  0  0  0  # atno 6909 bound_to 6896
  145.7645  140.8844  143.0412 H   0  0  0  0  0  0  0  0  0  0  0  0  # atno 7974 bound_to 7965
  154.4105  140.1668  156.2145 H   0  0  0  0  0  0  0  0  0  0  0  0  # atno 8008 bound_to 7997
  155.9416  140.3407  155.6309 H   0  0  0  0  0  0  0  0  0  0  0  0  # atno 8009 bound_to 7997
  155.6982  140.0742  157.2411 H   0  0  0  0  0  0  0  0  0  0  0  0  # atno 8010 bound_to 7997
  140.4971  144.0375  150.6318 H   0  0  0  0  0  0  0  0  0  0  0  0  # atno 10167 bound_to 10162
  156.7322  130.5184  149.5843 H   0  0  0  0  0  0  0  0  0  0  0  0  # atno 10718 bound_to 10713
  152.9800  135.5975  154.3767 H   0  0  0  0  0  0  0  0  0  0  0  0  # atno 10763 bound_to 10752
  154.3435  135.2767  155.2412 H   0  0  0  0  0  0  0  0  0  0  0  0  # atno 10764 bound_to 10752
  154.4483  135.5996  153.6230 H   0  0  0  0  0  0  0  0  0  0  0  0  # atno 10765 bound_to 10752
  141.1085  133.8750  157.1650 H   0  0  0  0  0  0  0  0  0  0  0  0  # atno 11005 bound_to 11000
  144.6824  139.9770  143.7483 LP  0  0  0  0  0  0  0  0  0  0  0  0  # atno 17320 bound_to 7965
  146.0231  139.3268  143.0801 LP  0  0  0  0  0  0  0  0  0  0  0  0  # atno 17321 bound_to 7965
  140.3660  143.2881  152.0331 LP  0  0  0  0  0  0  0  0  0  0  0  0  # atno 17342 bound_to 10162
  139.4863  144.6266  151.7152 LP  0  0  0  0  0  0  0  0  0  0  0  0  # atno 17343 bound_to 10162
  156.1521  130.6317  151.0609 LP  0  0  0  0  0  0  0  0  0  0  0  0  # atno 17370 bound_to 10713
  157.6854  131.0826  150.7257 LP  0  0  0  0  0  0  0  0  0  0  0  0  # atno 17371 bound_to 10713
  139.9967  135.0044  157.0099 LP  0  0  0  0  0  0  0  0  0  0  0  0  # atno 17394 bound_to 11000
  140.4837  134.1263  155.7221 LP  0  0  0  0  0  0  0  0  0  0  0  0  # atno 17395 bound_to 11000

$$$$
