AV-unprocessed.smi:1867|AV-procd|sdf|7574|dock3
  -GOLD-   22720 9283D 1   1.00000     0.00000
 Structure written by MMmdl.
 53 56  0  0  0  0  0  0  0  0  3 V2000
  149.0239  136.9991  156.5898 O   0  0  0  0  0  0  0  0  0  0  0  0
  148.6420  137.5365  155.5530 C   0  0  0  0  0  0  0  0  0  0  0  0
  148.8658  138.8259  155.2323 N   0  0  0  0  0  0  0  0  0  0  0  0
  149.5878  139.8054  155.9649 C   0  0  0  0  0  0  0  0  0  0  0  0
  150.4992  139.5030  157.0075 C   0  0  0  0  0  0  0  0  0  0  0  0
  151.1783  140.5516  157.6614 C   0  0  0  0  0  0  0  0  0  0  0  0
  150.9440  141.8884  157.2635 C   0  0  0  0  0  0  0  0  0  0  0  0
  151.5731  142.9992  157.8434 N   0  0  0  0  0  0  0  0  0  0  0  0
  150.6903  144.0038  158.4166 C   0  0  0  0  0  0  0  0  0  0  0  0
  151.5568  144.8258  159.3775 C   0  0  0  0  0  0  0  0  0  0  0  0
  152.8122  143.9771  159.6097 C   0  0  0  0  0  0  0  0  0  0  0  0
  152.5315  142.6626  158.8808 C   0  0  0  0  0  0  0  0  0  0  0  0
  150.0826  142.1301  156.2513 N   0  3  0  0  0  0  0  0  0  0  0  0
  149.4122  141.1562  155.5990 C   0  0  0  0  0  0  0  0  0  0  0  0
  147.9380  136.8488  154.6351 N   0  0  0  0  0  0  0  0  0  0  0  0
  147.5195  135.4434  154.6598 C   0  0  2  0  0  0  0  0  0  0  0  0
  148.7002  134.4732  154.4587 C   0  0  0  0  0  0  0  0  0  0  0  0
  148.1609  133.3875  153.5221 C   0  0  0  0  0  0  0  0  0  0  0  0
  147.2147  134.1245  152.6770 N   0  3  1  0  0  0  0  0  0  0  0  0
  146.3064  133.3571  151.8006 C   0  0  0  0  0  0  0  0  0  0  0  0
  145.5512  134.3498  150.8912 C   0  0  0  0  0  0  0  0  0  0  0  0
  144.8618  135.4732  151.6979 C   0  0  0  0  0  0  0  0  0  0  0  0
  145.8357  136.1506  152.6860 C   0  0  0  0  0  0  0  0  0  0  0  0
  146.5008  135.0678  153.5553 C   0  0  2  0  0  0  0  0  0  0  0  0
  148.4150  139.1579  154.3925 H   0  0  0  0  0  0  0  0  0  0  0  0
  150.7040  138.4876  157.3099 H   0  0  0  0  0  0  0  0  0  0  0  0
  151.8771  140.3221  158.4524 H   0  0  0  0  0  0  0  0  0  0  0  0
  150.2602  144.6307  157.6349 H   0  0  0  0  0  0  0  0  0  0  0  0
  149.8673  143.5413  158.9617 H   0  0  0  0  0  0  0  0  0  0  0  0
  151.8275  145.7843  158.9328 H   0  0  0  0  0  0  0  0  0  0  0  0
  151.0250  145.0303  160.3073 H   0  0  0  0  0  0  0  0  0  0  0  0
  153.6777  144.4718  159.1672 H   0  0  0  0  0  0  0  0  0  0  0  0
  153.0240  143.8203  160.6678 H   0  0  0  0  0  0  0  0  0  0  0  0
  152.1037  141.9322  159.5690 H   0  0  0  0  0  0  0  0  0  0  0  0
  153.4411  142.2363  158.4561 H   0  0  0  0  0  0  0  0  0  0  0  0
  148.7529  141.4896  154.8105 H   0  0  0  0  0  0  0  0  0  0  0  0
  147.6684  137.3666  153.8108 H   0  0  0  0  0  0  0  0  0  0  0  0
  147.0766  135.2132  155.6305 H   0  0  0  0  0  0  0  0  0  0  0  0
  149.5329  134.9840  153.9718 H   0  0  0  0  0  0  0  0  0  0  0  0
  149.0728  134.0638  155.3982 H   0  0  0  0  0  0  0  0  0  0  0  0
  148.9455  132.9082  152.9357 H   0  0  0  0  0  0  0  0  0  0  0  0
  147.6309  132.6192  154.0875 H   0  0  0  0  0  0  0  0  0  0  0  0
  146.8826  132.6564  151.1954 H   0  0  0  0  0  0  0  0  0  0  0  0
  145.6099  132.7702  152.4014 H   0  0  0  0  0  0  0  0  0  0  0  0
  146.2561  134.7991  150.1901 H   0  0  0  0  0  0  0  0  0  0  0  0
  144.8160  133.8181  150.2864 H   0  0  0  0  0  0  0  0  0  0  0  0
  144.4389  136.2160  151.0207 H   0  0  0  0  0  0  0  0  0  0  0  0
  144.0225  135.0514  152.2526 H   0  0  0  0  0  0  0  0  0  0  0  0
  146.5904  136.7170  152.1382 H   0  0  0  0  0  0  0  0  0  0  0  0
  145.2902  136.8621  153.3063 H   0  0  0  0  0  0  0  0  0  0  0  0
  145.7056  134.5095  154.0541 H   0  0  0  0  0  0  0  0  0  0  0  0
  147.7870  134.6914  152.0675 H   0  0  0  0  0  0  0  0  0  0  0  0
  149.9296  143.0980  155.9669 H   0  0  0  0  0  0  0  0  0  0  0  0
  1  2  2  0  0  0  0
  2  3  1  0  0  0  0
  2 15  1  0  0  0  0
  3  4  1  0  0  0  0
  3 25  1  0  0  0  0
  4 14  1  0  0  0  0
  4  5  2  0  0  0  0
  5  6  1  0  0  0  0
  5 26  1  0  0  0  0
  6  7  2  0  0  0  0
  6 27  1  0  0  0  0
  7  8  1  0  0  0  0
  7 13  1  0  0  0  0
  8 12  1  0  0  0  0
  8  9  1  0  0  0  0
  9 10  1  0  0  0  0
  9 28  1  0  0  0  0
  9 29  1  0  0  0  0
 10 11  1  0  0  0  0
 10 30  1  0  0  0  0
 10 31  1  0  0  0  0
 11 12  1  0  0  0  0
 11 32  1  0  0  0  0
 11 33  1  0  0  0  0
 12 34  1  0  0  0  0
 12 35  1  0  0  0  0
 13 14  2  0  0  0  0
 13 53  1  0  0  0  0
 14 36  1  0  0  0  0
 15 16  1  0  0  0  0
 15 37  1  0  0  0  0
 16 24  1  0  0  0  0
 16 17  1  0  0  0  0
 16 38  1  0  0  0  0
 17 18  1  0  0  0  0
 17 39  1  0  0  0  0
 17 40  1  0  0  0  0
 18 19  1  0  0  0  0
 18 41  1  0  0  0  0
 18 42  1  0  0  0  0
 19 24  1  0  0  0  0
 19 20  1  0  0  0  0
 19 52  1  0  0  0  0
 20 21  1  0  0  0  0
 20 43  1  0  0  0  0
 20 44  1  0  0  0  0
 21 22  1  0  0  0  0
 21 45  1  0  0  0  0
 21 46  1  0  0  0  0
 22 23  1  0  0  0  0
 22 47  1  0  0  0  0
 22 48  1  0  0  0  0
 23 24  1  0  0  0  0
 23 49  1  0  0  0  0
 23 50  1  0  0  0  0
 24 51  1  0  0  0  0
M  CHG  1  13   1
M  CHG  1  19   1
M  END
> <s_m_source_file>
AV-unprocessed.smi

> <i_m_source_file_index>
1867

> <i_lp_mmshare_version>
43012

> <i_f3d_flags>
0

> <s_epik_input>
W0NIMl0xW0NIMl1bQ0gyXVtDSDJdW0NASF0oTjEyKVtDQEBIXShbQ0gyXVtDSDJdMilbTkhdQyg9TylbTkhdYzNbY0hdW2NIXWMobltjSF0zKU40W0NIMl1bQ0gyXVtDSDJdW0NIMl00

> <s_epik_cmdline>
J2VwaWtfcHl0aG9uJywgJy1waCcsICc3LjAnLCAnLXRuJywgJzgnLCAnLW1hJywgJzIwMCcsICctbWV0YWxfYmluZGluZycsICctaW1hZScsICc8aW5maWxlLm1hZT4nLCAnLW9tYWUnLCAnPG91dGZpbGUubWFlPic=

> <r_lp_tautomer_probability>
0.999994

> <r_epik_Ionization_Penalty>
1.27347

> <r_epik_Ionization_Penalty_Charging>
1.27345

> <r_epik_Ionization_Penalty_Neutral>
1.96458e-05

> <r_epik_State_Penalty>
1.34393

> <r_epik_Charging_Adjusted_Penalty>
2.61738

> <i_epik_Tot_Q>
2

> <i_epik_Tot_abs_Q>
2

> <r_epik_Metal_State_Penalty>
1.41094

> <b_epik_Metal_Only>
0

> <s_lp_Force_Field>
OPLS_2005

> <r_lp_Energy>
89.6482

> <b_lp_Chiralities_Consistent>
1

> <s_lp_Variant>
AV-unprocessed.smi:1867-15

> <Gold.Version>
5.8.1

> <Gold.Id.Protein>
6NUR|6NUR_protein|mol2

> <Gold.PLP.Fitness>
48.2732

> <Gold.PLP.PLP>
-36.6120

> <Gold.PLP.part.hbond>
-3.0000

> <Gold.PLP.part.metal>
0.0000

> <Gold.PLP.part.buried>
-2.5923

> <Gold.PLP.part.nonpolar>
-31.2920

> <Gold.PLP.part.repulsive>
0.1858

> <Gold.PLP.ligand.clash>
0.0000

> <Gold.PLP.ligand.torsion>
0.1805

> <Gold.PLP.Chemscore.Hbond>
4.0000

> <Gold.PLP.Chemscore.CHOScore>
0.0000

> <Gold.PLP.Chemscore.Metal>
0.0000

> <Gold.Chemscore.Hbonds>
donor molecule, donor type, donor heavy atom, donor atom, acceptor molecule, acceptor atom, score
      L1  H    13    53       P1  8028  2.00
      L1  H    19    52       P1  7948  1.98

> <Gold.PLP.Chemscore.Internal.Correction>
0.0221

> <Gold.Rescore>
     Score         DG    S(hbond)    S(metal)    S(lipo)     H(rot)  DE(clash)    DE(int)     intcor
     18.68     -20.05       1.82        0.00      98.84       1.20       0.02       1.36       ----

> <Gold.Chemscore.Fitness>
18.6799

> <Gold.Chemscore.DG>
-20.0541

> <Gold.Chemscore.ZeroCoef>
-5.4800

> <Gold.Chemscore.Hbond>
1.8172

> <Gold.Chemscore.Metal>
0.0000

> <Gold.Chemscore.Lipo>
98.8382

> <Gold.Chemscore.Internal_Hbond>
0.0000

> <Gold.Chemscore.DEClash>
0.0178

> <Gold.Chemscore.DEInternal>
1.3565

> <Gold.Chemscore.Rot>
1.1950

> <Gold.Chemscore.Internal.Correction>
   9.000000E+99

> <Gold.Chemscore.Hbonds>
donor molecule, donor type, donor heavy atom, donor atom, acceptor molecule, acceptor atom, score
      L1  H    13    53       P1  8028  0.97
      L1  H    19    52       P1  7948  0.47

> <Gold.Chemscore.Hbond.Weighted>
-6.0693

> <Gold.Chemscore.Metal.Weighted>
-0.0000

> <Gold.Chemscore.Lipo.Weighted>
-11.5641

> <Gold.Chemscore.Internal_Hbond.Weighted>
0.0000

> <Gold.Chemscore.DEClash.Weighted>
0.0178

> <Gold.Chemscore.DEInternal.Weighted>
1.3565

> <Gold.Chemscore.Rot.Weighted>
3.0593

> <Gold.Chemscore.Internal.Correction.Weighted>
   9.000000E+99

> <Gold.Protein.RotatedTorsions>
[ 6907 6896 6895 6894 ] final -132.59 input  -60.11 | X-H torsion
[ 7974 7965 7964 7962 ] final   75.49 input  175.53 | X-H torsion
[ 8008 7997 7996 7995 ] final   45.91 input   59.86 | X-H torsion
[ 10167 10162 10161 10158 ] final -107.06 input  -65.29 | X-H torsion
[ 10718 10713 10712 10709 ] final  169.07 input   66.30 | X-H torsion
[ 10763 10752 10751 10750 ] final  153.43 input  -60.55 | X-H torsion
[ 11005 11000 10999 10996 ] final   72.06 input  -57.11 | X-H torsion

> <Gold.Protein.ActiveResidues>
 VAL166  LYS551  ARG553  GLY616  TRP617  ASP618  TYR619  PRO620  LYS621  CYS622 
 ASP623  PHE694  ASN695  SER759  ASP760  ASP761  ALA762  ILE779  LEU786  VAL792 
 PHE793  MET794  SER795  GLU796  ALA797  LYS798  CYS799  TRP800  GLU811  SER814 

> <Gold.Protein.RotatedAtoms>
  150.9642  133.6413  159.2748 H   0  0  0  0  0  0  0  0  0  0  0  0  # atno 6907 bound_to 6896
  151.3725  135.0924  159.9480 H   0  0  0  0  0  0  0  0  0  0  0  0  # atno 6908 bound_to 6896
  152.5159  133.9193  159.7581 H   0  0  0  0  0  0  0  0  0  0  0  0  # atno 6909 bound_to 6896
  145.7149  139.2628  143.1629 H   0  0  0  0  0  0  0  0  0  0  0  0  # atno 7974 bound_to 7965
  155.3438  140.3409  155.4239 H   0  0  0  0  0  0  0  0  0  0  0  0  # atno 8008 bound_to 7997
  156.1799  140.1660  156.8328 H   0  0  0  0  0  0  0  0  0  0  0  0  # atno 8009 bound_to 7997
  154.5323  140.0742  156.8349 H   0  0  0  0  0  0  0  0  0  0  0  0  # atno 8010 bound_to 7997
  140.1811  143.3966  152.1281 H   0  0  0  0  0  0  0  0  0  0  0  0  # atno 10167 bound_to 10162
  157.0280  131.0251  151.2754 H   0  0  0  0  0  0  0  0  0  0  0  0  # atno 10718 bound_to 10713
  154.1361  135.2823  155.3173 H   0  0  0  0  0  0  0  0  0  0  0  0  # atno 10763 bound_to 10752
  154.6321  135.5432  153.7695 H   0  0  0  0  0  0  0  0  0  0  0  0  # atno 10764 bound_to 10752
  153.0265  135.6465  154.1509 H   0  0  0  0  0  0  0  0  0  0  0  0  # atno 10765 bound_to 10752
  139.9511  134.7226  156.0861 H   0  0  0  0  0  0  0  0  0  0  0  0  # atno 11005 bound_to 11000
  146.0678  140.7901  142.9703 LP  0  0  0  0  0  0  0  0  0  0  0  0  # atno 17320 bound_to 7965
  144.6932  140.3296  143.7218 LP  0  0  0  0  0  0  0  0  0  0  0  0  # atno 17321 bound_to 7965
  139.5296  144.7143  151.5104 LP  0  0  0  0  0  0  0  0  0  0  0  0  # atno 17342 bound_to 10162
  140.6519  143.8679  150.6795 LP  0  0  0  0  0  0  0  0  0  0  0  0  # atno 17343 bound_to 10162
  157.5200  130.7992  149.7798 LP  0  0  0  0  0  0  0  0  0  0  0  0  # atno 17370 bound_to 10713
  156.0079  130.3846  150.2365 LP  0  0  0  0  0  0  0  0  0  0  0  0  # atno 17371 bound_to 10713
  141.1173  133.6623  156.3127 LP  0  0  0  0  0  0  0  0  0  0  0  0  # atno 17394 bound_to 11000
  140.5718  134.5833  157.5459 LP  0  0  0  0  0  0  0  0  0  0  0  0  # atno 17395 bound_to 11000

$$$$
