AV-unprocessed.smi:1269|AV-procd|sdf|5327|dock7
  -GOLD-   22720 4453D 1   1.00000     0.00000
 Structure written by MMmdl.
 43 44  0  0  0  0  0  0  0  0  1 V2000
  136.0651  139.0568  154.2424 C   0  0  0  0  0  0  0  0  0  0  0  0
  136.7999  137.8532  154.4358 O   0  0  0  0  0  0  0  0  0  0  0  0
  138.1380  137.8411  154.0992 C   0  0  0  0  0  0  0  0  0  0  0  0
  138.8730  136.6561  154.2987 C   0  0  0  0  0  0  0  0  0  0  0  0
  140.2382  136.6329  153.9541 C   0  0  0  0  0  0  0  0  0  0  0  0
  140.8296  137.8029  153.4185 C   0  0  0  0  0  0  0  0  0  0  0  0
  142.1910  137.9256  153.0232 N   0  0  0  0  0  0  0  0  0  0  0  0
  143.0998  136.9694  152.7637 C   0  0  0  0  0  0  0  0  0  0  0  0
  142.9123  135.7573  152.8580 O   0  0  0  0  0  0  0  0  0  0  0  0
  144.2637  137.5111  152.3749 N   0  0  0  0  0  0  0  0  0  0  0  0
  145.4594  136.7742  151.9683 C   0  0  2  0  0  0  0  0  0  0  0  0
  146.5287  137.7749  151.5094 C   0  0  0  0  0  0  0  0  0  0  0  0
  145.1146  135.7760  150.8415 C   0  0  0  0  0  0  0  0  0  0  0  0
  145.1217  134.3623  151.2206 N   0  0  0  0  0  0  0  0  0  0  0  0
  146.4612  133.8689  151.5353 C   0  0  0  0  0  0  0  0  0  0  0  0
  146.4460  132.3791  151.9185 C   0  0  0  0  0  0  0  0  0  0  0  0
  145.8606  131.6203  150.8654 O   0  0  0  0  0  0  0  0  0  0  0  0
  144.5367  132.0425  150.5549 C   0  0  0  0  0  0  0  0  0  0  0  0
  144.5477  133.5316  150.1681 C   0  0  0  0  0  0  0  0  0  0  0  0
  140.0056  138.9369  153.2619 C   0  0  0  0  0  0  0  0  0  0  0  0
  138.6967  138.9658  153.5888 N   0  0  0  0  0  0  0  0  0  0  0  0
  135.0324  138.9029  154.5549 H   0  0  0  0  0  0  0  0  0  0  0  0
  136.0521  139.3519  153.1920 H   0  0  0  0  0  0  0  0  0  0  0  0
  136.4726  139.8743  154.8390 H   0  0  0  0  0  0  0  0  0  0  0  0
  138.3974  135.7772  154.7084 H   0  0  0  0  0  0  0  0  0  0  0  0
  140.7885  135.7197  154.1110 H   0  0  0  0  0  0  0  0  0  0  0  0
  142.5119  138.8747  152.8991 H   0  0  0  0  0  0  0  0  0  0  0  0
  144.3215  138.5178  152.3308 H   0  0  0  0  0  0  0  0  0  0  0  0
  145.8797  136.2390  152.8204 H   0  0  0  0  0  0  0  0  0  0  0  0
  147.4447  137.2614  151.2156 H   0  0  0  0  0  0  0  0  0  0  0  0
  146.7848  138.4707  152.3093 H   0  0  0  0  0  0  0  0  0  0  0  0
  146.1869  138.3600  150.6549 H   0  0  0  0  0  0  0  0  0  0  0  0
  144.1242  136.0345  150.4636 H   0  0  0  0  0  0  0  0  0  0  0  0
  145.7972  135.9267  150.0036 H   0  0  0  0  0  0  0  0  0  0  0  0
  147.1202  134.0141  150.6780 H   0  0  0  0  0  0  0  0  0  0  0  0
  146.8932  134.4341  152.3598 H   0  0  0  0  0  0  0  0  0  0  0  0
  147.4609  132.0217  152.0938 H   0  0  0  0  0  0  0  0  0  0  0  0
  145.8869  132.2246  152.8429 H   0  0  0  0  0  0  0  0  0  0  0  0
  144.1535  131.4395  149.7316 H   0  0  0  0  0  0  0  0  0  0  0  0
  143.8825  131.8704  151.4112 H   0  0  0  0  0  0  0  0  0  0  0  0
  143.5274  133.8538  149.9570 H   0  0  0  0  0  0  0  0  0  0  0  0
  145.1133  133.6608  149.2439 H   0  0  0  0  0  0  0  0  0  0  0  0
  140.4086  139.8549  152.8591 H   0  0  0  0  0  0  0  0  0  0  0  0
  1  2  1  0  0  0  0
  1 22  1  0  0  0  0
  1 23  1  0  0  0  0
  1 24  1  0  0  0  0
  2  3  1  0  0  0  0
  3 21  1  0  0  0  0
  3  4  2  0  0  0  0
  4  5  1  0  0  0  0
  4 25  1  0  0  0  0
  5  6  2  0  0  0  0
  5 26  1  0  0  0  0
  6  7  1  0  0  0  0
  6 20  1  0  0  0  0
  7  8  1  0  0  0  0
  7 27  1  0  0  0  0
  8  9  2  0  0  0  0
  8 10  1  0  0  0  0
 10 11  1  0  0  0  0
 10 28  1  0  0  0  0
 11 12  1  0  0  0  0
 11 13  1  0  0  0  0
 11 29  1  0  0  0  0
 12 30  1  0  0  0  0
 12 31  1  0  0  0  0
 12 32  1  0  0  0  0
 13 14  1  0  0  0  0
 13 33  1  0  0  0  0
 13 34  1  0  0  0  0
 14 19  1  0  0  0  0
 14 15  1  0  0  0  0
 15 16  1  0  0  0  0
 15 35  1  0  0  0  0
 15 36  1  0  0  0  0
 16 17  1  0  0  0  0
 16 37  1  0  0  0  0
 16 38  1  0  0  0  0
 17 18  1  0  0  0  0
 18 19  1  0  0  0  0
 18 39  1  0  0  0  0
 18 40  1  0  0  0  0
 19 41  1  0  0  0  0
 19 42  1  0  0  0  0
 20 21  2  0  0  0  0
 20 43  1  0  0  0  0
M  END
> <s_m_source_file>
AV-unprocessed.smi

> <i_m_source_file_index>
1269

> <i_lp_mmshare_version>
43012

> <i_f3d_flags>
0

> <s_epik_input>
W0NIM11PYzFbY0hdW2NIXWMoW2NIXW4xKVtOSF1DKD1PKVtOSF1bQ0BIXShbQ0gzXSlbQ0gyXU4yW0NIMl1bQ0gyXU9bQ0gyXVtDSDJdMg==

> <s_epik_cmdline>
J2VwaWtfcHl0aG9uJywgJy1waCcsICc3LjAnLCAnLXRuJywgJzgnLCAnLW1hJywgJzIwMCcsICctbWV0YWxfYmluZGluZycsICctaW1hZScsICc8aW5maWxlLm1hZT4nLCAnLW9tYWUnLCAnPG91dGZpbGUubWFlPic=

> <r_lp_tautomer_probability>
1

> <r_epik_Ionization_Penalty>
0.266086

> <r_epik_Ionization_Penalty_Charging>
0

> <r_epik_Ionization_Penalty_Neutral>
0.266086

> <r_epik_State_Penalty>
0.257924

> <r_epik_Charging_Adjusted_Penalty>
0.257924

> <i_epik_Tot_Q>
0

> <i_epik_Tot_abs_Q>
0

> <r_epik_Metal_State_Penalty>
0.25792

> <b_epik_Metal_Only>
0

> <s_lp_Force_Field>
OPLS_2005

> <r_lp_Energy>
28.3998

> <b_lp_Chiralities_Consistent>
1

> <s_lp_Variant>
AV-unprocessed.smi:1269-1

> <Gold.Version>
5.8.1

> <Gold.Id.Protein>
6NUR|6NUR_protein|mol2

> <Gold.PLP.Fitness>
44.3074

> <Gold.PLP.PLP>
-36.9154

> <Gold.PLP.part.hbond>
-3.0000

> <Gold.PLP.part.metal>
0.0000

> <Gold.PLP.part.buried>
-1.9308

> <Gold.PLP.part.nonpolar>
-33.1477

> <Gold.PLP.part.repulsive>
0.5982

> <Gold.PLP.ligand.clash>
0.0000

> <Gold.PLP.ligand.torsion>
0.8256

> <Gold.PLP.Chemscore.Hbond>
2.0000

> <Gold.PLP.Chemscore.CHOScore>
1.0000

> <Gold.PLP.Chemscore.Metal>
0.0000

> <Gold.Chemscore.Hbonds>
donor molecule, donor type, donor heavy atom, donor atom, acceptor molecule, acceptor atom, score
      L1  H     7    27       P1 10175  1.00
      L1  H    10    28       P1 10175  0.99
      L1  C    20    43       P1 10160  0.98

> <Gold.PLP.Chemscore.Internal.Correction>
0.0434

> <Gold.Rescore>
     Score         DG    S(hbond)    S(metal)    S(lipo)     H(rot)  DE(clash)    DE(int)     intcor
     14.08     -17.00       1.92        0.00      81.22       1.72       0.36       2.56       ----

> <Gold.Chemscore.Fitness>
14.0782

> <Gold.Chemscore.DG>
-17.0026

> <Gold.Chemscore.ZeroCoef>
-5.4800

> <Gold.Chemscore.Hbond>
1.9221

> <Gold.Chemscore.Metal>
0.0000

> <Gold.Chemscore.Lipo>
81.2248

> <Gold.Chemscore.Internal_Hbond>
0.0000

> <Gold.Chemscore.DEClash>
0.3610

> <Gold.Chemscore.DEInternal>
2.5634

> <Gold.Chemscore.Rot>
1.7189

> <Gold.Chemscore.Internal.Correction>
   9.000000E+99

> <Gold.Chemscore.Hbonds>
donor molecule, donor type, donor heavy atom, donor atom, acceptor molecule, acceptor atom, score
      L1  H     7    27       P1 10175  0.99
      L1  H    10    28       P1 10175  0.91

> <Gold.Chemscore.Hbond.Weighted>
-6.4197

> <Gold.Chemscore.Metal.Weighted>
-0.0000

> <Gold.Chemscore.Lipo.Weighted>
-9.5033

> <Gold.Chemscore.Internal_Hbond.Weighted>
0.0000

> <Gold.Chemscore.DEClash.Weighted>
0.3610

> <Gold.Chemscore.DEInternal.Weighted>
2.5634

> <Gold.Chemscore.Rot.Weighted>
4.4004

> <Gold.Chemscore.Internal.Correction.Weighted>
   9.000000E+99

> <Gold.Protein.RotatedTorsions>
[ 6907 6896 6895 6894 ] final    3.06 input  -60.11 | X-H torsion
[ 7974 7965 7964 7962 ] final   16.17 input  175.53 | X-H torsion
[ 8008 7997 7996 7995 ] final  145.38 input   59.86 | X-H torsion
[ 10167 10162 10161 10158 ] final  -73.21 input  -65.29 | X-H torsion
[ 10718 10713 10712 10709 ] final  -18.67 input   66.30 | X-H torsion
[ 10763 10752 10751 10750 ] final -163.19 input  -60.55 | X-H torsion
[ 11005 11000 10999 10996 ] final  -16.35 input  -57.11 | X-H torsion

> <Gold.Protein.ActiveResidues>
 VAL166  LYS551  ARG553  GLY616  TRP617  ASP618  TYR619  PRO620  LYS621  CYS622 
 ASP623  PHE694  ASN695  SER759  ASP760  ASP761  ALA762  ILE779  LEU786  VAL792 
 PHE793  MET794  SER795  GLU796  ALA797  LYS798  CYS799  TRP800  GLU811  SER814 

> <Gold.Protein.RotatedAtoms>
  151.6189  135.1034  160.0097 H   0  0  0  0  0  0  0  0  0  0  0  0  # atno 6907 bound_to 6896
  152.4168  133.7047  159.6455 H   0  0  0  0  0  0  0  0  0  0  0  0  # atno 6908 bound_to 6896
  150.8056  133.8442  159.3228 H   0  0  0  0  0  0  0  0  0  0  0  0  # atno 6909 bound_to 6896
  146.2257  139.8786  142.8574 H   0  0  0  0  0  0  0  0  0  0  0  0  # atno 7974 bound_to 7965
  156.2884  140.2210  156.5206 H   0  0  0  0  0  0  0  0  0  0  0  0  # atno 8008 bound_to 7997
  154.7531  140.0479  157.0932 H   0  0  0  0  0  0  0  0  0  0  0  0  # atno 8009 bound_to 7997
  155.0084  140.3110  155.4842 H   0  0  0  0  0  0  0  0  0  0  0  0  # atno 8010 bound_to 7997
  140.5129  143.2342  151.7563 H   0  0  0  0  0  0  0  0  0  0  0  0  # atno 10167 bound_to 10162
  156.5563  130.4714  149.6427 H   0  0  0  0  0  0  0  0  0  0  0  0  # atno 10718 bound_to 10713
  154.7145  135.3013  154.9145 H   0  0  0  0  0  0  0  0  0  0  0  0  # atno 10763 bound_to 10752
  154.0036  135.6703  153.4765 H   0  0  0  0  0  0  0  0  0  0  0  0  # atno 10764 bound_to 10752
  153.0782  135.5023  154.8363 H   0  0  0  0  0  0  0  0  0  0  0  0  # atno 10765 bound_to 10752
  140.8059  133.8178  155.9515 H   0  0  0  0  0  0  0  0  0  0  0  0  # atno 11005 bound_to 11000
  145.2535  141.0052  143.3867 LP  0  0  0  0  0  0  0  0  0  0  0  0  # atno 17320 bound_to 7965
  144.9355  139.4248  143.6474 LP  0  0  0  0  0  0  0  0  0  0  0  0  # atno 17321 bound_to 7965
  139.4901  144.4365  151.9813 LP  0  0  0  0  0  0  0  0  0  0  0  0  # atno 17342 bound_to 10162
  140.3458  144.3148  150.5958 LP  0  0  0  0  0  0  0  0  0  0  0  0  # atno 17343 bound_to 10162
  156.2839  130.7086  151.1917 LP  0  0  0  0  0  0  0  0  0  0  0  0  # atno 17370 bound_to 10713
  157.7377  131.0548  150.5337 LP  0  0  0  0  0  0  0  0  0  0  0  0  # atno 17371 bound_to 10713
  140.9247  134.2097  157.4903 LP  0  0  0  0  0  0  0  0  0  0  0  0  # atno 17394 bound_to 11000
  139.8718  134.9807  156.5088 LP  0  0  0  0  0  0  0  0  0  0  0  0  # atno 17395 bound_to 11000

$$$$
