AV-unprocessed.smi:705|AV-procd|sdf|3446|dock6
  -GOLD-   22720 0433D 1   1.00000     0.00000
 Structure written by MMmdl.
 29 30  0  0  0  0  0  0  0  0  2 V2000
  148.2004  138.4036  153.0661 N   0  0  0  0  0  0  0  0  0  0  0  0
  146.9548  138.8520  153.2475 C   0  0  0  0  0  0  0  0  0  0  0  0
  146.7216  139.9733  153.6942 O   0  0  0  0  0  0  0  0  0  0  0  0
  145.8560  137.9486  152.8472 C   0  0  0  0  0  0  0  0  0  0  0  0
  145.9721  136.8100  152.1017 C   0  0  0  0  0  0  0  0  0  0  0  0
  144.6276  136.3317  152.0427 C   0  0  0  0  0  0  0  0  0  0  0  0
  144.1257  135.1004  151.3322 C   0  0  2  0  0  0  0  0  0  0  0  0
  144.5872  133.8047  152.0274 C   0  0  0  0  0  0  0  0  0  0  0  0
  144.0603  132.5744  151.2731 C   0  0  0  0  0  0  0  0  0  0  0  0
  144.4620  132.6265  149.7895 C   0  0  0  0  0  0  0  0  0  0  0  0
  143.9951  133.8830  149.1634 N   0  3  0  0  0  0  0  0  0  0  0  0
  144.5129  135.0937  149.8383 C   0  0  0  0  0  0  0  0  0  0  0  0
  143.7757  137.1097  152.7091 N   0  0  0  0  0  0  0  0  0  0  0  0
  144.5416  138.0991  153.2097 N   0  0  0  0  0  0  0  0  0  0  0  0
  144.1627  138.8477  153.7727 H   0  0  0  0  0  0  0  0  0  0  0  0
  148.9849  138.9863  153.3198 H   0  0  0  0  0  0  0  0  0  0  0  0
  148.3532  137.4869  152.6722 H   0  0  0  0  0  0  0  0  0  0  0  0
  146.8628  136.3836  151.6641 H   0  0  0  0  0  0  0  0  0  0  0  0
  143.0356  135.1157  151.3784 H   0  0  0  0  0  0  0  0  0  0  0  0
  145.6770  133.7664  152.0649 H   0  0  0  0  0  0  0  0  0  0  0  0
  144.2391  133.7851  153.0609 H   0  0  0  0  0  0  0  0  0  0  0  0
  144.4453  131.6632  151.7321 H   0  0  0  0  0  0  0  0  0  0  0  0
  142.9737  132.5283  151.3594 H   0  0  0  0  0  0  0  0  0  0  0  0
  145.5456  132.5554  149.6867 H   0  0  0  0  0  0  0  0  0  0  0  0
  144.0338  131.7802  149.2518 H   0  0  0  0  0  0  0  0  0  0  0  0
  144.2883  133.8966  148.1969 H   0  0  0  0  0  0  0  0  0  0  0  0
  144.1109  135.9748  149.3371 H   0  0  0  0  0  0  0  0  0  0  0  0
  145.5969  135.1259  149.7190 H   0  0  0  0  0  0  0  0  0  0  0  0
  142.9860  133.9030  149.1982 H   0  0  0  0  0  0  0  0  0  0  0  0
  1  2  1  0  0  0  0
  1 16  1  0  0  0  0
  1 17  1  0  0  0  0
  2  3  2  0  0  0  0
  2  4  1  0  0  0  0
  4 14  1  0  0  0  0
  4  5  2  0  0  0  0
  5  6  1  0  0  0  0
  5 18  1  0  0  0  0
  6  7  1  0  0  0  0
  6 13  2  0  0  0  0
  7 12  1  0  0  0  0
  7  8  1  0  0  0  0
  7 19  1  0  0  0  0
  8  9  1  0  0  0  0
  8 20  1  0  0  0  0
  8 21  1  0  0  0  0
  9 10  1  0  0  0  0
  9 22  1  0  0  0  0
  9 23  1  0  0  0  0
 10 11  1  0  0  0  0
 10 24  1  0  0  0  0
 10 25  1  0  0  0  0
 11 12  1  0  0  0  0
 11 26  1  0  0  0  0
 11 29  1  0  0  0  0
 12 27  1  0  0  0  0
 12 28  1  0  0  0  0
 13 14  1  0  0  0  0
 14 15  1  0  0  0  0
M  CHG  1  11   1
M  END
> <s_m_source_file>
AV-unprocessed.smi

> <i_m_source_file_index>
705

> <i_lp_mmshare_version>
43012

> <i_f3d_flags>
0

> <s_epik_input>
W05IMl1DKD1PKWMxW2NIXWMoW25IXW4xKVtDQEBIXTJbQ0gyXVtDSDJdW0NIMl1bTkhdW0NIMl0y

> <s_epik_cmdline>
J2VwaWtfcHl0aG9uJywgJy1waCcsICc3LjAnLCAnLXRuJywgJzgnLCAnLW1hJywgJzIwMCcsICctbWV0YWxfYmluZGluZycsICctaW1hZScsICc8aW5maWxlLm1hZT4nLCAnLW9tYWUnLCAnPG91dGZpbGUubWFlPic=

> <r_lp_tautomer_probability>
0.5

> <r_epik_Ionization_Penalty>
0.000242638

> <r_epik_Ionization_Penalty_Charging>
0.000157527

> <r_epik_Ionization_Penalty_Neutral>
8.51112e-05

> <r_epik_State_Penalty>
0.41068

> <r_epik_Charging_Adjusted_Penalty>
0.410837

> <i_epik_Tot_Q>
1

> <i_epik_Tot_abs_Q>
1

> <r_epik_Metal_State_Penalty>
0.446108

> <b_epik_Metal_Only>
0

> <s_lp_Force_Field>
OPLS_2005

> <r_lp_Energy>
10.1374

> <b_lp_Chiralities_Consistent>
1

> <s_lp_Variant>
AV-unprocessed.smi:705-1

> <Gold.Version>
5.8.1

> <Gold.Id.Protein>
6NUR|6NUR_protein|mol2

> <Gold.PLP.Fitness>
34.3253

> <Gold.PLP.PLP>
-24.1097

> <Gold.PLP.part.hbond>
-4.7182

> <Gold.PLP.part.metal>
0.0000

> <Gold.PLP.part.buried>
0.2641

> <Gold.PLP.part.nonpolar>
-19.6982

> <Gold.PLP.part.repulsive>
0.6053

> <Gold.PLP.ligand.clash>
0.0000

> <Gold.PLP.ligand.torsion>
0.2196

> <Gold.PLP.Chemscore.Hbond>
3.5407

> <Gold.PLP.Chemscore.CHOScore>
0.0000

> <Gold.PLP.Chemscore.Metal>
0.0000

> <Gold.Chemscore.Hbonds>
donor molecule, donor type, donor heavy atom, donor atom, acceptor molecule, acceptor atom, score
      L1  H     1    17       P1  7948  1.00
      L1  H    11    26       P1  7921  0.34
      L1  H    11    29       P1 10186  1.82
      L1  H    14    15       P1 10175  0.12

> <Gold.PLP.Chemscore.Internal.Correction>
0.0328

> <Gold.Rescore>
     Score         DG    S(hbond)    S(metal)    S(lipo)     H(rot)  DE(clash)    DE(int)     intcor
     16.87     -17.87       2.71        0.00      50.41       1.00       0.74       0.26       ----

> <Gold.Chemscore.Fitness>
16.8672

> <Gold.Chemscore.DG>
-17.8733

> <Gold.Chemscore.ZeroCoef>
-5.4800

> <Gold.Chemscore.Hbond>
2.7113

> <Gold.Chemscore.Metal>
0.0000

> <Gold.Chemscore.Lipo>
50.4055

> <Gold.Chemscore.Internal_Hbond>
0.0000

> <Gold.Chemscore.DEClash>
0.7424

> <Gold.Chemscore.DEInternal>
0.2637

> <Gold.Chemscore.Rot>
1.0000

> <Gold.Chemscore.Internal.Correction>
   9.000000E+99

> <Gold.Chemscore.Hbonds>
donor molecule, donor type, donor heavy atom, donor atom, acceptor molecule, acceptor atom, score
      L1  H     1    17       P1  7948  0.98
      L1  H    11    26       P1  7921  0.34
      L1  H    11    29       P1 10186  0.87
      L1  H    14    15       P1 10175  0.13

> <Gold.Chemscore.Hbond.Weighted>
-9.0558

> <Gold.Chemscore.Metal.Weighted>
-0.0000

> <Gold.Chemscore.Lipo.Weighted>
-5.8974

> <Gold.Chemscore.Internal_Hbond.Weighted>
0.0000

> <Gold.Chemscore.DEClash.Weighted>
0.7424

> <Gold.Chemscore.DEInternal.Weighted>
0.2637

> <Gold.Chemscore.Rot.Weighted>
2.5600

> <Gold.Chemscore.Internal.Correction.Weighted>
   9.000000E+99

> <Gold.Protein.RotatedTorsions>
[ 6907 6896 6895 6894 ] final  -26.30 input  -60.11 | X-H torsion
[ 7974 7965 7964 7962 ] final -131.90 input  175.53 | X-H torsion
[ 8008 7997 7996 7995 ] final -127.48 input   59.86 | X-H torsion
[ 10167 10162 10161 10158 ] final  177.19 input  -65.29 | X-H torsion
[ 10718 10713 10712 10709 ] final  -51.43 input   66.30 | X-H torsion
[ 10763 10752 10751 10750 ] final  -14.09 input  -60.55 | X-H torsion
[ 11005 11000 10999 10996 ] final -167.88 input  -57.11 | X-H torsion

> <Gold.Protein.ActiveResidues>
 VAL166  LYS551  ARG553  GLY616  TRP617  ASP618  TYR619  PRO620  LYS621  CYS622 
 ASP623  PHE694  ASN695  SER759  ASP760  ASP761  ALA762  ILE779  LEU786  VAL792 
 PHE793  MET794  SER795  GLU796  ALA797  LYS798  CYS799  TRP800  GLU811  SER814 

> <Gold.Protein.RotatedAtoms>
  151.1630  135.0282  159.8718 H   0  0  0  0  0  0  0  0  0  0  0  0  # atno 6907 bound_to 6896
  152.5451  134.1258  159.8428 H   0  0  0  0  0  0  0  0  0  0  0  0  # atno 6908 bound_to 6896
  151.1355  133.4961  159.2630 H   0  0  0  0  0  0  0  0  0  0  0  0  # atno 6909 bound_to 6896
  144.9335  140.7156  143.4891 H   0  0  0  0  0  0  0  0  0  0  0  0  # atno 7974 bound_to 7965
  155.2468  140.0431  157.2982 H   0  0  0  0  0  0  0  0  0  0  0  0  # atno 8008 bound_to 7997
  154.5794  140.2396  155.8046 H   0  0  0  0  0  0  0  0  0  0  0  0  # atno 8009 bound_to 7997
  156.2181  140.2978  155.9896 H   0  0  0  0  0  0  0  0  0  0  0  0  # atno 8010 bound_to 7997
  139.5244  144.2827  152.0533 H   0  0  0  0  0  0  0  0  0  0  0  0  # atno 10167 bound_to 10162
  156.1711  130.4149  149.9646 H   0  0  0  0  0  0  0  0  0  0  0  0  # atno 10718 bound_to 10713
  153.5231  135.7015  153.5721 H   0  0  0  0  0  0  0  0  0  0  0  0  # atno 10763 bound_to 10752
  153.3761  135.3932  155.1823 H   0  0  0  0  0  0  0  0  0  0  0  0  # atno 10764 bound_to 10752
  154.8692  135.3824  154.4722 H   0  0  0  0  0  0  0  0  0  0  0  0  # atno 10765 bound_to 10752
  140.5483  134.5454  157.5116 H   0  0  0  0  0  0  0  0  0  0  0  0  # atno 11005 bound_to 11000
  145.3103  139.1821  143.4642 LP  0  0  0  0  0  0  0  0  0  0  0  0  # atno 17320 bound_to 7965
  146.3257  140.3107  142.8626 LP  0  0  0  0  0  0  0  0  0  0  0  0  # atno 17321 bound_to 7965
  140.2281  144.4397  150.6312 LP  0  0  0  0  0  0  0  0  0  0  0  0  # atno 17342 bound_to 10162
  140.6374  143.2197  151.6366 LP  0  0  0  0  0  0  0  0  0  0  0  0  # atno 17343 bound_to 10162
  156.7446  130.9092  151.3634 LP  0  0  0  0  0  0  0  0  0  0  0  0  # atno 17370 bound_to 10713
  157.6803  130.9134  150.0251 LP  0  0  0  0  0  0  0  0  0  0  0  0  # atno 17371 bound_to 10713
  139.9468  134.7687  156.0542 LP  0  0  0  0  0  0  0  0  0  0  0  0  # atno 17394 bound_to 11000
  141.1187  133.6619  156.3159 LP  0  0  0  0  0  0  0  0  0  0  0  0  # atno 17395 bound_to 11000

$$$$
