AV-unprocessed.smi:1737|AV-procd|sdf|6995|dock1
  -GOLD-   22720 8203D 1   1.00000     0.00000
 Structure written by MMmdl.
 43 44  0  0  0  0  0  0  0  0  2 V2000
  145.2507  135.5445  150.9968 C   0  0  0  0  0  0  0  0  0  0  0  0
  145.1810  134.0320  150.8621 C   0  0  0  0  0  0  0  0  0  0  0  0
  144.1035  133.4505  150.1604 C   0  0  0  0  0  0  0  0  0  0  0  0
  144.0408  132.0522  150.0354 C   0  0  0  0  0  0  0  0  0  0  0  0
  145.0652  131.2893  150.6215 C   0  0  0  0  0  0  0  0  0  0  0  0
  146.0986  131.8364  151.2937 N   0  0  0  0  0  0  0  0  0  0  0  0
  146.1744  133.1848  151.4229 C   0  0  0  0  0  0  0  0  0  0  0  0
  147.2327  133.8297  152.1236 N   0  0  0  0  0  0  0  0  0  0  0  0
  147.8448  133.4388  153.2553 C   0  0  0  0  0  0  0  0  0  0  0  0
  147.6057  132.4030  153.8770 O   0  0  0  0  0  0  0  0  0  0  0  0
  148.7716  134.3279  153.6408 N   0  0  0  0  0  0  0  0  0  0  0  0
  149.6097  134.1888  154.8283 C   0  0  0  0  0  0  0  0  0  0  0  0
  150.7516  135.2383  154.8958 C   0  0  2  0  0  0  0  0  0  0  0  0
  151.5072  135.1160  156.2413 C   0  0  0  0  0  0  0  0  0  0  0  0
  150.2086  136.6114  154.6353 N   0  3  0  0  0  0  0  0  0  0  0  0
  149.0197  137.0000  155.4436 C   0  0  0  0  0  0  0  0  0  0  0  0
  148.5325  138.4107  155.0693 C   0  0  0  0  0  0  0  0  0  0  0  0
  149.5866  139.3476  155.2341 O   0  0  0  0  0  0  0  0  0  0  0  0
  150.6866  139.0482  154.3878 C   0  0  0  0  0  0  0  0  0  0  0  0
  151.2522  137.6666  154.7536 C   0  0  0  0  0  0  0  0  0  0  0  0
  144.3923  136.0251  150.5267 H   0  0  0  0  0  0  0  0  0  0  0  0
  146.1529  135.9279  150.5191 H   0  0  0  0  0  0  0  0  0  0  0  0
  145.2630  135.8355  152.0477 H   0  0  0  0  0  0  0  0  0  0  0  0
  143.3318  134.0665  149.7222 H   0  0  0  0  0  0  0  0  0  0  0  0
  143.2290  131.5772  149.5050 H   0  0  0  0  0  0  0  0  0  0  0  0
  145.0551  130.2116  150.5508 H   0  0  0  0  0  0  0  0  0  0  0  0
  147.5530  134.6961  151.7171 H   0  0  0  0  0  0  0  0  0  0  0  0
  148.9096  135.1529  153.0752 H   0  0  0  0  0  0  0  0  0  0  0  0
  148.9604  134.2330  155.7018 H   0  0  0  0  0  0  0  0  0  0  0  0
  150.0343  133.1843  154.8215 H   0  0  0  0  0  0  0  0  0  0  0  0
  151.4784  135.0234  154.1107 H   0  0  0  0  0  0  0  0  0  0  0  0
  151.8649  134.1008  156.4118 H   0  0  0  0  0  0  0  0  0  0  0  0
  150.8685  135.3823  157.0841 H   0  0  0  0  0  0  0  0  0  0  0  0
  152.3949  135.7478  156.2707 H   0  0  0  0  0  0  0  0  0  0  0  0
  148.1908  136.3134  155.2733 H   0  0  0  0  0  0  0  0  0  0  0  0
  149.2683  136.9593  156.5055 H   0  0  0  0  0  0  0  0  0  0  0  0
  148.1646  138.4359  154.0423 H   0  0  0  0  0  0  0  0  0  0  0  0
  147.7004  138.7014  155.7109 H   0  0  0  0  0  0  0  0  0  0  0  0
  150.3816  139.0822  153.3406 H   0  0  0  0  0  0  0  0  0  0  0  0
  151.4512  139.8138  154.5215 H   0  0  0  0  0  0  0  0  0  0  0  0
  151.6358  137.6866  155.7749 H   0  0  0  0  0  0  0  0  0  0  0  0
  152.1009  137.4579  154.1053 H   0  0  0  0  0  0  0  0  0  0  0  0
  149.8977  136.6124  153.6743 H   0  0  0  0  0  0  0  0  0  0  0  0
  1  2  1  0  0  0  0
  1 21  1  0  0  0  0
  1 22  1  0  0  0  0
  1 23  1  0  0  0  0
  2  7  1  0  0  0  0
  2  3  2  0  0  0  0
  3  4  1  0  0  0  0
  3 24  1  0  0  0  0
  4  5  2  0  0  0  0
  4 25  1  0  0  0  0
  5  6  1  0  0  0  0
  5 26  1  0  0  0  0
  6  7  2  0  0  0  0
  7  8  1  0  0  0  0
  8  9  1  0  0  0  0
  8 27  1  0  0  0  0
  9 10  2  0  0  0  0
  9 11  1  0  0  0  0
 11 12  1  0  0  0  0
 11 28  1  0  0  0  0
 12 13  1  0  0  0  0
 12 29  1  0  0  0  0
 12 30  1  0  0  0  0
 13 14  1  0  0  0  0
 13 15  1  0  0  0  0
 13 31  1  0  0  0  0
 14 32  1  0  0  0  0
 14 33  1  0  0  0  0
 14 34  1  0  0  0  0
 15 20  1  0  0  0  0
 15 16  1  0  0  0  0
 15 43  1  0  0  0  0
 16 17  1  0  0  0  0
 16 35  1  0  0  0  0
 16 36  1  0  0  0  0
 17 18  1  0  0  0  0
 17 37  1  0  0  0  0
 17 38  1  0  0  0  0
 18 19  1  0  0  0  0
 19 20  1  0  0  0  0
 19 39  1  0  0  0  0
 19 40  1  0  0  0  0
 20 41  1  0  0  0  0
 20 42  1  0  0  0  0
M  CHG  1  15   1
M  END
> <s_m_source_file>
AV-unprocessed.smi

> <i_m_source_file_index>
1737

> <i_lp_mmshare_version>
43012

> <i_f3d_flags>
0

> <s_epik_input>
W0NIM11jMVtjSF1bY0hdW2NIXW5jMVtOSF1DKD1PKVtOSF1bQ0gyXVtDQEhdKFtDSDNdKU4yW0NIMl1bQ0gyXU9bQ0gyXVtDSDJdMg==

> <s_epik_cmdline>
J2VwaWtfcHl0aG9uJywgJy1waCcsICc3LjAnLCAnLXRuJywgJzgnLCAnLW1hJywgJzIwMCcsICctbWV0YWxfYmluZGluZycsICctaW1hZScsICc8aW5maWxlLm1hZT4nLCAnLW9tYWUnLCAnPG91dGZpbGUubWFlPic=

> <r_epik_Ionization_Penalty>
0.602573

> <r_epik_Ionization_Penalty_Charging>
0.602531

> <r_epik_Ionization_Penalty_Neutral>
4.25912e-05

> <r_epik_State_Penalty>
0.617039

> <r_epik_Charging_Adjusted_Penalty>
1.21957

> <i_epik_Tot_Q>
1

> <i_epik_Tot_abs_Q>
1

> <r_epik_Metal_State_Penalty>
0.617042

> <b_epik_Metal_Only>
0

> <s_lp_Force_Field>
OPLS_2005

> <r_lp_Energy>
21.8503

> <b_lp_Chiralities_Consistent>
1

> <s_lp_Variant>
AV-unprocessed.smi:1737-3

> <Gold.Version>
5.8.1

> <Gold.Id.Protein>
6NUR|6NUR_protein|mol2

> <Gold.PLP.Fitness>
44.9035

> <Gold.PLP.PLP>
-33.8748

> <Gold.PLP.part.hbond>
-3.0000

> <Gold.PLP.part.metal>
0.0000

> <Gold.PLP.part.buried>
-3.6865

> <Gold.PLP.part.nonpolar>
-26.7198

> <Gold.PLP.part.repulsive>
0.3356

> <Gold.PLP.ligand.clash>
0.0000

> <Gold.PLP.ligand.torsion>
0.4582

> <Gold.PLP.Chemscore.Hbond>
3.9280

> <Gold.PLP.Chemscore.CHOScore>
0.0000

> <Gold.PLP.Chemscore.Metal>
0.0000

> <Gold.Chemscore.Hbonds>
donor molecule, donor type, donor heavy atom, donor atom, acceptor molecule, acceptor atom, score
      L1  H     8    27       P1  7948  0.91
      L1  H    11    28       P1  7948  1.00
      L1  H    15    43       P1  7948  1.95

> <Gold.PLP.Chemscore.Internal.Correction>
0.1612

> <Gold.Rescore>
     Score         DG    S(hbond)    S(metal)    S(lipo)     H(rot)  DE(clash)    DE(int)     intcor
     17.59     -18.39       2.31        0.00      77.40       1.51       0.24       0.56       ----

> <Gold.Chemscore.Fitness>
17.5875

> <Gold.Chemscore.DG>
-18.3926

> <Gold.Chemscore.ZeroCoef>
-5.4800

> <Gold.Chemscore.Hbond>
2.3142

> <Gold.Chemscore.Metal>
0.0000

> <Gold.Chemscore.Lipo>
77.4012

> <Gold.Chemscore.Internal_Hbond>
0.0000

> <Gold.Chemscore.DEClash>
0.2435

> <Gold.Chemscore.DEInternal>
0.5616

> <Gold.Chemscore.Rot>
1.5128

> <Gold.Chemscore.Internal.Correction>
   9.000000E+99

> <Gold.Chemscore.Hbonds>
donor molecule, donor type, donor heavy atom, donor atom, acceptor molecule, acceptor atom, score
      L1  H     8    27       P1  7948  0.37
      L1  H    11    28       P1  7948  0.34
      L1  H    15    43       P1  7948  0.27

> <Gold.Chemscore.Hbond.Weighted>
-7.7293

> <Gold.Chemscore.Metal.Weighted>
-0.0000

> <Gold.Chemscore.Lipo.Weighted>
-9.0559

> <Gold.Chemscore.Internal_Hbond.Weighted>
0.0000

> <Gold.Chemscore.DEClash.Weighted>
0.2435

> <Gold.Chemscore.DEInternal.Weighted>
0.5616

> <Gold.Chemscore.Rot.Weighted>
3.8726

> <Gold.Chemscore.Internal.Correction.Weighted>
   9.000000E+99

> <Gold.Protein.RotatedTorsions>
[ 6907 6896 6895 6894 ] final    2.50 input  -60.11 | X-H torsion
[ 7974 7965 7964 7962 ] final -125.22 input  175.53 | X-H torsion
[ 8008 7997 7996 7995 ] final -121.02 input   59.86 | X-H torsion
[ 10167 10162 10161 10158 ] final  -17.20 input  -65.29 | X-H torsion
[ 10718 10713 10712 10709 ] final   -1.56 input   66.30 | X-H torsion
[ 10763 10752 10751 10750 ] final  104.01 input  -60.55 | X-H torsion
[ 11005 11000 10999 10996 ] final   96.64 input  -57.11 | X-H torsion

> <Gold.Protein.ActiveResidues>
 VAL166  LYS551  ARG553  GLY616  TRP617  ASP618  TYR619  PRO620  LYS621  CYS622 
 ASP623  PHE694  ASN695  SER759  ASP760  ASP761  ALA762  ILE779  LEU786  VAL792 
 PHE793  MET794  SER795  GLU796  ALA797  LYS798  CYS799  TRP800  GLU811  SER814 

> <Gold.Protein.RotatedAtoms>
  151.6099  135.1041  160.0078 H   0  0  0  0  0  0  0  0  0  0  0  0  # atno 6907 bound_to 6896
  152.4214  133.7118  159.6494 H   0  0  0  0  0  0  0  0  0  0  0  0  # atno 6908 bound_to 6896
  150.8101  133.8364  159.3208 H   0  0  0  0  0  0  0  0  0  0  0  0  # atno 6909 bound_to 6896
  144.9998  140.7810  143.4503 H   0  0  0  0  0  0  0  0  0  0  0  0  # atno 7974 bound_to 7965
  155.1413  140.0402  157.2799 H   0  0  0  0  0  0  0  0  0  0  0  0  # atno 8008 bound_to 7997
  154.6471  140.2560  155.7229 H   0  0  0  0  0  0  0  0  0  0  0  0  # atno 8009 bound_to 7997
  156.2560  140.2844  156.0889 H   0  0  0  0  0  0  0  0  0  0  0  0  # atno 8010 bound_to 7997
  140.7244  143.5040  150.9834 H   0  0  0  0  0  0  0  0  0  0  0  0  # atno 10167 bound_to 10162
  156.8037  130.5401  149.5718 H   0  0  0  0  0  0  0  0  0  0  0  0  # atno 10718 bound_to 10713
  153.3602  135.3957  155.1712 H   0  0  0  0  0  0  0  0  0  0  0  0  # atno 10763 bound_to 10752
  154.8678  135.3677  154.5109 H   0  0  0  0  0  0  0  0  0  0  0  0  # atno 10764 bound_to 10752
  153.5568  135.7082  153.5626 H   0  0  0  0  0  0  0  0  0  0  0  0  # atno 10765 bound_to 10752
  139.8780  134.8961  156.4189 H   0  0  0  0  0  0  0  0  0  0  0  0  # atno 11005 bound_to 11000
  145.2169  139.2178  143.5114 LP  0  0  0  0  0  0  0  0  0  0  0  0  # atno 17320 bound_to 7965
  146.3449  140.2018  142.8589 LP  0  0  0  0  0  0  0  0  0  0  0  0  # atno 17321 bound_to 7965
  139.8750  143.7144  152.3163 LP  0  0  0  0  0  0  0  0  0  0  0  0  # atno 17342 bound_to 10162
  139.7406  144.7560  151.0658 LP  0  0  0  0  0  0  0  0  0  0  0  0  # atno 17343 bound_to 10162
  156.1085  130.6023  151.0010 LP  0  0  0  0  0  0  0  0  0  0  0  0  # atno 17370 bound_to 10713
  157.6541  131.0892  150.7987 LP  0  0  0  0  0  0  0  0  0  0  0  0  # atno 17371 bound_to 10713
  140.9148  133.7686  155.9835 LP  0  0  0  0  0  0  0  0  0  0  0  0  # atno 17394 bound_to 11000
  140.8506  134.2958  157.5277 LP  0  0  0  0  0  0  0  0  0  0  0  0  # atno 17395 bound_to 11000

$$$$
