AV-unprocessed.smi:634|AV-procd|sdf|3138|dock1
  -GOLD-   22720 0 63D 1   1.00000     0.00000
 Structure written by MMmdl.
 32 33  0  0  0  0  0  0  0  0  2 V2000
  151.9846  144.9666  158.8064 C   0  0  0  0  0  0  0  0  0  0  0  0
  152.2439  143.8202  159.7223 C   0  0  0  0  0  0  0  0  0  0  0  0
  153.1773  142.8223  159.7217 C   0  0  0  0  0  0  0  0  0  0  0  0
  152.8458  142.0714  160.8810 C   0  0  0  0  0  0  0  0  0  0  0  0
  153.5966  140.9198  161.2358 N   0  0  0  0  0  0  0  0  0  0  0  0
  154.4092  140.1732  160.4665 C   0  0  0  0  0  0  0  0  0  0  0  0
  154.5561  140.4407  159.2693 O   0  0  0  0  0  0  0  0  0  0  0  0
  154.9913  139.1593  161.1671 N   0  5  0  0  0  0  0  0  0  0  0  0
  154.5255  137.7664  161.2991 C   0  0  2  0  0  0  0  0  0  0  0  0
  153.2083  137.6631  160.5020 C   0  0  0  0  0  0  0  0  0  0  0  0
  154.2645  137.3784  162.7803 C   0  0  0  0  0  0  0  0  0  0  0  0
  154.1382  135.8508  162.8944 C   0  0  0  0  0  0  0  0  0  0  0  0
  155.2006  135.1539  161.5703 S   0  0  0  0  0  0  0  0  0  0  0  0
  156.4422  134.6299  162.1606 O   0  0  0  0  0  0  0  0  0  0  0  0
  154.3748  134.3125  160.6895 O   0  0  0  0  0  0  0  0  0  0  0  0
  155.5552  136.7556  160.7426 C   0  0  0  0  0  0  0  0  0  0  0  0
  151.8045  142.5695  161.5317 N   0  0  0  0  0  0  0  0  0  0  0  0
  151.4141  143.6925  160.7930 O   0  0  0  0  0  0  0  0  0  0  0  0
  152.5313  144.8487  157.8708 H   0  0  0  0  0  0  0  0  0  0  0  0
  152.2968  145.9048  159.2653 H   0  0  0  0  0  0  0  0  0  0  0  0
  150.9233  145.0413  158.5695 H   0  0  0  0  0  0  0  0  0  0  0  0
  153.9679  142.6555  159.0051 H   0  0  0  0  0  0  0  0  0  0  0  0
  153.5243  140.6314  162.2000 H   0  0  0  0  0  0  0  0  0  0  0  0
  152.7922  136.6560  160.5265 H   0  0  0  0  0  0  0  0  0  0  0  0
  153.3570  137.9233  159.4531 H   0  0  0  0  0  0  0  0  0  0  0  0
  152.4485  138.3367  160.9005 H   0  0  0  0  0  0  0  0  0  0  0  0
  155.1046  137.6785  163.4060 H   0  0  0  0  0  0  0  0  0  0  0  0
  153.3864  137.8809  163.1875 H   0  0  0  0  0  0  0  0  0  0  0  0
  154.4591  135.4762  163.8663 H   0  0  0  0  0  0  0  0  0  0  0  0
  153.1132  135.5212  162.7203 H   0  0  0  0  0  0  0  0  0  0  0  0
  155.5030  136.6374  159.6603 H   0  0  0  0  0  0  0  0  0  0  0  0
  156.5796  137.0226  160.9993 H   0  0  0  0  0  0  0  0  0  0  0  0
  1  2  1  0  0  0  0
  1 19  1  0  0  0  0
  1 20  1  0  0  0  0
  1 21  1  0  0  0  0
  2 18  1  0  0  0  0
  2  3  2  0  0  0  0
  3  4  1  0  0  0  0
  3 22  1  0  0  0  0
  4  5  1  0  0  0  0
  4 17  2  0  0  0  0
  5  6  1  0  0  0  0
  5 23  1  0  0  0  0
  6  7  2  0  0  0  0
  6  8  1  0  0  0  0
  8  9  1  0  0  0  0
  9 16  1  0  0  0  0
  9 10  1  0  0  0  0
  9 11  1  0  0  0  0
 10 24  1  0  0  0  0
 10 25  1  0  0  0  0
 10 26  1  0  0  0  0
 11 12  1  0  0  0  0
 11 27  1  0  0  0  0
 11 28  1  0  0  0  0
 12 13  1  0  0  0  0
 12 29  1  0  0  0  0
 12 30  1  0  0  0  0
 13 14  2  0  0  0  0
 13 15  2  0  0  0  0
 13 16  1  0  0  0  0
 16 31  1  0  0  0  0
 16 32  1  0  0  0  0
 17 18  1  0  0  0  0
M  CHG  1   8  -1
M  END
> <s_m_source_file>
AV-unprocessed.smi

> <i_m_source_file_index>
634

> <i_lp_mmshare_version>
43012

> <i_f3d_flags>
0

> <s_epik_input>
W0NIM11jMVtjSF1jKG5vMSlbTkhdQyg9TylbTkhdW0NAQF0yKFtDSDNdKVtDSDJdW0NIMl1TKD1PKSg9TylbQ0gyXTI=

> <s_epik_cmdline>
J2VwaWtfcHl0aG9uJywgJy1waCcsICc3LjAnLCAnLXRuJywgJzgnLCAnLW1hJywgJzIwMCcsICctbWV0YWxfYmluZGluZycsICctaW1hZScsICc8aW5maWxlLm1hZT4nLCAnLW9tYWUnLCAnPG91dGZpbGUubWFlPic=

> <r_lp_tautomer_probability>
1

> <r_epik_Ionization_Penalty>
6.62388

> <r_epik_Ionization_Penalty_Charging>
6.62387

> <r_epik_Ionization_Penalty_Neutral>
5.45748e-06

> <r_epik_State_Penalty>
6.65157

> <r_epik_Charging_Adjusted_Penalty>
13.2754

> <i_epik_Tot_Q>
-1

> <i_epik_Tot_abs_Q>
1

> <r_epik_Metal_State_Penalty>
2.59195

> <b_epik_Metal_Only>
1

> <s_lp_Force_Field>
OPLS_2005

> <r_lp_Energy>
8.10378

> <b_lp_Chiralities_Consistent>
1

> <s_lp_Variant>
AV-unprocessed.smi:634-6

> <Gold.Version>
5.8.1

> <Gold.Id.Protein>
6NUR|6NUR_protein|mol2

> <Gold.PLP.Fitness>
37.4796

> <Gold.PLP.PLP>
-32.8315

> <Gold.PLP.part.hbond>
-3.1015

> <Gold.PLP.part.metal>
0.0000

> <Gold.PLP.part.buried>
-3.6399

> <Gold.PLP.part.nonpolar>
-26.4528

> <Gold.PLP.part.repulsive>
0.2718

> <Gold.PLP.ligand.clash>
0.0000

> <Gold.PLP.ligand.torsion>
0.8291

> <Gold.PLP.Chemscore.Hbond>
2.0930

> <Gold.PLP.Chemscore.CHOScore>
0.0000

> <Gold.PLP.Chemscore.Metal>
0.0000

> <Gold.Chemscore.Hbonds>
donor molecule, donor type, donor heavy atom, donor atom, acceptor molecule, acceptor atom, score
      P1  H  6896  6909       L1    15  1.00
      P1  H  6933  6945       L1    17  0.60
      P1  H  7997  8010       L1     7  0.57

> <Gold.PLP.Chemscore.Internal.Correction>
0.0274

> <Gold.Rescore>
     Score         DG    S(hbond)    S(metal)    S(lipo)     H(rot)  DE(clash)    DE(int)     intcor
     15.14     -17.39       1.96        0.00      67.79       1.00       0.00       2.26       ----

> <Gold.Chemscore.Fitness>
15.1365

> <Gold.Chemscore.DG>
-17.3918

> <Gold.Chemscore.ZeroCoef>
-5.4800

> <Gold.Chemscore.Hbond>
1.9583

> <Gold.Chemscore.Metal>
0.0000

> <Gold.Chemscore.Lipo>
67.7880

> <Gold.Chemscore.Internal_Hbond>
0.0000

> <Gold.Chemscore.DEClash>
0.0000

> <Gold.Chemscore.DEInternal>
2.2553

> <Gold.Chemscore.Rot>
1.0000

> <Gold.Chemscore.Internal.Correction>
   9.000000E+99

> <Gold.Chemscore.Hbonds>
donor molecule, donor type, donor heavy atom, donor atom, acceptor molecule, acceptor atom, score
      P1  H  6896  6909       L1    15  0.96
      P1  H  6933  6945       L1    17  0.29
      P1  H  7997  8010       L1     7  0.56

> <Gold.Chemscore.Hbond.Weighted>
-6.5406

> <Gold.Chemscore.Metal.Weighted>
-0.0000

> <Gold.Chemscore.Lipo.Weighted>
-7.9312

> <Gold.Chemscore.Internal_Hbond.Weighted>
0.0000

> <Gold.Chemscore.DEClash.Weighted>
0.0000

> <Gold.Chemscore.DEInternal.Weighted>
2.2553

> <Gold.Chemscore.Rot.Weighted>
2.5600

> <Gold.Chemscore.Internal.Correction.Weighted>
   9.000000E+99

> <Gold.Protein.RotatedTorsions>
[ 6907 6896 6895 6894 ] final -158.98 input  -60.11 | X-H torsion
[ 7974 7965 7964 7962 ] final -155.80 input  175.53 | X-H torsion
[ 8008 7997 7996 7995 ] final  -15.03 input   59.86 | X-H torsion
[ 10167 10162 10161 10158 ] final  168.51 input  -65.29 | X-H torsion
[ 10718 10713 10712 10709 ] final   -3.13 input   66.30 | X-H torsion
[ 10763 10752 10751 10750 ] final  -69.28 input  -60.55 | X-H torsion
[ 11005 11000 10999 10996 ] final -134.10 input  -57.11 | X-H torsion

> <Gold.Protein.ActiveResidues>
 VAL166  LYS551  ARG553  GLY616  TRP617  ASP618  TYR619  PRO620  LYS621  CYS622 
 ASP623  PHE694  ASN695  SER759  ASP760  ASP761  ALA762  ILE779  LEU786  VAL792 
 PHE793  MET794  SER795  GLU796  ALA797  LYS798  CYS799  TRP800  GLU811  SER814 

> <Gold.Protein.RotatedAtoms>
  151.3265  133.4018  159.2658 H   0  0  0  0  0  0  0  0  0  0  0  0  # atno 6907 bound_to 6896
  150.9991  134.9308  159.7954 H   0  0  0  0  0  0  0  0  0  0  0  0  # atno 6908 bound_to 6896
  152.5270  134.3230  159.9207 H   0  0  0  0  0  0  0  0  0  0  0  0  # atno 6909 bound_to 6896
  144.7623  140.4199  143.5967 H   0  0  0  0  0  0  0  0  0  0  0  0  # atno 7974 bound_to 7965
  154.5163  140.2207  155.9060 H   0  0  0  0  0  0  0  0  0  0  0  0  # atno 8008 bound_to 7997
  156.1611  140.3142  155.8774 H   0  0  0  0  0  0  0  0  0  0  0  0  # atno 8009 bound_to 7997
  155.3750  140.0469  157.3035 H   0  0  0  0  0  0  0  0  0  0  0  0  # atno 8010 bound_to 7997
  139.4969  144.3807  151.9625 H   0  0  0  0  0  0  0  0  0  0  0  0  # atno 10167 bound_to 10162
  156.7806  130.5329  149.5751 H   0  0  0  0  0  0  0  0  0  0  0  0  # atno 10718 bound_to 10713
  154.4012  135.6030  153.5898 H   0  0  0  0  0  0  0  0  0  0  0  0  # atno 10763 bound_to 10752
  152.9788  135.5907  154.4182 H   0  0  0  0  0  0  0  0  0  0  0  0  # atno 10764 bound_to 10752
  154.3981  135.2842  155.2092 H   0  0  0  0  0  0  0  0  0  0  0  0  # atno 10765 bound_to 10752
  140.9020  134.1677  157.4453 H   0  0  0  0  0  0  0  0  0  0  0  0  # atno 11005 bound_to 11000
  145.6580  139.1576  143.2824 LP  0  0  0  0  0  0  0  0  0  0  0  0  # atno 17320 bound_to 7965
  146.1698  140.6663  142.9238 LP  0  0  0  0  0  0  0  0  0  0  0  0  # atno 17321 bound_to 7965
  140.3243  144.3391  150.6002 LP  0  0  0  0  0  0  0  0  0  0  0  0  # atno 17342 bound_to 10162
  140.5697  143.2182  151.7621 LP  0  0  0  0  0  0  0  0  0  0  0  0  # atno 17343 bound_to 10162
  156.1220  130.6117  151.0208 LP  0  0  0  0  0  0  0  0  0  0  0  0  # atno 17370 bound_to 10713
  157.6648  131.0874  150.7754 LP  0  0  0  0  0  0  0  0  0  0  0  0  # atno 17371 bound_to 10713
  139.8744  134.9902  156.5491 LP  0  0  0  0  0  0  0  0  0  0  0  0  # atno 17394 bound_to 11000
  140.8217  133.8348  155.8902 LP  0  0  0  0  0  0  0  0  0  0  0  0  # atno 17395 bound_to 11000

$$$$
