AV-unprocessed.smi:46|AV-procd|sdf|421|dock6
  -GOLD-   2262016303D 1   1.00000     0.00000
 Structure written by MMmdl.
 35 36  0  0  0  0  0  0  0  0  2 V2000
  152.4950  144.6945  158.2931 C   0  0  0  0  0  0  0  0  0  0  0  0
  152.0941  143.4633  159.1207 C   0  0  0  0  0  0  0  0  0  0  0  0
  153.2098  143.0260  160.0808 C   0  0  0  0  0  0  0  0  0  0  0  0
  151.6969  142.3604  158.2585 N   0  0  0  0  0  0  0  0  0  0  0  0
  150.6494  142.2967  157.3632 C   0  0  0  0  0  0  0  0  0  0  0  0
  150.6791  141.0630  156.7720 C   0  0  0  0  0  0  0  0  0  0  0  0
  149.7573  140.4571  155.7340 C   0  0  2  0  0  0  0  0  0  0  0  0
  149.4623  141.4032  154.5641 C   0  0  0  0  0  0  0  0  0  0  0  0
  148.3036  142.2179  154.9734 N   0  3  0  0  0  0  0  0  0  0  0  0
  147.6062  141.5104  156.0661 C   0  0  0  0  0  0  0  0  0  0  0  0
  148.3404  140.1753  156.2703 C   0  0  2  0  0  0  0  0  0  0  0  0
  148.2286  139.6319  157.7089 C   0  0  0  0  0  0  0  0  0  0  0  0
  146.8720  139.5445  158.0892 O   0  0  0  0  0  0  0  0  0  0  0  0
  151.8124  140.4445  157.3732 C   0  0  0  0  0  0  0  0  0  0  0  0
  152.4180  141.2201  158.2557 N   0  0  0  0  0  0  0  0  0  0  0  0
  150.1967  139.5338  155.3535 H   0  0  0  0  0  0  0  0  0  0  0  0
  147.8751  139.4543  155.5951 H   0  0  0  0  0  0  0  0  0  0  0  0
  152.7271  145.5402  158.9408 H   0  0  0  0  0  0  0  0  0  0  0  0
  151.6857  145.0011  157.6298 H   0  0  0  0  0  0  0  0  0  0  0  0
  153.3747  144.4982  157.6795 H   0  0  0  0  0  0  0  0  0  0  0  0
  151.2287  143.7435  159.7242 H   0  0  0  0  0  0  0  0  0  0  0  0
  153.4724  143.8314  160.7672 H   0  0  0  0  0  0  0  0  0  0  0  0
  154.1134  142.7417  159.5407 H   0  0  0  0  0  0  0  0  0  0  0  0
  152.8966  142.1713  160.6813 H   0  0  0  0  0  0  0  0  0  0  0  0
  149.9727  143.1271  157.2272 H   0  0  0  0  0  0  0  0  0  0  0  0
  150.3172  142.0126  154.2688 H   0  0  0  0  0  0  0  0  0  0  0  0
  149.1578  140.8197  153.6942 H   0  0  0  0  0  0  0  0  0  0  0  0
  148.6281  143.1088  155.3213 H   0  0  0  0  0  0  0  0  0  0  0  0
  147.6634  142.1292  156.9623 H   0  0  0  0  0  0  0  0  0  0  0  0
  146.5523  141.3625  155.8289 H   0  0  0  0  0  0  0  0  0  0  0  0
  148.7012  138.6547  157.8137 H   0  0  0  0  0  0  0  0  0  0  0  0
  148.7360  140.3033  158.4023 H   0  0  0  0  0  0  0  0  0  0  0  0
  146.3743  140.1668  157.5805 H   0  0  0  0  0  0  0  0  0  0  0  0
  152.2074  139.4548  157.1972 H   0  0  0  0  0  0  0  0  0  0  0  0
  147.6858  142.3643  154.1879 H   0  0  0  0  0  0  0  0  0  0  0  0
  1  2  1  0  0  0  0
  1 18  1  0  0  0  0
  1 19  1  0  0  0  0
  1 20  1  0  0  0  0
  2  3  1  0  0  0  0
  2  4  1  0  0  0  0
  2 21  1  0  0  0  0
  3 22  1  0  0  0  0
  3 23  1  0  0  0  0
  3 24  1  0  0  0  0
  4 15  1  0  0  0  0
  4  5  1  0  0  0  0
  5  6  2  0  0  0  0
  5 25  1  0  0  0  0
  6  7  1  0  0  0  0
  6 14  1  0  0  0  0
  7 16  1  0  0  0  0
  7 11  1  0  0  0  0
  7  8  1  0  0  0  0
  8  9  1  0  0  0  0
  8 26  1  0  0  0  0
  8 27  1  0  0  0  0
  9 10  1  0  0  0  0
  9 28  1  0  0  0  0
  9 35  1  0  0  0  0
 10 11  1  0  0  0  0
 10 29  1  0  0  0  0
 10 30  1  0  0  0  0
 11 17  1  0  0  0  0
 11 12  1  0  0  0  0
 12 13  1  0  0  0  0
 12 31  1  0  0  0  0
 12 32  1  0  0  0  0
 13 33  1  0  0  0  0
 14 15  2  0  0  0  0
 14 34  1  0  0  0  0
M  CHG  1   9   1
M  END
> <s_m_source_file>
AV-unprocessed.smi

> <i_m_source_file_index>
46

> <i_lp_mmshare_version>
43012

> <i_f3d_flags>
0

> <s_epik_input>
W0NIM11bQ0hdKFtDSDNdKW4xW2NIXWMoW2NIXW4xKVtDQEBIXTJbQ0gyXVtOSF1bQ0gyXVtDQEhdMltDSDJdW09IXQ==

> <s_epik_cmdline>
J2VwaWtfcHl0aG9uJywgJy1waCcsICc3LjAnLCAnLXRuJywgJzgnLCAnLW1hJywgJzIwMCcsICctbWV0YWxfYmluZGluZycsICctaW1hZScsICc8aW5maWxlLm1hZT4nLCAnLW9tYWUnLCAnPG91dGZpbGUubWFlPic=

> <r_lp_tautomer_probability>
1

> <r_epik_Ionization_Penalty>
0.000236226

> <r_epik_Ionization_Penalty_Charging>
0.00021985

> <r_epik_Ionization_Penalty_Neutral>
1.63752e-05

> <r_epik_State_Penalty>
-0

> <r_epik_Charging_Adjusted_Penalty>
0.00021985

> <i_epik_Tot_Q>
1

> <i_epik_Tot_abs_Q>
1

> <r_epik_Metal_State_Penalty>
-0

> <b_epik_Metal_Only>
0

> <s_lp_Force_Field>
OPLS_2005

> <r_lp_Energy>
33.6612

> <b_lp_Chiralities_Consistent>
1

> <s_lp_Variant>
AV-unprocessed.smi:46-3

> <Gold.Version>
5.8.1

> <Gold.Id.Protein>
6NUR|6NUR_protein|mol2

> <Gold.PLP.Fitness>
37.3714

> <Gold.PLP.PLP>
-28.9405

> <Gold.PLP.part.hbond>
-2.0000

> <Gold.PLP.part.metal>
0.0000

> <Gold.PLP.part.buried>
-1.8968

> <Gold.PLP.part.nonpolar>
-24.6574

> <Gold.PLP.part.repulsive>
0.1709

> <Gold.PLP.ligand.clash>
0.0000

> <Gold.PLP.ligand.torsion>
0.3131

> <Gold.PLP.Chemscore.Hbond>
2.0000

> <Gold.PLP.Chemscore.CHOScore>
1.0000

> <Gold.PLP.Chemscore.Metal>
0.0000

> <Gold.Chemscore.Hbonds>
donor molecule, donor type, donor heavy atom, donor atom, acceptor molecule, acceptor atom, score
      L1  H     9    28       P1  8028  2.00
      L1  C     5    25       P1  8028  1.00

> <Gold.PLP.Chemscore.Internal.Correction>
0.0571

> <Gold.Rescore>
     Score         DG    S(hbond)    S(metal)    S(lipo)     H(rot)  DE(clash)    DE(int)     intcor
     13.02     -13.25       1.00        0.00      79.43       1.90       0.04       0.20       ----

> <Gold.Chemscore.Fitness>
13.0171

> <Gold.Chemscore.DG>
-13.2506

> <Gold.Chemscore.ZeroCoef>
-5.4800

> <Gold.Chemscore.Hbond>
0.9987

> <Gold.Chemscore.Metal>
0.0000

> <Gold.Chemscore.Lipo>
79.4259

> <Gold.Chemscore.Internal_Hbond>
0.0000

> <Gold.Chemscore.DEClash>
0.0354

> <Gold.Chemscore.DEInternal>
0.1981

> <Gold.Chemscore.Rot>
1.8976

> <Gold.Chemscore.Internal.Correction>
   9.000000E+99

> <Gold.Chemscore.Hbonds>
donor molecule, donor type, donor heavy atom, donor atom, acceptor molecule, acceptor atom, score
      L1  H     9    28       P1  8028  1.00

> <Gold.Chemscore.Hbond.Weighted>
-3.3356

> <Gold.Chemscore.Metal.Weighted>
-0.0000

> <Gold.Chemscore.Lipo.Weighted>
-9.2928

> <Gold.Chemscore.Internal_Hbond.Weighted>
0.0000

> <Gold.Chemscore.DEClash.Weighted>
0.0354

> <Gold.Chemscore.DEInternal.Weighted>
0.1981

> <Gold.Chemscore.Rot.Weighted>
4.8579

> <Gold.Chemscore.Internal.Correction.Weighted>
   9.000000E+99

> <Gold.Protein.RotatedTorsions>
[ 6907 6896 6895 6894 ] final  -44.35 input  -60.11 | X-H torsion
[ 7974 7965 7964 7962 ] final  158.18 input  175.53 | X-H torsion
[ 8008 7997 7996 7995 ] final  -19.96 input   59.86 | X-H torsion
[ 10167 10162 10161 10158 ] final  150.81 input  -65.29 | X-H torsion
[ 10718 10713 10712 10709 ] final  111.31 input   66.30 | X-H torsion
[ 10763 10752 10751 10750 ] final  154.36 input  -60.55 | X-H torsion
[ 11005 11000 10999 10996 ] final -124.79 input  -57.11 | X-H torsion

> <Gold.Protein.ActiveResidues>
 VAL166  LYS551  ARG553  GLY616  TRP617  ASP618  TYR619  PRO620  LYS621  CYS622 
 ASP623  PHE694  ASN695  SER759  ASP760  ASP761  ALA762  ILE779  LEU786  VAL792 
 PHE793  MET794  SER795  GLU796  ALA797  LYS798  CYS799  TRP800  GLU811  SER814 

> <Gold.Protein.RotatedAtoms>
  150.9338  134.8751  159.7567 H   0  0  0  0  0  0  0  0  0  0  0  0  # atno 6907 bound_to 6896
  152.5050  134.4041  159.9436 H   0  0  0  0  0  0  0  0  0  0  0  0  # atno 6908 bound_to 6896
  151.4066  133.3700  159.2773 H   0  0  0  0  0  0  0  0  0  0  0  0  # atno 6909 bound_to 6896
  144.7860  139.7443  143.6240 H   0  0  0  0  0  0  0  0  0  0  0  0  # atno 7974 bound_to 7965
  154.4801  140.2075  155.9783 H   0  0  0  0  0  0  0  0  0  0  0  0  # atno 8008 bound_to 7997
  156.1152  140.3222  155.8098 H   0  0  0  0  0  0  0  0  0  0  0  0  # atno 8009 bound_to 7997
  155.4565  140.0521  157.2986 H   0  0  0  0  0  0  0  0  0  0  0  0  # atno 8010 bound_to 7997
  139.4846  144.5492  151.7430 H   0  0  0  0  0  0  0  0  0  0  0  0  # atno 10167 bound_to 10162
  157.6451  131.0948  150.6730 H   0  0  0  0  0  0  0  0  0  0  0  0  # atno 10718 bound_to 10713
  154.1511  135.2815  155.3135 H   0  0  0  0  0  0  0  0  0  0  0  0  # atno 10763 bound_to 10752
  154.6217  135.5465  153.7585 H   0  0  0  0  0  0  0  0  0  0  0  0  # atno 10764 bound_to 10752
  153.0221  135.6440  154.1655 H   0  0  0  0  0  0  0  0  0  0  0  0  # atno 10765 bound_to 10752
  140.9813  134.0669  157.3762 H   0  0  0  0  0  0  0  0  0  0  0  0  # atno 11005 bound_to 11000
  146.2092  139.5437  142.9692 LP  0  0  0  0  0  0  0  0  0  0  0  0  # atno 17320 bound_to 7965
  145.5920  141.0368  143.2065 LP  0  0  0  0  0  0  0  0  0  0  0  0  # atno 17321 bound_to 7965
  140.5044  144.1121  150.5979 LP  0  0  0  0  0  0  0  0  0  0  0  0  # atno 17342 bound_to 10162
  140.4025  143.2697  151.9931 LP  0  0  0  0  0  0  0  0  0  0  0  0  # atno 17343 bound_to 10162
  156.7049  130.4634  149.5563 LP  0  0  0  0  0  0  0  0  0  0  0  0  # atno 17370 bound_to 10713
  156.1770  130.6474  151.0906 LP  0  0  0  0  0  0  0  0  0  0  0  0  # atno 17371 bound_to 10713
  139.8951  135.0139  156.6986 LP  0  0  0  0  0  0  0  0  0  0  0  0  # atno 17394 bound_to 11000
  140.7182  133.9163  155.8129 LP  0  0  0  0  0  0  0  0  0  0  0  0  # atno 17395 bound_to 11000

$$$$
