AV-unprocessed.smi:113|AV-procd|sdf|1106|dock4
  -GOLD-   2262018223D 1   1.00000     0.00000
 Structure written by MMmdl.
 53 56  0  0  0  0  0  0  0  0  2 V2000
  148.9327  141.7041  154.8592 C   0  0  0  0  0  0  0  0  0  0  0  0
  149.8359  141.4450  156.0463 C   0  0  0  0  0  0  0  0  0  0  0  0
  150.2816  140.1520  156.3820 C   0  0  0  0  0  0  0  0  0  0  0  0
  151.1275  139.9642  157.5033 C   0  0  0  0  0  0  0  0  0  0  0  0
  151.6242  138.5687  157.8958 C   0  0  0  0  0  0  0  0  0  0  0  0
  150.7738  137.4419  157.5390 N   0  0  0  0  0  0  0  0  0  0  0  0
  149.6900  137.1318  158.3958 C   0  0  0  0  0  0  0  0  0  0  0  0
  149.4715  137.7834  159.4193 O   0  0  0  0  0  0  0  0  0  0  0  0
  148.8821  135.9810  157.9851 C   0  0  0  0  0  0  0  0  0  0  0  0
  147.6936  135.5946  158.8513 C   0  0  0  0  0  0  0  0  0  0  0  0
  149.2085  135.2945  156.8636 C   0  0  0  0  0  0  0  0  0  0  0  0
  150.2876  135.6092  156.0519 N   0  0  0  0  0  0  0  0  0  0  0  0
  150.6327  134.7984  154.8169 C   0  0  1  0  0  0  0  0  0  0  0  0
  150.9973  133.3644  155.2023 C   0  0  0  0  0  0  0  0  0  0  0  0
  149.6465  132.6829  155.1421 C   0  0  2  0  0  0  0  0  0  0  0  0
  149.7786  131.2854  154.9754 O   0  0  0  0  0  0  0  0  0  0  0  0
  148.9471  133.4153  153.9821 C   0  0  2  0  0  0  0  0  0  0  0  0
  149.1674  132.8147  152.5789 C   0  0  0  0  0  0  0  0  0  0  0  0
  148.4377  133.5335  151.6066 O   0  0  0  0  0  0  0  0  0  0  0  0
  149.5231  134.7248  153.9690 O   0  0  0  0  0  0  0  0  0  0  0  0
  151.1132  136.7028  156.3843 C   0  0  0  0  0  0  0  0  0  0  0  0
  152.1013  136.9821  155.7009 O   0  0  0  0  0  0  0  0  0  0  0  0
  151.5077  141.1069  158.2596 C   0  0  0  0  0  0  0  0  0  0  0  0
  152.3528  141.0148  159.3914 C   0  0  0  0  0  0  0  0  0  0  0  0
  152.7097  142.1705  160.1137 C   0  0  0  0  0  0  0  0  0  0  0  0
  152.2278  143.4320  159.7180 C   0  0  0  0  0  0  0  0  0  0  0  0
  151.3852  143.5416  158.5964 C   0  0  0  0  0  0  0  0  0  0  0  0
  151.0280  142.3872  157.8716 C   0  0  0  0  0  0  0  0  0  0  0  0
  150.2215  142.4986  156.7947 N   0  3  0  0  0  0  0  0  0  0  0  0
  148.4800  140.7781  154.5031 H   0  0  0  0  0  0  0  0  0  0  0  0
  149.5027  142.1429  154.0400 H   0  0  0  0  0  0  0  0  0  0  0  0
  148.1298  142.3910  155.1288 H   0  0  0  0  0  0  0  0  0  0  0  0
  149.9677  139.3180  155.7722 H   0  0  0  0  0  0  0  0  0  0  0  0
  152.6092  138.3847  157.4638 H   0  0  0  0  0  0  0  0  0  0  0  0
  151.7901  138.5178  158.9731 H   0  0  0  0  0  0  0  0  0  0  0  0
  147.1570  134.7361  158.4463 H   0  0  0  0  0  0  0  0  0  0  0  0
  146.9882  136.4233  158.9233 H   0  0  0  0  0  0  0  0  0  0  0  0
  148.0236  135.3363  159.8580 H   0  0  0  0  0  0  0  0  0  0  0  0
  148.5874  134.4510  156.6045 H   0  0  0  0  0  0  0  0  0  0  0  0
  151.4358  135.3425  154.3172 H   0  0  0  0  0  0  0  0  0  0  0  0
  151.6721  132.9664  154.4430 H   0  0  0  0  0  0  0  0  0  0  0  0
  151.4854  133.3026  156.1757 H   0  0  0  0  0  0  0  0  0  0  0  0
  149.1046  132.8741  156.0691 H   0  0  0  0  0  0  0  0  0  0  0  0
  149.8421  130.8855  155.8296 H   0  0  0  0  0  0  0  0  0  0  0  0
  147.8772  133.5075  154.1738 H   0  0  0  0  0  0  0  0  0  0  0  0
  150.2213  132.8830  152.3081 H   0  0  0  0  0  0  0  0  0  0  0  0
  148.8985  131.7585  152.5476 H   0  0  0  0  0  0  0  0  0  0  0  0
  148.6541  133.1887  150.7536 H   0  0  0  0  0  0  0  0  0  0  0  0
  152.7428  140.0651  159.7247 H   0  0  0  0  0  0  0  0  0  0  0  0
  153.3571  142.0877  160.9749 H   0  0  0  0  0  0  0  0  0  0  0  0
  152.5055  144.3151  160.2748 H   0  0  0  0  0  0  0  0  0  0  0  0
  151.0182  144.5129  158.2975 H   0  0  0  0  0  0  0  0  0  0  0  0
  149.8879  143.4262  156.5333 H   0  0  0  0  0  0  0  0  0  0  0  0
  1  2  1  0  0  0  0
  1 30  1  0  0  0  0
  1 31  1  0  0  0  0
  1 32  1  0  0  0  0
  2 29  1  0  0  0  0
  2  3  2  0  0  0  0
  3  4  1  0  0  0  0
  3 33  1  0  0  0  0
  4  5  1  0  0  0  0
  4 23  2  0  0  0  0
  5  6  1  0  0  0  0
  5 34  1  0  0  0  0
  5 35  1  0  0  0  0
  6 21  1  0  0  0  0
  6  7  1  0  0  0  0
  7  8  2  0  0  0  0
  7  9  1  0  0  0  0
  9 10  1  0  0  0  0
  9 11  2  0  0  0  0
 10 36  1  0  0  0  0
 10 37  1  0  0  0  0
 10 38  1  0  0  0  0
 11 12  1  0  0  0  0
 11 39  1  0  0  0  0
 12 13  1  0  0  0  0
 12 21  1  0  0  0  0
 13 20  1  0  0  0  0
 13 14  1  0  0  0  0
 13 40  1  0  0  0  0
 14 15  1  0  0  0  0
 14 41  1  0  0  0  0
 14 42  1  0  0  0  0
 15 16  1  0  0  0  0
 15 17  1  0  0  0  0
 15 43  1  0  0  0  0
 16 44  1  0  0  0  0
 17 18  1  0  0  0  0
 17 20  1  0  0  0  0
 17 45  1  0  0  0  0
 18 19  1  0  0  0  0
 18 46  1  0  0  0  0
 18 47  1  0  0  0  0
 19 48  1  0  0  0  0
 21 22  2  0  0  0  0
 23 28  1  0  0  0  0
 23 24  1  0  0  0  0
 24 25  2  0  0  0  0
 24 49  1  0  0  0  0
 25 26  1  0  0  0  0
 25 50  1  0  0  0  0
 26 27  2  0  0  0  0
 26 51  1  0  0  0  0
 27 28  1  0  0  0  0
 27 52  1  0  0  0  0
 28 29  2  0  0  0  0
 29 53  1  0  0  0  0
M  CHG  1  29   1
M  END
> <s_m_source_file>
AV-unprocessed.smi

> <i_m_source_file_index>
113

> <i_lp_mmshare_version>
43012

> <i_f3d_flags>
0

> <s_epik_input>
W2NIXTFbY0hdW2NIXVtjSF1jKGMxMiluYyhbQ0gzXSlbY0hdYzJbQ0gyXW4zYyg9TyljKFtDSDNdKVtjSF1uKGMzPU8pW0NAQEhdNFtDSDJdW0NAQEhdKFtPSF0pW0NASF0oTzQpW0NIMl1bT0hd

> <s_epik_cmdline>
J2VwaWtfcHl0aG9uJywgJy1waCcsICc3LjAnLCAnLXRuJywgJzgnLCAnLW1hJywgJzIwMCcsICctbWV0YWxfYmluZGluZycsICctaW1hZScsICc8aW5maWxlLm1hZT4nLCAnLW9tYWUnLCAnPG91dGZpbGUubWFlPic=

> <r_lp_tautomer_probability>
1

> <r_epik_Ionization_Penalty>
0.705471

> <r_epik_Ionization_Penalty_Charging>
0.70547

> <r_epik_Ionization_Penalty_Neutral>
1.19947e-07

> <r_epik_State_Penalty>
0.728574

> <r_epik_Charging_Adjusted_Penalty>
1.43404

> <i_epik_Tot_Q>
1

> <i_epik_Tot_abs_Q>
1

> <r_epik_Metal_State_Penalty>
4.61665

> <b_epik_Metal_Only>
0

> <s_epik_Chemistry_Notes>
This compound contains an acetal/aminal-like group ( X-CH(R)-Y where X, Y are N, S, or O) that may be acid/base labile, releasing an aldehyde.

> <s_lp_Force_Field>
OPLS_2005

> <r_lp_Energy>
45.4749

> <b_lp_Chiralities_Consistent>
1

> <s_lp_Variant>
AV-unprocessed.smi:113-16

> <Gold.Version>
5.8.1

> <Gold.Id.Protein>
6NUR|6NUR_protein|mol2

> <Gold.PLP.Fitness>
58.0030

> <Gold.PLP.PLP>
-47.4306

> <Gold.PLP.part.hbond>
-4.9655

> <Gold.PLP.part.metal>
0.0000

> <Gold.PLP.part.buried>
-4.6522

> <Gold.PLP.part.nonpolar>
-37.4814

> <Gold.PLP.part.repulsive>
0.2810

> <Gold.PLP.ligand.clash>
0.0000

> <Gold.PLP.ligand.torsion>
0.7230

> <Gold.PLP.Chemscore.Hbond>
4.0000

> <Gold.PLP.Chemscore.CHOScore>
0.0000

> <Gold.PLP.Chemscore.Metal>
0.0000

> <Gold.Chemscore.Hbonds>
donor molecule, donor type, donor heavy atom, donor atom, acceptor molecule, acceptor atom, score
      L1  H    19    48       P1 10747  0.07
      L1  H    29    53       P1  8028  2.00
      P1  H 10752 10764       L1    22  0.98

> <Gold.PLP.Chemscore.Internal.Correction>
0.0185

> <Gold.Rescore>
     Score         DG    S(hbond)    S(metal)    S(lipo)     H(rot)  DE(clash)    DE(int)     intcor
     20.78     -21.39       2.98        0.00     116.88       3.01       0.02       0.60       ----

> <Gold.Chemscore.Fitness>
20.7751

> <Gold.Chemscore.DG>
-21.3919

> <Gold.Chemscore.ZeroCoef>
-5.4800

> <Gold.Chemscore.Hbond>
2.9782

> <Gold.Chemscore.Metal>
0.0000

> <Gold.Chemscore.Lipo>
116.8847

> <Gold.Chemscore.Internal_Hbond>
0.0000

> <Gold.Chemscore.DEClash>
0.0174

> <Gold.Chemscore.DEInternal>
0.5995

> <Gold.Chemscore.Rot>
3.0120

> <Gold.Chemscore.Internal.Correction>
   9.000000E+99

> <Gold.Chemscore.Hbonds>
donor molecule, donor type, donor heavy atom, donor atom, acceptor molecule, acceptor atom, score
      L1  H    19    48       P1 10747  0.08
      L1  H    29    53       P1  8028  0.99
      P1  H 10752 10764       L1    22  0.89

> <Gold.Chemscore.Hbond.Weighted>
-9.9472

> <Gold.Chemscore.Metal.Weighted>
-0.0000

> <Gold.Chemscore.Lipo.Weighted>
-13.6755

> <Gold.Chemscore.Internal_Hbond.Weighted>
0.0000

> <Gold.Chemscore.DEClash.Weighted>
0.0174

> <Gold.Chemscore.DEInternal.Weighted>
0.5995

> <Gold.Chemscore.Rot.Weighted>
7.7108

> <Gold.Chemscore.Internal.Correction.Weighted>
   9.000000E+99

> <Gold.Protein.RotatedTorsions>
[ 6907 6896 6895 6894 ] final -129.34 input  -60.11 | X-H torsion
[ 7974 7965 7964 7962 ] final  -57.92 input  175.53 | X-H torsion
[ 8008 7997 7996 7995 ] final  100.77 input   59.86 | X-H torsion
[ 10167 10162 10161 10158 ] final  -10.97 input  -65.29 | X-H torsion
[ 10718 10713 10712 10709 ] final   42.57 input   66.30 | X-H torsion
[ 10763 10752 10751 10750 ] final  -41.28 input  -60.55 | X-H torsion
[ 11005 11000 10999 10996 ] final -148.00 input  -57.11 | X-H torsion

> <Gold.Protein.ActiveResidues>
 VAL166  LYS551  ARG553  GLY616  TRP617  ASP618  TYR619  PRO620  LYS621  CYS622 
 ASP623  PHE694  ASN695  SER759  ASP760  ASP761  ALA762  ILE779  LEU786  VAL792 
 PHE793  MET794  SER795  GLU796  ALA797  LYS798  CYS799  TRP800  GLU811  SER814 

> <Gold.Protein.RotatedAtoms>
  150.9277  133.6804  159.2817 H   0  0  0  0  0  0  0  0  0  0  0  0  # atno 6907 bound_to 6896
  151.4237  135.1000  159.9631 H   0  0  0  0  0  0  0  0  0  0  0  0  # atno 6908 bound_to 6896
  152.5010  133.8722  159.7359 H   0  0  0  0  0  0  0  0  0  0  0  0  # atno 6909 bound_to 6896
  145.8454  140.8389  143.0013 H   0  0  0  0  0  0  0  0  0  0  0  0  # atno 7974 bound_to 7965
  156.1235  140.3208  155.8243 H   0  0  0  0  0  0  0  0  0  0  0  0  # atno 8008 bound_to 7997
  155.4461  140.0529  157.3023 H   0  0  0  0  0  0  0  0  0  0  0  0  # atno 8009 bound_to 7997
  154.4845  140.2067  155.9700 H   0  0  0  0  0  0  0  0  0  0  0  0  # atno 8010 bound_to 7997
  140.7127  143.5690  150.9113 H   0  0  0  0  0  0  0  0  0  0  0  0  # atno 10167 bound_to 10162
  157.4063  130.7888  149.7391 H   0  0  0  0  0  0  0  0  0  0  0  0  # atno 10718 bound_to 10713
  153.9600  135.6740  153.4745 H   0  0  0  0  0  0  0  0  0  0  0  0  # atno 10763 bound_to 10752
  153.0843  135.4907  154.8562 H   0  0  0  0  0  0  0  0  0  0  0  0  # atno 10764 bound_to 10752
  154.7278  135.3131  154.8902 H   0  0  0  0  0  0  0  0  0  0  0  0  # atno 10765 bound_to 10752
  140.7658  134.3245  157.5089 H   0  0  0  0  0  0  0  0  0  0  0  0  # atno 11005 bound_to 11000
  144.6731  140.0874  143.7466 LP  0  0  0  0  0  0  0  0  0  0  0  0  # atno 17320 bound_to 7965
  145.9418  139.2674  143.1264 LP  0  0  0  0  0  0  0  0  0  0  0  0  # atno 17321 bound_to 7965
  139.9416  143.6376  152.3052 LP  0  0  0  0  0  0  0  0  0  0  0  0  # atno 17342 bound_to 10162
  139.6862  144.7651  151.1519 LP  0  0  0  0  0  0  0  0  0  0  0  0  # atno 17343 bound_to 10162
  155.9837  130.3998  150.3348 LP  0  0  0  0  0  0  0  0  0  0  0  0  # atno 17370 bound_to 10713
  157.1481  131.0314  151.2897 LP  0  0  0  0  0  0  0  0  0  0  0  0  # atno 17371 bound_to 10713
  139.8763  134.9230  156.3315 LP  0  0  0  0  0  0  0  0  0  0  0  0  # atno 17394 bound_to 11000
  140.9620  133.7382  156.0414 LP  0  0  0  0  0  0  0  0  0  0  0  0  # atno 17395 bound_to 11000

$$$$
