AV-unprocessed.smi:523|AV-procd|sdf|2803|dock1
  -GOLD-   2262023273D 1   1.00000     0.00000
 Structure written by MMmdl.
 41 43  0  0  0  0  0  0  0  0  1 V2000
  148.5114  141.3655  154.1418 C   0  0  0  0  0  0  0  0  0  0  0  0
  149.7897  141.7242  154.6340 O   0  0  0  0  0  0  0  0  0  0  0  0
  149.8142  141.8506  156.0466 C   0  0  0  0  0  0  0  0  0  0  0  0
  151.2326  142.2060  156.5131 C   0  0  0  0  0  0  0  0  0  0  0  0
  151.7983  141.1654  157.3702 N   0  0  0  0  0  0  0  0  0  0  0  0
  152.3769  141.2993  158.5954 C   0  0  0  0  0  0  0  0  0  0  0  0
  152.4704  142.5306  159.2447 N   0  0  0  0  0  0  0  0  0  0  0  0
  152.6063  142.7564  160.6809 C   0  0  0  0  0  0  0  0  0  0  0  0
  151.6197  143.8364  161.1600 C   0  0  0  0  0  0  0  0  0  0  0  0
  151.8769  145.0471  160.4575 O   0  0  0  0  0  0  0  0  0  0  0  0
  151.7497  144.8810  159.0496 C   0  0  0  0  0  0  0  0  0  0  0  0
  152.7311  143.7965  158.5684 C   0  0  0  0  0  0  0  0  0  0  0  0
  152.8896  140.1719  159.0951 N   0  0  0  0  0  0  0  0  0  0  0  0
  152.5910  139.2318  158.1216 C   0  0  0  0  0  0  0  0  0  0  0  0
  151.9437  139.8070  157.0761 C   0  0  0  0  0  0  0  0  0  0  0  0
  151.5499  139.0447  155.8817 C   0  0  0  0  0  0  0  0  0  0  0  0
  150.9770  139.5407  154.9143 O   0  0  0  0  0  0  0  0  0  0  0  0
  151.8898  137.7348  155.9501 N   0  0  0  0  0  0  0  0  0  0  0  0
  152.5349  137.0948  156.9720 C   0  0  0  0  0  0  0  0  0  0  0  0
  152.7823  135.8921  156.8859 O   0  0  0  0  0  0  0  0  0  0  0  0
  152.8865  137.8396  158.0684 N   0  0  0  0  0  0  0  0  0  0  0  0
  153.5849  137.2072  159.1891 C   0  0  0  0  0  0  0  0  0  0  0  0
  151.6428  137.1667  155.1528 H   0  0  0  0  0  0  0  0  0  0  0  0
  148.5483  141.2812  153.0558 H   0  0  0  0  0  0  0  0  0  0  0  0
  147.7655  142.1198  154.3958 H   0  0  0  0  0  0  0  0  0  0  0  0
  148.1897  140.4041  154.5439 H   0  0  0  0  0  0  0  0  0  0  0  0
  149.1157  142.6273  156.3617 H   0  0  0  0  0  0  0  0  0  0  0  0
  149.4948  140.9174  156.5120 H   0  0  0  0  0  0  0  0  0  0  0  0
  151.8732  142.3730  155.6523 H   0  0  0  0  0  0  0  0  0  0  0  0
  151.2294  143.1564  157.0419 H   0  0  0  0  0  0  0  0  0  0  0  0
  152.4677  141.8277  161.2325 H   0  0  0  0  0  0  0  0  0  0  0  0
  153.6285  143.0735  160.8918 H   0  0  0  0  0  0  0  0  0  0  0  0
  150.5862  143.5235  161.0052 H   0  0  0  0  0  0  0  0  0  0  0  0
  151.7442  144.0145  162.2281 H   0  0  0  0  0  0  0  0  0  0  0  0
  150.7221  144.6167  158.7947 H   0  0  0  0  0  0  0  0  0  0  0  0
  151.9666  145.8301  158.5595 H   0  0  0  0  0  0  0  0  0  0  0  0
  153.7612  144.1039  158.7532 H   0  0  0  0  0  0  0  0  0  0  0  0
  152.6305  143.6638  157.4907 H   0  0  0  0  0  0  0  0  0  0  0  0
  153.0329  136.3377  159.5492 H   0  0  0  0  0  0  0  0  0  0  0  0
  153.7128  137.8800  160.0367 H   0  0  0  0  0  0  0  0  0  0  0  0
  154.5767  136.8760  158.8781 H   0  0  0  0  0  0  0  0  0  0  0  0
  1  2  1  0  0  0  0
  1 24  1  0  0  0  0
  1 25  1  0  0  0  0
  1 26  1  0  0  0  0
  2  3  1  0  0  0  0
  3  4  1  0  0  0  0
  3 27  1  0  0  0  0
  3 28  1  0  0  0  0
  4  5  1  0  0  0  0
  4 29  1  0  0  0  0
  4 30  1  0  0  0  0
  5 15  1  0  0  0  0
  5  6  1  0  0  0  0
  6  7  1  0  0  0  0
  6 13  2  0  0  0  0
  7 12  1  0  0  0  0
  7  8  1  0  0  0  0
  8  9  1  0  0  0  0
  8 31  1  0  0  0  0
  8 32  1  0  0  0  0
  9 10  1  0  0  0  0
  9 33  1  0  0  0  0
  9 34  1  0  0  0  0
 10 11  1  0  0  0  0
 11 12  1  0  0  0  0
 11 35  1  0  0  0  0
 11 36  1  0  0  0  0
 12 37  1  0  0  0  0
 12 38  1  0  0  0  0
 13 14  1  0  0  0  0
 14 21  1  0  0  0  0
 14 15  2  0  0  0  0
 15 16  1  0  0  0  0
 16 17  2  0  0  0  0
 16 18  1  0  0  0  0
 18 23  1  0  0  0  0
 18 19  1  0  0  0  0
 19 20  2  0  0  0  0
 19 21  1  0  0  0  0
 21 22  1  0  0  0  0
 22 39  1  0  0  0  0
 22 40  1  0  0  0  0
 22 41  1  0  0  0  0
M  END
> <s_m_source_file>
AV-unprocessed.smi

> <i_m_source_file_index>
523

> <i_lp_mmshare_version>
43012

> <i_f3d_flags>
0

> <s_epik_input>
W0NIM11uMWMoPU8pW25IXWMoPU8pYyhjMTIpbihbQ0gyXVtDSDJdT1tDSDNdKWMobjIpTjNbQ0gyXVtDSDJdT1tDSDJdW0NIMl0z

> <s_epik_cmdline>
J2VwaWtfcHl0aG9uJywgJy1waCcsICc3LjAnLCAnLXRuJywgJzgnLCAnLW1hJywgJzIwMCcsICctbWV0YWxfYmluZGluZycsICctaW1hZScsICc8aW5maWxlLm1hZT4nLCAnLW9tYWUnLCAnPG91dGZpbGUubWFlPic=

> <r_lp_tautomer_probability>
1

> <r_epik_Ionization_Penalty>
0.000208431

> <r_epik_Ionization_Penalty_Charging>
0.000208146

> <r_epik_Ionization_Penalty_Neutral>
2.85359e-07

> <r_epik_State_Penalty>
-0

> <r_epik_Charging_Adjusted_Penalty>
0.000208146

> <i_epik_Tot_Q>
0

> <i_epik_Tot_abs_Q>
0

> <r_epik_Metal_State_Penalty>
0.136977

> <b_epik_Metal_Only>
0

> <s_lp_Force_Field>
OPLS_2005

> <r_lp_Energy>
38.6509

> <b_lp_Chiralities_Consistent>
1

> <s_lp_Variant>
AV-unprocessed.smi:523-1

> <Gold.Version>
5.8.1

> <Gold.Id.Protein>
6NUR|6NUR_protein|mol2

> <Gold.PLP.Fitness>
44.0631

> <Gold.PLP.PLP>
-39.2629

> <Gold.PLP.part.hbond>
-3.9865

> <Gold.PLP.part.metal>
0.0000

> <Gold.PLP.part.buried>
-2.8904

> <Gold.PLP.part.nonpolar>
-31.9990

> <Gold.PLP.part.repulsive>
0.5054

> <Gold.PLP.ligand.clash>
0.0028

> <Gold.PLP.ligand.torsion>
0.8501

> <Gold.PLP.Chemscore.Hbond>
2.0000

> <Gold.PLP.Chemscore.CHOScore>
0.0000

> <Gold.PLP.Chemscore.Metal>
0.0000

> <Gold.Chemscore.Hbonds>
donor molecule, donor type, donor heavy atom, donor atom, acceptor molecule, acceptor atom, score
      P1  H  7989  7998       L1    17  0.96
      P1  H 10752 10763       L1    20  1.00

> <Gold.PLP.Chemscore.Internal.Correction>
0.5032

> <Gold.Rescore>
     Score         DG    S(hbond)    S(metal)    S(lipo)     H(rot)  DE(clash)    DE(int)     intcor
     13.20     -17.64       1.92        0.00      82.85       1.53       0.62       3.82       ----

> <Gold.Chemscore.Fitness>
13.2028

> <Gold.Chemscore.DG>
-17.6436

> <Gold.Chemscore.ZeroCoef>
-5.4800

> <Gold.Chemscore.Hbond>
1.9158

> <Gold.Chemscore.Metal>
0.0000

> <Gold.Chemscore.Lipo>
82.8538

> <Gold.Chemscore.Internal_Hbond>
0.0000

> <Gold.Chemscore.DEClash>
0.6234

> <Gold.Chemscore.DEInternal>
3.8173

> <Gold.Chemscore.Rot>
1.5348

> <Gold.Chemscore.Internal.Correction>
   9.000000E+99

> <Gold.Chemscore.Hbonds>
donor molecule, donor type, donor heavy atom, donor atom, acceptor molecule, acceptor atom, score
      P1  H  7989  7998       L1    17  0.91
      P1  H 10752 10763       L1    20  0.88

> <Gold.Chemscore.Hbond.Weighted>
-6.3987

> <Gold.Chemscore.Metal.Weighted>
-0.0000

> <Gold.Chemscore.Lipo.Weighted>
-9.6939

> <Gold.Chemscore.Internal_Hbond.Weighted>
0.0000

> <Gold.Chemscore.DEClash.Weighted>
0.6234

> <Gold.Chemscore.DEInternal.Weighted>
3.8173

> <Gold.Chemscore.Rot.Weighted>
3.9290

> <Gold.Chemscore.Internal.Correction.Weighted>
   9.000000E+99

> <Gold.Protein.RotatedTorsions>
[ 6907 6896 6895 6894 ] final    0.55 input  -60.11 | X-H torsion
[ 7974 7965 7964 7962 ] final  -75.64 input  175.53 | X-H torsion
[ 8008 7997 7996 7995 ] final   99.24 input   59.86 | X-H torsion
[ 10167 10162 10161 10158 ] final -176.21 input  -65.29 | X-H torsion
[ 10718 10713 10712 10709 ] final  -28.13 input   66.30 | X-H torsion
[ 10763 10752 10751 10750 ] final  110.55 input  -60.55 | X-H torsion
[ 11005 11000 10999 10996 ] final  -73.95 input  -57.11 | X-H torsion

> <Gold.Protein.ActiveResidues>
 VAL166  LYS551  ARG553  GLY616  TRP617  ASP618  TYR619  PRO620  LYS621  CYS622 
 ASP623  PHE694  ASN695  SER759  ASP760  ASP761  ALA762  ILE779  LEU786  VAL792 
 PHE793  MET794  SER795  GLU796  ALA797  LYS798  CYS799  TRP800  GLU811  SER814 

> <Gold.Protein.RotatedAtoms>
  151.5782  135.1059  160.0010 H   0  0  0  0  0  0  0  0  0  0  0  0  # atno 6907 bound_to 6896
  152.4367  133.7369  159.6630 H   0  0  0  0  0  0  0  0  0  0  0  0  # atno 6908 bound_to 6896
  150.8266  133.8092  159.3139 H   0  0  0  0  0  0  0  0  0  0  0  0  # atno 6909 bound_to 6896
  145.6234  140.9357  143.1126 H   0  0  0  0  0  0  0  0  0  0  0  0  # atno 7974 bound_to 7965
  156.1085  140.3231  155.8040 H   0  0  0  0  0  0  0  0  0  0  0  0  # atno 8008 bound_to 7997
  155.4713  140.0547  157.2996 H   0  0  0  0  0  0  0  0  0  0  0  0  # atno 8009 bound_to 7997
  154.4744  140.2026  155.9929 H   0  0  0  0  0  0  0  0  0  0  0  0  # atno 8010 bound_to 7997
  139.5541  144.2033  152.1129 H   0  0  0  0  0  0  0  0  0  0  0  0  # atno 10167 bound_to 10162
  156.4291  130.4441  149.7129 H   0  0  0  0  0  0  0  0  0  0  0  0  # atno 10718 bound_to 10713
  153.4506  135.3745  155.2282 H   0  0  0  0  0  0  0  0  0  0  0  0  # atno 10763 bound_to 10752
  154.8756  135.3885  154.4043 H   0  0  0  0  0  0  0  0  0  0  0  0  # atno 10764 bound_to 10752
  153.4601  135.7086  153.6119 H   0  0  0  0  0  0  0  0  0  0  0  0  # atno 10765 bound_to 10752
  141.1629  133.6895  156.7290 H   0  0  0  0  0  0  0  0  0  0  0  0  # atno 11005 bound_to 11000
  144.7222  139.7993  143.7378 LP  0  0  0  0  0  0  0  0  0  0  0  0  # atno 17320 bound_to 7965
  146.1413  139.4471  143.0107 LP  0  0  0  0  0  0  0  0  0  0  0  0  # atno 17321 bound_to 7965
  140.1534  144.5093  150.6674 LP  0  0  0  0  0  0  0  0  0  0  0  0  # atno 17342 bound_to 10162
  140.6810  143.2327  151.5383 LP  0  0  0  0  0  0  0  0  0  0  0  0  # atno 17343 bound_to 10162
  156.4039  130.7688  151.2698 LP  0  0  0  0  0  0  0  0  0  0  0  0  # atno 17370 bound_to 10713
  157.7508  131.0231  150.3821 LP  0  0  0  0  0  0  0  0  0  0  0  0  # atno 17371 bound_to 10713
  140.2759  134.8355  157.3889 LP  0  0  0  0  0  0  0  0  0  0  0  0  # atno 17394 bound_to 11000
  140.1478  134.4889  155.7983 LP  0  0  0  0  0  0  0  0  0  0  0  0  # atno 17395 bound_to 11000

$$$$
