AV-unprocessed.smi:1513|AV-procd|sdf|6111|dock10
  -GOLD-   22720 6243D 1   1.00000     0.00000
 Structure written by MMmdl.
 33 34  0  0  0  0  0  0  0  0  2 V2000
  153.1511  136.5190  159.1853 N   0  5  0  0  0  0  0  0  0  0  0  0
  154.2597  137.6720  159.3871 S   0  0  0  0  0  0  0  0  0  0  0  0
  155.1670  137.4364  160.5207 O   0  0  0  0  0  0  0  0  0  0  0  0
  154.8357  138.1565  158.1232 O   0  0  0  0  0  0  0  0  0  0  0  0
  153.1631  138.8902  159.9092 N   0  0  0  0  0  0  0  0  0  0  0  0
  152.1369  139.3977  159.0002 C   0  0  0  0  0  0  0  0  0  0  0  0
  152.1276  140.9166  158.9139 C   0  0  0  0  0  0  0  0  0  0  0  0
  152.6808  141.6819  159.9617 C   0  0  0  0  0  0  0  0  0  0  0  0
  152.6739  143.0854  159.8625 C   0  0  0  0  0  0  0  0  0  0  0  0
  152.1114  143.6707  158.7130 C   0  0  0  0  0  0  0  0  0  0  0  0
  151.5775  142.9528  157.7030 N   0  0  0  0  0  0  0  0  0  0  0  0
  151.5817  141.6007  157.7972 C   0  0  0  0  0  0  0  0  0  0  0  0
  151.0064  140.8778  156.7403 N   0  0  0  0  0  0  0  0  0  0  0  0
  150.2360  141.7017  155.8180 C   0  0  0  0  0  0  0  0  0  0  0  0
  149.5013  140.8073  154.8044 C   0  0  0  0  0  0  0  0  0  0  0  0
  150.4407  139.9656  154.1397 O   0  0  0  0  0  0  0  0  0  0  0  0
  151.1311  139.1121  155.0486 C   0  0  0  0  0  0  0  0  0  0  0  0
  151.9150  139.9649  156.0610 C   0  0  0  0  0  0  0  0  0  0  0  0
  152.6716  136.6885  158.2931 H   0  0  0  0  0  0  0  0  0  0  0  0
  152.8778  138.8001  160.8836 H   0  0  0  0  0  0  0  0  0  0  0  0
  152.2918  138.9569  158.0151 H   0  0  0  0  0  0  0  0  0  0  0  0
  151.1547  139.0648  159.3366 H   0  0  0  0  0  0  0  0  0  0  0  0
  153.1065  141.2027  160.8310 H   0  0  0  0  0  0  0  0  0  0  0  0
  153.0903  143.6978  160.6485 H   0  0  0  0  0  0  0  0  0  0  0  0
  152.0887  144.7446  158.6011 H   0  0  0  0  0  0  0  0  0  0  0  0
  149.5180  142.3082  156.3712 H   0  0  0  0  0  0  0  0  0  0  0  0
  150.9030  142.3871  155.2933 H   0  0  0  0  0  0  0  0  0  0  0  0
  148.7405  140.2021  155.2989 H   0  0  0  0  0  0  0  0  0  0  0  0
  148.9871  141.4213  154.0652 H   0  0  0  0  0  0  0  0  0  0  0  0
  150.4226  138.4568  155.5583 H   0  0  0  0  0  0  0  0  0  0  0  0
  151.8126  138.4719  154.4886 H   0  0  0  0  0  0  0  0  0  0  0  0
  152.6928  140.5312  155.5468 H   0  0  0  0  0  0  0  0  0  0  0  0
  152.4084  139.3228  156.7916 H   0  0  0  0  0  0  0  0  0  0  0  0
  1  2  1  0  0  0  0
  1 19  1  0  0  0  0
  2  3  2  0  0  0  0
  2  4  2  0  0  0  0
  2  5  1  0  0  0  0
  5  6  1  0  0  0  0
  5 20  1  0  0  0  0
  6  7  1  0  0  0  0
  6 21  1  0  0  0  0
  6 22  1  0  0  0  0
  7 12  1  0  0  0  0
  7  8  2  0  0  0  0
  8  9  1  0  0  0  0
  8 23  1  0  0  0  0
  9 10  2  0  0  0  0
  9 24  1  0  0  0  0
 10 11  1  0  0  0  0
 10 25  1  0  0  0  0
 11 12  2  0  0  0  0
 12 13  1  0  0  0  0
 13 18  1  0  0  0  0
 13 14  1  0  0  0  0
 14 15  1  0  0  0  0
 14 26  1  0  0  0  0
 14 27  1  0  0  0  0
 15 16  1  0  0  0  0
 15 28  1  0  0  0  0
 15 29  1  0  0  0  0
 16 17  1  0  0  0  0
 17 18  1  0  0  0  0
 17 30  1  0  0  0  0
 17 31  1  0  0  0  0
 18 32  1  0  0  0  0
 18 33  1  0  0  0  0
M  CHG  1   1  -1
M  END
> <s_m_source_file>
AV-unprocessed.smi

> <i_m_source_file_index>
1513

> <i_lp_mmshare_version>
43012

> <i_f3d_flags>
0

> <s_epik_input>
W05IMl1TKD1PKSg9TylbTkhdW0NIMl1jMVtjSF1bY0hdW2NIXW5jMU4yW0NIMl1bQ0gyXU9bQ0gyXVtDSDJdMg==

> <s_epik_cmdline>
J2VwaWtfcHl0aG9uJywgJy1waCcsICc3LjAnLCAnLXRuJywgJzgnLCAnLW1hJywgJzIwMCcsICctbWV0YWxfYmluZGluZycsICctaW1hZScsICc8aW5maWxlLm1hZT4nLCAnLW9tYWUnLCAnPG91dGZpbGUubWFlPic=

> <r_lp_tautomer_probability>
1

> <r_epik_Ionization_Penalty>
2.76303

> <r_epik_Ionization_Penalty_Charging>
2.75358

> <r_epik_Ionization_Penalty_Neutral>
0.00945191

> <r_epik_State_Penalty>
2.93489

> <r_epik_Charging_Adjusted_Penalty>
5.68847

> <i_epik_Tot_Q>
-1

> <i_epik_Tot_abs_Q>
1

> <r_epik_Metal_State_Penalty>
0.838637

> <b_epik_Metal_Only>
1

> <s_lp_Force_Field>
OPLS_2005

> <r_lp_Energy>
17.6636

> <b_lp_Chiralities_Consistent>
1

> <s_lp_Variant>
AV-unprocessed.smi:1513-4

> <Gold.Version>
5.8.1

> <Gold.Id.Protein>
6NUR|6NUR_protein|mol2

> <Gold.PLP.Fitness>
43.2667

> <Gold.PLP.PLP>
-33.2168

> <Gold.PLP.part.hbond>
-3.0000

> <Gold.PLP.part.metal>
0.0000

> <Gold.PLP.part.buried>
-4.5734

> <Gold.PLP.part.nonpolar>
-26.3990

> <Gold.PLP.part.repulsive>
0.5142

> <Gold.PLP.ligand.clash>
0.0000

> <Gold.PLP.ligand.torsion>
0.8576

> <Gold.PLP.Chemscore.Hbond>
3.8640

> <Gold.PLP.Chemscore.CHOScore>
0.0000

> <Gold.PLP.Chemscore.Metal>
0.0000

> <Gold.Chemscore.Hbonds>
donor molecule, donor type, donor heavy atom, donor atom, acceptor molecule, acceptor atom, score
      P1  H  6896  6907       L1     1  2.00
      P1  H  7989  7998       L1    16  1.00
      P1  H  7997  8008       L1     4  0.86

> <Gold.PLP.Chemscore.Internal.Correction>
0.1732

> <Gold.Rescore>
     Score         DG    S(hbond)    S(metal)    S(lipo)     H(rot)  DE(clash)    DE(int)     intcor
     13.35     -15.25       2.24        0.00      72.98       2.45       0.00       1.90       ----

> <Gold.Chemscore.Fitness>
13.3471

> <Gold.Chemscore.DG>
-15.2483

> <Gold.Chemscore.ZeroCoef>
-5.4800

> <Gold.Chemscore.Hbond>
2.2438

> <Gold.Chemscore.Metal>
0.0000

> <Gold.Chemscore.Lipo>
72.9755

> <Gold.Chemscore.Internal_Hbond>
0.0000

> <Gold.Chemscore.DEClash>
0.0015

> <Gold.Chemscore.DEInternal>
1.8997

> <Gold.Chemscore.Rot>
2.4470

> <Gold.Chemscore.Internal.Correction>
   9.000000E+99

> <Gold.Chemscore.Hbonds>
donor molecule, donor type, donor heavy atom, donor atom, acceptor molecule, acceptor atom, score
      P1  H  6896  6907       L1     1  0.40
      P1  H  7989  7998       L1    16  0.33
      P1  H  7997  8008       L1     4  0.80

> <Gold.Chemscore.Hbond.Weighted>
-7.4944

> <Gold.Chemscore.Metal.Weighted>
-0.0000

> <Gold.Chemscore.Lipo.Weighted>
-8.5381

> <Gold.Chemscore.Internal_Hbond.Weighted>
0.0000

> <Gold.Chemscore.DEClash.Weighted>
0.0015

> <Gold.Chemscore.DEInternal.Weighted>
1.8997

> <Gold.Chemscore.Rot.Weighted>
6.2642

> <Gold.Chemscore.Internal.Correction.Weighted>
   9.000000E+99

> <Gold.Protein.RotatedTorsions>
[ 6907 6896 6895 6894 ] final   32.12 input  -60.11 | X-H torsion
[ 7974 7965 7964 7962 ] final -175.72 input  175.53 | X-H torsion
[ 8008 7997 7996 7995 ] final -124.57 input   59.86 | X-H torsion
[ 10167 10162 10161 10158 ] final   94.84 input  -65.29 | X-H torsion
[ 10718 10713 10712 10709 ] final  -19.40 input   66.30 | X-H torsion
[ 10763 10752 10751 10750 ] final   12.00 input  -60.55 | X-H torsion
[ 11005 11000 10999 10996 ] final -149.49 input  -57.11 | X-H torsion

> <Gold.Protein.ActiveResidues>
 VAL166  LYS551  ARG553  GLY616  TRP617  ASP618  TYR619  PRO620  LYS621  CYS622 
 ASP623  PHE694  ASN695  SER759  ASP760  ASP761  ALA762  ILE779  LEU786  VAL792 
 PHE793  MET794  SER795  GLU796  ALA797  LYS798  CYS799  TRP800  GLU811  SER814 

> <Gold.Protein.RotatedAtoms>
  152.0699  134.9540  160.0574 H   0  0  0  0  0  0  0  0  0  0  0  0  # atno 6907 bound_to 6896
  152.0870  133.4176  159.4535 H   0  0  0  0  0  0  0  0  0  0  0  0  # atno 6908 bound_to 6896
  150.6836  134.2836  159.4681 H   0  0  0  0  0  0  0  0  0  0  0  0  # atno 6909 bound_to 6896
  144.7127  140.1278  143.6401 H   0  0  0  0  0  0  0  0  0  0  0  0  # atno 7974 bound_to 7965
  155.1991  140.0415  157.2914 H   0  0  0  0  0  0  0  0  0  0  0  0  # atno 8008 bound_to 7997
  154.6087  140.2471  155.7669 H   0  0  0  0  0  0  0  0  0  0  0  0  # atno 8009 bound_to 7997
  156.2366  140.2919  156.0338 H   0  0  0  0  0  0  0  0  0  0  0  0  # atno 8010 bound_to 7997
  139.8045  144.6800  150.9721 H   0  0  0  0  0  0  0  0  0  0  0  0  # atno 10167 bound_to 10162
  156.5462  130.4690  149.6474 H   0  0  0  0  0  0  0  0  0  0  0  0  # atno 10718 bound_to 10713
  153.1867  135.6836  153.8406 H   0  0  0  0  0  0  0  0  0  0  0  0  # atno 10763 bound_to 10752
  153.7719  135.3195  155.3354 H   0  0  0  0  0  0  0  0  0  0  0  0  # atno 10764 bound_to 10752
  154.8093  135.4728  154.0570 H   0  0  0  0  0  0  0  0  0  0  0  0  # atno 10765 bound_to 10752
  140.7502  134.3415  157.5127 H   0  0  0  0  0  0  0  0  0  0  0  0  # atno 11005 bound_to 11000
  145.9313  139.2608  143.1323 LP  0  0  0  0  0  0  0  0  0  0  0  0  # atno 17320 bound_to 7965
  145.9519  140.8902  143.0254 LP  0  0  0  0  0  0  0  0  0  0  0  0  # atno 17321 bound_to 7965
  140.7819  143.4247  151.0786 LP  0  0  0  0  0  0  0  0  0  0  0  0  # atno 17342 bound_to 10162
  139.7918  143.8208  152.3152 LP  0  0  0  0  0  0  0  0  0  0  0  0  # atno 17343 bound_to 10162
  156.2926  130.7132  151.1985 LP  0  0  0  0  0  0  0  0  0  0  0  0  # atno 17370 bound_to 10713
  157.7396  131.0527  150.5221 LP  0  0  0  0  0  0  0  0  0  0  0  0  # atno 17371 bound_to 10713
  139.8789  134.9137  156.3090 LP  0  0  0  0  0  0  0  0  0  0  0  0  # atno 17394 bound_to 11000
  140.9758  133.7298  156.0600 LP  0  0  0  0  0  0  0  0  0  0  0  0  # atno 17395 bound_to 11000

$$$$
