AV-unprocessed.smi:101|AV-procd|sdf|931|dock7
  -GOLD-   2262017443D 1   1.00000     0.00000
 Structure written by MMmdl.
 43 45  0  0  0  0  0  0  0  0  2 V2000
  148.9868  131.9224  154.6489 C   0  0  0  0  0  0  0  0  0  0  0  0
  149.4379  133.1684  155.3909 C   0  0  0  0  0  0  0  0  0  0  0  0
  149.8548  134.2812  154.7466 C   0  0  0  0  0  0  0  0  0  0  0  0
  150.2502  135.4202  155.4286 N   0  0  0  0  0  0  0  0  0  0  0  0
  150.7013  136.6668  154.6952 C   0  0  2  0  0  0  0  0  0  0  0  0
  151.8609  137.1674  155.2999 O   0  0  0  0  0  0  0  0  0  0  0  0
  151.6749  138.5260  155.6797 C   0  0  2  0  0  0  0  0  0  0  0  0
  152.5239  138.8631  156.9153 C   0  0  0  0  0  0  0  0  0  0  0  0
  152.0066  140.0114  157.5693 O   0  0  0  0  0  0  0  0  0  0  0  0
  152.4566  140.3666  158.7860 C   0  0  0  0  0  0  0  0  0  0  0  0
  152.9067  139.5672  159.6092 O   0  0  0  0  0  0  0  0  0  0  0  0
  152.3527  141.8339  159.0318 C   0  0  0  0  0  0  0  0  0  0  0  0
  152.7313  142.3551  160.2909 C   0  0  0  0  0  0  0  0  0  0  0  0
  152.6421  143.7362  160.5516 C   0  0  0  0  0  0  0  0  0  0  0  0
  152.1750  144.6137  159.5557 C   0  0  0  0  0  0  0  0  0  0  0  0
  151.7994  144.1082  158.2975 C   0  0  0  0  0  0  0  0  0  0  0  0
  151.8871  142.7272  158.0350 C   0  0  0  0  0  0  0  0  0  0  0  0
  150.1633  138.6843  155.8467 C   0  0  1  0  0  0  0  0  0  0  0  0
  149.7262  140.0238  155.7151 O   0  0  0  0  0  0  0  0  0  0  0  0
  149.6183  137.7616  154.7652 C   0  0  1  0  0  0  0  0  0  0  0  0
  149.4697  138.4009  153.5109 O   0  0  0  0  0  0  0  0  0  0  0  0
  150.2200  135.4319  156.8477 C   0  0  0  0  0  0  0  0  0  0  0  0
  150.5730  136.4615  157.4239 O   0  0  0  0  0  0  0  0  0  0  0  0
  149.8102  134.3107  157.5060 N   0  5  0  0  0  0  0  0  0  0  0  0
  149.4192  133.1760  156.8583 C   0  0  0  0  0  0  0  0  0  0  0  0
  149.0565  132.1688  157.4653 O   0  0  0  0  0  0  0  0  0  0  0  0
  149.0132  132.0716  153.5692 H   0  0  0  0  0  0  0  0  0  0  0  0
  147.9646  131.6630  154.9261 H   0  0  0  0  0  0  0  0  0  0  0  0
  149.6343  131.0794  154.8916 H   0  0  0  0  0  0  0  0  0  0  0  0
  149.8679  134.2686  153.6680 H   0  0  0  0  0  0  0  0  0  0  0  0
  150.9334  136.3319  153.6824 H   0  0  0  0  0  0  0  0  0  0  0  0
  152.0105  139.1337  154.8375 H   0  0  0  0  0  0  0  0  0  0  0  0
  152.5398  138.0119  157.5973 H   0  0  0  0  0  0  0  0  0  0  0  0
  153.5536  139.0608  156.6154 H   0  0  0  0  0  0  0  0  0  0  0  0
  153.0920  141.7006  161.0716 H   0  0  0  0  0  0  0  0  0  0  0  0
  152.9315  144.1224  161.5180 H   0  0  0  0  0  0  0  0  0  0  0  0
  152.1045  145.6726  159.7567 H   0  0  0  0  0  0  0  0  0  0  0  0
  151.4390  144.7799  157.5323 H   0  0  0  0  0  0  0  0  0  0  0  0
  151.5868  142.3735  157.0593 H   0  0  0  0  0  0  0  0  0  0  0  0
  149.8413  138.3015  156.8154 H   0  0  0  0  0  0  0  0  0  0  0  0
  149.1245  140.2103  156.4192 H   0  0  0  0  0  0  0  0  0  0  0  0
  148.6493  137.3492  155.0486 H   0  0  0  0  0  0  0  0  0  0  0  0
  149.3096  137.7359  152.8584 H   0  0  0  0  0  0  0  0  0  0  0  0
  1  2  1  0  0  0  0
  1 27  1  0  0  0  0
  1 28  1  0  0  0  0
  1 29  1  0  0  0  0
  2 25  1  0  0  0  0
  2  3  2  0  0  0  0
  3  4  1  0  0  0  0
  3 30  1  0  0  0  0
  4  5  1  0  0  0  0
  4 22  1  0  0  0  0
  5 20  1  0  0  0  0
  5  6  1  0  0  0  0
  5 31  1  0  0  0  0
  6  7  1  0  0  0  0
  7  8  1  0  0  0  0
  7 18  1  0  0  0  0
  7 32  1  0  0  0  0
  8  9  1  0  0  0  0
  8 33  1  0  0  0  0
  8 34  1  0  0  0  0
  9 10  1  0  0  0  0
 10 11  2  0  0  0  0
 10 12  1  0  0  0  0
 12 17  1  0  0  0  0
 12 13  2  0  0  0  0
 13 14  1  0  0  0  0
 13 35  1  0  0  0  0
 14 15  2  0  0  0  0
 14 36  1  0  0  0  0
 15 16  1  0  0  0  0
 15 37  1  0  0  0  0
 16 17  2  0  0  0  0
 16 38  1  0  0  0  0
 17 39  1  0  0  0  0
 18 19  1  0  0  0  0
 18 20  1  0  0  0  0
 18 40  1  0  0  0  0
 19 41  1  0  0  0  0
 20 21  1  0  0  0  0
 20 42  1  0  0  0  0
 21 43  1  0  0  0  0
 22 23  2  0  0  0  0
 22 24  1  0  0  0  0
 24 25  1  0  0  0  0
 25 26  2  0  0  0  0
M  CHG  1  24  -1
M  END
> <s_m_source_file>
AV-unprocessed.smi

> <i_m_source_file_index>
101

> <i_lp_mmshare_version>
43012

> <i_f3d_flags>
0

> <s_epik_input>
Tz1jMVtuSF1jKD1PKW4oW2NIXWMxW0NIM10pW0NAQEhdMk9bQ0BIXShbQ0BASF0oW09IXSlbQ0BIXTJbT0hdKVtDSDJdT0MoPU8pYzNbY0hdW2NIXVtjSF1bY0hdW2NIXTM=

> <s_epik_cmdline>
J2VwaWtfcHl0aG9uJywgJy1waCcsICc3LjAnLCAnLXRuJywgJzgnLCAnLW1hJywgJzIwMCcsICctbWV0YWxfYmluZGluZycsICctaW1hZScsICc8aW5maWxlLm1hZT4nLCAnLW9tYWUnLCAnPG91dGZpbGUubWFlPic=

> <r_lp_tautomer_probability>
0.999537

> <r_epik_Ionization_Penalty>
3.21006

> <r_epik_Ionization_Penalty_Charging>
5.75142e-08

> <r_epik_Ionization_Penalty_Neutral>
3.21006

> <r_epik_State_Penalty>
3.20925

> <r_epik_Charging_Adjusted_Penalty>
3.20925

> <i_epik_Tot_Q>
-1

> <i_epik_Tot_abs_Q>
1

> <r_epik_Metal_State_Penalty>
0.119957

> <b_epik_Metal_Only>
1

> <s_epik_Chemistry_Notes>
This compound has an ester and may undergo hydrolysis at high or low pH. This compound contains an acetal/aminal-like group ( X-CH(R)-Y where X, Y are N, S, or O) that may be acid/base labile, releasing an aldehyde.

> <s_lp_Force_Field>
OPLS_2005

> <r_lp_Energy>
43.2015

> <b_lp_Chiralities_Consistent>
1

> <s_lp_Variant>
AV-unprocessed.smi:101-19

> <Gold.Version>
5.8.1

> <Gold.Id.Protein>
6NUR|6NUR_protein|mol2

> <Gold.PLP.Fitness>
51.9728

> <Gold.PLP.PLP>
-42.7711

> <Gold.PLP.part.hbond>
-4.0000

> <Gold.PLP.part.metal>
0.0000

> <Gold.PLP.part.buried>
-6.3283

> <Gold.PLP.part.nonpolar>
-33.6045

> <Gold.PLP.part.repulsive>
0.0729

> <Gold.PLP.ligand.clash>
0.0000

> <Gold.PLP.ligand.torsion>
0.9328

> <Gold.PLP.Chemscore.Hbond>
3.6337

> <Gold.PLP.Chemscore.CHOScore>
0.0367

> <Gold.PLP.Chemscore.Metal>
0.0000

> <Gold.Chemscore.Hbonds>
donor molecule, donor type, donor heavy atom, donor atom, acceptor molecule, acceptor atom, score
      L1  H    21    43       P1  7948  1.00
      P1  H  6896  6909       L1    24  1.90
      P1  H 10752 10763       L1     6  0.67
      L1  C     3    30       P1  7948  0.03

> <Gold.PLP.Chemscore.Internal.Correction>
0.0561

> <Gold.Rescore>
     Score         DG    S(hbond)    S(metal)    S(lipo)     H(rot)  DE(clash)    DE(int)     intcor
     10.64     -17.38       2.57        0.00      99.78       3.27       0.22       6.51       ----

> <Gold.Chemscore.Fitness>
10.6404

> <Gold.Chemscore.DG>
-17.3785

> <Gold.Chemscore.ZeroCoef>
-5.4800

> <Gold.Chemscore.Hbond>
2.5699

> <Gold.Chemscore.Metal>
0.0000

> <Gold.Chemscore.Lipo>
99.7850

> <Gold.Chemscore.Internal_Hbond>
0.0000

> <Gold.Chemscore.DEClash>
0.2242

> <Gold.Chemscore.DEInternal>
6.5139

> <Gold.Chemscore.Rot>
3.2656

> <Gold.Chemscore.Internal.Correction>
   9.000000E+99

> <Gold.Chemscore.Hbonds>
donor molecule, donor type, donor heavy atom, donor atom, acceptor molecule, acceptor atom, score
      L1  H    21    43       P1  7948  0.94
      P1  H  6896  6909       L1    24  0.68
      P1  H 10752 10763       L1     6  0.06

> <Gold.Chemscore.Hbond.Weighted>
-8.5835

> <Gold.Chemscore.Metal.Weighted>
-0.0000

> <Gold.Chemscore.Lipo.Weighted>
-11.6748

> <Gold.Chemscore.Internal_Hbond.Weighted>
0.0000

> <Gold.Chemscore.DEClash.Weighted>
0.2242

> <Gold.Chemscore.DEInternal.Weighted>
6.5139

> <Gold.Chemscore.Rot.Weighted>
8.3598

> <Gold.Chemscore.Internal.Correction.Weighted>
   9.000000E+99

> <Gold.Protein.RotatedTorsions>
[ 6907 6896 6895 6894 ] final    8.27 input  -60.11 | X-H torsion
[ 7974 7965 7964 7962 ] final  101.42 input  175.53 | X-H torsion
[ 8008 7997 7996 7995 ] final  101.78 input   59.86 | X-H torsion
[ 10167 10162 10161 10158 ] final -166.27 input  -65.29 | X-H torsion
[ 10718 10713 10712 10709 ] final   95.46 input   66.30 | X-H torsion
[ 10763 10752 10751 10750 ] final   71.67 input  -60.55 | X-H torsion
[ 11005 11000 10999 10996 ] final  136.75 input  -57.11 | X-H torsion

> <Gold.Protein.ActiveResidues>
 VAL166  LYS551  ARG553  GLY616  TRP617  ASP618  TYR619  PRO620  LYS621  CYS622 
 ASP623  PHE694  ASN695  SER759  ASP760  ASP761  ALA762  ILE779  LEU786  VAL792 
 PHE793  MET794  SER795  GLU796  ALA797  LYS798  CYS799  TRP800  GLU811  SER814 

> <Gold.Protein.RotatedAtoms>
  151.7033  135.0926  160.0254 H   0  0  0  0  0  0  0  0  0  0  0  0  # atno 6907 bound_to 6896
  152.3707  133.6411  159.6093 H   0  0  0  0  0  0  0  0  0  0  0  0  # atno 6908 bound_to 6896
  150.7671  133.9191  159.3434 H   0  0  0  0  0  0  0  0  0  0  0  0  # atno 6909 bound_to 6896
  145.3725  139.2395  143.3447 H   0  0  0  0  0  0  0  0  0  0  0  0  # atno 7974 bound_to 7965
  156.1331  140.3192  155.8380 H   0  0  0  0  0  0  0  0  0  0  0  0  # atno 8008 bound_to 7997
  155.4294  140.0518  157.3037 H   0  0  0  0  0  0  0  0  0  0  0  0  # atno 8009 bound_to 7997
  154.4915  140.2094  155.9550 H   0  0  0  0  0  0  0  0  0  0  0  0  # atno 8010 bound_to 7997
  139.6126  144.0783  152.1857 H   0  0  0  0  0  0  0  0  0  0  0  0  # atno 10167 bound_to 10162
  157.6938  131.0546  150.4342 H   0  0  0  0  0  0  0  0  0  0  0  0  # atno 10718 bound_to 10713
  153.0412  135.5128  154.7627 H   0  0  0  0  0  0  0  0  0  0  0  0  # atno 10763 bound_to 10752
  154.6563  135.2932  154.9925 H   0  0  0  0  0  0  0  0  0  0  0  0  # atno 10764 bound_to 10752
  154.0792  135.6666  153.4888 H   0  0  0  0  0  0  0  0  0  0  0  0  # atno 10765 bound_to 10752
  140.0067  134.9456  157.0190 H   0  0  0  0  0  0  0  0  0  0  0  0  # atno 11005 bound_to 11000
  146.2879  140.4379  142.8751 LP  0  0  0  0  0  0  0  0  0  0  0  0  # atno 17320 bound_to 7965
  144.8566  140.7079  143.6134 LP  0  0  0  0  0  0  0  0  0  0  0  0  # atno 17321 bound_to 7965
  140.0406  144.6010  150.7414 LP  0  0  0  0  0  0  0  0  0  0  0  0  # atno 17342 bound_to 10162
  140.7329  143.2711  151.3885 LP  0  0  0  0  0  0  0  0  0  0  0  0  # atno 17343 bound_to 10162
  156.4706  130.4052  149.6520 LP  0  0  0  0  0  0  0  0  0  0  0  0  # atno 17370 bound_to 10713
  156.3602  130.7477  151.2448 LP  0  0  0  0  0  0  0  0  0  0  0  0  # atno 17371 bound_to 10713
  140.4628  134.1466  155.7193 LP  0  0  0  0  0  0  0  0  0  0  0  0  # atno 17394 bound_to 11000
  141.1682  133.8661  157.1651 LP  0  0  0  0  0  0  0  0  0  0  0  0  # atno 17395 bound_to 11000

$$$$
