AV-unprocessed.smi:849|AV-procd|sdf|3943|dock1
  -GOLD-   22720 1413D 1   1.00000     0.00000
 Structure written by MMmdl.
 36 38  0  0  0  0  0  0  0  0  1 V2000
  153.3658  139.0313  155.0017 O   0  0  0  0  0  0  0  0  0  0  0  0
  152.3113  139.1194  155.9363 C   0  0  0  0  0  0  0  0  0  0  0  0
  151.0245  139.5932  155.3219 C   0  0  0  0  0  0  0  0  0  0  0  0
  150.3340  138.8098  154.4913 N   0  0  0  0  0  0  0  0  0  0  0  0
  149.2367  139.5843  154.1766 C   0  0  0  0  0  0  0  0  0  0  0  0
  148.1319  139.3117  153.3383 C   0  0  0  0  0  0  0  0  0  0  0  0
  147.1085  140.2675  153.1726 C   0  0  0  0  0  0  0  0  0  0  0  0
  147.1744  141.5058  153.8431 C   0  0  0  0  0  0  0  0  0  0  0  0
  148.2670  141.7964  154.6826 C   0  0  0  0  0  0  0  0  0  0  0  0
  149.2892  140.8409  154.8419 C   0  0  0  0  0  0  0  0  0  0  0  0
  150.4749  140.8126  155.5731 N   0  0  0  0  0  0  0  0  0  0  0  0
  150.9701  141.8874  156.4304 C   0  0  0  0  0  0  0  0  0  0  0  0
  150.6323  141.7035  157.9293 C   0  0  2  0  0  0  0  0  0  0  0  0
  149.2598  141.3938  158.0789 O   0  0  0  0  0  0  0  0  0  0  0  0
  151.0764  142.8836  158.7943 C   0  0  0  0  0  0  0  0  0  0  0  0
  150.4671  144.1500  158.6296 C   0  0  0  0  0  0  0  0  0  0  0  0
  150.8687  145.2484  159.4126 C   0  0  0  0  0  0  0  0  0  0  0  0
  151.8877  145.0944  160.3693 C   0  0  0  0  0  0  0  0  0  0  0  0
  152.5064  143.8422  160.5376 C   0  0  0  0  0  0  0  0  0  0  0  0
  152.1084  142.7388  159.7562 C   0  0  0  0  0  0  0  0  0  0  0  0
  152.9194  141.2301  159.9920 Cl  0  0  0  0  0  0  0  0  0  0  0  0
  153.1023  139.4722  154.2091 H   0  0  0  0  0  0  0  0  0  0  0  0
  152.1464  138.1336  156.3708 H   0  0  0  0  0  0  0  0  0  0  0  0
  152.6377  139.7680  156.7445 H   0  0  0  0  0  0  0  0  0  0  0  0
  148.0717  138.3645  152.8232 H   0  0  0  0  0  0  0  0  0  0  0  0
  146.2682  140.0489  152.5300 H   0  0  0  0  0  0  0  0  0  0  0  0
  146.3863  142.2329  153.7123 H   0  0  0  0  0  0  0  0  0  0  0  0
  148.3204  142.7452  155.1954 H   0  0  0  0  0  0  0  0  0  0  0  0
  152.0533  141.9337  156.3115 H   0  0  0  0  0  0  0  0  0  0  0  0
  150.6088  142.8468  156.0643 H   0  0  0  0  0  0  0  0  0  0  0  0
  151.1518  140.8132  158.2828 H   0  0  0  0  0  0  0  0  0  0  0  0
  148.9688  140.9401  157.3026 H   0  0  0  0  0  0  0  0  0  0  0  0
  149.6916  144.2935  157.8914 H   0  0  0  0  0  0  0  0  0  0  0  0
  150.3977  146.2105  159.2749 H   0  0  0  0  0  0  0  0  0  0  0  0
  152.1984  145.9369  160.9694 H   0  0  0  0  0  0  0  0  0  0  0  0
  153.2936  143.7294  161.2684 H   0  0  0  0  0  0  0  0  0  0  0  0
  1  2  1  0  0  0  0
  1 22  1  0  0  0  0
  2  3  1  0  0  0  0
  2 23  1  0  0  0  0
  2 24  1  0  0  0  0
  3 11  1  0  0  0  0
  3  4  2  0  0  0  0
  4  5  1  0  0  0  0
  5 10  2  0  0  0  0
  5  6  1  0  0  0  0
  6  7  2  0  0  0  0
  6 25  1  0  0  0  0
  7  8  1  0  0  0  0
  7 26  1  0  0  0  0
  8  9  2  0  0  0  0
  8 27  1  0  0  0  0
  9 10  1  0  0  0  0
  9 28  1  0  0  0  0
 10 11  1  0  0  0  0
 11 12  1  0  0  0  0
 12 13  1  0  0  0  0
 12 29  1  0  0  0  0
 12 30  1  0  0  0  0
 13 14  1  0  0  0  0
 13 15  1  0  0  0  0
 13 31  1  0  0  0  0
 14 32  1  0  0  0  0
 15 20  1  0  0  0  0
 15 16  2  0  0  0  0
 16 17  1  0  0  0  0
 16 33  1  0  0  0  0
 17 18  2  0  0  0  0
 17 34  1  0  0  0  0
 18 19  1  0  0  0  0
 18 35  1  0  0  0  0
 19 20  2  0  0  0  0
 19 36  1  0  0  0  0
 20 21  1  0  0  0  0
M  END
> <s_m_source_file>
AV-unprocessed.smi

> <i_m_source_file_index>
849

> <i_lp_mmshare_version>
43012

> <i_f3d_flags>
0

> <s_epik_input>
W2NIXTFbY0hdW2NIXVtjSF1jKGMxMiluKGMobjIpW0NIMl1bT0hdKVtDSDJdW0NASF0oW09IXSljM1tjSF1bY0hdW2NIXVtjSF1jM0Ns

> <s_epik_cmdline>
J2VwaWtfcHl0aG9uJywgJy1waCcsICc3LjAnLCAnLXRuJywgJzgnLCAnLW1hJywgJzIwMCcsICctbWV0YWxfYmluZGluZycsICctaW1hZScsICc8aW5maWxlLm1hZT4nLCAnLW9tYWUnLCAnPG91dGZpbGUubWFlPic=

> <r_epik_Ionization_Penalty>
0.0634742

> <r_epik_Ionization_Penalty_Charging>
0

> <r_epik_Ionization_Penalty_Neutral>
0.0634742

> <r_epik_State_Penalty>
0.0551572

> <r_epik_Charging_Adjusted_Penalty>
0.0551572

> <i_epik_Tot_Q>
0

> <i_epik_Tot_abs_Q>
0

> <r_epik_Metal_State_Penalty>
5.78034e-05

> <b_epik_Metal_Only>
0

> <s_lp_Force_Field>
OPLS_2005

> <r_lp_Energy>
13.6996

> <b_lp_Chiralities_Consistent>
1

> <s_lp_Variant>
AV-unprocessed.smi:849-1

> <Gold.Version>
5.8.1

> <Gold.Id.Protein>
6NUR|6NUR_protein|mol2

> <Gold.PLP.Fitness>
51.4310

> <Gold.PLP.PLP>
-49.3325

> <Gold.PLP.part.hbond>
-1.0000

> <Gold.PLP.part.metal>
0.0000

> <Gold.PLP.part.buried>
-0.9465

> <Gold.PLP.part.nonpolar>
-46.6718

> <Gold.PLP.part.repulsive>
0.1724

> <Gold.PLP.ligand.clash>
0.0000

> <Gold.PLP.ligand.torsion>
0.5000

> <Gold.PLP.Chemscore.Hbond>
1.0000

> <Gold.PLP.Chemscore.CHOScore>
0.0000

> <Gold.PLP.Chemscore.Metal>
0.0000

> <Gold.Chemscore.Hbonds>
donor molecule, donor type, donor heavy atom, donor atom, acceptor molecule, acceptor atom, score
      P1  H  7997  8008       L1     1  1.00

> <Gold.PLP.Chemscore.Internal.Correction>
0.0985

> <Gold.Rescore>
     Score         DG    S(hbond)    S(metal)    S(lipo)     H(rot)  DE(clash)    DE(int)     intcor
     14.51     -15.28       0.26        0.00     133.71       2.62       0.22       0.55       ----

> <Gold.Chemscore.Fitness>
14.5075

> <Gold.Chemscore.DG>
-15.2754

> <Gold.Chemscore.ZeroCoef>
-5.4800

> <Gold.Chemscore.Hbond>
0.2597

> <Gold.Chemscore.Metal>
0.0000

> <Gold.Chemscore.Lipo>
133.7061

> <Gold.Chemscore.Internal_Hbond>
0.0000

> <Gold.Chemscore.DEClash>
0.2175

> <Gold.Chemscore.DEInternal>
0.5504

> <Gold.Chemscore.Rot>
2.6232

> <Gold.Chemscore.Internal.Correction>
   9.000000E+99

> <Gold.Chemscore.Hbonds>
donor molecule, donor type, donor heavy atom, donor atom, acceptor molecule, acceptor atom, score
      P1  H  7997  8008       L1     1  0.12

> <Gold.Chemscore.Hbond.Weighted>
-0.8672

> <Gold.Chemscore.Metal.Weighted>
-0.0000

> <Gold.Chemscore.Lipo.Weighted>
-15.6436

> <Gold.Chemscore.Internal_Hbond.Weighted>
0.0000

> <Gold.Chemscore.DEClash.Weighted>
0.2175

> <Gold.Chemscore.DEInternal.Weighted>
0.5504

> <Gold.Chemscore.Rot.Weighted>
6.7154

> <Gold.Chemscore.Internal.Correction.Weighted>
   9.000000E+99

> <Gold.Protein.RotatedTorsions>
[ 6907 6896 6895 6894 ] final   -9.39 input  -60.11 | X-H torsion
[ 7974 7965 7964 7962 ] final   59.36 input  175.53 | X-H torsion
[ 8008 7997 7996 7995 ] final   -1.72 input   59.86 | X-H torsion
[ 10167 10162 10161 10158 ] final   83.09 input  -65.29 | X-H torsion
[ 10718 10713 10712 10709 ] final  150.19 input   66.30 | X-H torsion
[ 10763 10752 10751 10750 ] final   60.80 input  -60.55 | X-H torsion
[ 11005 11000 10999 10996 ] final  131.36 input  -57.11 | X-H torsion

> <Gold.Protein.ActiveResidues>
 VAL166  LYS551  ARG553  GLY616  TRP617  ASP618  TYR619  PRO620  LYS621  CYS622 
 ASP623  PHE694  ASN695  SER759  ASP760  ASP761  ALA762  ILE779  LEU786  VAL792 
 PHE793  MET794  SER795  GLU796  ALA797  LYS798  CYS799  TRP800  GLU811  SER814 

> <Gold.Protein.RotatedAtoms>
  151.4185  135.0995  159.9606 H   0  0  0  0  0  0  0  0  0  0  0  0  # atno 6907 bound_to 6896
  152.4996  133.8729  159.7318 H   0  0  0  0  0  0  0  0  0  0  0  0  # atno 6908 bound_to 6896
  150.9240  133.6789  159.2853 H   0  0  0  0  0  0  0  0  0  0  0  0  # atno 6909 bound_to 6896
  145.9080  139.3632  143.0552 H   0  0  0  0  0  0  0  0  0  0  0  0  # atno 7974 bound_to 7965
  154.6437  140.2552  155.7293 H   0  0  0  0  0  0  0  0  0  0  0  0  # atno 8008 bound_to 7997
  156.2541  140.2882  156.0762 H   0  0  0  0  0  0  0  0  0  0  0  0  # atno 8009 bound_to 7997
  155.1557  140.0383  157.2821 H   0  0  0  0  0  0  0  0  0  0  0  0  # atno 8010 bound_to 7997
  139.9220  144.6206  150.8430 H   0  0  0  0  0  0  0  0  0  0  0  0  # atno 10167 bound_to 10162
  157.2865  131.0845  151.1493 H   0  0  0  0  0  0  0  0  0  0  0  0  # atno 10718 bound_to 10713
  152.9931  135.5523  154.5932 H   0  0  0  0  0  0  0  0  0  0  0  0  # atno 10763 bound_to 10752
  154.5289  135.2812  155.1199 H   0  0  0  0  0  0  0  0  0  0  0  0  # atno 10764 bound_to 10752
  154.2522  135.6396  153.5297 H   0  0  0  0  0  0  0  0  0  0  0  0  # atno 10765 bound_to 10752
  139.9726  134.9573  156.9427 H   0  0  0  0  0  0  0  0  0  0  0  0  # atno 11005 bound_to 11000
  145.8707  140.9421  143.0652 LP  0  0  0  0  0  0  0  0  0  0  0  0  # atno 17320 bound_to 7965
  144.6741  140.0651  143.7475 LP  0  0  0  0  0  0  0  0  0  0  0  0  # atno 17321 bound_to 7965
  140.7659  143.3290  151.2452 LP  0  0  0  0  0  0  0  0  0  0  0  0  # atno 17342 bound_to 10162
  139.6853  143.9784  152.2831 LP  0  0  0  0  0  0  0  0  0  0  0  0  # atno 17343 bound_to 10162
  157.2906  130.6794  149.6112 LP  0  0  0  0  0  0  0  0  0  0  0  0  # atno 17370 bound_to 10713
  155.9666  130.4422  150.5371 LP  0  0  0  0  0  0  0  0  0  0  0  0  # atno 17371 bound_to 10713
  140.5262  134.0859  155.7304 LP  0  0  0  0  0  0  0  0  0  0  0  0  # atno 17394 bound_to 11000
  141.1405  133.9147  157.2337 LP  0  0  0  0  0  0  0  0  0  0  0  0  # atno 17395 bound_to 11000

$$$$
