AV-unprocessed.smi:2986|AV-procd|sdf|11381|dock10
  -GOLD-   2272016303D 1   1.00000     0.00000
 Structure written by MMmdl.
 42 44  0  0  0  0  0  0  0  0  1 V2000
  148.8523  141.4284  154.2442 C   0  0  0  0  0  0  0  0  0  0  0  0
  150.0918  140.9849  154.7674 O   0  0  0  0  0  0  0  0  0  0  0  0
  150.1354  141.0445  156.1825 C   0  0  0  0  0  0  0  0  0  0  0  0
  151.5429  140.6555  156.6481 C   0  0  0  0  0  0  0  0  0  0  0  0
  151.8351  141.1829  157.9711 N   0  0  0  0  0  0  0  0  0  0  0  0
  152.1130  140.4904  159.1024 C   0  0  0  0  0  0  0  0  0  0  0  0
  152.1627  138.7271  159.1272 S   0  0  0  0  0  0  0  0  0  0  0  0
  153.6520  138.5133  160.1527 C   0  0  0  0  0  0  0  0  0  0  0  0
  153.7890  137.1135  160.7565 C   0  0  0  0  0  0  0  0  0  0  0  0
  153.7253  136.1316  160.0185 O   0  0  0  0  0  0  0  0  0  0  0  0
  153.9802  137.0626  162.0875 N   0  0  0  0  0  0  0  0  0  0  0  0
  154.0620  135.9224  162.9262 C   0  0  0  0  0  0  0  0  0  0  0  0
  153.6547  135.8455  164.2898 C   0  0  0  0  0  0  0  0  0  0  0  0
  153.9462  134.5530  164.6236 C   0  0  0  0  0  0  0  0  0  0  0  0
  153.7873  133.7697  165.8811 C   0  0  0  0  0  0  0  0  0  0  0  0
  154.4840  133.8985  163.5594 O   0  0  0  0  0  0  0  0  0  0  0  0
  154.5535  134.7827  162.4766 N   0  0  0  0  0  0  0  0  0  0  0  0
  152.3528  141.2266  160.1875 N   0  0  0  0  0  0  0  0  0  0  0  0
  152.2144  142.5175  159.7163 C   0  0  0  0  0  0  0  0  0  0  0  0
  152.3447  143.7578  160.3813 C   0  0  0  0  0  0  0  0  0  0  0  0
  152.1499  144.9667  159.6815 C   0  0  0  0  0  0  0  0  0  0  0  0
  151.8224  144.9530  158.3100 C   0  0  0  0  0  0  0  0  0  0  0  0
  151.6894  143.7284  157.6278 C   0  0  0  0  0  0  0  0  0  0  0  0
  151.8861  142.5250  158.3309 C   0  0  0  0  0  0  0  0  0  0  0  0
  148.8667  141.3554  153.1568 H   0  0  0  0  0  0  0  0  0  0  0  0
  148.6628  142.4694  154.5098 H   0  0  0  0  0  0  0  0  0  0  0  0
  148.0272  140.8169  154.6115 H   0  0  0  0  0  0  0  0  0  0  0  0
  149.8922  142.0523  156.5237 H   0  0  0  0  0  0  0  0  0  0  0  0
  149.3954  140.3636  156.6066 H   0  0  0  0  0  0  0  0  0  0  0  0
  151.6568  139.5718  156.6574 H   0  0  0  0  0  0  0  0  0  0  0  0
  152.2887  141.0335  155.9482 H   0  0  0  0  0  0  0  0  0  0  0  0
  154.5322  138.7422  159.5503 H   0  0  0  0  0  0  0  0  0  0  0  0
  153.6255  139.2443  160.9610 H   0  0  0  0  0  0  0  0  0  0  0  0
  154.0222  137.9519  162.5639 H   0  0  0  0  0  0  0  0  0  0  0  0
  153.2205  136.5982  164.9302 H   0  0  0  0  0  0  0  0  0  0  0  0
  153.2932  134.3638  166.6500 H   0  0  0  0  0  0  0  0  0  0  0  0
  154.7576  133.4571  166.2670 H   0  0  0  0  0  0  0  0  0  0  0  0
  153.1881  132.8758  165.7066 H   0  0  0  0  0  0  0  0  0  0  0  0
  152.5948  143.7791  161.4317 H   0  0  0  0  0  0  0  0  0  0  0  0
  152.2521  145.9089  160.1996 H   0  0  0  0  0  0  0  0  0  0  0  0
  151.6742  145.8835  157.7818 H   0  0  0  0  0  0  0  0  0  0  0  0
  151.4387  143.7148  156.5774 H   0  0  0  0  0  0  0  0  0  0  0  0
  1  2  1  0  0  0  0
  1 25  1  0  0  0  0
  1 26  1  0  0  0  0
  1 27  1  0  0  0  0
  2  3  1  0  0  0  0
  3  4  1  0  0  0  0
  3 28  1  0  0  0  0
  3 29  1  0  0  0  0
  4  5  1  0  0  0  0
  4 30  1  0  0  0  0
  4 31  1  0  0  0  0
  5 24  1  0  0  0  0
  5  6  1  0  0  0  0
  6  7  1  0  0  0  0
  6 18  2  0  0  0  0
  7  8  1  0  0  0  0
  8  9  1  0  0  0  0
  8 32  1  0  0  0  0
  8 33  1  0  0  0  0
  9 10  2  0  0  0  0
  9 11  1  0  0  0  0
 11 12  1  0  0  0  0
 11 34  1  0  0  0  0
 12 17  2  0  0  0  0
 12 13  1  0  0  0  0
 13 14  2  0  0  0  0
 13 35  1  0  0  0  0
 14 15  1  0  0  0  0
 14 16  1  0  0  0  0
 15 36  1  0  0  0  0
 15 37  1  0  0  0  0
 15 38  1  0  0  0  0
 16 17  1  0  0  0  0
 18 19  1  0  0  0  0
 19 24  2  0  0  0  0
 19 20  1  0  0  0  0
 20 21  2  0  0  0  0
 20 39  1  0  0  0  0
 21 22  1  0  0  0  0
 21 40  1  0  0  0  0
 22 23  2  0  0  0  0
 22 41  1  0  0  0  0
 23 24  1  0  0  0  0
 23 42  1  0  0  0  0
M  END
> <s_m_source_file>
AV-unprocessed.smi

> <i_m_source_file_index>
2986

> <i_lp_mmshare_version>
43012

> <i_f3d_flags>
0

> <s_epik_input>
W2NIXTFbY0hdW2NIXVtjSF1jKGMxMiluKFtDSDJdW0NIMl1PW0NIM10pYyhuMilTW0NIMl1DKD1PKVtOSF1jM1tjSF1jKFtDSDNdKW9uMw==

> <s_epik_cmdline>
J2VwaWtfcHl0aG9uJywgJy1waCcsICc3LjAnLCAnLXRuJywgJzgnLCAnLW1hJywgJzIwMCcsICctbWV0YWxfYmluZGluZycsICctaW1hZScsICc8aW5maWxlLm1hZT4nLCAnLW9tYWUnLCAnPG91dGZpbGUubWFlPic=

> <r_epik_Ionization_Penalty>
0.0256487

> <r_epik_Ionization_Penalty_Charging>
0

> <r_epik_Ionization_Penalty_Neutral>
0.0256487

> <r_epik_State_Penalty>
0.0204505

> <r_epik_Charging_Adjusted_Penalty>
0.0204505

> <i_epik_Tot_Q>
0

> <i_epik_Tot_abs_Q>
0

> <r_epik_Metal_State_Penalty>
0.237509

> <b_epik_Metal_Only>
0

> <s_lp_Force_Field>
OPLS_2005

> <r_lp_Energy>
8.97746

> <b_lp_Chiralities_Consistent>
1

> <s_lp_Variant>
AV-unprocessed.smi:2986-1

> <Gold.Version>
5.8.1

> <Gold.Id.Protein>
6NUR|6NUR_protein|mol2

> <Gold.PLP.Fitness>
53.3091

> <Gold.PLP.PLP>
-49.5452

> <Gold.PLP.part.hbond>
-2.0000

> <Gold.PLP.part.metal>
0.0000

> <Gold.PLP.part.buried>
-5.0741

> <Gold.PLP.part.nonpolar>
-42.6353

> <Gold.PLP.part.repulsive>
0.1537

> <Gold.PLP.ligand.clash>
0.0000

> <Gold.PLP.ligand.torsion>
0.6985

> <Gold.PLP.Chemscore.Hbond>
1.6880

> <Gold.PLP.Chemscore.CHOScore>
0.0000

> <Gold.PLP.Chemscore.Metal>
0.0000

> <Gold.Chemscore.Hbonds>
donor molecule, donor type, donor heavy atom, donor atom, acceptor molecule, acceptor atom, score
      P1  H  6896  6908       L1    10  1.00
      P1  H  7989  7998       L1     2  0.67

> <Gold.PLP.Chemscore.Internal.Correction>
0.0970

> <Gold.Rescore>
     Score         DG    S(hbond)    S(metal)    S(lipo)     H(rot)  DE(clash)    DE(int)     intcor
     18.08     -20.04       1.73        0.00     124.98       2.28       0.02       1.95       ----

> <Gold.Chemscore.Fitness>
18.0792

> <Gold.Chemscore.DG>
-20.0447

> <Gold.Chemscore.ZeroCoef>
-5.4800

> <Gold.Chemscore.Hbond>
1.7305

> <Gold.Chemscore.Metal>
0.0000

> <Gold.Chemscore.Lipo>
124.9800

> <Gold.Chemscore.Internal_Hbond>
0.0000

> <Gold.Chemscore.DEClash>
0.0164

> <Gold.Chemscore.DEInternal>
1.9491

> <Gold.Chemscore.Rot>
2.2804

> <Gold.Chemscore.Internal.Correction>
   9.000000E+99

> <Gold.Chemscore.Hbonds>
donor molecule, donor type, donor heavy atom, donor atom, acceptor molecule, acceptor atom, score
      P1  H  6896  6908       L1    10  0.99
      P1  H  7989  7998       L1     2  0.61

> <Gold.Chemscore.Hbond.Weighted>
-5.7800

> <Gold.Chemscore.Metal.Weighted>
-0.0000

> <Gold.Chemscore.Lipo.Weighted>
-14.6227

> <Gold.Chemscore.Internal_Hbond.Weighted>
0.0000

> <Gold.Chemscore.DEClash.Weighted>
0.0164

> <Gold.Chemscore.DEInternal.Weighted>
1.9491

> <Gold.Chemscore.Rot.Weighted>
5.8379

> <Gold.Chemscore.Internal.Correction.Weighted>
   9.000000E+99

> <Gold.Protein.RotatedTorsions>
[ 6907 6896 6895 6894 ] final  -58.85 input  -60.11 | X-H torsion
[ 7974 7965 7964 7962 ] final -119.15 input  175.53 | X-H torsion
[ 8008 7997 7996 7995 ] final   -1.45 input   59.86 | X-H torsion
[ 10167 10162 10161 10158 ] final  -55.02 input  -65.29 | X-H torsion
[ 10718 10713 10712 10709 ] final  179.25 input   66.30 | X-H torsion
[ 10763 10752 10751 10750 ] final -171.83 input  -60.55 | X-H torsion
[ 11005 11000 10999 10996 ] final  -76.86 input  -57.11 | X-H torsion

> <Gold.Protein.ActiveResidues>
 VAL166  LYS551  ARG553  GLY616  TRP617  ASP618  TYR619  PRO620  LYS621  CYS622 
 ASP623  PHE694  ASN695  SER759  ASP760  ASP761  ALA762  ILE779  LEU786  VAL792 
 PHE793  MET794  SER795  GLU796  ALA797  LYS798  CYS799  TRP800  GLU811  SER814 

> <Gold.Protein.RotatedAtoms>
  150.7975  134.7045  159.6568 H   0  0  0  0  0  0  0  0  0  0  0  0  # atno 6907 bound_to 6896
  152.4089  134.6155  160.0047 H   0  0  0  0  0  0  0  0  0  0  0  0  # atno 6908 bound_to 6896
  151.6404  133.3289  159.3165 H   0  0  0  0  0  0  0  0  0  0  0  0  # atno 6909 bound_to 6896
  145.0658  140.8323  143.4125 H   0  0  0  0  0  0  0  0  0  0  0  0  # atno 7974 bound_to 7965
  154.6466  140.2559  155.7261 H   0  0  0  0  0  0  0  0  0  0  0  0  # atno 8008 bound_to 7997
  156.2555  140.2876  156.0803 H   0  0  0  0  0  0  0  0  0  0  0  0  # atno 8009 bound_to 7997
  155.1515  140.0382  157.2812 H   0  0  0  0  0  0  0  0  0  0  0  0  # atno 8010 bound_to 7997
  140.6398  143.2501  151.5020 H   0  0  0  0  0  0  0  0  0  0  0  0  # atno 10167 bound_to 10162
  156.8785  130.9808  151.3065 H   0  0  0  0  0  0  0  0  0  0  0  0  # atno 10718 bound_to 10713
  154.6261  135.2881  155.0271 H   0  0  0  0  0  0  0  0  0  0  0  0  # atno 10763 bound_to 10752
  154.1448  135.6513  153.4954 H   0  0  0  0  0  0  0  0  0  0  0  0  # atno 10764 bound_to 10752
  153.0258  135.5341  154.7070 H   0  0  0  0  0  0  0  0  0  0  0  0  # atno 10765 bound_to 10752
  141.1657  133.7000  156.7733 H   0  0  0  0  0  0  0  0  0  0  0  0  # atno 11005 bound_to 11000
  145.1353  139.2606  143.5518 LP  0  0  0  0  0  0  0  0  0  0  0  0  # atno 17320 bound_to 7965
  146.3526  140.1015  142.8608 LP  0  0  0  0  0  0  0  0  0  0  0  0  # atno 17321 bound_to 7965
  139.5607  144.2163  152.1687 LP  0  0  0  0  0  0  0  0  0  0  0  0  # atno 17342 bound_to 10162
  140.1430  144.5184  150.6732 LP  0  0  0  0  0  0  0  0  0  0  0  0  # atno 17343 bound_to 10162
  157.6154  130.8614  149.9020 LP  0  0  0  0  0  0  0  0  0  0  0  0  # atno 17370 bound_to 10713
  156.0689  130.3688  150.0818 LP  0  0  0  0  0  0  0  0  0  0  0  0  # atno 17371 bound_to 10713
  140.2448  134.8586  157.3609 LP  0  0  0  0  0  0  0  0  0  0  0  0  # atno 17394 bound_to 11000
  140.1760  134.4548  155.7801 LP  0  0  0  0  0  0  0  0  0  0  0  0  # atno 17395 bound_to 11000

$$$$
