AV-unprocessed.smi:2274|AV-procd|sdf|9168|dock7
  -GOLD-   2272012383D 1   1.00000     0.00000
 Structure written by MMmdl.
 47 48  0  0  0  0  0  0  0  0  1 V2000
  153.8476  140.6465  160.6235 C   0  0  0  0  0  0  0  0  0  0  0  0
  153.6979  141.8739  159.7168 C   0  0  0  0  0  0  0  0  0  0  0  0
  152.7426  141.6359  158.6489 N   0  0  0  0  0  0  0  0  0  0  0  0
  152.8232  140.4811  157.9452 N   0  0  0  0  0  0  0  0  0  0  0  0
  151.8460  140.5370  157.0525 C   0  0  0  0  0  0  0  0  0  0  0  0
  151.7081  139.4187  156.0569 C   0  0  0  0  0  0  0  0  0  0  0  0
  151.0966  141.7408  157.2123 C   0  0  0  0  0  0  0  0  0  0  0  0
  149.9970  142.2144  156.4541 N   0  0  0  0  0  0  0  0  0  0  0  0
  149.0481  141.4696  155.8670 C   0  0  0  0  0  0  0  0  0  0  0  0
  148.9761  140.2425  155.9324 O   0  0  0  0  0  0  0  0  0  0  0  0
  148.1637  142.2321  155.2091 N   0  0  0  0  0  0  0  0  0  0  0  0
  147.0153  141.7277  154.4652 C   0  0  0  0  0  0  0  0  0  0  0  0
  146.3774  142.8253  153.5953 C   0  0  0  0  0  0  0  0  0  0  0  0
  145.1137  143.4300  154.2268 C   0  0  2  0  0  0  0  0  0  0  0  0
  144.7118  144.7559  153.5509 C   0  0  0  0  0  0  0  0  0  0  0  0
  143.4997  145.3761  154.2551 C   0  0  0  0  0  0  0  0  0  0  0  0
  143.7802  145.4957  155.7565 C   0  0  0  0  0  0  0  0  0  0  0  0
  144.2314  144.1410  156.3244 C   0  0  0  0  0  0  0  0  0  0  0  0
  145.3699  143.6703  155.6094 O   0  0  0  0  0  0  0  0  0  0  0  0
  151.7037  142.4408  158.2145 C   0  0  0  0  0  0  0  0  0  0  0  0
  151.4009  143.7775  158.8121 C   0  0  0  0  0  0  0  0  0  0  0  0
  154.5681  140.8376  161.4187 H   0  0  0  0  0  0  0  0  0  0  0  0
  154.1963  139.7806  160.0596 H   0  0  0  0  0  0  0  0  0  0  0  0
  152.8981  140.3831  161.0903 H   0  0  0  0  0  0  0  0  0  0  0  0
  153.3747  142.7374  160.2988 H   0  0  0  0  0  0  0  0  0  0  0  0
  154.6612  142.1374  159.2772 H   0  0  0  0  0  0  0  0  0  0  0  0
  151.3419  139.7861  155.0982 H   0  0  0  0  0  0  0  0  0  0  0  0
  151.0129  138.6595  156.4153 H   0  0  0  0  0  0  0  0  0  0  0  0
  152.6650  138.9290  155.8721 H   0  0  0  0  0  0  0  0  0  0  0  0
  149.8698  143.2155  156.4333 H   0  0  0  0  0  0  0  0  0  0  0  0
  148.2974  143.2327  155.2160 H   0  0  0  0  0  0  0  0  0  0  0  0
  147.3122  140.8754  153.8516 H   0  0  0  0  0  0  0  0  0  0  0  0
  146.2891  141.3522  155.1864 H   0  0  0  0  0  0  0  0  0  0  0  0
  147.1049  143.6154  153.4046 H   0  0  0  0  0  0  0  0  0  0  0  0
  146.1195  142.4057  152.6219 H   0  0  0  0  0  0  0  0  0  0  0  0
  144.2951  142.7142  154.1309 H   0  0  0  0  0  0  0  0  0  0  0  0
  145.5487  145.4549  153.5838 H   0  0  0  0  0  0  0  0  0  0  0  0
  144.4843  144.5902  152.4974 H   0  0  0  0  0  0  0  0  0  0  0  0
  143.2721  146.3545  153.8309 H   0  0  0  0  0  0  0  0  0  0  0  0
  142.6209  144.7506  154.0937 H   0  0  0  0  0  0  0  0  0  0  0  0
  144.5601  146.2389  155.9259 H   0  0  0  0  0  0  0  0  0  0  0  0
  142.8914  145.8491  156.2801 H   0  0  0  0  0  0  0  0  0  0  0  0
  144.4958  144.2455  157.3768 H   0  0  0  0  0  0  0  0  0  0  0  0
  143.4252  143.4077  156.2700 H   0  0  0  0  0  0  0  0  0  0  0  0
  150.4658  144.1810  158.4240 H   0  0  0  0  0  0  0  0  0  0  0  0
  152.1938  144.4904  158.5852 H   0  0  0  0  0  0  0  0  0  0  0  0
  151.3080  143.7070  159.8960 H   0  0  0  0  0  0  0  0  0  0  0  0
  1  2  1  0  0  0  0
  1 22  1  0  0  0  0
  1 23  1  0  0  0  0
  1 24  1  0  0  0  0
  2  3  1  0  0  0  0
  2 25  1  0  0  0  0
  2 26  1  0  0  0  0
  3 20  1  0  0  0  0
  3  4  1  0  0  0  0
  4  5  2  0  0  0  0
  5  6  1  0  0  0  0
  5  7  1  0  0  0  0
  6 27  1  0  0  0  0
  6 28  1  0  0  0  0
  6 29  1  0  0  0  0
  7  8  1  0  0  0  0
  7 20  2  0  0  0  0
  8  9  1  0  0  0  0
  8 30  1  0  0  0  0
  9 10  2  0  0  0  0
  9 11  1  0  0  0  0
 11 12  1  0  0  0  0
 11 31  1  0  0  0  0
 12 13  1  0  0  0  0
 12 32  1  0  0  0  0
 12 33  1  0  0  0  0
 13 14  1  0  0  0  0
 13 34  1  0  0  0  0
 13 35  1  0  0  0  0
 14 19  1  0  0  0  0
 14 15  1  0  0  0  0
 14 36  1  0  0  0  0
 15 16  1  0  0  0  0
 15 37  1  0  0  0  0
 15 38  1  0  0  0  0
 16 17  1  0  0  0  0
 16 39  1  0  0  0  0
 16 40  1  0  0  0  0
 17 18  1  0  0  0  0
 17 41  1  0  0  0  0
 17 42  1  0  0  0  0
 18 19  1  0  0  0  0
 18 43  1  0  0  0  0
 18 44  1  0  0  0  0
 20 21  1  0  0  0  0
 21 45  1  0  0  0  0
 21 46  1  0  0  0  0
 21 47  1  0  0  0  0
M  END
> <s_m_source_file>
AV-unprocessed.smi

> <i_m_source_file_index>
2274

> <i_lp_mmshare_version>
43012

> <i_f3d_flags>
0

> <s_epik_input>
W0NIM11bQ0gyXW4xbmMoW0NIM10pYyhjMVtDSDNdKVtOSF1DKD1PKVtOSF1bQ0gyXVtDSDJdW0NAQEhdMltDSDJdW0NIMl1bQ0gyXVtDSDJdTzI=

> <s_epik_cmdline>
J2VwaWtfcHl0aG9uJywgJy1waCcsICc3LjAnLCAnLXRuJywgJzgnLCAnLW1hJywgJzIwMCcsICctbWV0YWxfYmluZGluZycsICctaW1hZScsICc8aW5maWxlLm1hZT4nLCAnLW9tYWUnLCAnPG91dGZpbGUubWFlPic=

> <r_lp_tautomer_probability>
1

> <r_epik_Ionization_Penalty>
0.00368263

> <r_epik_Ionization_Penalty_Charging>
0

> <r_epik_Ionization_Penalty_Neutral>
0.00368263

> <r_epik_State_Penalty>
0.00259417

> <r_epik_Charging_Adjusted_Penalty>
0.00259417

> <i_epik_Tot_Q>
0

> <i_epik_Tot_abs_Q>
0

> <r_epik_Metal_State_Penalty>
-0

> <b_epik_Metal_Only>
0

> <s_lp_Force_Field>
OPLS_2005

> <r_lp_Energy>
11.6854

> <b_lp_Chiralities_Consistent>
1

> <s_lp_Variant>
AV-unprocessed.smi:2274-1

> <Gold.Version>
5.8.1

> <Gold.Id.Protein>
6NUR|6NUR_protein|mol2

> <Gold.PLP.Fitness>
47.2090

> <Gold.PLP.PLP>
-40.6058

> <Gold.PLP.part.hbond>
-3.0000

> <Gold.PLP.part.metal>
0.0000

> <Gold.PLP.part.buried>
-4.6015

> <Gold.PLP.part.nonpolar>
-33.2331

> <Gold.PLP.part.repulsive>
0.4197

> <Gold.PLP.ligand.clash>
0.0000

> <Gold.PLP.ligand.torsion>
0.8171

> <Gold.PLP.Chemscore.Hbond>
2.6335

> <Gold.PLP.Chemscore.CHOScore>
0.0000

> <Gold.PLP.Chemscore.Metal>
0.0000

> <Gold.Chemscore.Hbonds>
donor molecule, donor type, donor heavy atom, donor atom, acceptor molecule, acceptor atom, score
      L1  H     8    30       P1  8028  0.94
      L1  H    11    31       P1  8028  1.00
      P1  H  7997  8008       L1     4  0.82

> <Gold.PLP.Chemscore.Internal.Correction>
0.3368

> <Gold.Rescore>
     Score         DG    S(hbond)    S(metal)    S(lipo)     H(rot)  DE(clash)    DE(int)     intcor
     19.37     -21.98       2.41        0.00     104.01       1.46       0.40       2.20       ----

> <Gold.Chemscore.Fitness>
19.3742

> <Gold.Chemscore.DG>
-21.9762

> <Gold.Chemscore.ZeroCoef>
-5.4800

> <Gold.Chemscore.Hbond>
2.4149

> <Gold.Chemscore.Metal>
0.0000

> <Gold.Chemscore.Lipo>
104.0145

> <Gold.Chemscore.Internal_Hbond>
0.0000

> <Gold.Chemscore.DEClash>
0.4026

> <Gold.Chemscore.DEInternal>
2.1995

> <Gold.Chemscore.Rot>
1.4606

> <Gold.Chemscore.Internal.Correction>
   9.000000E+99

> <Gold.Chemscore.Hbonds>
donor molecule, donor type, donor heavy atom, donor atom, acceptor molecule, acceptor atom, score
      L1  H     8    30       P1  8028  0.90
      L1  H    11    31       P1  8028  0.97
      P1  H  7997  8008       L1     4  0.48

> <Gold.Chemscore.Hbond.Weighted>
-8.0658

> <Gold.Chemscore.Metal.Weighted>
-0.0000

> <Gold.Chemscore.Lipo.Weighted>
-12.1697

> <Gold.Chemscore.Internal_Hbond.Weighted>
0.0000

> <Gold.Chemscore.DEClash.Weighted>
0.4026

> <Gold.Chemscore.DEInternal.Weighted>
2.1995

> <Gold.Chemscore.Rot.Weighted>
3.7393

> <Gold.Chemscore.Internal.Correction.Weighted>
   9.000000E+99

> <Gold.Protein.RotatedTorsions>
[ 6907 6896 6895 6894 ] final   69.56 input  -60.11 | X-H torsion
[ 7974 7965 7964 7962 ] final   12.76 input  175.53 | X-H torsion
[ 8008 7997 7996 7995 ] final  -80.80 input   59.86 | X-H torsion
[ 10167 10162 10161 10158 ] final  134.23 input  -65.29 | X-H torsion
[ 10718 10713 10712 10709 ] final -168.89 input   66.30 | X-H torsion
[ 10763 10752 10751 10750 ] final  155.10 input  -60.55 | X-H torsion
[ 11005 11000 10999 10996 ] final  -52.05 input  -57.11 | X-H torsion

> <Gold.Protein.ActiveResidues>
 VAL166  LYS551  ARG553  GLY616  TRP617  ASP618  TYR619  PRO620  LYS621  CYS622 
 ASP623  PHE694  ASN695  SER759  ASP760  ASP761  ALA762  ILE779  LEU786  VAL792 
 PHE793  MET794  SER795  GLU796  ALA797  LYS798  CYS799  TRP800  GLU811  SER814 

> <Gold.Protein.RotatedAtoms>
  152.4694  134.4998  159.9720 H   0  0  0  0  0  0  0  0  0  0  0  0  # atno 6907 bound_to 6896
  151.5028  133.3495  159.2880 H   0  0  0  0  0  0  0  0  0  0  0  0  # atno 6908 bound_to 6896
  150.8695  134.8093  159.7205 H   0  0  0  0  0  0  0  0  0  0  0  0  # atno 6909 bound_to 6896
  146.2344  139.9289  142.8499 H   0  0  0  0  0  0  0  0  0  0  0  0  # atno 7974 bound_to 7965
  154.5919  140.0657  156.9250 H   0  0  0  0  0  0  0  0  0  0  0  0  # atno 8008 bound_to 7997
  155.2281  140.3335  155.4288 H   0  0  0  0  0  0  0  0  0  0  0  0  # atno 8009 bound_to 7997
  156.2261  140.1820  156.7343 H   0  0  0  0  0  0  0  0  0  0  0  0  # atno 8010 bound_to 7997
  139.5264  144.6577  151.5110 H   0  0  0  0  0  0  0  0  0  0  0  0  # atno 10167 bound_to 10162
  156.7035  130.9206  151.3082 H   0  0  0  0  0  0  0  0  0  0  0  0  # atno 10718 bound_to 10713
  154.1630  135.2808  155.3103 H   0  0  0  0  0  0  0  0  0  0  0  0  # atno 10763 bound_to 10752
  154.6133  135.5491  153.7499 H   0  0  0  0  0  0  0  0  0  0  0  0  # atno 10764 bound_to 10752
  153.0187  135.6421  154.1771 H   0  0  0  0  0  0  0  0  0  0  0  0  # atno 10765 bound_to 10752
  141.0904  133.6634  156.3967 H   0  0  0  0  0  0  0  0  0  0  0  0  # atno 11005 bound_to 11000
  145.2063  140.9876  143.4126 LP  0  0  0  0  0  0  0  0  0  0  0  0  # atno 17320 bound_to 7965
  144.9730  139.3861  143.6300 LP  0  0  0  0  0  0  0  0  0  0  0  0  # atno 17321 bound_to 7965
  140.6411  143.8888  150.6692 LP  0  0  0  0  0  0  0  0  0  0  0  0  # atno 17342 bound_to 10162
  140.2222  143.3800  152.1633 LP  0  0  0  0  0  0  0  0  0  0  0  0  # atno 17343 bound_to 10162
  157.6964  130.9286  150.0656 LP  0  0  0  0  0  0  0  0  0  0  0  0  # atno 17370 bound_to 10713
  156.1711  130.3646  149.9163 LP  0  0  0  0  0  0  0  0  0  0  0  0  # atno 17371 bound_to 10713
  140.5266  134.6253  157.5336 LP  0  0  0  0  0  0  0  0  0  0  0  0  # atno 17394 bound_to 11000
  139.9729  134.7264  156.0007 LP  0  0  0  0  0  0  0  0  0  0  0  0  # atno 17395 bound_to 11000

$$$$
