AV-unprocessed.smi:1429|AV-procd|sdf|5820|dock2
  -GOLD-   22720 5473D 1   1.00000     0.00000
 Structure written by MMmdl.
 29 30  0  0  0  0  0  0  0  0  2 V2000
  148.6667  141.3132  154.6685 C   0  0  0  0  0  0  0  0  0  0  0  0
  149.9682  140.7587  155.1376 C   0  0  0  0  0  0  0  0  0  0  0  0
  150.8398  140.1613  154.3238 N   0  0  0  0  0  0  0  0  0  0  0  0
  151.9717  139.7318  154.9990 N   0  0  0  0  0  0  0  0  0  0  0  0
  151.9508  140.0058  156.3170 C   0  0  0  0  0  0  0  0  0  0  0  0
  152.9168  139.7056  157.2143 N   0  5  0  0  0  0  0  0  0  0  0  0
  152.9072  140.0493  158.5277 C   0  0  0  0  0  0  0  0  0  0  0  0
  153.0329  139.3033  159.5008 O   0  0  0  0  0  0  0  0  0  0  0  0
  152.7383  141.3634  158.7267 N   0  0  0  0  0  0  0  0  0  0  0  0
  152.6868  142.0176  160.0284 C   0  0  0  0  0  0  0  0  0  0  0  0
  152.6537  143.5469  159.8756 C   0  0  2  0  0  0  0  0  0  0  0  0
  151.8464  144.2736  160.9335 C   0  0  0  0  0  0  0  0  0  0  0  0
  151.5972  145.6233  160.2674 C   0  0  0  0  0  0  0  0  0  0  0  0
  151.5485  145.3656  158.8666 O   0  0  0  0  0  0  0  0  0  0  0  0
  151.9637  144.0289  158.6003 C   0  0  0  0  0  0  0  0  0  0  0  0
  150.4781  140.8397  156.8134 S   0  0  0  0  0  0  0  0  0  0  0  0
  148.5434  141.1527  153.5970 H   0  0  0  0  0  0  0  0  0  0  0  0
  148.6241  142.3838  154.8688 H   0  0  0  0  0  0  0  0  0  0  0  0
  147.8443  140.8250  155.1917 H   0  0  0  0  0  0  0  0  0  0  0  0
  152.6390  141.9508  157.9118 H   0  0  0  0  0  0  0  0  0  0  0  0
  151.7978  141.6806  160.5634 H   0  0  0  0  0  0  0  0  0  0  0  0
  153.5517  141.7142  160.6208 H   0  0  0  0  0  0  0  0  0  0  0  0
  153.6740  143.9349  159.8856 H   0  0  0  0  0  0  0  0  0  0  0  0
  150.8989  143.7613  161.1074 H   0  0  0  0  0  0  0  0  0  0  0  0
  152.3666  144.3618  161.8876 H   0  0  0  0  0  0  0  0  0  0  0  0
  150.6802  146.0972  160.6184 H   0  0  0  0  0  0  0  0  0  0  0  0
  152.4264  146.3036  160.4652 H   0  0  0  0  0  0  0  0  0  0  0  0
  152.6168  143.9808  157.7286 H   0  0  0  0  0  0  0  0  0  0  0  0
  151.0765  143.4298  158.3906 H   0  0  0  0  0  0  0  0  0  0  0  0
  1  2  1  0  0  0  0
  1 17  1  0  0  0  0
  1 18  1  0  0  0  0
  1 19  1  0  0  0  0
  2 16  1  0  0  0  0
  2  3  2  0  0  0  0
  3  4  1  0  0  0  0
  4  5  2  0  0  0  0
  5  6  1  0  0  0  0
  5 16  1  0  0  0  0
  6  7  1  0  0  0  0
  7  8  2  0  0  0  0
  7  9  1  0  0  0  0
  9 10  1  0  0  0  0
  9 20  1  0  0  0  0
 10 11  1  0  0  0  0
 10 21  1  0  0  0  0
 10 22  1  0  0  0  0
 11 15  1  0  0  0  0
 11 12  1  0  0  0  0
 11 23  1  0  0  0  0
 12 13  1  0  0  0  0
 12 24  1  0  0  0  0
 12 25  1  0  0  0  0
 13 14  1  0  0  0  0
 13 26  1  0  0  0  0
 13 27  1  0  0  0  0
 14 15  1  0  0  0  0
 15 28  1  0  0  0  0
 15 29  1  0  0  0  0
M  CHG  1   6  -1
M  END
> <s_m_source_file>
AV-unprocessed.smi

> <i_m_source_file_index>
1429

> <i_lp_mmshare_version>
43012

> <i_f3d_flags>
0

> <s_epik_input>
W0NIM11jMW5uYyhzMSlbTkhdQyg9TylbTkhdW0NIMl1bQ0BASF0yW0NIMl1bQ0gyXU9bQ0gyXTI=

> <s_epik_cmdline>
J2VwaWtfcHl0aG9uJywgJy1waCcsICc3LjAnLCAnLXRuJywgJzgnLCAnLW1hJywgJzIwMCcsICctbWV0YWxfYmluZGluZycsICctaW1hZScsICc8aW5maWxlLm1hZT4nLCAnLW9tYWUnLCAnPG91dGZpbGUubWFlPic=

> <r_lp_tautomer_probability>
1

> <r_epik_Ionization_Penalty>
4.4122

> <r_epik_Ionization_Penalty_Charging>
4.26477

> <r_epik_Ionization_Penalty_Neutral>
0.147429

> <r_epik_State_Penalty>
4.26433

> <r_epik_Charging_Adjusted_Penalty>
8.5291

> <i_epik_Tot_Q>
-1

> <i_epik_Tot_abs_Q>
1

> <r_epik_Metal_State_Penalty>
0.713483

> <b_epik_Metal_Only>
1

> <s_lp_Force_Field>
OPLS_2005

> <r_lp_Energy>
20.5351

> <b_lp_Chiralities_Consistent>
1

> <s_lp_Variant>
AV-unprocessed.smi:1429-3

> <Gold.Version>
5.8.1

> <Gold.Id.Protein>
6NUR|6NUR_protein|mol2

> <Gold.PLP.Fitness>
42.7511

> <Gold.PLP.PLP>
-36.6588

> <Gold.PLP.part.hbond>
-3.2148

> <Gold.PLP.part.metal>
0.0000

> <Gold.PLP.part.buried>
-5.1032

> <Gold.PLP.part.nonpolar>
-29.2909

> <Gold.PLP.part.repulsive>
0.3133

> <Gold.PLP.ligand.clash>
0.0000

> <Gold.PLP.ligand.torsion>
0.9234

> <Gold.PLP.Chemscore.Hbond>
2.6256

> <Gold.PLP.Chemscore.CHOScore>
0.0000

> <Gold.PLP.Chemscore.Metal>
0.0000

> <Gold.Chemscore.Hbonds>
donor molecule, donor type, donor heavy atom, donor atom, acceptor molecule, acceptor atom, score
      P1  H  7989  7998       L1     3  0.24
      P1  H  7997  8010       L1     6  2.00

> <Gold.PLP.Chemscore.Internal.Correction>
0.0623

> <Gold.Rescore>
     Score         DG    S(hbond)    S(metal)    S(lipo)     H(rot)  DE(clash)    DE(int)     intcor
     11.85     -12.86       0.55        0.00      75.85       1.30       0.05       0.95       ----

> <Gold.Chemscore.Fitness>
11.8545

> <Gold.Chemscore.DG>
-12.8593

> <Gold.Chemscore.ZeroCoef>
-5.4800

> <Gold.Chemscore.Hbond>
0.5472

> <Gold.Chemscore.Metal>
0.0000

> <Gold.Chemscore.Lipo>
75.8515

> <Gold.Chemscore.Internal_Hbond>
0.0000

> <Gold.Chemscore.DEClash>
0.0500

> <Gold.Chemscore.DEInternal>
0.9548

> <Gold.Chemscore.Rot>
1.2980

> <Gold.Chemscore.Internal.Correction>
   9.000000E+99

> <Gold.Chemscore.Hbonds>
donor molecule, donor type, donor heavy atom, donor atom, acceptor molecule, acceptor atom, score
      P1  H  7989  7998       L1     3  0.01
      P1  H  7997  8010       L1     6  0.41

> <Gold.Chemscore.Hbond.Weighted>
-1.8275

> <Gold.Chemscore.Metal.Weighted>
-0.0000

> <Gold.Chemscore.Lipo.Weighted>
-8.8746

> <Gold.Chemscore.Internal_Hbond.Weighted>
0.0000

> <Gold.Chemscore.DEClash.Weighted>
0.0500

> <Gold.Chemscore.DEInternal.Weighted>
0.9548

> <Gold.Chemscore.Rot.Weighted>
3.3229

> <Gold.Chemscore.Internal.Correction.Weighted>
   9.000000E+99

> <Gold.Protein.RotatedTorsions>
[ 6907 6896 6895 6894 ] final   85.96 input  -60.11 | X-H torsion
[ 7974 7965 7964 7962 ] final   27.81 input  175.53 | X-H torsion
[ 8008 7997 7996 7995 ] final   72.85 input   59.86 | X-H torsion
[ 10167 10162 10161 10158 ] final -178.97 input  -65.29 | X-H torsion
[ 10718 10713 10712 10709 ] final   28.67 input   66.30 | X-H torsion
[ 10763 10752 10751 10750 ] final   20.65 input  -60.55 | X-H torsion
[ 11005 11000 10999 10996 ] final  133.44 input  -57.11 | X-H torsion

> <Gold.Protein.ActiveResidues>
 VAL166  LYS551  ARG553  GLY616  TRP617  ASP618  TYR619  PRO620  LYS621  CYS622 
 ASP623  PHE694  ASN695  SER759  ASP760  ASP761  ALA762  ILE779  LEU786  VAL792 
 PHE793  MET794  SER795  GLU796  ALA797  LYS798  CYS799  TRP800  GLU811  SER814 

> <Gold.Protein.RotatedAtoms>
  152.5385  134.2505  159.8896 H   0  0  0  0  0  0  0  0  0  0  0  0  # atno 6907 bound_to 6896
  151.2469  133.4364  159.2617 H   0  0  0  0  0  0  0  0  0  0  0  0  # atno 6908 bound_to 6896
  151.0575  134.9728  159.8299 H   0  0  0  0  0  0  0  0  0  0  0  0  # atno 6909 bound_to 6896
  146.1763  139.7140  142.8932 H   0  0  0  0  0  0  0  0  0  0  0  0  # atno 7974 bound_to 7965
  155.7749  140.3483  155.5266 H   0  0  0  0  0  0  0  0  0  0  0  0  # atno 8008 bound_to 7997
  155.8785  140.0998  157.1522 H   0  0  0  0  0  0  0  0  0  0  0  0  # atno 8009 bound_to 7997
  154.4023  140.1327  156.4154 H   0  0  0  0  0  0  0  0  0  0  0  0  # atno 8010 bound_to 7997
  139.5407  144.2370  152.0890 H   0  0  0  0  0  0  0  0  0  0  0  0  # atno 10167 bound_to 10162
  157.2365  130.7049  149.6338 H   0  0  0  0  0  0  0  0  0  0  0  0  # atno 10718 bound_to 10713
  153.1060  135.6684  153.9586 H   0  0  0  0  0  0  0  0  0  0  0  0  # atno 10763 bound_to 10752
  153.9144  135.3021  155.3450 H   0  0  0  0  0  0  0  0  0  0  0  0  # atno 10764 bound_to 10752
  154.7481  135.5048  153.9315 H   0  0  0  0  0  0  0  0  0  0  0  0  # atno 10765 bound_to 10752
  139.9852  134.9534  156.9726 H   0  0  0  0  0  0  0  0  0  0  0  0  # atno 11005 bound_to 11000
  145.4201  141.0405  143.2968 LP  0  0  0  0  0  0  0  0  0  0  0  0  # atno 17320 bound_to 7965
  144.8242  139.5738  143.6973 LP  0  0  0  0  0  0  0  0  0  0  0  0  # atno 17321 bound_to 7965
  140.1848  144.4809  150.6509 LP  0  0  0  0  0  0  0  0  0  0  0  0  # atno 17342 bound_to 10162
  140.6636  143.2260  151.5797 LP  0  0  0  0  0  0  0  0  0  0  0  0  # atno 17343 bound_to 10162
  155.9672  130.4472  150.5570 LP  0  0  0  0  0  0  0  0  0  0  0  0  # atno 17370 bound_to 10713
  157.3424  131.0719  151.1778 LP  0  0  0  0  0  0  0  0  0  0  0  0  # atno 17371 bound_to 10713
  140.5017  134.1091  155.7252 LP  0  0  0  0  0  0  0  0  0  0  0  0  # atno 17394 bound_to 11000
  141.1518  133.8955  157.2078 LP  0  0  0  0  0  0  0  0  0  0  0  0  # atno 17395 bound_to 11000

$$$$
