AV-unprocessed.smi:2892|AV-procd|sdf|11118|dock1
  -GOLD-   2272015583D 1   1.00000     0.00000
 Structure written by MMmdl.
 42 42  0  0  0  0  0  0  0  0  2 V2000
  147.9187  141.1327  155.5681 C   0  0  0  0  0  0  0  0  0  0  0  0
  148.9684  140.0938  155.9908 C   0  0  0  0  0  0  0  0  0  0  0  0
  150.0431  140.6314  156.9712 C   0  0  2  0  0  0  0  0  0  0  0  0
  150.4779  142.0546  156.5489 C   0  0  0  0  0  0  0  0  0  0  0  0
  151.2528  139.6513  157.0857 C   0  0  2  0  0  0  0  0  0  0  0  0
  152.2207  140.1845  158.0467 N   0  0  0  0  0  0  0  0  0  0  0  0
  152.7891  139.5003  159.0523 C   0  0  0  0  0  0  0  0  0  0  0  0
  152.5294  138.3210  159.2972 O   0  0  0  0  0  0  0  0  0  0  0  0
  153.8029  140.2836  159.8954 C   0  0  0  0  0  0  0  0  0  0  0  0
  153.3042  141.6619  160.2469 C   0  0  0  0  0  0  0  0  0  0  0  0
  153.3362  142.3136  161.5131 C   0  0  0  0  0  0  0  0  0  0  0  0
  152.7697  143.5319  161.2715 C   0  0  0  0  0  0  0  0  0  0  0  0
  152.4252  143.5694  159.9369 N   0  0  0  0  0  0  0  0  0  0  0  0
  151.7997  144.6564  159.1984 C   0  0  0  0  0  0  0  0  0  0  0  0
  152.6221  145.0296  157.9544 C   0  0  0  0  0  0  0  0  0  0  0  0
  151.5503  145.8713  160.1065 C   0  0  0  0  0  0  0  0  0  0  0  0
  152.7485  142.4165  159.3101 N   0  0  0  0  0  0  0  0  0  0  0  0
  151.9679  139.5031  155.7288 C   0  0  0  0  0  0  0  0  0  0  0  0
  151.4182  140.0306  154.7374 O   0  0  0  0  0  0  0  0  0  0  0  0
  153.0494  138.8728  155.7061 O   0  5  0  0  0  0  0  0  0  0  0  0
  147.1438  140.6664  154.9593 H   0  0  0  0  0  0  0  0  0  0  0  0
  148.3529  141.9370  154.9753 H   0  0  0  0  0  0  0  0  0  0  0  0
  147.4322  141.5767  156.4370 H   0  0  0  0  0  0  0  0  0  0  0  0
  148.4235  139.2657  156.4430 H   0  0  0  0  0  0  0  0  0  0  0  0
  149.4511  139.6788  155.1050 H   0  0  0  0  0  0  0  0  0  0  0  0
  149.5791  140.7084  157.9564 H   0  0  0  0  0  0  0  0  0  0  0  0
  150.9605  142.0434  155.5712 H   0  0  0  0  0  0  0  0  0  0  0  0
  151.1754  142.5025  157.2563 H   0  0  0  0  0  0  0  0  0  0  0  0
  149.6310  142.7370  156.4919 H   0  0  0  0  0  0  0  0  0  0  0  0
  150.8943  138.6739  157.4155 H   0  0  0  0  0  0  0  0  0  0  0  0
  152.5057  141.1427  157.9081 H   0  0  0  0  0  0  0  0  0  0  0  0
  154.0209  139.7088  160.7969 H   0  0  0  0  0  0  0  0  0  0  0  0
  154.7404  140.3609  159.3434 H   0  0  0  0  0  0  0  0  0  0  0  0
  153.7240  141.9448  162.4509 H   0  0  0  0  0  0  0  0  0  0  0  0
  152.5869  144.3666  161.9321 H   0  0  0  0  0  0  0  0  0  0  0  0
  150.8290  144.2940  158.8571 H   0  0  0  0  0  0  0  0  0  0  0  0
  152.1115  145.7892  157.3620 H   0  0  0  0  0  0  0  0  0  0  0  0
  152.7783  144.1618  157.3129 H   0  0  0  0  0  0  0  0  0  0  0  0
  153.6020  145.4249  158.2248 H   0  0  0  0  0  0  0  0  0  0  0  0
  151.0140  146.6556  159.5721 H   0  0  0  0  0  0  0  0  0  0  0  0
  152.4855  146.2990  160.4698 H   0  0  0  0  0  0  0  0  0  0  0  0
  150.9517  145.5955  160.9751 H   0  0  0  0  0  0  0  0  0  0  0  0
  1  2  1  0  0  0  0
  1 21  1  0  0  0  0
  1 22  1  0  0  0  0
  1 23  1  0  0  0  0
  2  3  1  0  0  0  0
  2 24  1  0  0  0  0
  2 25  1  0  0  0  0
  3  4  1  0  0  0  0
  3  5  1  0  0  0  0
  3 26  1  0  0  0  0
  4 27  1  0  0  0  0
  4 28  1  0  0  0  0
  4 29  1  0  0  0  0
  5  6  1  0  0  0  0
  5 18  1  0  0  0  0
  5 30  1  0  0  0  0
  6  7  1  0  0  0  0
  6 31  1  0  0  0  0
  7  8  2  0  0  0  0
  7  9  1  0  0  0  0
  9 10  1  0  0  0  0
  9 32  1  0  0  0  0
  9 33  1  0  0  0  0
 10 17  2  0  0  0  0
 10 11  1  0  0  0  0
 11 12  2  0  0  0  0
 11 34  1  0  0  0  0
 12 13  1  0  0  0  0
 12 35  1  0  0  0  0
 13 14  1  0  0  0  0
 13 17  1  0  0  0  0
 14 15  1  0  0  0  0
 14 16  1  0  0  0  0
 14 36  1  0  0  0  0
 15 37  1  0  0  0  0
 15 38  1  0  0  0  0
 15 39  1  0  0  0  0
 16 40  1  0  0  0  0
 16 41  1  0  0  0  0
 16 42  1  0  0  0  0
 18 19  2  0  0  0  0
 18 20  1  0  0  0  0
M  CHG  1  20  -1
M  END
> <s_m_source_file>
AV-unprocessed.smi

> <i_m_source_file_index>
2892

> <i_lp_mmshare_version>
43012

> <i_f3d_flags>
0

> <s_epik_input>
W0NIM11bQ0gyXVtDQEhdKFtDSDNdKVtDQEBIXShDKD1PKVtPSF0pW05IXUMoPU8pW0NIMl1jMVtjSF1bY0hdbihuMSlbQ0hdKFtDSDNdKVtDSDNd

> <s_epik_cmdline>
J2VwaWtfcHl0aG9uJywgJy1waCcsICc3LjAnLCAnLXRuJywgJzgnLCAnLW1hJywgJzIwMCcsICctbWV0YWxfYmluZGluZycsICctaW1hZScsICc8aW5maWxlLm1hZT4nLCAnLW9tYWUnLCAnPG91dGZpbGUubWFlPic=

> <r_lp_tautomer_probability>
1

> <r_epik_Ionization_Penalty>
0.000286846

> <r_epik_Ionization_Penalty_Charging>
0.000224481

> <r_epik_Ionization_Penalty_Neutral>
6.23655e-05

> <r_epik_State_Penalty>
-0

> <r_epik_Charging_Adjusted_Penalty>
0.000224481

> <i_epik_Tot_Q>
-1

> <i_epik_Tot_abs_Q>
1

> <r_epik_Metal_State_Penalty>
-0

> <b_epik_Metal_Only>
0

> <s_lp_Force_Field>
OPLS_2005

> <r_lp_Energy>
15.4928

> <b_lp_Chiralities_Consistent>
1

> <s_lp_Variant>
AV-unprocessed.smi:2892-1

> <Gold.Version>
5.8.1

> <Gold.Id.Protein>
6NUR|6NUR_protein|mol2

> <Gold.PLP.Fitness>
54.6135

> <Gold.PLP.PLP>
-46.7461

> <Gold.PLP.part.hbond>
-1.9208

> <Gold.PLP.part.metal>
0.0000

> <Gold.PLP.part.buried>
-7.6321

> <Gold.PLP.part.nonpolar>
-38.2727

> <Gold.PLP.part.repulsive>
0.1537

> <Gold.PLP.ligand.clash>
0.0000

> <Gold.PLP.ligand.torsion>
0.7928

> <Gold.PLP.Chemscore.Hbond>
3.0000

> <Gold.PLP.Chemscore.CHOScore>
0.0000

> <Gold.PLP.Chemscore.Metal>
0.0000

> <Gold.Chemscore.Hbonds>
donor molecule, donor type, donor heavy atom, donor atom, acceptor molecule, acceptor atom, score
      P1  H  7989  7998       L1    19  0.94
      P1  H  7997  8008       L1    20  2.00

> <Gold.PLP.Chemscore.Internal.Correction>
0.4529

> <Gold.Rescore>
     Score         DG    S(hbond)    S(metal)    S(lipo)     H(rot)  DE(clash)    DE(int)     intcor
     13.66     -18.00       1.95        0.00     103.51       2.39       0.07       4.27       ----

> <Gold.Chemscore.Fitness>
13.6590

> <Gold.Chemscore.DG>
-18.0011

> <Gold.Chemscore.ZeroCoef>
-5.4800

> <Gold.Chemscore.Hbond>
1.9520

> <Gold.Chemscore.Metal>
0.0000

> <Gold.Chemscore.Lipo>
103.5112

> <Gold.Chemscore.Internal_Hbond>
0.0000

> <Gold.Chemscore.DEClash>
0.0737

> <Gold.Chemscore.DEInternal>
4.2684

> <Gold.Chemscore.Rot>
2.3865

> <Gold.Chemscore.Internal.Correction>
   9.000000E+99

> <Gold.Chemscore.Hbonds>
donor molecule, donor type, donor heavy atom, donor atom, acceptor molecule, acceptor atom, score
      P1  H  7989  7998       L1    19  0.90
      P1  H  7997  8008       L1    20  0.48

> <Gold.Chemscore.Hbond.Weighted>
-6.5196

> <Gold.Chemscore.Metal.Weighted>
-0.0000

> <Gold.Chemscore.Lipo.Weighted>
-12.1108

> <Gold.Chemscore.Internal_Hbond.Weighted>
0.0000

> <Gold.Chemscore.DEClash.Weighted>
0.0737

> <Gold.Chemscore.DEInternal.Weighted>
4.2684

> <Gold.Chemscore.Rot.Weighted>
6.1093

> <Gold.Chemscore.Internal.Correction.Weighted>
   9.000000E+99

> <Gold.Protein.RotatedTorsions>
[ 6907 6896 6895 6894 ] final   60.50 input  -60.11 | X-H torsion
[ 7974 7965 7964 7962 ] final   62.94 input  175.53 | X-H torsion
[ 8008 7997 7996 7995 ] final  -47.00 input   59.86 | X-H torsion
[ 10167 10162 10161 10158 ] final    4.57 input  -65.29 | X-H torsion
[ 10718 10713 10712 10709 ] final  127.73 input   66.30 | X-H torsion
[ 10763 10752 10751 10750 ] final  161.00 input  -60.55 | X-H torsion
[ 11005 11000 10999 10996 ] final   42.05 input  -57.11 | X-H torsion

> <Gold.Protein.ActiveResidues>
 VAL166  LYS551  ARG553  GLY616  TRP617  ASP618  TYR619  PRO620  LYS621  CYS622 
 ASP623  PHE694  ASN695  SER759  ASP760  ASP761  ALA762  ILE779  LEU786  VAL792 
 PHE793  MET794  SER795  GLU796  ALA797  LYS798  CYS799  TRP800  GLU811  SER814 

> <Gold.Protein.RotatedAtoms>
  152.4008  134.6289  160.0070 H   0  0  0  0  0  0  0  0  0  0  0  0  # atno 6907 bound_to 6896
  151.6495  133.3316  159.3156 H   0  0  0  0  0  0  0  0  0  0  0  0  # atno 6908 bound_to 6896
  150.7909  134.6974  159.6575 H   0  0  0  0  0  0  0  0  0  0  0  0  # atno 6909 bound_to 6896
  145.8676  139.3356  143.0782 H   0  0  0  0  0  0  0  0  0  0  0  0  # atno 7974 bound_to 7965
  154.4012  140.1357  156.4104 H   0  0  0  0  0  0  0  0  0  0  0  0  # atno 8008 bound_to 7997
  155.7739  140.3483  155.5241 H   0  0  0  0  0  0  0  0  0  0  0  0  # atno 8009 bound_to 7997
  155.8740  140.0976  157.1521 H   0  0  0  0  0  0  0  0  0  0  0  0  # atno 8010 bound_to 7997
  140.6528  143.7503  150.7603 H   0  0  0  0  0  0  0  0  0  0  0  0  # atno 10167 bound_to 10162
  157.5307  131.1098  150.9014 H   0  0  0  0  0  0  0  0  0  0  0  0  # atno 10718 bound_to 10713
  154.2561  135.2770  155.2797 H   0  0  0  0  0  0  0  0  0  0  0  0  # atno 10763 bound_to 10752
  154.5424  135.5699  153.6854 H   0  0  0  0  0  0  0  0  0  0  0  0  # atno 10764 bound_to 10752
  152.9971  135.6254  154.2710 H   0  0  0  0  0  0  0  0  0  0  0  0  # atno 10765 bound_to 10752
  140.1776  134.4143  155.8219 H   0  0  0  0  0  0  0  0  0  0  0  0  # atno 11005 bound_to 11000
  145.9175  140.9138  143.0422 LP  0  0  0  0  0  0  0  0  0  0  0  0  # atno 17320 bound_to 7965
  144.6726  140.1243  143.7448 LP  0  0  0  0  0  0  0  0  0  0  0  0  # atno 17321 bound_to 7965
  140.1157  143.4658  152.2343 LP  0  0  0  0  0  0  0  0  0  0  0  0  # atno 17342 bound_to 10162
  139.5745  144.7480  151.3801 LP  0  0  0  0  0  0  0  0  0  0  0  0  # atno 17343 bound_to 10162
  156.9596  130.5450  149.5285 LP  0  0  0  0  0  0  0  0  0  0  0  0  # atno 17370 bound_to 10713
  156.0420  130.5501  150.8793 LP  0  0  0  0  0  0  0  0  0  0  0  0  # atno 17371 bound_to 10713
  141.2221  133.6985  156.7874 LP  0  0  0  0  0  0  0  0  0  0  0  0  # atno 17394 bound_to 11000
  140.2304  134.8690  157.3471 LP  0  0  0  0  0  0  0  0  0  0  0  0  # atno 17395 bound_to 11000

$$$$
