AV-unprocessed.smi:174|AV-procd|sdf|1426|dock1
  -GOLD-   2262019203D 1   1.00000     0.00000
 Structure written by MMmdl.
 51 54  0  0  0  0  0  0  0  0  1 V2000
  148.9259  131.5016  153.2413 N   0  0  0  0  0  0  0  0  0  0  0  0
  148.3461  132.6037  153.7219 C   0  0  0  0  0  0  0  0  0  0  0  0
  147.8501  133.4545  152.9845 O   0  0  0  0  0  0  0  0  0  0  0  0
  148.3471  132.7687  155.2487 C   0  0  0  0  0  0  0  0  0  0  0  0
  149.0904  133.9526  155.7102 N   0  0  0  0  0  0  0  0  0  0  0  0
  148.5386  135.2610  155.3433 C   0  0  0  0  0  0  0  0  0  0  0  0
  149.6352  136.3116  155.1442 C   0  0  0  0  0  0  0  0  0  0  0  0
  150.4978  136.3672  156.3177 N   0  0  0  0  0  0  0  0  0  0  0  0
  151.2527  137.4761  156.5556 C   0  0  0  0  0  0  0  0  0  0  0  0
  151.3738  138.3828  155.5493 N   0  0  0  0  0  0  0  0  0  0  0  0
  152.1058  139.4881  155.7079 C   0  0  0  0  0  0  0  0  0  0  0  0
  152.7917  139.8862  156.7792 N   0  0  0  0  0  0  0  0  0  0  0  0
  152.6707  138.9920  157.8009 C   0  0  0  0  0  0  0  0  0  0  0  0
  151.9300  137.7735  157.7790 C   0  0  0  0  0  0  0  0  0  0  0  0
  152.0404  137.1471  159.0176 N   0  0  0  0  0  0  0  0  0  0  0  0
  152.8066  137.9364  159.7188 C   0  0  0  0  0  0  0  0  0  0  0  0
  153.2311  139.0676  159.0638 N   0  0  0  0  0  0  0  0  0  0  0  0
  154.0871  140.1110  159.6012 C   0  0  0  0  0  0  0  0  0  0  0  0
  153.3678  140.9839  160.6486 C   0  0  1  0  0  0  0  0  0  0  0  0
  154.3206  141.5278  161.5425 O   0  0  0  0  0  0  0  0  0  0  0  0
  152.5816  142.1377  159.9996 C   0  0  2  0  0  0  0  0  0  0  0  0
  153.4448  143.1563  159.2552 C   0  0  0  0  0  0  0  0  0  0  0  0
  152.5763  144.4027  159.2392 C   0  0  0  0  0  0  0  0  0  0  0  0
  151.5703  144.1667  160.3699 C   0  0  0  0  0  0  0  0  0  0  0  0
  151.9731  142.9521  160.9898 O   0  0  0  0  0  0  0  0  0  0  0  0
  150.9393  135.1088  156.9410 C   0  0  0  0  0  0  0  0  0  0  0  0
  150.1903  133.8385  156.4944 C   0  0  0  0  0  0  0  0  0  0  0  0
  150.6332  132.7495  156.8604 O   0  0  0  0  0  0  0  0  0  0  0  0
  148.9469  131.3410  152.2445 H   0  0  0  0  0  0  0  0  0  0  0  0
  149.3354  130.8294  153.8736 H   0  0  0  0  0  0  0  0  0  0  0  0
  147.3167  132.8106  155.6071 H   0  0  0  0  0  0  0  0  0  0  0  0
  148.7657  131.8624  155.6872 H   0  0  0  0  0  0  0  0  0  0  0  0
  147.9409  135.1947  154.4340 H   0  0  0  0  0  0  0  0  0  0  0  0
  147.8606  135.5790  156.1368 H   0  0  0  0  0  0  0  0  0  0  0  0
  150.2333  136.0715  154.2641 H   0  0  0  0  0  0  0  0  0  0  0  0
  149.1590  137.2771  154.9707 H   0  0  0  0  0  0  0  0  0  0  0  0
  152.1477  140.1476  154.8536 H   0  0  0  0  0  0  0  0  0  0  0  0
  153.0854  137.7137  160.7385 H   0  0  0  0  0  0  0  0  0  0  0  0
  154.9748  139.6485  160.0347 H   0  0  0  0  0  0  0  0  0  0  0  0
  154.4336  140.7263  158.7701 H   0  0  0  0  0  0  0  0  0  0  0  0
  152.6848  140.3607  161.2273 H   0  0  0  0  0  0  0  0  0  0  0  0
  154.9168  142.0725  161.0514 H   0  0  0  0  0  0  0  0  0  0  0  0
  151.8061  141.7490  159.3363 H   0  0  0  0  0  0  0  0  0  0  0  0
  154.3594  143.3556  159.8153 H   0  0  0  0  0  0  0  0  0  0  0  0
  153.7274  142.8233  158.2562 H   0  0  0  0  0  0  0  0  0  0  0  0
  153.1701  145.3034  159.3976 H   0  0  0  0  0  0  0  0  0  0  0  0
  152.0573  144.5054  158.2856 H   0  0  0  0  0  0  0  0  0  0  0  0
  151.5567  144.9824  161.0931 H   0  0  0  0  0  0  0  0  0  0  0  0
  150.5626  144.0509  159.9687 H   0  0  0  0  0  0  0  0  0  0  0  0
  152.0027  134.9653  156.7424 H   0  0  0  0  0  0  0  0  0  0  0  0
  150.8236  135.1824  158.0232 H   0  0  0  0  0  0  0  0  0  0  0  0
  1  2  1  0  0  0  0
  1 29  1  0  0  0  0
  1 30  1  0  0  0  0
  2  3  2  0  0  0  0
  2  4  1  0  0  0  0
  4  5  1  0  0  0  0
  4 31  1  0  0  0  0
  4 32  1  0  0  0  0
  5 27  1  0  0  0  0
  5  6  1  0  0  0  0
  6  7  1  0  0  0  0
  6 33  1  0  0  0  0
  6 34  1  0  0  0  0
  7  8  1  0  0  0  0
  7 35  1  0  0  0  0
  7 36  1  0  0  0  0
  8  9  1  0  0  0  0
  8 26  1  0  0  0  0
  9 14  1  0  0  0  0
  9 10  2  0  0  0  0
 10 11  1  0  0  0  0
 11 12  2  0  0  0  0
 11 37  1  0  0  0  0
 12 13  1  0  0  0  0
 13 17  1  0  0  0  0
 13 14  2  0  0  0  0
 14 15  1  0  0  0  0
 15 16  2  0  0  0  0
 16 17  1  0  0  0  0
 16 38  1  0  0  0  0
 17 18  1  0  0  0  0
 18 19  1  0  0  0  0
 18 39  1  0  0  0  0
 18 40  1  0  0  0  0
 19 20  1  0  0  0  0
 19 21  1  0  0  0  0
 19 41  1  0  0  0  0
 20 42  1  0  0  0  0
 21 25  1  0  0  0  0
 21 22  1  0  0  0  0
 21 43  1  0  0  0  0
 22 23  1  0  0  0  0
 22 44  1  0  0  0  0
 22 45  1  0  0  0  0
 23 24  1  0  0  0  0
 23 46  1  0  0  0  0
 23 47  1  0  0  0  0
 24 25  1  0  0  0  0
 24 48  1  0  0  0  0
 24 49  1  0  0  0  0
 26 27  1  0  0  0  0
 26 50  1  0  0  0  0
 26 51  1  0  0  0  0
 27 28  2  0  0  0  0
M  END
> <s_m_source_file>
AV-unprocessed.smi

> <i_m_source_file_index>
174

> <i_lp_mmshare_version>
43012

> <i_f3d_flags>
0

> <s_epik_input>
W05IMl1DKD1PKVtDSDJdTjFbQ0gyXVtDSDJdTihbQ0gyXUMxPU8pYyhuW2NIXW4yKWMoYzIzKW5bY0hdbjNbQ0gyXVtDQEhdKFtPSF0pW0NAQEhdNFtDSDJdW0NIMl1bQ0gyXU80

> <s_epik_cmdline>
J2VwaWtfcHl0aG9uJywgJy1waCcsICc3LjAnLCAnLXRuJywgJzgnLCAnLW1hJywgJzIwMCcsICctbWV0YWxfYmluZGluZycsICctaW1hZScsICc8aW5maWxlLm1hZT4nLCAnLW9tYWUnLCAnPG91dGZpbGUubWFlPic=

> <r_lp_tautomer_probability>
1

> <r_epik_Ionization_Penalty>
0.000250477

> <r_epik_Ionization_Penalty_Charging>
0

> <r_epik_Ionization_Penalty_Neutral>
0.000250477

> <r_epik_State_Penalty>
-0

> <r_epik_Charging_Adjusted_Penalty>
0

> <i_epik_Tot_Q>
0

> <i_epik_Tot_abs_Q>
0

> <r_epik_Metal_State_Penalty>
-0

> <b_epik_Metal_Only>
0

> <s_lp_Force_Field>
OPLS_2005

> <r_lp_Energy>
35.93

> <b_lp_Chiralities_Consistent>
1

> <s_lp_Variant>
AV-unprocessed.smi:174-2

> <Gold.Version>
5.8.1

> <Gold.Id.Protein>
6NUR|6NUR_protein|mol2

> <Gold.PLP.Fitness>
48.1755

> <Gold.PLP.PLP>
-42.0331

> <Gold.PLP.part.hbond>
-4.2015

> <Gold.PLP.part.metal>
0.0000

> <Gold.PLP.part.buried>
-4.9235

> <Gold.PLP.part.nonpolar>
-33.3711

> <Gold.PLP.part.repulsive>
0.3048

> <Gold.PLP.ligand.clash>
0.0000

> <Gold.PLP.ligand.torsion>
0.7506

> <Gold.PLP.Chemscore.Hbond>
2.4680

> <Gold.PLP.Chemscore.CHOScore>
0.0000

> <Gold.PLP.Chemscore.Metal>
0.0000

> <Gold.Chemscore.Hbonds>
donor molecule, donor type, donor heavy atom, donor atom, acceptor molecule, acceptor atom, score
      L1  H     1    29       P1 10747  1.00
      P1  H  6896  6907       L1    15  0.43
      P1  H  7997  8008       L1    12  1.00

> <Gold.PLP.Chemscore.Internal.Correction>
0.2396

> <Gold.Rescore>
     Score         DG    S(hbond)    S(metal)    S(lipo)     H(rot)  DE(clash)    DE(int)     intcor
     13.66     -14.57       2.69        0.00      76.65       3.46       0.01       0.90       ----

> <Gold.Chemscore.Fitness>
13.6628

> <Gold.Chemscore.DG>
-14.5728

> <Gold.Chemscore.ZeroCoef>
-5.4800

> <Gold.Chemscore.Hbond>
2.6887

> <Gold.Chemscore.Metal>
0.0000

> <Gold.Chemscore.Lipo>
76.6476

> <Gold.Chemscore.Internal_Hbond>
0.0000

> <Gold.Chemscore.DEClash>
0.0089

> <Gold.Chemscore.DEInternal>
0.9011

> <Gold.Chemscore.Rot>
3.4591

> <Gold.Chemscore.Internal.Correction>
   9.000000E+99

> <Gold.Chemscore.Hbonds>
donor molecule, donor type, donor heavy atom, donor atom, acceptor molecule, acceptor atom, score
      L1  H     1    29       P1 10747  0.67
      P1  H  6896  6907       L1    15  0.38
      P1  H  7997  8008       L1    12  0.57

> <Gold.Chemscore.Hbond.Weighted>
-8.9804

> <Gold.Chemscore.Metal.Weighted>
-0.0000

> <Gold.Chemscore.Lipo.Weighted>
-8.9678

> <Gold.Chemscore.Internal_Hbond.Weighted>
0.0000

> <Gold.Chemscore.DEClash.Weighted>
0.0089

> <Gold.Chemscore.DEInternal.Weighted>
0.9011

> <Gold.Chemscore.Rot.Weighted>
8.8553

> <Gold.Chemscore.Internal.Correction.Weighted>
   9.000000E+99

> <Gold.Protein.RotatedTorsions>
[ 6907 6896 6895 6894 ] final   -6.26 input  -60.11 | X-H torsion
[ 7974 7965 7964 7962 ] final   95.58 input  175.53 | X-H torsion
[ 8008 7997 7996 7995 ] final  -45.44 input   59.86 | X-H torsion
[ 10167 10162 10161 10158 ] final   48.59 input  -65.29 | X-H torsion
[ 10718 10713 10712 10709 ] final  -11.26 input   66.30 | X-H torsion
[ 10763 10752 10751 10750 ] final  130.35 input  -60.55 | X-H torsion
[ 11005 11000 10999 10996 ] final   33.07 input  -57.11 | X-H torsion

> <Gold.Protein.ActiveResidues>
 VAL166  LYS551  ARG553  GLY616  TRP617  ASP618  TYR619  PRO620  LYS621  CYS622 
 ASP623  PHE694  ASN695  SER759  ASP760  ASP761  ALA762  ILE779  LEU786  VAL792 
 PHE793  MET794  SER795  GLU796  ALA797  LYS798  CYS799  TRP800  GLU811  SER814 

> <Gold.Protein.RotatedAtoms>
  151.4684  135.1044  159.9744 H   0  0  0  0  0  0  0  0  0  0  0  0  # atno 6907 bound_to 6896
  152.4826  133.8288  159.7103 H   0  0  0  0  0  0  0  0  0  0  0  0  # atno 6908 bound_to 6896
  150.8909  133.7183  159.2932 H   0  0  0  0  0  0  0  0  0  0  0  0  # atno 6909 bound_to 6896
  145.4503  139.2294  143.3043 H   0  0  0  0  0  0  0  0  0  0  0  0  # atno 7974 bound_to 7965
  154.4001  140.1397  156.3847 H   0  0  0  0  0  0  0  0  0  0  0  0  # atno 8008 bound_to 7997
  155.7971  140.3477  155.5361 H   0  0  0  0  0  0  0  0  0  0  0  0  # atno 8009 bound_to 7997
  155.8521  140.0943  157.1658 H   0  0  0  0  0  0  0  0  0  0  0  0  # atno 8010 bound_to 7997
  140.2917  144.3038  150.6239 H   0  0  0  0  0  0  0  0  0  0  0  0  # atno 10167 bound_to 10162
  156.6616  130.4983  149.6029 H   0  0  0  0  0  0  0  0  0  0  0  0  # atno 10718 bound_to 10713
  153.7567  135.3202  155.3330 H   0  0  0  0  0  0  0  0  0  0  0  0  # atno 10763 bound_to 10752
  154.8244  135.4580  154.0879 H   0  0  0  0  0  0  0  0  0  0  0  0  # atno 10764 bound_to 10752
  153.2097  135.6934  153.8212 H   0  0  0  0  0  0  0  0  0  0  0  0  # atno 10765 bound_to 10752
  140.2669  134.3128  155.7840 H   0  0  0  0  0  0  0  0  0  0  0  0  # atno 11005 bound_to 11000
  146.2508  140.5261  142.8894 LP  0  0  0  0  0  0  0  0  0  0  0  0  # atno 17320 bound_to 7965
  144.8066  140.6310  143.6443 LP  0  0  0  0  0  0  0  0  0  0  0  0  # atno 17321 bound_to 7965
  140.5727  143.2179  151.7571 LP  0  0  0  0  0  0  0  0  0  0  0  0  # atno 17342 bound_to 10162
  139.4936  144.4194  151.9994 LP  0  0  0  0  0  0  0  0  0  0  0  0  # atno 17343 bound_to 10162
  156.2007  130.6618  151.1164 LP  0  0  0  0  0  0  0  0  0  0  0  0  # atno 17370 bound_to 10713
  157.7108  131.0735  150.6508 LP  0  0  0  0  0  0  0  0  0  0  0  0  # atno 17371 bound_to 10713
  141.2183  133.7443  156.9273 LP  0  0  0  0  0  0  0  0  0  0  0  0  # atno 17394 bound_to 11000
  140.1411  134.9293  157.2467 LP  0  0  0  0  0  0  0  0  0  0  0  0  # atno 17395 bound_to 11000

$$$$
