AV-unprocessed.smi:3185|AV-procd|sdf|12170|dock3
  -GOLD-   2272018 03D 1   1.00000     0.00000
 Structure written by MMmdl.
 37 38  0  0  0  0  0  0  0  0  1 V2000
  149.7797  132.8803  157.8553 N   0  0  0  0  0  0  0  0  0  0  0  0
  149.7228  132.7102  156.7123 C   0  0  0  0  0  0  0  0  0  0  0  0
  149.6500  132.4936  155.2596 C   0  0  0  0  0  0  0  0  0  0  0  0
  148.5301  133.3014  154.5952 C   0  0  0  0  0  0  0  0  0  0  0  0
  148.1563  132.7402  153.2181 C   0  0  0  0  0  0  0  0  0  0  0  0
  147.2121  133.6378  152.5691 N   0  0  0  0  0  0  0  0  0  0  0  0
  146.3448  132.9433  151.6197 C   0  0  1  0  0  0  0  0  0  0  0  0
  145.5249  131.8211  152.2984 C   0  0  0  0  0  0  0  0  0  0  0  0
  144.6072  131.1173  151.2855 C   0  0  0  0  0  0  0  0  0  0  0  0
  143.6800  132.1084  150.5660 C   0  0  0  0  0  0  0  0  0  0  0  0
  144.4772  133.2475  149.9035 C   0  0  0  0  0  0  0  0  0  0  0  0
  145.4489  133.9678  150.8675 C   0  0  1  0  0  0  0  0  0  0  0  0
  144.7689  134.9370  151.7323 N   0  0  0  0  0  0  0  0  0  0  0  0
  143.8381  134.6679  152.7161 C   0  0  0  0  0  0  0  0  0  0  0  0
  143.4640  135.8571  153.2727 C   0  0  0  0  0  0  0  0  0  0  0  0
  144.2283  136.8175  152.5557 C   0  0  0  0  0  0  0  0  0  0  0  0
  145.0044  136.2656  151.6389 N   0  0  0  0  0  0  0  0  0  0  0  0
  150.6171  132.7619  154.8342 H   0  0  0  0  0  0  0  0  0  0  0  0
  149.5043  131.4269  155.0880 H   0  0  0  0  0  0  0  0  0  0  0  0
  147.6528  133.3017  155.2438 H   0  0  0  0  0  0  0  0  0  0  0  0
  148.8454  134.3411  154.4972 H   0  0  0  0  0  0  0  0  0  0  0  0
  149.0525  132.6402  152.6044 H   0  0  0  0  0  0  0  0  0  0  0  0
  147.7226  131.7473  153.3329 H   0  0  0  0  0  0  0  0  0  0  0  0
  147.7293  134.3535  152.0791 H   0  0  0  0  0  0  0  0  0  0  0  0
  146.9829  132.4796  150.8656 H   0  0  0  0  0  0  0  0  0  0  0  0
  146.1852  131.0738  152.7372 H   0  0  0  0  0  0  0  0  0  0  0  0
  144.9331  132.2171  153.1233 H   0  0  0  0  0  0  0  0  0  0  0  0
  145.2175  130.5940  150.5486 H   0  0  0  0  0  0  0  0  0  0  0  0
  144.0134  130.3549  151.7902 H   0  0  0  0  0  0  0  0  0  0  0  0
  143.1001  131.5814  149.8080 H   0  0  0  0  0  0  0  0  0  0  0  0
  142.9513  132.5092  151.2694 H   0  0  0  0  0  0  0  0  0  0  0  0
  145.0553  132.8258  149.0804 H   0  0  0  0  0  0  0  0  0  0  0  0
  143.7941  133.9669  149.4503 H   0  0  0  0  0  0  0  0  0  0  0  0
  146.1158  134.5594  150.2383 H   0  0  0  0  0  0  0  0  0  0  0  0
  143.5204  133.6596  152.9375 H   0  0  0  0  0  0  0  0  0  0  0  0
  142.7531  136.0163  154.0697 H   0  0  0  0  0  0  0  0  0  0  0  0
  144.2429  137.8910  152.6731 H   0  0  0  0  0  0  0  0  0  0  0  0
  1  2  3  0  0  0  0
  2  3  1  0  0  0  0
  3  4  1  0  0  0  0
  3 18  1  0  0  0  0
  3 19  1  0  0  0  0
  4  5  1  0  0  0  0
  4 20  1  0  0  0  0
  4 21  1  0  0  0  0
  5  6  1  0  0  0  0
  5 22  1  0  0  0  0
  5 23  1  0  0  0  0
  6  7  1  0  0  0  0
  6 24  1  0  0  0  0
  7 12  1  0  0  0  0
  7  8  1  0  0  0  0
  7 25  1  0  0  0  0
  8  9  1  0  0  0  0
  8 26  1  0  0  0  0
  8 27  1  0  0  0  0
  9 10  1  0  0  0  0
  9 28  1  0  0  0  0
  9 29  1  0  0  0  0
 10 11  1  0  0  0  0
 10 30  1  0  0  0  0
 10 31  1  0  0  0  0
 11 12  1  0  0  0  0
 11 32  1  0  0  0  0
 11 33  1  0  0  0  0
 12 13  1  0  0  0  0
 12 34  1  0  0  0  0
 13 17  1  0  0  0  0
 13 14  1  0  0  0  0
 14 15  2  0  0  0  0
 14 35  1  0  0  0  0
 15 16  1  0  0  0  0
 15 36  1  0  0  0  0
 16 17  2  0  0  0  0
 16 37  1  0  0  0  0
M  END
> <s_m_source_file>
AV-unprocessed.smi

> <i_m_source_file_index>
3185

> <i_lp_mmshare_version>
43012

> <i_f3d_flags>
0

> <s_epik_input>
TiNDW0NIMl1bQ0gyXVtDSDJdW05IXVtDQEBIXTFbQ0gyXVtDSDJdW0NIMl1bQ0gyXVtDQEhdMW4yW2NIXVtjSF1bY0hdbjI=

> <s_epik_cmdline>
J2VwaWtfcHl0aG9uJywgJy1waCcsICc3LjAnLCAnLXRuJywgJzgnLCAnLW1hJywgJzIwMCcsICctbWV0YWxfYmluZGluZycsICctaW1hZScsICc8aW5maWxlLm1hZT4nLCAnLW9tYWUnLCAnPG91dGZpbGUubWFlPic=

> <r_lp_tautomer_probability>
1

> <r_epik_Ionization_Penalty>
2.21326

> <r_epik_Ionization_Penalty_Charging>
0

> <r_epik_Ionization_Penalty_Neutral>
2.21326

> <r_epik_State_Penalty>
2.35651

> <r_epik_Charging_Adjusted_Penalty>
2.35651

> <i_epik_Tot_Q>
0

> <i_epik_Tot_abs_Q>
0

> <r_epik_Metal_State_Penalty>
2.3555

> <b_epik_Metal_Only>
0

> <s_lp_Force_Field>
OPLS_2005

> <r_lp_Energy>
19.4285

> <b_lp_Chiralities_Consistent>
1

> <s_lp_Variant>
AV-unprocessed.smi:3185-6

> <Gold.Version>
5.8.1

> <Gold.Id.Protein>
6NUR|6NUR_protein|mol2

> <Gold.PLP.Fitness>
43.3795

> <Gold.PLP.PLP>
-33.9046

> <Gold.PLP.part.hbond>
-2.0000

> <Gold.PLP.part.metal>
0.0000

> <Gold.PLP.part.buried>
-6.0986

> <Gold.PLP.part.nonpolar>
-26.6915

> <Gold.PLP.part.repulsive>
0.3966

> <Gold.PLP.ligand.clash>
0.0000

> <Gold.PLP.ligand.torsion>
0.3046

> <Gold.PLP.Chemscore.Hbond>
1.9920

> <Gold.PLP.Chemscore.CHOScore>
1.3325

> <Gold.PLP.Chemscore.Metal>
0.0000

> <Gold.Chemscore.Hbonds>
donor molecule, donor type, donor heavy atom, donor atom, acceptor molecule, acceptor atom, score
      L1  H     6    24       P1  7948  0.59
      P1  H  6896  6908       L1     1  1.00
      L1  C    14    35       P1 10957  0.39
      L1  C    16    37       P1 10175  0.77

> <Gold.PLP.Chemscore.Internal.Correction>
0.1107

> <Gold.Rescore>
     Score         DG    S(hbond)    S(metal)    S(lipo)     H(rot)  DE(clash)    DE(int)     intcor
     15.34     -15.80       1.87        0.00      74.44       1.81       0.08       0.38       ----

> <Gold.Chemscore.Fitness>
15.3357

> <Gold.Chemscore.DG>
-15.8001

> <Gold.Chemscore.ZeroCoef>
-5.4800

> <Gold.Chemscore.Hbond>
1.8702

> <Gold.Chemscore.Metal>
0.0000

> <Gold.Chemscore.Lipo>
74.4433

> <Gold.Chemscore.Internal_Hbond>
0.0000

> <Gold.Chemscore.DEClash>
0.0811

> <Gold.Chemscore.DEInternal>
0.3833

> <Gold.Chemscore.Rot>
1.8110

> <Gold.Chemscore.Internal.Correction>
   9.000000E+99

> <Gold.Chemscore.Hbonds>
donor molecule, donor type, donor heavy atom, donor atom, acceptor molecule, acceptor atom, score
      L1  H     6    24       P1  7948  0.17
      P1  H  6896  6908       L1     1  0.99

> <Gold.Chemscore.Hbond.Weighted>
-6.2465

> <Gold.Chemscore.Metal.Weighted>
-0.0000

> <Gold.Chemscore.Lipo.Weighted>
-8.7099

> <Gold.Chemscore.Internal_Hbond.Weighted>
0.0000

> <Gold.Chemscore.DEClash.Weighted>
0.0811

> <Gold.Chemscore.DEInternal.Weighted>
0.3833

> <Gold.Chemscore.Rot.Weighted>
4.6362

> <Gold.Chemscore.Internal.Correction.Weighted>
   9.000000E+99

> <Gold.Protein.RotatedTorsions>
[ 6907 6896 6895 6894 ] final  107.54 input  -60.11 | X-H torsion
[ 7974 7965 7964 7962 ] final  -67.22 input  175.53 | X-H torsion
[ 8008 7997 7996 7995 ] final  131.28 input   59.86 | X-H torsion
[ 10167 10162 10161 10158 ] final  176.02 input  -65.29 | X-H torsion
[ 10718 10713 10712 10709 ] final   83.95 input   66.30 | X-H torsion
[ 10763 10752 10751 10750 ] final -102.27 input  -60.55 | X-H torsion
[ 11005 11000 10999 10996 ] final  135.57 input  -57.11 | X-H torsion

> <Gold.Protein.ActiveResidues>
 VAL166  LYS551  ARG553  GLY616  TRP617  ASP618  TYR619  PRO620  LYS621  CYS622 
 ASP623  PHE694  ASN695  SER759  ASP760  ASP761  ALA762  ILE779  LEU786  VAL792 
 PHE793  MET794  SER795  GLU796  ALA797  LYS798  CYS799  TRP800  GLU811  SER814 

> <Gold.Protein.RotatedAtoms>
  152.5150  133.9220  159.7538 H   0  0  0  0  0  0  0  0  0  0  0  0  # atno 6907 bound_to 6896
  150.9590  133.6458  159.2765 H   0  0  0  0  0  0  0  0  0  0  0  0  # atno 6908 bound_to 6896
  151.3709  135.0927  159.9518 H   0  0  0  0  0  0  0  0  0  0  0  0  # atno 6909 bound_to 6896
  145.7319  140.8993  143.0575 H   0  0  0  0  0  0  0  0  0  0  0  0  # atno 7974 bound_to 7965
  156.2967  140.2575  156.2900 H   0  0  0  0  0  0  0  0  0  0  0  0  # atno 8008 bound_to 7997
  154.9519  140.0394  157.2167 H   0  0  0  0  0  0  0  0  0  0  0  0  # atno 8009 bound_to 7997
  154.8028  140.2831  155.5913 H   0  0  0  0  0  0  0  0  0  0  0  0  # atno 8010 bound_to 7997
  139.5199  144.2964  152.0418 H   0  0  0  0  0  0  0  0  0  0  0  0  # atno 10167 bound_to 10162
  157.6889  131.0112  150.2600 H   0  0  0  0  0  0  0  0  0  0  0  0  # atno 10718 bound_to 10713
  154.7721  135.4867  153.9670 H   0  0  0  0  0  0  0  0  0  0  0  0  # atno 10763 bound_to 10752
  153.1381  135.6767  153.9078 H   0  0  0  0  0  0  0  0  0  0  0  0  # atno 10764 bound_to 10752
  153.8760  135.3138  155.3422 H   0  0  0  0  0  0  0  0  0  0  0  0  # atno 10765 bound_to 10752
  139.9988  134.9487  157.0025 H   0  0  0  0  0  0  0  0  0  0  0  0  # atno 11005 bound_to 11000
  144.6891  139.9342  143.7473 LP  0  0  0  0  0  0  0  0  0  0  0  0  # atno 17320 bound_to 7965
  146.0529  139.3529  143.0628 LP  0  0  0  0  0  0  0  0  0  0  0  0  # atno 17321 bound_to 7965
  140.2413  144.4266  150.6259 LP  0  0  0  0  0  0  0  0  0  0  0  0  # atno 17342 bound_to 10162
  140.6289  143.2185  151.6538 LP  0  0  0  0  0  0  0  0  0  0  0  0  # atno 17343 bound_to 10162
  156.3181  130.3782  149.7600 LP  0  0  0  0  0  0  0  0  0  0  0  0  # atno 17370 bound_to 10713
  156.5179  130.8201  151.3193 LP  0  0  0  0  0  0  0  0  0  0  0  0  # atno 17371 bound_to 10713
  140.4767  134.1331  155.7211 LP  0  0  0  0  0  0  0  0  0  0  0  0  # atno 17394 bound_to 11000
  141.1626  133.8765  157.1806 LP  0  0  0  0  0  0  0  0  0  0  0  0  # atno 17395 bound_to 11000

$$$$
