AV-unprocessed.smi:657|AV-procd|sdf|3226|dock10
  -GOLD-   22720 0163D 1   1.00000     0.00000
 Structure written by MMmdl.
 46 47  0  0  0  0  0  0  0  0  3 V2000
  146.6615  138.3020  155.7230 C   0  0  0  0  0  0  0  0  0  0  0  0
  147.6679  138.3629  154.5573 C   0  0  0  0  0  0  0  0  0  0  0  0
  146.9576  138.4228  153.1940 C   0  0  0  0  0  0  0  0  0  0  0  0
  148.6974  137.2690  154.5911 N   0  3  2  0  0  0  0  0  0  0  0  0
  148.1205  135.9335  154.9268 C   0  0  0  0  0  0  0  0  0  0  0  0
  149.1454  134.8035  154.7722 C   0  0  0  0  0  0  0  0  0  0  0  0
  150.3520  135.0612  155.6741 C   0  0  0  0  0  0  0  0  0  0  0  0
  150.9671  136.4133  155.3092 C   0  0  0  0  0  0  0  0  0  0  0  0
  149.9376  137.5707  155.3885 C   0  0  1  0  0  0  0  0  0  0  0  0
  150.6452  138.8823  154.9830 C   0  0  0  0  0  0  0  0  0  0  0  0
  150.1792  139.5219  154.0349 O   0  0  0  0  0  0  0  0  0  0  0  0
  151.7314  139.1349  155.7683 N   0  5  0  0  0  0  0  0  0  0  0  0
  151.6622  139.8330  157.0486 C   0  0  0  0  0  0  0  0  0  0  0  0
  150.9622  141.1928  156.8607 C   0  0  0  0  0  0  0  0  0  0  0  0
  151.3980  142.2208  157.8760 C   0  0  0  0  0  0  0  0  0  0  0  0
  152.2919  142.0461  158.9730 C   0  0  0  0  0  0  0  0  0  0  0  0
  152.4735  143.1540  159.6732 N   0  0  0  0  0  0  0  0  0  0  0  0
  151.7103  144.0741  159.0490 N   0  0  0  0  0  0  0  0  0  0  0  0
  151.6681  145.4285  159.5567 C   0  0  0  0  0  0  0  0  0  0  0  0
  151.0548  143.5425  157.9597 C   0  0  0  0  0  0  0  0  0  0  0  0
  146.0220  139.1850  155.7220 H   0  0  0  0  0  0  0  0  0  0  0  0
  147.1654  138.2726  156.6890 H   0  0  0  0  0  0  0  0  0  0  0  0
  146.0059  137.4338  155.6557 H   0  0  0  0  0  0  0  0  0  0  0  0
  148.1658  139.3270  154.6371 H   0  0  0  0  0  0  0  0  0  0  0  0
  146.3373  139.3168  153.1224 H   0  0  0  0  0  0  0  0  0  0  0  0
  146.3046  137.5670  153.0264 H   0  0  0  0  0  0  0  0  0  0  0  0
  147.6799  138.4619  152.3779 H   0  0  0  0  0  0  0  0  0  0  0  0
  147.7534  135.9346  155.9535 H   0  0  0  0  0  0  0  0  0  0  0  0
  147.2674  135.7139  154.2870 H   0  0  0  0  0  0  0  0  0  0  0  0
  148.6867  133.8481  155.0293 H   0  0  0  0  0  0  0  0  0  0  0  0
  149.4633  134.7282  153.7315 H   0  0  0  0  0  0  0  0  0  0  0  0
  150.0479  135.0577  156.7216 H   0  0  0  0  0  0  0  0  0  0  0  0
  151.0896  134.2667  155.5562 H   0  0  0  0  0  0  0  0  0  0  0  0
  151.8105  136.6166  155.9707 H   0  0  0  0  0  0  0  0  0  0  0  0
  151.3825  136.3425  154.3025 H   0  0  0  0  0  0  0  0  0  0  0  0
  149.6335  137.6707  156.4315 H   0  0  0  0  0  0  0  0  0  0  0  0
  151.1127  139.2580  157.7955 H   0  0  0  0  0  0  0  0  0  0  0  0
  152.6563  139.9963  157.4660 H   0  0  0  0  0  0  0  0  0  0  0  0
  151.1559  141.5593  155.8517 H   0  0  0  0  0  0  0  0  0  0  0  0
  149.8823  141.0482  156.9153 H   0  0  0  0  0  0  0  0  0  0  0  0
  152.8089  141.1487  159.2794 H   0  0  0  0  0  0  0  0  0  0  0  0
  150.9815  146.0307  158.9611 H   0  0  0  0  0  0  0  0  0  0  0  0
  152.6630  145.8719  159.5079 H   0  0  0  0  0  0  0  0  0  0  0  0
  151.3276  145.4241  160.5926 H   0  0  0  0  0  0  0  0  0  0  0  0
  150.4014  144.1394  157.3404 H   0  0  0  0  0  0  0  0  0  0  0  0
  149.0339  137.2019  153.6406 H   0  0  0  0  0  0  0  0  0  0  0  0
  1  2  1  0  0  0  0
  1 21  1  0  0  0  0
  1 22  1  0  0  0  0
  1 23  1  0  0  0  0
  2  3  1  0  0  0  0
  2  4  1  0  0  0  0
  2 24  1  0  0  0  0
  3 25  1  0  0  0  0
  3 26  1  0  0  0  0
  3 27  1  0  0  0  0
  4  9  1  0  0  0  0
  4  5  1  0  0  0  0
  4 46  1  0  0  0  0
  5  6  1  0  0  0  0
  5 28  1  0  0  0  0
  5 29  1  0  0  0  0
  6  7  1  0  0  0  0
  6 30  1  0  0  0  0
  6 31  1  0  0  0  0
  7  8  1  0  0  0  0
  7 32  1  0  0  0  0
  7 33  1  0  0  0  0
  8  9  1  0  0  0  0
  8 34  1  0  0  0  0
  8 35  1  0  0  0  0
  9 10  1  0  0  0  0
  9 36  1  0  0  0  0
 10 11  2  0  0  0  0
 10 12  1  0  0  0  0
 12 13  1  0  0  0  0
 13 14  1  0  0  0  0
 13 37  1  0  0  0  0
 13 38  1  0  0  0  0
 14 15  1  0  0  0  0
 14 39  1  0  0  0  0
 14 40  1  0  0  0  0
 15 20  2  0  0  0  0
 15 16  1  0  0  0  0
 16 17  2  0  0  0  0
 16 41  1  0  0  0  0
 17 18  1  0  0  0  0
 18 19  1  0  0  0  0
 18 20  1  0  0  0  0
 19 42  1  0  0  0  0
 19 43  1  0  0  0  0
 19 44  1  0  0  0  0
 20 45  1  0  0  0  0
M  CHG  1   4   1
M  CHG  1  12  -1
M  END
> <s_m_source_file>
AV-unprocessed.smi

> <i_m_source_file_index>
657

> <i_lp_mmshare_version>
43012

> <i_f3d_flags>
0

> <s_epik_input>
W0NIM11bQ0hdKFtDSDNdKU4xW0NIMl1bQ0gyXVtDSDJdW0NIMl1bQ0BIXTFDKD1PKVtOSF1bQ0gyXVtDSDJdYzJbY0hdbm4oW0NIM10pW2NIXTI=

> <s_epik_cmdline>
J2VwaWtfcHl0aG9uJywgJy1waCcsICc3LjAnLCAnLXRuJywgJzgnLCAnLW1hJywgJzIwMCcsICctbWV0YWxfYmluZGluZycsICctaW1hZScsICc8aW5maWxlLm1hZT4nLCAnLW9tYWUnLCAnPG91dGZpbGUubWFlPic=

> <r_lp_tautomer_probability>
1

> <r_epik_Ionization_Penalty>
6.1622

> <r_epik_Ionization_Penalty_Charging>
6.16146

> <r_epik_Ionization_Penalty_Neutral>
0.00073675

> <r_epik_State_Penalty>
6.18018

> <r_epik_Charging_Adjusted_Penalty>
12.3416

> <i_epik_Tot_Q>
0

> <i_epik_Tot_abs_Q>
2

> <r_epik_Metal_State_Penalty>
2.12232

> <b_epik_Metal_Only>
1

> <s_lp_Force_Field>
OPLS_2005

> <r_lp_Energy>
11.2403

> <b_lp_Chiralities_Consistent>
1

> <s_lp_Variant>
AV-unprocessed.smi:657-7

> <Gold.Version>
5.8.1

> <Gold.Id.Protein>
6NUR|6NUR_protein|mol2

> <Gold.PLP.Fitness>
41.5855

> <Gold.PLP.PLP>
-32.4767

> <Gold.PLP.part.hbond>
-2.0000

> <Gold.PLP.part.metal>
0.0000

> <Gold.PLP.part.buried>
-4.6033

> <Gold.PLP.part.nonpolar>
-27.6583

> <Gold.PLP.part.repulsive>
1.3660

> <Gold.PLP.ligand.clash>
0.0000

> <Gold.PLP.ligand.torsion>
1.5573

> <Gold.PLP.Chemscore.Hbond>
3.0000

> <Gold.PLP.Chemscore.CHOScore>
1.0000

> <Gold.PLP.Chemscore.Metal>
0.0000

> <Gold.Chemscore.Hbonds>
donor molecule, donor type, donor heavy atom, donor atom, acceptor molecule, acceptor atom, score
      L1  H     4    46       P1  7948  1.95
      P1  H  7989  7998       L1    11  0.98
      L1  C    20    45       P1  8028  1.00

> <Gold.PLP.Chemscore.Internal.Correction>
0.2235

> <Gold.Rescore>
     Score         DG    S(hbond)    S(metal)    S(lipo)     H(rot)  DE(clash)    DE(int)     intcor
     14.13     -17.14       1.81        0.00      82.33       1.57       0.07       2.94       ----

> <Gold.Chemscore.Fitness>
14.1294

> <Gold.Chemscore.DG>
-17.1426

> <Gold.Chemscore.ZeroCoef>
-5.4800

> <Gold.Chemscore.Hbond>
1.8143

> <Gold.Chemscore.Metal>
0.0000

> <Gold.Chemscore.Lipo>
82.3301

> <Gold.Chemscore.Internal_Hbond>
0.0000

> <Gold.Chemscore.DEClash>
0.0702

> <Gold.Chemscore.DEInternal>
2.9430

> <Gold.Chemscore.Rot>
1.5741

> <Gold.Chemscore.Internal.Correction>
   9.000000E+99

> <Gold.Chemscore.Hbonds>
donor molecule, donor type, donor heavy atom, donor atom, acceptor molecule, acceptor atom, score
      L1  H     4    46       P1  7948  0.89
      P1  H  7989  7998       L1    11  0.53

> <Gold.Chemscore.Hbond.Weighted>
-6.0596

> <Gold.Chemscore.Metal.Weighted>
-0.0000

> <Gold.Chemscore.Lipo.Weighted>
-9.6326

> <Gold.Chemscore.Internal_Hbond.Weighted>
0.0000

> <Gold.Chemscore.DEClash.Weighted>
0.0702

> <Gold.Chemscore.DEInternal.Weighted>
2.9430

> <Gold.Chemscore.Rot.Weighted>
4.0297

> <Gold.Chemscore.Internal.Correction.Weighted>
   9.000000E+99

> <Gold.Protein.RotatedTorsions>
[ 6907 6896 6895 6894 ] final   -5.00 input  -60.11 | X-H torsion
[ 7974 7965 7964 7962 ] final  137.07 input  175.53 | X-H torsion
[ 8008 7997 7996 7995 ] final  115.29 input   59.86 | X-H torsion
[ 10167 10162 10161 10158 ] final  166.14 input  -65.29 | X-H torsion
[ 10718 10713 10712 10709 ] final  -40.25 input   66.30 | X-H torsion
[ 10763 10752 10751 10750 ] final  -92.04 input  -60.55 | X-H torsion
[ 11005 11000 10999 10996 ] final   62.84 input  -57.11 | X-H torsion

> <Gold.Protein.ActiveResidues>
 VAL166  LYS551  ARG553  GLY616  TRP617  ASP618  TYR619  PRO620  LYS621  CYS622 
 ASP623  PHE694  ASN695  SER759  ASP760  ASP761  ALA762  ILE779  LEU786  VAL792 
 PHE793  MET794  SER795  GLU796  ALA797  LYS798  CYS799  TRP800  GLU811  SER814 

> <Gold.Protein.RotatedAtoms>
  151.4887  135.1056  159.9797 H   0  0  0  0  0  0  0  0  0  0  0  0  # atno 6907 bound_to 6896
  152.4750  133.8113  159.7015 H   0  0  0  0  0  0  0  0  0  0  0  0  # atno 6908 bound_to 6896
  150.8782  133.7347  159.2966 H   0  0  0  0  0  0  0  0  0  0  0  0  # atno 6909 bound_to 6896
  144.9504  139.4826  143.5529 H   0  0  0  0  0  0  0  0  0  0  0  0  # atno 7974 bound_to 7965
  156.2372  140.2941  156.0346 H   0  0  0  0  0  0  0  0  0  0  0  0  # atno 8008 bound_to 7997
  155.2056  140.0411  157.2942 H   0  0  0  0  0  0  0  0  0  0  0  0  # atno 8009 bound_to 7997
  154.6101  140.2449  155.7687 H   0  0  0  0  0  0  0  0  0  0  0  0  # atno 8010 bound_to 7997
  139.4919  144.4059  151.9356 H   0  0  0  0  0  0  0  0  0  0  0  0  # atno 10167 bound_to 10162
  156.2834  130.4220  149.8313 H   0  0  0  0  0  0  0  0  0  0  0  0  # atno 10718 bound_to 10713
  154.6822  135.5245  153.8278 H   0  0  0  0  0  0  0  0  0  0  0  0  # atno 10763 bound_to 10752
  153.0572  135.6555  154.0558 H   0  0  0  0  0  0  0  0  0  0  0  0  # atno 10764 bound_to 10752
  154.0444  135.2974  155.3330 H   0  0  0  0  0  0  0  0  0  0  0  0  # atno 10765 bound_to 10752
  140.0065  134.6362  155.9848 H   0  0  0  0  0  0  0  0  0  0  0  0  # atno 11005 bound_to 11000
  146.3319  139.8585  142.8860 LP  0  0  0  0  0  0  0  0  0  0  0  0  # atno 17320 bound_to 7965
  145.2853  141.0151  143.3694 LP  0  0  0  0  0  0  0  0  0  0  0  0  # atno 17321 bound_to 7965
  140.3499  144.3101  150.5951 LP  0  0  0  0  0  0  0  0  0  0  0  0  # atno 17342 bound_to 10162
  140.5494  143.2209  151.7953 LP  0  0  0  0  0  0  0  0  0  0  0  0  # atno 17343 bound_to 10162
  156.5752  130.8442  151.3368 LP  0  0  0  0  0  0  0  0  0  0  0  0  # atno 17370 bound_to 10713
  157.7321  130.9710  150.1913 LP  0  0  0  0  0  0  0  0  0  0  0  0  # atno 17371 bound_to 10713
  141.1680  133.6537  156.4549 LP  0  0  0  0  0  0  0  0  0  0  0  0  # atno 17394 bound_to 11000
  140.4632  134.6821  157.5095 LP  0  0  0  0  0  0  0  0  0  0  0  0  # atno 17395 bound_to 11000

$$$$
