AV-unprocessed.smi:1285|AV-procd|sdf|5374|dock7
  -GOLD-   22720 4523D 1   1.00000     0.00000
 Structure written by MMmdl.
 47 48  0  0  0  0  0  0  0  0  2 V2000
  145.7503  133.3333  155.6019 C   0  0  0  0  0  0  0  0  0  0  0  0
  147.0107  132.7392  154.9486 C   0  0  0  0  0  0  0  0  0  0  0  0
  147.9312  133.7567  154.2053 C   0  0  2  0  0  0  0  0  0  0  0  0
  149.1549  132.9633  153.6741 C   0  0  0  0  0  0  0  0  0  0  0  0
  148.4343  134.8459  155.2046 C   0  0  0  0  0  0  0  0  0  0  0  0
  149.0596  135.9874  154.5394 N   0  0  0  0  0  0  0  0  0  0  0  0
  149.5218  137.0939  155.1441 C   0  0  0  0  0  0  0  0  0  0  0  0
  149.3858  137.3090  156.3490 O   0  0  0  0  0  0  0  0  0  0  0  0
  150.2807  138.0838  154.2455 C   0  0  1  0  0  0  0  0  0  0  0  0
  149.5776  139.4506  154.1207 C   0  0  0  0  0  0  0  0  0  0  0  0
  151.6571  138.2201  154.7084 N   0  0  0  0  0  0  0  0  0  0  0  0
  152.1593  138.9537  155.7040 C   0  0  0  0  0  0  0  0  0  0  0  0
  153.4786  138.8851  155.8113 N   0  0  0  0  0  0  0  0  0  0  0  0
  153.7478  138.0347  154.7767 C   0  0  0  0  0  0  0  0  0  0  0  0
  152.6943  137.6157  154.0762 N   0  0  0  0  0  0  0  0  0  0  0  0
  147.1788  134.3901  153.0610 N   0  3  0  0  0  0  0  0  0  0  0  0
  146.6290  133.4493  152.0434 C   0  0  0  0  0  0  0  0  0  0  0  0
  146.0834  134.2248  150.8339 C   0  0  0  0  0  0  0  0  0  0  0  0
  145.0745  135.1258  151.2675 O   0  0  0  0  0  0  0  0  0  0  0  0
  145.5855  136.0883  152.1790 C   0  0  0  0  0  0  0  0  0  0  0  0
  146.1329  135.3848  153.4332 C   0  0  0  0  0  0  0  0  0  0  0  0
  145.1737  132.5490  156.0924 H   0  0  0  0  0  0  0  0  0  0  0  0
  145.0955  133.8019  154.8679 H   0  0  0  0  0  0  0  0  0  0  0  0
  145.9942  134.0770  156.3602 H   0  0  0  0  0  0  0  0  0  0  0  0
  147.5769  132.1927  155.7023 H   0  0  0  0  0  0  0  0  0  0  0  0
  146.6769  131.9699  154.2521 H   0  0  0  0  0  0  0  0  0  0  0  0
  149.5816  132.3167  154.4421 H   0  0  0  0  0  0  0  0  0  0  0  0
  149.9609  133.6216  153.3491 H   0  0  0  0  0  0  0  0  0  0  0  0
  148.8903  132.3256  152.8305 H   0  0  0  0  0  0  0  0  0  0  0  0
  147.6025  135.2455  155.7838 H   0  0  0  0  0  0  0  0  0  0  0  0
  149.1268  134.4232  155.9327 H   0  0  0  0  0  0  0  0  0  0  0  0
  149.2090  135.9018  153.5444 H   0  0  0  0  0  0  0  0  0  0  0  0
  150.3186  137.6457  153.2468 H   0  0  0  0  0  0  0  0  0  0  0  0
  148.5715  139.3405  153.7148 H   0  0  0  0  0  0  0  0  0  0  0  0
  150.1288  140.1094  153.4490 H   0  0  0  0  0  0  0  0  0  0  0  0
  149.4930  139.9572  155.0830 H   0  0  0  0  0  0  0  0  0  0  0  0
  151.5481  139.5591  156.3572 H   0  0  0  0  0  0  0  0  0  0  0  0
  154.7510  137.7222  154.5267 H   0  0  0  0  0  0  0  0  0  0  0  0
  147.3868  132.7557  151.6851 H   0  0  0  0  0  0  0  0  0  0  0  0
  145.8244  132.8526  152.4730 H   0  0  0  0  0  0  0  0  0  0  0  0
  146.8817  134.7655  150.3226 H   0  0  0  0  0  0  0  0  0  0  0  0
  145.6513  133.5344  150.1094 H   0  0  0  0  0  0  0  0  0  0  0  0
  146.3612  136.6862  151.6977 H   0  0  0  0  0  0  0  0  0  0  0  0
  144.7824  136.7723  152.4537 H   0  0  0  0  0  0  0  0  0  0  0  0
  145.3152  134.8932  153.9609 H   0  0  0  0  0  0  0  0  0  0  0  0
  146.5266  136.1543  154.0946 H   0  0  0  0  0  0  0  0  0  0  0  0
  147.8810  134.9255  152.5703 H   0  0  0  0  0  0  0  0  0  0  0  0
  1  2  1  0  0  0  0
  1 22  1  0  0  0  0
  1 23  1  0  0  0  0
  1 24  1  0  0  0  0
  2  3  1  0  0  0  0
  2 25  1  0  0  0  0
  2 26  1  0  0  0  0
  3  4  1  0  0  0  0
  3  5  1  0  0  0  0
  3 16  1  0  0  0  0
  4 27  1  0  0  0  0
  4 28  1  0  0  0  0
  4 29  1  0  0  0  0
  5  6  1  0  0  0  0
  5 30  1  0  0  0  0
  5 31  1  0  0  0  0
  6  7  1  0  0  0  0
  6 32  1  0  0  0  0
  7  8  2  0  0  0  0
  7  9  1  0  0  0  0
  9 10  1  0  0  0  0
  9 11  1  0  0  0  0
  9 33  1  0  0  0  0
 10 34  1  0  0  0  0
 10 35  1  0  0  0  0
 10 36  1  0  0  0  0
 11 15  1  0  0  0  0
 11 12  1  0  0  0  0
 12 13  2  0  0  0  0
 12 37  1  0  0  0  0
 13 14  1  0  0  0  0
 14 15  2  0  0  0  0
 14 38  1  0  0  0  0
 16 21  1  0  0  0  0
 16 17  1  0  0  0  0
 16 47  1  0  0  0  0
 17 18  1  0  0  0  0
 17 39  1  0  0  0  0
 17 40  1  0  0  0  0
 18 19  1  0  0  0  0
 18 41  1  0  0  0  0
 18 42  1  0  0  0  0
 19 20  1  0  0  0  0
 20 21  1  0  0  0  0
 20 43  1  0  0  0  0
 20 44  1  0  0  0  0
 21 45  1  0  0  0  0
 21 46  1  0  0  0  0
M  CHG  1  16   1
M  END
> <s_m_source_file>
AV-unprocessed.smi

> <i_m_source_file_index>
1285

> <i_lp_mmshare_version>
43012

> <i_f3d_flags>
0

> <s_epik_input>
W0NIMl0xW0NIMl1PW0NIMl1bQ0gyXU4xW0NAQF0oW0NIM10pKFtDSDJdW0NIM10pW0NIMl1bTkhdQyg9TylbQ0BIXShbQ0gzXSluMltjSF1uW2NIXW4y

> <s_epik_cmdline>
J2VwaWtfcHl0aG9uJywgJy1waCcsICc3LjAnLCAnLXRuJywgJzgnLCAnLW1hJywgJzIwMCcsICctbWV0YWxfYmluZGluZycsICctaW1hZScsICc8aW5maWxlLm1hZT4nLCAnLW9tYWUnLCAnPG91dGZpbGUubWFlPic=

> <r_lp_tautomer_probability>
1

> <r_epik_Ionization_Penalty>
0.569304

> <r_epik_Ionization_Penalty_Charging>
0.569295

> <r_epik_Ionization_Penalty_Neutral>
8.22697e-06

> <r_epik_State_Penalty>
0.581114

> <r_epik_Charging_Adjusted_Penalty>
1.15041

> <i_epik_Tot_Q>
1

> <i_epik_Tot_abs_Q>
1

> <r_epik_Metal_State_Penalty>
0.581117

> <b_epik_Metal_Only>
0

> <s_lp_Force_Field>
OPLS_2005

> <r_lp_Energy>
34.4039

> <b_lp_Chiralities_Consistent>
1

> <s_lp_Variant>
AV-unprocessed.smi:1285-8

> <Gold.Version>
5.8.1

> <Gold.Id.Protein>
6NUR|6NUR_protein|mol2

> <Gold.PLP.Fitness>
41.9192

> <Gold.PLP.PLP>
-29.4007

> <Gold.PLP.part.hbond>
-3.7824

> <Gold.PLP.part.metal>
0.0000

> <Gold.PLP.part.buried>
-1.2561

> <Gold.PLP.part.nonpolar>
-24.4616

> <Gold.PLP.part.repulsive>
0.3258

> <Gold.PLP.ligand.clash>
0.0000

> <Gold.PLP.ligand.torsion>
0.6739

> <Gold.PLP.Chemscore.Hbond>
4.5236

> <Gold.PLP.Chemscore.CHOScore>
0.0000

> <Gold.PLP.Chemscore.Metal>
0.0000

> <Gold.Chemscore.Hbonds>
donor molecule, donor type, donor heavy atom, donor atom, acceptor molecule, acceptor atom, score
      L1  H     6    32       P1  7948  1.00
      L1  H    16    47       P1  7948  2.00
      P1  H  7997  8010       L1    13  0.94
      P1  H 10752 10765       L1    15  0.59

> <Gold.PLP.Chemscore.Internal.Correction>
0.2954

> <Gold.Rescore>
     Score         DG    S(hbond)    S(metal)    S(lipo)     H(rot)  DE(clash)    DE(int)     intcor
     11.90     -13.20       2.79        0.00      46.62       2.76       0.60       0.70       ----

> <Gold.Chemscore.Fitness>
11.8989

> <Gold.Chemscore.DG>
-13.2002

> <Gold.Chemscore.ZeroCoef>
-5.4800

> <Gold.Chemscore.Hbond>
2.7929

> <Gold.Chemscore.Metal>
0.0000

> <Gold.Chemscore.Lipo>
46.6208

> <Gold.Chemscore.Internal_Hbond>
0.0000

> <Gold.Chemscore.DEClash>
0.5996

> <Gold.Chemscore.DEInternal>
0.7017

> <Gold.Chemscore.Rot>
2.7589

> <Gold.Chemscore.Internal.Correction>
   9.000000E+99

> <Gold.Chemscore.Hbonds>
donor molecule, donor type, donor heavy atom, donor atom, acceptor molecule, acceptor atom, score
      L1  H     6    32       P1  7948  0.74
      L1  H    16    47       P1  7948  0.91
      P1  H  7997  8010       L1    13  0.86
      P1  H 10752 10765       L1    15  0.15

> <Gold.Chemscore.Hbond.Weighted>
-9.3283

> <Gold.Chemscore.Metal.Weighted>
-0.0000

> <Gold.Chemscore.Lipo.Weighted>
-5.4546

> <Gold.Chemscore.Internal_Hbond.Weighted>
0.0000

> <Gold.Chemscore.DEClash.Weighted>
0.5996

> <Gold.Chemscore.DEInternal.Weighted>
0.7017

> <Gold.Chemscore.Rot.Weighted>
7.0627

> <Gold.Chemscore.Internal.Correction.Weighted>
   9.000000E+99

> <Gold.Protein.RotatedTorsions>
[ 6907 6896 6895 6894 ] final  -86.12 input  -60.11 | X-H torsion
[ 7974 7965 7964 7962 ] final  -38.53 input  175.53 | X-H torsion
[ 8008 7997 7996 7995 ] final   92.50 input   59.86 | X-H torsion
[ 10167 10162 10161 10158 ] final   34.06 input  -65.29 | X-H torsion
[ 10718 10713 10712 10709 ] final  151.69 input   66.30 | X-H torsion
[ 10763 10752 10751 10750 ] final  143.45 input  -60.55 | X-H torsion
[ 11005 11000 10999 10996 ] final   60.01 input  -57.11 | X-H torsion

> <Gold.Protein.ActiveResidues>
 VAL166  LYS551  ARG553  GLY616  TRP617  ASP618  TYR619  PRO620  LYS621  CYS622 
 ASP623  PHE694  ASN695  SER759  ASP760  ASP761  ALA762  ILE779  LEU786  VAL792 
 PHE793  MET794  SER795  GLU796  ALA797  LYS798  CYS799  TRP800  GLU811  SER814 

> <Gold.Protein.RotatedAtoms>
  150.6868  134.3099  159.4741 H   0  0  0  0  0  0  0  0  0  0  0  0  # atno 6907 bound_to 6896
  152.0986  134.9355  160.0579 H   0  0  0  0  0  0  0  0  0  0  0  0  # atno 6908 bound_to 6896
  152.0643  133.4042  159.4468 H   0  0  0  0  0  0  0  0  0  0  0  0  # atno 6909 bound_to 6896
  146.0478  140.6522  142.9056 H   0  0  0  0  0  0  0  0  0  0  0  0  # atno 7974 bound_to 7965
  156.0361  140.3324  155.7192 H   0  0  0  0  0  0  0  0  0  0  0  0  # atno 8008 bound_to 7997
  155.5814  140.0637  157.2800 H   0  0  0  0  0  0  0  0  0  0  0  0  # atno 8009 bound_to 7997
  154.4373  140.1843  156.0968 H   0  0  0  0  0  0  0  0  0  0  0  0  # atno 8010 bound_to 7997
  140.4350  144.1269  150.6165 H   0  0  0  0  0  0  0  0  0  0  0  0  # atno 10167 bound_to 10162
  157.2675  131.0810  151.1623 H   0  0  0  0  0  0  0  0  0  0  0  0  # atno 10718 bound_to 10713
  153.9726  135.2949  155.3426 H   0  0  0  0  0  0  0  0  0  0  0  0  # atno 10763 bound_to 10752
  154.7314  135.5066  153.8972 H   0  0  0  0  0  0  0  0  0  0  0  0  # atno 10764 bound_to 10752
  153.0892  135.6703  153.9999 H   0  0  0  0  0  0  0  0  0  0  0  0  # atno 10765 bound_to 10752
  140.0262  134.6079  155.9569 H   0  0  0  0  0  0  0  0  0  0  0  0  # atno 11005 bound_to 11000
  144.7107  140.4026  143.7083 LP  0  0  0  0  0  0  0  0  0  0  0  0  # atno 17320 bound_to 7965
  145.6776  139.1612  143.2719 LP  0  0  0  0  0  0  0  0  0  0  0  0  # atno 17321 bound_to 7965
  140.4383  143.2537  151.9506 LP  0  0  0  0  0  0  0  0  0  0  0  0  # atno 17342 bound_to 10162
  139.4786  144.5678  151.8137 LP  0  0  0  0  0  0  0  0  0  0  0  0  # atno 17343 bound_to 10162
  157.3108  130.6889  149.6214 LP  0  0  0  0  0  0  0  0  0  0  0  0  # atno 17370 bound_to 10713
  155.9663  130.4364  150.5132 LP  0  0  0  0  0  0  0  0  0  0  0  0  # atno 17371 bound_to 10713
  141.1804  133.6546  156.4997 LP  0  0  0  0  0  0  0  0  0  0  0  0  # atno 17394 bound_to 11000
  140.4302  134.7108  157.4938 LP  0  0  0  0  0  0  0  0  0  0  0  0  # atno 17395 bound_to 11000

$$$$
