AV-unprocessed.smi:2395|AV-procd|sdf|9491|dock8
  -GOLD-   2272013123D 1   1.00000     0.00000
 Structure written by MMmdl.
 39 40  0  0  0  0  0  0  0  0  1 V2000
  147.3123  141.4542  154.5394 C   0  0  0  0  0  0  0  0  0  0  0  0
  148.4274  140.4484  154.5625 C   0  0  0  0  0  0  0  0  0  0  0  0
  149.6453  140.8406  154.8957 N   0  0  0  0  0  0  0  0  0  0  0  0
  150.3990  139.7235  154.8313 N   0  0  0  0  0  0  0  0  0  0  0  0
  151.8174  139.8064  155.1516 C   0  0  0  0  0  0  0  0  0  0  0  0
  152.1010  139.5973  156.6440 C   0  0  0  0  0  0  0  0  0  0  0  0
  152.9483  138.7867  157.0222 O   0  0  0  0  0  0  0  0  0  0  0  0
  151.3774  140.3486  157.4873 N   0  0  0  0  0  0  0  0  0  0  0  0
  151.5013  140.3315  158.9388 C   0  0  0  0  0  0  0  0  0  0  0  0
  152.7044  141.0766  159.4849 C   0  0  0  0  0  0  0  0  0  0  0  0
  152.6817  141.6424  160.8852 C   0  0  0  0  0  0  0  0  0  0  0  0
  152.6651  142.5720  159.6950 C   0  0  0  0  0  0  0  0  0  0  0  0
  149.6524  138.6232  154.4483 C   0  0  0  0  0  0  0  0  0  0  0  0
  150.2493  137.2593  154.3066 C   0  0  0  0  0  0  0  0  0  0  0  0
  148.3673  139.0567  154.2605 C   0  0  0  0  0  0  0  0  0  0  0  0
  147.1575  138.2637  153.8425 C   0  0  0  0  0  0  0  0  0  0  0  0
  146.5122  138.8500  152.5801 C   0  0  0  0  0  0  0  0  0  0  0  0
  147.4819  138.9905  151.5646 O   0  0  0  0  0  0  0  0  0  0  0  0
  146.3843  141.0185  154.9101 H   0  0  0  0  0  0  0  0  0  0  0  0
  147.1305  141.8097  153.5252 H   0  0  0  0  0  0  0  0  0  0  0  0
  147.5393  142.3209  155.1613 H   0  0  0  0  0  0  0  0  0  0  0  0
  152.3493  139.0587  154.5618 H   0  0  0  0  0  0  0  0  0  0  0  0
  152.2016  140.7818  154.8494 H   0  0  0  0  0  0  0  0  0  0  0  0
  150.6998  140.9859  157.0944 H   0  0  0  0  0  0  0  0  0  0  0  0
  150.5922  140.7614  159.3604 H   0  0  0  0  0  0  0  0  0  0  0  0
  151.5407  139.2993  159.2904 H   0  0  0  0  0  0  0  0  0  0  0  0
  153.6595  140.6626  159.1663 H   0  0  0  0  0  0  0  0  0  0  0  0
  151.7612  141.5452  161.4575 H   0  0  0  0  0  0  0  0  0  0  0  0
  153.6001  141.5832  161.4656 H   0  0  0  0  0  0  0  0  0  0  0  0
  153.5729  143.1326  159.4814 H   0  0  0  0  0  0  0  0  0  0  0  0
  151.7340  143.0910  159.4755 H   0  0  0  0  0  0  0  0  0  0  0  0
  149.4987  136.5271  154.0098 H   0  0  0  0  0  0  0  0  0  0  0  0
  150.6817  136.9254  155.2499 H   0  0  0  0  0  0  0  0  0  0  0  0
  151.0363  137.2556  153.5525 H   0  0  0  0  0  0  0  0  0  0  0  0
  147.4276  137.2233  153.6579 H   0  0  0  0  0  0  0  0  0  0  0  0
  146.4205  138.2347  154.6459 H   0  0  0  0  0  0  0  0  0  0  0  0
  145.7119  138.2027  152.2199 H   0  0  0  0  0  0  0  0  0  0  0  0
  146.0742  139.8263  152.7902 H   0  0  0  0  0  0  0  0  0  0  0  0
  148.1065  139.6461  151.8350 H   0  0  0  0  0  0  0  0  0  0  0  0
  1  2  1  0  0  0  0
  1 19  1  0  0  0  0
  1 20  1  0  0  0  0
  1 21  1  0  0  0  0
  2 15  1  0  0  0  0
  2  3  2  0  0  0  0
  3  4  1  0  0  0  0
  4  5  1  0  0  0  0
  4 13  1  0  0  0  0
  5  6  1  0  0  0  0
  5 22  1  0  0  0  0
  5 23  1  0  0  0  0
  6  7  2  0  0  0  0
  6  8  1  0  0  0  0
  8  9  1  0  0  0  0
  8 24  1  0  0  0  0
  9 10  1  0  0  0  0
  9 25  1  0  0  0  0
  9 26  1  0  0  0  0
 10 12  1  0  0  0  0
 10 11  1  0  0  0  0
 10 27  1  0  0  0  0
 11 12  1  0  0  0  0
 11 28  1  0  0  0  0
 11 29  1  0  0  0  0
 12 30  1  0  0  0  0
 12 31  1  0  0  0  0
 13 14  1  0  0  0  0
 13 15  2  0  0  0  0
 14 32  1  0  0  0  0
 14 33  1  0  0  0  0
 14 34  1  0  0  0  0
 15 16  1  0  0  0  0
 16 17  1  0  0  0  0
 16 35  1  0  0  0  0
 16 36  1  0  0  0  0
 17 18  1  0  0  0  0
 17 37  1  0  0  0  0
 17 38  1  0  0  0  0
 18 39  1  0  0  0  0
M  END
> <s_m_source_file>
AV-unprocessed.smi

> <i_m_source_file_index>
2395

> <i_lp_mmshare_version>
43012

> <i_f3d_flags>
0

> <s_epik_input>
W09IXVtDSDJdW0NIMl1jMWMoW0NIM10pbihuYzFbQ0gzXSlbQ0gyXUMoPU8pW05IXVtDSDJdW0NIXTJbQ0gyXVtDSDJdMg==

> <s_epik_cmdline>
J2VwaWtfcHl0aG9uJywgJy1waCcsICc3LjAnLCAnLXRuJywgJzgnLCAnLW1hJywgJzIwMCcsICctbWV0YWxfYmluZGluZycsICctaW1hZScsICc8aW5maWxlLm1hZT4nLCAnLW9tYWUnLCAnPG91dGZpbGUubWFlPic=

> <r_lp_tautomer_probability>
1

> <r_epik_Ionization_Penalty>
0.000725848

> <r_epik_Ionization_Penalty_Charging>
0

> <r_epik_Ionization_Penalty_Neutral>
0.000725848

> <r_epik_State_Penalty>
-0

> <r_epik_Charging_Adjusted_Penalty>
0

> <i_epik_Tot_Q>
0

> <i_epik_Tot_abs_Q>
0

> <r_epik_Metal_State_Penalty>
-0

> <b_epik_Metal_Only>
0

> <s_lp_Force_Field>
OPLS_2005

> <r_lp_Energy>
10.6696

> <b_lp_Chiralities_Consistent>
1

> <s_lp_Variant>
AV-unprocessed.smi:2395-1

> <Gold.Version>
5.8.1

> <Gold.Id.Protein>
6NUR|6NUR_protein|mol2

> <Gold.PLP.Fitness>
46.4355

> <Gold.PLP.PLP>
-38.7132

> <Gold.PLP.part.hbond>
-4.7737

> <Gold.PLP.part.metal>
0.0000

> <Gold.PLP.part.buried>
1.2905

> <Gold.PLP.part.nonpolar>
-34.3854

> <Gold.PLP.part.repulsive>
0.2126

> <Gold.PLP.ligand.clash>
0.0000

> <Gold.PLP.ligand.torsion>
0.8566

> <Gold.PLP.Chemscore.Hbond>
2.9520

> <Gold.PLP.Chemscore.CHOScore>
0.0000

> <Gold.PLP.Chemscore.Metal>
0.0000

> <Gold.Chemscore.Hbonds>
donor molecule, donor type, donor heavy atom, donor atom, acceptor molecule, acceptor atom, score
      L1  H    18    39       P1  7957  0.56
      P1  H  7954  7966       L1    18  0.66
      P1  H  7997  8010       L1     7  0.85

> <Gold.PLP.Chemscore.Internal.Correction>
0.5795

> <Gold.Rescore>
     Score         DG    S(hbond)    S(metal)    S(lipo)     H(rot)  DE(clash)    DE(int)     intcor
     11.79     -13.20       1.31        0.00      83.95       2.53       0.65       0.76       ----

> <Gold.Chemscore.Fitness>
11.7931

> <Gold.Chemscore.DG>
-13.1980

> <Gold.Chemscore.ZeroCoef>
-5.4800

> <Gold.Chemscore.Hbond>
1.3100

> <Gold.Chemscore.Metal>
0.0000

> <Gold.Chemscore.Lipo>
83.9454

> <Gold.Chemscore.Internal_Hbond>
0.0000

> <Gold.Chemscore.DEClash>
0.6479

> <Gold.Chemscore.DEInternal>
0.7569

> <Gold.Chemscore.Rot>
2.5309

> <Gold.Chemscore.Internal.Correction>
   9.000000E+99

> <Gold.Chemscore.Hbonds>
donor molecule, donor type, donor heavy atom, donor atom, acceptor molecule, acceptor atom, score
      L1  H    18    39       P1  7957  0.56
      P1  H  7954  7966       L1    18  0.51
      P1  H  7997  8010       L1     7  0.13

> <Gold.Chemscore.Hbond.Weighted>
-4.3753

> <Gold.Chemscore.Metal.Weighted>
-0.0000

> <Gold.Chemscore.Lipo.Weighted>
-9.8216

> <Gold.Chemscore.Internal_Hbond.Weighted>
0.0000

> <Gold.Chemscore.DEClash.Weighted>
0.6479

> <Gold.Chemscore.DEInternal.Weighted>
0.7569

> <Gold.Chemscore.Rot.Weighted>
6.4790

> <Gold.Chemscore.Internal.Correction.Weighted>
   9.000000E+99

> <Gold.Protein.RotatedTorsions>
[ 6907 6896 6895 6894 ] final  107.30 input  -60.11 | X-H torsion
[ 7974 7965 7964 7962 ] final -156.51 input  175.53 | X-H torsion
[ 8008 7997 7996 7995 ] final   39.61 input   59.86 | X-H torsion
[ 10167 10162 10161 10158 ] final  152.40 input  -65.29 | X-H torsion
[ 10718 10713 10712 10709 ] final  137.91 input   66.30 | X-H torsion
[ 10763 10752 10751 10750 ] final  155.04 input  -60.55 | X-H torsion
[ 11005 11000 10999 10996 ] final  -86.51 input  -57.11 | X-H torsion

> <Gold.Protein.ActiveResidues>
 VAL166  LYS551  ARG553  GLY616  TRP617  ASP618  TYR619  PRO620  LYS621  CYS622 
 ASP623  PHE694  ASN695  SER759  ASP760  ASP761  ALA762  ILE779  LEU786  VAL792 
 PHE793  MET794  SER795  GLU796  ALA797  LYS798  CYS799  TRP800  GLU811  SER814 

> <Gold.Protein.RotatedAtoms>
  152.5160  133.9255  159.7554 H   0  0  0  0  0  0  0  0  0  0  0  0  # atno 6907 bound_to 6896
  150.9617  133.6429  159.2760 H   0  0  0  0  0  0  0  0  0  0  0  0  # atno 6908 bound_to 6896
  151.3672  135.0921  159.9506 H   0  0  0  0  0  0  0  0  0  0  0  0  # atno 6909 bound_to 6896
  144.7590  140.4100  143.5991 H   0  0  0  0  0  0  0  0  0  0  0  0  # atno 7974 bound_to 7965
  155.2394  140.3344  155.4294 H   0  0  0  0  0  0  0  0  0  0  0  0  # atno 8008 bound_to 7997
  156.2262  140.1830  156.7402 H   0  0  0  0  0  0  0  0  0  0  0  0  # atno 8009 bound_to 7997
  154.5903  140.0639  156.9214 H   0  0  0  0  0  0  0  0  0  0  0  0  # atno 8010 bound_to 7997
  139.4833  144.5361  151.7643 H   0  0  0  0  0  0  0  0  0  0  0  0  # atno 10167 bound_to 10162
  157.4310  131.1048  151.0250 H   0  0  0  0  0  0  0  0  0  0  0  0  # atno 10718 bound_to 10713
  154.1620  135.2809  155.3106 H   0  0  0  0  0  0  0  0  0  0  0  0  # atno 10763 bound_to 10752
  154.6140  135.5489  153.7506 H   0  0  0  0  0  0  0  0  0  0  0  0  # atno 10764 bound_to 10752
  153.0189  135.6422  154.1762 H   0  0  0  0  0  0  0  0  0  0  0  0  # atno 10765 bound_to 10752
  141.1629  133.7458  156.9172 H   0  0  0  0  0  0  0  0  0  0  0  0  # atno 11005 bound_to 11000
  145.6683  139.1594  143.2769 LP  0  0  0  0  0  0  0  0  0  0  0  0  # atno 17320 bound_to 7965
  146.1632  140.6757  142.9267 LP  0  0  0  0  0  0  0  0  0  0  0  0  # atno 17321 bound_to 7965
  140.4894  144.1333  150.5947 LP  0  0  0  0  0  0  0  0  0  0  0  0  # atno 17342 bound_to 10162
  140.4189  143.2621  151.9741 LP  0  0  0  0  0  0  0  0  0  0  0  0  # atno 17343 bound_to 10162
  157.1147  130.6036  149.5490 LP  0  0  0  0  0  0  0  0  0  0  0  0  # atno 17370 bound_to 10713
  155.9913  130.4967  150.7294 LP  0  0  0  0  0  0  0  0  0  0  0  0  # atno 17371 bound_to 10713
  140.1476  134.9251  157.2551 LP  0  0  0  0  0  0  0  0  0  0  0  0  # atno 17394 bound_to 11000
  140.2761  134.3404  155.7358 LP  0  0  0  0  0  0  0  0  0  0  0  0  # atno 17395 bound_to 11000

$$$$
