AV-unprocessed.smi:283|AV-procd|sdf|2138|dock2
  -GOLD-   2262021463D 1   1.00000     0.00000
 Structure written by MMmdl.
 48 51  0  0  0  0  0  0  0  0  1 V2000
  149.0333  141.7818  157.3222 C   0  0  0  0  0  0  0  0  0  0  0  0
  150.2795  140.9075  157.5167 C   0  0  1  0  0  0  0  0  0  0  0  0
  150.8798  140.6119  156.2179 N   0  0  0  0  0  0  0  0  0  0  0  0
  150.9963  139.3406  155.7747 C   0  0  0  0  0  0  0  0  0  0  0  0
  151.6957  139.1873  154.6260 N   0  0  0  0  0  0  0  0  0  0  0  0
  151.8874  137.9686  154.1165 C   0  0  0  0  0  0  0  0  0  0  0  0
  151.4604  136.7952  154.5835 N   0  0  0  0  0  0  0  0  0  0  0  0
  150.7315  136.9364  155.7295 C   0  0  0  0  0  0  0  0  0  0  0  0
  150.4625  138.1699  156.3913 C   0  0  0  0  0  0  0  0  0  0  0  0
  149.7093  137.9222  157.5309 N   0  0  0  0  0  0  0  0  0  0  0  0
  149.5612  136.6272  157.5476 C   0  0  0  0  0  0  0  0  0  0  0  0
  150.1061  135.9515  156.4760 N   0  0  0  0  0  0  0  0  0  0  0  0
  150.1172  134.4622  156.2319 C   0  0  2  0  0  0  0  0  0  0  0  0
  149.7094  134.2007  154.9272 O   0  0  0  0  0  0  0  0  0  0  0  0
  148.2907  134.1685  154.8857 C   0  0  1  0  0  0  0  0  0  0  0  0
  147.8163  133.4691  153.6036 C   0  0  0  0  0  0  0  0  0  0  0  0
  147.5243  134.4286  152.6102 O   0  0  0  0  0  0  0  0  0  0  0  0
  147.9473  133.4039  156.1701 C   0  0  2  0  0  0  0  0  0  0  0  0
  146.7126  133.8646  156.6830 O   0  0  0  0  0  0  0  0  0  0  0  0
  149.0919  133.7415  157.1311 C   0  0  1  0  0  0  0  0  0  0  0  0
  149.6418  132.5671  157.6924 O   0  0  0  0  0  0  0  0  0  0  0  0
  151.2301  141.5548  158.5279 C   0  0  0  0  0  0  0  0  0  0  0  0
  151.0288  142.8971  158.9268 C   0  0  0  0  0  0  0  0  0  0  0  0
  151.8908  143.5078  159.8566 C   0  0  0  0  0  0  0  0  0  0  0  0
  152.9597  142.7788  160.4073 C   0  0  0  0  0  0  0  0  0  0  0  0
  153.1616  141.4385  160.0295 C   0  0  0  0  0  0  0  0  0  0  0  0
  152.3024  140.8225  159.0974 C   0  0  0  0  0  0  0  0  0  0  0  0
  152.5898  139.1685  158.6827 Cl  0  0  0  0  0  0  0  0  0  0  0  0
  151.1562  134.1763  156.4016 H   0  0  0  0  0  0  0  0  0  0  0  0
  147.9003  135.1874  154.9397 H   0  0  0  0  0  0  0  0  0  0  0  0
  147.8988  132.3306  155.9785 H   0  0  0  0  0  0  0  0  0  0  0  0
  148.7599  134.3844  157.9457 H   0  0  0  0  0  0  0  0  0  0  0  0
  148.5173  141.9454  158.2688 H   0  0  0  0  0  0  0  0  0  0  0  0
  148.3245  141.3110  156.6402 H   0  0  0  0  0  0  0  0  0  0  0  0
  149.2928  142.7586  156.9122 H   0  0  0  0  0  0  0  0  0  0  0  0
  149.9326  139.9552  157.9130 H   0  0  0  0  0  0  0  0  0  0  0  0
  151.4480  141.3565  155.8414 H   0  0  0  0  0  0  0  0  0  0  0  0
  152.4647  137.9267  153.2048 H   0  0  0  0  0  0  0  0  0  0  0  0
  149.0388  136.1320  158.3531 H   0  0  0  0  0  0  0  0  0  0  0  0
  148.5575  132.7570  153.2399 H   0  0  0  0  0  0  0  0  0  0  0  0
  146.8995  132.9125  153.7990 H   0  0  0  0  0  0  0  0  0  0  0  0
  148.2637  135.0114  152.5285 H   0  0  0  0  0  0  0  0  0  0  0  0
  146.8614  134.2300  157.5417 H   0  0  0  0  0  0  0  0  0  0  0  0
  149.5221  131.8567  157.0806 H   0  0  0  0  0  0  0  0  0  0  0  0
  150.2093  143.4707  158.5194 H   0  0  0  0  0  0  0  0  0  0  0  0
  151.7295  144.5352  160.1485 H   0  0  0  0  0  0  0  0  0  0  0  0
  153.6208  143.2449  161.1229 H   0  0  0  0  0  0  0  0  0  0  0  0
  153.9792  140.8795  160.4604 H   0  0  0  0  0  0  0  0  0  0  0  0
  1  2  1  0  0  0  0
  1 33  1  0  0  0  0
  1 34  1  0  0  0  0
  1 35  1  0  0  0  0
  2  3  1  0  0  0  0
  2 22  1  0  0  0  0
  2 36  1  0  0  0  0
  3  4  1  0  0  0  0
  3 37  1  0  0  0  0
  4  9  1  0  0  0  0
  4  5  2  0  0  0  0
  5  6  1  0  0  0  0
  6  7  2  0  0  0  0
  6 38  1  0  0  0  0
  7  8  1  0  0  0  0
  8 12  1  0  0  0  0
  8  9  2  0  0  0  0
  9 10  1  0  0  0  0
 10 11  2  0  0  0  0
 11 12  1  0  0  0  0
 11 39  1  0  0  0  0
 12 13  1  0  0  0  0
 13 29  1  0  0  0  0
 13 20  1  0  0  0  0
 13 14  1  0  0  0  0
 14 15  1  0  0  0  0
 15 30  1  0  0  0  0
 15 16  1  0  0  0  0
 15 18  1  0  0  0  0
 16 17  1  0  0  0  0
 16 40  1  0  0  0  0
 16 41  1  0  0  0  0
 17 42  1  0  0  0  0
 18 31  1  0  0  0  0
 18 19  1  0  0  0  0
 18 20  1  0  0  0  0
 19 43  1  0  0  0  0
 20 32  1  0  0  0  0
 20 21  1  0  0  0  0
 21 44  1  0  0  0  0
 22 27  1  0  0  0  0
 22 23  2  0  0  0  0
 23 24  1  0  0  0  0
 23 45  1  0  0  0  0
 24 25  2  0  0  0  0
 24 46  1  0  0  0  0
 25 26  1  0  0  0  0
 25 47  1  0  0  0  0
 26 27  2  0  0  0  0
 26 48  1  0  0  0  0
 27 28  1  0  0  0  0
M  END
> <s_m_source_file>
AV-unprocessed.smi

> <i_m_source_file_index>
283

> <i_lp_mmshare_version>
43012

> <i_f3d_flags>
0

> <s_epik_input>
Q2xjMVtjSF1bY0hdW2NIXVtjSF1jMVtDQEhdKFtDSDNdKVtOSF1jKG5bY0hdbjIpYyhjMjMpbltjSF1uM1tDQEBIXTRPW0NASF0oW0NIMl1bT0hdKVtDQEBIXShbT0hdKVtDQEhdNFtPSF0=

> <s_epik_cmdline>
J2VwaWtfcHl0aG9uJywgJy1waCcsICc3LjAnLCAnLXRuJywgJzgnLCAnLW1hJywgJzIwMCcsICctbWV0YWxfYmluZGluZycsICctaW1hZScsICc8aW5maWxlLm1hZT4nLCAnLW9tYWUnLCAnPG91dGZpbGUubWFlPic=

> <r_lp_tautomer_probability>
1

> <r_epik_Ionization_Penalty>
0.000266407

> <r_epik_Ionization_Penalty_Charging>
0

> <r_epik_Ionization_Penalty_Neutral>
0.000266407

> <r_epik_State_Penalty>
-0

> <r_epik_Charging_Adjusted_Penalty>
0

> <i_epik_Tot_Q>
0

> <i_epik_Tot_abs_Q>
0

> <r_epik_Metal_State_Penalty>
-0

> <b_epik_Metal_Only>
0

> <s_epik_Chemistry_Notes>
This compound contains an acetal/aminal-like group ( X-CH(R)-Y where X, Y are N, S, or O) that may be acid/base labile, releasing an aldehyde.

> <s_lp_Force_Field>
OPLS_2005

> <r_lp_Energy>
39.8379

> <b_lp_Chiralities_Consistent>
1

> <s_lp_Variant>
AV-unprocessed.smi:283-14

> <Gold.Version>
5.8.1

> <Gold.Id.Protein>
6NUR|6NUR_protein|mol2

> <Gold.PLP.Fitness>
48.6397

> <Gold.PLP.PLP>
-38.2877

> <Gold.PLP.part.hbond>
-4.0000

> <Gold.PLP.part.metal>
0.0000

> <Gold.PLP.part.buried>
-6.7474

> <Gold.PLP.part.nonpolar>
-28.6921

> <Gold.PLP.part.repulsive>
0.4407

> <Gold.PLP.ligand.clash>
0.0000

> <Gold.PLP.ligand.torsion>
0.9231

> <Gold.PLP.Chemscore.Hbond>
3.9440

> <Gold.PLP.Chemscore.CHOScore>
0.0836

> <Gold.PLP.Chemscore.Metal>
0.0000

> <Gold.Chemscore.Hbonds>
donor molecule, donor type, donor heavy atom, donor atom, acceptor molecule, acceptor atom, score
      L1  H    17    42       P1  7948  0.96
      P1  H  6896  6908       L1    21  0.16
      P1  H  7989  7998       L1     5  1.00
      P1  H 10752 10765       L1     7  1.00
      L1  C     6    38       P1  7949  0.07

> <Gold.PLP.Chemscore.Internal.Correction>
0.1155

> <Gold.Rescore>
     Score         DG    S(hbond)    S(metal)    S(lipo)     H(rot)  DE(clash)    DE(int)     intcor
     12.11     -14.11       2.65        0.00      87.64       4.10       0.57       1.42       ----

> <Gold.Chemscore.Fitness>
12.1142

> <Gold.Chemscore.DG>
-14.1123

> <Gold.Chemscore.ZeroCoef>
-5.4800

> <Gold.Chemscore.Hbond>
2.6545

> <Gold.Chemscore.Metal>
0.0000

> <Gold.Chemscore.Lipo>
87.6428

> <Gold.Chemscore.Internal_Hbond>
0.0000

> <Gold.Chemscore.DEClash>
0.5733

> <Gold.Chemscore.DEInternal>
1.4248

> <Gold.Chemscore.Rot>
4.0968

> <Gold.Chemscore.Internal.Correction>
   9.000000E+99

> <Gold.Chemscore.Hbonds>
donor molecule, donor type, donor heavy atom, donor atom, acceptor molecule, acceptor atom, score
      L1  H    17    42       P1  7948  0.57
      P1  H  6896  6908       L1    21  0.06
      P1  H  7989  7998       L1     5  0.75
      P1  H 10752 10765       L1     7  0.45

> <Gold.Chemscore.Hbond.Weighted>
-8.8660

> <Gold.Chemscore.Metal.Weighted>
-0.0000

> <Gold.Chemscore.Lipo.Weighted>
-10.2542

> <Gold.Chemscore.Internal_Hbond.Weighted>
0.0000

> <Gold.Chemscore.DEClash.Weighted>
0.5733

> <Gold.Chemscore.DEInternal.Weighted>
1.4248

> <Gold.Chemscore.Rot.Weighted>
10.4879

> <Gold.Chemscore.Internal.Correction.Weighted>
   9.000000E+99

> <Gold.Protein.RotatedTorsions>
[ 6907 6896 6895 6894 ] final   82.80 input  -60.11 | X-H torsion
[ 7974 7965 7964 7962 ] final   66.51 input  175.53 | X-H torsion
[ 8008 7997 7996 7995 ] final  128.32 input   59.86 | X-H torsion
[ 10167 10162 10161 10158 ] final  -53.18 input  -65.29 | X-H torsion
[ 10718 10713 10712 10709 ] final   85.08 input   66.30 | X-H torsion
[ 10763 10752 10751 10750 ] final  166.66 input  -60.55 | X-H torsion
[ 11005 11000 10999 10996 ] final  -42.35 input  -57.11 | X-H torsion

> <Gold.Protein.ActiveResidues>
 VAL166  LYS551  ARG553  GLY616  TRP617  ASP618  TYR619  PRO620  LYS621  CYS622 
 ASP623  PHE694  ASN695  SER759  ASP760  ASP761  ALA762  ILE779  LEU786  VAL792 
 PHE793  MET794  SER795  GLU796  ALA797  LYS798  CYS799  TRP800  GLU811  SER814 

> <Gold.Protein.RotatedAtoms>
  152.5309  134.2993  159.9072 H   0  0  0  0  0  0  0  0  0  0  0  0  # atno 6907 bound_to 6896
  151.2944  133.4144  159.2643 H   0  0  0  0  0  0  0  0  0  0  0  0  # atno 6908 bound_to 6896
  151.0173  134.9458  159.8097 H   0  0  0  0  0  0  0  0  0  0  0  0  # atno 6909 bound_to 6896
  145.8257  139.3110  143.1017 H   0  0  0  0  0  0  0  0  0  0  0  0  # atno 7974 bound_to 7965
  156.2912  140.2647  156.2417 H   0  0  0  0  0  0  0  0  0  0  0  0  # atno 8008 bound_to 7997
  154.9970  140.0388  157.2362 H   0  0  0  0  0  0  0  0  0  0  0  0  # atno 8009 bound_to 7997
  154.7635  140.2765  155.6200 H   0  0  0  0  0  0  0  0  0  0  0  0  # atno 8010 bound_to 7997
  140.6498  143.2559  151.4755 H   0  0  0  0  0  0  0  0  0  0  0  0  # atno 10167 bound_to 10162
  157.6909  131.0160  150.2769 H   0  0  0  0  0  0  0  0  0  0  0  0  # atno 10718 bound_to 10713
  154.3422  135.2754  155.2416 H   0  0  0  0  0  0  0  0  0  0  0  0  # atno 10763 bound_to 10752
  154.4682  135.5890  153.6306 H   0  0  0  0  0  0  0  0  0  0  0  0  # atno 10764 bound_to 10752
  152.9856  135.6081  154.3625 H   0  0  0  0  0  0  0  0  0  0  0  0  # atno 10765 bound_to 10752
  141.0309  133.6820  156.2582 H   0  0  0  0  0  0  0  0  0  0  0  0  # atno 11005 bound_to 11000
  145.9626  140.8823  143.0203 LP  0  0  0  0  0  0  0  0  0  0  0  0  # atno 17320 bound_to 7965
  144.6744  140.1833  143.7403 LP  0  0  0  0  0  0  0  0  0  0  0  0  # atno 17321 bound_to 7965
  139.5712  144.1923  152.1839 LP  0  0  0  0  0  0  0  0  0  0  0  0  # atno 17342 bound_to 10162
  140.1220  144.5364  150.6856 LP  0  0  0  0  0  0  0  0  0  0  0  0  # atno 17343 bound_to 10162
  156.3322  130.3802  149.7481 LP  0  0  0  0  0  0  0  0  0  0  0  0  # atno 17370 bound_to 10713
  156.5017  130.8132  151.3135 LP  0  0  0  0  0  0  0  0  0  0  0  0  # atno 17371 bound_to 10713
  140.6408  134.5168  157.5569 LP  0  0  0  0  0  0  0  0  0  0  0  0  # atno 17394 bound_to 11000
  139.9207  134.8154  156.1220 LP  0  0  0  0  0  0  0  0  0  0  0  0  # atno 17395 bound_to 11000

$$$$
