AV-unprocessed.smi:171|AV-procd|sdf|1418|dock2
  -GOLD-   2262019183D 1   1.00000     0.00000
 Structure written by MMmdl.
 56 59  0  0  0  0  0  0  0  0  1 V2000
  151.8505  144.2509  160.5358 C   0  0  0  0  0  0  0  0  0  0  0  0
  152.3794  142.9527  161.1682 C   0  0  0  0  0  0  0  0  0  0  0  0
  152.7395  143.1915  162.6431 C   0  0  0  0  0  0  0  0  0  0  0  0
  153.5871  142.3565  160.3961 C   0  0  0  0  0  0  0  0  0  0  0  0
  153.7234  140.8055  160.4078 C   0  0  2  0  0  0  0  0  0  0  0  0
  155.0293  140.3207  161.0782 C   0  0  0  0  0  0  0  0  0  0  0  0
  155.3798  140.8025  162.1538 O   0  0  0  0  0  0  0  0  0  0  0  0
  155.7491  139.3527  160.4852 N   0  0  0  0  0  0  0  0  0  0  0  0
  155.4273  138.7182  159.2101 C   0  0  0  0  0  0  0  0  0  0  0  0
  153.9441  138.8653  158.8439 C   0  0  0  0  0  0  0  0  0  0  0  0
  153.5153  140.2398  159.0641 N   0  0  0  0  0  0  0  0  0  0  0  0
  152.3390  140.5220  158.4609 C   0  0  0  0  0  0  0  0  0  0  0  0
  151.4088  141.2791  159.0986 N   0  0  0  0  0  0  0  0  0  0  0  0
  150.2581  141.5731  158.4851 C   0  0  0  0  0  0  0  0  0  0  0  0
  149.8489  141.2222  157.2633 N   0  0  0  0  0  0  0  0  0  0  0  0
  150.7838  140.4592  156.6266 C   0  0  0  0  0  0  0  0  0  0  0  0
  152.0406  140.0564  157.1550 C   0  0  0  0  0  0  0  0  0  0  0  0
  152.7253  139.2809  156.2291 N   0  0  0  0  0  0  0  0  0  0  0  0
  151.9217  139.2366  155.2021 C   0  0  0  0  0  0  0  0  0  0  0  0
  150.7392  139.9267  155.3501 N   0  0  0  0  0  0  0  0  0  0  0  0
  149.6807  140.0579  154.3626 C   0  0  0  0  0  0  0  0  0  0  0  0
  148.5844  138.9741  154.4961 C   0  0  1  0  0  0  0  0  0  0  0  0
  149.0786  137.7619  153.9497 O   0  0  0  0  0  0  0  0  0  0  0  0
  148.1382  138.7103  155.9266 C   0  0  0  0  0  0  0  0  0  0  0  0
  146.7459  138.1209  155.7363 C   0  0  0  0  0  0  0  0  0  0  0  0
  146.2068  138.8041  154.6115 O   0  0  0  0  0  0  0  0  0  0  0  0
  147.2529  139.3743  153.8259 C   0  0  2  0  0  0  0  0  0  0  0  0
  147.0927  139.0084  152.3419 C   0  0  0  0  0  0  0  0  0  0  0  0
  152.6301  145.0110  160.4761 H   0  0  0  0  0  0  0  0  0  0  0  0
  151.0299  144.6650  161.1222 H   0  0  0  0  0  0  0  0  0  0  0  0
  151.4678  144.0844  159.5300 H   0  0  0  0  0  0  0  0  0  0  0  0
  151.5598  142.2350  161.1663 H   0  0  0  0  0  0  0  0  0  0  0  0
  153.5598  143.9033  162.7411 H   0  0  0  0  0  0  0  0  0  0  0  0
  153.0411  142.2632  163.1299 H   0  0  0  0  0  0  0  0  0  0  0  0
  151.8873  143.5854  163.1976 H   0  0  0  0  0  0  0  0  0  0  0  0
  153.5823  142.7265  159.3699 H   0  0  0  0  0  0  0  0  0  0  0  0
  154.5070  142.7678  160.8135 H   0  0  0  0  0  0  0  0  0  0  0  0
  152.9338  140.4155  161.0520 H   0  0  0  0  0  0  0  0  0  0  0  0
  156.5922  139.0441  160.9474 H   0  0  0  0  0  0  0  0  0  0  0  0
  156.0435  139.1865  158.4417 H   0  0  0  0  0  0  0  0  0  0  0  0
  155.7092  137.6657  159.2444 H   0  0  0  0  0  0  0  0  0  0  0  0
  153.7890  138.5675  157.8052 H   0  0  0  0  0  0  0  0  0  0  0  0
  153.3385  138.1998  159.4616 H   0  0  0  0  0  0  0  0  0  0  0  0
  149.5686  142.1813  159.0518 H   0  0  0  0  0  0  0  0  0  0  0  0
  152.1762  138.7042  154.2971 H   0  0  0  0  0  0  0  0  0  0  0  0
  149.2447  141.0517  154.4722 H   0  0  0  0  0  0  0  0  0  0  0  0
  150.1261  140.0285  153.3673 H   0  0  0  0  0  0  0  0  0  0  0  0
  148.5096  137.4991  153.2424 H   0  0  0  0  0  0  0  0  0  0  0  0
  148.8089  138.0548  156.4844 H   0  0  0  0  0  0  0  0  0  0  0  0
  148.0571  139.6506  156.4735 H   0  0  0  0  0  0  0  0  0  0  0  0
  146.8089  137.0567  155.5055 H   0  0  0  0  0  0  0  0  0  0  0  0
  146.1147  138.2398  156.6173 H   0  0  0  0  0  0  0  0  0  0  0  0
  147.1281  140.4536  153.9235 H   0  0  0  0  0  0  0  0  0  0  0  0
  147.8958  139.4391  151.7437 H   0  0  0  0  0  0  0  0  0  0  0  0
  146.1485  139.3888  151.9518 H   0  0  0  0  0  0  0  0  0  0  0  0
  147.0983  137.9291  152.1887 H   0  0  0  0  0  0  0  0  0  0  0  0
  1  2  1  0  0  0  0
  1 29  1  0  0  0  0
  1 30  1  0  0  0  0
  1 31  1  0  0  0  0
  2  3  1  0  0  0  0
  2  4  1  0  0  0  0
  2 32  1  0  0  0  0
  3 33  1  0  0  0  0
  3 34  1  0  0  0  0
  3 35  1  0  0  0  0
  4  5  1  0  0  0  0
  4 36  1  0  0  0  0
  4 37  1  0  0  0  0
  5 11  1  0  0  0  0
  5  6  1  0  0  0  0
  5 38  1  0  0  0  0
  6  7  2  0  0  0  0
  6  8  1  0  0  0  0
  8  9  1  0  0  0  0
  8 39  1  0  0  0  0
  9 10  1  0  0  0  0
  9 40  1  0  0  0  0
  9 41  1  0  0  0  0
 10 11  1  0  0  0  0
 10 42  1  0  0  0  0
 10 43  1  0  0  0  0
 11 12  1  0  0  0  0
 12 17  1  0  0  0  0
 12 13  2  0  0  0  0
 13 14  1  0  0  0  0
 14 15  2  0  0  0  0
 14 44  1  0  0  0  0
 15 16  1  0  0  0  0
 16 20  1  0  0  0  0
 16 17  2  0  0  0  0
 17 18  1  0  0  0  0
 18 19  2  0  0  0  0
 19 20  1  0  0  0  0
 19 45  1  0  0  0  0
 20 21  1  0  0  0  0
 21 22  1  0  0  0  0
 21 46  1  0  0  0  0
 21 47  1  0  0  0  0
 22 27  1  0  0  0  0
 22 23  1  0  0  0  0
 22 24  1  0  0  0  0
 23 48  1  0  0  0  0
 24 25  1  0  0  0  0
 24 49  1  0  0  0  0
 24 50  1  0  0  0  0
 25 26  1  0  0  0  0
 25 51  1  0  0  0  0
 25 52  1  0  0  0  0
 26 27  1  0  0  0  0
 27 28  1  0  0  0  0
 27 53  1  0  0  0  0
 28 54  1  0  0  0  0
 28 55  1  0  0  0  0
 28 56  1  0  0  0  0
M  END
> <s_m_source_file>
AV-unprocessed.smi

> <i_m_source_file_index>
171

> <i_lp_mmshare_version>
43012

> <i_f3d_flags>
0

> <s_epik_input>
W0NIM11bQ0hdKFtDSDNdKVtDSDJdW0NAQEhdMUMoPU8pW05IXVtDSDJdW0NIMl1OMWMobltjSF1uMiljKGMyMyluW2NIXW4zW0NIMl1bQ0BAXTQoW09IXSlbQ0gyXVtDSDJdT1tDQEhdNFtDSDNd

> <s_epik_cmdline>
J2VwaWtfcHl0aG9uJywgJy1waCcsICc3LjAnLCAnLXRuJywgJzgnLCAnLW1hJywgJzIwMCcsICctbWV0YWxfYmluZGluZycsICctaW1hZScsICc8aW5maWxlLm1hZT4nLCAnLW9tYWUnLCAnPG91dGZpbGUubWFlPic=

> <r_lp_tautomer_probability>
1

> <r_epik_Ionization_Penalty>
0.000670584

> <r_epik_Ionization_Penalty_Charging>
0

> <r_epik_Ionization_Penalty_Neutral>
0.000670584

> <r_epik_State_Penalty>
0.000304767

> <r_epik_Charging_Adjusted_Penalty>
0.000304767

> <i_epik_Tot_Q>
0

> <i_epik_Tot_abs_Q>
0

> <r_epik_Metal_State_Penalty>
-0

> <b_epik_Metal_Only>
0

> <s_lp_Force_Field>
OPLS_2005

> <r_lp_Energy>
41.3949

> <b_lp_Chiralities_Consistent>
1

> <s_lp_Variant>
AV-unprocessed.smi:171-5

> <Gold.Version>
5.8.1

> <Gold.Id.Protein>
6NUR|6NUR_protein|mol2

> <Gold.PLP.Fitness>
45.4444

> <Gold.PLP.PLP>
-46.3324

> <Gold.PLP.part.hbond>
-3.5331

> <Gold.PLP.part.metal>
0.0000

> <Gold.PLP.part.buried>
-3.3177

> <Gold.PLP.part.nonpolar>
-40.1474

> <Gold.PLP.part.repulsive>
0.1737

> <Gold.PLP.ligand.clash>
0.0000

> <Gold.PLP.ligand.torsion>
1.9754

> <Gold.PLP.Chemscore.Hbond>
0.8758

> <Gold.PLP.Chemscore.CHOScore>
0.0000

> <Gold.PLP.Chemscore.Metal>
0.0000

> <Gold.Chemscore.Hbonds>
donor molecule, donor type, donor heavy atom, donor atom, acceptor molecule, acceptor atom, score
      L1  H    23    48       P1  7948  0.50
      P1  H  7997  8010       L1    18  0.40

> <Gold.PLP.Chemscore.Internal.Correction>
0.4351

> <Gold.Rescore>
     Score         DG    S(hbond)    S(metal)    S(lipo)     H(rot)  DE(clash)    DE(int)     intcor
      5.51     -11.61       0.64        0.00      91.13       2.61       0.03       6.08       ----

> <Gold.Chemscore.Fitness>
5.5100

> <Gold.Chemscore.DG>
-11.6147

> <Gold.Chemscore.ZeroCoef>
-5.4800

> <Gold.Chemscore.Hbond>
0.6428

> <Gold.Chemscore.Metal>
0.0000

> <Gold.Chemscore.Lipo>
91.1342

> <Gold.Chemscore.Internal_Hbond>
0.0000

> <Gold.Chemscore.DEClash>
0.0260

> <Gold.Chemscore.DEInternal>
6.0787

> <Gold.Chemscore.Rot>
2.6074

> <Gold.Chemscore.Internal.Correction>
   9.000000E+99

> <Gold.Chemscore.Hbonds>
donor molecule, donor type, donor heavy atom, donor atom, acceptor molecule, acceptor atom, score
      L1  H    23    48       P1  7948  0.50
      P1  H  7997  8010       L1    18  0.02

> <Gold.Chemscore.Hbond.Weighted>
-2.1468

> <Gold.Chemscore.Metal.Weighted>
-0.0000

> <Gold.Chemscore.Lipo.Weighted>
-10.6627

> <Gold.Chemscore.Internal_Hbond.Weighted>
0.0000

> <Gold.Chemscore.DEClash.Weighted>
0.0260

> <Gold.Chemscore.DEInternal.Weighted>
6.0787

> <Gold.Chemscore.Rot.Weighted>
6.6748

> <Gold.Chemscore.Internal.Correction.Weighted>
   9.000000E+99

> <Gold.Protein.RotatedTorsions>
[ 6907 6896 6895 6894 ] final -176.54 input  -60.11 | X-H torsion
[ 7974 7965 7964 7962 ] final   28.68 input  175.53 | X-H torsion
[ 8008 7997 7996 7995 ] final   45.15 input   59.86 | X-H torsion
[ 10167 10162 10161 10158 ] final  -18.07 input  -65.29 | X-H torsion
[ 10718 10713 10712 10709 ] final -151.40 input   66.30 | X-H torsion
[ 10763 10752 10751 10750 ] final   -6.02 input  -60.55 | X-H torsion
[ 11005 11000 10999 10996 ] final -124.87 input  -57.11 | X-H torsion

> <Gold.Protein.ActiveResidues>
 VAL166  LYS551  ARG553  GLY616  TRP617  ASP618  TYR619  PRO620  LYS621  CYS622 
 ASP623  PHE694  ASN695  SER759  ASP760  ASP761  ALA762  ILE779  LEU786  VAL792 
 PHE793  MET794  SER795  GLU796  ALA797  LYS798  CYS799  TRP800  GLU811  SER814 

> <Gold.Protein.RotatedAtoms>
  151.6065  133.3351  159.3058 H   0  0  0  0  0  0  0  0  0  0  0  0  # atno 6907 bound_to 6896
  150.8179  134.7375  159.6758 H   0  0  0  0  0  0  0  0  0  0  0  0  # atno 6908 bound_to 6896
  152.4274  134.5847  160.0009 H   0  0  0  0  0  0  0  0  0  0  0  0  # atno 6909 bound_to 6896
  146.1715  139.7024  142.8964 H   0  0  0  0  0  0  0  0  0  0  0  0  # atno 7974 bound_to 7965
  155.3311  140.3402  155.4239 H   0  0  0  0  0  0  0  0  0  0  0  0  # atno 8008 bound_to 7997
  156.1861  140.1681  156.8219 H   0  0  0  0  0  0  0  0  0  0  0  0  # atno 8009 bound_to 7997
  154.5388  140.0729  156.8457 H   0  0  0  0  0  0  0  0  0  0  0  0  # atno 8010 bound_to 7997
  140.7254  143.4953  150.9939 H   0  0  0  0  0  0  0  0  0  0  0  0  # atno 10167 bound_to 10162
  156.4587  130.8203  151.2434 H   0  0  0  0  0  0  0  0  0  0  0  0  # atno 10718 bound_to 10713
  153.4066  135.7006  153.6388 H   0  0  0  0  0  0  0  0  0  0  0  0  # atno 10763 bound_to 10752
  153.4900  135.3675  155.2487 H   0  0  0  0  0  0  0  0  0  0  0  0  # atno 10764 bound_to 10752
  154.8714  135.4086  154.3411 H   0  0  0  0  0  0  0  0  0  0  0  0  # atno 10765 bound_to 10752
  140.9807  134.0677  157.3768 H   0  0  0  0  0  0  0  0  0  0  0  0  # atno 11005 bound_to 11000
  145.4327  141.0416  143.2902 LP  0  0  0  0  0  0  0  0  0  0  0  0  # atno 17320 bound_to 7965
  144.8170  139.5858  143.7004 LP  0  0  0  0  0  0  0  0  0  0  0  0  # atno 17321 bound_to 7965
  139.8659  143.7254  152.3170 LP  0  0  0  0  0  0  0  0  0  0  0  0  # atno 17342 bound_to 10162
  139.7486  144.7540  151.0541 LP  0  0  0  0  0  0  0  0  0  0  0  0  # atno 17343 bound_to 10162
  157.7499  131.0114  150.3344 LP  0  0  0  0  0  0  0  0  0  0  0  0  # atno 17370 bound_to 10713
  156.3739  130.3868  149.7154 LP  0  0  0  0  0  0  0  0  0  0  0  0  # atno 17371 bound_to 10713
  139.8949  135.0138  156.6974 LP  0  0  0  0  0  0  0  0  0  0  0  0  # atno 17394 bound_to 11000
  140.7191  133.9156  155.8135 LP  0  0  0  0  0  0  0  0  0  0  0  0  # atno 17395 bound_to 11000

$$$$
