AV-unprocessed.smi:2316|AV-procd|sdf|9269|dock2
  -GOLD-   2272012493D 1   1.00000     0.00000
 Structure written by MMmdl.
 31 32  0  0  0  0  0  0  0  0  1 V2000
  151.1228  141.2685  156.7088 O   0  0  0  0  0  0  0  0  0  0  0  0
  150.3725  142.2117  156.4684 C   0  0  0  0  0  0  0  0  0  0  0  0
  149.3089  142.1577  155.6428 N   0  0  0  0  0  0  0  0  0  0  0  0
  148.8102  141.0586  154.8925 C   0  0  0  0  0  0  0  0  0  0  0  0
  149.3795  139.7622  154.9027 C   0  0  0  0  0  0  0  0  0  0  0  0
  148.7752  138.7541  154.1251 C   0  0  0  0  0  0  0  0  0  0  0  0
  147.6732  138.9550  153.3718 N   0  0  0  0  0  0  0  0  0  0  0  0
  147.1255  140.1886  153.3751 C   0  0  0  0  0  0  0  0  0  0  0  0
  147.6499  141.2659  154.1169 C   0  0  0  0  0  0  0  0  0  0  0  0
  147.0480  142.4794  154.0787 F   0  0  0  0  0  0  0  0  0  0  0  0
  150.5850  143.4237  157.0149 N   0  0  0  0  0  0  0  0  0  0  0  0
  151.6383  143.8350  157.9461 C   0  0  2  0  0  0  0  0  0  0  0  0
  151.9882  142.7002  158.9013 C   0  0  0  0  0  0  0  0  0  0  0  0
  152.1618  142.8636  160.2240 C   0  0  0  0  0  0  0  0  0  0  0  0
  152.0438  144.2041  160.9247 C   0  0  0  0  0  0  0  0  0  0  0  0
  152.0681  145.3798  159.9322 C   0  0  0  0  0  0  0  0  0  0  0  0
  151.1881  145.1028  158.7038 C   0  0  0  0  0  0  0  0  0  0  0  0
  148.8330  143.0340  155.4845 H   0  0  0  0  0  0  0  0  0  0  0  0
  150.2490  139.5179  155.4926 H   0  0  0  0  0  0  0  0  0  0  0  0
  149.1862  137.7554  154.1134 H   0  0  0  0  0  0  0  0  0  0  0  0
  146.2414  140.3214  152.7691 H   0  0  0  0  0  0  0  0  0  0  0  0
  149.9471  144.1546  156.7344 H   0  0  0  0  0  0  0  0  0  0  0  0
  152.5456  144.0805  157.3916 H   0  0  0  0  0  0  0  0  0  0  0  0
  152.0988  141.7146  158.4728 H   0  0  0  0  0  0  0  0  0  0  0  0
  152.3874  142.0086  160.8444 H   0  0  0  0  0  0  0  0  0  0  0  0
  151.1134  144.2084  161.4931 H   0  0  0  0  0  0  0  0  0  0  0  0
  152.8572  144.3082  161.6432 H   0  0  0  0  0  0  0  0  0  0  0  0
  151.7456  146.2940  160.4312 H   0  0  0  0  0  0  0  0  0  0  0  0
  153.0934  145.5542  159.6031 H   0  0  0  0  0  0  0  0  0  0  0  0
  151.1996  145.9620  158.0322 H   0  0  0  0  0  0  0  0  0  0  0  0
  150.1554  144.9879  159.0373 H   0  0  0  0  0  0  0  0  0  0  0  0
  1  2  2  0  0  0  0
  2  3  1  0  0  0  0
  2 11  1  0  0  0  0
  3  4  1  0  0  0  0
  3 18  1  0  0  0  0
  4  9  1  0  0  0  0
  4  5  2  0  0  0  0
  5  6  1  0  0  0  0
  5 19  1  0  0  0  0
  6  7  2  0  0  0  0
  6 20  1  0  0  0  0
  7  8  1  0  0  0  0
  8  9  2  0  0  0  0
  8 21  1  0  0  0  0
  9 10  1  0  0  0  0
 11 12  1  0  0  0  0
 11 22  1  0  0  0  0
 12 17  1  0  0  0  0
 12 13  1  0  0  0  0
 12 23  1  0  0  0  0
 13 14  2  0  0  0  0
 13 24  1  0  0  0  0
 14 15  1  0  0  0  0
 14 25  1  0  0  0  0
 15 16  1  0  0  0  0
 15 26  1  0  0  0  0
 15 27  1  0  0  0  0
 16 17  1  0  0  0  0
 16 28  1  0  0  0  0
 16 29  1  0  0  0  0
 17 30  1  0  0  0  0
 17 31  1  0  0  0  0
M  END
> <s_m_source_file>
AV-unprocessed.smi

> <i_m_source_file_index>
2316

> <i_lp_mmshare_version>
43012

> <i_f3d_flags>
0

> <s_epik_input>
W0NIMl0xW0NIMl1bQ0gyXVtDSF09W0NIXVtDQEhdMVtOSF1DKD1PKVtOSF1jMltjSF1bY0hdbltjSF1jMkY=

> <s_epik_cmdline>
J2VwaWtfcHl0aG9uJywgJy1waCcsICc3LjAnLCAnLXRuJywgJzgnLCAnLW1hJywgJzIwMCcsICctbWV0YWxfYmluZGluZycsICctaW1hZScsICc8aW5maWxlLm1hZT4nLCAnLW9tYWUnLCAnPG91dGZpbGUubWFlPic=

> <r_epik_Ionization_Penalty>
0.0032416

> <r_epik_Ionization_Penalty_Charging>
0

> <r_epik_Ionization_Penalty_Neutral>
0.0032416

> <r_epik_State_Penalty>
0.00226065

> <r_epik_Charging_Adjusted_Penalty>
0.00226065

> <i_epik_Tot_Q>
0

> <i_epik_Tot_abs_Q>
0

> <r_epik_Metal_State_Penalty>
-0

> <b_epik_Metal_Only>
0

> <s_lp_Force_Field>
OPLS_2005

> <r_lp_Energy>
22.3144

> <b_lp_Chiralities_Consistent>
1

> <s_lp_Variant>
AV-unprocessed.smi:2316-1

> <Gold.Version>
5.8.1

> <Gold.Id.Protein>
6NUR|6NUR_protein|mol2

> <Gold.PLP.Fitness>
51.6139

> <Gold.PLP.PLP>
-40.6248

> <Gold.PLP.part.hbond>
-2.0000

> <Gold.PLP.part.metal>
0.0000

> <Gold.PLP.part.buried>
-4.1082

> <Gold.PLP.part.nonpolar>
-35.8683

> <Gold.PLP.part.repulsive>
1.4356

> <Gold.PLP.ligand.clash>
0.0000

> <Gold.PLP.ligand.torsion>
0.3308

> <Gold.PLP.Chemscore.Hbond>
1.9680

> <Gold.PLP.Chemscore.CHOScore>
1.9131

> <Gold.PLP.Chemscore.Metal>
0.0000

> <Gold.Chemscore.Hbonds>
donor molecule, donor type, donor heavy atom, donor atom, acceptor molecule, acceptor atom, score
      L1  H     3    18       P1  8028  0.94
      L1  H    11    22       P1  8028  1.00
      L1  C     6    20       P1  7948  0.44
      L1  C     8    21       P1 10175  0.89

> <Gold.PLP.Chemscore.Internal.Correction>
0.0074

> <Gold.Rescore>
     Score         DG    S(hbond)    S(metal)    S(lipo)     H(rot)  DE(clash)    DE(int)     intcor
     18.71     -21.36       1.92        0.00     102.63       1.00       0.05       2.59       ----

> <Gold.Chemscore.Fitness>
18.7095

> <Gold.Chemscore.DG>
-21.3563

> <Gold.Chemscore.ZeroCoef>
-5.4800

> <Gold.Chemscore.Hbond>
1.9246

> <Gold.Chemscore.Metal>
0.0000

> <Gold.Chemscore.Lipo>
102.6349

> <Gold.Chemscore.Internal_Hbond>
0.0000

> <Gold.Chemscore.DEClash>
0.0533

> <Gold.Chemscore.DEInternal>
2.5935

> <Gold.Chemscore.Rot>
1.0000

> <Gold.Chemscore.Internal.Correction>
   9.000000E+99

> <Gold.Chemscore.Hbonds>
donor molecule, donor type, donor heavy atom, donor atom, acceptor molecule, acceptor atom, score
      L1  H     3    18       P1  8028  0.91
      L1  H    11    22       P1  8028  0.90

> <Gold.Chemscore.Hbond.Weighted>
-6.4280

> <Gold.Chemscore.Metal.Weighted>
-0.0000

> <Gold.Chemscore.Lipo.Weighted>
-12.0083

> <Gold.Chemscore.Internal_Hbond.Weighted>
0.0000

> <Gold.Chemscore.DEClash.Weighted>
0.0533

> <Gold.Chemscore.DEInternal.Weighted>
2.5935

> <Gold.Chemscore.Rot.Weighted>
2.5600

> <Gold.Chemscore.Internal.Correction.Weighted>
   9.000000E+99

> <Gold.Protein.RotatedTorsions>
[ 6907 6896 6895 6894 ] final  -51.04 input  -60.11 | X-H torsion
[ 7974 7965 7964 7962 ] final   28.52 input  175.53 | X-H torsion
[ 8008 7997 7996 7995 ] final   -8.57 input   59.86 | X-H torsion
[ 10167 10162 10161 10158 ] final -152.04 input  -65.29 | X-H torsion
[ 10718 10713 10712 10709 ] final   86.21 input   66.30 | X-H torsion
[ 10763 10752 10751 10750 ] final  -60.63 input  -60.55 | X-H torsion
[ 11005 11000 10999 10996 ] final  -17.98 input  -57.11 | X-H torsion

> <Gold.Protein.ActiveResidues>
 VAL166  LYS551  ARG553  GLY616  TRP617  ASP618  TYR619  PRO620  LYS621  CYS622 
 ASP623  PHE694  ASN695  SER759  ASP760  ASP761  ALA762  ILE779  LEU786  VAL792 
 PHE793  MET794  SER795  GLU796  ALA797  LYS798  CYS799  TRP800  GLU811  SER814 

> <Gold.Protein.RotatedAtoms>
  150.8649  134.8010  159.7110 H   0  0  0  0  0  0  0  0  0  0  0  0  # atno 6907 bound_to 6896
  152.4674  134.5039  159.9743 H   0  0  0  0  0  0  0  0  0  0  0  0  # atno 6908 bound_to 6896
  151.5137  133.3441  159.2925 H   0  0  0  0  0  0  0  0  0  0  0  0  # atno 6909 bound_to 6896
  146.1724  139.7045  142.8958 H   0  0  0  0  0  0  0  0  0  0  0  0  # atno 7974 bound_to 7965
  154.5729  140.2377  155.8165 H   0  0  0  0  0  0  0  0  0  0  0  0  # atno 8008 bound_to 7997
  156.2120  140.3023  155.9712 H   0  0  0  0  0  0  0  0  0  0  0  0  # atno 8009 bound_to 7997
  155.2680  140.0417  157.2994 H   0  0  0  0  0  0  0  0  0  0  0  0  # atno 8010 bound_to 7997
  139.7215  143.8949  152.2505 H   0  0  0  0  0  0  0  0  0  0  0  0  # atno 10167 bound_to 10162
  157.6925  131.0206  150.2938 H   0  0  0  0  0  0  0  0  0  0  0  0  # atno 10718 bound_to 10713
  154.2721  135.6288  153.5314 H   0  0  0  0  0  0  0  0  0  0  0  0  # atno 10763 bound_to 10752
  152.9878  135.5612  154.5589 H   0  0  0  0  0  0  0  0  0  0  0  0  # atno 10764 bound_to 10752
  154.5161  135.2879  155.1277 H   0  0  0  0  0  0  0  0  0  0  0  0  # atno 10765 bound_to 10752
  140.8222  133.8059  155.9671 H   0  0  0  0  0  0  0  0  0  0  0  0  # atno 11005 bound_to 11000
  145.4303  141.0414  143.2914 LP  0  0  0  0  0  0  0  0  0  0  0  0  # atno 17320 bound_to 7965
  144.8184  139.5836  143.6998 LP  0  0  0  0  0  0  0  0  0  0  0  0  # atno 17321 bound_to 7965
  139.8847  144.6998  150.8838 LP  0  0  0  0  0  0  0  0  0  0  0  0  # atno 17342 bound_to 10162
  140.7754  143.3633  151.1786 LP  0  0  0  0  0  0  0  0  0  0  0  0  # atno 17343 bound_to 10162
  156.3465  130.3824  149.7365 LP  0  0  0  0  0  0  0  0  0  0  0  0  # atno 17370 bound_to 10713
  156.4857  130.8061  151.3074 LP  0  0  0  0  0  0  0  0  0  0  0  0  # atno 17371 bound_to 10713
  140.9087  134.2288  157.4999 LP  0  0  0  0  0  0  0  0  0  0  0  0  # atno 17394 bound_to 11000
  139.8708  134.9740  156.4829 LP  0  0  0  0  0  0  0  0  0  0  0  0  # atno 17395 bound_to 11000

$$$$
