AV-unprocessed.smi:252|AV-procd|sdf|1942|dock3
  -GOLD-   2262021 73D 1   1.00000     0.00000
 Structure written by MMmdl.
 56 59  0  0  0  0  0  0  0  0  1 V2000
  148.5726  127.4660  152.3374 C   0  0  0  0  0  0  0  0  0  0  0  0
  147.6267  128.0447  151.2737 C   0  0  0  0  0  0  0  0  0  0  0  0
  146.5045  128.9124  151.8531 C   0  0  0  0  0  0  0  0  0  0  0  0
  145.6949  128.4499  152.6573 O   0  0  0  0  0  0  0  0  0  0  0  0
  146.4745  130.1847  151.4291 N   0  0  0  0  0  0  0  0  0  0  0  0
  145.5107  131.1953  151.8518 C   0  0  2  0  0  0  0  0  0  0  0  0
  144.5870  131.5918  150.6829 C   0  0  0  0  0  0  0  0  0  0  0  0
  143.6547  132.7387  151.1007 C   0  0  0  0  0  0  0  0  0  0  0  0
  144.4576  133.9310  151.6442 C   0  0  0  0  0  0  0  0  0  0  0  0
  145.3451  133.5069  152.7278 N   0  0  0  0  0  0  0  0  0  0  0  0
  145.8834  134.4715  153.5155 C   0  0  0  0  0  0  0  0  0  0  0  0
  146.5518  134.1294  154.6497 N   0  0  0  0  0  0  0  0  0  0  0  0
  147.0736  135.0754  155.4359 C   0  0  0  0  0  0  0  0  0  0  0  0
  147.0459  136.4000  155.2790 N   0  0  0  0  0  0  0  0  0  0  0  0
  146.3800  136.7500  154.1416 C   0  0  0  0  0  0  0  0  0  0  0  0
  145.7774  135.8577  153.2104 C   0  0  0  0  0  0  0  0  0  0  0  0
  145.2110  136.5771  152.1646 N   0  0  0  0  0  0  0  0  0  0  0  0
  145.4603  137.8227  152.4631 C   0  0  0  0  0  0  0  0  0  0  0  0
  146.1460  138.0190  153.6408 N   0  0  0  0  0  0  0  0  0  0  0  0
  146.5542  139.2945  154.2086 C   0  0  0  0  0  0  0  0  0  0  0  0
  147.7135  139.9898  153.4424 C   0  0  2  0  0  0  0  0  0  0  0  0
  147.3790  140.1014  152.0720 O   0  0  0  0  0  0  0  0  0  0  0  0
  149.0547  139.2770  153.5674 C   0  0  0  0  0  0  0  0  0  0  0  0
  149.5822  139.7928  154.9031 C   0  0  0  0  0  0  0  0  0  0  0  0
  149.0389  141.1014  155.0525 O   0  0  0  0  0  0  0  0  0  0  0  0
  148.1023  141.3679  154.0116 C   0  0  2  0  0  0  0  0  0  0  0  0
  146.9569  142.2536  154.5236 C   0  0  0  0  0  0  0  0  0  0  0  0
  146.2673  132.4247  152.3865 C   0  0  0  0  0  0  0  0  0  0  0  0
  149.3312  126.8346  151.8744 H   0  0  0  0  0  0  0  0  0  0  0  0
  148.0320  126.8546  153.0610 H   0  0  0  0  0  0  0  0  0  0  0  0
  149.0907  128.2564  152.8817 H   0  0  0  0  0  0  0  0  0  0  0  0
  148.1975  128.6443  150.5640 H   0  0  0  0  0  0  0  0  0  0  0  0
  147.1794  127.2277  150.7061 H   0  0  0  0  0  0  0  0  0  0  0  0
  147.1784  130.4781  150.7674 H   0  0  0  0  0  0  0  0  0  0  0  0
  144.9020  130.7939  152.6648 H   0  0  0  0  0  0  0  0  0  0  0  0
  145.1852  131.9051  149.8262 H   0  0  0  0  0  0  0  0  0  0  0  0
  143.9964  130.7357  150.3555 H   0  0  0  0  0  0  0  0  0  0  0  0
  143.0451  133.0540  150.2537 H   0  0  0  0  0  0  0  0  0  0  0  0
  142.9633  132.3851  151.8667 H   0  0  0  0  0  0  0  0  0  0  0  0
  145.0516  134.3754  150.8441 H   0  0  0  0  0  0  0  0  0  0  0  0
  143.7696  134.6985  152.0015 H   0  0  0  0  0  0  0  0  0  0  0  0
  147.5849  134.7204  156.3187 H   0  0  0  0  0  0  0  0  0  0  0  0
  145.1429  138.6394  151.8310 H   0  0  0  0  0  0  0  0  0  0  0  0
  145.6770  139.9418  154.2354 H   0  0  0  0  0  0  0  0  0  0  0  0
  146.8354  139.1235  155.2483 H   0  0  0  0  0  0  0  0  0  0  0  0
  148.1145  139.8056  151.5577 H   0  0  0  0  0  0  0  0  0  0  0  0
  149.0041  138.1903  153.5154 H   0  0  0  0  0  0  0  0  0  0  0  0
  149.7307  139.6035  152.7750 H   0  0  0  0  0  0  0  0  0  0  0  0
  149.2256  139.1698  155.7240 H   0  0  0  0  0  0  0  0  0  0  0  0
  150.6717  139.8082  154.9399 H   0  0  0  0  0  0  0  0  0  0  0  0
  148.6513  141.9211  153.2470 H   0  0  0  0  0  0  0  0  0  0  0  0
  146.2197  142.4315  153.7404 H   0  0  0  0  0  0  0  0  0  0  0  0
  147.3362  143.2227  154.8482 H   0  0  0  0  0  0  0  0  0  0  0  0
  146.4458  141.8031  155.3745 H   0  0  0  0  0  0  0  0  0  0  0  0
  146.8684  132.1316  153.2470 H   0  0  0  0  0  0  0  0  0  0  0  0
  146.9641  132.7921  151.6314 H   0  0  0  0  0  0  0  0  0  0  0  0
  1  2  1  0  0  0  0
  1 29  1  0  0  0  0
  1 30  1  0  0  0  0
  1 31  1  0  0  0  0
  2  3  1  0  0  0  0
  2 32  1  0  0  0  0
  2 33  1  0  0  0  0
  3  4  2  0  0  0  0
  3  5  1  0  0  0  0
  5  6  1  0  0  0  0
  5 34  1  0  0  0  0
  6 28  1  0  0  0  0
  6  7  1  0  0  0  0
  6 35  1  0  0  0  0
  7  8  1  0  0  0  0
  7 36  1  0  0  0  0
  7 37  1  0  0  0  0
  8  9  1  0  0  0  0
  8 38  1  0  0  0  0
  8 39  1  0  0  0  0
  9 10  1  0  0  0  0
  9 40  1  0  0  0  0
  9 41  1  0  0  0  0
 10 11  1  0  0  0  0
 10 28  1  0  0  0  0
 11 16  1  0  0  0  0
 11 12  2  0  0  0  0
 12 13  1  0  0  0  0
 13 14  2  0  0  0  0
 13 42  1  0  0  0  0
 14 15  1  0  0  0  0
 15 19  1  0  0  0  0
 15 16  2  0  0  0  0
 16 17  1  0  0  0  0
 17 18  2  0  0  0  0
 18 19  1  0  0  0  0
 18 43  1  0  0  0  0
 19 20  1  0  0  0  0
 20 21  1  0  0  0  0
 20 44  1  0  0  0  0
 20 45  1  0  0  0  0
 21 26  1  0  0  0  0
 21 22  1  0  0  0  0
 21 23  1  0  0  0  0
 22 46  1  0  0  0  0
 23 24  1  0  0  0  0
 23 47  1  0  0  0  0
 23 48  1  0  0  0  0
 24 25  1  0  0  0  0
 24 49  1  0  0  0  0
 24 50  1  0  0  0  0
 25 26  1  0  0  0  0
 26 27  1  0  0  0  0
 26 51  1  0  0  0  0
 27 52  1  0  0  0  0
 27 53  1  0  0  0  0
 27 54  1  0  0  0  0
 28 55  1  0  0  0  0
 28 56  1  0  0  0  0
M  END
> <s_m_source_file>
AV-unprocessed.smi

> <i_m_source_file_index>
252

> <i_lp_mmshare_version>
43012

> <i_f3d_flags>
0

> <s_epik_input>
W0NIM11bQ0gyXUMoPU8pW05IXVtDQEBIXTFbQ0gyXVtDSDJdW0NIMl1OKFtDSDJdMSljKG5bY0hdbjIpYyhjMjMpbltjSF1uM1tDSDJdW0NAQF00KFtPSF0pW0NIMl1bQ0gyXU9bQ0BIXTRbQ0gzXQ==

> <s_epik_cmdline>
J2VwaWtfcHl0aG9uJywgJy1waCcsICc3LjAnLCAnLXRuJywgJzgnLCAnLW1hJywgJzIwMCcsICctbWV0YWxfYmluZGluZycsICctaW1hZScsICc8aW5maWxlLm1hZT4nLCAnLW9tYWUnLCAnPG91dGZpbGUubWFlPic=

> <r_lp_tautomer_probability>
1

> <r_epik_Ionization_Penalty>
0.00182575

> <r_epik_Ionization_Penalty_Charging>
0

> <r_epik_Ionization_Penalty_Neutral>
0.00182575

> <r_epik_State_Penalty>
0.00104524

> <r_epik_Charging_Adjusted_Penalty>
0.00104524

> <i_epik_Tot_Q>
0

> <i_epik_Tot_abs_Q>
0

> <r_epik_Metal_State_Penalty>
-0

> <b_epik_Metal_Only>
0

> <s_lp_Force_Field>
OPLS_2005

> <r_lp_Energy>
36.2255

> <b_lp_Chiralities_Consistent>
1

> <s_lp_Variant>
AV-unprocessed.smi:252-7

> <Gold.Version>
5.8.1

> <Gold.Id.Protein>
6NUR|6NUR_protein|mol2

> <Gold.PLP.Fitness>
50.5282

> <Gold.PLP.PLP>
-38.9641

> <Gold.PLP.part.hbond>
-1.7308

> <Gold.PLP.part.metal>
0.0000

> <Gold.PLP.part.buried>
-1.3754

> <Gold.PLP.part.nonpolar>
-36.6299

> <Gold.PLP.part.repulsive>
0.6729

> <Gold.PLP.ligand.clash>
0.0000

> <Gold.PLP.ligand.torsion>
0.3933

> <Gold.PLP.Chemscore.Hbond>
1.9840

> <Gold.PLP.Chemscore.CHOScore>
1.9982

> <Gold.PLP.Chemscore.Metal>
0.0000

> <Gold.Chemscore.Hbonds>
donor molecule, donor type, donor heavy atom, donor atom, acceptor molecule, acceptor atom, score
      L1  H     5    34       P1 10747  1.00
      L1  H    22    46       P1  7957  0.95
      L1  C    18    43       P1 10171  1.00
      L1  C    18    43       P1 10175  0.94

> <Gold.PLP.Chemscore.Internal.Correction>
0.4042

> <Gold.Rescore>
     Score         DG    S(hbond)    S(metal)    S(lipo)     H(rot)  DE(clash)    DE(int)     intcor
     12.89     -14.95       1.99        0.00      83.34       2.70       0.30       1.77       ----

> <Gold.Chemscore.Fitness>
12.8924

> <Gold.Chemscore.DG>
-14.9550

> <Gold.Chemscore.ZeroCoef>
-5.4800

> <Gold.Chemscore.Hbond>
1.9899

> <Gold.Chemscore.Metal>
0.0000

> <Gold.Chemscore.Lipo>
83.3430

> <Gold.Chemscore.Internal_Hbond>
0.0000

> <Gold.Chemscore.DEClash>
0.2975

> <Gold.Chemscore.DEInternal>
1.7651

> <Gold.Chemscore.Rot>
2.7041

> <Gold.Chemscore.Internal.Correction>
   9.000000E+99

> <Gold.Chemscore.Hbonds>
donor molecule, donor type, donor heavy atom, donor atom, acceptor molecule, acceptor atom, score
      L1  H     5    34       P1 10747  0.97
      L1  H    22    46       P1  7957  0.85

> <Gold.Chemscore.Hbond.Weighted>
-6.6463

> <Gold.Chemscore.Metal.Weighted>
-0.0000

> <Gold.Chemscore.Lipo.Weighted>
-9.7511

> <Gold.Chemscore.Internal_Hbond.Weighted>
0.0000

> <Gold.Chemscore.DEClash.Weighted>
0.2975

> <Gold.Chemscore.DEInternal.Weighted>
1.7651

> <Gold.Chemscore.Rot.Weighted>
6.9225

> <Gold.Chemscore.Internal.Correction.Weighted>
   9.000000E+99

> <Gold.Protein.RotatedTorsions>
[ 6907 6896 6895 6894 ] final -149.04 input  -60.11 | X-H torsion
[ 7974 7965 7964 7962 ] final    1.82 input  175.53 | X-H torsion
[ 8008 7997 7996 7995 ] final  -46.68 input   59.86 | X-H torsion
[ 10167 10162 10161 10158 ] final  169.97 input  -65.29 | X-H torsion
[ 10718 10713 10712 10709 ] final -159.38 input   66.30 | X-H torsion
[ 10763 10752 10751 10750 ] final  130.83 input  -60.55 | X-H torsion
[ 11005 11000 10999 10996 ] final  139.29 input  -57.11 | X-H torsion

> <Gold.Protein.ActiveResidues>
 VAL166  LYS551  ARG553  GLY616  TRP617  ASP618  TYR619  PRO620  LYS621  CYS622 
 ASP623  PHE694  ASN695  SER759  ASP760  ASP761  ALA762  ILE779  LEU786  VAL792 
 PHE793  MET794  SER795  GLU796  ALA797  LYS798  CYS799  TRP800  GLU811  SER814 

> <Gold.Protein.RotatedAtoms>
  151.1784  133.4740  159.2593 H   0  0  0  0  0  0  0  0  0  0  0  0  # atno 6907 bound_to 6896
  151.1284  135.0117  159.8581 H   0  0  0  0  0  0  0  0  0  0  0  0  # atno 6908 bound_to 6896
  152.5459  134.1689  159.8641 H   0  0  0  0  0  0  0  0  0  0  0  0  # atno 6909 bound_to 6896
  146.2442  140.0929  142.8351 H   0  0  0  0  0  0  0  0  0  0  0  0  # atno 7974 bound_to 7965
  154.4009  140.1365  156.4051 H   0  0  0  0  0  0  0  0  0  0  0  0  # atno 8008 bound_to 7997
  155.7787  140.3482  155.5265 H   0  0  0  0  0  0  0  0  0  0  0  0  # atno 8009 bound_to 7997
  155.8695  140.0969  157.1550 H   0  0  0  0  0  0  0  0  0  0  0  0  # atno 8010 bound_to 7997
  139.5006  144.3647  151.9787 H   0  0  0  0  0  0  0  0  0  0  0  0  # atno 10167 bound_to 10162
  156.5673  130.8673  151.2827 H   0  0  0  0  0  0  0  0  0  0  0  0  # atno 10718 bound_to 10713
  153.7644  135.3191  155.3342 H   0  0  0  0  0  0  0  0  0  0  0  0  # atno 10763 bound_to 10752
  154.8219  135.4597  154.0806 H   0  0  0  0  0  0  0  0  0  0  0  0  # atno 10764 bound_to 10752
  153.2046  135.6927  153.8272 H   0  0  0  0  0  0  0  0  0  0  0  0  # atno 10765 bound_to 10752
  140.0244  134.9381  157.0539 H   0  0  0  0  0  0  0  0  0  0  0  0  # atno 11005 bound_to 11000
  145.0634  140.9104  143.4925 LP  0  0  0  0  0  0  0  0  0  0  0  0  # atno 17320 bound_to 7965
  145.1049  139.2797  143.5667 LP  0  0  0  0  0  0  0  0  0  0  0  0  # atno 17321 bound_to 7965
  140.3084  144.3567  150.6041 LP  0  0  0  0  0  0  0  0  0  0  0  0  # atno 17342 bound_to 10162
  140.5818  143.2172  151.7414 LP  0  0  0  0  0  0  0  0  0  0  0  0  # atno 17343 bound_to 10162
  157.7356  130.9764  150.2089 LP  0  0  0  0  0  0  0  0  0  0  0  0  # atno 17370 bound_to 10713
  156.2745  130.3726  149.7997 LP  0  0  0  0  0  0  0  0  0  0  0  0  # atno 17371 bound_to 10713
  140.4332  134.1759  155.7169 LP  0  0  0  0  0  0  0  0  0  0  0  0  # atno 17394 bound_to 11000
  141.1794  133.8446  157.1311 LP  0  0  0  0  0  0  0  0  0  0  0  0  # atno 17395 bound_to 11000

$$$$
