AV-unprocessed.smi:684|AV-procd|sdf|3332|dock6
  -GOLD-   22720 0303D 1   1.00000     0.00000
 Structure written by MMmdl.
 40 41  0  0  0  0  0  0  0  0  1 V2000
  143.8734  132.5592  151.0791 C   0  0  0  0  0  0  0  0  0  0  0  0
  144.9640  131.5176  150.8039 C   0  0  0  0  0  0  0  0  0  0  0  0
  146.1149  131.7045  151.6701 N   0  0  0  0  0  0  0  0  0  0  0  0
  146.7079  132.9172  151.7137 N   0  0  0  0  0  0  0  0  0  0  0  0
  147.7055  132.7584  152.5697 C   0  0  0  0  0  0  0  0  0  0  0  0
  148.6349  133.7540  152.9648 N   0  0  0  0  0  0  0  0  0  0  0  0
  149.5079  133.7022  153.9854 C   0  0  0  0  0  0  0  0  0  0  0  0
  149.6348  132.7555  154.7629 O   0  0  0  0  0  0  0  0  0  0  0  0
  150.2324  134.8284  154.0610 N   0  0  0  0  0  0  0  0  0  0  0  0
  151.2693  135.1066  155.0512 C   0  0  0  0  0  0  0  0  0  0  0  0
  151.5029  136.6196  155.2464 C   0  0  0  0  0  0  0  0  0  0  0  0
  151.8167  137.2968  153.9042 C   0  0  0  0  0  0  0  0  0  0  0  0
  152.6074  136.9263  156.2728 C   0  0  0  0  0  0  0  0  0  0  0  0
  147.7849  131.4422  153.0987 C   0  0  0  0  0  0  0  0  0  0  0  0
  146.7484  130.7872  152.4931 C   0  0  0  0  0  0  0  0  0  0  0  0
  146.2926  129.3691  152.6216 C   0  0  0  0  0  0  0  0  0  0  0  0
  147.2603  128.2158  152.5012 C   0  0  0  0  0  0  0  0  0  0  0  0
  146.2337  128.4606  151.4184 C   0  0  0  0  0  0  0  0  0  0  0  0
  143.0181  132.4080  150.4207 H   0  0  0  0  0  0  0  0  0  0  0  0
  144.2440  133.5716  150.9164 H   0  0  0  0  0  0  0  0  0  0  0  0
  143.5175  132.4938  152.1078 H   0  0  0  0  0  0  0  0  0  0  0  0
  144.5697  130.5113  150.9539 H   0  0  0  0  0  0  0  0  0  0  0  0
  145.2865  131.5729  149.7639 H   0  0  0  0  0  0  0  0  0  0  0  0
  148.6348  134.5972  152.4106 H   0  0  0  0  0  0  0  0  0  0  0  0
  150.0540  135.5517  153.3798 H   0  0  0  0  0  0  0  0  0  0  0  0
  151.0398  134.6314  156.0066 H   0  0  0  0  0  0  0  0  0  0  0  0
  152.1873  134.6378  154.6958 H   0  0  0  0  0  0  0  0  0  0  0  0
  150.5757  137.0566  155.6200 H   0  0  0  0  0  0  0  0  0  0  0  0
  152.7410  136.9112  153.4727 H   0  0  0  0  0  0  0  0  0  0  0  0
  151.9299  138.3747  154.0246 H   0  0  0  0  0  0  0  0  0  0  0  0
  151.0170  137.1305  153.1819 H   0  0  0  0  0  0  0  0  0  0  0  0
  153.5550  136.4723  155.9809 H   0  0  0  0  0  0  0  0  0  0  0  0
  152.3506  136.5538  157.2644 H   0  0  0  0  0  0  0  0  0  0  0  0
  152.7686  138.0006  156.3661 H   0  0  0  0  0  0  0  0  0  0  0  0
  148.4918  131.0388  153.8083 H   0  0  0  0  0  0  0  0  0  0  0  0
  145.5021  129.2742  153.3637 H   0  0  0  0  0  0  0  0  0  0  0  0
  148.2984  128.4388  152.2625 H   0  0  0  0  0  0  0  0  0  0  0  0
  147.1062  127.3608  153.1562 H   0  0  0  0  0  0  0  0  0  0  0  0
  145.3944  127.7715  151.3522 H   0  0  0  0  0  0  0  0  0  0  0  0
  146.5906  128.8553  150.4689 H   0  0  0  0  0  0  0  0  0  0  0  0
  1  2  1  0  0  0  0
  1 19  1  0  0  0  0
  1 20  1  0  0  0  0
  1 21  1  0  0  0  0
  2  3  1  0  0  0  0
  2 22  1  0  0  0  0
  2 23  1  0  0  0  0
  3 15  1  0  0  0  0
  3  4  1  0  0  0  0
  4  5  2  0  0  0  0
  5  6  1  0  0  0  0
  5 14  1  0  0  0  0
  6  7  1  0  0  0  0
  6 24  1  0  0  0  0
  7  8  2  0  0  0  0
  7  9  1  0  0  0  0
  9 10  1  0  0  0  0
  9 25  1  0  0  0  0
 10 11  1  0  0  0  0
 10 26  1  0  0  0  0
 10 27  1  0  0  0  0
 11 12  1  0  0  0  0
 11 13  1  0  0  0  0
 11 28  1  0  0  0  0
 12 29  1  0  0  0  0
 12 30  1  0  0  0  0
 12 31  1  0  0  0  0
 13 32  1  0  0  0  0
 13 33  1  0  0  0  0
 13 34  1  0  0  0  0
 14 15  2  0  0  0  0
 14 35  1  0  0  0  0
 15 16  1  0  0  0  0
 16 18  1  0  0  0  0
 16 17  1  0  0  0  0
 16 36  1  0  0  0  0
 17 18  1  0  0  0  0
 17 37  1  0  0  0  0
 17 38  1  0  0  0  0
 18 39  1  0  0  0  0
 18 40  1  0  0  0  0
M  END
> <s_m_source_file>
AV-unprocessed.smi

> <i_m_source_file_index>
684

> <i_lp_mmshare_version>
43012

> <i_f3d_flags>
0

> <s_epik_input>
W0NIMl0xW0NIMl1bQ0hdMWMyW2NIXWMobm4yW0NIMl1bQ0gzXSlbTkhdQyg9TylbTkhdW0NIMl1bQ0hdKFtDSDNdKVtDSDNd

> <s_epik_cmdline>
J2VwaWtfcHl0aG9uJywgJy1waCcsICc3LjAnLCAnLXRuJywgJzgnLCAnLW1hJywgJzIwMCcsICctbWV0YWxfYmluZGluZycsICctaW1hZScsICc8aW5maWxlLm1hZT4nLCAnLW9tYWUnLCAnPG91dGZpbGUubWFlPic=

> <r_lp_tautomer_probability>
1

> <r_epik_Ionization_Penalty>
4.15598e-05

> <r_epik_Ionization_Penalty_Charging>
0

> <r_epik_Ionization_Penalty_Neutral>
4.15598e-05

> <r_epik_State_Penalty>
-0

> <r_epik_Charging_Adjusted_Penalty>
0

> <i_epik_Tot_Q>
0

> <i_epik_Tot_abs_Q>
0

> <r_epik_Metal_State_Penalty>
-0

> <b_epik_Metal_Only>
0

> <s_lp_Force_Field>
OPLS_2005

> <r_lp_Energy>
10.212

> <b_lp_Chiralities_Consistent>
1

> <s_lp_Variant>
AV-unprocessed.smi:684-1

> <Gold.Version>
5.8.1

> <Gold.Id.Protein>
6NUR|6NUR_protein|mol2

> <Gold.PLP.Fitness>
39.6203

> <Gold.PLP.PLP>
-34.3930

> <Gold.PLP.part.hbond>
-2.0000

> <Gold.PLP.part.metal>
0.0000

> <Gold.PLP.part.buried>
-4.8449

> <Gold.PLP.part.nonpolar>
-27.3046

> <Gold.PLP.part.repulsive>
0.2123

> <Gold.PLP.ligand.clash>
0.0000

> <Gold.PLP.ligand.torsion>
0.3567

> <Gold.PLP.Chemscore.Hbond>
1.9280

> <Gold.PLP.Chemscore.CHOScore>
0.0000

> <Gold.PLP.Chemscore.Metal>
0.0000

> <Gold.Chemscore.Hbonds>
donor molecule, donor type, donor heavy atom, donor atom, acceptor molecule, acceptor atom, score
      L1  H     6    24       P1  7948  0.50
      L1  H     9    25       P1  7948  0.15

> <Gold.PLP.Chemscore.Internal.Correction>
0.1566

> <Gold.Rescore>
     Score         DG    S(hbond)    S(metal)    S(lipo)     H(rot)  DE(clash)    DE(int)     intcor
     14.41     -16.18       1.66        0.00      75.59       1.45       0.00       1.77       ----

> <Gold.Chemscore.Fitness>
14.4066

> <Gold.Chemscore.DG>
-16.1786

> <Gold.Chemscore.ZeroCoef>
-5.4800

> <Gold.Chemscore.Hbond>
1.6629

> <Gold.Chemscore.Metal>
0.0000

> <Gold.Chemscore.Lipo>
75.5935

> <Gold.Chemscore.Internal_Hbond>
0.0000

> <Gold.Chemscore.DEClash>
0.0004

> <Gold.Chemscore.DEInternal>
1.7716

> <Gold.Chemscore.Rot>
1.4452

> <Gold.Chemscore.Internal.Correction>
   9.000000E+99

> <Gold.Chemscore.Hbonds>
donor molecule, donor type, donor heavy atom, donor atom, acceptor molecule, acceptor atom, score
      L1  H     6    24       P1  7948  0.02

> <Gold.Chemscore.Hbond.Weighted>
-5.5540

> <Gold.Chemscore.Metal.Weighted>
-0.0000

> <Gold.Chemscore.Lipo.Weighted>
-8.8444

> <Gold.Chemscore.Internal_Hbond.Weighted>
0.0000

> <Gold.Chemscore.DEClash.Weighted>
0.0004

> <Gold.Chemscore.DEInternal.Weighted>
1.7716

> <Gold.Chemscore.Rot.Weighted>
3.6998

> <Gold.Chemscore.Internal.Correction.Weighted>
   9.000000E+99

> <Gold.Protein.RotatedTorsions>
[ 6907 6896 6895 6894 ] final   13.34 input  -60.11 | X-H torsion
[ 7974 7965 7964 7962 ] final -117.29 input  175.53 | X-H torsion
[ 8008 7997 7996 7995 ] final   -5.06 input   59.86 | X-H torsion
[ 10167 10162 10161 10158 ] final  174.81 input  -65.29 | X-H torsion
[ 10718 10713 10712 10709 ] final  145.93 input   66.30 | X-H torsion
[ 10763 10752 10751 10750 ] final   83.80 input  -60.55 | X-H torsion
[ 11005 11000 10999 10996 ] final  129.19 input  -57.11 | X-H torsion

> <Gold.Protein.ActiveResidues>
 VAL166  LYS551  ARG553  GLY616  TRP617  ASP618  TYR619  PRO620  LYS621  CYS622 
 ASP623  PHE694  ASN695  SER759  ASP760  ASP761  ALA762  ILE779  LEU786  VAL792 
 PHE793  MET794  SER795  GLU796  ALA797  LYS798  CYS799  TRP800  GLU811  SER814 

> <Gold.Protein.RotatedAtoms>
  151.7847  135.0752  160.0378 H   0  0  0  0  0  0  0  0  0  0  0  0  # atno 6907 bound_to 6896
  152.3198  133.5837  159.5745 H   0  0  0  0  0  0  0  0  0  0  0  0  # atno 6908 bound_to 6896
  150.7363  133.9944  159.3659 H   0  0  0  0  0  0  0  0  0  0  0  0  # atno 6909 bound_to 6896
  145.0869  140.8464  143.4005 H   0  0  0  0  0  0  0  0  0  0  0  0  # atno 7974 bound_to 7965
  154.6078  140.2468  155.7708 H   0  0  0  0  0  0  0  0  0  0  0  0  # atno 8008 bound_to 7997
  156.2352  140.2953  156.0244 H   0  0  0  0  0  0  0  0  0  0  0  0  # atno 8009 bound_to 7997
  155.2103  140.0397  157.2922 H   0  0  0  0  0  0  0  0  0  0  0  0  # atno 8010 bound_to 7997
  139.5155  144.3104  152.0297 H   0  0  0  0  0  0  0  0  0  0  0  0  # atno 10167 bound_to 10162
  157.3393  131.0933  151.1096 H   0  0  0  0  0  0  0  0  0  0  0  0  # atno 10718 bound_to 10713
  153.1324  135.4678  154.9369 H   0  0  0  0  0  0  0  0  0  0  0  0  # atno 10763 bound_to 10752
  154.7676  135.3149  154.8258 H   0  0  0  0  0  0  0  0  0  0  0  0  # atno 10764 bound_to 10752
  153.8797  135.6895  153.4822 H   0  0  0  0  0  0  0  0  0  0  0  0  # atno 10765 bound_to 10752
  139.9602  134.9604  156.9112 H   0  0  0  0  0  0  0  0  0  0  0  0  # atno 11005 bound_to 11000
  145.1112  139.2756  143.5636 LP  0  0  0  0  0  0  0  0  0  0  0  0  # atno 17320 bound_to 7965
  146.3531  140.0708  142.8623 LP  0  0  0  0  0  0  0  0  0  0  0  0  # atno 17321 bound_to 7965
  140.2548  144.4130  150.6208 LP  0  0  0  0  0  0  0  0  0  0  0  0  # atno 17342 bound_to 10162
  140.6199  143.2175  151.6716 LP  0  0  0  0  0  0  0  0  0  0  0  0  # atno 17343 bound_to 10162
  157.2314  130.6527  149.5851 LP  0  0  0  0  0  0  0  0  0  0  0  0  # atno 17370 bound_to 10713
  155.9705  130.4597  150.6047 LP  0  0  0  0  0  0  0  0  0  0  0  0  # atno 17371 bound_to 10713
  140.5518  134.0619  155.7371 LP  0  0  0  0  0  0  0  0  0  0  0  0  # atno 17394 bound_to 11000
  141.1278  133.9354  157.2599 LP  0  0  0  0  0  0  0  0  0  0  0  0  # atno 17395 bound_to 11000

$$$$
