AV-unprocessed.smi:1356|AV-procd|sdf|5547|dock3
  -GOLD-   22720 5143D 1   1.00000     0.00000
 Structure written by MMmdl.
 42 43  0  0  0  0  0  0  0  0  2 V2000
  147.5859  133.0880  152.7141 C   0  0  0  0  0  0  0  0  0  0  0  0
  148.0245  133.6903  154.0314 C   0  0  1  0  0  0  0  0  0  0  0  0
  148.6379  132.8303  155.1097 C   0  0  0  0  0  0  0  0  0  0  0  0
  149.4996  133.8254  154.3591 C   0  0  2  0  0  0  0  0  0  0  0  0
  149.9405  135.0490  155.0943 C   0  0  0  0  0  0  0  0  0  0  0  0
  150.5486  135.0080  156.1652 O   0  0  0  0  0  0  0  0  0  0  0  0
  149.6178  136.1982  154.4813 N   0  0  0  0  0  0  0  0  0  0  0  0
  149.9390  137.5320  154.9765 C   0  0  0  0  0  0  0  0  0  0  0  0
  151.2872  138.0284  154.4195 C   0  0  0  0  0  0  0  0  0  0  0  0
  151.9679  139.0517  155.3325 C   0  0  0  0  0  0  0  0  0  0  0  0
  153.1830  139.2400  155.2668 O   0  0  0  0  0  0  0  0  0  0  0  0
  151.1694  139.7057  156.1901 N   0  0  0  0  0  0  0  0  0  0  0  0
  151.6145  140.7060  157.1531 C   0  0  0  0  0  0  0  0  0  0  0  0
  150.6894  141.9347  157.1675 C   0  0  0  0  0  0  0  0  0  0  0  0
  151.2331  143.0494  158.0394 C   0  0  0  0  0  0  0  0  0  0  0  0
  152.0308  142.7927  159.1757 C   0  0  0  0  0  0  0  0  0  0  0  0
  152.4959  143.8763  159.9497 C   0  0  0  0  0  0  0  0  0  0  0  0
  152.1536  145.1915  159.5725 C   0  0  0  0  0  0  0  0  0  0  0  0
  151.3532  145.3901  158.4290 C   0  0  0  0  0  0  0  0  0  0  0  0
  150.9267  144.3260  157.7135 N   0  3  0  0  0  0  0  0  0  0  0  0
  148.2644  132.2916  152.4067 H   0  0  0  0  0  0  0  0  0  0  0  0
  147.5740  133.8535  151.9381 H   0  0  0  0  0  0  0  0  0  0  0  0
  146.5827  132.6722  152.8087 H   0  0  0  0  0  0  0  0  0  0  0  0
  147.3658  134.4849  154.3781 H   0  0  0  0  0  0  0  0  0  0  0  0
  148.3638  133.0505  156.1401 H   0  0  0  0  0  0  0  0  0  0  0  0
  148.8051  131.7762  154.8966 H   0  0  0  0  0  0  0  0  0  0  0  0
  150.2045  133.4128  153.6383 H   0  0  0  0  0  0  0  0  0  0  0  0
  149.1158  136.1444  153.6068 H   0  0  0  0  0  0  0  0  0  0  0  0
  149.1347  138.2024  154.6714 H   0  0  0  0  0  0  0  0  0  0  0  0
  149.9463  137.5328  156.0682 H   0  0  0  0  0  0  0  0  0  0  0  0
  151.9599  137.1818  154.2718 H   0  0  0  0  0  0  0  0  0  0  0  0
  151.1405  138.4846  153.4400 H   0  0  0  0  0  0  0  0  0  0  0  0
  150.1833  139.4869  156.1789 H   0  0  0  0  0  0  0  0  0  0  0  0
  151.6307  140.2386  158.1379 H   0  0  0  0  0  0  0  0  0  0  0  0
  152.6416  141.0031  156.9334 H   0  0  0  0  0  0  0  0  0  0  0  0
  150.5499  142.3159  156.1551 H   0  0  0  0  0  0  0  0  0  0  0  0
  149.6990  141.6536  157.5285 H   0  0  0  0  0  0  0  0  0  0  0  0
  152.2819  141.7791  159.4534 H   0  0  0  0  0  0  0  0  0  0  0  0
  153.1072  143.7004  160.8228 H   0  0  0  0  0  0  0  0  0  0  0  0
  152.4992  146.0351  160.1522 H   0  0  0  0  0  0  0  0  0  0  0  0
  151.0427  146.3600  158.0683 H   0  0  0  0  0  0  0  0  0  0  0  0
  150.3477  144.4928  156.8901 H   0  0  0  0  0  0  0  0  0  0  0  0
  1  2  1  0  0  0  0
  1 21  1  0  0  0  0
  1 22  1  0  0  0  0
  1 23  1  0  0  0  0
  2  4  1  0  0  0  0
  2  3  1  0  0  0  0
  2 24  1  0  0  0  0
  3  4  1  0  0  0  0
  3 25  1  0  0  0  0
  3 26  1  0  0  0  0
  4  5  1  0  0  0  0
  4 27  1  0  0  0  0
  5  6  2  0  0  0  0
  5  7  1  0  0  0  0
  7  8  1  0  0  0  0
  7 28  1  0  0  0  0
  8  9  1  0  0  0  0
  8 29  1  0  0  0  0
  8 30  1  0  0  0  0
  9 10  1  0  0  0  0
  9 31  1  0  0  0  0
  9 32  1  0  0  0  0
 10 11  2  0  0  0  0
 10 12  1  0  0  0  0
 12 13  1  0  0  0  0
 12 33  1  0  0  0  0
 13 14  1  0  0  0  0
 13 34  1  0  0  0  0
 13 35  1  0  0  0  0
 14 15  1  0  0  0  0
 14 36  1  0  0  0  0
 14 37  1  0  0  0  0
 15 20  1  0  0  0  0
 15 16  2  0  0  0  0
 16 17  1  0  0  0  0
 16 38  1  0  0  0  0
 17 18  2  0  0  0  0
 17 39  1  0  0  0  0
 18 19  1  0  0  0  0
 18 40  1  0  0  0  0
 19 20  2  0  0  0  0
 19 41  1  0  0  0  0
 20 42  1  0  0  0  0
M  CHG  1  20   1
M  END
> <s_m_source_file>
AV-unprocessed.smi

> <i_m_source_file_index>
1356

> <i_lp_mmshare_version>
43012

> <i_f3d_flags>
0

> <s_epik_input>
W0NIM11bQ0BASF0xW0NIMl1bQ0BIXTFDKD1PKVtOSF1bQ0gyXVtDSDJdQyg9TylbTkhdW0NIMl1bQ0gyXWMyW2NIXVtjSF1bY0hdW2NIXW4y

> <s_epik_cmdline>
J2VwaWtfcHl0aG9uJywgJy1waCcsICc3LjAnLCAnLXRuJywgJzgnLCAnLW1hJywgJzIwMCcsICctbWV0YWxfYmluZGluZycsICctaW1hZScsICc8aW5maWxlLm1hZT4nLCAnLW9tYWUnLCAnPG91dGZpbGUubWFlPic=

> <r_epik_Ionization_Penalty>
1.86966

> <r_epik_Ionization_Penalty_Charging>
1.86966

> <r_epik_Ionization_Penalty_Neutral>
5.0403e-08

> <r_epik_State_Penalty>
1.98858

> <r_epik_Charging_Adjusted_Penalty>
3.85824

> <i_epik_Tot_Q>
1

> <i_epik_Tot_abs_Q>
1

> <r_epik_Metal_State_Penalty>
2.01347

> <b_epik_Metal_Only>
0

> <s_lp_Force_Field>
OPLS_2005

> <r_lp_Energy>
12.6209

> <b_lp_Chiralities_Consistent>
1

> <s_lp_Variant>
AV-unprocessed.smi:1356-8

> <Gold.Version>
5.8.1

> <Gold.Id.Protein>
6NUR|6NUR_protein|mol2

> <Gold.PLP.Fitness>
57.1329

> <Gold.PLP.PLP>
-44.8242

> <Gold.PLP.part.hbond>
-5.5389

> <Gold.PLP.part.metal>
0.0000

> <Gold.PLP.part.buried>
-4.4927

> <Gold.PLP.part.nonpolar>
-33.5972

> <Gold.PLP.part.repulsive>
0.2707

> <Gold.PLP.ligand.clash>
0.0000

> <Gold.PLP.ligand.torsion>
1.1712

> <Gold.PLP.Chemscore.Hbond>
4.8184

> <Gold.PLP.Chemscore.CHOScore>
0.0000

> <Gold.PLP.Chemscore.Metal>
0.0000

> <Gold.Chemscore.Hbonds>
donor molecule, donor type, donor heavy atom, donor atom, acceptor molecule, acceptor atom, score
      L1  H     7    28       P1  7948  1.00
      L1  H    20    42       P1  8028  2.00
      P1  H  7997  8009       L1    11  1.00

> <Gold.PLP.Chemscore.Internal.Correction>
0.1959

> <Gold.Rescore>
     Score         DG    S(hbond)    S(metal)    S(lipo)     H(rot)  DE(clash)    DE(int)     intcor
     21.58     -23.30       3.27        0.00     109.43       2.31       0.61       1.10       ----

> <Gold.Chemscore.Fitness>
21.5783

> <Gold.Chemscore.DG>
-23.2973

> <Gold.Chemscore.ZeroCoef>
-5.4800

> <Gold.Chemscore.Hbond>
3.2748

> <Gold.Chemscore.Metal>
0.0000

> <Gold.Chemscore.Lipo>
109.4290

> <Gold.Chemscore.Internal_Hbond>
0.0000

> <Gold.Chemscore.DEClash>
0.6150

> <Gold.Chemscore.DEInternal>
1.1040

> <Gold.Chemscore.Rot>
2.3140

> <Gold.Chemscore.Internal.Correction>
   9.000000E+99

> <Gold.Chemscore.Hbonds>
donor molecule, donor type, donor heavy atom, donor atom, acceptor molecule, acceptor atom, score
      L1  H     7    28       P1  7948  0.91
      L1  H    20    42       P1  8028  0.85
      P1  H  7997  8009       L1    11  1.00

> <Gold.Chemscore.Hbond.Weighted>
-10.9379

> <Gold.Chemscore.Metal.Weighted>
-0.0000

> <Gold.Chemscore.Lipo.Weighted>
-12.8032

> <Gold.Chemscore.Internal_Hbond.Weighted>
0.0000

> <Gold.Chemscore.DEClash.Weighted>
0.6150

> <Gold.Chemscore.DEInternal.Weighted>
1.1040

> <Gold.Chemscore.Rot.Weighted>
5.9238

> <Gold.Chemscore.Internal.Correction.Weighted>
   9.000000E+99

> <Gold.Protein.RotatedTorsions>
[ 6907 6896 6895 6894 ] final -151.80 input  -60.11 | X-H torsion
[ 7974 7965 7964 7962 ] final  -72.33 input  175.53 | X-H torsion
[ 8008 7997 7996 7995 ] final -132.60 input   59.86 | X-H torsion
[ 10167 10162 10161 10158 ] final   29.07 input  -65.29 | X-H torsion
[ 10718 10713 10712 10709 ] final   69.63 input   66.30 | X-H torsion
[ 10763 10752 10751 10750 ] final  -43.83 input  -60.55 | X-H torsion
[ 11005 11000 10999 10996 ] final  -49.41 input  -57.11 | X-H torsion

> <Gold.Protein.ActiveResidues>
 VAL166  LYS551  ARG553  GLY616  TRP617  ASP618  TYR619  PRO620  LYS621  CYS622 
 ASP623  PHE694  ASN695  SER759  ASP760  ASP761  ALA762  ILE779  LEU786  VAL792 
 PHE793  MET794  SER795  GLU796  ALA797  LYS798  CYS799  TRP800  GLU811  SER814 

> <Gold.Protein.RotatedAtoms>
  151.2185  133.4516  159.2599 H   0  0  0  0  0  0  0  0  0  0  0  0  # atno 6907 bound_to 6896
  151.0908  134.9915  159.8412 H   0  0  0  0  0  0  0  0  0  0  0  0  # atno 6908 bound_to 6896
  152.5434  134.2118  159.8806 H   0  0  0  0  0  0  0  0  0  0  0  0  # atno 6909 bound_to 6896
  145.6666  140.9235  143.0905 H   0  0  0  0  0  0  0  0  0  0  0  0  # atno 7974 bound_to 7965
  155.3316  140.0467  157.3042 H   0  0  0  0  0  0  0  0  0  0  0  0  # atno 8008 bound_to 7997
  154.5325  140.2261  155.8745 H   0  0  0  0  0  0  0  0  0  0  0  0  # atno 8009 bound_to 7997
  156.1802  140.3075  155.9141 H   0  0  0  0  0  0  0  0  0  0  0  0  # atno 8010 bound_to 7997
  140.4798  144.0633  150.6262 H   0  0  0  0  0  0  0  0  0  0  0  0  # atno 10167 bound_to 10162
  157.6356  130.9435  150.0540 H   0  0  0  0  0  0  0  0  0  0  0  0  # atno 10718 bound_to 10713
  154.0021  135.6692  153.4760 H   0  0  0  0  0  0  0  0  0  0  0  0  # atno 10763 bound_to 10752
  153.0658  135.5002  154.8192 H   0  0  0  0  0  0  0  0  0  0  0  0  # atno 10764 bound_to 10752
  154.7047  135.3085  154.9252 H   0  0  0  0  0  0  0  0  0  0  0  0  # atno 10765 bound_to 10752
  141.0757  133.6666  156.3581 H   0  0  0  0  0  0  0  0  0  0  0  0  # atno 11005 bound_to 11000
  144.7071  139.8517  143.7426 LP  0  0  0  0  0  0  0  0  0  0  0  0  # atno 17320 bound_to 7965
  146.1081  139.4083  143.0305 LP  0  0  0  0  0  0  0  0  0  0  0  0  # atno 17321 bound_to 7965
  140.3872  143.2771  152.0102 LP  0  0  0  0  0  0  0  0  0  0  0  0  # atno 17342 bound_to 10162
  139.4831  144.6107  151.7439 LP  0  0  0  0  0  0  0  0  0  0  0  0  # atno 17343 bound_to 10162
  156.1593  130.3643  149.9323 LP  0  0  0  0  0  0  0  0  0  0  0  0  # atno 17370 bound_to 10713
  156.7325  130.9048  151.3627 LP  0  0  0  0  0  0  0  0  0  0  0  0  # atno 17371 bound_to 10713
  140.5578  134.5964  157.5425 LP  0  0  0  0  0  0  0  0  0  0  0  0  # atno 17394 bound_to 11000
  139.9569  134.7519  156.0321 LP  0  0  0  0  0  0  0  0  0  0  0  0  # atno 17395 bound_to 11000

$$$$
