AV-unprocessed.smi:2149|AV-procd|sdf|8755|dock1
  -GOLD-   2272011533D 1   1.00000     0.00000
 Structure written by MMmdl.
 43 44  0  0  0  0  0  0  0  0  2 V2000
  150.9516  141.6823  156.5596 C   0  0  0  0  0  0  0  0  0  0  0  0
  150.9026  139.9960  155.8238 S   0  0  0  0  0  0  0  0  0  0  0  0
  152.0740  139.8616  154.9440 O   0  0  0  0  0  0  0  0  0  0  0  0
  150.6683  139.0110  156.8906 O   0  0  0  0  0  0  0  0  0  0  0  0
  149.4865  140.0394  154.8225 N   0  0  0  0  0  0  0  0  0  0  0  0
  148.7453  141.3149  154.7499 C   0  0  0  0  0  0  0  0  0  0  0  0
  147.7822  141.3408  153.5526 C   0  0  0  0  0  0  0  0  0  0  0  0
  146.8359  140.1375  153.5786 C   0  0  0  0  0  0  0  0  0  0  0  0
  147.6627  138.8417  153.6010 C   0  0  2  0  0  0  0  0  0  0  0  0
  146.7519  137.6070  153.6266 C   0  0  0  0  0  0  0  0  0  0  0  0
  146.8761  136.7601  154.5122 O   0  0  0  0  0  0  0  0  0  0  0  0
  145.8416  137.5121  152.6449 N   0  0  0  0  0  0  0  0  0  0  0  0
  144.8981  136.4121  152.4848 C   0  0  0  0  0  0  0  0  0  0  0  0
  144.8403  135.9257  151.0266 C   0  0  0  0  0  0  0  0  0  0  0  0
  144.7963  134.4137  150.9257 C   0  0  0  0  0  0  0  0  0  0  0  0
  145.8773  133.6003  151.3299 C   0  0  0  0  0  0  0  0  0  0  0  0
  145.7686  132.1992  151.2063 C   0  0  0  0  0  0  0  0  0  0  0  0
  144.5843  131.6422  150.6802 C   0  0  0  0  0  0  0  0  0  0  0  0
  143.5368  132.5015  150.2904 C   0  0  0  0  0  0  0  0  0  0  0  0
  143.6786  133.8385  150.4257 N   0  3  0  0  0  0  0  0  0  0  0  0
  148.6246  138.8391  154.8089 C   0  0  0  0  0  0  0  0  0  0  0  0
  151.8611  141.7883  157.1507 H   0  0  0  0  0  0  0  0  0  0  0  0
  150.0889  141.8357  157.2060 H   0  0  0  0  0  0  0  0  0  0  0  0
  150.9506  142.4269  155.7642 H   0  0  0  0  0  0  0  0  0  0  0  0
  148.1939  141.4558  155.6806 H   0  0  0  0  0  0  0  0  0  0  0  0
  149.4436  142.1465  154.6702 H   0  0  0  0  0  0  0  0  0  0  0  0
  147.2063  142.2666  153.5609 H   0  0  0  0  0  0  0  0  0  0  0  0
  148.3533  141.3408  152.6234 H   0  0  0  0  0  0  0  0  0  0  0  0
  146.1908  140.1977  154.4567 H   0  0  0  0  0  0  0  0  0  0  0  0
  146.1831  140.1602  152.7050 H   0  0  0  0  0  0  0  0  0  0  0  0
  148.2639  138.8054  152.6903 H   0  0  0  0  0  0  0  0  0  0  0  0
  145.8038  138.2528  151.9592 H   0  0  0  0  0  0  0  0  0  0  0  0
  145.1664  135.5929  153.1543 H   0  0  0  0  0  0  0  0  0  0  0  0
  143.9140  136.7604  152.7997 H   0  0  0  0  0  0  0  0  0  0  0  0
  143.9642  136.3436  150.5290 H   0  0  0  0  0  0  0  0  0  0  0  0
  145.7084  136.2850  150.4719 H   0  0  0  0  0  0  0  0  0  0  0  0
  146.7788  134.0422  151.7294 H   0  0  0  0  0  0  0  0  0  0  0  0
  146.5840  131.5596  151.5114 H   0  0  0  0  0  0  0  0  0  0  0  0
  144.4814  130.5717  150.5770 H   0  0  0  0  0  0  0  0  0  0  0  0
  142.5973  132.1628  149.8784 H   0  0  0  0  0  0  0  0  0  0  0  0
  149.2457  137.9444  154.7674 H   0  0  0  0  0  0  0  0  0  0  0  0
  148.0733  138.7962  155.7497 H   0  0  0  0  0  0  0  0  0  0  0  0
  142.9075  134.4423  150.1383 H   0  0  0  0  0  0  0  0  0  0  0  0
  1  2  1  0  0  0  0
  1 22  1  0  0  0  0
  1 23  1  0  0  0  0
  1 24  1  0  0  0  0
  2  3  2  0  0  0  0
  2  4  2  0  0  0  0
  2  5  1  0  0  0  0
  5 21  1  0  0  0  0
  5  6  1  0  0  0  0
  6  7  1  0  0  0  0
  6 25  1  0  0  0  0
  6 26  1  0  0  0  0
  7  8  1  0  0  0  0
  7 27  1  0  0  0  0
  7 28  1  0  0  0  0
  8  9  1  0  0  0  0
  8 29  1  0  0  0  0
  8 30  1  0  0  0  0
  9 10  1  0  0  0  0
  9 21  1  0  0  0  0
  9 31  1  0  0  0  0
 10 11  2  0  0  0  0
 10 12  1  0  0  0  0
 12 13  1  0  0  0  0
 12 32  1  0  0  0  0
 13 14  1  0  0  0  0
 13 33  1  0  0  0  0
 13 34  1  0  0  0  0
 14 15  1  0  0  0  0
 14 35  1  0  0  0  0
 14 36  1  0  0  0  0
 15 20  1  0  0  0  0
 15 16  2  0  0  0  0
 16 17  1  0  0  0  0
 16 37  1  0  0  0  0
 17 18  2  0  0  0  0
 17 38  1  0  0  0  0
 18 19  1  0  0  0  0
 18 39  1  0  0  0  0
 19 20  2  0  0  0  0
 19 40  1  0  0  0  0
 20 43  1  0  0  0  0
 21 41  1  0  0  0  0
 21 42  1  0  0  0  0
M  CHG  1  20   1
M  END
> <s_m_source_file>
AV-unprocessed.smi

> <i_m_source_file_index>
2149

> <i_lp_mmshare_version>
43012

> <i_f3d_flags>
0

> <s_epik_input>
W0NIM11TKD1PKSg9TylOMVtDSDJdW0NIMl1bQ0gyXVtDQEhdKFtDSDJdMSlDKD1PKVtOSF1bQ0gyXVtDSDJdYzJbY0hdW2NIXVtjSF1bY0hdbjI=

> <s_epik_cmdline>
J2VwaWtfcHl0aG9uJywgJy1waCcsICc3LjAnLCAnLXRuJywgJzgnLCAnLW1hJywgJzIwMCcsICctbWV0YWxfYmluZGluZycsICctaW1hZScsICc8aW5maWxlLm1hZT4nLCAnLW9tYWUnLCAnPG91dGZpbGUubWFlPic=

> <r_epik_Ionization_Penalty>
1.83523

> <r_epik_Ionization_Penalty_Charging>
1.83523

> <r_epik_Ionization_Penalty_Neutral>
2.62835e-08

> <r_epik_State_Penalty>
1.95153

> <r_epik_Charging_Adjusted_Penalty>
3.78676

> <i_epik_Tot_Q>
1

> <i_epik_Tot_abs_Q>
1

> <r_epik_Metal_State_Penalty>
1.97791

> <b_epik_Metal_Only>
0

> <s_lp_Force_Field>
OPLS_2005

> <r_lp_Energy>
9.7414

> <b_lp_Chiralities_Consistent>
1

> <s_lp_Variant>
AV-unprocessed.smi:2149-4

> <Gold.Version>
5.8.1

> <Gold.Id.Protein>
6NUR|6NUR_protein|mol2

> <Gold.PLP.Fitness>
43.1613

> <Gold.PLP.PLP>
-35.5473

> <Gold.PLP.part.hbond>
-2.0000

> <Gold.PLP.part.metal>
0.0000

> <Gold.PLP.part.buried>
-6.3667

> <Gold.PLP.part.nonpolar>
-28.8242

> <Gold.PLP.part.repulsive>
0.2283

> <Gold.PLP.ligand.clash>
0.0000

> <Gold.PLP.ligand.torsion>
0.8713

> <Gold.PLP.Chemscore.Hbond>
2.8320

> <Gold.PLP.Chemscore.CHOScore>
0.0000

> <Gold.PLP.Chemscore.Metal>
0.0000

> <Gold.Chemscore.Hbonds>
donor molecule, donor type, donor heavy atom, donor atom, acceptor molecule, acceptor atom, score
      L1  H    20    43       P1 10186  1.76
      P1  H  7989  7998       L1     3  0.83

> <Gold.PLP.Chemscore.Internal.Correction>
0.8605

> <Gold.Rescore>
     Score         DG    S(hbond)    S(metal)    S(lipo)     H(rot)  DE(clash)    DE(int)     intcor
     16.09     -17.22       1.89        0.00      88.89       1.95       0.18       0.95       ----

> <Gold.Chemscore.Fitness>
16.0910

> <Gold.Chemscore.DG>
-17.2212

> <Gold.Chemscore.ZeroCoef>
-5.4800

> <Gold.Chemscore.Hbond>
1.8933

> <Gold.Chemscore.Metal>
0.0000

> <Gold.Chemscore.Lipo>
88.8946

> <Gold.Chemscore.Internal_Hbond>
0.0000

> <Gold.Chemscore.DEClash>
0.1773

> <Gold.Chemscore.DEInternal>
0.9529

> <Gold.Chemscore.Rot>
1.9466

> <Gold.Chemscore.Internal.Correction>
   9.000000E+99

> <Gold.Chemscore.Hbonds>
donor molecule, donor type, donor heavy atom, donor atom, acceptor molecule, acceptor atom, score
      L1  H    20    43       P1 10186  0.69
      P1  H  7989  7998       L1     3  0.42

> <Gold.Chemscore.Hbond.Weighted>
-6.3238

> <Gold.Chemscore.Metal.Weighted>
-0.0000

> <Gold.Chemscore.Lipo.Weighted>
-10.4007

> <Gold.Chemscore.Internal_Hbond.Weighted>
0.0000

> <Gold.Chemscore.DEClash.Weighted>
0.1773

> <Gold.Chemscore.DEInternal.Weighted>
0.9529

> <Gold.Chemscore.Rot.Weighted>
4.9832

> <Gold.Chemscore.Internal.Correction.Weighted>
   9.000000E+99

> <Gold.Protein.RotatedTorsions>
[ 6907 6896 6895 6894 ] final -144.18 input  -60.11 | X-H torsion
[ 7974 7965 7964 7962 ] final  -50.95 input  175.53 | X-H torsion
[ 8008 7997 7996 7995 ] final  117.37 input   59.86 | X-H torsion
[ 10167 10162 10161 10158 ] final  -56.34 input  -65.29 | X-H torsion
[ 10718 10713 10712 10709 ] final  -72.78 input   66.30 | X-H torsion
[ 10763 10752 10751 10750 ] final   98.93 input  -60.55 | X-H torsion
[ 11005 11000 10999 10996 ] final   67.53 input  -57.11 | X-H torsion

> <Gold.Protein.ActiveResidues>
 VAL166  LYS551  ARG553  GLY616  TRP617  ASP618  TYR619  PRO620  LYS621  CYS622 
 ASP623  PHE694  ASN695  SER759  ASP760  ASP761  ALA762  ILE779  LEU786  VAL792 
 PHE793  MET794  SER795  GLU796  ALA797  LYS798  CYS799  TRP800  GLU811  SER814 

> <Gold.Protein.RotatedAtoms>
  151.1106  133.5176  159.2605 H   0  0  0  0  0  0  0  0  0  0  0  0  # atno 6907 bound_to 6896
  151.1971  135.0427  159.8867 H   0  0  0  0  0  0  0  0  0  0  0  0  # atno 6908 bound_to 6896
  152.5450  134.0939  159.8342 H   0  0  0  0  0  0  0  0  0  0  0  0  # atno 6909 bound_to 6896
  145.9243  140.7806  142.9631 H   0  0  0  0  0  0  0  0  0  0  0  0  # atno 7974 bound_to 7965
  156.2490  140.2898  156.0668 H   0  0  0  0  0  0  0  0  0  0  0  0  # atno 8008 bound_to 7997
  155.1715  140.0402  157.2881 H   0  0  0  0  0  0  0  0  0  0  0  0  # atno 8009 bound_to 7997
  154.6322  140.2502  155.7427 H   0  0  0  0  0  0  0  0  0  0  0  0  # atno 8010 bound_to 7997
  140.6323  143.2465  151.5209 H   0  0  0  0  0  0  0  0  0  0  0  0  # atno 10167 bound_to 10162
  156.0306  130.4379  150.2643 H   0  0  0  0  0  0  0  0  0  0  0  0  # atno 10718 bound_to 10713
  153.2951  135.4131  155.1202 H   0  0  0  0  0  0  0  0  0  0  0  0  # atno 10763 bound_to 10752
  154.8532  135.3528  154.5928 H   0  0  0  0  0  0  0  0  0  0  0  0  # atno 10764 bound_to 10752
  153.6352  135.7059  153.5319 H   0  0  0  0  0  0  0  0  0  0  0  0  # atno 10765 bound_to 10752
  139.9765  134.6814  156.0344 H   0  0  0  0  0  0  0  0  0  0  0  0  # atno 11005 bound_to 11000
  144.6756  140.2026  143.7385 LP  0  0  0  0  0  0  0  0  0  0  0  0  # atno 17320 bound_to 7965
  145.8509  139.2175  143.1773 LP  0  0  0  0  0  0  0  0  0  0  0  0  # atno 17321 bound_to 7965
  139.5536  144.2332  152.1573 LP  0  0  0  0  0  0  0  0  0  0  0  0  # atno 17342 bound_to 10162
  140.1579  144.5053  150.6649 LP  0  0  0  0  0  0  0  0  0  0  0  0  # atno 17343 bound_to 10162
  157.0745  131.0126  151.3178 LP  0  0  0  0  0  0  0  0  0  0  0  0  # atno 17370 bound_to 10713
  157.4974  130.7859  149.7569 LP  0  0  0  0  0  0  0  0  0  0  0  0  # atno 17371 bound_to 10713
  141.1441  133.6559  156.3817 LP  0  0  0  0  0  0  0  0  0  0  0  0  # atno 17394 bound_to 11000
  140.5184  134.6328  157.5309 LP  0  0  0  0  0  0  0  0  0  0  0  0  # atno 17395 bound_to 11000

$$$$
