AV-unprocessed.smi:2013|AV-procd|sdf|8157|dock8
  -GOLD-   2272010403D 1   1.00000     0.00000
 Structure written by MMmdl.
 51 52  0  0  0  0  0  0  0  0  2 V2000
  147.4797  142.0242  154.4709 C   0  0  0  0  0  0  0  0  0  0  0  0
  148.0657  140.6385  154.1398 C   0  0  0  0  0  0  0  0  0  0  0  0
  147.2322  140.0026  153.0090 C   0  0  0  0  0  0  0  0  0  0  0  0
  148.1652  139.7060  155.3821 C   0  0  2  0  0  0  0  0  0  0  0  0
  148.3870  140.4925  156.7055 C   0  0  0  0  0  0  0  0  0  0  0  0
  149.7511  140.9889  156.8537 N   0  0  0  0  0  0  0  0  0  0  0  0
  150.6950  140.4406  157.6323 C   0  0  0  0  0  0  0  0  0  0  0  0
  150.5042  139.4394  158.3235 O   0  0  0  0  0  0  0  0  0  0  0  0
  152.0510  141.1581  157.6512 C   0  0  0  0  0  0  0  0  0  0  0  0
  152.4609  141.5722  158.9991 N   0  0  0  0  0  0  0  0  0  0  0  0
  151.8458  142.6566  159.5987 C   0  0  0  0  0  0  0  0  0  0  0  0
  152.1555  143.0978  160.8371 C   0  0  0  0  0  0  0  0  0  0  0  0
  153.1857  142.4376  161.6285 C   0  0  0  0  0  0  0  0  0  0  0  0
  153.5038  142.7969  162.7632 O   0  0  0  0  0  0  0  0  0  0  0  0
  153.8024  141.3363  160.9924 N   0  0  0  0  0  0  0  0  0  0  0  0
  154.8339  140.6541  161.7460 C   0  0  0  0  0  0  0  0  0  0  0  0
  153.4689  140.8723  159.6982 C   0  0  0  0  0  0  0  0  0  0  0  0
  154.0204  139.8980  159.1814 O   0  0  0  0  0  0  0  0  0  0  0  0
  149.1853  138.6387  155.1310 N   0  3  0  0  0  0  0  0  0  0  0  0
  150.5137  139.0963  154.6513 C   0  0  0  0  0  0  0  0  0  0  0  0
  151.3603  137.8873  154.2213 C   0  0  0  0  0  0  0  0  0  0  0  0
  151.4760  136.9757  155.3079 O   0  0  0  0  0  0  0  0  0  0  0  0
  150.2120  136.4656  155.7162 C   0  0  0  0  0  0  0  0  0  0  0  0
  149.3205  137.6206  156.2021 C   0  0  0  0  0  0  0  0  0  0  0  0
  146.5077  141.9395  154.9577 H   0  0  0  0  0  0  0  0  0  0  0  0
  147.3444  142.6189  153.5669 H   0  0  0  0  0  0  0  0  0  0  0  0
  148.1364  142.6005  155.1220 H   0  0  0  0  0  0  0  0  0  0  0  0
  149.0703  140.8047  153.7495 H   0  0  0  0  0  0  0  0  0  0  0  0
  146.2199  139.7741  153.3441 H   0  0  0  0  0  0  0  0  0  0  0  0
  147.6784  139.0791  152.6403 H   0  0  0  0  0  0  0  0  0  0  0  0
  147.1524  140.6749  152.1542 H   0  0  0  0  0  0  0  0  0  0  0  0
  147.1963  139.2109  155.4660 H   0  0  0  0  0  0  0  0  0  0  0  0
  147.6622  141.3049  156.7796 H   0  0  0  0  0  0  0  0  0  0  0  0
  148.2096  139.8480  157.5655 H   0  0  0  0  0  0  0  0  0  0  0  0
  149.9999  141.8080  156.3182 H   0  0  0  0  0  0  0  0  0  0  0  0
  152.8172  140.5212  157.2050 H   0  0  0  0  0  0  0  0  0  0  0  0
  151.9797  142.0304  157.0001 H   0  0  0  0  0  0  0  0  0  0  0  0
  151.0732  143.1780  159.0524 H   0  0  0  0  0  0  0  0  0  0  0  0
  151.6340  143.9499  161.2479 H   0  0  0  0  0  0  0  0  0  0  0  0
  155.3109  139.8748  161.1528 H   0  0  0  0  0  0  0  0  0  0  0  0
  154.3546  140.2186  162.6243 H   0  0  0  0  0  0  0  0  0  0  0  0
  155.5796  141.3996  162.0282 H   0  0  0  0  0  0  0  0  0  0  0  0
  150.3968  139.7807  153.8111 H   0  0  0  0  0  0  0  0  0  0  0  0
  151.0385  139.6380  155.4381 H   0  0  0  0  0  0  0  0  0  0  0  0
  150.9181  137.3886  153.3571 H   0  0  0  0  0  0  0  0  0  0  0  0
  152.3574  138.2135  153.9253 H   0  0  0  0  0  0  0  0  0  0  0  0
  149.7401  135.9285  154.8917 H   0  0  0  0  0  0  0  0  0  0  0  0
  150.3642  135.7444  156.5195 H   0  0  0  0  0  0  0  0  0  0  0  0
  149.7556  138.0585  157.0994 H   0  0  0  0  0  0  0  0  0  0  0  0
  148.3391  137.2319  156.4757 H   0  0  0  0  0  0  0  0  0  0  0  0
  148.7965  138.1192  154.3567 H   0  0  0  0  0  0  0  0  0  0  0  0
  1  2  1  0  0  0  0
  1 25  1  0  0  0  0
  1 26  1  0  0  0  0
  1 27  1  0  0  0  0
  2  3  1  0  0  0  0
  2  4  1  0  0  0  0
  2 28  1  0  0  0  0
  3 29  1  0  0  0  0
  3 30  1  0  0  0  0
  3 31  1  0  0  0  0
  4  5  1  0  0  0  0
  4 19  1  0  0  0  0
  4 32  1  0  0  0  0
  5  6  1  0  0  0  0
  5 33  1  0  0  0  0
  5 34  1  0  0  0  0
  6  7  1  0  0  0  0
  6 35  1  0  0  0  0
  7  8  2  0  0  0  0
  7  9  1  0  0  0  0
  9 10  1  0  0  0  0
  9 36  1  0  0  0  0
  9 37  1  0  0  0  0
 10 17  1  0  0  0  0
 10 11  1  0  0  0  0
 11 12  2  0  0  0  0
 11 38  1  0  0  0  0
 12 13  1  0  0  0  0
 12 39  1  0  0  0  0
 13 14  2  0  0  0  0
 13 15  1  0  0  0  0
 15 16  1  0  0  0  0
 15 17  1  0  0  0  0
 16 40  1  0  0  0  0
 16 41  1  0  0  0  0
 16 42  1  0  0  0  0
 17 18  2  0  0  0  0
 19 24  1  0  0  0  0
 19 20  1  0  0  0  0
 19 51  1  0  0  0  0
 20 21  1  0  0  0  0
 20 43  1  0  0  0  0
 20 44  1  0  0  0  0
 21 22  1  0  0  0  0
 21 45  1  0  0  0  0
 21 46  1  0  0  0  0
 22 23  1  0  0  0  0
 23 24  1  0  0  0  0
 23 47  1  0  0  0  0
 23 48  1  0  0  0  0
 24 49  1  0  0  0  0
 24 50  1  0  0  0  0
M  CHG  1  19   1
M  END
> <s_m_source_file>
AV-unprocessed.smi

> <i_m_source_file_index>
2013

> <i_lp_mmshare_version>
43012

> <i_f3d_flags>
0

> <s_epik_input>
W0NIMl0xW0NIMl1PW0NIMl1bQ0gyXU4xW0NASF0oW0NIXShbQ0gzXSlbQ0gzXSlbQ0gyXVtOSF1DKD1PKVtDSDJdbjJbY0hdW2NIXWMoPU8pbihbQ0gzXSljMj1P

> <s_epik_cmdline>
J2VwaWtfcHl0aG9uJywgJy1waCcsICc3LjAnLCAnLXRuJywgJzgnLCAnLW1hJywgJzIwMCcsICctbWV0YWxfYmluZGluZycsICctaW1hZScsICc8aW5maWxlLm1hZT4nLCAnLW9tYWUnLCAnPG91dGZpbGUubWFlPic=

> <r_lp_tautomer_probability>
1

> <r_epik_Ionization_Penalty>
0.370738

> <r_epik_Ionization_Penalty_Charging>
0.370738

> <r_epik_Ionization_Penalty_Neutral>
8.1827e-08

> <r_epik_State_Penalty>
0.368162

> <r_epik_Charging_Adjusted_Penalty>
0.7389

> <i_epik_Tot_Q>
1

> <i_epik_Tot_abs_Q>
1

> <r_epik_Metal_State_Penalty>
0.368194

> <b_epik_Metal_Only>
0

> <s_lp_Force_Field>
OPLS_2005

> <r_lp_Energy>
40.4187

> <b_lp_Chiralities_Consistent>
1

> <s_lp_Variant>
AV-unprocessed.smi:2013-1

> <Gold.Version>
5.8.1

> <Gold.Id.Protein>
6NUR|6NUR_protein|mol2

> <Gold.PLP.Fitness>
45.5272

> <Gold.PLP.PLP>
-41.1950

> <Gold.PLP.part.hbond>
-2.0865

> <Gold.PLP.part.metal>
0.0000

> <Gold.PLP.part.buried>
-2.5674

> <Gold.PLP.part.nonpolar>
-35.4883

> <Gold.PLP.part.repulsive>
0.1993

> <Gold.PLP.ligand.clash>
0.0000

> <Gold.PLP.ligand.torsion>
1.0205

> <Gold.PLP.Chemscore.Hbond>
2.0000

> <Gold.PLP.Chemscore.CHOScore>
0.0000

> <Gold.PLP.Chemscore.Metal>
0.0000

> <Gold.Chemscore.Hbonds>
donor molecule, donor type, donor heavy atom, donor atom, acceptor molecule, acceptor atom, score
      P1  H  7997  8008       L1    18  0.80
      P1  H 10752 10765       L1    22  0.71

> <Gold.PLP.Chemscore.Internal.Correction>
0.3733

> <Gold.Rescore>
     Score         DG    S(hbond)    S(metal)    S(lipo)     H(rot)  DE(clash)    DE(int)     intcor
     12.77     -15.15       1.77        0.00      81.96       2.28       0.03       2.34       ----

> <Gold.Chemscore.Fitness>
12.7724

> <Gold.Chemscore.DG>
-15.1462

> <Gold.Chemscore.ZeroCoef>
-5.4800

> <Gold.Chemscore.Hbond>
1.7715

> <Gold.Chemscore.Metal>
0.0000

> <Gold.Chemscore.Lipo>
81.9647

> <Gold.Chemscore.Internal_Hbond>
0.0000

> <Gold.Chemscore.DEClash>
0.0300

> <Gold.Chemscore.DEInternal>
2.3437

> <Gold.Chemscore.Rot>
2.2814

> <Gold.Chemscore.Internal.Correction>
   9.000000E+99

> <Gold.Chemscore.Hbonds>
donor molecule, donor type, donor heavy atom, donor atom, acceptor molecule, acceptor atom, score
      P1  H  7997  8008       L1    18  0.76
      P1  H 10752 10765       L1    22  0.41

> <Gold.Chemscore.Hbond.Weighted>
-5.9167

> <Gold.Chemscore.Metal.Weighted>
-0.0000

> <Gold.Chemscore.Lipo.Weighted>
-9.5899

> <Gold.Chemscore.Internal_Hbond.Weighted>
0.0000

> <Gold.Chemscore.DEClash.Weighted>
0.0300

> <Gold.Chemscore.DEInternal.Weighted>
2.3437

> <Gold.Chemscore.Rot.Weighted>
5.8404

> <Gold.Chemscore.Internal.Correction.Weighted>
   9.000000E+99

> <Gold.Protein.RotatedTorsions>
[ 6907 6896 6895 6894 ] final   -8.26 input  -60.11 | X-H torsion
[ 7974 7965 7964 7962 ] final -151.76 input  175.53 | X-H torsion
[ 8008 7997 7996 7995 ] final -110.75 input   59.86 | X-H torsion
[ 10167 10162 10161 10158 ] final   41.31 input  -65.29 | X-H torsion
[ 10718 10713 10712 10709 ] final   91.04 input   66.30 | X-H torsion
[ 10763 10752 10751 10750 ] final -166.97 input  -60.55 | X-H torsion
[ 11005 11000 10999 10996 ] final    8.26 input  -57.11 | X-H torsion

> <Gold.Protein.ActiveResidues>
 VAL166  LYS551  ARG553  GLY616  TRP617  ASP618  TYR619  PRO620  LYS621  CYS622 
 ASP623  PHE694  ASN695  SER759  ASP760  ASP761  ALA762  ILE779  LEU786  VAL792 
 PHE793  MET794  SER795  GLU796  ALA797  LYS798  CYS799  TRP800  GLU811  SER814 

> <Gold.Protein.RotatedAtoms>
  151.4365  135.1015  159.9657 H   0  0  0  0  0  0  0  0  0  0  0  0  # atno 6907 bound_to 6896
  152.4938  133.8569  159.7241 H   0  0  0  0  0  0  0  0  0  0  0  0  # atno 6908 bound_to 6896
  150.9118  133.6929  159.2880 H   0  0  0  0  0  0  0  0  0  0  0  0  # atno 6909 bound_to 6896
  144.7832  140.4754  143.5825 H   0  0  0  0  0  0  0  0  0  0  0  0  # atno 7974 bound_to 7965
  154.9793  140.0396  157.2270 H   0  0  0  0  0  0  0  0  0  0  0  0  # atno 8008 bound_to 7997
  154.7729  140.2805  155.6101 H   0  0  0  0  0  0  0  0  0  0  0  0  # atno 8009 bound_to 7997
  156.2924  140.2606  156.2536 H   0  0  0  0  0  0  0  0  0  0  0  0  # atno 8010 bound_to 7997
  140.3656  144.2172  150.6135 H   0  0  0  0  0  0  0  0  0  0  0  0  # atno 10167 bound_to 10162
  157.6960  131.0393  150.3669 H   0  0  0  0  0  0  0  0  0  0  0  0  # atno 10718 bound_to 10713
  154.6779  135.2950  154.9653 H   0  0  0  0  0  0  0  0  0  0  0  0  # atno 10763 bound_to 10752
  154.0658  135.6625  153.4821 H   0  0  0  0  0  0  0  0  0  0  0  0  # atno 10764 bound_to 10752
  153.0528  135.5163  154.7808 H   0  0  0  0  0  0  0  0  0  0  0  0  # atno 10765 bound_to 10752
  140.5390  134.0393  155.7898 H   0  0  0  0  0  0  0  0  0  0  0  0  # atno 11005 bound_to 11000
  145.5994  139.1502  143.3137 LP  0  0  0  0  0  0  0  0  0  0  0  0  # atno 17320 bound_to 7965
  146.2050  140.6116  142.9085 LP  0  0  0  0  0  0  0  0  0  0  0  0  # atno 17321 bound_to 7965
  140.5084  143.2297  151.8573 LP  0  0  0  0  0  0  0  0  0  0  0  0  # atno 17342 bound_to 10162
  139.4809  144.4978  151.9100 LP  0  0  0  0  0  0  0  0  0  0  0  0  # atno 17343 bound_to 10162
  156.4099  130.3932  149.6899 LP  0  0  0  0  0  0  0  0  0  0  0  0  # atno 17370 bound_to 10713
  156.4187  130.7758  151.2774 LP  0  0  0  0  0  0  0  0  0  0  0  0  # atno 17371 bound_to 10713
  141.1238  133.9417  157.2676 LP  0  0  0  0  0  0  0  0  0  0  0  0  # atno 17394 bound_to 11000
  139.9514  135.0174  156.9005 LP  0  0  0  0  0  0  0  0  0  0  0  0  # atno 17395 bound_to 11000

$$$$
