AV-unprocessed.smi:2317|AV-procd|sdf|9272|dock8
  -GOLD-   2272012493D 1   1.00000     0.00000
 Structure written by MMmdl.
 37 38  0  0  0  0  0  0  0  0  1 V2000
  144.9073  137.1810  152.8602 O   0  0  0  0  0  0  0  0  0  0  0  0
  146.0570  136.9432  152.4918 C   0  0  0  0  0  0  0  0  0  0  0  0
  147.0747  137.8035  152.6447 N   0  0  0  0  0  0  0  0  0  0  0  0
  146.9905  139.1156  153.2811 C   0  0  0  0  0  0  0  0  0  0  0  0
  148.0934  139.3309  154.3427 C   0  0  1  0  0  0  0  0  0  0  0  0
  149.3307  138.4255  154.1392 C   0  0  0  0  0  0  0  0  0  0  0  0
  150.3842  138.6469  155.2369 C   0  0  0  0  0  0  0  0  0  0  0  0
  150.8040  140.1211  155.3244 C   0  0  0  0  0  0  0  0  0  0  0  0
  149.5846  141.0358  155.5307 C   0  0  0  0  0  0  0  0  0  0  0  0
  148.5085  140.8197  154.4488 C   0  0  1  0  0  0  0  0  0  0  0  0
  148.9929  141.3070  153.2110 O   0  0  0  0  0  0  0  0  0  0  0  0
  146.4636  135.8195  151.8760 N   0  0  0  0  0  0  0  0  0  0  0  0
  145.7165  134.6575  151.5352 C   0  0  0  0  0  0  0  0  0  0  0  0
  144.3925  134.6729  151.0319 C   0  0  0  0  0  0  0  0  0  0  0  0
  143.7623  133.4439  150.7503 C   0  0  0  0  0  0  0  0  0  0  0  0
  144.3508  132.2445  150.9406 N   0  0  0  0  0  0  0  0  0  0  0  0
  145.6084  132.2325  151.4304 C   0  0  0  0  0  0  0  0  0  0  0  0
  146.3277  133.4029  151.7448 C   0  0  0  0  0  0  0  0  0  0  0  0
  147.5869  133.3185  152.2384 F   0  0  0  0  0  0  0  0  0  0  0  0
  147.9831  137.5260  152.3027 H   0  0  0  0  0  0  0  0  0  0  0  0
  147.0140  139.9113  152.5348 H   0  0  0  0  0  0  0  0  0  0  0  0
  146.0113  139.1788  153.7564 H   0  0  0  0  0  0  0  0  0  0  0  0
  147.6583  139.0602  155.3062 H   0  0  0  0  0  0  0  0  0  0  0  0
  149.0396  137.3754  154.1436 H   0  0  0  0  0  0  0  0  0  0  0  0
  149.7732  138.6158  153.1606 H   0  0  0  0  0  0  0  0  0  0  0  0
  149.9824  138.3248  156.1983 H   0  0  0  0  0  0  0  0  0  0  0  0
  151.2579  138.0239  155.0433 H   0  0  0  0  0  0  0  0  0  0  0  0
  151.5123  140.2572  156.1422 H   0  0  0  0  0  0  0  0  0  0  0  0
  151.3295  140.4062  154.4123 H   0  0  0  0  0  0  0  0  0  0  0  0
  149.1511  140.8333  156.5108 H   0  0  0  0  0  0  0  0  0  0  0  0
  149.8990  142.0802  155.5486 H   0  0  0  0  0  0  0  0  0  0  0  0
  147.6331  141.4174  154.7051 H   0  0  0  0  0  0  0  0  0  0  0  0
  149.0395  140.5867  152.6011 H   0  0  0  0  0  0  0  0  0  0  0  0
  147.4278  135.8065  151.5773 H   0  0  0  0  0  0  0  0  0  0  0  0
  143.8449  135.5872  150.8667 H   0  0  0  0  0  0  0  0  0  0  0  0
  142.7531  133.4246  150.3665 H   0  0  0  0  0  0  0  0  0  0  0  0
  146.0545  131.2604  151.5787 H   0  0  0  0  0  0  0  0  0  0  0  0
  1  2  2  0  0  0  0
  2  3  1  0  0  0  0
  2 12  1  0  0  0  0
  3  4  1  0  0  0  0
  3 20  1  0  0  0  0
  4  5  1  0  0  0  0
  4 21  1  0  0  0  0
  4 22  1  0  0  0  0
  5 10  1  0  0  0  0
  5  6  1  0  0  0  0
  5 23  1  0  0  0  0
  6  7  1  0  0  0  0
  6 24  1  0  0  0  0
  6 25  1  0  0  0  0
  7  8  1  0  0  0  0
  7 26  1  0  0  0  0
  7 27  1  0  0  0  0
  8  9  1  0  0  0  0
  8 28  1  0  0  0  0
  8 29  1  0  0  0  0
  9 10  1  0  0  0  0
  9 30  1  0  0  0  0
  9 31  1  0  0  0  0
 10 11  1  0  0  0  0
 10 32  1  0  0  0  0
 11 33  1  0  0  0  0
 12 13  1  0  0  0  0
 12 34  1  0  0  0  0
 13 18  1  0  0  0  0
 13 14  2  0  0  0  0
 14 15  1  0  0  0  0
 14 35  1  0  0  0  0
 15 16  2  0  0  0  0
 15 36  1  0  0  0  0
 16 17  1  0  0  0  0
 17 18  2  0  0  0  0
 17 37  1  0  0  0  0
 18 19  1  0  0  0  0
M  END
> <s_m_source_file>
AV-unprocessed.smi

> <i_m_source_file_index>
2317

> <i_lp_mmshare_version>
43012

> <i_f3d_flags>
0

> <s_epik_input>
RmMxW2NIXW5bY0hdW2NIXWMxW05IXUMoPU8pW05IXVtDSDJdW0NAQEhdMltDSDJdW0NIMl1bQ0gyXVtDSDJdW0NASF0yW09IXQ==

> <s_epik_cmdline>
J2VwaWtfcHl0aG9uJywgJy1waCcsICc3LjAnLCAnLXRuJywgJzgnLCAnLW1hJywgJzIwMCcsICctbWV0YWxfYmluZGluZycsICctaW1hZScsICc8aW5maWxlLm1hZT4nLCAnLW9tYWUnLCAnPG91dGZpbGUubWFlPic=

> <r_epik_Ionization_Penalty>
0.00317647

> <r_epik_Ionization_Penalty_Charging>
0

> <r_epik_Ionization_Penalty_Neutral>
0.00317647

> <r_epik_State_Penalty>
0.0022093

> <r_epik_Charging_Adjusted_Penalty>
0.0022093

> <i_epik_Tot_Q>
0

> <i_epik_Tot_abs_Q>
0

> <r_epik_Metal_State_Penalty>
-0

> <b_epik_Metal_Only>
0

> <s_lp_Force_Field>
OPLS_2005

> <r_lp_Energy>
21.0871

> <b_lp_Chiralities_Consistent>
1

> <s_lp_Variant>
AV-unprocessed.smi:2317-2

> <Gold.Version>
5.8.1

> <Gold.Id.Protein>
6NUR|6NUR_protein|mol2

> <Gold.PLP.Fitness>
45.0770

> <Gold.PLP.PLP>
-32.1482

> <Gold.PLP.part.hbond>
-4.3701

> <Gold.PLP.part.metal>
0.0000

> <Gold.PLP.part.buried>
-1.0427

> <Gold.PLP.part.nonpolar>
-27.4227

> <Gold.PLP.part.repulsive>
0.4667

> <Gold.PLP.ligand.clash>
0.0000

> <Gold.PLP.ligand.torsion>
0.8262

> <Gold.PLP.Chemscore.Hbond>
3.8560

> <Gold.PLP.Chemscore.CHOScore>
1.0000

> <Gold.PLP.Chemscore.Metal>
0.0000

> <Gold.Chemscore.Hbonds>
donor molecule, donor type, donor heavy atom, donor atom, acceptor molecule, acceptor atom, score
      L1  H     3    20       P1  7948  0.93
      L1  H    11    33       P1  7957  0.93
      L1  H    12    34       P1  7948  1.00
      P1  H  8011  8017       L1    11  0.90
      L1  C    15    36       P1 10186  1.00

> <Gold.PLP.Chemscore.Internal.Correction>
0.0133

> <Gold.Rescore>
     Score         DG    S(hbond)    S(metal)    S(lipo)     H(rot)  DE(clash)    DE(int)     intcor
     19.01     -20.19       3.22        0.00      72.83       1.79       0.27       0.91       ----

> <Gold.Chemscore.Fitness>
19.0114

> <Gold.Chemscore.DG>
-20.1921

> <Gold.Chemscore.ZeroCoef>
-5.4800

> <Gold.Chemscore.Hbond>
3.2219

> <Gold.Chemscore.Metal>
0.0000

> <Gold.Chemscore.Lipo>
72.8328

> <Gold.Chemscore.Internal_Hbond>
0.0000

> <Gold.Chemscore.DEClash>
0.2659

> <Gold.Chemscore.DEInternal>
0.9148

> <Gold.Chemscore.Rot>
1.7853

> <Gold.Chemscore.Internal.Correction>
   9.000000E+99

> <Gold.Chemscore.Hbonds>
donor molecule, donor type, donor heavy atom, donor atom, acceptor molecule, acceptor atom, score
      L1  H     3    20       P1  7948  0.89
      L1  H    11    33       P1  7957  0.89
      L1  H    12    34       P1  7948  0.91
      P1  H  8011  8017       L1    11  0.17

> <Gold.Chemscore.Hbond.Weighted>
-10.7611

> <Gold.Chemscore.Metal.Weighted>
-0.0000

> <Gold.Chemscore.Lipo.Weighted>
-8.5214

> <Gold.Chemscore.Internal_Hbond.Weighted>
0.0000

> <Gold.Chemscore.DEClash.Weighted>
0.2659

> <Gold.Chemscore.DEInternal.Weighted>
0.9148

> <Gold.Chemscore.Rot.Weighted>
4.5704

> <Gold.Chemscore.Internal.Correction.Weighted>
   9.000000E+99

> <Gold.Protein.RotatedTorsions>
[ 6907 6896 6895 6894 ] final  -83.06 input  -60.11 | X-H torsion
[ 7974 7965 7964 7962 ] final   12.12 input  175.53 | X-H torsion
[ 8008 7997 7996 7995 ] final  165.62 input   59.86 | X-H torsion
[ 10167 10162 10161 10158 ] final -122.42 input  -65.29 | X-H torsion
[ 10718 10713 10712 10709 ] final -161.06 input   66.30 | X-H torsion
[ 10763 10752 10751 10750 ] final   -6.93 input  -60.55 | X-H torsion
[ 11005 11000 10999 10996 ] final  117.29 input  -57.11 | X-H torsion

> <Gold.Protein.ActiveResidues>
 VAL166  LYS551  ARG553  GLY616  TRP617  ASP618  TYR619  PRO620  LYS621  CYS622 
 ASP623  PHE694  ASN695  SER759  ASP760  ASP761  ALA762  ILE779  LEU786  VAL792 
 PHE793  MET794  SER795  GLU796  ALA797  LYS798  CYS799  TRP800  GLU811  SER814 

> <Gold.Protein.RotatedAtoms>
  150.6890  134.3570  159.4933 H   0  0  0  0  0  0  0  0  0  0  0  0  # atno 6907 bound_to 6896
  152.1404  134.9064  160.0563 H   0  0  0  0  0  0  0  0  0  0  0  0  # atno 6908 bound_to 6896
  152.0200  133.3860  159.4291 H   0  0  0  0  0  0  0  0  0  0  0  0  # atno 6909 bound_to 6896
  146.2358  139.9384  142.8486 H   0  0  0  0  0  0  0  0  0  0  0  0  # atno 7974 bound_to 7965
  156.1785  140.1665  156.8317 H   0  0  0  0  0  0  0  0  0  0  0  0  # atno 8008 bound_to 7997
  154.5334  140.0752  156.8418 H   0  0  0  0  0  0  0  0  0  0  0  0  # atno 8009 bound_to 7997
  155.3361  140.3382  155.4241 H   0  0  0  0  0  0  0  0  0  0  0  0  # atno 8010 bound_to 7997
  140.0145  143.5408  152.2248 H   0  0  0  0  0  0  0  0  0  0  0  0  # atno 10167 bound_to 10162
  156.5910  130.8770  151.2889 H   0  0  0  0  0  0  0  0  0  0  0  0  # atno 10718 bound_to 10713
  153.4192  135.7009  153.6306 H   0  0  0  0  0  0  0  0  0  0  0  0  # atno 10763 bound_to 10752
  153.4767  135.3702  155.2421 H   0  0  0  0  0  0  0  0  0  0  0  0  # atno 10764 bound_to 10752
  154.8721  135.4056  154.3557 H   0  0  0  0  0  0  0  0  0  0  0  0  # atno 10765 bound_to 10752
  139.9069  134.9608  156.7328 H   0  0  0  0  0  0  0  0  0  0  0  0  # atno 11005 bound_to 11000
  145.1976  140.9840  143.4174 LP  0  0  0  0  0  0  0  0  0  0  0  0  # atno 17320 bound_to 7965
  144.9802  139.3791  143.6266 LP  0  0  0  0  0  0  0  0  0  0  0  0  # atno 17321 bound_to 7965
  139.6182  144.7624  151.2798 LP  0  0  0  0  0  0  0  0  0  0  0  0  # atno 17342 bound_to 10162
  140.7368  143.6697  150.8092 LP  0  0  0  0  0  0  0  0  0  0  0  0  # atno 17343 bound_to 10162
  157.7304  130.9684  150.1830 LP  0  0  0  0  0  0  0  0  0  0  0  0  # atno 17370 bound_to 10713
  156.2550  130.3704  149.8191 LP  0  0  0  0  0  0  0  0  0  0  0  0  # atno 17371 bound_to 10713
  140.6911  133.9389  155.7967 LP  0  0  0  0  0  0  0  0  0  0  0  0  # atno 17394 bound_to 11000
  141.0441  134.0580  157.3866 LP  0  0  0  0  0  0  0  0  0  0  0  0  # atno 17395 bound_to 11000

$$$$
