AV-unprocessed.smi:189|AV-procd|sdf|1489|dock2
  -GOLD-   2262019303D 1   1.00000     0.00000
 Structure written by MMmdl.
 53 57  0  0  0  0  0  0  0  0  1 V2000
  151.3498  137.7496  154.2351 C   0  0  0  0  0  0  0  0  0  0  0  0
  151.1063  139.1701  154.7815 C   0  0  2  0  0  0  0  0  0  0  0  0
  151.4277  139.3623  156.2684 C   0  0  0  0  0  0  0  0  0  0  0  0
  150.7075  140.6747  156.6112 C   0  0  2  0  0  0  0  0  0  0  0  0
  149.9933  140.6886  157.9741 C   0  0  0  0  0  0  0  0  0  0  0  0
  149.1965  141.9928  158.1964 C   0  0  0  0  0  0  0  0  0  0  0  0
  148.5274  142.5460  156.9167 C   0  0  0  0  0  0  0  0  0  0  0  0
  148.3516  141.4688  155.8366 C   0  0  0  0  0  0  0  0  0  0  0  0
  149.7375  140.9061  155.4299 C   0  0  2  0  0  0  0  0  0  0  0  0
  149.7532  139.6978  154.5996 N   0  0  0  0  0  0  0  0  0  0  0  0
  148.7219  138.8259  154.7345 C   0  0  0  0  0  0  0  0  0  0  0  0
  148.5826  138.0680  155.8552 N   0  0  0  0  0  0  0  0  0  0  0  0
  147.5605  137.2140  155.9624 C   0  0  0  0  0  0  0  0  0  0  0  0
  146.5876  136.9618  155.0839 N   0  0  0  0  0  0  0  0  0  0  0  0
  146.7280  137.7196  153.9583 C   0  0  0  0  0  0  0  0  0  0  0  0
  147.7535  138.6733  153.7092 C   0  0  0  0  0  0  0  0  0  0  0  0
  147.5693  139.2611  152.4648 N   0  0  0  0  0  0  0  0  0  0  0  0
  146.4964  138.6818  151.9995 C   0  0  0  0  0  0  0  0  0  0  0  0
  145.9350  137.7320  152.8240 N   0  0  0  0  0  0  0  0  0  0  0  0
  144.7567  136.9257  152.5467 C   0  0  0  0  0  0  0  0  0  0  0  0
  145.0123  135.8054  151.5109 C   0  0  2  0  0  0  0  0  0  0  0  0
  145.4692  136.3894  150.3032 O   0  0  0  0  0  0  0  0  0  0  0  0
  143.7870  134.9503  151.1983 C   0  0  0  0  0  0  0  0  0  0  0  0
  144.3911  133.5844  150.9052 C   0  0  0  0  0  0  0  0  0  0  0  0
  145.4257  133.4944  151.8694 O   0  0  0  0  0  0  0  0  0  0  0  0
  146.0541  134.7681  151.9755 C   0  0  0  0  0  0  0  0  0  0  0  0
  152.4054  137.4871  154.3056 H   0  0  0  0  0  0  0  0  0  0  0  0
  151.0625  137.6794  153.1855 H   0  0  0  0  0  0  0  0  0  0  0  0
  150.7915  136.9934  154.7872 H   0  0  0  0  0  0  0  0  0  0  0  0
  151.7569  139.8376  154.2138 H   0  0  0  0  0  0  0  0  0  0  0  0
  151.0286  138.5357  156.8570 H   0  0  0  0  0  0  0  0  0  0  0  0
  152.5002  139.4124  156.4582 H   0  0  0  0  0  0  0  0  0  0  0  0
  151.4398  141.4835  156.6052 H   0  0  0  0  0  0  0  0  0  0  0  0
  149.3066  139.8429  158.0263 H   0  0  0  0  0  0  0  0  0  0  0  0
  150.7099  140.5448  158.7830 H   0  0  0  0  0  0  0  0  0  0  0  0
  148.4380  141.8110  158.9586 H   0  0  0  0  0  0  0  0  0  0  0  0
  149.8539  142.7597  158.6074 H   0  0  0  0  0  0  0  0  0  0  0  0
  147.5663  142.9972  157.1649 H   0  0  0  0  0  0  0  0  0  0  0  0
  149.1414  143.3501  156.5086 H   0  0  0  0  0  0  0  0  0  0  0  0
  147.6965  140.6975  156.2410 H   0  0  0  0  0  0  0  0  0  0  0  0
  147.8439  141.8786  154.9633 H   0  0  0  0  0  0  0  0  0  0  0  0
  150.1955  141.6725  154.8025 H   0  0  0  0  0  0  0  0  0  0  0  0
  147.5176  136.6503  156.8826 H   0  0  0  0  0  0  0  0  0  0  0  0
  146.0875  138.9274  151.0302 H   0  0  0  0  0  0  0  0  0  0  0  0
  144.3960  136.5020  153.4848 H   0  0  0  0  0  0  0  0  0  0  0  0
  143.9703  137.5922  152.1897 H   0  0  0  0  0  0  0  0  0  0  0  0
  145.0553  137.2328  150.2018 H   0  0  0  0  0  0  0  0  0  0  0  0
  143.1494  134.8673  152.0794 H   0  0  0  0  0  0  0  0  0  0  0  0
  143.1758  135.3363  150.3812 H   0  0  0  0  0  0  0  0  0  0  0  0
  143.6706  132.7727  151.0078 H   0  0  0  0  0  0  0  0  0  0  0  0
  144.8165  133.5486  149.9008 H   0  0  0  0  0  0  0  0  0  0  0  0
  146.9529  134.7832  151.3567 H   0  0  0  0  0  0  0  0  0  0  0  0
  146.3677  134.9266  153.0079 H   0  0  0  0  0  0  0  0  0  0  0  0
  1  2  1  0  0  0  0
  1 27  1  0  0  0  0
  1 28  1  0  0  0  0
  1 29  1  0  0  0  0
  2 10  1  0  0  0  0
  2  3  1  0  0  0  0
  2 30  1  0  0  0  0
  3  4  1  0  0  0  0
  3 31  1  0  0  0  0
  3 32  1  0  0  0  0
  4  9  1  0  0  0  0
  4  5  1  0  0  0  0
  4 33  1  0  0  0  0
  5  6  1  0  0  0  0
  5 34  1  0  0  0  0
  5 35  1  0  0  0  0
  6  7  1  0  0  0  0
  6 36  1  0  0  0  0
  6 37  1  0  0  0  0
  7  8  1  0  0  0  0
  7 38  1  0  0  0  0
  7 39  1  0  0  0  0
  8  9  1  0  0  0  0
  8 40  1  0  0  0  0
  8 41  1  0  0  0  0
  9 10  1  0  0  0  0
  9 42  1  0  0  0  0
 10 11  1  0  0  0  0
 11 16  1  0  0  0  0
 11 12  2  0  0  0  0
 12 13  1  0  0  0  0
 13 14  2  0  0  0  0
 13 43  1  0  0  0  0
 14 15  1  0  0  0  0
 15 19  1  0  0  0  0
 15 16  2  0  0  0  0
 16 17  1  0  0  0  0
 17 18  2  0  0  0  0
 18 19  1  0  0  0  0
 18 44  1  0  0  0  0
 19 20  1  0  0  0  0
 20 21  1  0  0  0  0
 20 45  1  0  0  0  0
 20 46  1  0  0  0  0
 21 26  1  0  0  0  0
 21 22  1  0  0  0  0
 21 23  1  0  0  0  0
 22 47  1  0  0  0  0
 23 24  1  0  0  0  0
 23 48  1  0  0  0  0
 23 49  1  0  0  0  0
 24 25  1  0  0  0  0
 24 50  1  0  0  0  0
 24 51  1  0  0  0  0
 25 26  1  0  0  0  0
 26 52  1  0  0  0  0
 26 53  1  0  0  0  0
M  END
> <s_m_source_file>
AV-unprocessed.smi

> <i_m_source_file_index>
189

> <i_lp_mmshare_version>
43012

> <i_f3d_flags>
0

> <s_epik_input>
W0NIMl0xW0NIMl1bQ0gyXVtDSDJdW0NASF0oW0NASF0xMilOKFtDQEhdKFtDSDNdKVtDSDJdMiljKG5bY0hdbjMpYyhjMzQpbltjSF1uNFtDSDJdW0NAQF01KFtPSF0pW0NIMl1bQ0gyXU9bQ0gyXTU=

> <s_epik_cmdline>
J2VwaWtfcHl0aG9uJywgJy1waCcsICc3LjAnLCAnLXRuJywgJzgnLCAnLW1hJywgJzIwMCcsICctbWV0YWxfYmluZGluZycsICctaW1hZScsICc8aW5maWxlLm1hZT4nLCAnLW9tYWUnLCAnPG91dGZpbGUubWFlPic=

> <r_lp_tautomer_probability>
1

> <r_epik_Ionization_Penalty>
0.00594261

> <r_epik_Ionization_Penalty_Charging>
0

> <r_epik_Ionization_Penalty_Neutral>
0.00594261

> <r_epik_State_Penalty>
0.00429776

> <r_epik_Charging_Adjusted_Penalty>
0.00429776

> <i_epik_Tot_Q>
0

> <i_epik_Tot_abs_Q>
0

> <r_epik_Metal_State_Penalty>
-0

> <b_epik_Metal_Only>
0

> <s_lp_Force_Field>
OPLS_2005

> <r_lp_Energy>
67.2452

> <b_lp_Chiralities_Consistent>
1

> <s_lp_Variant>
AV-unprocessed.smi:189-15

> <Gold.Version>
5.8.1

> <Gold.Id.Protein>
6NUR|6NUR_protein|mol2

> <Gold.PLP.Fitness>
36.5365

> <Gold.PLP.PLP>
-31.1119

> <Gold.PLP.part.hbond>
-1.7206

> <Gold.PLP.part.metal>
0.0000

> <Gold.PLP.part.buried>
-1.8888

> <Gold.PLP.part.nonpolar>
-32.2804

> <Gold.PLP.part.repulsive>
4.3123

> <Gold.PLP.ligand.clash>
0.0000

> <Gold.PLP.ligand.torsion>
0.3032

> <Gold.PLP.Chemscore.Hbond>
1.0000

> <Gold.PLP.Chemscore.CHOScore>
0.9985

> <Gold.PLP.Chemscore.Metal>
0.0000

> <Gold.Chemscore.Hbonds>
donor molecule, donor type, donor heavy atom, donor atom, acceptor molecule, acceptor atom, score
      L1  H    22    47       P1 10171  1.00
      L1  C    18    44       P1 10171  1.00

> <Gold.PLP.Chemscore.Internal.Correction>
0.0353

> <Gold.Rescore>
     Score         DG    S(hbond)    S(metal)    S(lipo)     H(rot)  DE(clash)    DE(int)     intcor
      9.64     -12.98       0.97        0.00      80.72       2.03       2.07       1.27       ----

> <Gold.Chemscore.Fitness>
9.6429

> <Gold.Chemscore.DG>
-12.9842

> <Gold.Chemscore.ZeroCoef>
-5.4800

> <Gold.Chemscore.Hbond>
0.9747

> <Gold.Chemscore.Metal>
0.0000

> <Gold.Chemscore.Lipo>
80.7225

> <Gold.Chemscore.Internal_Hbond>
0.0000

> <Gold.Chemscore.DEClash>
2.0716

> <Gold.Chemscore.DEInternal>
1.2696

> <Gold.Chemscore.Rot>
2.0297

> <Gold.Chemscore.Internal.Correction>
   9.000000E+99

> <Gold.Chemscore.Hbonds>
donor molecule, donor type, donor heavy atom, donor atom, acceptor molecule, acceptor atom, score
      L1  H    22    47       P1 10171  1.00

> <Gold.Chemscore.Hbond.Weighted>
-3.2556

> <Gold.Chemscore.Metal.Weighted>
-0.0000

> <Gold.Chemscore.Lipo.Weighted>
-9.4445

> <Gold.Chemscore.Internal_Hbond.Weighted>
0.0000

> <Gold.Chemscore.DEClash.Weighted>
2.0716

> <Gold.Chemscore.DEInternal.Weighted>
1.2696

> <Gold.Chemscore.Rot.Weighted>
5.1960

> <Gold.Chemscore.Internal.Correction.Weighted>
   9.000000E+99

> <Gold.Protein.RotatedTorsions>
[ 6907 6896 6895 6894 ] final   20.76 input  -60.11 | X-H torsion
[ 7974 7965 7964 7962 ] final  -78.45 input  175.53 | X-H torsion
[ 8008 7997 7996 7995 ] final   42.07 input   59.86 | X-H torsion
[ 10167 10162 10161 10158 ] final  -48.38 input  -65.29 | X-H torsion
[ 10718 10713 10712 10709 ] final  150.13 input   66.30 | X-H torsion
[ 10763 10752 10751 10750 ] final   58.60 input  -60.55 | X-H torsion
[ 11005 11000 10999 10996 ] final   27.14 input  -57.11 | X-H torsion

> <Gold.Protein.ActiveResidues>
 VAL166  LYS551  ARG553  GLY616  TRP617  ASP618  TYR619  PRO620  LYS621  CYS622 
 ASP623  PHE694  ASN695  SER759  ASP760  ASP761  ALA762  ILE779  LEU786  VAL792 
 PHE793  MET794  SER795  GLU796  ALA797  LYS798  CYS799  TRP800  GLU811  SER814 

> <Gold.Protein.RotatedAtoms>
  151.9014  135.0377  160.0506 H   0  0  0  0  0  0  0  0  0  0  0  0  # atno 6907 bound_to 6896
  152.2355  133.5088  159.5248 H   0  0  0  0  0  0  0  0  0  0  0  0  # atno 6908 bound_to 6896
  150.7038  134.1075  159.4031 H   0  0  0  0  0  0  0  0  0  0  0  0  # atno 6909 bound_to 6896
  145.5863  140.9438  143.1316 H   0  0  0  0  0  0  0  0  0  0  0  0  # atno 7974 bound_to 7965
  155.2800  140.3372  155.4259 H   0  0  0  0  0  0  0  0  0  0  0  0  # atno 8008 bound_to 7997
  156.2094  140.1764  156.7770 H   0  0  0  0  0  0  0  0  0  0  0  0  # atno 8009 bound_to 7997
  154.5665  140.0678  156.8884 H   0  0  0  0  0  0  0  0  0  0  0  0  # atno 8010 bound_to 7997
  140.6733  143.2743  151.4062 H   0  0  0  0  0  0  0  0  0  0  0  0  # atno 10167 bound_to 10162
  157.2874  131.0847  151.1487 H   0  0  0  0  0  0  0  0  0  0  0  0  # atno 10718 bound_to 10713
  152.9874  135.5601  154.5578 H   0  0  0  0  0  0  0  0  0  0  0  0  # atno 10763 bound_to 10752
  154.5003  135.2797  155.1428 H   0  0  0  0  0  0  0  0  0  0  0  0  # atno 10764 bound_to 10752
  154.2861  135.6335  153.5419 H   0  0  0  0  0  0  0  0  0  0  0  0  # atno 10765 bound_to 10752
  140.3294  134.2454  155.7704 H   0  0  0  0  0  0  0  0  0  0  0  0  # atno 11005 bound_to 11000
  144.7371  139.7554  143.7325 LP  0  0  0  0  0  0  0  0  0  0  0  0  # atno 17320 bound_to 7965
  146.1680  139.4818  142.9946 LP  0  0  0  0  0  0  0  0  0  0  0  0  # atno 17321 bound_to 7965
  139.6013  144.1290  152.2201 LP  0  0  0  0  0  0  0  0  0  0  0  0  # atno 17342 bound_to 10162
  140.0675  144.5806  150.7216 LP  0  0  0  0  0  0  0  0  0  0  0  0  # atno 17343 bound_to 10162
  157.2897  130.6790  149.6108 LP  0  0  0  0  0  0  0  0  0  0  0  0  # atno 17370 bound_to 10713
  155.9666  130.4424  150.5381 LP  0  0  0  0  0  0  0  0  0  0  0  0  # atno 17371 bound_to 10713
  141.2067  133.7826  157.0162 LP  0  0  0  0  0  0  0  0  0  0  0  0  # atno 17394 bound_to 11000
  140.0873  134.9613  157.1721 LP  0  0  0  0  0  0  0  0  0  0  0  0  # atno 17395 bound_to 11000

$$$$
