AV-unprocessed.smi:2326|AV-procd|sdf|9297|dock3
  -GOLD-   2272012513D 1   1.00000     0.00000
 Structure written by MMmdl.
 37 38  0  0  0  0  0  0  0  0  1 V2000
  153.4916  141.2812  160.4102 C   0  0  0  0  0  0  0  0  0  0  0  0
  152.7117  142.4365  159.8180 C   0  0  0  0  0  0  0  0  0  0  0  0
  152.8178  143.7343  160.3554 C   0  0  0  0  0  0  0  0  0  0  0  0
  152.0610  144.7609  159.7628 C   0  0  0  0  0  0  0  0  0  0  0  0
  151.2337  144.4496  158.6664 C   0  0  0  0  0  0  0  0  0  0  0  0
  151.1854  143.1210  158.1875 C   0  0  0  0  0  0  0  0  0  0  0  0
  150.3138  142.9087  157.0867 N   0  0  0  0  0  0  0  0  0  0  0  0
  149.7845  141.7494  156.6578 C   0  0  0  0  0  0  0  0  0  0  0  0
  150.0495  140.6378  157.1154 O   0  0  0  0  0  0  0  0  0  0  0  0
  148.9200  141.9618  155.6509 N   0  0  0  0  0  0  0  0  0  0  0  0
  148.1012  140.9801  154.9234 C   0  0  0  0  0  0  0  0  0  0  0  0
  149.0011  139.8513  154.3764 C   0  0  0  0  0  0  0  0  0  0  0  0
  146.9701  140.4013  155.8090 C   0  0  0  0  0  0  0  0  0  0  0  0
  145.9348  141.4730  156.1952 C   0  0  0  0  0  0  0  0  0  0  0  0
  145.3860  142.0591  155.0204 O   0  0  0  0  0  0  0  0  0  0  0  0
  146.3610  142.7199  154.2225 C   0  0  0  0  0  0  0  0  0  0  0  0
  147.4250  141.7129  153.7443 C   0  0  0  0  0  0  0  0  0  0  0  0
  151.9199  142.1380  158.7656 N   0  0  0  0  0  0  0  0  0  0  0  0
  154.2389  141.6330  161.1221 H   0  0  0  0  0  0  0  0  0  0  0  0
  154.0062  140.7245  159.6263 H   0  0  0  0  0  0  0  0  0  0  0  0
  152.8182  140.5993  160.9302 H   0  0  0  0  0  0  0  0  0  0  0  0
  153.4599  143.9401  161.1995 H   0  0  0  0  0  0  0  0  0  0  0  0
  152.1121  145.7702  160.1436 H   0  0  0  0  0  0  0  0  0  0  0  0
  150.6433  145.2260  158.2015 H   0  0  0  0  0  0  0  0  0  0  0  0
  150.0348  143.7408  156.5886 H   0  0  0  0  0  0  0  0  0  0  0  0
  148.7960  142.9208  155.3615 H   0  0  0  0  0  0  0  0  0  0  0  0
  148.4301  139.1533  153.7631 H   0  0  0  0  0  0  0  0  0  0  0  0
  149.4593  139.2698  155.1764 H   0  0  0  0  0  0  0  0  0  0  0  0
  149.8043  140.2500  153.7556 H   0  0  0  0  0  0  0  0  0  0  0  0
  146.4559  139.6093  155.2627 H   0  0  0  0  0  0  0  0  0  0  0  0
  147.3658  139.9262  156.7061 H   0  0  0  0  0  0  0  0  0  0  0  0
  145.1270  141.0195  156.7697 H   0  0  0  0  0  0  0  0  0  0  0  0
  146.3787  142.2425  156.8285 H   0  0  0  0  0  0  0  0  0  0  0  0
  145.8627  143.1705  153.3641 H   0  0  0  0  0  0  0  0  0  0  0  0
  146.8137  143.5367  154.7864 H   0  0  0  0  0  0  0  0  0  0  0  0
  148.1703  142.2228  153.1322 H   0  0  0  0  0  0  0  0  0  0  0  0
  146.9414  140.9861  153.0898 H   0  0  0  0  0  0  0  0  0  0  0  0
  1  2  1  0  0  0  0
  1 19  1  0  0  0  0
  1 20  1  0  0  0  0
  1 21  1  0  0  0  0
  2 18  1  0  0  0  0
  2  3  2  0  0  0  0
  3  4  1  0  0  0  0
  3 22  1  0  0  0  0
  4  5  2  0  0  0  0
  4 23  1  0  0  0  0
  5  6  1  0  0  0  0
  5 24  1  0  0  0  0
  6  7  1  0  0  0  0
  6 18  2  0  0  0  0
  7  8  1  0  0  0  0
  7 25  1  0  0  0  0
  8  9  2  0  0  0  0
  8 10  1  0  0  0  0
 10 11  1  0  0  0  0
 10 26  1  0  0  0  0
 11 17  1  0  0  0  0
 11 12  1  0  0  0  0
 11 13  1  0  0  0  0
 12 27  1  0  0  0  0
 12 28  1  0  0  0  0
 12 29  1  0  0  0  0
 13 14  1  0  0  0  0
 13 30  1  0  0  0  0
 13 31  1  0  0  0  0
 14 15  1  0  0  0  0
 14 32  1  0  0  0  0
 14 33  1  0  0  0  0
 15 16  1  0  0  0  0
 16 17  1  0  0  0  0
 16 34  1  0  0  0  0
 16 35  1  0  0  0  0
 17 36  1  0  0  0  0
 17 37  1  0  0  0  0
M  END
> <s_m_source_file>
AV-unprocessed.smi

> <i_m_source_file_index>
2326

> <i_lp_mmshare_version>
43012

> <i_f3d_flags>
0

> <s_epik_input>
W0NIM11jMVtjSF1bY0hdW2NIXWMobjEpW05IXUMoPU8pW05IXUMyKFtDSDNdKVtDSDJdW0NIMl1PW0NIMl1bQ0gyXTI=

> <s_epik_cmdline>
J2VwaWtfcHl0aG9uJywgJy1waCcsICc3LjAnLCAnLXRuJywgJzgnLCAnLW1hJywgJzIwMCcsICctbWV0YWxfYmluZGluZycsICctaW1hZScsICc8aW5maWxlLm1hZT4nLCAnLW9tYWUnLCAnPG91dGZpbGUubWFlPic=

> <r_lp_tautomer_probability>
1

> <r_epik_Ionization_Penalty>
8.85415e-05

> <r_epik_Ionization_Penalty_Charging>
0

> <r_epik_Ionization_Penalty_Neutral>
8.85415e-05

> <r_epik_State_Penalty>
-0

> <r_epik_Charging_Adjusted_Penalty>
0

> <i_epik_Tot_Q>
0

> <i_epik_Tot_abs_Q>
0

> <r_epik_Metal_State_Penalty>
-0

> <b_epik_Metal_Only>
0

> <s_lp_Force_Field>
OPLS_2005

> <r_lp_Energy>
11.1562

> <b_lp_Chiralities_Consistent>
1

> <s_lp_Variant>
AV-unprocessed.smi:2326-1

> <Gold.Version>
5.8.1

> <Gold.Id.Protein>
6NUR|6NUR_protein|mol2

> <Gold.PLP.Fitness>
43.3798

> <Gold.PLP.PLP>
-37.7439

> <Gold.PLP.part.hbond>
-2.0000

> <Gold.PLP.part.metal>
0.0000

> <Gold.PLP.part.buried>
-6.7086

> <Gold.PLP.part.nonpolar>
-29.7136

> <Gold.PLP.part.repulsive>
0.3436

> <Gold.PLP.ligand.clash>
0.0000

> <Gold.PLP.ligand.torsion>
0.1739

> <Gold.PLP.Chemscore.Hbond>
1.9920

> <Gold.PLP.Chemscore.CHOScore>
0.0000

> <Gold.PLP.Chemscore.Metal>
0.0000

> <Gold.Chemscore.Hbonds>
donor molecule, donor type, donor heavy atom, donor atom, acceptor molecule, acceptor atom, score
      L1  H     7    25       P1  8028  1.00
      L1  H    10    26       P1  8028  1.00

> <Gold.PLP.Chemscore.Internal.Correction>
0.0076

> <Gold.Rescore>
     Score         DG    S(hbond)    S(metal)    S(lipo)     H(rot)  DE(clash)    DE(int)     intcor
     18.23     -19.62       1.95        0.00      87.07       1.00       0.06       1.34       ----

> <Gold.Chemscore.Fitness>
18.2253

> <Gold.Chemscore.DG>
-19.6229

> <Gold.Chemscore.ZeroCoef>
-5.4800

> <Gold.Chemscore.Hbond>
1.9510

> <Gold.Chemscore.Metal>
0.0000

> <Gold.Chemscore.Lipo>
87.0656

> <Gold.Chemscore.Internal_Hbond>
0.0000

> <Gold.Chemscore.DEClash>
0.0593

> <Gold.Chemscore.DEInternal>
1.3382

> <Gold.Chemscore.Rot>
1.0000

> <Gold.Chemscore.Internal.Correction>
   9.000000E+99

> <Gold.Chemscore.Hbonds>
donor molecule, donor type, donor heavy atom, donor atom, acceptor molecule, acceptor atom, score
      L1  H     7    25       P1  8028  0.98
      L1  H    10    26       P1  8028  0.97

> <Gold.Chemscore.Hbond.Weighted>
-6.5162

> <Gold.Chemscore.Metal.Weighted>
-0.0000

> <Gold.Chemscore.Lipo.Weighted>
-10.1867

> <Gold.Chemscore.Internal_Hbond.Weighted>
0.0000

> <Gold.Chemscore.DEClash.Weighted>
0.0593

> <Gold.Chemscore.DEInternal.Weighted>
1.3382

> <Gold.Chemscore.Rot.Weighted>
2.5600

> <Gold.Chemscore.Internal.Correction.Weighted>
   9.000000E+99

> <Gold.Protein.RotatedTorsions>
[ 6907 6896 6895 6894 ] final   89.11 input  -60.11 | X-H torsion
[ 7974 7965 7964 7962 ] final  -54.68 input  175.53 | X-H torsion
[ 8008 7997 7996 7995 ] final  -72.42 input   59.86 | X-H torsion
[ 10167 10162 10161 10158 ] final  127.83 input  -65.29 | X-H torsion
[ 10718 10713 10712 10709 ] final -152.68 input   66.30 | X-H torsion
[ 10763 10752 10751 10750 ] final   65.03 input  -60.55 | X-H torsion
[ 11005 11000 10999 10996 ] final   96.25 input  -57.11 | X-H torsion

> <Gold.Protein.ActiveResidues>
 VAL166  LYS551  ARG553  GLY616  TRP617  ASP618  TYR619  PRO620  LYS621  CYS622 
 ASP623  PHE694  ASN695  SER759  ASP760  ASP761  ALA762  ILE779  LEU786  VAL792 
 PHE793  MET794  SER795  GLU796  ALA797  LYS798  CYS799  TRP800  GLU811  SER814 

> <Gold.Protein.RotatedAtoms>
  152.5433  134.2017  159.8714 H   0  0  0  0  0  0  0  0  0  0  0  0  # atno 6907 bound_to 6896
  151.2005  133.4607  159.2603 H   0  0  0  0  0  0  0  0  0  0  0  0  # atno 6908 bound_to 6896
  151.0994  134.9976  159.8497 H   0  0  0  0  0  0  0  0  0  0  0  0  # atno 6909 bound_to 6896
  145.8828  140.8131  142.9831 H   0  0  0  0  0  0  0  0  0  0  0  0  # atno 7974 bound_to 7965
  154.5165  140.0797  156.8091 H   0  0  0  0  0  0  0  0  0  0  0  0  # atno 8008 bound_to 7997
  155.3669  140.3421  155.4224 H   0  0  0  0  0  0  0  0  0  0  0  0  # atno 8009 bound_to 7997
  156.1633  140.1596  156.8561 H   0  0  0  0  0  0  0  0  0  0  0  0  # atno 8010 bound_to 7997
  139.5558  144.6847  151.4187 H   0  0  0  0  0  0  0  0  0  0  0  0  # atno 10167 bound_to 10162
  156.4757  130.8279  151.2508 H   0  0  0  0  0  0  0  0  0  0  0  0  # atno 10718 bound_to 10713
  153.0079  135.5372  154.6602 H   0  0  0  0  0  0  0  0  0  0  0  0  # atno 10763 bound_to 10752
  154.5813  135.2850  155.0732 H   0  0  0  0  0  0  0  0  0  0  0  0  # atno 10764 bound_to 10752
  154.1860  135.6508  153.5099 H   0  0  0  0  0  0  0  0  0  0  0  0  # atno 10765 bound_to 10752
  139.8783  134.8941  156.4131 H   0  0  0  0  0  0  0  0  0  0  0  0  # atno 11005 bound_to 11000
  144.6727  140.1410  143.7437 LP  0  0  0  0  0  0  0  0  0  0  0  0  # atno 17320 bound_to 7965
  145.9003  139.2426  143.1497 LP  0  0  0  0  0  0  0  0  0  0  0  0  # atno 17321 bound_to 7965
  140.6830  143.8037  150.7148 LP  0  0  0  0  0  0  0  0  0  0  0  0  # atno 17342 bound_to 10162
  140.1497  143.4369  152.2140 LP  0  0  0  0  0  0  0  0  0  0  0  0  # atno 17343 bound_to 10162
  157.7487  131.0061  150.3140 LP  0  0  0  0  0  0  0  0  0  0  0  0  # atno 17370 bound_to 10713
  156.3573  130.3841  149.7280 LP  0  0  0  0  0  0  0  0  0  0  0  0  # atno 17371 bound_to 10713
  140.9187  133.7660  155.9879 LP  0  0  0  0  0  0  0  0  0  0  0  0  # atno 17394 bound_to 11000
  140.8465  134.3005  157.5293 LP  0  0  0  0  0  0  0  0  0  0  0  0  # atno 17395 bound_to 11000

$$$$
