AV-unprocessed.smi:1381|AV-procd|sdf|5614|dock3
  -GOLD-   22720 5223D 1   1.00000     0.00000
 Structure written by MMmdl.
 42 43  0  0  0  0  0  0  0  0  3 V2000
  146.2028  135.9580  162.4709 C   0  0  0  0  0  0  0  0  0  0  0  0
  147.1607  135.8437  161.3348 C   0  0  0  0  0  0  0  0  0  0  0  0
  147.5827  134.7867  160.5793 C   0  0  0  0  0  0  0  0  0  0  0  0
  148.5053  135.3811  159.6759 C   0  0  0  0  0  0  0  0  0  0  0  0
  149.1901  134.7440  158.7136 N   0  5  0  0  0  0  0  0  0  0  0  0
  149.3683  135.3266  157.5063 C   0  0  0  0  0  0  0  0  0  0  0  0
  150.3892  135.8937  157.1098 O   0  0  0  0  0  0  0  0  0  0  0  0
  148.2933  135.2533  156.7083 N   0  0  0  0  0  0  0  0  0  0  0  0
  148.1917  135.8156  155.3673 C   0  0  0  0  0  0  0  0  0  0  0  0
  147.2647  134.9685  154.4748 C   0  0  0  0  0  0  0  0  0  0  0  0
  146.6933  135.7518  153.3521 N   0  3  1  0  0  0  0  0  0  0  0  0
  145.7596  134.9544  152.5242 C   0  0  0  0  0  0  0  0  0  0  0  0
  145.2817  135.7739  151.3126 C   0  0  1  0  0  0  0  0  0  0  0  0
  144.2458  135.0135  150.4769 C   0  0  0  0  0  0  0  0  0  0  0  0
  144.6772  136.9827  151.7651 O   0  0  0  0  0  0  0  0  0  0  0  0
  145.5177  137.8094  152.5703 C   0  0  2  0  0  0  0  0  0  0  0  0
  146.6284  138.4871  151.7481 C   0  0  0  0  0  0  0  0  0  0  0  0
  146.0461  137.0159  153.7816 C   0  0  0  0  0  0  0  0  0  0  0  0
  148.6195  136.6864  159.8555 N   0  0  0  0  0  0  0  0  0  0  0  0
  147.7650  136.9902  160.9219 O   0  0  0  0  0  0  0  0  0  0  0  0
  145.1744  135.9211  162.1125 H   0  0  0  0  0  0  0  0  0  0  0  0
  146.3410  136.8968  163.0079 H   0  0  0  0  0  0  0  0  0  0  0  0
  146.3444  135.1413  163.1789 H   0  0  0  0  0  0  0  0  0  0  0  0
  147.2840  133.7525  160.6619 H   0  0  0  0  0  0  0  0  0  0  0  0
  147.4801  134.7763  157.0699 H   0  0  0  0  0  0  0  0  0  0  0  0
  147.8503  136.8486  155.4383 H   0  0  0  0  0  0  0  0  0  0  0  0
  149.1930  135.8482  154.9375 H   0  0  0  0  0  0  0  0  0  0  0  0
  147.8500  134.1399  154.0728 H   0  0  0  0  0  0  0  0  0  0  0  0
  146.4567  134.5199  155.0549 H   0  0  0  0  0  0  0  0  0  0  0  0
  146.2567  134.0475  152.1771 H   0  0  0  0  0  0  0  0  0  0  0  0
  144.9095  134.6412  153.1329 H   0  0  0  0  0  0  0  0  0  0  0  0
  146.1308  136.0047  150.6689 H   0  0  0  0  0  0  0  0  0  0  0  0
  144.6548  134.0751  150.1014 H   0  0  0  0  0  0  0  0  0  0  0  0
  143.9298  135.6047  149.6170 H   0  0  0  0  0  0  0  0  0  0  0  0
  143.3573  134.7803  151.0646 H   0  0  0  0  0  0  0  0  0  0  0  0
  144.8790  138.6072  152.9506 H   0  0  0  0  0  0  0  0  0  0  0  0
  147.1646  139.2182  152.3536 H   0  0  0  0  0  0  0  0  0  0  0  0
  146.2096  139.0143  150.8906 H   0  0  0  0  0  0  0  0  0  0  0  0
  147.3640  137.7741  151.3769 H   0  0  0  0  0  0  0  0  0  0  0  0
  145.2181  136.7802  154.4524 H   0  0  0  0  0  0  0  0  0  0  0  0
  146.7394  137.6360  154.3488 H   0  0  0  0  0  0  0  0  0  0  0  0
  147.4667  135.9996  152.7517 H   0  0  0  0  0  0  0  0  0  0  0  0
  1  2  1  0  0  0  0
  1 21  1  0  0  0  0
  1 22  1  0  0  0  0
  1 23  1  0  0  0  0
  2 20  1  0  0  0  0
  2  3  2  0  0  0  0
  3  4  1  0  0  0  0
  3 24  1  0  0  0  0
  4  5  1  0  0  0  0
  4 19  2  0  0  0  0
  5  6  1  0  0  0  0
  6  7  2  0  0  0  0
  6  8  1  0  0  0  0
  8  9  1  0  0  0  0
  8 25  1  0  0  0  0
  9 10  1  0  0  0  0
  9 26  1  0  0  0  0
  9 27  1  0  0  0  0
 10 11  1  0  0  0  0
 10 28  1  0  0  0  0
 10 29  1  0  0  0  0
 11 18  1  0  0  0  0
 11 12  1  0  0  0  0
 11 42  1  0  0  0  0
 12 13  1  0  0  0  0
 12 30  1  0  0  0  0
 12 31  1  0  0  0  0
 13 14  1  0  0  0  0
 13 15  1  0  0  0  0
 13 32  1  0  0  0  0
 14 33  1  0  0  0  0
 14 34  1  0  0  0  0
 14 35  1  0  0  0  0
 15 16  1  0  0  0  0
 16 17  1  0  0  0  0
 16 18  1  0  0  0  0
 16 36  1  0  0  0  0
 17 37  1  0  0  0  0
 17 38  1  0  0  0  0
 17 39  1  0  0  0  0
 18 40  1  0  0  0  0
 18 41  1  0  0  0  0
 19 20  1  0  0  0  0
M  CHG  1   5  -1
M  CHG  1  11   1
M  END
> <s_m_source_file>
AV-unprocessed.smi

> <i_m_source_file_index>
1381

> <i_lp_mmshare_version>
43012

> <i_f3d_flags>
0

> <s_epik_input>
W0NIM11jMVtjSF1jKG5vMSlbTkhdQyg9TylbTkhdW0NIMl1bQ0gyXU4yW0NIMl1bQ0BASF0oW0NIM10pT1tDQEBIXShbQ0gzXSlbQ0gyXTI=

> <s_epik_cmdline>
J2VwaWtfcHl0aG9uJywgJy1waCcsICc3LjAnLCAnLXRuJywgJzgnLCAnLW1hJywgJzIwMCcsICctbWV0YWxfYmluZGluZycsICctaW1hZScsICc8aW5maWxlLm1hZT4nLCAnLW9tYWUnLCAnPG91dGZpbGUubWFlPic=

> <r_epik_Ionization_Penalty>
6.73511

> <r_epik_Ionization_Penalty_Charging>
6.73502

> <r_epik_Ionization_Penalty_Neutral>
9.26583e-05

> <r_epik_State_Penalty>
6.93549

> <r_epik_Charging_Adjusted_Penalty>
13.6705

> <i_epik_Tot_Q>
0

> <i_epik_Tot_abs_Q>
2

> <r_epik_Metal_State_Penalty>
2.87211

> <b_epik_Metal_Only>
1

> <s_lp_Force_Field>
OPLS_2005

> <r_lp_Energy>
5.23247

> <b_lp_Chiralities_Consistent>
1

> <s_lp_Variant>
AV-unprocessed.smi:1381-13

> <Gold.Version>
5.8.1

> <Gold.Id.Protein>
6NUR|6NUR_protein|mol2

> <Gold.PLP.Fitness>
39.7347

> <Gold.PLP.PLP>
-26.5397

> <Gold.PLP.part.hbond>
-4.7997

> <Gold.PLP.part.metal>
0.0000

> <Gold.PLP.part.buried>
-2.4224

> <Gold.PLP.part.nonpolar>
-21.0060

> <Gold.PLP.part.repulsive>
1.6000

> <Gold.PLP.ligand.clash>
0.0000

> <Gold.PLP.ligand.torsion>
1.3495

> <Gold.PLP.Chemscore.Hbond>
5.2736

> <Gold.PLP.Chemscore.CHOScore>
0.0000

> <Gold.PLP.Chemscore.Metal>
0.0000

> <Gold.Chemscore.Hbonds>
donor molecule, donor type, donor heavy atom, donor atom, acceptor molecule, acceptor atom, score
      L1  H    11    42       P1  7948  2.00
      P1  H  6896  6909       L1     5  1.90
      P1  H  6931  6943       L1    20  0.81
      P1  H  6934  6947       L1    20  0.71

> <Gold.PLP.Chemscore.Internal.Correction>
0.0733

> <Gold.Rescore>
     Score         DG    S(hbond)    S(metal)    S(lipo)     H(rot)  DE(clash)    DE(int)     intcor
     14.38     -16.14       2.42        0.00      56.70       1.58       0.30       1.46       ----

> <Gold.Chemscore.Fitness>
14.3754

> <Gold.Chemscore.DG>
-16.1380

> <Gold.Chemscore.ZeroCoef>
-5.4800

> <Gold.Chemscore.Hbond>
2.4154

> <Gold.Chemscore.Metal>
0.0000

> <Gold.Chemscore.Lipo>
56.6962

> <Gold.Chemscore.Internal_Hbond>
0.0000

> <Gold.Chemscore.DEClash>
0.2987

> <Gold.Chemscore.DEInternal>
1.4639

> <Gold.Chemscore.Rot>
1.5792

> <Gold.Chemscore.Internal.Correction>
   9.000000E+99

> <Gold.Chemscore.Hbonds>
donor molecule, donor type, donor heavy atom, donor atom, acceptor molecule, acceptor atom, score
      L1  H    11    42       P1  7948  1.00
      P1  H  6896  6909       L1     5  0.18
      P1  H  6931  6943       L1    20  0.12
      P1  H  6934  6947       L1    20  0.57

> <Gold.Chemscore.Hbond.Weighted>
-8.0673

> <Gold.Chemscore.Metal.Weighted>
-0.0000

> <Gold.Chemscore.Lipo.Weighted>
-6.6335

> <Gold.Chemscore.Internal_Hbond.Weighted>
0.0000

> <Gold.Chemscore.DEClash.Weighted>
0.2987

> <Gold.Chemscore.DEInternal.Weighted>
1.4639

> <Gold.Chemscore.Rot.Weighted>
4.0428

> <Gold.Chemscore.Internal.Correction.Weighted>
   9.000000E+99

> <Gold.Protein.RotatedTorsions>
[ 6907 6896 6895 6894 ] final   48.41 input  -60.11 | X-H torsion
[ 7974 7965 7964 7962 ] final -112.86 input  175.53 | X-H torsion
[ 8008 7997 7996 7995 ] final  145.83 input   59.86 | X-H torsion
[ 10167 10162 10161 10158 ] final -173.48 input  -65.29 | X-H torsion
[ 10718 10713 10712 10709 ] final  -29.21 input   66.30 | X-H torsion
[ 10763 10752 10751 10750 ] final  128.69 input  -60.55 | X-H torsion
[ 11005 11000 10999 10996 ] final  -92.97 input  -57.11 | X-H torsion

> <Gold.Protein.ActiveResidues>
 VAL166  LYS551  ARG553  GLY616  TRP617  ASP618  TYR619  PRO620  LYS621  CYS622 
 ASP623  PHE694  ASN695  SER759  ASP760  ASP761  ALA762  ILE779  LEU786  VAL792 
 PHE793  MET794  SER795  GLU796  ALA797  LYS798  CYS799  TRP800  GLU811  SER814 

> <Gold.Protein.RotatedAtoms>
  152.2792  134.7847  160.0399 H   0  0  0  0  0  0  0  0  0  0  0  0  # atno 6907 bound_to 6896
  151.8433  133.3422  159.3658 H   0  0  0  0  0  0  0  0  0  0  0  0  # atno 6908 bound_to 6896
  150.7183  134.5299  159.5739 H   0  0  0  0  0  0  0  0  0  0  0  0  # atno 6909 bound_to 6896
  145.1389  140.8767  143.3714 H   0  0  0  0  0  0  0  0  0  0  0  0  # atno 7974 bound_to 7965
  156.2872  140.2198  156.5279 H   0  0  0  0  0  0  0  0  0  0  0  0  # atno 8008 bound_to 7997
  154.7474  140.0483  157.0885 H   0  0  0  0  0  0  0  0  0  0  0  0  # atno 8009 bound_to 7997
  155.0154  140.3118  155.4817 H   0  0  0  0  0  0  0  0  0  0  0  0  # atno 8010 bound_to 7997
  139.5686  144.1695  152.1350 H   0  0  0  0  0  0  0  0  0  0  0  0  # atno 10167 bound_to 10162
  156.4154  130.4416  149.7222 H   0  0  0  0  0  0  0  0  0  0  0  0  # atno 10718 bound_to 10713
  153.7296  135.3240  155.3283 H   0  0  0  0  0  0  0  0  0  0  0  0  # atno 10763 bound_to 10752
  154.8330  135.4519  154.1135 H   0  0  0  0  0  0  0  0  0  0  0  0  # atno 10764 bound_to 10752
  153.2279  135.6956  153.8005 H   0  0  0  0  0  0  0  0  0  0  0  0  # atno 10765 bound_to 10752
  141.1509  133.7857  157.0095 H   0  0  0  0  0  0  0  0  0  0  0  0  # atno 11005 bound_to 11000
  145.0554  139.3148  143.5907 LP  0  0  0  0  0  0  0  0  0  0  0  0  # atno 17320 bound_to 7965
  146.3507  139.9976  142.8679 LP  0  0  0  0  0  0  0  0  0  0  0  0  # atno 17321 bound_to 7965
  140.1224  144.5362  150.6854 LP  0  0  0  0  0  0  0  0  0  0  0  0  # atno 17342 bound_to 10162
  140.6970  143.2410  151.4972 LP  0  0  0  0  0  0  0  0  0  0  0  0  # atno 17343 bound_to 10162
  156.4184  130.7757  151.2773 LP  0  0  0  0  0  0  0  0  0  0  0  0  # atno 17370 bound_to 10713
  157.7508  131.0190  150.3650 LP  0  0  0  0  0  0  0  0  0  0  0  0  # atno 17371 bound_to 10713
  140.0887  134.9605  157.1741 LP  0  0  0  0  0  0  0  0  0  0  0  0  # atno 17394 bound_to 11000
  140.3476  134.2635  155.7203 LP  0  0  0  0  0  0  0  0  0  0  0  0  # atno 17395 bound_to 11000

$$$$
