AV-unprocessed.smi:2107|AV-procd|sdf|8600|dock10
  -GOLD-   2272011333D 1   1.00000     0.00000
 Structure written by MMmdl.
 46 47  0  0  0  0  0  0  0  0  1 V2000
  152.1562  144.9215  159.4045 C   0  0  0  0  0  0  0  0  0  0  0  0
  151.3440  143.6788  159.0156 C   0  0  0  0  0  0  0  0  0  0  0  0
  152.2083  142.4922  158.8498 N   0  0  0  0  0  0  0  0  0  0  0  0
  153.2914  142.3633  159.8419 C   0  0  0  0  0  0  0  0  0  0  0  0
  153.4251  140.9228  160.3567 C   0  0  0  0  0  0  0  0  0  0  0  0
  151.5130  141.0371  158.2004 S   0  0  0  0  0  0  0  0  0  0  0  0
  152.5334  140.3433  157.3987 O   0  0  0  0  0  0  0  0  0  0  0  0
  150.7924  140.3485  159.2819 O   0  0  0  0  0  0  0  0  0  0  0  0
  150.3563  141.7399  157.1292 N   0  0  0  0  0  0  0  0  0  0  0  0
  150.4558  141.5036  155.6871 C   0  0  0  0  0  0  0  0  0  0  0  0
  149.1549  141.0476  155.0243 C   0  0  0  0  0  0  0  0  0  0  0  0
  148.1378  141.9833  154.7260 C   0  0  0  0  0  0  0  0  0  0  0  0
  146.9402  141.5417  154.1364 C   0  0  0  0  0  0  0  0  0  0  0  0
  146.7959  140.1689  153.8718 C   0  0  0  0  0  0  0  0  0  0  0  0
  147.7490  139.2594  154.1583 N   0  0  0  0  0  0  0  0  0  0  0  0
  148.9064  139.6806  154.7253 C   0  0  0  0  0  0  0  0  0  0  0  0
  149.8809  138.7034  154.9934 N   0  0  0  0  0  0  0  0  0  0  0  0
  151.1290  138.9398  154.2794 C   0  0  0  0  0  0  0  0  0  0  0  0
  152.2105  137.9657  154.7767 C   0  0  0  0  0  0  0  0  0  0  0  0
  151.7484  136.6246  154.6390 O   0  0  0  0  0  0  0  0  0  0  0  0
  150.5665  136.3838  155.3981 C   0  0  0  0  0  0  0  0  0  0  0  0
  149.4429  137.3143  154.9105 C   0  0  0  0  0  0  0  0  0  0  0  0
  151.4940  145.7610  159.6156 H   0  0  0  0  0  0  0  0  0  0  0  0
  152.8251  145.2333  158.6037 H   0  0  0  0  0  0  0  0  0  0  0  0
  152.7578  144.7437  160.2959 H   0  0  0  0  0  0  0  0  0  0  0  0
  150.5820  143.4874  159.7718 H   0  0  0  0  0  0  0  0  0  0  0  0
  150.8015  143.8702  158.0897 H   0  0  0  0  0  0  0  0  0  0  0  0
  154.2291  142.7090  159.4054 H   0  0  0  0  0  0  0  0  0  0  0  0
  153.0915  143.0137  160.6926 H   0  0  0  0  0  0  0  0  0  0  0  0
  154.1791  140.8649  161.1418 H   0  0  0  0  0  0  0  0  0  0  0  0
  153.7247  140.2334  159.5676 H   0  0  0  0  0  0  0  0  0  0  0  0
  152.4832  140.5673  160.7756 H   0  0  0  0  0  0  0  0  0  0  0  0
  149.4012  141.6983  157.4843 H   0  0  0  0  0  0  0  0  0  0  0  0
  150.8505  142.4070  155.2238 H   0  0  0  0  0  0  0  0  0  0  0  0
  151.1995  140.7246  155.5206 H   0  0  0  0  0  0  0  0  0  0  0  0
  148.2624  143.0319  154.9448 H   0  0  0  0  0  0  0  0  0  0  0  0
  146.1511  142.2387  153.8963 H   0  0  0  0  0  0  0  0  0  0  0  0
  145.8906  139.7901  153.4213 H   0  0  0  0  0  0  0  0  0  0  0  0
  150.9645  138.8019  153.2099 H   0  0  0  0  0  0  0  0  0  0  0  0
  151.4603  139.9683  154.4214 H   0  0  0  0  0  0  0  0  0  0  0  0
  153.1242  138.0894  154.1952 H   0  0  0  0  0  0  0  0  0  0  0  0
  152.4652  138.1679  155.8184 H   0  0  0  0  0  0  0  0  0  0  0  0
  150.2711  135.3416  155.2762 H   0  0  0  0  0  0  0  0  0  0  0  0
  150.7660  136.5376  156.4598 H   0  0  0  0  0  0  0  0  0  0  0  0
  148.5468  137.1724  155.5159 H   0  0  0  0  0  0  0  0  0  0  0  0
  149.1831  137.0658  153.8805 H   0  0  0  0  0  0  0  0  0  0  0  0
  1  2  1  0  0  0  0
  1 23  1  0  0  0  0
  1 24  1  0  0  0  0
  1 25  1  0  0  0  0
  2  3  1  0  0  0  0
  2 26  1  0  0  0  0
  2 27  1  0  0  0  0
  3  4  1  0  0  0  0
  3  6  1  0  0  0  0
  4  5  1  0  0  0  0
  4 28  1  0  0  0  0
  4 29  1  0  0  0  0
  5 30  1  0  0  0  0
  5 31  1  0  0  0  0
  5 32  1  0  0  0  0
  6  7  2  0  0  0  0
  6  8  2  0  0  0  0
  6  9  1  0  0  0  0
  9 10  1  0  0  0  0
  9 33  1  0  0  0  0
 10 11  1  0  0  0  0
 10 34  1  0  0  0  0
 10 35  1  0  0  0  0
 11 16  1  0  0  0  0
 11 12  2  0  0  0  0
 12 13  1  0  0  0  0
 12 36  1  0  0  0  0
 13 14  2  0  0  0  0
 13 37  1  0  0  0  0
 14 15  1  0  0  0  0
 14 38  1  0  0  0  0
 15 16  2  0  0  0  0
 16 17  1  0  0  0  0
 17 22  1  0  0  0  0
 17 18  1  0  0  0  0
 18 19  1  0  0  0  0
 18 39  1  0  0  0  0
 18 40  1  0  0  0  0
 19 20  1  0  0  0  0
 19 41  1  0  0  0  0
 19 42  1  0  0  0  0
 20 21  1  0  0  0  0
 21 22  1  0  0  0  0
 21 43  1  0  0  0  0
 21 44  1  0  0  0  0
 22 45  1  0  0  0  0
 22 46  1  0  0  0  0
M  END
> <s_m_source_file>
AV-unprocessed.smi

> <i_m_source_file_index>
2107

> <i_lp_mmshare_version>
43012

> <i_f3d_flags>
0

> <s_epik_input>
W0NIM11bQ0gyXU4oW0NIMl1bQ0gzXSlTKD1PKSg9TylbTkhdW0NIMl1jMVtjSF1bY0hdW2NIXW5jMU4yW0NIMl1bQ0gyXU9bQ0gyXVtDSDJdMg==

> <s_epik_cmdline>
J2VwaWtfcHl0aG9uJywgJy1waCcsICc3LjAnLCAnLXRuJywgJzgnLCAnLW1hJywgJzIwMCcsICctbWV0YWxfYmluZGluZycsICctaW1hZScsICc8aW5maWxlLm1hZT4nLCAnLW9tYWUnLCAnPG91dGZpbGUubWFlPic=

> <r_lp_tautomer_probability>
1

> <r_epik_Ionization_Penalty>
0.0173886

> <r_epik_Ionization_Penalty_Charging>
0

> <r_epik_Ionization_Penalty_Neutral>
0.0173886

> <r_epik_State_Penalty>
0.0135122

> <r_epik_Charging_Adjusted_Penalty>
0.0135122

> <i_epik_Tot_Q>
0

> <i_epik_Tot_abs_Q>
0

> <r_epik_Metal_State_Penalty>
0.283451

> <b_epik_Metal_Only>
0

> <s_lp_Force_Field>
OPLS_2005

> <r_lp_Energy>
23.0208

> <b_lp_Chiralities_Consistent>
1

> <s_lp_Variant>
AV-unprocessed.smi:2107-1

> <Gold.Version>
5.8.1

> <Gold.Id.Protein>
6NUR|6NUR_protein|mol2

> <Gold.PLP.Fitness>
47.9890

> <Gold.PLP.PLP>
-41.1756

> <Gold.PLP.part.hbond>
-2.9608

> <Gold.PLP.part.metal>
0.0000

> <Gold.PLP.part.buried>
0.4027

> <Gold.PLP.part.nonpolar>
-37.4181

> <Gold.PLP.part.repulsive>
0.3884

> <Gold.PLP.ligand.clash>
0.0000

> <Gold.PLP.ligand.torsion>
2.3854

> <Gold.PLP.Chemscore.Hbond>
1.8580

> <Gold.PLP.Chemscore.CHOScore>
1.0000

> <Gold.PLP.Chemscore.Metal>
0.0000

> <Gold.Chemscore.Hbonds>
donor molecule, donor type, donor heavy atom, donor atom, acceptor molecule, acceptor atom, score
      P1  H  7997  8008       L1     7  0.93
      P1  H 10752 10765       L1    20  1.00
      L1  C    14    38       P1 10175  1.00

> <Gold.PLP.Chemscore.Internal.Correction>
3.0100

> <Gold.Rescore>
     Score         DG    S(hbond)    S(metal)    S(lipo)     H(rot)  DE(clash)    DE(int)     intcor
     13.27     -18.15       1.54        0.00     106.41       1.93       0.21       4.66       ----

> <Gold.Chemscore.Fitness>
13.2687

> <Gold.Chemscore.DG>
-18.1476

> <Gold.Chemscore.ZeroCoef>
-5.4800

> <Gold.Chemscore.Hbond>
1.5439

> <Gold.Chemscore.Metal>
0.0000

> <Gold.Chemscore.Lipo>
106.4134

> <Gold.Chemscore.Internal_Hbond>
0.0000

> <Gold.Chemscore.DEClash>
0.2148

> <Gold.Chemscore.DEInternal>
4.6640

> <Gold.Chemscore.Rot>
1.9295

> <Gold.Chemscore.Internal.Correction>
   9.000000E+99

> <Gold.Chemscore.Hbonds>
donor molecule, donor type, donor heavy atom, donor atom, acceptor molecule, acceptor atom, score
      P1  H  7997  8008       L1     7  0.87
      P1  H 10752 10765       L1    20  0.75

> <Gold.Chemscore.Hbond.Weighted>
-5.1567

> <Gold.Chemscore.Metal.Weighted>
-0.0000

> <Gold.Chemscore.Lipo.Weighted>
-12.4504

> <Gold.Chemscore.Internal_Hbond.Weighted>
0.0000

> <Gold.Chemscore.DEClash.Weighted>
0.2148

> <Gold.Chemscore.DEInternal.Weighted>
4.6640

> <Gold.Chemscore.Rot.Weighted>
4.9395

> <Gold.Chemscore.Internal.Correction.Weighted>
   9.000000E+99

> <Gold.Protein.RotatedTorsions>
[ 6907 6896 6895 6894 ] final   21.91 input  -60.11 | X-H torsion
[ 7974 7965 7964 7962 ] final  144.03 input  175.53 | X-H torsion
[ 8008 7997 7996 7995 ] final  -69.61 input   59.86 | X-H torsion
[ 10167 10162 10161 10158 ] final  -61.01 input  -65.29 | X-H torsion
[ 10718 10713 10712 10709 ] final  -71.57 input   66.30 | X-H torsion
[ 10763 10752 10751 10750 ] final  165.45 input  -60.55 | X-H torsion
[ 11005 11000 10999 10996 ] final -155.38 input  -57.11 | X-H torsion

> <Gold.Protein.ActiveResidues>
 VAL166  LYS551  ARG553  GLY616  TRP617  ASP618  TYR619  PRO620  LYS621  CYS622 
 ASP623  PHE694  ASN695  SER759  ASP760  ASP761  ALA762  ILE779  LEU786  VAL792 
 PHE793  MET794  SER795  GLU796  ALA797  LYS798  CYS799  TRP800  GLU811  SER814 

> <Gold.Protein.RotatedAtoms>
  151.9191  135.0306  160.0520 H   0  0  0  0  0  0  0  0  0  0  0  0  # atno 6907 bound_to 6896
  152.2215  133.4982  159.5173 H   0  0  0  0  0  0  0  0  0  0  0  0  # atno 6908 bound_to 6896
  150.7001  134.1253  159.4092 H   0  0  0  0  0  0  0  0  0  0  0  0  # atno 6909 bound_to 6896
  144.8870  139.5613  143.5816 H   0  0  0  0  0  0  0  0  0  0  0  0  # atno 7974 bound_to 7965
  154.4951  140.0850  156.7680 H   0  0  0  0  0  0  0  0  0  0  0  0  # atno 8008 bound_to 7997
  155.4135  140.3442  155.4247 H   0  0  0  0  0  0  0  0  0  0  0  0  # atno 8009 bound_to 7997
  156.1383  140.1522  156.8948 H   0  0  0  0  0  0  0  0  0  0  0  0  # atno 8010 bound_to 7997
  140.6034  143.2367  151.5877 H   0  0  0  0  0  0  0  0  0  0  0  0  # atno 10167 bound_to 10162
  156.0357  130.4354  150.2463 H   0  0  0  0  0  0  0  0  0  0  0  0  # atno 10718 bound_to 10713
  154.3242  135.2755  155.2504 H   0  0  0  0  0  0  0  0  0  0  0  0  # atno 10763 bound_to 10752
  154.4844  135.5850  153.6416 H   0  0  0  0  0  0  0  0  0  0  0  0  # atno 10764 bound_to 10752
  152.9873  135.6119  154.3429 H   0  0  0  0  0  0  0  0  0  0  0  0  # atno 10765 bound_to 10752
  140.6871  134.4082  157.5222 H   0  0  0  0  0  0  0  0  0  0  0  0  # atno 11005 bound_to 11000
  146.3031  139.7490  142.9077 LP  0  0  0  0  0  0  0  0  0  0  0  0  # atno 17320 bound_to 7965
  145.3850  141.0364  143.3156 LP  0  0  0  0  0  0  0  0  0  0  0  0  # atno 17321 bound_to 7965
  139.5307  144.2924  152.1141 LP  0  0  0  0  0  0  0  0  0  0  0  0  # atno 17342 bound_to 10162
  140.2109  144.4563  150.6386 LP  0  0  0  0  0  0  0  0  0  0  0  0  # atno 17343 bound_to 10162
  157.0562  131.0077  151.3237 LP  0  0  0  0  0  0  0  0  0  0  0  0  # atno 17370 bound_to 10713
  157.5104  130.7935  149.7699 LP  0  0  0  0  0  0  0  0  0  0  0  0  # atno 17371 bound_to 10713
  139.8934  134.8731  156.2224 LP  0  0  0  0  0  0  0  0  0  0  0  0  # atno 17394 bound_to 11000
  141.0271  133.7009  156.1367 LP  0  0  0  0  0  0  0  0  0  0  0  0  # atno 17395 bound_to 11000

$$$$
