AV-unprocessed.smi:1550|AV-procd|sdf|6227|dock10
  -GOLD-   22720 6403D 1   1.00000     0.00000
 Structure written by MMmdl.
 43 44  0  0  0  0  0  0  0  0  1 V2000
  149.4091  135.6585  155.8595 C   0  0  0  0  0  0  0  0  0  0  0  0
  149.2162  136.6357  157.0285 C   0  0  1  0  0  0  0  0  0  0  0  0
  148.6100  135.9113  158.0952 O   0  0  0  0  0  0  0  0  0  0  0  0
  148.0613  136.7065  159.1402 C   0  0  0  0  0  0  0  0  0  0  0  0
  148.1749  135.9305  160.4581 C   0  0  1  0  0  0  0  0  0  0  0  0
  147.3953  136.6155  161.5975 C   0  0  0  0  0  0  0  0  0  0  0  0
  147.4627  135.7740  162.8772 C   0  0  0  0  0  0  0  0  0  0  0  0
  147.0087  134.3411  162.5795 C   0  0  0  0  0  0  0  0  0  0  0  0
  147.7888  133.7707  161.3844 C   0  0  0  0  0  0  0  0  0  0  0  0
  147.6379  134.6250  160.2548 O   0  0  0  0  0  0  0  0  0  0  0  0
  150.5573  137.2307  157.4872 C   0  0  0  0  0  0  0  0  0  0  0  0
  151.6097  136.7275  157.0934 O   0  0  0  0  0  0  0  0  0  0  0  0
  150.4701  138.2925  158.3126 N   0  0  0  0  0  0  0  0  0  0  0  0
  151.5010  139.0011  158.9511 C   0  0  0  0  0  0  0  0  0  0  0  0
  151.5344  140.3520  159.0932 C   0  0  0  0  0  0  0  0  0  0  0  0
  152.6416  141.0300  159.7483 C   0  0  0  0  0  0  0  0  0  0  0  0
  152.6882  142.5401  159.9207 C   0  0  0  0  0  0  0  0  0  0  0  0
  152.8220  142.8519  161.2094 F   0  0  0  0  0  0  0  0  0  0  0  0
  153.7331  143.0457  159.2655 F   0  0  0  0  0  0  0  0  0  0  0  0
  151.5819  143.1244  159.4601 F   0  0  0  0  0  0  0  0  0  0  0  0
  153.6411  140.2505  160.1983 C   0  0  0  0  0  0  0  0  0  0  0  0
  153.6191  138.8623  160.0461 N   0  0  0  0  0  0  0  0  0  0  0  0
  152.6173  138.1796  159.4475 C   0  0  0  0  0  0  0  0  0  0  0  0
  152.6736  136.9545  159.3469 O   0  0  0  0  0  0  0  0  0  0  0  0
  154.4091  138.3480  160.4088 H   0  0  0  0  0  0  0  0  0  0  0  0
  149.8807  136.1489  155.0071 H   0  0  0  0  0  0  0  0  0  0  0  0
  148.4492  135.2655  155.5232 H   0  0  0  0  0  0  0  0  0  0  0  0
  150.0299  134.8079  156.1437 H   0  0  0  0  0  0  0  0  0  0  0  0
  148.5439  137.4321  156.7023 H   0  0  0  0  0  0  0  0  0  0  0  0
  148.6122  137.6437  159.2275 H   0  0  0  0  0  0  0  0  0  0  0  0
  147.0203  136.9574  158.9305 H   0  0  0  0  0  0  0  0  0  0  0  0
  149.2286  135.8570  160.7344 H   0  0  0  0  0  0  0  0  0  0  0  0
  147.7965  137.6118  161.7866 H   0  0  0  0  0  0  0  0  0  0  0  0
  146.3535  136.7486  161.3027 H   0  0  0  0  0  0  0  0  0  0  0  0
  148.4858  135.7641  163.2552 H   0  0  0  0  0  0  0  0  0  0  0  0
  146.8432  136.2161  163.6577 H   0  0  0  0  0  0  0  0  0  0  0  0
  147.1484  133.7105  163.4579 H   0  0  0  0  0  0  0  0  0  0  0  0
  145.9416  134.3336  162.3543 H   0  0  0  0  0  0  0  0  0  0  0  0
  148.8461  133.6558  161.6280 H   0  0  0  0  0  0  0  0  0  0  0  0
  147.4121  132.7800  161.1296 H   0  0  0  0  0  0  0  0  0  0  0  0
  149.5426  138.6574  158.4764 H   0  0  0  0  0  0  0  0  0  0  0  0
  150.7400  140.9636  158.6974 H   0  0  0  0  0  0  0  0  0  0  0  0
  154.5207  140.6256  160.7006 H   0  0  0  0  0  0  0  0  0  0  0  0
  1  2  1  0  0  0  0
  1 26  1  0  0  0  0
  1 27  1  0  0  0  0
  1 28  1  0  0  0  0
  2  3  1  0  0  0  0
  2 11  1  0  0  0  0
  2 29  1  0  0  0  0
  3  4  1  0  0  0  0
  4  5  1  0  0  0  0
  4 30  1  0  0  0  0
  4 31  1  0  0  0  0
  5 10  1  0  0  0  0
  5  6  1  0  0  0  0
  5 32  1  0  0  0  0
  6  7  1  0  0  0  0
  6 33  1  0  0  0  0
  6 34  1  0  0  0  0
  7  8  1  0  0  0  0
  7 35  1  0  0  0  0
  7 36  1  0  0  0  0
  8  9  1  0  0  0  0
  8 37  1  0  0  0  0
  8 38  1  0  0  0  0
  9 10  1  0  0  0  0
  9 39  1  0  0  0  0
  9 40  1  0  0  0  0
 11 12  2  0  0  0  0
 11 13  1  0  0  0  0
 13 14  1  0  0  0  0
 13 41  1  0  0  0  0
 14 23  1  0  0  0  0
 14 15  2  0  0  0  0
 15 16  1  0  0  0  0
 15 42  1  0  0  0  0
 16 17  1  0  0  0  0
 16 21  2  0  0  0  0
 17 18  1  0  0  0  0
 17 19  1  0  0  0  0
 17 20  1  0  0  0  0
 21 22  1  0  0  0  0
 21 43  1  0  0  0  0
 22 25  1  0  0  0  0
 22 23  1  0  0  0  0
 23 24  2  0  0  0  0
M  END
> <s_m_source_file>
AV-unprocessed.smi

> <i_m_source_file_index>
1550

> <i_lp_mmshare_version>
43012

> <i_f3d_flags>
0

> <s_epik_input>
TzFbQ0gyXVtDSDJdW0NIMl1bQ0gyXVtDQEhdMVtDSDJdT1tDQEBIXShbQ0gzXSlDKD1PKVtOSF1jMltjSF1jKEMoRikoRilGKVtjSF1bbkhdYzI9Tw==

> <s_epik_cmdline>
J2VwaWtfcHl0aG9uJywgJy1waCcsICc3LjAnLCAnLXRuJywgJzgnLCAnLW1hJywgJzIwMCcsICctbWV0YWxfYmluZGluZycsICctaW1hZScsICc8aW5maWxlLm1hZT4nLCAnLW9tYWUnLCAnPG91dGZpbGUubWFlPic=

> <r_lp_tautomer_probability>
0.999

> <r_epik_Ionization_Penalty>
0.00891333

> <r_epik_Ionization_Penalty_Charging>
0.00891323

> <r_epik_Ionization_Penalty_Neutral>
1.00146e-07

> <r_epik_State_Penalty>
0.00674197

> <r_epik_Charging_Adjusted_Penalty>
0.0156552

> <i_epik_Tot_Q>
0

> <i_epik_Tot_abs_Q>
0

> <r_epik_Metal_State_Penalty>
0.321024

> <b_epik_Metal_Only>
0

> <s_lp_Force_Field>
OPLS_2005

> <r_lp_Energy>
24.886

> <b_lp_Chiralities_Consistent>
1

> <s_lp_Variant>
AV-unprocessed.smi:1550-4

> <Gold.Version>
5.8.1

> <Gold.Id.Protein>
6NUR|6NUR_protein|mol2

> <Gold.PLP.Fitness>
43.8257

> <Gold.PLP.PLP>
-43.1194

> <Gold.PLP.part.hbond>
-1.0000

> <Gold.PLP.part.metal>
0.0000

> <Gold.PLP.part.buried>
-6.5531

> <Gold.PLP.part.nonpolar>
-35.4151

> <Gold.PLP.part.repulsive>
0.1703

> <Gold.PLP.ligand.clash>
0.0000

> <Gold.PLP.ligand.torsion>
0.9785

> <Gold.PLP.Chemscore.Hbond>
0.8613

> <Gold.PLP.Chemscore.CHOScore>
0.0000

> <Gold.PLP.Chemscore.Metal>
0.0000

> <Gold.Chemscore.Hbonds>
donor molecule, donor type, donor heavy atom, donor atom, acceptor molecule, acceptor atom, score
      P1  H  6896  6908       L1    24  0.78

> <Gold.PLP.Chemscore.Internal.Correction>
0.0795

> <Gold.Rescore>
     Score         DG    S(hbond)    S(metal)    S(lipo)     H(rot)  DE(clash)    DE(int)     intcor
     10.97     -14.59       1.00        0.00      90.07       1.86       0.42       3.20       ----

> <Gold.Chemscore.Fitness>
10.9660

> <Gold.Chemscore.DG>
-14.5931

> <Gold.Chemscore.ZeroCoef>
-5.4800

> <Gold.Chemscore.Hbond>
0.9966

> <Gold.Chemscore.Metal>
0.0000

> <Gold.Chemscore.Lipo>
90.0735

> <Gold.Chemscore.Internal_Hbond>
0.0000

> <Gold.Chemscore.DEClash>
0.4247

> <Gold.Chemscore.DEInternal>
3.2023

> <Gold.Chemscore.Rot>
1.8571

> <Gold.Chemscore.Internal.Correction>
   9.000000E+99

> <Gold.Chemscore.Hbonds>
donor molecule, donor type, donor heavy atom, donor atom, acceptor molecule, acceptor atom, score
      P1  H  6896  6908       L1    24  0.77

> <Gold.Chemscore.Hbond.Weighted>
-3.3286

> <Gold.Chemscore.Metal.Weighted>
-0.0000

> <Gold.Chemscore.Lipo.Weighted>
-10.5386

> <Gold.Chemscore.Internal_Hbond.Weighted>
0.0000

> <Gold.Chemscore.DEClash.Weighted>
0.4247

> <Gold.Chemscore.DEInternal.Weighted>
3.2023

> <Gold.Chemscore.Rot.Weighted>
4.7541

> <Gold.Chemscore.Internal.Correction.Weighted>
   9.000000E+99

> <Gold.Protein.RotatedTorsions>
[ 6907 6896 6895 6894 ] final -103.80 input  -60.11 | X-H torsion
[ 7974 7965 7964 7962 ] final  -84.36 input  175.53 | X-H torsion
[ 8008 7997 7996 7995 ] final  153.11 input   59.86 | X-H torsion
[ 10167 10162 10161 10158 ] final -100.07 input  -65.29 | X-H torsion
[ 10718 10713 10712 10709 ] final -108.45 input   66.30 | X-H torsion
[ 10763 10752 10751 10750 ] final  139.40 input  -60.55 | X-H torsion
[ 11005 11000 10999 10996 ] final  -11.82 input  -57.11 | X-H torsion

> <Gold.Protein.ActiveResidues>
 VAL166  LYS551  ARG553  GLY616  TRP617  ASP618  TYR619  PRO620  LYS621  CYS622 
 ASP623  PHE694  ASN695  SER759  ASP760  ASP761  ALA762  ILE779  LEU786  VAL792 
 PHE793  MET794  SER795  GLU796  ALA797  LYS798  CYS799  TRP800  GLU811  SER814 

> <Gold.Protein.RotatedAtoms>
  150.7257  134.0374  159.3753 H   0  0  0  0  0  0  0  0  0  0  0  0  # atno 6907 bound_to 6896
  151.8346  135.0608  160.0450 H   0  0  0  0  0  0  0  0  0  0  0  0  # atno 6908 bound_to 6896
  152.2908  133.5523  159.5592 H   0  0  0  0  0  0  0  0  0  0  0  0  # atno 6909 bound_to 6896
  145.5076  140.9542  143.1725 H   0  0  0  0  0  0  0  0  0  0  0  0  # atno 7974 bound_to 7965
  156.2597  140.2002  156.6439 H   0  0  0  0  0  0  0  0  0  0  0  0  # atno 8008 bound_to 7997
  154.6588  140.0563  157.0064 H   0  0  0  0  0  0  0  0  0  0  0  0  # atno 8009 bound_to 7997
  155.1306  140.3233  155.4478 H   0  0  0  0  0  0  0  0  0  0  0  0  # atno 8010 bound_to 7997
  140.2558  143.3441  152.0672 H   0  0  0  0  0  0  0  0  0  0  0  0  # atno 10167 bound_to 10162
  156.0486  130.5714  150.7963 H   0  0  0  0  0  0  0  0  0  0  0  0  # atno 10718 bound_to 10713
  153.9056  135.3017  155.3448 H   0  0  0  0  0  0  0  0  0  0  0  0  # atno 10763 bound_to 10752
  154.7649  135.4915  153.9538 H   0  0  0  0  0  0  0  0  0  0  0  0  # atno 10764 bound_to 10752
  153.1221  135.6784  153.9419 H   0  0  0  0  0  0  0  0  0  0  0  0  # atno 10765 bound_to 10752
  140.7593  133.8528  155.9111 H   0  0  0  0  0  0  0  0  0  0  0  0  # atno 11005 bound_to 11000
  144.7745  139.6660  143.7180 LP  0  0  0  0  0  0  0  0  0  0  0  0  # atno 17320 bound_to 7965
  146.2187  139.5596  142.9633 LP  0  0  0  0  0  0  0  0  0  0  0  0  # atno 17321 bound_to 7965
  139.5032  144.6750  151.6149 LP  0  0  0  0  0  0  0  0  0  0  0  0  # atno 17342 bound_to 10162
  140.6005  143.9618  150.6383 LP  0  0  0  0  0  0  0  0  0  0  0  0  # atno 17343 bound_to 10162
  157.5389  131.0940  150.9854 LP  0  0  0  0  0  0  0  0  0  0  0  0  # atno 17370 bound_to 10713
  157.0142  130.5648  149.5324 LP  0  0  0  0  0  0  0  0  0  0  0  0  # atno 17371 bound_to 10713
  140.9678  134.1571  157.4601 LP  0  0  0  0  0  0  0  0  0  0  0  0  # atno 17394 bound_to 11000
  139.8773  134.9968  156.5813 LP  0  0  0  0  0  0  0  0  0  0  0  0  # atno 17395 bound_to 11000

$$$$
