AV-unprocessed.smi:1582|AV-procd|sdf|6361|dock8
  -GOLD-   22720 6583D 1   1.00000     0.00000
 Structure written by MMmdl.
 41 42  0  0  0  0  0  0  0  0  2 V2000
  145.3371  138.0838  153.5959 O   0  0  0  0  0  0  0  0  0  0  0  0
  146.3430  137.5889  153.0873 C   0  0  0  0  0  0  0  0  0  0  0  0
  147.5743  138.0962  153.2393 N   0  0  0  0  0  0  0  0  0  0  0  0
  147.8970  139.3062  153.9887 C   0  0  0  0  0  0  0  0  0  0  0  0
  147.0475  140.5134  153.5392 C   0  0  2  0  0  0  0  0  0  0  0  0
  146.8246  140.4087  152.1465 O   0  0  0  0  0  0  0  0  0  0  0  0
  147.7889  141.8453  153.7782 C   0  0  0  0  0  0  0  0  0  0  0  0
  148.3857  141.9359  155.1362 N   0  3  0  0  0  0  0  0  0  0  0  0
  149.7582  141.3674  155.1859 C   0  0  0  0  0  0  0  0  0  0  0  0
  150.4094  141.6005  156.5595 C   0  0  0  0  0  0  0  0  0  0  0  0
  149.5408  141.0237  157.6842 C   0  0  0  0  0  0  0  0  0  0  0  0
  148.1225  141.6013  157.5961 C   0  0  0  0  0  0  0  0  0  0  0  0
  147.5174  141.3663  156.2018 C   0  0  0  0  0  0  0  0  0  0  0  0
  146.3591  136.4867  152.3201 N   0  0  0  0  0  0  0  0  0  0  0  0
  145.2494  135.6980  151.9238 C   0  0  0  0  0  0  0  0  0  0  0  0
  145.2428  134.8101  150.8137 C   0  0  0  0  0  0  0  0  0  0  0  0
  144.0686  134.2098  150.6814 N   0  0  0  0  0  0  0  0  0  0  0  0
  143.3260  134.7051  151.6970 N   0  0  0  0  0  0  0  0  0  0  0  0
  144.0035  135.6139  152.4795 C   0  0  0  0  0  0  0  0  0  0  0  0
  142.3685  134.4170  151.8412 H   0  0  0  0  0  0  0  0  0  0  0  0
  148.3421  137.6231  152.7853 H   0  0  0  0  0  0  0  0  0  0  0  0
  147.6751  139.0750  155.0309 H   0  0  0  0  0  0  0  0  0  0  0  0
  148.9657  139.5266  153.9523 H   0  0  0  0  0  0  0  0  0  0  0  0
  146.0919  140.5059  154.0633 H   0  0  0  0  0  0  0  0  0  0  0  0
  147.6397  140.1704  151.7291 H   0  0  0  0  0  0  0  0  0  0  0  0
  148.5735  141.9890  153.0337 H   0  0  0  0  0  0  0  0  0  0  0  0
  147.0810  142.6629  153.6312 H   0  0  0  0  0  0  0  0  0  0  0  0
  149.7193  140.3001  154.9623 H   0  0  0  0  0  0  0  0  0  0  0  0
  150.3773  141.8308  154.4168 H   0  0  0  0  0  0  0  0  0  0  0  0
  151.4007  141.1470  156.5840 H   0  0  0  0  0  0  0  0  0  0  0  0
  150.5543  142.6699  156.7197 H   0  0  0  0  0  0  0  0  0  0  0  0
  149.5034  139.9366  157.6019 H   0  0  0  0  0  0  0  0  0  0  0  0
  149.9814  141.2495  158.6558 H   0  0  0  0  0  0  0  0  0  0  0  0
  147.4885  141.1491  158.3594 H   0  0  0  0  0  0  0  0  0  0  0  0
  148.1479  142.6711  157.8085 H   0  0  0  0  0  0  0  0  0  0  0  0
  146.5270  141.8183  156.1684 H   0  0  0  0  0  0  0  0  0  0  0  0
  147.3817  140.2974  156.0294 H   0  0  0  0  0  0  0  0  0  0  0  0
  147.2572  136.1880  151.9690 H   0  0  0  0  0  0  0  0  0  0  0  0
  146.0342  134.5867  150.1133 H   0  0  0  0  0  0  0  0  0  0  0  0
  143.5466  136.0983  153.3298 H   0  0  0  0  0  0  0  0  0  0  0  0
  148.4852  142.9224  155.3308 H   0  0  0  0  0  0  0  0  0  0  0  0
  1  2  2  0  0  0  0
  2  3  1  0  0  0  0
  2 14  1  0  0  0  0
  3  4  1  0  0  0  0
  3 21  1  0  0  0  0
  4  5  1  0  0  0  0
  4 22  1  0  0  0  0
  4 23  1  0  0  0  0
  5  6  1  0  0  0  0
  5  7  1  0  0  0  0
  5 24  1  0  0  0  0
  6 25  1  0  0  0  0
  7  8  1  0  0  0  0
  7 26  1  0  0  0  0
  7 27  1  0  0  0  0
  8 13  1  0  0  0  0
  8  9  1  0  0  0  0
  8 41  1  0  0  0  0
  9 10  1  0  0  0  0
  9 28  1  0  0  0  0
  9 29  1  0  0  0  0
 10 11  1  0  0  0  0
 10 30  1  0  0  0  0
 10 31  1  0  0  0  0
 11 12  1  0  0  0  0
 11 32  1  0  0  0  0
 11 33  1  0  0  0  0
 12 13  1  0  0  0  0
 12 34  1  0  0  0  0
 12 35  1  0  0  0  0
 13 36  1  0  0  0  0
 13 37  1  0  0  0  0
 14 15  1  0  0  0  0
 14 38  1  0  0  0  0
 15 19  2  0  0  0  0
 15 16  1  0  0  0  0
 16 17  2  0  0  0  0
 16 39  1  0  0  0  0
 17 18  1  0  0  0  0
 18 20  1  0  0  0  0
 18 19  1  0  0  0  0
 19 40  1  0  0  0  0
M  CHG  1   8   1
M  END
> <s_m_source_file>
AV-unprocessed.smi

> <i_m_source_file_index>
1582

> <i_lp_mmshare_version>
43012

> <i_f3d_flags>
0

> <s_epik_input>
W2NIXTFbbkhdbltjSF1jMVtOSF1DKD1PKVtOSF1bQ0gyXVtDQEhdKFtPSF0pW0NIMl1OMltDSDJdW0NIMl1bQ0gyXVtDSDJdW0NIMl0y

> <s_epik_cmdline>
J2VwaWtfcHl0aG9uJywgJy1waCcsICc3LjAnLCAnLXRuJywgJzgnLCAnLW1hJywgJzIwMCcsICctbWV0YWxfYmluZGluZycsICctaW1hZScsICc8aW5maWxlLm1hZT4nLCAnLW9tYWUnLCAnPG91dGZpbGUubWFlPic=

> <r_lp_tautomer_probability>
0.5

> <r_epik_Ionization_Penalty>
0.00519658

> <r_epik_Ionization_Penalty_Charging>
0.00515354

> <r_epik_Ionization_Penalty_Neutral>
4.30332e-05

> <r_epik_State_Penalty>
0.00375424

> <r_epik_Charging_Adjusted_Penalty>
0.00890779

> <i_epik_Tot_Q>
1

> <i_epik_Tot_abs_Q>
1

> <r_epik_Metal_State_Penalty>
-0

> <b_epik_Metal_Only>
0

> <s_lp_Force_Field>
OPLS_2005

> <r_lp_Energy>
21.997

> <b_lp_Chiralities_Consistent>
1

> <s_lp_Variant>
AV-unprocessed.smi:1582-1

> <Gold.Version>
5.8.1

> <Gold.Id.Protein>
6NUR|6NUR_protein|mol2

> <Gold.PLP.Fitness>
45.0928

> <Gold.PLP.PLP>
-28.6204

> <Gold.PLP.part.hbond>
-5.2461

> <Gold.PLP.part.metal>
0.0000

> <Gold.PLP.part.buried>
-5.1641

> <Gold.PLP.part.nonpolar>
-18.4989

> <Gold.PLP.part.repulsive>
0.8299

> <Gold.PLP.ligand.clash>
0.0000

> <Gold.PLP.ligand.torsion>
0.7766

> <Gold.PLP.Chemscore.Hbond>
4.9920

> <Gold.PLP.Chemscore.CHOScore>
1.0000

> <Gold.PLP.Chemscore.Metal>
0.0000

> <Gold.Chemscore.Hbonds>
donor molecule, donor type, donor heavy atom, donor atom, acceptor molecule, acceptor atom, score
      L1  H     3    21       P1  7948  1.00
      L1  H     6    25       P1  7957  1.00
      L1  H     8    41       P1  8028  2.00
      L1  H    14    38       P1  7948  1.00
      L1  C    16    39       P1  7921  1.00

> <Gold.PLP.Chemscore.Internal.Correction>
0.0497

> <Gold.Rescore>
     Score         DG    S(hbond)    S(metal)    S(lipo)     H(rot)  DE(clash)    DE(int)     intcor
     16.40     -18.13       3.94        0.00      52.35       2.59       0.22       1.52       ----

> <Gold.Chemscore.Fitness>
16.3958

> <Gold.Chemscore.DG>
-18.1343

> <Gold.Chemscore.ZeroCoef>
-5.4800

> <Gold.Chemscore.Hbond>
3.9381

> <Gold.Chemscore.Metal>
0.0000

> <Gold.Chemscore.Lipo>
52.3540

> <Gold.Chemscore.Internal_Hbond>
0.0000

> <Gold.Chemscore.DEClash>
0.2213

> <Gold.Chemscore.DEInternal>
1.5173

> <Gold.Chemscore.Rot>
2.5876

> <Gold.Chemscore.Internal.Correction>
   9.000000E+99

> <Gold.Chemscore.Hbonds>
donor molecule, donor type, donor heavy atom, donor atom, acceptor molecule, acceptor atom, score
      L1  H     3    21       P1  7948  0.95
      L1  H     6    25       P1  7957  0.94
      L1  H     8    41       P1  8028  1.00
      L1  H    14    38       P1  7948  0.98

> <Gold.Chemscore.Hbond.Weighted>
-13.1531

> <Gold.Chemscore.Metal.Weighted>
-0.0000

> <Gold.Chemscore.Lipo.Weighted>
-6.1254

> <Gold.Chemscore.Internal_Hbond.Weighted>
0.0000

> <Gold.Chemscore.DEClash.Weighted>
0.2213

> <Gold.Chemscore.DEInternal.Weighted>
1.5173

> <Gold.Chemscore.Rot.Weighted>
6.6242

> <Gold.Chemscore.Internal.Correction.Weighted>
   9.000000E+99

> <Gold.Protein.RotatedTorsions>
[ 6907 6896 6895 6894 ] final   81.99 input  -60.11 | X-H torsion
[ 7974 7965 7964 7962 ] final  118.14 input  175.53 | X-H torsion
[ 8008 7997 7996 7995 ] final  -94.66 input   59.86 | X-H torsion
[ 10167 10162 10161 10158 ] final   71.20 input  -65.29 | X-H torsion
[ 10718 10713 10712 10709 ] final  118.18 input   66.30 | X-H torsion
[ 10763 10752 10751 10750 ] final  157.66 input  -60.55 | X-H torsion
[ 11005 11000 10999 10996 ] final  176.01 input  -57.11 | X-H torsion

> <Gold.Protein.ActiveResidues>
 VAL166  LYS551  ARG553  GLY616  TRP617  ASP618  TYR619  PRO620  LYS621  CYS622 
 ASP623  PHE694  ASN695  SER759  ASP760  ASP761  ALA762  ILE779  LEU786  VAL792 
 PHE793  MET794  SER795  GLU796  ALA797  LYS798  CYS799  TRP800  GLU811  SER814 

> <Gold.Protein.RotatedAtoms>
  152.5285  134.3119  159.9116 H   0  0  0  0  0  0  0  0  0  0  0  0  # atno 6907 bound_to 6896
  151.3068  133.4091  159.2651 H   0  0  0  0  0  0  0  0  0  0  0  0  # atno 6908 bound_to 6896
  151.0072  134.9385  159.8044 H   0  0  0  0  0  0  0  0  0  0  0  0  # atno 6909 bound_to 6896
  145.1589  139.3167  143.4528 H   0  0  0  0  0  0  0  0  0  0  0  0  # atno 7974 bound_to 7965
  154.7513  140.0487  157.0896 H   0  0  0  0  0  0  0  0  0  0  0  0  # atno 8008 bound_to 7997
  155.0053  140.3129  155.4831 H   0  0  0  0  0  0  0  0  0  0  0  0  # atno 8009 bound_to 7997
  156.2886  140.2194  156.5165 H   0  0  0  0  0  0  0  0  0  0  0  0  # atno 8010 bound_to 7997
  140.0487  144.5329  150.7379 H   0  0  0  0  0  0  0  0  0  0  0  0  # atno 10167 bound_to 10162
  157.6047  131.1045  150.7720 H   0  0  0  0  0  0  0  0  0  0  0  0  # atno 10718 bound_to 10713
  154.2037  135.2789  155.2982 H   0  0  0  0  0  0  0  0  0  0  0  0  # atno 10763 bound_to 10752
  154.5834  135.5582  153.7210 H   0  0  0  0  0  0  0  0  0  0  0  0  # atno 10764 bound_to 10752
  153.0081  135.6350  154.2176 H   0  0  0  0  0  0  0  0  0  0  0  0  # atno 10765 bound_to 10752
  140.3685  134.7051  157.4377 H   0  0  0  0  0  0  0  0  0  0  0  0  # atno 11005 bound_to 11000
  146.3485  140.1691  142.8590 LP  0  0  0  0  0  0  0  0  0  0  0  0  # atno 17320 bound_to 7965
  145.0352  140.8902  143.5085 LP  0  0  0  0  0  0  0  0  0  0  0  0  # atno 17321 bound_to 7965
  140.7227  143.2604  151.4226 LP  0  0  0  0  0  0  0  0  0  0  0  0  # atno 17342 bound_to 10162
  139.5967  144.1383  152.2151 LP  0  0  0  0  0  0  0  0  0  0  0  0  # atno 17343 bound_to 10162
  156.8110  130.4952  149.5356 LP  0  0  0  0  0  0  0  0  0  0  0  0  # atno 17370 bound_to 10713
  156.1130  130.6054  151.0077 LP  0  0  0  0  0  0  0  0  0  0  0  0  # atno 17371 bound_to 10713
  140.0570  134.6049  155.8793 LP  0  0  0  0  0  0  0  0  0  0  0  0  # atno 17394 bound_to 11000
  141.1962  133.6590  156.5680 LP  0  0  0  0  0  0  0  0  0  0  0  0  # atno 17395 bound_to 11000

$$$$
