AV-unprocessed.smi:2559|AV-procd|sdf|10034|dock8
  -GOLD-   2272014 83D 1   1.00000     0.00000
 Structure written by MMmdl.
 44 46  0  0  0  0  0  0  0  0  1 V2000
  154.3804  137.7314  158.4262 C   0  0  0  0  0  0  0  0  0  0  0  0
  153.5243  138.2543  157.3594 N   0  0  0  0  0  0  0  0  0  0  0  0
  153.3835  137.5535  156.1894 C   0  0  0  0  0  0  0  0  0  0  0  0
  153.9611  136.4852  155.9884 O   0  0  0  0  0  0  0  0  0  0  0  0
  152.5658  138.0806  155.2285 N   0  0  0  0  0  0  0  0  0  0  0  0
  151.8637  139.2382  155.2872 C   0  0  0  0  0  0  0  0  0  0  0  0
  151.1358  139.6284  154.3777 O   0  0  0  0  0  0  0  0  0  0  0  0
  152.0602  139.9707  156.5478 C   0  0  0  0  0  0  0  0  0  0  0  0
  152.8496  139.4948  157.5448 C   0  0  0  0  0  0  0  0  0  0  0  0
  152.8396  140.3511  158.6343 N   0  0  0  0  0  0  0  0  0  0  0  0
  152.0423  141.3444  158.2328 C   0  0  0  0  0  0  0  0  0  0  0  0
  151.7341  142.4438  159.0361 N   0  0  0  0  0  0  0  0  0  0  0  0
  152.5631  142.9785  160.1173 C   0  0  0  0  0  0  0  0  0  0  0  0
  152.7370  144.5028  159.9999 C   0  0  0  0  0  0  0  0  0  0  0  0
  151.3695  145.1991  160.0056 C   0  0  0  0  0  0  0  0  0  0  0  0
  150.4543  144.5675  158.9474 C   0  0  0  0  0  0  0  0  0  0  0  0
  150.4002  143.0381  159.1138 C   0  0  0  0  0  0  0  0  0  0  0  0
  151.5137  141.1798  156.9886 N   0  0  0  0  0  0  0  0  0  0  0  0
  150.5506  142.0329  156.2919 C   0  0  0  0  0  0  0  0  0  0  0  0
  149.2762  141.2642  155.8841 C   0  0  2  0  0  0  0  0  0  0  0  0
  148.5425  141.9669  154.9000 O   0  0  0  0  0  0  0  0  0  0  0  0
  148.3512  140.9166  157.0654 C   0  0  0  0  0  0  0  0  0  0  0  0
  147.8960  142.0754  157.7345 O   0  0  0  0  0  0  0  0  0  0  0  0
  152.4716  137.5436  154.3788 H   0  0  0  0  0  0  0  0  0  0  0  0
  154.0663  136.7271  158.7152 H   0  0  0  0  0  0  0  0  0  0  0  0
  154.3562  138.3479  159.3245 H   0  0  0  0  0  0  0  0  0  0  0  0
  155.4173  137.6804  158.0910 H   0  0  0  0  0  0  0  0  0  0  0  0
  152.0902  142.7368  161.0702 H   0  0  0  0  0  0  0  0  0  0  0  0
  153.5308  142.4789  160.1393 H   0  0  0  0  0  0  0  0  0  0  0  0
  153.3487  144.8745  160.8222 H   0  0  0  0  0  0  0  0  0  0  0  0
  153.2704  144.7471  159.0813 H   0  0  0  0  0  0  0  0  0  0  0  0
  150.9123  145.0965  160.9906 H   0  0  0  0  0  0  0  0  0  0  0  0
  151.4842  146.2679  159.8226 H   0  0  0  0  0  0  0  0  0  0  0  0
  149.4512  144.9882  159.0219 H   0  0  0  0  0  0  0  0  0  0  0  0
  150.8210  144.8141  157.9502 H   0  0  0  0  0  0  0  0  0  0  0  0
  149.7651  142.6117  158.3366 H   0  0  0  0  0  0  0  0  0  0  0  0
  149.9422  142.7750  160.0681 H   0  0  0  0  0  0  0  0  0  0  0  0
  150.2870  142.8761  156.9234 H   0  0  0  0  0  0  0  0  0  0  0  0
  151.0238  142.4857  155.4238 H   0  0  0  0  0  0  0  0  0  0  0  0
  149.5764  140.3244  155.4204 H   0  0  0  0  0  0  0  0  0  0  0  0
  148.2601  142.7904  155.2671 H   0  0  0  0  0  0  0  0  0  0  0  0
  147.4944  140.3329  156.7269 H   0  0  0  0  0  0  0  0  0  0  0  0
  148.8872  140.3002  157.7874 H   0  0  0  0  0  0  0  0  0  0  0  0
  148.2536  142.8341  157.2990 H   0  0  0  0  0  0  0  0  0  0  0  0
  1  2  1  0  0  0  0
  1 25  1  0  0  0  0
  1 26  1  0  0  0  0
  1 27  1  0  0  0  0
  2  9  1  0  0  0  0
  2  3  1  0  0  0  0
  3  4  2  0  0  0  0
  3  5  1  0  0  0  0
  5 24  1  0  0  0  0
  5  6  1  0  0  0  0
  6  7  2  0  0  0  0
  6  8  1  0  0  0  0
  8 18  1  0  0  0  0
  8  9  2  0  0  0  0
  9 10  1  0  0  0  0
 10 11  2  0  0  0  0
 11 12  1  0  0  0  0
 11 18  1  0  0  0  0
 12 17  1  0  0  0  0
 12 13  1  0  0  0  0
 13 14  1  0  0  0  0
 13 28  1  0  0  0  0
 13 29  1  0  0  0  0
 14 15  1  0  0  0  0
 14 30  1  0  0  0  0
 14 31  1  0  0  0  0
 15 16  1  0  0  0  0
 15 32  1  0  0  0  0
 15 33  1  0  0  0  0
 16 17  1  0  0  0  0
 16 34  1  0  0  0  0
 16 35  1  0  0  0  0
 17 36  1  0  0  0  0
 17 37  1  0  0  0  0
 18 19  1  0  0  0  0
 19 20  1  0  0  0  0
 19 38  1  0  0  0  0
 19 39  1  0  0  0  0
 20 21  1  0  0  0  0
 20 22  1  0  0  0  0
 20 40  1  0  0  0  0
 21 41  1  0  0  0  0
 22 23  1  0  0  0  0
 22 42  1  0  0  0  0
 22 43  1  0  0  0  0
 23 44  1  0  0  0  0
M  END
> <s_m_source_file>
AV-unprocessed.smi

> <i_m_source_file_index>
2559

> <i_lp_mmshare_version>
43012

> <i_f3d_flags>
0

> <s_epik_input>
Tz1jMVtuSF1jKD1PKW4oW0NIM10pYyhjMTIpbmMobjJbQ0gyXVtDQEhdKFtPSF0pW0NIMl1bT0hdKU4zW0NIMl1bQ0gyXVtDSDJdW0NIMl1bQ0gyXTM=

> <s_epik_cmdline>
J2VwaWtfcHl0aG9uJywgJy1waCcsICc3LjAnLCAnLXRuJywgJzgnLCAnLW1hJywgJzIwMCcsICctbWV0YWxfYmluZGluZycsICctaW1hZScsICc8aW5maWxlLm1hZT4nLCAnLW9tYWUnLCAnPG91dGZpbGUubWFlPic=

> <r_lp_tautomer_probability>
1

> <r_epik_Ionization_Penalty>
0.0023969

> <r_epik_Ionization_Penalty_Charging>
9.35512e-05

> <r_epik_Ionization_Penalty_Neutral>
0.00230335

> <r_epik_State_Penalty>
-0

> <r_epik_Charging_Adjusted_Penalty>
9.35512e-05

> <i_epik_Tot_Q>
0

> <i_epik_Tot_abs_Q>
0

> <r_epik_Metal_State_Penalty>
0.0757518

> <b_epik_Metal_Only>
0

> <s_lp_Force_Field>
OPLS_2005

> <r_lp_Energy>
44.2112

> <b_lp_Chiralities_Consistent>
1

> <s_lp_Variant>
AV-unprocessed.smi:2559-1

> <Gold.Version>
5.8.1

> <Gold.Id.Protein>
6NUR|6NUR_protein|mol2

> <Gold.PLP.Fitness>
51.3691

> <Gold.PLP.PLP>
-39.4998

> <Gold.PLP.part.hbond>
-5.0000

> <Gold.PLP.part.metal>
0.0000

> <Gold.PLP.part.buried>
-6.3206

> <Gold.PLP.part.nonpolar>
-27.6356

> <Gold.PLP.part.repulsive>
0.2577

> <Gold.PLP.ligand.clash>
0.0205

> <Gold.PLP.ligand.torsion>
0.5695

> <Gold.PLP.Chemscore.Hbond>
4.1680

> <Gold.PLP.Chemscore.CHOScore>
0.0000

> <Gold.PLP.Chemscore.Metal>
0.0000

> <Gold.Chemscore.Hbonds>
donor molecule, donor type, donor heavy atom, donor atom, acceptor molecule, acceptor atom, score
      L1  H    21    41       P1  8028  0.83
      P1  H  7989  7998       L1     7  1.00
      P1  H 10752 10763       L1     4  0.19

> <Gold.PLP.Chemscore.Internal.Correction>
0.5250

> <Gold.Rescore>
     Score         DG    S(hbond)    S(metal)    S(lipo)     H(rot)  DE(clash)    DE(int)     intcor
     15.33     -17.22       2.93        0.00      81.69       2.97       0.73       1.16       ----

> <Gold.Chemscore.Fitness>
15.3336

> <Gold.Chemscore.DG>
-17.2224

> <Gold.Chemscore.ZeroCoef>
-5.4800

> <Gold.Chemscore.Hbond>
2.9294

> <Gold.Chemscore.Metal>
0.0000

> <Gold.Chemscore.Lipo>
81.6900

> <Gold.Chemscore.Internal_Hbond>
0.0000

> <Gold.Chemscore.DEClash>
0.7312

> <Gold.Chemscore.DEInternal>
1.1577

> <Gold.Chemscore.Rot>
2.9685

> <Gold.Chemscore.Internal.Correction>
   9.000000E+99

> <Gold.Chemscore.Hbonds>
donor molecule, donor type, donor heavy atom, donor atom, acceptor molecule, acceptor atom, score
      L1  H    21    41       P1  8028  0.78
      P1  H  7989  7998       L1     7  0.94
      P1  H 10752 10763       L1     4  0.20

> <Gold.Chemscore.Hbond.Weighted>
-9.7841

> <Gold.Chemscore.Metal.Weighted>
-0.0000

> <Gold.Chemscore.Lipo.Weighted>
-9.5577

> <Gold.Chemscore.Internal_Hbond.Weighted>
0.0000

> <Gold.Chemscore.DEClash.Weighted>
0.7312

> <Gold.Chemscore.DEInternal.Weighted>
1.1577

> <Gold.Chemscore.Rot.Weighted>
7.5994

> <Gold.Chemscore.Internal.Correction.Weighted>
   9.000000E+99

> <Gold.Protein.RotatedTorsions>
[ 6907 6896 6895 6894 ] final   62.95 input  -60.11 | X-H torsion
[ 7974 7965 7964 7962 ] final   43.07 input  175.53 | X-H torsion
[ 8008 7997 7996 7995 ] final   75.08 input   59.86 | X-H torsion
[ 10167 10162 10161 10158 ] final  -47.54 input  -65.29 | X-H torsion
[ 10718 10713 10712 10709 ] final -173.06 input   66.30 | X-H torsion
[ 10763 10752 10751 10750 ] final  104.13 input  -60.55 | X-H torsion
[ 11005 11000 10999 10996 ] final   21.57 input  -57.11 | X-H torsion

> <Gold.Protein.ActiveResidues>
 VAL166  LYS551  ARG553  GLY616  TRP617  ASP618  TYR619  PRO620  LYS621  CYS622 
 ASP623  PHE694  ASN695  SER759  ASP760  ASP761  ALA762  ILE779  LEU786  VAL792 
 PHE793  MET794  SER795  GLU796  ALA797  LYS798  CYS799  TRP800  GLU811  SER814 

> <Gold.Protein.RotatedAtoms>
  152.4214  134.5948  159.9983 H   0  0  0  0  0  0  0  0  0  0  0  0  # atno 6907 bound_to 6896
  151.6097  133.3343  159.3073 H   0  0  0  0  0  0  0  0  0  0  0  0  # atno 6908 bound_to 6896
  150.8102  134.7290  159.6747 H   0  0  0  0  0  0  0  0  0  0  0  0  # atno 6909 bound_to 6896
  146.0687  139.5228  142.9612 H   0  0  0  0  0  0  0  0  0  0  0  0  # atno 7974 bound_to 7965
  155.8077  140.3474  155.5439 H   0  0  0  0  0  0  0  0  0  0  0  0  # atno 8008 bound_to 7997
  155.8473  140.0951  157.1717 H   0  0  0  0  0  0  0  0  0  0  0  0  # atno 8009 bound_to 7997
  154.4006  140.1383  156.3788 H   0  0  0  0  0  0  0  0  0  0  0  0  # atno 8010 bound_to 7997
  140.6770  143.2780  151.3942 H   0  0  0  0  0  0  0  0  0  0  0  0  # atno 10167 bound_to 10162
  156.7647  130.9426  151.3119 H   0  0  0  0  0  0  0  0  0  0  0  0  # atno 10718 bound_to 10713
  153.3619  135.3953  155.1724 H   0  0  0  0  0  0  0  0  0  0  0  0  # atno 10763 bound_to 10752
  154.8680  135.3681  154.5088 H   0  0  0  0  0  0  0  0  0  0  0  0  # atno 10764 bound_to 10752
  153.5548  135.7082  153.5634 H   0  0  0  0  0  0  0  0  0  0  0  0  # atno 10765 bound_to 10752
  140.3901  134.1828  155.7662 H   0  0  0  0  0  0  0  0  0  0  0  0  # atno 11005 bound_to 11000
  145.6431  141.0280  143.1801 LP  0  0  0  0  0  0  0  0  0  0  0  0  # atno 17320 bound_to 7965
  144.7218  139.8005  143.7379 LP  0  0  0  0  0  0  0  0  0  0  0  0  # atno 17321 bound_to 7965
  139.6069  144.1179  152.2258 LP  0  0  0  0  0  0  0  0  0  0  0  0  # atno 17342 bound_to 10162
  140.0580  144.5879  150.7284 LP  0  0  0  0  0  0  0  0  0  0  0  0  # atno 17343 bound_to 10162
  157.6718  130.9058  150.0059 LP  0  0  0  0  0  0  0  0  0  0  0  0  # atno 17370 bound_to 10713
  156.1316  130.3643  149.9722 LP  0  0  0  0  0  0  0  0  0  0  0  0  # atno 17371 bound_to 10713
  141.1893  133.8240  157.0960 LP  0  0  0  0  0  0  0  0  0  0  0  0  # atno 17394 bound_to 11000
  140.0413  134.9853  157.0966 LP  0  0  0  0  0  0  0  0  0  0  0  0  # atno 17395 bound_to 11000

$$$$
