AV-unprocessed.smi:2279|AV-procd|sdf|9185|dock3
  -GOLD-   2272012403D 1   1.00000     0.00000
 Structure written by MMmdl.
 58 60  0  0  0  0  0  0  0  0  3 V2000
  154.1882  141.1938  160.3386 C   0  0  0  0  0  0  0  0  0  0  0  0
  153.1850  141.7405  159.3449 C   0  0  0  0  0  0  0  0  0  0  0  0
  152.9175  143.1210  159.2705 C   0  0  0  0  0  0  0  0  0  0  0  0
  151.9724  143.5646  158.3247 C   0  0  0  0  0  0  0  0  0  0  0  0
  151.6333  145.0345  158.1923 C   0  0  0  0  0  0  0  0  0  0  0  0
  151.3160  142.7291  157.4914 N   0  0  0  0  0  0  0  0  0  0  0  0
  151.5670  141.3980  157.5539 C   0  0  0  0  0  0  0  0  0  0  0  0
  150.9350  140.4368  156.7213 N   0  0  0  0  0  0  0  0  0  0  0  0
  149.6527  140.4027  156.3184 C   0  0  0  0  0  0  0  0  0  0  0  0
  148.7854  141.2212  156.6251 O   0  0  0  0  0  0  0  0  0  0  0  0
  149.4213  139.3490  155.5214 N   0  0  0  0  0  0  0  0  0  0  0  0
  148.1314  139.0215  154.9212 C   0  0  2  0  0  0  0  0  0  0  0  0
  147.7937  137.5477  155.1748 C   0  0  0  0  0  0  0  0  0  0  0  0
  146.4779  137.1428  154.4879 C   0  0  0  0  0  0  0  0  0  0  0  0
  146.5077  137.4125  153.0194 N   0  3  1  0  0  0  0  0  0  0  0  0
  145.2949  136.9458  152.2639 C   0  0  2  0  0  0  0  0  0  0  0  0
  144.2363  136.1976  153.1132 C   0  0  0  0  0  0  0  0  0  0  0  0
  144.7378  134.8208  153.5887 C   0  0  0  0  0  0  0  0  0  0  0  0
  145.1317  133.9721  152.4371 N   0  3  2  0  0  0  0  0  0  0  0  0
  145.5370  132.6116  152.8516 C   0  0  0  0  0  0  0  0  0  0  0  0
  146.1484  134.6290  151.5785 C   0  0  0  0  0  0  0  0  0  0  0  0
  145.6580  136.0046  151.0888 C   0  0  0  0  0  0  0  0  0  0  0  0
  146.8159  138.8505  152.7651 C   0  0  0  0  0  0  0  0  0  0  0  0
  148.1469  139.2735  153.4058 C   0  0  0  0  0  0  0  0  0  0  0  0
  152.4998  140.8699  158.4742 C   0  0  0  0  0  0  0  0  0  0  0  0
  154.6443  141.9935  160.9229 H   0  0  0  0  0  0  0  0  0  0  0  0
  154.9812  140.6570  159.8171 H   0  0  0  0  0  0  0  0  0  0  0  0
  153.6995  140.5037  161.0268 H   0  0  0  0  0  0  0  0  0  0  0  0
  153.4221  143.8209  159.9204 H   0  0  0  0  0  0  0  0  0  0  0  0
  152.2977  145.6498  158.7993 H   0  0  0  0  0  0  0  0  0  0  0  0
  150.6086  145.2167  158.5172 H   0  0  0  0  0  0  0  0  0  0  0  0
  151.7276  145.3563  157.1546 H   0  0  0  0  0  0  0  0  0  0  0  0
  151.5306  139.6921  156.3915 H   0  0  0  0  0  0  0  0  0  0  0  0
  150.1913  138.7273  155.3216 H   0  0  0  0  0  0  0  0  0  0  0  0
  147.3574  139.6391  155.3817 H   0  0  0  0  0  0  0  0  0  0  0  0
  148.6021  136.9134  154.8072 H   0  0  0  0  0  0  0  0  0  0  0  0
  147.7195  137.3615  156.2472 H   0  0  0  0  0  0  0  0  0  0  0  0
  146.3427  136.0821  154.6895 H   0  0  0  0  0  0  0  0  0  0  0  0
  145.6353  137.6686  154.9402 H   0  0  0  0  0  0  0  0  0  0  0  0
  144.8112  137.8366  151.8596 H   0  0  0  0  0  0  0  0  0  0  0  0
  143.8767  136.7962  153.9492 H   0  0  0  0  0  0  0  0  0  0  0  0
  143.3492  136.0408  152.4976 H   0  0  0  0  0  0  0  0  0  0  0  0
  145.5846  134.9338  154.2669 H   0  0  0  0  0  0  0  0  0  0  0  0
  143.9479  134.3214  154.1512 H   0  0  0  0  0  0  0  0  0  0  0  0
  146.4335  132.6408  153.4725 H   0  0  0  0  0  0  0  0  0  0  0  0
  145.7446  131.9894  151.9803 H   0  0  0  0  0  0  0  0  0  0  0  0
  144.7416  132.1295  153.4213 H   0  0  0  0  0  0  0  0  0  0  0  0
  147.0849  134.7339  152.1285 H   0  0  0  0  0  0  0  0  0  0  0  0
  146.3579  133.9919  150.7182 H   0  0  0  0  0  0  0  0  0  0  0  0
  144.7702  135.8555  150.4723 H   0  0  0  0  0  0  0  0  0  0  0  0
  146.3914  136.4413  150.4146 H   0  0  0  0  0  0  0  0  0  0  0  0
  146.8836  139.0610  151.7003 H   0  0  0  0  0  0  0  0  0  0  0  0
  146.0051  139.4701  153.1522 H   0  0  0  0  0  0  0  0  0  0  0  0
  148.3284  140.3293  153.2005 H   0  0  0  0  0  0  0  0  0  0  0  0
  148.9673  138.7234  152.9425 H   0  0  0  0  0  0  0  0  0  0  0  0
  152.6905  139.8071  158.5144 H   0  0  0  0  0  0  0  0  0  0  0  0
  147.2885  136.8824  152.6603 H   0  0  0  0  0  0  0  0  0  0  0  0
  144.3045  133.8593  151.8678 H   0  0  0  0  0  0  0  0  0  0  0  0
  1  2  1  0  0  0  0
  1 26  1  0  0  0  0
  1 27  1  0  0  0  0
  1 28  1  0  0  0  0
  2 25  1  0  0  0  0
  2  3  2  0  0  0  0
  3  4  1  0  0  0  0
  3 29  1  0  0  0  0
  4  5  1  0  0  0  0
  4  6  2  0  0  0  0
  5 30  1  0  0  0  0
  5 31  1  0  0  0  0
  5 32  1  0  0  0  0
  6  7  1  0  0  0  0
  7  8  1  0  0  0  0
  7 25  2  0  0  0  0
  8  9  1  0  0  0  0
  8 33  1  0  0  0  0
  9 10  2  0  0  0  0
  9 11  1  0  0  0  0
 11 12  1  0  0  0  0
 11 34  1  0  0  0  0
 12 24  1  0  0  0  0
 12 13  1  0  0  0  0
 12 35  1  0  0  0  0
 13 14  1  0  0  0  0
 13 36  1  0  0  0  0
 13 37  1  0  0  0  0
 14 15  1  0  0  0  0
 14 38  1  0  0  0  0
 14 39  1  0  0  0  0
 15 16  1  0  0  0  0
 15 23  1  0  0  0  0
 15 57  1  0  0  0  0
 16 22  1  0  0  0  0
 16 17  1  0  0  0  0
 16 40  1  0  0  0  0
 17 18  1  0  0  0  0
 17 41  1  0  0  0  0
 17 42  1  0  0  0  0
 18 19  1  0  0  0  0
 18 43  1  0  0  0  0
 18 44  1  0  0  0  0
 19 20  1  0  0  0  0
 19 21  1  0  0  0  0
 19 58  1  0  0  0  0
 20 45  1  0  0  0  0
 20 46  1  0  0  0  0
 20 47  1  0  0  0  0
 21 22  1  0  0  0  0
 21 48  1  0  0  0  0
 21 49  1  0  0  0  0
 22 50  1  0  0  0  0
 22 51  1  0  0  0  0
 23 24  1  0  0  0  0
 23 52  1  0  0  0  0
 23 53  1  0  0  0  0
 24 54  1  0  0  0  0
 24 55  1  0  0  0  0
 25 56  1  0  0  0  0
M  CHG  1  15   1
M  CHG  1  19   1
M  END
> <s_m_source_file>
AV-unprocessed.smi

> <i_m_source_file_index>
2279

> <i_lp_mmshare_version>
43012

> <i_f3d_flags>
0

> <s_epik_input>
W0NIM11jMVtjSF1jKFtDSDNdKW5jKFtjSF0xKVtOSF1DKD1PKVtOSF1bQ0hdMltDSDJdW0NIMl1OKFtDSDJdW0NIMl0yKVtDSF0zW0NIMl1bQ0gyXU4oW0NIM10pW0NIMl1bQ0gyXTM=

> <s_epik_cmdline>
J2VwaWtfcHl0aG9uJywgJy1waCcsICc3LjAnLCAnLXRuJywgJzgnLCAnLW1hJywgJzIwMCcsICctbWV0YWxfYmluZGluZycsICctaW1hZScsICc8aW5maWxlLm1hZT4nLCAnLW9tYWUnLCAnPG91dGZpbGUubWFlPic=

> <r_epik_Ionization_Penalty>
0.180973

> <r_epik_Ionization_Penalty_Charging>
0.180787

> <r_epik_Ionization_Penalty_Neutral>
0.000186186

> <r_epik_State_Penalty>
0.153592

> <r_epik_Charging_Adjusted_Penalty>
0.334379

> <i_epik_Tot_Q>
2

> <i_epik_Tot_abs_Q>
2

> <r_epik_Metal_State_Penalty>
0.153604

> <b_epik_Metal_Only>
0

> <s_lp_Force_Field>
OPLS_2005

> <r_lp_Energy>
45.6678

> <b_lp_Chiralities_Consistent>
1

> <s_lp_Variant>
AV-unprocessed.smi:2279-3

> <Gold.Version>
5.8.1

> <Gold.Id.Protein>
6NUR|6NUR_protein|mol2

> <Gold.PLP.Fitness>
39.8120

> <Gold.PLP.PLP>
-37.4434

> <Gold.PLP.part.hbond>
-1.0000

> <Gold.PLP.part.metal>
0.0000

> <Gold.PLP.part.buried>
-3.7599

> <Gold.PLP.part.nonpolar>
-33.3655

> <Gold.PLP.part.repulsive>
0.2550

> <Gold.PLP.ligand.clash>
0.0000

> <Gold.PLP.ligand.torsion>
1.8312

> <Gold.PLP.Chemscore.Hbond>
2.0000

> <Gold.PLP.Chemscore.CHOScore>
0.0000

> <Gold.PLP.Chemscore.Metal>
0.0000

> <Gold.Chemscore.Hbonds>
donor molecule, donor type, donor heavy atom, donor atom, acceptor molecule, acceptor atom, score
      L1  H    15    57       P1  7948  2.00

> <Gold.PLP.Chemscore.Internal.Correction>
0.0310

> <Gold.Rescore>
     Score         DG    S(hbond)    S(metal)    S(lipo)     H(rot)  DE(clash)    DE(int)     intcor
     14.15     -18.85       1.00        0.00     112.36       1.21       1.24       3.46       ----

> <Gold.Chemscore.Fitness>
14.1539

> <Gold.Chemscore.DG>
-18.8540

> <Gold.Chemscore.ZeroCoef>
-5.4800

> <Gold.Chemscore.Hbond>
0.9953

> <Gold.Chemscore.Metal>
0.0000

> <Gold.Chemscore.Lipo>
112.3599

> <Gold.Chemscore.Internal_Hbond>
0.0000

> <Gold.Chemscore.DEClash>
1.2384

> <Gold.Chemscore.DEInternal>
3.4617

> <Gold.Chemscore.Rot>
1.2095

> <Gold.Chemscore.Internal.Correction>
   9.000000E+99

> <Gold.Chemscore.Hbonds>
donor molecule, donor type, donor heavy atom, donor atom, acceptor molecule, acceptor atom, score
      L1  H    15    57       P1  7948  0.99

> <Gold.Chemscore.Hbond.Weighted>
-3.3242

> <Gold.Chemscore.Metal.Weighted>
-0.0000

> <Gold.Chemscore.Lipo.Weighted>
-13.1461

> <Gold.Chemscore.Internal_Hbond.Weighted>
0.0000

> <Gold.Chemscore.DEClash.Weighted>
1.2384

> <Gold.Chemscore.DEInternal.Weighted>
3.4617

> <Gold.Chemscore.Rot.Weighted>
3.0963

> <Gold.Chemscore.Internal.Correction.Weighted>
   9.000000E+99

> <Gold.Protein.RotatedTorsions>
[ 6907 6896 6895 6894 ] final   62.59 input  -60.11 | X-H torsion
[ 7974 7965 7964 7962 ] final   82.09 input  175.53 | X-H torsion
[ 8008 7997 7996 7995 ] final -158.79 input   59.86 | X-H torsion
[ 10167 10162 10161 10158 ] final  136.79 input  -65.29 | X-H torsion
[ 10718 10713 10712 10709 ] final   77.71 input   66.30 | X-H torsion
[ 10763 10752 10751 10750 ] final -176.98 input  -60.55 | X-H torsion
[ 11005 11000 10999 10996 ] final    1.36 input  -57.11 | X-H torsion

> <Gold.Protein.ActiveResidues>
 VAL166  LYS551  ARG553  GLY616  TRP617  ASP618  TYR619  PRO620  LYS621  CYS622 
 ASP623  PHE694  ASN695  SER759  ASP760  ASP761  ALA762  ILE779  LEU786  VAL792 
 PHE793  MET794  SER795  GLU796  ALA797  LYS798  CYS799  TRP800  GLU811  SER814 

> <Gold.Protein.RotatedAtoms>
  152.4185  134.5999  159.9996 H   0  0  0  0  0  0  0  0  0  0  0  0  # atno 6907 bound_to 6896
  151.6155  133.3338  159.3084 H   0  0  0  0  0  0  0  0  0  0  0  0  # atno 6908 bound_to 6896
  150.8073  134.7244  159.6721 H   0  0  0  0  0  0  0  0  0  0  0  0  # atno 6909 bound_to 6896
  145.6296  139.2402  143.2092 H   0  0  0  0  0  0  0  0  0  0  0  0  # atno 7974 bound_to 7965
  155.7529  140.0829  157.2192 H   0  0  0  0  0  0  0  0  0  0  0  0  # atno 8008 bound_to 7997
  154.4010  140.1557  156.2800 H   0  0  0  0  0  0  0  0  0  0  0  0  # atno 8009 bound_to 7997
  155.8913  140.3415  155.5961 H   0  0  0  0  0  0  0  0  0  0  0  0  # atno 8010 bound_to 7997
  139.5167  144.6445  151.5477 H   0  0  0  0  0  0  0  0  0  0  0  0  # atno 10167 bound_to 10162
  157.6720  130.9834  150.1681 H   0  0  0  0  0  0  0  0  0  0  0  0  # atno 10718 bound_to 10713
  154.5657  135.2823  155.0876 H   0  0  0  0  0  0  0  0  0  0  0  0  # atno 10763 bound_to 10752
  154.2268  135.6381  153.5166 H   0  0  0  0  0  0  0  0  0  0  0  0  # atno 10764 bound_to 10752
  153.0042  135.5527  154.6265 H   0  0  0  0  0  0  0  0  0  0  0  0  # atno 10765 bound_to 10752
  140.6163  133.9702  155.8202 H   0  0  0  0  0  0  0  0  0  0  0  0  # atno 11005 bound_to 11000
  146.1367  140.7113  142.9386 LP  0  0  0  0  0  0  0  0  0  0  0  0  # atno 17320 bound_to 7965
  144.7199  140.4337  143.7016 LP  0  0  0  0  0  0  0  0  0  0  0  0  # atno 17321 bound_to 7965
  140.6225  143.9231  150.6538 LP  0  0  0  0  0  0  0  0  0  0  0  0  # atno 17342 bound_to 10162
  140.2509  143.3594  152.1406 LP  0  0  0  0  0  0  0  0  0  0  0  0  # atno 17343 bound_to 10162
  156.2442  130.3694  149.8303 LP  0  0  0  0  0  0  0  0  0  0  0  0  # atno 17370 bound_to 10713
  156.6095  130.8580  151.3451 LP  0  0  0  0  0  0  0  0  0  0  0  0  # atno 17371 bound_to 10713
  141.0773  134.0115  157.3438 LP  0  0  0  0  0  0  0  0  0  0  0  0  # atno 17394 bound_to 11000
  139.9171  135.0198  156.7925 LP  0  0  0  0  0  0  0  0  0  0  0  0  # atno 17395 bound_to 11000

$$$$
