AV-unprocessed.smi:2403|AV-procd|sdf|9509|dock7
  -GOLD-   2272013133D 1   1.00000     0.00000
 Structure written by MMmdl.
 47 49  0  0  0  0  0  0  0  0  1 V2000
  151.4217  145.0110  158.3508 C   0  0  0  0  0  0  0  0  0  0  0  0
  151.8100  143.6181  158.8142 C   0  0  0  0  0  0  0  0  0  0  0  0
  152.8202  143.4576  159.7852 C   0  0  0  0  0  0  0  0  0  0  0  0
  153.1621  142.1546  160.1954 C   0  0  0  0  0  0  0  0  0  0  0  0
  152.5757  141.0455  159.7005 N   0  0  0  0  0  0  0  0  0  0  0  0
  151.6079  141.2012  158.7725 C   0  0  0  0  0  0  0  0  0  0  0  0
  151.1737  142.4639  158.2977 C   0  0  0  0  0  0  0  0  0  0  0  0
  150.1696  142.6104  157.3011 N   0  0  0  0  0  0  0  0  0  0  0  0
  149.2987  141.6848  156.8658 C   0  0  0  0  0  0  0  0  0  0  0  0
  149.2293  140.5280  157.2806 O   0  0  0  0  0  0  0  0  0  0  0  0
  148.4729  142.1962  155.9356 N   0  0  0  0  0  0  0  0  0  0  0  0
  147.3576  141.5234  155.2427 C   0  0  0  0  0  0  0  0  0  0  0  0
  145.9704  141.8326  155.8766 C   0  0  0  0  0  0  0  0  0  0  0  0
  145.2763  140.9136  156.3140 O   0  0  0  0  0  0  0  0  0  0  0  0
  145.5583  143.1104  155.9110 N   0  0  0  0  0  0  0  0  0  0  0  0
  144.2981  143.5692  156.4733 C   0  0  0  0  0  0  0  0  0  0  0  0
  144.0885  145.0639  156.3548 C   0  0  0  0  0  0  0  0  0  0  0  0
  142.7039  145.6328  156.1547 C   0  0  0  0  0  0  0  0  0  0  0  0
  143.7141  145.6942  155.0339 C   0  0  0  0  0  0  0  0  0  0  0  0
  147.3463  142.0032  153.7706 C   0  0  0  0  0  0  0  0  0  0  0  0
  146.9521  140.7944  152.9243 C   0  0  0  0  0  0  0  0  0  0  0  0
  147.6134  139.6215  153.6352 C   0  0  0  0  0  0  0  0  0  0  0  0
  147.6070  139.9866  155.1250 C   0  0  0  0  0  0  0  0  0  0  0  0
  151.9814  145.7778  158.8869 H   0  0  0  0  0  0  0  0  0  0  0  0
  150.3598  145.1881  158.5231 H   0  0  0  0  0  0  0  0  0  0  0  0
  151.6239  145.1272  157.2859 H   0  0  0  0  0  0  0  0  0  0  0  0
  153.3262  144.3122  160.2099 H   0  0  0  0  0  0  0  0  0  0  0  0
  153.9314  141.9993  160.9371 H   0  0  0  0  0  0  0  0  0  0  0  0
  151.1940  140.2802  158.3916 H   0  0  0  0  0  0  0  0  0  0  0  0
  150.0436  143.5462  156.9443 H   0  0  0  0  0  0  0  0  0  0  0  0
  148.6202  143.1614  155.6799 H   0  0  0  0  0  0  0  0  0  0  0  0
  146.1752  143.8156  155.5348 H   0  0  0  0  0  0  0  0  0  0  0  0
  143.4746  143.0459  155.9848 H   0  0  0  0  0  0  0  0  0  0  0  0
  144.2610  143.3034  157.5310 H   0  0  0  0  0  0  0  0  0  0  0  0
  144.7445  145.6486  156.9974 H   0  0  0  0  0  0  0  0  0  0  0  0
  141.8780  144.9322  156.0485 H   0  0  0  0  0  0  0  0  0  0  0  0
  142.4642  146.5626  156.6665 H   0  0  0  0  0  0  0  0  0  0  0  0
  144.1496  146.6635  154.8001 H   0  0  0  0  0  0  0  0  0  0  0  0
  143.5591  145.0348  154.1822 H   0  0  0  0  0  0  0  0  0  0  0  0
  146.6802  142.8497  153.5950 H   0  0  0  0  0  0  0  0  0  0  0  0
  148.3437  142.3275  153.4680 H   0  0  0  0  0  0  0  0  0  0  0  0
  145.8687  140.6701  152.9317 H   0  0  0  0  0  0  0  0  0  0  0  0
  147.2690  140.8876  151.8852 H   0  0  0  0  0  0  0  0  0  0  0  0
  147.1085  138.6760  153.4343 H   0  0  0  0  0  0  0  0  0  0  0  0
  148.6436  139.5236  153.2903 H   0  0  0  0  0  0  0  0  0  0  0  0
  148.5518  139.6745  155.5710 H   0  0  0  0  0  0  0  0  0  0  0  0
  146.8368  139.4105  155.6401 H   0  0  0  0  0  0  0  0  0  0  0  0
  1  2  1  0  0  0  0
  1 24  1  0  0  0  0
  1 25  1  0  0  0  0
  1 26  1  0  0  0  0
  2  7  1  0  0  0  0
  2  3  2  0  0  0  0
  3  4  1  0  0  0  0
  3 27  1  0  0  0  0
  4  5  2  0  0  0  0
  4 28  1  0  0  0  0
  5  6  1  0  0  0  0
  6  7  2  0  0  0  0
  6 29  1  0  0  0  0
  7  8  1  0  0  0  0
  8  9  1  0  0  0  0
  8 30  1  0  0  0  0
  9 10  2  0  0  0  0
  9 11  1  0  0  0  0
 11 12  1  0  0  0  0
 11 31  1  0  0  0  0
 12 23  1  0  0  0  0
 12 13  1  0  0  0  0
 12 20  1  0  0  0  0
 13 14  2  0  0  0  0
 13 15  1  0  0  0  0
 15 16  1  0  0  0  0
 15 32  1  0  0  0  0
 16 17  1  0  0  0  0
 16 33  1  0  0  0  0
 16 34  1  0  0  0  0
 17 19  1  0  0  0  0
 17 18  1  0  0  0  0
 17 35  1  0  0  0  0
 18 19  1  0  0  0  0
 18 36  1  0  0  0  0
 18 37  1  0  0  0  0
 19 38  1  0  0  0  0
 19 39  1  0  0  0  0
 20 21  1  0  0  0  0
 20 40  1  0  0  0  0
 20 41  1  0  0  0  0
 21 22  1  0  0  0  0
 21 42  1  0  0  0  0
 21 43  1  0  0  0  0
 22 23  1  0  0  0  0
 22 44  1  0  0  0  0
 22 45  1  0  0  0  0
 23 46  1  0  0  0  0
 23 47  1  0  0  0  0
M  END
> <s_m_source_file>
AV-unprocessed.smi

> <i_m_source_file_index>
2403

> <i_lp_mmshare_version>
43012

> <i_f3d_flags>
0

> <s_epik_input>
W0NIM11jMVtjSF1bY0hdbltjSF1jMVtOSF1DKD1PKVtOSF1DMihbQ0gyXVtDSDJdW0NIMl1bQ0gyXTIpQyg9TylbTkhdW0NIMl1bQ0hdM1tDSDJdW0NIMl0z

> <s_epik_cmdline>
J2VwaWtfcHl0aG9uJywgJy1waCcsICc3LjAnLCAnLXRuJywgJzgnLCAnLW1hJywgJzIwMCcsICctbWV0YWxfYmluZGluZycsICctaW1hZScsICc8aW5maWxlLm1hZT4nLCAnLW9tYWUnLCAnPG91dGZpbGUubWFlPic=

> <r_epik_Ionization_Penalty>
0.0192934

> <r_epik_Ionization_Penalty_Charging>
0

> <r_epik_Ionization_Penalty_Neutral>
0.0192934

> <r_epik_State_Penalty>
0.0153733

> <r_epik_Charging_Adjusted_Penalty>
0.0153733

> <i_epik_Tot_Q>
0

> <i_epik_Tot_abs_Q>
0

> <r_epik_Metal_State_Penalty>
0.014888

> <b_epik_Metal_Only>
0

> <s_lp_Force_Field>
OPLS_2005

> <r_lp_Energy>
32.7874

> <b_lp_Chiralities_Consistent>
1

> <s_lp_Variant>
AV-unprocessed.smi:2403-1

> <Gold.Version>
5.8.1

> <Gold.Id.Protein>
6NUR|6NUR_protein|mol2

> <Gold.PLP.Fitness>
43.4710

> <Gold.PLP.PLP>
-39.1053

> <Gold.PLP.part.hbond>
-2.0000

> <Gold.PLP.part.metal>
0.0000

> <Gold.PLP.part.buried>
-6.4783

> <Gold.PLP.part.nonpolar>
-30.6859

> <Gold.PLP.part.repulsive>
0.1735

> <Gold.PLP.ligand.clash>
0.0000

> <Gold.PLP.ligand.torsion>
0.8632

> <Gold.PLP.Chemscore.Hbond>
1.8154

> <Gold.PLP.Chemscore.CHOScore>
0.0000

> <Gold.PLP.Chemscore.Metal>
0.0000

> <Gold.Chemscore.Hbonds>
donor molecule, donor type, donor heavy atom, donor atom, acceptor molecule, acceptor atom, score
      L1  H     8    30       P1  8028  0.79
      L1  H    11    31       P1  8028  1.00

> <Gold.PLP.Chemscore.Internal.Correction>
0.6461

> <Gold.Rescore>
     Score         DG    S(hbond)    S(metal)    S(lipo)     H(rot)  DE(clash)    DE(int)     intcor
     16.97     -20.60       1.92        0.00     109.46       1.59       0.05       3.59       ----

> <Gold.Chemscore.Fitness>
16.9652

> <Gold.Chemscore.DG>
-20.6036

> <Gold.Chemscore.ZeroCoef>
-5.4800

> <Gold.Chemscore.Hbond>
1.9154

> <Gold.Chemscore.Metal>
0.0000

> <Gold.Chemscore.Lipo>
109.4613

> <Gold.Chemscore.Internal_Hbond>
0.0000

> <Gold.Chemscore.DEClash>
0.0464

> <Gold.Chemscore.DEInternal>
3.5920

> <Gold.Chemscore.Rot>
1.5941

> <Gold.Chemscore.Internal.Correction>
   9.000000E+99

> <Gold.Chemscore.Hbonds>
donor molecule, donor type, donor heavy atom, donor atom, acceptor molecule, acceptor atom, score
      L1  H     8    30       P1  8028  0.75
      L1  H    11    31       P1  8028  0.97

> <Gold.Chemscore.Hbond.Weighted>
-6.3976

> <Gold.Chemscore.Metal.Weighted>
-0.0000

> <Gold.Chemscore.Lipo.Weighted>
-12.8070

> <Gold.Chemscore.Internal_Hbond.Weighted>
0.0000

> <Gold.Chemscore.DEClash.Weighted>
0.0464

> <Gold.Chemscore.DEInternal.Weighted>
3.5920

> <Gold.Chemscore.Rot.Weighted>
4.0809

> <Gold.Chemscore.Internal.Correction.Weighted>
   9.000000E+99

> <Gold.Protein.RotatedTorsions>
[ 6907 6896 6895 6894 ] final  -17.69 input  -60.11 | X-H torsion
[ 7974 7965 7964 7962 ] final  -23.07 input  175.53 | X-H torsion
[ 8008 7997 7996 7995 ] final   -7.06 input   59.86 | X-H torsion
[ 10167 10162 10161 10158 ] final -132.54 input  -65.29 | X-H torsion
[ 10718 10713 10712 10709 ] final  -93.06 input   66.30 | X-H torsion
[ 10763 10752 10751 10750 ] final  172.84 input  -60.55 | X-H torsion
[ 11005 11000 10999 10996 ] final  156.75 input  -57.11 | X-H torsion

> <Gold.Protein.ActiveResidues>
 VAL166  LYS551  ARG553  GLY616  TRP617  ASP618  TYR619  PRO620  LYS621  CYS622 
 ASP623  PHE694  ASN695  SER759  ASP760  ASP761  ALA762  ILE779  LEU786  VAL792 
 PHE793  MET794  SER795  GLU796  ALA797  LYS798  CYS799  TRP800  GLU811  SER814 

> <Gold.Protein.RotatedAtoms>
  151.2895  135.0737  159.9198 H   0  0  0  0  0  0  0  0  0  0  0  0  # atno 6907 bound_to 6896
  152.5319  133.9947  159.7877 H   0  0  0  0  0  0  0  0  0  0  0  0  # atno 6908 bound_to 6896
  151.0214  133.5822  159.2701 H   0  0  0  0  0  0  0  0  0  0  0  0  # atno 6909 bound_to 6896
  146.1638  140.4565  142.8560 H   0  0  0  0  0  0  0  0  0  0  0  0  # atno 7974 bound_to 7965
  154.5875  140.2417  155.7966 H   0  0  0  0  0  0  0  0  0  0  0  0  # atno 8008 bound_to 7997
  156.2224  140.2993  155.9939 H   0  0  0  0  0  0  0  0  0  0  0  0  # atno 8009 bound_to 7997
  155.2431  140.0408  157.2968 H   0  0  0  0  0  0  0  0  0  0  0  0  # atno 8010 bound_to 7997
  139.9075  143.6533  152.2582 H   0  0  0  0  0  0  0  0  0  0  0  0  # atno 10167 bound_to 10162
  156.0009  130.5012  150.5719 H   0  0  0  0  0  0  0  0  0  0  0  0  # atno 10718 bound_to 10713
  154.4317  135.2760  155.1908 H   0  0  0  0  0  0  0  0  0  0  0  0  # atno 10763 bound_to 10752
  154.3811  135.6087  153.5795 H   0  0  0  0  0  0  0  0  0  0  0  0  # atno 10764 bound_to 10752
  152.9836  135.5880  154.4630 H   0  0  0  0  0  0  0  0  0  0  0  0  # atno 10765 bound_to 10752
  140.1704  134.8547  157.2683 H   0  0  0  0  0  0  0  0  0  0  0  0  # atno 11005 bound_to 11000
  144.8064  140.6307  143.6444 LP  0  0  0  0  0  0  0  0  0  0  0  0  # atno 17320 bound_to 7965
  145.4520  139.1522  143.3913 LP  0  0  0  0  0  0  0  0  0  0  0  0  # atno 17321 bound_to 7965
  139.6971  144.7640  151.1337 LP  0  0  0  0  0  0  0  0  0  0  0  0  # atno 17342 bound_to 10162
  140.7693  143.5508  150.9206 LP  0  0  0  0  0  0  0  0  0  0  0  0  # atno 17343 bound_to 10162
  157.3612  131.0750  151.1635 LP  0  0  0  0  0  0  0  0  0  0  0  0  # atno 17370 bound_to 10713
  157.2419  130.6573  149.5893 LP  0  0  0  0  0  0  0  0  0  0  0  0  # atno 17371 bound_to 10713
  140.2384  134.3825  155.7491 LP  0  0  0  0  0  0  0  0  0  0  0  0  # atno 17394 bound_to 11000
  141.2217  133.7252  156.8750 LP  0  0  0  0  0  0  0  0  0  0  0  0  # atno 17395 bound_to 11000

$$$$
