AV-unprocessed.smi:2452|AV-procd|sdf|9685|dock4
  -GOLD-   2272013323D 1   1.00000     0.00000
 Structure written by MMmdl.
 34 35  0  0  0  0  0  0  0  0  1 V2000
  147.4674  141.5486  153.7622 C   0  0  0  0  0  0  0  0  0  0  0  0
  148.6884  140.7594  154.1458 C   0  0  0  0  0  0  0  0  0  0  0  0
  149.6770  141.3719  154.7808 N   0  0  0  0  0  0  0  0  0  0  0  0
  150.6991  140.4244  154.9453 O   0  0  0  0  0  0  0  0  0  0  0  0
  150.2984  139.2461  154.4001 C   0  0  0  0  0  0  0  0  0  0  0  0
  151.2617  138.1094  154.4594 C   0  0  0  0  0  0  0  0  0  0  0  0
  149.0341  139.3959  153.9120 C   0  0  0  0  0  0  0  0  0  0  0  0
  148.3003  138.3832  153.2452 N   0  0  0  0  0  0  0  0  0  0  0  0
  146.9692  138.2171  153.2570 C   0  0  0  0  0  0  0  0  0  0  0  0
  146.1826  138.8896  153.9234 O   0  0  0  0  0  0  0  0  0  0  0  0
  146.5935  137.2050  152.4634 N   0  0  0  0  0  0  0  0  0  0  0  0
  145.2142  136.7854  152.2426 C   0  0  0  0  0  0  0  0  0  0  0  0
  145.1339  135.5827  151.2873 C   0  0  2  0  0  0  0  0  0  0  0  0
  143.7647  134.9113  151.2519 C   0  0  0  0  0  0  0  0  0  0  0  0
  144.0854  133.5210  150.7323 C   0  0  0  0  0  0  0  0  0  0  0  0
  145.5689  133.3342  151.0677 C   0  0  0  0  0  0  0  0  0  0  0  0
  145.9706  134.5267  151.7320 O   0  0  0  0  0  0  0  0  0  0  0  0
  147.0505  141.1970  152.8184 H   0  0  0  0  0  0  0  0  0  0  0  0
  147.6991  142.6071  153.6392 H   0  0  0  0  0  0  0  0  0  0  0  0
  146.6923  141.4671  154.5241 H   0  0  0  0  0  0  0  0  0  0  0  0
  150.9665  137.3092  153.7808 H   0  0  0  0  0  0  0  0  0  0  0  0
  151.3091  137.6980  155.4675 H   0  0  0  0  0  0  0  0  0  0  0  0
  152.2634  138.4360  154.1797 H   0  0  0  0  0  0  0  0  0  0  0  0
  148.8449  137.6807  152.7672 H   0  0  0  0  0  0  0  0  0  0  0  0
  147.3079  136.7030  151.9568 H   0  0  0  0  0  0  0  0  0  0  0  0
  144.7730  136.5303  153.2064 H   0  0  0  0  0  0  0  0  0  0  0  0
  144.6345  137.6214  151.8474 H   0  0  0  0  0  0  0  0  0  0  0  0
  145.4267  135.8679  150.2748 H   0  0  0  0  0  0  0  0  0  0  0  0
  143.3524  134.8403  152.2594 H   0  0  0  0  0  0  0  0  0  0  0  0
  143.0466  135.4445  150.6282 H   0  0  0  0  0  0  0  0  0  0  0  0
  143.4556  132.7621  151.1974 H   0  0  0  0  0  0  0  0  0  0  0  0
  143.9352  133.4684  149.6533 H   0  0  0  0  0  0  0  0  0  0  0  0
  145.7435  132.4675  151.7059 H   0  0  0  0  0  0  0  0  0  0  0  0
  146.1556  133.2088  150.1568 H   0  0  0  0  0  0  0  0  0  0  0  0
  1  2  1  0  0  0  0
  1 18  1  0  0  0  0
  1 19  1  0  0  0  0
  1 20  1  0  0  0  0
  2  7  1  0  0  0  0
  2  3  2  0  0  0  0
  3  4  1  0  0  0  0
  4  5  1  0  0  0  0
  5  6  1  0  0  0  0
  5  7  2  0  0  0  0
  6 21  1  0  0  0  0
  6 22  1  0  0  0  0
  6 23  1  0  0  0  0
  7  8  1  0  0  0  0
  8  9  1  0  0  0  0
  8 24  1  0  0  0  0
  9 10  2  0  0  0  0
  9 11  1  0  0  0  0
 11 12  1  0  0  0  0
 11 25  1  0  0  0  0
 12 13  1  0  0  0  0
 12 26  1  0  0  0  0
 12 27  1  0  0  0  0
 13 17  1  0  0  0  0
 13 14  1  0  0  0  0
 13 28  1  0  0  0  0
 14 15  1  0  0  0  0
 14 29  1  0  0  0  0
 14 30  1  0  0  0  0
 15 16  1  0  0  0  0
 15 31  1  0  0  0  0
 15 32  1  0  0  0  0
 16 17  1  0  0  0  0
 16 33  1  0  0  0  0
 16 34  1  0  0  0  0
M  END
> <s_m_source_file>
AV-unprocessed.smi

> <i_m_source_file_index>
2452

> <i_lp_mmshare_version>
43012

> <i_f3d_flags>
0

> <s_epik_input>
W0NIM11jMW5vYyhbQ0gzXSljMVtOSF1DKD1PKVtOSF1bQ0gyXVtDQEBIXTJbQ0gyXVtDSDJdW0NIMl1PMg==

> <s_epik_cmdline>
J2VwaWtfcHl0aG9uJywgJy1waCcsICc3LjAnLCAnLXRuJywgJzgnLCAnLW1hJywgJzIwMCcsICctbWV0YWxfYmluZGluZycsICctaW1hZScsICc8aW5maWxlLm1hZT4nLCAnLW9tYWUnLCAnPG91dGZpbGUubWFlPic=

> <r_lp_tautomer_probability>
1

> <r_epik_Ionization_Penalty>
3.28451e-05

> <r_epik_Ionization_Penalty_Charging>
0

> <r_epik_Ionization_Penalty_Neutral>
3.28451e-05

> <r_epik_State_Penalty>
-0

> <r_epik_Charging_Adjusted_Penalty>
0

> <i_epik_Tot_Q>
0

> <i_epik_Tot_abs_Q>
0

> <r_epik_Metal_State_Penalty>
-0

> <b_epik_Metal_Only>
0

> <s_lp_Force_Field>
OPLS_2005

> <r_lp_Energy>
18.3338

> <b_lp_Chiralities_Consistent>
1

> <s_lp_Variant>
AV-unprocessed.smi:2452-1

> <Gold.Version>
5.8.1

> <Gold.Id.Protein>
6NUR|6NUR_protein|mol2

> <Gold.PLP.Fitness>
38.6630

> <Gold.PLP.PLP>
-31.1877

> <Gold.PLP.part.hbond>
-4.8495

> <Gold.PLP.part.metal>
0.0000

> <Gold.PLP.part.buried>
-2.2844

> <Gold.PLP.part.nonpolar>
-24.4855

> <Gold.PLP.part.repulsive>
0.5909

> <Gold.PLP.ligand.clash>
0.0000

> <Gold.PLP.ligand.torsion>
0.2793

> <Gold.PLP.Chemscore.Hbond>
2.5920

> <Gold.PLP.Chemscore.CHOScore>
0.0000

> <Gold.PLP.Chemscore.Metal>
0.0000

> <Gold.Chemscore.Hbonds>
donor molecule, donor type, donor heavy atom, donor atom, acceptor molecule, acceptor atom, score
      L1  H     8    24       P1  7948  1.00
      L1  H    11    25       P1  7948  0.98
      P1  H  7989  7998       L1     4  0.52

> <Gold.PLP.Chemscore.Internal.Correction>
0.2579

> <Gold.Rescore>
     Score         DG    S(hbond)    S(metal)    S(lipo)     H(rot)  DE(clash)    DE(int)     intcor
     16.12     -16.48       1.94        0.00      65.71       1.23       0.04       0.32       ----

> <Gold.Chemscore.Fitness>
16.1173

> <Gold.Chemscore.DG>
-16.4818

> <Gold.Chemscore.ZeroCoef>
-5.4800

> <Gold.Chemscore.Hbond>
1.9377

> <Gold.Chemscore.Metal>
0.0000

> <Gold.Chemscore.Lipo>
65.7095

> <Gold.Chemscore.Internal_Hbond>
0.0000

> <Gold.Chemscore.DEClash>
0.0407

> <Gold.Chemscore.DEInternal>
0.3239

> <Gold.Chemscore.Rot>
1.2337

> <Gold.Chemscore.Internal.Correction>
   9.000000E+99

> <Gold.Chemscore.Hbonds>
donor molecule, donor type, donor heavy atom, donor atom, acceptor molecule, acceptor atom, score
      L1  H     8    24       P1  7948  0.96
      L1  H    11    25       P1  7948  0.93
      P1  H  7989  7998       L1     4  0.01

> <Gold.Chemscore.Hbond.Weighted>
-6.4720

> <Gold.Chemscore.Metal.Weighted>
-0.0000

> <Gold.Chemscore.Lipo.Weighted>
-7.6880

> <Gold.Chemscore.Internal_Hbond.Weighted>
0.0000

> <Gold.Chemscore.DEClash.Weighted>
0.0407

> <Gold.Chemscore.DEInternal.Weighted>
0.3239

> <Gold.Chemscore.Rot.Weighted>
3.1582

> <Gold.Chemscore.Internal.Correction.Weighted>
   9.000000E+99

> <Gold.Protein.RotatedTorsions>
[ 6907 6896 6895 6894 ] final  -25.18 input  -60.11 | X-H torsion
[ 7974 7965 7964 7962 ] final  -81.72 input  175.53 | X-H torsion
[ 8008 7997 7996 7995 ] final   24.16 input   59.86 | X-H torsion
[ 10167 10162 10161 10158 ] final   41.36 input  -65.29 | X-H torsion
[ 10718 10713 10712 10709 ] final   10.05 input   66.30 | X-H torsion
[ 10763 10752 10751 10750 ] final    6.64 input  -60.55 | X-H torsion
[ 11005 11000 10999 10996 ] final  115.66 input  -57.11 | X-H torsion

> <Gold.Protein.ActiveResidues>
 VAL166  LYS551  ARG553  GLY616  TRP617  ASP618  TYR619  PRO620  LYS621  CYS622 
 ASP623  PHE694  ASN695  SER759  ASP760  ASP761  ALA762  ILE779  LEU786  VAL792 
 PHE793  MET794  SER795  GLU796  ALA797  LYS798  CYS799  TRP800  GLU811  SER814 

> <Gold.Protein.RotatedAtoms>
  151.1789  135.0352  159.8783 H   0  0  0  0  0  0  0  0  0  0  0  0  # atno 6907 bound_to 6896
  152.5445  134.1085  159.8358 H   0  0  0  0  0  0  0  0  0  0  0  0  # atno 6908 bound_to 6896
  151.1200  133.5064  159.2635 H   0  0  0  0  0  0  0  0  0  0  0  0  # atno 6909 bound_to 6896
  145.5429  140.9507  143.1541 H   0  0  0  0  0  0  0  0  0  0  0  0  # atno 7974 bound_to 7965
  154.9920  140.3115  155.4902 H   0  0  0  0  0  0  0  0  0  0  0  0  # atno 8008 bound_to 7997
  156.2938  140.2247  156.4966 H   0  0  0  0  0  0  0  0  0  0  0  0  # atno 8009 bound_to 7997
  154.7694  140.0453  157.1027 H   0  0  0  0  0  0  0  0  0  0  0  0  # atno 8010 bound_to 7997
  140.3651  144.2178  150.6136 H   0  0  0  0  0  0  0  0  0  0  0  0  # atno 10167 bound_to 10162
  156.9753  130.5985  149.5672 H   0  0  0  0  0  0  0  0  0  0  0  0  # atno 10718 bound_to 10713
  153.2454  135.6908  153.7737 H   0  0  0  0  0  0  0  0  0  0  0  0  # atno 10763 bound_to 10752
  153.6851  135.3322  155.3189 H   0  0  0  0  0  0  0  0  0  0  0  0  # atno 10764 bound_to 10752
  154.8373  135.4532  154.1392 H   0  0  0  0  0  0  0  0  0  0  0  0  # atno 10765 bound_to 10752
  139.9017  134.9587  156.7079 H   0  0  0  0  0  0  0  0  0  0  0  0  # atno 11005 bound_to 11000
  144.7568  139.7055  143.7251 LP  0  0  0  0  0  0  0  0  0  0  0  0  # atno 17320 bound_to 7965
  146.1969  139.5240  142.9769 LP  0  0  0  0  0  0  0  0  0  0  0  0  # atno 17321 bound_to 7965
  140.5089  143.2296  151.8565 LP  0  0  0  0  0  0  0  0  0  0  0  0  # atno 17342 bound_to 10162
  139.4810  144.4973  151.9107 LP  0  0  0  0  0  0  0  0  0  0  0  0  # atno 17343 bound_to 10162
  156.0266  130.5360  150.8423 LP  0  0  0  0  0  0  0  0  0  0  0  0  # atno 17370 bound_to 10713
  157.5564  131.0945  150.9622 LP  0  0  0  0  0  0  0  0  0  0  0  0  # atno 17371 bound_to 10713
  140.7099  133.9232  155.8077 LP  0  0  0  0  0  0  0  0  0  0  0  0  # atno 17394 bound_to 11000
  141.0308  134.0758  157.4016 LP  0  0  0  0  0  0  0  0  0  0  0  0  # atno 17395 bound_to 11000

$$$$
