AV-unprocessed.smi:3032|AV-procd|sdf|11566|dock4
  -GOLD-   2272016533D 1   1.00000     0.00000
 Structure written by MMmdl.
 37 38  0  0  0  0  0  0  0  0  1 V2000
  151.5220  144.9543  158.7514 C   0  0  0  0  0  0  0  0  0  0  0  0
  152.4677  144.1546  159.6589 C   0  0  1  0  0  0  0  0  0  0  0  0
  152.0185  144.2135  161.1314 C   0  0  0  0  0  0  0  0  0  0  0  0
  152.9545  143.4018  162.0407 C   0  0  0  0  0  0  0  0  0  0  0  0
  153.0671  141.9454  161.5642 C   0  0  0  0  0  0  0  0  0  0  0  0
  153.5372  141.8754  160.0966 C   0  0  1  0  0  0  0  0  0  0  0  0
  153.6254  140.4236  159.6097 C   0  0  0  0  0  0  0  0  0  0  0  0
  154.6995  139.9655  159.2199 O   0  0  0  0  0  0  0  0  0  0  0  0
  152.4927  139.7044  159.6633 N   0  0  0  0  0  0  0  0  0  0  0  0
  152.3774  138.2814  159.3513 C   0  0  0  0  0  0  0  0  0  0  0  0
  152.7831  137.9712  157.8973 C   0  0  0  0  0  0  0  0  0  0  0  0
  151.8980  138.6036  156.8688 C   0  0  0  0  0  0  0  0  0  0  0  0
  152.3257  139.3808  155.8668 N   0  0  0  0  0  0  0  0  0  0  0  0
  151.1911  139.7145  155.1438 N   0  0  0  0  0  0  0  0  0  0  0  0
  150.1890  139.1070  155.7808 C   0  0  0  0  0  0  0  0  0  0  0  0
  150.5700  138.4090  156.8567 N   0  0  0  0  0  0  0  0  0  0  0  0
  152.5902  142.6914  159.1906 C   0  0  0  0  0  0  0  0  0  0  0  0
  150.0033  137.8653  157.4909 H   0  0  0  0  0  0  0  0  0  0  0  0
  150.5147  144.5370  158.7637 H   0  0  0  0  0  0  0  0  0  0  0  0
  151.8716  144.9492  157.7187 H   0  0  0  0  0  0  0  0  0  0  0  0
  151.4552  145.9945  159.0713 H   0  0  0  0  0  0  0  0  0  0  0  0
  153.4551  144.6135  159.5899 H   0  0  0  0  0  0  0  0  0  0  0  0
  151.9881  145.2490  161.4715 H   0  0  0  0  0  0  0  0  0  0  0  0
  151.0018  143.8289  161.2228 H   0  0  0  0  0  0  0  0  0  0  0  0
  153.9436  143.8613  162.0514 H   0  0  0  0  0  0  0  0  0  0  0  0
  152.5895  143.4295  163.0677 H   0  0  0  0  0  0  0  0  0  0  0  0
  153.7612  141.4037  162.2081 H   0  0  0  0  0  0  0  0  0  0  0  0
  152.0974  141.4568  161.6750 H   0  0  0  0  0  0  0  0  0  0  0  0
  154.5325  142.3197  160.0377 H   0  0  0  0  0  0  0  0  0  0  0  0
  151.6564  140.1669  159.9893 H   0  0  0  0  0  0  0  0  0  0  0  0
  153.0217  137.7291  160.0351 H   0  0  0  0  0  0  0  0  0  0  0  0
  151.3628  137.9255  159.5378 H   0  0  0  0  0  0  0  0  0  0  0  0
  153.8090  138.2993  157.7253 H   0  0  0  0  0  0  0  0  0  0  0  0
  152.7789  136.8922  157.7396 H   0  0  0  0  0  0  0  0  0  0  0  0
  149.1610  139.1723  155.4563 H   0  0  0  0  0  0  0  0  0  0  0  0
  151.6002  142.2322  159.1763 H   0  0  0  0  0  0  0  0  0  0  0  0
  152.9529  142.6669  158.1619 H   0  0  0  0  0  0  0  0  0  0  0  0
  1  2  1  0  0  0  0
  1 19  1  0  0  0  0
  1 20  1  0  0  0  0
  1 21  1  0  0  0  0
  2 17  1  0  0  0  0
  2  3  1  0  0  0  0
  2 22  1  0  0  0  0
  3  4  1  0  0  0  0
  3 23  1  0  0  0  0
  3 24  1  0  0  0  0
  4  5  1  0  0  0  0
  4 25  1  0  0  0  0
  4 26  1  0  0  0  0
  5  6  1  0  0  0  0
  5 27  1  0  0  0  0
  5 28  1  0  0  0  0
  6  7  1  0  0  0  0
  6 17  1  0  0  0  0
  6 29  1  0  0  0  0
  7  8  2  0  0  0  0
  7  9  1  0  0  0  0
  9 10  1  0  0  0  0
  9 30  1  0  0  0  0
 10 11  1  0  0  0  0
 10 31  1  0  0  0  0
 10 32  1  0  0  0  0
 11 12  1  0  0  0  0
 11 33  1  0  0  0  0
 11 34  1  0  0  0  0
 12 16  1  0  0  0  0
 12 13  2  0  0  0  0
 13 14  1  0  0  0  0
 14 15  2  0  0  0  0
 15 16  1  0  0  0  0
 15 35  1  0  0  0  0
 16 18  1  0  0  0  0
 17 36  1  0  0  0  0
 17 37  1  0  0  0  0
M  END
> <s_m_source_file>
AV-unprocessed.smi

> <i_m_source_file_index>
3032

> <i_lp_mmshare_version>
43012

> <i_f3d_flags>
0

> <s_epik_input>
W0NIM11bQ0BASF0xW0NIMl1bQ0gyXVtDSDJdW0NASF0oW0NIMl0xKUMoPU8pW05IXVtDSDJdW0NIMl1jMm5uW2NIXVtuSF0y

> <s_epik_cmdline>
J2VwaWtfcHl0aG9uJywgJy1waCcsICc3LjAnLCAnLXRuJywgJzgnLCAnLW1hJywgJzIwMCcsICctbWV0YWxfYmluZGluZycsICctaW1hZScsICc8aW5maWxlLm1hZT4nLCAnLW9tYWUnLCAnPG91dGZpbGUubWFlPic=

> <r_lp_tautomer_probability>
0.0517155

> <r_epik_Ionization_Penalty>
0.00149837

> <r_epik_Ionization_Penalty_Charging>
0

> <r_epik_Ionization_Penalty_Neutral>
0.00149837

> <r_epik_State_Penalty>
2.1109

> <r_epik_Charging_Adjusted_Penalty>
2.1109

> <i_epik_Tot_Q>
0

> <i_epik_Tot_abs_Q>
0

> <r_epik_Metal_State_Penalty>
2.23635

> <b_epik_Metal_Only>
0

> <s_lp_Force_Field>
OPLS_2005

> <r_lp_Energy>
11.6052

> <b_lp_Chiralities_Consistent>
1

> <s_lp_Variant>
AV-unprocessed.smi:3032-10

> <Gold.Version>
5.8.1

> <Gold.Id.Protein>
6NUR|6NUR_protein|mol2

> <Gold.PLP.Fitness>
48.1740

> <Gold.PLP.PLP>
-39.2895

> <Gold.PLP.part.hbond>
-3.0000

> <Gold.PLP.part.metal>
0.0000

> <Gold.PLP.part.buried>
-4.9861

> <Gold.PLP.part.nonpolar>
-31.0855

> <Gold.PLP.part.repulsive>
0.2054

> <Gold.PLP.ligand.clash>
0.0000

> <Gold.PLP.ligand.torsion>
0.0445

> <Gold.PLP.Chemscore.Hbond>
2.9840

> <Gold.PLP.Chemscore.CHOScore>
0.0000

> <Gold.PLP.Chemscore.Metal>
0.0000

> <Gold.Chemscore.Hbonds>
donor molecule, donor type, donor heavy atom, donor atom, acceptor molecule, acceptor atom, score
      P1  H  7989  7998       L1    14  0.94
      P1  H  7997  8008       L1     8  0.99
      P1  H  7997  8009       L1    13  0.31

> <Gold.PLP.Chemscore.Internal.Correction>
0.0215

> <Gold.Rescore>
     Score         DG    S(hbond)    S(metal)    S(lipo)     H(rot)  DE(clash)    DE(int)     intcor
     19.96     -20.00       2.82        0.00      92.73       2.25       0.01       0.03       ----

> <Gold.Chemscore.Fitness>
19.9636

> <Gold.Chemscore.DG>
-20.0020

> <Gold.Chemscore.ZeroCoef>
-5.4800

> <Gold.Chemscore.Hbond>
2.8244

> <Gold.Chemscore.Metal>
0.0000

> <Gold.Chemscore.Lipo>
92.7261

> <Gold.Chemscore.Internal_Hbond>
0.0000

> <Gold.Chemscore.DEClash>
0.0130

> <Gold.Chemscore.DEInternal>
0.0254

> <Gold.Chemscore.Rot>
2.2501

> <Gold.Chemscore.Internal.Correction>
   9.000000E+99

> <Gold.Chemscore.Hbonds>
donor molecule, donor type, donor heavy atom, donor atom, acceptor molecule, acceptor atom, score
      P1  H  7989  7998       L1    14  0.74
      P1  H  7997  8008       L1     8  0.92
      P1  H  7997  8009       L1    13  0.29

> <Gold.Chemscore.Hbond.Weighted>
-9.4334

> <Gold.Chemscore.Metal.Weighted>
-0.0000

> <Gold.Chemscore.Lipo.Weighted>
-10.8490

> <Gold.Chemscore.Internal_Hbond.Weighted>
0.0000

> <Gold.Chemscore.DEClash.Weighted>
0.0130

> <Gold.Chemscore.DEInternal.Weighted>
0.0254

> <Gold.Chemscore.Rot.Weighted>
5.7603

> <Gold.Chemscore.Internal.Correction.Weighted>
   9.000000E+99

> <Gold.Protein.RotatedTorsions>
[ 6907 6896 6895 6894 ] final   37.80 input  -60.11 | X-H torsion
[ 7974 7965 7964 7962 ] final  123.11 input  175.53 | X-H torsion
[ 8008 7997 7996 7995 ] final -131.88 input   59.86 | X-H torsion
[ 10167 10162 10161 10158 ] final  156.33 input  -65.29 | X-H torsion
[ 10718 10713 10712 10709 ] final  170.72 input   66.30 | X-H torsion
[ 10763 10752 10751 10750 ] final   27.40 input  -60.55 | X-H torsion
[ 11005 11000 10999 10996 ] final  -43.17 input  -57.11 | X-H torsion

> <Gold.Protein.ActiveResidues>
 VAL166  LYS551  ARG553  GLY616  TRP617  ASP618  TYR619  PRO620  LYS621  CYS622 
 ASP623  PHE694  ASN695  SER759  ASP760  ASP761  ALA762  ILE779  LEU786  VAL792 
 PHE793  MET794  SER795  GLU796  ALA797  LYS798  CYS799  TRP800  GLU811  SER814 

> <Gold.Protein.RotatedAtoms>
  152.1479  134.9011  160.0549 H   0  0  0  0  0  0  0  0  0  0  0  0  # atno 6907 bound_to 6896
  152.0054  133.3836  159.4206 H   0  0  0  0  0  0  0  0  0  0  0  0  # atno 6908 bound_to 6896
  150.6872  134.3711  159.5036 H   0  0  0  0  0  0  0  0  0  0  0  0  # atno 6909 bound_to 6896
  145.0998  139.3527  143.4818 H   0  0  0  0  0  0  0  0  0  0  0  0  # atno 7974 bound_to 7965
  155.3197  140.0461  157.3038 H   0  0  0  0  0  0  0  0  0  0  0  0  # atno 8008 bound_to 7997
  154.5387  140.2281  155.8644 H   0  0  0  0  0  0  0  0  0  0  0  0  # atno 8009 bound_to 7997
  156.1860  140.3062  155.9245 H   0  0  0  0  0  0  0  0  0  0  0  0  # atno 8010 bound_to 7997
  139.4821  144.5019  151.8156 H   0  0  0  0  0  0  0  0  0  0  0  0  # atno 10167 bound_to 10162
  157.0040  131.0184  151.2822 H   0  0  0  0  0  0  0  0  0  0  0  0  # atno 10718 bound_to 10713
  153.0558  135.6538  154.0580 H   0  0  0  0  0  0  0  0  0  0  0  0  # atno 10763 bound_to 10752
  154.0259  135.2916  155.3376 H   0  0  0  0  0  0  0  0  0  0  0  0  # atno 10764 bound_to 10752
  154.6873  135.5297  153.8410 H   0  0  0  0  0  0  0  0  0  0  0  0  # atno 10765 bound_to 10752
  141.0366  133.6797  156.2696 H   0  0  0  0  0  0  0  0  0  0  0  0  # atno 11005 bound_to 11000
  146.3530  140.0870  142.8614 LP  0  0  0  0  0  0  0  0  0  0  0  0  # atno 17320 bound_to 7965
  145.0969  140.9321  143.4736 LP  0  0  0  0  0  0  0  0  0  0  0  0  # atno 17321 bound_to 7965
  140.4513  144.1852  150.5897 LP  0  0  0  0  0  0  0  0  0  0  0  0  # atno 17342 bound_to 10162
  140.4582  143.2459  151.9256 LP  0  0  0  0  0  0  0  0  0  0  0  0  # atno 17343 bound_to 10162
  157.5369  130.8094  149.7982 LP  0  0  0  0  0  0  0  0  0  0  0  0  # atno 17370 bound_to 10713
  156.0160  130.3813  150.2109 LP  0  0  0  0  0  0  0  0  0  0  0  0  # atno 17371 bound_to 10713
  140.6311  134.5263  157.5559 LP  0  0  0  0  0  0  0  0  0  0  0  0  # atno 17394 bound_to 11000
  139.9245  134.8083  156.1110 LP  0  0  0  0  0  0  0  0  0  0  0  0  # atno 17395 bound_to 11000

$$$$
