AV-unprocessed.smi:594|AV-procd|sdf|3016|dock3
  -GOLD-   2262023523D 1   1.00000     0.00000
 Structure written by MMmdl.
 40 41  0  0  0  0  0  0  0  0  3 V2000
  152.9751  142.0468  161.2796 C   0  0  0  0  0  0  0  0  0  0  0  0
  152.8348  143.3187  160.4253 C   0  0  2  0  0  0  0  0  0  0  0  0
  151.6168  144.1606  160.8592 C   0  0  0  0  0  0  0  0  0  0  0  0
  151.5127  145.4633  160.0498 C   0  0  0  0  0  0  0  0  0  0  0  0
  151.4687  145.1817  158.5405 C   0  0  0  0  0  0  0  0  0  0  0  0
  152.6773  144.3399  158.0950 C   0  0  0  0  0  0  0  0  0  0  0  0
  152.8083  143.0319  158.9014 C   0  0  2  0  0  0  0  0  0  0  0  0
  151.7266  142.1136  158.5386 N   0  0  0  0  0  0  0  0  0  0  0  0
  151.8682  140.8389  158.1440 C   0  0  0  0  0  0  0  0  0  0  0  0
  152.9608  140.2802  158.0361 O   0  0  0  0  0  0  0  0  0  0  0  0
  150.5622  140.0877  157.8485 C   0  0  0  0  0  0  0  0  0  0  0  0
  150.7192  139.0043  156.8636 N   0  0  0  0  0  0  0  0  0  0  0  0
  150.3829  137.7042  157.2896 C   0  0  0  0  0  0  0  0  0  0  0  0
  150.4997  136.6330  156.4807 C   0  0  0  0  0  0  0  0  0  0  0  0
  150.1600  135.3039  156.9391 N   0  3  0  0  0  0  0  0  0  0  0  0
  149.7127  135.1692  158.0736 O   0  0  0  0  0  0  0  0  0  0  0  0
  150.3289  134.3518  156.1827 O   0  5  0  0  0  0  0  0  0  0  0  0
  150.9859  136.8563  155.1328 C   0  0  0  0  0  0  0  0  0  0  0  0
  151.3136  138.0970  154.7209 C   0  0  0  0  0  0  0  0  0  0  0  0
  151.1938  139.2602  155.6063 C   0  0  0  0  0  0  0  0  0  0  0  0
  151.5016  140.3944  155.2396 O   0  0  0  0  0  0  0  0  0  0  0  0
  152.0928  141.4105  161.2067 H   0  0  0  0  0  0  0  0  0  0  0  0
  153.1120  142.2967  162.3319 H   0  0  0  0  0  0  0  0  0  0  0  0
  153.8379  141.4580  160.9668 H   0  0  0  0  0  0  0  0  0  0  0  0
  153.7245  143.9201  160.6180 H   0  0  0  0  0  0  0  0  0  0  0  0
  150.7006  143.5811  160.7388 H   0  0  0  0  0  0  0  0  0  0  0  0
  151.6894  144.3995  161.9208 H   0  0  0  0  0  0  0  0  0  0  0  0
  150.6231  146.0177  160.3502 H   0  0  0  0  0  0  0  0  0  0  0  0
  152.3664  146.1032  160.2766 H   0  0  0  0  0  0  0  0  0  0  0  0
  150.5429  144.6614  158.2920 H   0  0  0  0  0  0  0  0  0  0  0  0
  151.4496  146.1218  157.9887 H   0  0  0  0  0  0  0  0  0  0  0  0
  152.6078  144.1208  157.0288 H   0  0  0  0  0  0  0  0  0  0  0  0
  153.5857  144.9299  158.2226 H   0  0  0  0  0  0  0  0  0  0  0  0
  153.7649  142.5835  158.6273 H   0  0  0  0  0  0  0  0  0  0  0  0
  150.7885  142.4820  158.6009 H   0  0  0  0  0  0  0  0  0  0  0  0
  150.1783  139.6865  158.7878 H   0  0  0  0  0  0  0  0  0  0  0  0
  149.8079  140.8041  157.5177 H   0  0  0  0  0  0  0  0  0  0  0  0
  150.0392  137.6439  158.3125 H   0  0  0  0  0  0  0  0  0  0  0  0
  151.0907  136.0308  154.4441 H   0  0  0  0  0  0  0  0  0  0  0  0
  151.6741  138.2401  153.7126 H   0  0  0  0  0  0  0  0  0  0  0  0
  1  2  1  0  0  0  0
  1 22  1  0  0  0  0
  1 23  1  0  0  0  0
  1 24  1  0  0  0  0
  2  7  1  0  0  0  0
  2  3  1  0  0  0  0
  2 25  1  0  0  0  0
  3  4  1  0  0  0  0
  3 26  1  0  0  0  0
  3 27  1  0  0  0  0
  4  5  1  0  0  0  0
  4 28  1  0  0  0  0
  4 29  1  0  0  0  0
  5  6  1  0  0  0  0
  5 30  1  0  0  0  0
  5 31  1  0  0  0  0
  6  7  1  0  0  0  0
  6 32  1  0  0  0  0
  6 33  1  0  0  0  0
  7  8  1  0  0  0  0
  7 34  1  0  0  0  0
  8  9  1  0  0  0  0
  8 35  1  0  0  0  0
  9 10  2  0  0  0  0
  9 11  1  0  0  0  0
 11 12  1  0  0  0  0
 11 36  1  0  0  0  0
 11 37  1  0  0  0  0
 12 20  1  0  0  0  0
 12 13  1  0  0  0  0
 13 14  2  0  0  0  0
 13 38  1  0  0  0  0
 14 15  1  0  0  0  0
 14 18  1  0  0  0  0
 15 16  2  0  0  0  0
 15 17  1  0  0  0  0
 18 19  2  0  0  0  0
 18 39  1  0  0  0  0
 19 20  1  0  0  0  0
 19 40  1  0  0  0  0
 20 21  2  0  0  0  0
M  CHG  1  15   1
M  CHG  1  17  -1
M  END
> <s_m_source_file>
AV-unprocessed.smi

> <i_m_source_file_index>
594

> <i_lp_mmshare_version>
43012

> <i_f3d_flags>
0

> <s_epik_input>
W0NIM11bQ0BASF0xW0NIMl1bQ0gyXVtDSDJdW0NIMl1bQ0BIXTFbTkhdQyg9TylbQ0gyXW4yW2NIXWMoW04rXSg9TylbTy1dKVtjSF1bY0hdYzI9Tw==

> <s_epik_cmdline>
J2VwaWtfcHl0aG9uJywgJy1waCcsICc3LjAnLCAnLXRuJywgJzgnLCAnLW1hJywgJzIwMCcsICctbWV0YWxfYmluZGluZycsICctaW1hZScsICc8aW5maWxlLm1hZT4nLCAnLW9tYWUnLCAnPG91dGZpbGUubWFlPic=

> <r_lp_tautomer_probability>
1

> <r_epik_Ionization_Penalty>
1.91305e-08

> <r_epik_Ionization_Penalty_Charging>
8.35811e-11

> <r_epik_Ionization_Penalty_Neutral>
1.90469e-08

> <r_epik_State_Penalty>
-0

> <r_epik_Charging_Adjusted_Penalty>
8.35811e-11

> <i_epik_Tot_Q>
0

> <i_epik_Tot_abs_Q>
2

> <r_epik_Metal_State_Penalty>
-0

> <b_epik_Metal_Only>
0

> <s_lp_Force_Field>
OPLS_2005

> <r_lp_Energy>
20.6939

> <b_lp_Chiralities_Consistent>
1

> <s_lp_Variant>
AV-unprocessed.smi:594-3

> <Gold.Version>
5.8.1

> <Gold.Id.Protein>
6NUR|6NUR_protein|mol2

> <Gold.PLP.Fitness>
51.3824

> <Gold.PLP.PLP>
-43.8004

> <Gold.PLP.part.hbond>
-3.0000

> <Gold.PLP.part.metal>
0.0000

> <Gold.PLP.part.buried>
-4.7798

> <Gold.PLP.part.nonpolar>
-35.8248

> <Gold.PLP.part.repulsive>
0.1225

> <Gold.PLP.ligand.clash>
0.0000

> <Gold.PLP.ligand.torsion>
0.4579

> <Gold.PLP.Chemscore.Hbond>
2.8240

> <Gold.PLP.Chemscore.CHOScore>
0.0000

> <Gold.PLP.Chemscore.Metal>
0.0000

> <Gold.Chemscore.Hbonds>
donor molecule, donor type, donor heavy atom, donor atom, acceptor molecule, acceptor atom, score
      P1  H  6896  6907       L1    16  1.00
      P1  H  7989  7998       L1    21  0.90
      P1  H  7997  8008       L1    10  0.93

> <Gold.PLP.Chemscore.Internal.Correction>
0.0258

> <Gold.Rescore>
     Score         DG    S(hbond)    S(metal)    S(lipo)     H(rot)  DE(clash)    DE(int)     intcor
     22.51     -23.96       2.92        0.00     108.55       1.55       0.05       1.40       ----

> <Gold.Chemscore.Fitness>
22.5094

> <Gold.Chemscore.DG>
-23.9591

> <Gold.Chemscore.ZeroCoef>
-5.4800

> <Gold.Chemscore.Hbond>
2.9184

> <Gold.Chemscore.Metal>
0.0000

> <Gold.Chemscore.Lipo>
108.5527

> <Gold.Chemscore.Internal_Hbond>
0.0000

> <Gold.Chemscore.DEClash>
0.0462

> <Gold.Chemscore.DEInternal>
1.4034

> <Gold.Chemscore.Rot>
1.5505

> <Gold.Chemscore.Internal.Correction>
   9.000000E+99

> <Gold.Chemscore.Hbonds>
donor molecule, donor type, donor heavy atom, donor atom, acceptor molecule, acceptor atom, score
      P1  H  6896  6907       L1    16  0.96
      P1  H  7989  7998       L1    21  0.88
      P1  H  7997  8008       L1    10  0.89

> <Gold.Chemscore.Hbond.Weighted>
-9.7475

> <Gold.Chemscore.Metal.Weighted>
-0.0000

> <Gold.Chemscore.Lipo.Weighted>
-12.7007

> <Gold.Chemscore.Internal_Hbond.Weighted>
0.0000

> <Gold.Chemscore.DEClash.Weighted>
0.0462

> <Gold.Chemscore.DEInternal.Weighted>
1.4034

> <Gold.Chemscore.Rot.Weighted>
3.9692

> <Gold.Chemscore.Internal.Correction.Weighted>
   9.000000E+99

> <Gold.Protein.RotatedTorsions>
[ 6907 6896 6895 6894 ] final  -81.87 input  -60.11 | X-H torsion
[ 7974 7965 7964 7962 ] final -124.19 input  175.53 | X-H torsion
[ 8008 7997 7996 7995 ] final  -74.84 input   59.86 | X-H torsion
[ 10167 10162 10161 10158 ] final  -13.77 input  -65.29 | X-H torsion
[ 10718 10713 10712 10709 ] final  -82.08 input   66.30 | X-H torsion
[ 10763 10752 10751 10750 ] final -136.88 input  -60.55 | X-H torsion
[ 11005 11000 10999 10996 ] final  112.77 input  -57.11 | X-H torsion

> <Gold.Protein.ActiveResidues>
 VAL166  LYS551  ARG553  GLY616  TRP617  ASP618  TYR619  PRO620  LYS621  CYS622 
 ASP623  PHE694  ASN695  SER759  ASP760  ASP761  ALA762  ILE779  LEU786  VAL792 
 PHE793  MET794  SER795  GLU796  ALA797  LYS798  CYS799  TRP800  GLU811  SER814 

> <Gold.Protein.RotatedAtoms>
  150.6905  134.3752  159.5009 H   0  0  0  0  0  0  0  0  0  0  0  0  # atno 6907 bound_to 6896
  152.1562  134.8946  160.0554 H   0  0  0  0  0  0  0  0  0  0  0  0  # atno 6908 bound_to 6896
  152.0025  133.3796  159.4224 H   0  0  0  0  0  0  0  0  0  0  0  0  # atno 6909 bound_to 6896
  145.0107  140.7903  143.4440 H   0  0  0  0  0  0  0  0  0  0  0  0  # atno 7974 bound_to 7965
  154.5365  140.0754  156.8437 H   0  0  0  0  0  0  0  0  0  0  0  0  # atno 8008 bound_to 7997
  155.3267  140.3399  155.4222 H   0  0  0  0  0  0  0  0  0  0  0  0  # atno 8009 bound_to 7997
  156.1833  140.1660  156.8219 H   0  0  0  0  0  0  0  0  0  0  0  0  # atno 8010 bound_to 7997
  140.7188  143.5392  150.9429 H   0  0  0  0  0  0  0  0  0  0  0  0  # atno 10167 bound_to 10162
  156.0039  130.4623  150.4051 H   0  0  0  0  0  0  0  0  0  0  0  0  # atno 10718 bound_to 10713
  154.8674  135.3659  154.5132 H   0  0  0  0  0  0  0  0  0  0  0  0  # atno 10763 bound_to 10752
  153.5766  135.7019  153.5486 H   0  0  0  0  0  0  0  0  0  0  0  0  # atno 10764 bound_to 10752
  153.3494  135.4076  155.1597 H   0  0  0  0  0  0  0  0  0  0  0  0  # atno 10765 bound_to 10752
  139.8935  134.9536  156.6636 H   0  0  0  0  0  0  0  0  0  0  0  0  # atno 11005 bound_to 11000
  145.2027  139.2244  143.5184 LP  0  0  0  0  0  0  0  0  0  0  0  0  # atno 17320 bound_to 7965
  146.3469  140.1848  142.8589 LP  0  0  0  0  0  0  0  0  0  0  0  0  # atno 17321 bound_to 7965
  139.9114  143.6716  152.3114 LP  0  0  0  0  0  0  0  0  0  0  0  0  # atno 17342 bound_to 10162
  139.7100  144.7622  151.1128 LP  0  0  0  0  0  0  0  0  0  0  0  0  # atno 17343 bound_to 10162
  157.2117  131.0462  151.2595 LP  0  0  0  0  0  0  0  0  0  0  0  0  # atno 17370 bound_to 10713
  157.3882  130.7268  149.6678 LP  0  0  0  0  0  0  0  0  0  0  0  0  # atno 17371 bound_to 10713
  140.7428  133.8963  155.8290 LP  0  0  0  0  0  0  0  0  0  0  0  0  # atno 17394 bound_to 11000
  141.0064  134.1080  157.4266 LP  0  0  0  0  0  0  0  0  0  0  0  0  # atno 17395 bound_to 11000

$$$$
