AV-unprocessed.smi:270|AV-procd|sdf|2045|dock8
  -GOLD-   2262021273D 1   1.00000     0.00000
 Structure written by MMmdl.
 54 57  0  0  0  0  0  0  0  0  1 V2000
  144.6727  135.6633  151.2974 C   0  0  0  0  0  0  0  0  0  0  0  0
  145.7171  134.5574  151.0788 C   0  0  2  0  0  0  0  0  0  0  0  0
  145.1427  133.5903  150.2032 O   0  0  0  0  0  0  0  0  0  0  0  0
  145.6728  132.3145  150.5165 C   0  0  0  0  0  0  0  0  0  0  0  0
  145.7182  132.3439  152.0363 C   0  0  0  0  0  0  0  0  0  0  0  0
  146.1760  133.7682  152.3381 C   0  0  1  0  0  0  0  0  0  0  0  0
  147.5943  133.7730  152.3532 O   0  0  0  0  0  0  0  0  0  0  0  0
  145.6819  134.3036  153.7081 C   0  0  0  0  0  0  0  0  0  0  0  0
  146.5468  135.3279  154.2749 N   0  0  0  0  0  0  0  0  0  0  0  0
  147.5742  135.1364  155.1705 C   0  0  0  0  0  0  0  0  0  0  0  0
  148.2064  136.2191  155.5315 N   0  0  0  0  0  0  0  0  0  0  0  0
  147.5709  137.2380  154.8308 C   0  0  0  0  0  0  0  0  0  0  0  0
  147.7546  138.6503  154.7618 C   0  0  0  0  0  0  0  0  0  0  0  0
  148.7566  139.3669  155.4782 N   0  0  0  0  0  0  0  0  0  0  0  0
  148.3249  140.5816  156.1541 C   0  0  0  0  0  0  0  0  0  0  0  0
  149.6198  141.2272  155.6503 C   0  0  0  0  0  0  0  0  0  0  0  0
  150.6551  141.2755  156.6197 O   0  0  0  0  0  0  0  0  0  0  0  0
  150.6085  142.4468  157.4185 C   0  0  0  0  0  0  0  0  0  0  0  0
  151.4772  142.2300  158.6630 C   0  0  0  0  0  0  0  0  0  0  0  0
  151.7643  141.0745  158.9785 O   0  0  0  0  0  0  0  0  0  0  0  0
  151.9046  143.3047  159.3666 N   0  0  0  0  0  0  0  0  0  0  0  0
  151.5405  144.6833  159.0266 C   0  0  0  0  0  0  0  0  0  0  0  0
  152.7540  143.1373  160.5488 C   0  0  0  0  0  0  0  0  0  0  0  0
  149.7850  140.0432  154.6963 C   0  0  0  0  0  0  0  0  0  0  0  0
  146.9334  139.3216  153.9101 N   0  0  0  0  0  0  0  0  0  0  0  0
  145.9937  138.6831  153.2072 C   0  0  0  0  0  0  0  0  0  0  0  0
  145.7057  137.3820  153.1919 N   0  0  0  0  0  0  0  0  0  0  0  0
  146.5309  136.6894  154.0261 C   0  0  0  0  0  0  0  0  0  0  0  0
  145.0515  136.4459  151.9551 H   0  0  0  0  0  0  0  0  0  0  0  0
  143.7541  135.2668  151.7304 H   0  0  0  0  0  0  0  0  0  0  0  0
  144.4091  136.1339  150.3501 H   0  0  0  0  0  0  0  0  0  0  0  0
  146.5778  134.9947  150.5691 H   0  0  0  0  0  0  0  0  0  0  0  0
  145.0474  131.5109  150.1273 H   0  0  0  0  0  0  0  0  0  0  0  0
  146.6731  132.2141  150.0926 H   0  0  0  0  0  0  0  0  0  0  0  0
  144.7088  132.1856  152.4173 H   0  0  0  0  0  0  0  0  0  0  0  0
  146.3601  131.5722  152.4638 H   0  0  0  0  0  0  0  0  0  0  0  0
  147.8924  134.6524  152.1780 H   0  0  0  0  0  0  0  0  0  0  0  0
  144.6780  134.7202  153.6161 H   0  0  0  0  0  0  0  0  0  0  0  0
  145.6131  133.4925  154.4332 H   0  0  0  0  0  0  0  0  0  0  0  0
  147.8390  134.1616  155.5535 H   0  0  0  0  0  0  0  0  0  0  0  0
  147.4302  141.0277  155.7172 H   0  0  0  0  0  0  0  0  0  0  0  0
  148.2547  140.4729  157.2366 H   0  0  0  0  0  0  0  0  0  0  0  0
  149.4687  142.1715  155.1244 H   0  0  0  0  0  0  0  0  0  0  0  0
  150.9936  143.2948  156.8495 H   0  0  0  0  0  0  0  0  0  0  0  0
  149.5873  142.6960  157.7082 H   0  0  0  0  0  0  0  0  0  0  0  0
  151.9789  144.9721  158.0708 H   0  0  0  0  0  0  0  0  0  0  0  0
  151.8852  145.4006  159.7719 H   0  0  0  0  0  0  0  0  0  0  0  0
  150.4586  144.8012  158.9588 H   0  0  0  0  0  0  0  0  0  0  0  0
  152.1516  142.8249  161.4027 H   0  0  0  0  0  0  0  0  0  0  0  0
  153.2705  144.0579  160.8220 H   0  0  0  0  0  0  0  0  0  0  0  0
  153.5259  142.3838  160.3840 H   0  0  0  0  0  0  0  0  0  0  0  0
  150.7595  139.5565  154.7416 H   0  0  0  0  0  0  0  0  0  0  0  0
  149.4830  140.2841  153.6759 H   0  0  0  0  0  0  0  0  0  0  0  0
  145.3880  139.3042  152.5639 H   0  0  0  0  0  0  0  0  0  0  0  0
  1  2  1  0  0  0  0
  1 29  1  0  0  0  0
  1 30  1  0  0  0  0
  1 31  1  0  0  0  0
  2  6  1  0  0  0  0
  2  3  1  0  0  0  0
  2 32  1  0  0  0  0
  3  4  1  0  0  0  0
  4  5  1  0  0  0  0
  4 33  1  0  0  0  0
  4 34  1  0  0  0  0
  5  6  1  0  0  0  0
  5 35  1  0  0  0  0
  5 36  1  0  0  0  0
  6  7  1  0  0  0  0
  6  8  1  0  0  0  0
  7 37  1  0  0  0  0
  8  9  1  0  0  0  0
  8 38  1  0  0  0  0
  8 39  1  0  0  0  0
  9 28  1  0  0  0  0
  9 10  1  0  0  0  0
 10 11  2  0  0  0  0
 10 40  1  0  0  0  0
 11 12  1  0  0  0  0
 12 28  2  0  0  0  0
 12 13  1  0  0  0  0
 13 14  1  0  0  0  0
 13 25  2  0  0  0  0
 14 24  1  0  0  0  0
 14 15  1  0  0  0  0
 15 16  1  0  0  0  0
 15 41  1  0  0  0  0
 15 42  1  0  0  0  0
 16 17  1  0  0  0  0
 16 24  1  0  0  0  0
 16 43  1  0  0  0  0
 17 18  1  0  0  0  0
 18 19  1  0  0  0  0
 18 44  1  0  0  0  0
 18 45  1  0  0  0  0
 19 20  2  0  0  0  0
 19 21  1  0  0  0  0
 21 22  1  0  0  0  0
 21 23  1  0  0  0  0
 22 46  1  0  0  0  0
 22 47  1  0  0  0  0
 22 48  1  0  0  0  0
 23 49  1  0  0  0  0
 23 50  1  0  0  0  0
 23 51  1  0  0  0  0
 24 52  1  0  0  0  0
 24 53  1  0  0  0  0
 25 26  1  0  0  0  0
 26 27  2  0  0  0  0
 26 54  1  0  0  0  0
 27 28  1  0  0  0  0
M  END
> <s_m_source_file>
AV-unprocessed.smi

> <i_m_source_file_index>
270

> <i_lp_mmshare_version>
43012

> <i_f3d_flags>
0

> <s_epik_input>
W0NIMl0xW0NIMl1PW0NAQEhdKFtDSDNdKVtDQEBdMShbT0hdKVtDSDJdbihbY0hdbjIpYyhjMjMpbltjSF1uYzNONFtDSDJdW0NIXShbQ0gyXTQpT1tDSDJdQyg9TylOKFtDSDNdKVtDSDNd

> <s_epik_cmdline>
J2VwaWtfcHl0aG9uJywgJy1waCcsICc3LjAnLCAnLXRuJywgJzgnLCAnLW1hJywgJzIwMCcsICctbWV0YWxfYmluZGluZycsICctaW1hZScsICc8aW5maWxlLm1hZT4nLCAnLW9tYWUnLCAnPG91dGZpbGUubWFlPic=

> <r_lp_tautomer_probability>
1

> <r_epik_Ionization_Penalty>
0.00375854

> <r_epik_Ionization_Penalty_Charging>
0

> <r_epik_Ionization_Penalty_Neutral>
0.00375854

> <r_epik_State_Penalty>
-0

> <r_epik_Charging_Adjusted_Penalty>
0

> <i_epik_Tot_Q>
0

> <i_epik_Tot_abs_Q>
0

> <r_epik_Metal_State_Penalty>
-0

> <b_epik_Metal_Only>
0

> <s_lp_Force_Field>
OPLS_2005

> <r_lp_Energy>
54.2687

> <b_lp_Chiralities_Consistent>
1

> <s_lp_Variant>
AV-unprocessed.smi:270-1

> <Gold.Version>
5.8.1

> <Gold.Id.Protein>
6NUR|6NUR_protein|mol2

> <Gold.PLP.Fitness>
43.0376

> <Gold.PLP.PLP>
-39.7521

> <Gold.PLP.part.hbond>
-1.0000

> <Gold.PLP.part.metal>
0.0000

> <Gold.PLP.part.buried>
-5.5120

> <Gold.PLP.part.nonpolar>
-35.1665

> <Gold.PLP.part.repulsive>
1.7104

> <Gold.PLP.ligand.clash>
0.0000

> <Gold.PLP.ligand.torsion>
1.4834

> <Gold.PLP.Chemscore.Hbond>
1.0000

> <Gold.PLP.Chemscore.CHOScore>
0.9572

> <Gold.PLP.Chemscore.Metal>
0.0000

> <Gold.Chemscore.Hbonds>
donor molecule, donor type, donor heavy atom, donor atom, acceptor molecule, acceptor atom, score
      L1  H     7    37       P1  7948  1.00
      L1  C    26    54       P1 10175  1.00

> <Gold.PLP.Chemscore.Internal.Correction>
0.3807

> <Gold.Rescore>
     Score         DG    S(hbond)    S(metal)    S(lipo)     H(rot)  DE(clash)    DE(int)     intcor
      8.40      -9.91       0.83        0.00      82.46       3.12       0.01       1.50       ----

> <Gold.Chemscore.Fitness>
8.3992

> <Gold.Chemscore.DG>
-9.9078

> <Gold.Chemscore.ZeroCoef>
-5.4800

> <Gold.Chemscore.Hbond>
0.8311

> <Gold.Chemscore.Metal>
0.0000

> <Gold.Chemscore.Lipo>
82.4589

> <Gold.Chemscore.Internal_Hbond>
0.0000

> <Gold.Chemscore.DEClash>
0.0098

> <Gold.Chemscore.DEInternal>
1.4988

> <Gold.Chemscore.Rot>
3.1234

> <Gold.Chemscore.Internal.Correction>
   9.000000E+99

> <Gold.Chemscore.Hbonds>
donor molecule, donor type, donor heavy atom, donor atom, acceptor molecule, acceptor atom, score
      L1  H     7    37       P1  7948  0.45

> <Gold.Chemscore.Hbond.Weighted>
-2.7760

> <Gold.Chemscore.Metal.Weighted>
-0.0000

> <Gold.Chemscore.Lipo.Weighted>
-9.6477

> <Gold.Chemscore.Internal_Hbond.Weighted>
0.0000

> <Gold.Chemscore.DEClash.Weighted>
0.0098

> <Gold.Chemscore.DEInternal.Weighted>
1.4988

> <Gold.Chemscore.Rot.Weighted>
7.9959

> <Gold.Chemscore.Internal.Correction.Weighted>
   9.000000E+99

> <Gold.Protein.RotatedTorsions>
[ 6907 6896 6895 6894 ] final  -16.10 input  -60.11 | X-H torsion
[ 7974 7965 7964 7962 ] final   61.82 input  175.53 | X-H torsion
[ 8008 7997 7996 7995 ] final  -85.22 input   59.86 | X-H torsion
[ 10167 10162 10161 10158 ] final -119.81 input  -65.29 | X-H torsion
[ 10718 10713 10712 10709 ] final -166.97 input   66.30 | X-H torsion
[ 10763 10752 10751 10750 ] final  128.89 input  -60.55 | X-H torsion
[ 11005 11000 10999 10996 ] final   20.61 input  -57.11 | X-H torsion

> <Gold.Protein.ActiveResidues>
 VAL166  LYS551  ARG553  GLY616  TRP617  ASP618  TYR619  PRO620  LYS621  CYS622 
 ASP623  PHE694  ASN695  SER759  ASP760  ASP761  ALA762  ILE779  LEU786  VAL792 
 PHE793  MET794  SER795  GLU796  ALA797  LYS798  CYS799  TRP800  GLU811  SER814 

> <Gold.Protein.RotatedAtoms>
  151.3138  135.0801  159.9281 H   0  0  0  0  0  0  0  0  0  0  0  0  # atno 6907 bound_to 6896
  152.5272  133.9709  159.7771 H   0  0  0  0  0  0  0  0  0  0  0  0  # atno 6908 bound_to 6896
  151.0017  133.5998  159.2724 H   0  0  0  0  0  0  0  0  0  0  0  0  # atno 6909 bound_to 6896
  145.8805  139.3440  143.0709 H   0  0  0  0  0  0  0  0  0  0  0  0  # atno 7974 bound_to 7965
  154.6383  140.0594  156.9815 H   0  0  0  0  0  0  0  0  0  0  0  0  # atno 8008 bound_to 7997
  155.1557  140.3278  155.4403 H   0  0  0  0  0  0  0  0  0  0  0  0  # atno 8009 bound_to 7997
  156.2518  140.1939  156.6666 H   0  0  0  0  0  0  0  0  0  0  0  0  # atno 8010 bound_to 7997
  140.0426  143.5138  152.2122 H   0  0  0  0  0  0  0  0  0  0  0  0  # atno 10167 bound_to 10162
  156.6755  130.9101  151.3050 H   0  0  0  0  0  0  0  0  0  0  0  0  # atno 10718 bound_to 10713
  153.7328  135.3236  155.3289 H   0  0  0  0  0  0  0  0  0  0  0  0  # atno 10763 bound_to 10752
  154.8320  135.4526  154.1104 H   0  0  0  0  0  0  0  0  0  0  0  0  # atno 10764 bound_to 10752
  153.2257  135.6953  153.8029 H   0  0  0  0  0  0  0  0  0  0  0  0  # atno 10765 bound_to 10752
  140.4007  134.1721  155.7664 H   0  0  0  0  0  0  0  0  0  0  0  0  # atno 11005 bound_to 11000
  145.9030  140.9230  143.0493 LP  0  0  0  0  0  0  0  0  0  0  0  0  # atno 17320 bound_to 7965
  144.6727  140.1057  143.7458 LP  0  0  0  0  0  0  0  0  0  0  0  0  # atno 17321 bound_to 7965
  139.6004  144.7580  151.3186 LP  0  0  0  0  0  0  0  0  0  0  0  0  # atno 17342 bound_to 10162
  140.7253  143.7021  150.7837 LP  0  0  0  0  0  0  0  0  0  0  0  0  # atno 17343 bound_to 10162
  157.7062  130.9388  150.0939 LP  0  0  0  0  0  0  0  0  0  0  0  0  # atno 17370 bound_to 10713
  156.1906  130.3654  149.8915 LP  0  0  0  0  0  0  0  0  0  0  0  0  # atno 17371 bound_to 10713
  141.1857  133.8316  157.1093 LP  0  0  0  0  0  0  0  0  0  0  0  0  # atno 17394 bound_to 11000
  140.0338  134.9888  157.0832 LP  0  0  0  0  0  0  0  0  0  0  0  0  # atno 17395 bound_to 11000

$$$$
