AV-unprocessed.smi:847|AV-procd|sdf|3937|dock5
  -GOLD-   22720 1403D 1   1.00000     0.00000
 Structure written by MMmdl.
 46 47  0  0  0  0  0  0  0  0  1 V2000
  143.3988  146.5599  155.6400 C   0  0  0  0  0  0  0  0  0  0  0  0
  143.9053  145.2907  156.0136 O   0  0  0  0  0  0  0  0  0  0  0  0
  143.9566  144.3845  154.9241 C   0  0  0  0  0  0  0  0  0  0  0  0
  144.4987  143.0391  155.4153 C   0  0  0  0  0  0  0  0  0  0  0  0
  145.3540  142.4942  154.4150 O   0  0  0  0  0  0  0  0  0  0  0  0
  146.6247  142.0986  154.7791 C   0  0  0  0  0  0  0  0  0  0  0  0
  147.4915  141.6137  153.7793 C   0  0  0  0  0  0  0  0  0  0  0  0
  148.7889  141.2071  154.1445 C   0  0  0  0  0  0  0  0  0  0  0  0
  149.1781  141.2931  155.4965 C   0  0  0  0  0  0  0  0  0  0  0  0
  150.5774  140.8659  155.9178 C   0  0  0  0  0  0  0  0  0  0  0  0
  150.8961  141.1512  157.3124 N   0  0  0  0  0  0  0  0  0  0  0  0
  151.9604  140.6676  157.9756 C   0  0  0  0  0  0  0  0  0  0  0  0
  152.7910  139.9261  157.4514 O   0  0  0  0  0  0  0  0  0  0  0  0
  152.1289  141.0574  159.4598 C   0  0  2  0  0  0  0  0  0  0  0  0
  152.1951  142.5898  159.5691 C   0  0  0  0  0  0  0  0  0  0  0  0
  153.0445  142.8612  160.7960 C   0  0  0  0  0  0  0  0  0  0  0  0
  153.9803  141.6582  160.9006 C   0  0  0  0  0  0  0  0  0  0  0  0
  153.3443  140.5734  160.1485 N   0  0  0  0  0  0  0  0  0  0  0  0
  153.7851  139.2918  160.1789 C   0  0  0  0  0  0  0  0  0  0  0  0
  155.0793  138.9784  160.9337 C   0  0  0  0  0  0  0  0  0  0  0  0
  153.1872  138.3648  159.6331 O   0  0  0  0  0  0  0  0  0  0  0  0
  148.2391  141.7986  156.4230 C   0  0  0  0  0  0  0  0  0  0  0  0
  146.9935  142.1907  156.0811 N   0  0  0  0  0  0  0  0  0  0  0  0
  151.2689  140.6886  160.0217 H   0  0  0  0  0  0  0  0  0  0  0  0
  143.3937  147.2218  156.5059 H   0  0  0  0  0  0  0  0  0  0  0  0
  142.3757  146.4821  155.2695 H   0  0  0  0  0  0  0  0  0  0  0  0
  144.0171  147.0202  154.8679 H   0  0  0  0  0  0  0  0  0  0  0  0
  142.9508  144.2459  154.5248 H   0  0  0  0  0  0  0  0  0  0  0  0
  144.5786  144.7765  154.1176 H   0  0  0  0  0  0  0  0  0  0  0  0
  145.0262  143.1698  156.3617 H   0  0  0  0  0  0  0  0  0  0  0  0
  143.6632  142.3587  155.5876 H   0  0  0  0  0  0  0  0  0  0  0  0
  147.1670  141.5546  152.7510 H   0  0  0  0  0  0  0  0  0  0  0  0
  149.4720  140.8328  153.3962 H   0  0  0  0  0  0  0  0  0  0  0  0
  150.7170  139.8017  155.7201 H   0  0  0  0  0  0  0  0  0  0  0  0
  151.2978  141.3926  155.2919 H   0  0  0  0  0  0  0  0  0  0  0  0
  150.2625  141.7583  157.8116 H   0  0  0  0  0  0  0  0  0  0  0  0
  152.6915  143.0263  158.7000 H   0  0  0  0  0  0  0  0  0  0  0  0
  151.2067  143.0448  159.6420 H   0  0  0  0  0  0  0  0  0  0  0  0
  153.5782  143.8106  160.7431 H   0  0  0  0  0  0  0  0  0  0  0  0
  152.4000  142.8930  161.6753 H   0  0  0  0  0  0  0  0  0  0  0  0
  154.9430  141.8911  160.4433 H   0  0  0  0  0  0  0  0  0  0  0  0
  154.1536  141.3950  161.9450 H   0  0  0  0  0  0  0  0  0  0  0  0
  155.8974  139.6084  160.5836 H   0  0  0  0  0  0  0  0  0  0  0  0
  155.3711  137.9389  160.7796 H   0  0  0  0  0  0  0  0  0  0  0  0
  154.9488  139.1333  162.0049 H   0  0  0  0  0  0  0  0  0  0  0  0
  148.4883  141.8965  157.4693 H   0  0  0  0  0  0  0  0  0  0  0  0
  1  2  1  0  0  0  0
  1 25  1  0  0  0  0
  1 26  1  0  0  0  0
  1 27  1  0  0  0  0
  2  3  1  0  0  0  0
  3  4  1  0  0  0  0
  3 28  1  0  0  0  0
  3 29  1  0  0  0  0
  4  5  1  0  0  0  0
  4 30  1  0  0  0  0
  4 31  1  0  0  0  0
  5  6  1  0  0  0  0
  6 23  1  0  0  0  0
  6  7  2  0  0  0  0
  7  8  1  0  0  0  0
  7 32  1  0  0  0  0
  8  9  2  0  0  0  0
  8 33  1  0  0  0  0
  9 10  1  0  0  0  0
  9 22  1  0  0  0  0
 10 11  1  0  0  0  0
 10 34  1  0  0  0  0
 10 35  1  0  0  0  0
 11 12  1  0  0  0  0
 11 36  1  0  0  0  0
 12 13  2  0  0  0  0
 12 14  1  0  0  0  0
 14 24  1  0  0  0  0
 14 18  1  0  0  0  0
 14 15  1  0  0  0  0
 15 16  1  0  0  0  0
 15 37  1  0  0  0  0
 15 38  1  0  0  0  0
 16 17  1  0  0  0  0
 16 39  1  0  0  0  0
 16 40  1  0  0  0  0
 17 18  1  0  0  0  0
 17 41  1  0  0  0  0
 17 42  1  0  0  0  0
 18 19  1  0  0  0  0
 19 20  1  0  0  0  0
 19 21  2  0  0  0  0
 20 43  1  0  0  0  0
 20 44  1  0  0  0  0
 20 45  1  0  0  0  0
 22 23  2  0  0  0  0
 22 46  1  0  0  0  0
M  END
> <s_m_source_file>
AV-unprocessed.smi

> <i_m_source_file_index>
847

> <i_lp_mmshare_version>
43012

> <i_f3d_flags>
0

> <s_epik_input>
W0NIM11PW0NIMl1bQ0gyXU9jMVtjSF1bY0hdYyhbY0hdbjEpW0NIMl1bTkhdQyg9TylbQ0BASF0yW0NIMl1bQ0gyXVtDSDJdTjJDKD1PKVtDSDNd

> <s_epik_cmdline>
J2VwaWtfcHl0aG9uJywgJy1waCcsICc3LjAnLCAnLXRuJywgJzgnLCAnLW1hJywgJzIwMCcsICctbWV0YWxfYmluZGluZycsICctaW1hZScsICc8aW5maWxlLm1hZT4nLCAnLW9tYWUnLCAnPG91dGZpbGUubWFlPic=

> <r_lp_tautomer_probability>
1

> <r_epik_Ionization_Penalty>
6.04138e-05

> <r_epik_Ionization_Penalty_Charging>
0

> <r_epik_Ionization_Penalty_Neutral>
6.04138e-05

> <r_epik_State_Penalty>
-0

> <r_epik_Charging_Adjusted_Penalty>
0

> <i_epik_Tot_Q>
0

> <i_epik_Tot_abs_Q>
0

> <r_epik_Metal_State_Penalty>
-0

> <b_epik_Metal_Only>
0

> <s_lp_Force_Field>
OPLS_2005

> <r_lp_Energy>
14.576

> <b_lp_Chiralities_Consistent>
1

> <s_lp_Variant>
AV-unprocessed.smi:847-1

> <Gold.Version>
5.8.1

> <Gold.Id.Protein>
6NUR|6NUR_protein|mol2

> <Gold.PLP.Fitness>
44.2007

> <Gold.PLP.PLP>
-42.5591

> <Gold.PLP.part.hbond>
-1.0000

> <Gold.PLP.part.metal>
0.0000

> <Gold.PLP.part.buried>
-4.4128

> <Gold.PLP.part.nonpolar>
-36.7542

> <Gold.PLP.part.repulsive>
0.8625

> <Gold.PLP.ligand.clash>
0.0000

> <Gold.PLP.ligand.torsion>
0.7672

> <Gold.PLP.Chemscore.Hbond>
1.0000

> <Gold.PLP.Chemscore.CHOScore>
0.0000

> <Gold.PLP.Chemscore.Metal>
0.0000

> <Gold.Chemscore.Hbonds>
donor molecule, donor type, donor heavy atom, donor atom, acceptor molecule, acceptor atom, score
      P1  H  7997  8009       L1    13  1.00

> <Gold.PLP.Chemscore.Internal.Correction>
0.1760

> <Gold.Rescore>
     Score         DG    S(hbond)    S(metal)    S(lipo)     H(rot)  DE(clash)    DE(int)     intcor
     10.05     -14.02       0.98        0.00      95.31       2.31       0.10       3.86       ----

> <Gold.Chemscore.Fitness>
10.0538

> <Gold.Chemscore.DG>
-14.0165

> <Gold.Chemscore.ZeroCoef>
-5.4800

> <Gold.Chemscore.Hbond>
0.9846

> <Gold.Chemscore.Metal>
0.0000

> <Gold.Chemscore.Lipo>
95.3149

> <Gold.Chemscore.Internal_Hbond>
0.0000

> <Gold.Chemscore.DEClash>
0.1013

> <Gold.Chemscore.DEInternal>
3.8613

> <Gold.Chemscore.Rot>
2.3062

> <Gold.Chemscore.Internal.Correction>
   9.000000E+99

> <Gold.Chemscore.Hbonds>
donor molecule, donor type, donor heavy atom, donor atom, acceptor molecule, acceptor atom, score
      P1  H  7997  8009       L1    13  0.99

> <Gold.Chemscore.Hbond.Weighted>
-3.2885

> <Gold.Chemscore.Metal.Weighted>
-0.0000

> <Gold.Chemscore.Lipo.Weighted>
-11.1518

> <Gold.Chemscore.Internal_Hbond.Weighted>
0.0000

> <Gold.Chemscore.DEClash.Weighted>
0.1013

> <Gold.Chemscore.DEInternal.Weighted>
3.8613

> <Gold.Chemscore.Rot.Weighted>
5.9038

> <Gold.Chemscore.Internal.Correction.Weighted>
   9.000000E+99

> <Gold.Protein.RotatedTorsions>
[ 6907 6896 6895 6894 ] final   82.47 input  -60.11 | X-H torsion
[ 7974 7965 7964 7962 ] final  -14.18 input  175.53 | X-H torsion
[ 8008 7997 7996 7995 ] final  173.12 input   59.86 | X-H torsion
[ 10167 10162 10161 10158 ] final   83.97 input  -65.29 | X-H torsion
[ 10718 10713 10712 10709 ] final   61.35 input   66.30 | X-H torsion
[ 10763 10752 10751 10750 ] final   72.57 input  -60.55 | X-H torsion
[ 11005 11000 10999 10996 ] final  -57.32 input  -57.11 | X-H torsion

> <Gold.Protein.ActiveResidues>
 VAL166  LYS551  ARG553  GLY616  TRP617  ASP618  TYR619  PRO620  LYS621  CYS622 
 ASP623  PHE694  ASN695  SER759  ASP760  ASP761  ALA762  ILE779  LEU786  VAL792 
 PHE793  MET794  SER795  GLU796  ALA797  LYS798  CYS799  TRP800  GLU811  SER814 

> <Gold.Protein.RotatedAtoms>
  152.5300  134.3044  159.9090 H   0  0  0  0  0  0  0  0  0  0  0  0  # atno 6907 bound_to 6896
  151.2994  133.4122  159.2646 H   0  0  0  0  0  0  0  0  0  0  0  0  # atno 6908 bound_to 6896
  151.0132  134.9429  159.8076 H   0  0  0  0  0  0  0  0  0  0  0  0  # atno 6909 bound_to 6896
  146.2084  140.3311  142.8399 H   0  0  0  0  0  0  0  0  0  0  0  0  # atno 7974 bound_to 7965
  156.1107  140.1468  156.9342 H   0  0  0  0  0  0  0  0  0  0  0  0  # atno 8008 bound_to 7997
  154.4765  140.0893  156.7318 H   0  0  0  0  0  0  0  0  0  0  0  0  # atno 8009 bound_to 7997
  155.4601  140.3438  155.4314 H   0  0  0  0  0  0  0  0  0  0  0  0  # atno 8010 bound_to 7997
  139.9129  144.6261  150.8519 H   0  0  0  0  0  0  0  0  0  0  0  0  # atno 10167 bound_to 10162
  157.5821  130.8990  149.9450 H   0  0  0  0  0  0  0  0  0  0  0  0  # atno 10718 bound_to 10713
  153.0467  135.5095  154.7763 H   0  0  0  0  0  0  0  0  0  0  0  0  # atno 10763 bound_to 10752
  154.6658  135.2945  154.9810 H   0  0  0  0  0  0  0  0  0  0  0  0  # atno 10764 bound_to 10752
  154.0645  135.6686  153.4868 H   0  0  0  0  0  0  0  0  0  0  0  0  # atno 10765 bound_to 10752
  141.1159  133.6610  156.4751 H   0  0  0  0  0  0  0  0  0  0  0  0  # atno 11005 bound_to 11000
  144.8851  140.7452  143.5962 LP  0  0  0  0  0  0  0  0  0  0  0  0  # atno 17320 bound_to 7965
  145.3233  139.1782  143.4576 LP  0  0  0  0  0  0  0  0  0  0  0  0  # atno 17321 bound_to 7965
  140.7681  143.3353  151.2323 LP  0  0  0  0  0  0  0  0  0  0  0  0  # atno 17342 bound_to 10162
  139.6927  143.9664  152.2867 LP  0  0  0  0  0  0  0  0  0  0  0  0  # atno 17343 bound_to 10162
  156.0868  130.3667  150.0472 LP  0  0  0  0  0  0  0  0  0  0  0  0  # atno 17370 bound_to 10713
  156.8609  130.9491  151.3618 LP  0  0  0  0  0  0  0  0  0  0  0  0  # atno 17371 bound_to 10713
  140.4646  134.6809  157.5101 LP  0  0  0  0  0  0  0  0  0  0  0  0  # atno 17394 bound_to 11000
  140.0081  134.6732  155.9423 LP  0  0  0  0  0  0  0  0  0  0  0  0  # atno 17395 bound_to 11000

$$$$
