AV-unprocessed.smi:1718|AV-procd|sdf|6926|dock8
  -GOLD-   22720 8133D 1   1.00000     0.00000
 Structure written by MMmdl.
 39 40  0  0  0  0  0  0  0  0  2 V2000
  148.9464  138.4446  156.9486 C   0  0  0  0  0  0  0  0  0  0  0  0
  149.5843  138.1735  158.3197 C   0  0  2  0  0  0  0  0  0  0  0  0
  150.9983  138.2491  158.1569 O   0  0  0  0  0  0  0  0  0  0  0  0
  151.5081  139.5262  157.7848 C   0  0  0  0  0  0  0  0  0  0  0  0
  152.1524  140.1972  159.0053 C   0  0  2  0  0  0  0  0  0  0  0  0
  151.6479  141.6152  159.3146 C   0  0  0  0  0  0  0  0  0  0  0  0
  152.9206  142.4302  159.4863 C   0  0  0  0  0  0  0  0  0  0  0  0
  154.0019  141.3703  159.6624 C   0  0  0  0  0  0  0  0  0  0  0  0
  153.5571  140.3184  158.8232 O   0  0  0  0  0  0  0  0  0  0  0  0
  149.1797  136.7957  158.8699 C   0  0  0  0  0  0  0  0  0  0  0  0
  149.5879  135.7779  158.3114 O   0  0  0  0  0  0  0  0  0  0  0  0
  148.4101  136.8251  159.9759 N   0  0  0  0  0  0  0  0  0  0  0  0
  147.8929  135.7690  160.7458 C   0  0  0  0  0  0  0  0  0  0  0  0
  147.9623  134.4497  160.4140 C   0  0  0  0  0  0  0  0  0  0  0  0
  147.4003  133.4025  161.2580 C   0  0  0  0  0  0  0  0  0  0  0  0
  147.5490  131.9185  160.9722 C   0  0  0  0  0  0  0  0  0  0  0  0
  146.3667  131.3031  161.0046 F   0  0  0  0  0  0  0  0  0  0  0  0
  148.0767  131.7405  159.7620 F   0  0  0  0  0  0  0  0  0  0  0  0
  148.3503  131.3370  161.8651 F   0  0  0  0  0  0  0  0  0  0  0  0
  146.8158  133.9084  162.4025 C   0  0  0  0  0  0  0  0  0  0  0  0
  146.6794  135.1951  162.7907 N   0  5  0  0  0  0  0  0  0  0  0  0
  147.2102  136.1659  161.9951 C   0  0  0  0  0  0  0  0  0  0  0  0
  147.1312  137.3581  162.2946 O   0  0  0  0  0  0  0  0  0  0  0  0
  147.8586  138.3816  156.9975 H   0  0  0  0  0  0  0  0  0  0  0  0
  149.2913  137.7335  156.1969 H   0  0  0  0  0  0  0  0  0  0  0  0
  149.2026  139.4438  156.5961 H   0  0  0  0  0  0  0  0  0  0  0  0
  149.2580  138.9571  159.0065 H   0  0  0  0  0  0  0  0  0  0  0  0
  152.2533  139.4096  156.9968 H   0  0  0  0  0  0  0  0  0  0  0  0
  150.7187  140.1690  157.3942 H   0  0  0  0  0  0  0  0  0  0  0  0
  151.9941  139.5685  159.8832 H   0  0  0  0  0  0  0  0  0  0  0  0
  151.0272  142.0285  158.5189 H   0  0  0  0  0  0  0  0  0  0  0  0
  151.0539  141.6148  160.2293 H   0  0  0  0  0  0  0  0  0  0  0  0
  153.1141  143.0040  158.5791 H   0  0  0  0  0  0  0  0  0  0  0  0
  152.8716  143.1271  160.3235 H   0  0  0  0  0  0  0  0  0  0  0  0
  154.9920  141.7252  159.3749 H   0  0  0  0  0  0  0  0  0  0  0  0
  154.0448  141.0223  160.6957 H   0  0  0  0  0  0  0  0  0  0  0  0
  148.1994  137.7417  160.3432 H   0  0  0  0  0  0  0  0  0  0  0  0
  148.4279  134.1301  159.4972 H   0  0  0  0  0  0  0  0  0  0  0  0
  146.4000  133.1665  163.1174 H   0  0  0  0  0  0  0  0  0  0  0  0
  1  2  1  0  0  0  0
  1 24  1  0  0  0  0
  1 25  1  0  0  0  0
  1 26  1  0  0  0  0
  2  3  1  0  0  0  0
  2 10  1  0  0  0  0
  2 27  1  0  0  0  0
  3  4  1  0  0  0  0
  4  5  1  0  0  0  0
  4 28  1  0  0  0  0
  4 29  1  0  0  0  0
  5  9  1  0  0  0  0
  5  6  1  0  0  0  0
  5 30  1  0  0  0  0
  6  7  1  0  0  0  0
  6 31  1  0  0  0  0
  6 32  1  0  0  0  0
  7  8  1  0  0  0  0
  7 33  1  0  0  0  0
  7 34  1  0  0  0  0
  8  9  1  0  0  0  0
  8 35  1  0  0  0  0
  8 36  1  0  0  0  0
 10 11  2  0  0  0  0
 10 12  1  0  0  0  0
 12 13  1  0  0  0  0
 12 37  1  0  0  0  0
 13 22  1  0  0  0  0
 13 14  2  0  0  0  0
 14 15  1  0  0  0  0
 14 38  1  0  0  0  0
 15 16  1  0  0  0  0
 15 20  2  0  0  0  0
 16 17  1  0  0  0  0
 16 18  1  0  0  0  0
 16 19  1  0  0  0  0
 20 21  1  0  0  0  0
 20 39  1  0  0  0  0
 21 22  1  0  0  0  0
 22 23  2  0  0  0  0
M  CHG  1  21  -1
M  END
> <s_m_source_file>
AV-unprocessed.smi

> <i_m_source_file_index>
1718

> <i_lp_mmshare_version>
43012

> <i_f3d_flags>
0

> <s_epik_input>
TzFbQ0gyXVtDSDJdW0NIMl1bQ0BIXTFbQ0gyXU9bQ0BASF0oW0NIM10pQyg9TylbTkhdYzJbY0hdYyhDKEYpKEYpRilbY0hdW25IXWMyPU8=

> <s_epik_cmdline>
J2VwaWtfcHl0aG9uJywgJy1waCcsICc3LjAnLCAnLXRuJywgJzgnLCAnLW1hJywgJzIwMCcsICctbWV0YWxfYmluZGluZycsICctaW1hZScsICc8aW5maWxlLm1hZT4nLCAnLW9tYWUnLCAnPG91dGZpbGUubWFlPic=

> <r_epik_Ionization_Penalty>
2.5466

> <r_epik_Ionization_Penalty_Charging>
0.0575837

> <r_epik_Ionization_Penalty_Neutral>
2.48901

> <r_epik_State_Penalty>
2.6532

> <r_epik_Charging_Adjusted_Penalty>
2.71078

> <i_epik_Tot_Q>
-1

> <i_epik_Tot_abs_Q>
1

> <r_epik_Metal_State_Penalty>
0.516196

> <b_epik_Metal_Only>
0

> <s_lp_Force_Field>
OPLS_2005

> <r_lp_Energy>
37.3435

> <b_lp_Chiralities_Consistent>
1

> <s_lp_Variant>
AV-unprocessed.smi:1718-5

> <Gold.Version>
5.8.1

> <Gold.Id.Protein>
6NUR|6NUR_protein|mol2

> <Gold.PLP.Fitness>
46.5544

> <Gold.PLP.PLP>
-39.7288

> <Gold.PLP.part.hbond>
-4.0000

> <Gold.PLP.part.metal>
0.0000

> <Gold.PLP.part.buried>
-4.9399

> <Gold.PLP.part.nonpolar>
-30.6417

> <Gold.PLP.part.repulsive>
0.3461

> <Gold.PLP.ligand.clash>
0.0000

> <Gold.PLP.ligand.torsion>
1.3197

> <Gold.PLP.Chemscore.Hbond>
3.1110

> <Gold.PLP.Chemscore.CHOScore>
0.0000

> <Gold.PLP.Chemscore.Metal>
0.0000

> <Gold.Chemscore.Hbonds>
donor molecule, donor type, donor heavy atom, donor atom, acceptor molecule, acceptor atom, score
      P1  H  6896  6908       L1    11  1.00
      P1  H  6931  6943       L1    23  0.55
      P1  H  6934  6947       L1    23  0.46
      P1  H  7997  8010       L1     9  0.80

> <Gold.PLP.Chemscore.Internal.Correction>
0.1319

> <Gold.Rescore>
     Score         DG    S(hbond)    S(metal)    S(lipo)     H(rot)  DE(clash)    DE(int)     intcor
     16.61     -19.24       2.93        0.00      74.42       1.85       0.06       2.57       ----

> <Gold.Chemscore.Fitness>
16.6093

> <Gold.Chemscore.DG>
-19.2408

> <Gold.Chemscore.ZeroCoef>
-5.4800

> <Gold.Chemscore.Hbond>
2.9275

> <Gold.Chemscore.Metal>
0.0000

> <Gold.Chemscore.Lipo>
74.4212

> <Gold.Chemscore.Internal_Hbond>
0.0000

> <Gold.Chemscore.DEClash>
0.0595

> <Gold.Chemscore.DEInternal>
2.5720

> <Gold.Chemscore.Rot>
1.8455

> <Gold.Chemscore.Internal.Correction>
   9.000000E+99

> <Gold.Chemscore.Hbonds>
donor molecule, donor type, donor heavy atom, donor atom, acceptor molecule, acceptor atom, score
      P1  H  6896  6908       L1    11  0.69
      P1  H  6931  6943       L1    23  0.39
      P1  H  6934  6947       L1    23  0.45
      P1  H  7997  8010       L1     9  0.59

> <Gold.Chemscore.Hbond.Weighted>
-9.7780

> <Gold.Chemscore.Metal.Weighted>
-0.0000

> <Gold.Chemscore.Lipo.Weighted>
-8.7073

> <Gold.Chemscore.Internal_Hbond.Weighted>
0.0000

> <Gold.Chemscore.DEClash.Weighted>
0.0595

> <Gold.Chemscore.DEInternal.Weighted>
2.5720

> <Gold.Chemscore.Rot.Weighted>
4.7245

> <Gold.Chemscore.Internal.Correction.Weighted>
   9.000000E+99

> <Gold.Protein.RotatedTorsions>
[ 6907 6896 6895 6894 ] final  177.78 input  -60.11 | X-H torsion
[ 7974 7965 7964 7962 ] final    5.39 input  175.53 | X-H torsion
[ 8008 7997 7996 7995 ] final   16.16 input   59.86 | X-H torsion
[ 10167 10162 10161 10158 ] final  140.34 input  -65.29 | X-H torsion
[ 10718 10713 10712 10709 ] final  152.36 input   66.30 | X-H torsion
[ 10763 10752 10751 10750 ] final -112.57 input  -60.55 | X-H torsion
[ 11005 11000 10999 10996 ] final  136.84 input  -57.11 | X-H torsion

> <Gold.Protein.ActiveResidues>
 VAL166  LYS551  ARG553  GLY616  TRP617  ASP618  TYR619  PRO620  LYS621  CYS622 
 ASP623  PHE694  ASN695  SER759  ASP760  ASP761  ALA762  ILE779  LEU786  VAL792 
 PHE793  MET794  SER795  GLU796  ALA797  LYS798  CYS799  TRP800  GLU811  SER814 

> <Gold.Protein.RotatedAtoms>
  151.6984  133.3311  159.3260 H   0  0  0  0  0  0  0  0  0  0  0  0  # atno 6907 bound_to 6896
  150.7747  134.6637  159.6363 H   0  0  0  0  0  0  0  0  0  0  0  0  # atno 6908 bound_to 6896
  152.3784  134.6630  160.0203 H   0  0  0  0  0  0  0  0  0  0  0  0  # atno 6909 bound_to 6896
  146.2440  140.0391  142.8383 H   0  0  0  0  0  0  0  0  0  0  0  0  # atno 7974 bound_to 7965
  154.8730  140.2961  155.5470 H   0  0  0  0  0  0  0  0  0  0  0  0  # atno 8008 bound_to 7997
  156.3021  140.2456  156.3655 H   0  0  0  0  0  0  0  0  0  0  0  0  # atno 8009 bound_to 7997
  154.8797  140.0398  157.1764 H   0  0  0  0  0  0  0  0  0  0  0  0  # atno 8010 bound_to 7997
  139.5052  144.6240  151.5982 H   0  0  0  0  0  0  0  0  0  0  0  0  # atno 10167 bound_to 10162
  157.2588  131.0794  151.1680 H   0  0  0  0  0  0  0  0  0  0  0  0  # atno 10718 bound_to 10713
  154.8355  135.4486  154.1214 H   0  0  0  0  0  0  0  0  0  0  0  0  # atno 10763 bound_to 10752
  153.2449  135.6920  153.7749 H   0  0  0  0  0  0  0  0  0  0  0  0  # atno 10764 bound_to 10752
  153.7083  135.3361  155.3216 H   0  0  0  0  0  0  0  0  0  0  0  0  # atno 10765 bound_to 10752
  140.0073  134.9454  157.0203 H   0  0  0  0  0  0  0  0  0  0  0  0  # atno 11005 bound_to 11000
  145.1085  140.9390  143.4670 LP  0  0  0  0  0  0  0  0  0  0  0  0  # atno 17320 bound_to 7965
  145.0600  139.3113  143.5885 LP  0  0  0  0  0  0  0  0  0  0  0  0  # atno 17321 bound_to 7965
  140.5951  143.9710  150.6349 LP  0  0  0  0  0  0  0  0  0  0  0  0  # atno 17342 bound_to 10162
  140.2903  143.3328  152.1068 LP  0  0  0  0  0  0  0  0  0  0  0  0  # atno 17343 bound_to 10162
  157.3198  130.6931  149.6262 LP  0  0  0  0  0  0  0  0  0  0  0  0  # atno 17370 bound_to 10713
  155.9664  130.4339  150.5025 LP  0  0  0  0  0  0  0  0  0  0  0  0  # atno 17371 bound_to 10713
  140.4618  134.1477  155.7192 LP  0  0  0  0  0  0  0  0  0  0  0  0  # atno 17394 bound_to 11000
  141.1686  133.8654  157.1640 LP  0  0  0  0  0  0  0  0  0  0  0  0  # atno 17395 bound_to 11000

$$$$
