AV-unprocessed.smi:3303|AV-procd|sdf|12678|dock3
  -GOLD-   2272019 13D 1   1.00000     0.00000
 Structure written by MMmdl.
 44 45  0  0  0  0  0  0  0  0  2 V2000
  151.8846  140.4563  156.7980 C   0  0  0  0  0  0  0  0  0  0  0  0
  151.3483  141.3425  157.9348 C   0  0  1  0  0  0  0  0  0  0  0  0
  152.4915  141.6940  158.9095 C   0  0  0  0  0  0  0  0  0  0  0  0
  152.0040  142.5396  159.9990 N   0  0  0  0  0  0  0  0  0  0  0  0
  153.0356  142.7065  161.0152 C   0  0  0  0  0  0  0  0  0  0  0  0
  151.4527  143.8199  159.5311 C   0  0  1  0  0  0  0  0  0  0  0  0
  152.4913  144.7787  158.9050 C   0  0  0  0  0  0  0  0  0  0  0  0
  150.2709  143.5279  158.5844 C   0  0  0  0  0  0  0  0  0  0  0  0
  150.6679  142.6229  157.4037 C   0  0  2  0  0  0  0  0  0  0  0  0
  149.4637  142.2858  156.6121 N   0  3  0  0  0  0  0  0  0  0  0  0
  148.4503  141.4896  157.3322 C   0  0  0  0  0  0  0  0  0  0  0  0
  147.4551  140.8519  156.3535 C   0  0  0  0  0  0  0  0  0  0  0  0
  146.6205  141.8896  155.6272 C   0  0  0  0  0  0  0  0  0  0  0  0
  146.7987  142.1201  154.2463 C   0  0  0  0  0  0  0  0  0  0  0  0
  146.0033  143.1007  153.6223 C   0  0  0  0  0  0  0  0  0  0  0  0
  145.0658  143.8083  154.3989 C   0  0  0  0  0  0  0  0  0  0  0  0
  144.9662  143.5049  155.7715 C   0  0  0  0  0  0  0  0  0  0  0  0
  145.7258  142.5680  156.3803 N   0  0  0  0  0  0  0  0  0  0  0  0
  152.6209  140.9890  156.1952 H   0  0  0  0  0  0  0  0  0  0  0  0
  151.0863  140.1253  156.1336 H   0  0  0  0  0  0  0  0  0  0  0  0
  152.3667  139.5623  157.1947 H   0  0  0  0  0  0  0  0  0  0  0  0
  150.6071  140.7635  158.4886 H   0  0  0  0  0  0  0  0  0  0  0  0
  152.8941  140.7720  159.3313 H   0  0  0  0  0  0  0  0  0  0  0  0
  153.3148  142.1799  158.3853 H   0  0  0  0  0  0  0  0  0  0  0  0
  152.6760  143.3345  161.8307 H   0  0  0  0  0  0  0  0  0  0  0  0
  153.9404  143.1553  160.6049 H   0  0  0  0  0  0  0  0  0  0  0  0
  153.3070  141.7390  161.4389 H   0  0  0  0  0  0  0  0  0  0  0  0
  151.0429  144.3255  160.4066 H   0  0  0  0  0  0  0  0  0  0  0  0
  152.0091  145.7002  158.5781 H   0  0  0  0  0  0  0  0  0  0  0  0
  152.9909  144.3532  158.0354 H   0  0  0  0  0  0  0  0  0  0  0  0
  153.2595  145.0686  159.6213 H   0  0  0  0  0  0  0  0  0  0  0  0
  149.4754  143.0472  159.1564 H   0  0  0  0  0  0  0  0  0  0  0  0
  149.8512  144.4642  158.2142 H   0  0  0  0  0  0  0  0  0  0  0  0
  151.3790  143.1604  156.7744 H   0  0  0  0  0  0  0  0  0  0  0  0
  149.0328  143.1504  156.3171 H   0  0  0  0  0  0  0  0  0  0  0  0
  148.9519  140.7187  157.9190 H   0  0  0  0  0  0  0  0  0  0  0  0
  147.9172  142.1352  158.0313 H   0  0  0  0  0  0  0  0  0  0  0  0
  147.9889  140.2456  155.6202 H   0  0  0  0  0  0  0  0  0  0  0  0
  146.7884  140.1719  156.8863 H   0  0  0  0  0  0  0  0  0  0  0  0
  147.5267  141.5614  153.6763 H   0  0  0  0  0  0  0  0  0  0  0  0
  146.1110  143.3070  152.5675 H   0  0  0  0  0  0  0  0  0  0  0  0
  144.4382  144.5660  153.9533 H   0  0  0  0  0  0  0  0  0  0  0  0
  144.2590  144.0294  156.3971 H   0  0  0  0  0  0  0  0  0  0  0  0
  149.7524  141.7759  155.7892 H   0  0  0  0  0  0  0  0  0  0  0  0
  1  2  1  0  0  0  0
  1 19  1  0  0  0  0
  1 20  1  0  0  0  0
  1 21  1  0  0  0  0
  2  9  1  0  0  0  0
  2  3  1  0  0  0  0
  2 22  1  0  0  0  0
  3  4  1  0  0  0  0
  3 23  1  0  0  0  0
  3 24  1  0  0  0  0
  4  5  1  0  0  0  0
  4  6  1  0  0  0  0
  5 25  1  0  0  0  0
  5 26  1  0  0  0  0
  5 27  1  0  0  0  0
  6  7  1  0  0  0  0
  6  8  1  0  0  0  0
  6 28  1  0  0  0  0
  7 29  1  0  0  0  0
  7 30  1  0  0  0  0
  7 31  1  0  0  0  0
  8  9  1  0  0  0  0
  8 32  1  0  0  0  0
  8 33  1  0  0  0  0
  9 10  1  0  0  0  0
  9 34  1  0  0  0  0
 10 11  1  0  0  0  0
 10 35  1  0  0  0  0
 10 44  1  0  0  0  0
 11 12  1  0  0  0  0
 11 36  1  0  0  0  0
 11 37  1  0  0  0  0
 12 13  1  0  0  0  0
 12 38  1  0  0  0  0
 12 39  1  0  0  0  0
 13 18  1  0  0  0  0
 13 14  2  0  0  0  0
 14 15  1  0  0  0  0
 14 40  1  0  0  0  0
 15 16  2  0  0  0  0
 15 41  1  0  0  0  0
 16 17  1  0  0  0  0
 16 42  1  0  0  0  0
 17 18  2  0  0  0  0
 17 43  1  0  0  0  0
M  CHG  1  10   1
M  END
> <s_m_source_file>
AV-unprocessed.smi

> <i_m_source_file_index>
3303

> <i_lp_mmshare_version>
43012

> <i_f3d_flags>
0

> <s_epik_input>
W0NIM11bQ0BASF0xW0NIMl1OKFtDSDNdKVtDQEBIXShbQ0gzXSlbQ0gyXVtDQEhdMVtOSF1bQ0gyXVtDSDJdYzJbY0hdW2NIXVtjSF1bY0hdbjI=

> <s_epik_cmdline>
J2VwaWtfcHl0aG9uJywgJy1waCcsICc3LjAnLCAnLXRuJywgJzgnLCAnLW1hJywgJzIwMCcsICctbWV0YWxfYmluZGluZycsICctaW1hZScsICc8aW5maWxlLm1hZT4nLCAnLW9tYWUnLCAnPG91dGZpbGUubWFlPic=

> <r_epik_Ionization_Penalty>
1.37325

> <r_epik_Ionization_Penalty_Charging>
0.000251572

> <r_epik_Ionization_Penalty_Neutral>
1.373

> <r_epik_State_Penalty>
1.46343

> <r_epik_Charging_Adjusted_Penalty>
1.46368

> <i_epik_Tot_Q>
1

> <i_epik_Tot_abs_Q>
1

> <r_epik_Metal_State_Penalty>
1.46331

> <b_epik_Metal_Only>
0

> <s_lp_Force_Field>
OPLS_2005

> <r_lp_Energy>
23.1884

> <b_lp_Chiralities_Consistent>
1

> <s_lp_Variant>
AV-unprocessed.smi:3303-22

> <Gold.Version>
5.8.1

> <Gold.Id.Protein>
6NUR|6NUR_protein|mol2

> <Gold.PLP.Fitness>
44.1277

> <Gold.PLP.PLP>
-38.4192

> <Gold.PLP.part.hbond>
-1.0000

> <Gold.PLP.part.metal>
0.0000

> <Gold.PLP.part.buried>
-6.7202

> <Gold.PLP.part.nonpolar>
-30.6841

> <Gold.PLP.part.repulsive>
0.1517

> <Gold.PLP.ligand.clash>
0.0000

> <Gold.PLP.ligand.torsion>
0.1567

> <Gold.PLP.Chemscore.Hbond>
2.0000

> <Gold.PLP.Chemscore.CHOScore>
0.0000

> <Gold.PLP.Chemscore.Metal>
0.0000

> <Gold.Chemscore.Hbonds>
donor molecule, donor type, donor heavy atom, donor atom, acceptor molecule, acceptor atom, score
      L1  H    10    35       P1  8028  2.00

> <Gold.PLP.Chemscore.Internal.Correction>
0.0219

> <Gold.Rescore>
     Score         DG    S(hbond)    S(metal)    S(lipo)     H(rot)  DE(clash)    DE(int)     intcor
     17.71     -17.85       0.99        0.00     106.53       1.33       0.05       0.08       ----

> <Gold.Chemscore.Fitness>
17.7144

> <Gold.Chemscore.DG>
-17.8483

> <Gold.Chemscore.ZeroCoef>
-5.4800

> <Gold.Chemscore.Hbond>
0.9905

> <Gold.Chemscore.Metal>
0.0000

> <Gold.Chemscore.Lipo>
106.5333

> <Gold.Chemscore.Internal_Hbond>
0.0000

> <Gold.Chemscore.DEClash>
0.0533

> <Gold.Chemscore.DEInternal>
0.0806

> <Gold.Chemscore.Rot>
1.3298

> <Gold.Chemscore.Internal.Correction>
   9.000000E+99

> <Gold.Chemscore.Hbonds>
donor molecule, donor type, donor heavy atom, donor atom, acceptor molecule, acceptor atom, score
      L1  H    10    35       P1  8028  0.99

> <Gold.Chemscore.Hbond.Weighted>
-3.3082

> <Gold.Chemscore.Metal.Weighted>
-0.0000

> <Gold.Chemscore.Lipo.Weighted>
-12.4644

> <Gold.Chemscore.Internal_Hbond.Weighted>
0.0000

> <Gold.Chemscore.DEClash.Weighted>
0.0533

> <Gold.Chemscore.DEInternal.Weighted>
0.0806

> <Gold.Chemscore.Rot.Weighted>
3.4043

> <Gold.Chemscore.Internal.Correction.Weighted>
   9.000000E+99

> <Gold.Protein.RotatedTorsions>
[ 6907 6896 6895 6894 ] final  -56.13 input  -60.11 | X-H torsion
[ 7974 7965 7964 7962 ] final -121.29 input  175.53 | X-H torsion
[ 8008 7997 7996 7995 ] final  -28.34 input   59.86 | X-H torsion
[ 10167 10162 10161 10158 ] final  135.01 input  -65.29 | X-H torsion
[ 10718 10713 10712 10709 ] final -162.61 input   66.30 | X-H torsion
[ 10763 10752 10751 10750 ] final  -21.42 input  -60.55 | X-H torsion
[ 11005 11000 10999 10996 ] final  169.41 input  -57.11 | X-H torsion

> <Gold.Protein.ActiveResidues>
 VAL166  LYS551  ARG553  GLY616  TRP617  ASP618  TYR619  PRO620  LYS621  CYS622 
 ASP623  PHE694  ASN695  SER759  ASP760  ASP761  ALA762  ILE779  LEU786  VAL792 
 PHE793  MET794  SER795  GLU796  ALA797  LYS798  CYS799  TRP800  GLU811  SER814 

> <Gold.Protein.RotatedAtoms>
  150.8193  134.7392  159.6757 H   0  0  0  0  0  0  0  0  0  0  0  0  # atno 6907 bound_to 6896
  152.4309  134.5775  159.9948 H   0  0  0  0  0  0  0  0  0  0  0  0  # atno 6908 bound_to 6896
  151.5964  133.3323  159.3074 H   0  0  0  0  0  0  0  0  0  0  0  0  # atno 6909 bound_to 6896
  145.0419  140.8151  143.4261 H   0  0  0  0  0  0  0  0  0  0  0  0  # atno 7974 bound_to 7965
  154.4336  140.1848  156.1075 H   0  0  0  0  0  0  0  0  0  0  0  0  # atno 8008 bound_to 7997
  156.0244  140.3337  155.7047 H   0  0  0  0  0  0  0  0  0  0  0  0  # atno 8009 bound_to 7997
  155.5930  140.0633  157.2744 H   0  0  0  0  0  0  0  0  0  0  0  0  # atno 8010 bound_to 7997
  139.5233  144.6538  151.5222 H   0  0  0  0  0  0  0  0  0  0  0  0  # atno 10167 bound_to 10162
  156.6128  130.8858  151.2940 H   0  0  0  0  0  0  0  0  0  0  0  0  # atno 10718 bound_to 10713
  153.6358  135.6987  153.5259 H   0  0  0  0  0  0  0  0  0  0  0  0  # atno 10763 bound_to 10752
  153.2822  135.4182  155.1089 H   0  0  0  0  0  0  0  0  0  0  0  0  # atno 10764 bound_to 10752
  154.8511  135.3605  154.5902 H   0  0  0  0  0  0  0  0  0  0  0  0  # atno 10765 bound_to 10752
  140.2975  134.7623  157.3889 H   0  0  0  0  0  0  0  0  0  0  0  0  # atno 11005 bound_to 11000
  145.1636  139.2444  143.5378 LP  0  0  0  0  0  0  0  0  0  0  0  0  # atno 17320 bound_to 7965
  146.3510  140.1370  142.8595 LP  0  0  0  0  0  0  0  0  0  0  0  0  # atno 17321 bound_to 7965
  140.6355  143.8992  150.6643 LP  0  0  0  0  0  0  0  0  0  0  0  0  # atno 17342 bound_to 10162
  140.2310  143.3735  152.1565 LP  0  0  0  0  0  0  0  0  0  0  0  0  # atno 17343 bound_to 10162
  157.7249  130.9609  150.1593 LP  0  0  0  0  0  0  0  0  0  0  0  0  # atno 17370 bound_to 10713
  156.2375  130.3688  149.8374 LP  0  0  0  0  0  0  0  0  0  0  0  0  # atno 17371 bound_to 10713
  140.1139  134.5308  155.8241 LP  0  0  0  0  0  0  0  0  0  0  0  0  # atno 17394 bound_to 11000
  141.2134  133.6734  156.6741 LP  0  0  0  0  0  0  0  0  0  0  0  0  # atno 17395 bound_to 11000

$$$$
