AV-unprocessed.smi:40|AV-procd|sdf|373|dock2
  -GOLD-   2262016223D 1   1.00000     0.00000
 Structure written by MMmdl.
 47 48  0  0  0  0  0  0  0  0  1 V2000
  151.5068  144.8337  159.2249 C   0  0  0  0  0  0  0  0  0  0  0  0
  152.6448  143.9700  159.7848 C   0  0  0  0  0  0  0  0  0  0  0  0
  152.5973  142.5045  159.3223 C   0  0  0  0  0  0  0  0  0  0  0  0
  153.7400  141.6405  159.8855 C   0  0  0  0  0  0  0  0  0  0  0  0
  153.6229  140.1592  159.5012 C   0  0  0  0  0  0  0  0  0  0  0  0
  153.2068  140.0647  158.1487 O   0  0  0  0  0  0  0  0  0  0  0  0
  151.9107  139.8866  157.8316 C   0  0  0  0  0  0  0  0  0  0  0  0
  150.9999  139.7902  158.6534 O   0  0  0  0  0  0  0  0  0  0  0  0
  151.7445  139.7887  156.3951 N   0  0  0  0  0  0  0  0  0  0  0  0
  150.5798  139.6084  155.7342 C   0  0  0  0  0  0  0  0  0  0  0  0
  150.0109  140.6747  155.2048 N   0  0  0  0  0  0  0  0  0  0  0  0
  148.8224  140.6428  154.5259 C   0  0  0  0  0  0  0  0  0  0  0  0
  148.3234  141.6779  154.0871 O   0  0  0  0  0  0  0  0  0  0  0  0
  148.1941  139.3849  154.3557 N   0  0  0  0  0  0  0  0  0  0  0  0
  146.8568  139.3488  153.6344 C   0  0  2  0  0  0  0  0  0  0  0  0
  145.8424  138.9866  154.5226 O   0  0  0  0  0  0  0  0  0  0  0  0
  145.6217  137.5855  154.4422 C   0  0  1  0  0  0  0  0  0  0  0  0
  144.2401  137.2374  155.0068 C   0  0  0  0  0  0  0  0  0  0  0  0
  145.7843  137.2916  152.9513 C   0  0  2  0  0  0  0  0  0  0  0  0
  146.2294  135.9633  152.7630 O   0  0  0  0  0  0  0  0  0  0  0  0
  146.8488  138.2932  152.5029 C   0  0  1  0  0  0  0  0  0  0  0  0
  146.4847  138.8648  151.2627 O   0  0  0  0  0  0  0  0  0  0  0  0
  148.7766  138.2538  154.9156 C   0  0  0  0  0  0  0  0  0  0  0  0
  149.9457  138.3103  155.5885 C   0  0  0  0  0  0  0  0  0  0  0  0
  150.4919  137.1900  156.0929 F   0  0  0  0  0  0  0  0  0  0  0  0
  146.7013  140.3750  153.2953 H   0  0  0  0  0  0  0  0  0  0  0  0
  146.3965  137.0706  155.0124 H   0  0  0  0  0  0  0  0  0  0  0  0
  144.8408  137.4555  152.4277 H   0  0  0  0  0  0  0  0  0  0  0  0
  147.8299  137.8230  152.4175 H   0  0  0  0  0  0  0  0  0  0  0  0
  151.5530  145.8433  159.6336 H   0  0  0  0  0  0  0  0  0  0  0  0
  150.5329  144.4167  159.4819 H   0  0  0  0  0  0  0  0  0  0  0  0
  151.5618  144.9176  158.1399 H   0  0  0  0  0  0  0  0  0  0  0  0
  153.6070  144.4106  159.5212 H   0  0  0  0  0  0  0  0  0  0  0  0
  152.5911  143.9932  160.8736 H   0  0  0  0  0  0  0  0  0  0  0  0
  151.6427  142.0819  159.6380 H   0  0  0  0  0  0  0  0  0  0  0  0
  152.6004  142.4606  158.2326 H   0  0  0  0  0  0  0  0  0  0  0  0
  154.6958  142.0163  159.5215 H   0  0  0  0  0  0  0  0  0  0  0  0
  153.7693  141.7290  160.9721 H   0  0  0  0  0  0  0  0  0  0  0  0
  154.5773  139.6477  159.6297 H   0  0  0  0  0  0  0  0  0  0  0  0
  152.8995  139.6741  160.1581 H   0  0  0  0  0  0  0  0  0  0  0  0
  152.5824  139.9520  155.8565 H   0  0  0  0  0  0  0  0  0  0  0  0
  144.0419  136.1686  154.9238 H   0  0  0  0  0  0  0  0  0  0  0  0
  143.4500  137.7675  154.4745 H   0  0  0  0  0  0  0  0  0  0  0  0
  144.1715  137.5087  156.0604 H   0  0  0  0  0  0  0  0  0  0  0  0
  147.1234  135.9856  152.4579 H   0  0  0  0  0  0  0  0  0  0  0  0
  145.5861  138.6375  151.0793 H   0  0  0  0  0  0  0  0  0  0  0  0
  148.3092  137.2850  154.8318 H   0  0  0  0  0  0  0  0  0  0  0  0
  1  2  1  0  0  0  0
  1 30  1  0  0  0  0
  1 31  1  0  0  0  0
  1 32  1  0  0  0  0
  2  3  1  0  0  0  0
  2 33  1  0  0  0  0
  2 34  1  0  0  0  0
  3  4  1  0  0  0  0
  3 35  1  0  0  0  0
  3 36  1  0  0  0  0
  4  5  1  0  0  0  0
  4 37  1  0  0  0  0
  4 38  1  0  0  0  0
  5  6  1  0  0  0  0
  5 39  1  0  0  0  0
  5 40  1  0  0  0  0
  6  7  1  0  0  0  0
  7  8  2  0  0  0  0
  7  9  1  0  0  0  0
  9 10  1  0  0  0  0
  9 41  1  0  0  0  0
 10 24  1  0  0  0  0
 10 11  2  0  0  0  0
 11 12  1  0  0  0  0
 12 13  2  0  0  0  0
 12 14  1  0  0  0  0
 14 15  1  0  0  0  0
 14 23  1  0  0  0  0
 15 26  1  0  0  0  0
 15 21  1  0  0  0  0
 15 16  1  0  0  0  0
 16 17  1  0  0  0  0
 17 27  1  0  0  0  0
 17 18  1  0  0  0  0
 17 19  1  0  0  0  0
 18 42  1  0  0  0  0
 18 43  1  0  0  0  0
 18 44  1  0  0  0  0
 19 28  1  0  0  0  0
 19 20  1  0  0  0  0
 19 21  1  0  0  0  0
 20 45  1  0  0  0  0
 21 29  1  0  0  0  0
 21 22  1  0  0  0  0
 22 46  1  0  0  0  0
 23 24  2  0  0  0  0
 23 47  1  0  0  0  0
 24 25  1  0  0  0  0
M  END
> <s_m_source_file>
AV-unprocessed.smi

> <i_m_source_file_index>
40

> <i_lp_mmshare_version>
43012

> <i_f3d_flags>
0

> <s_epik_input>
W0NIM11bQ0gyXVtDSDJdW0NIMl1bQ0gyXU9DKD1PKVtOSF1jMW5jKD1PKW4oW2NIXWMxRilbQ0BASF0yT1tDQEhdKFtDSDNdKVtDQEBIXShbT0hdKVtDQEhdMltPSF0=

> <s_epik_cmdline>
J2VwaWtfcHl0aG9uJywgJy1waCcsICc3LjAnLCAnLXRuJywgJzgnLCAnLW1hJywgJzIwMCcsICctbWV0YWxfYmluZGluZycsICctaW1hZScsICc8aW5maWxlLm1hZT4nLCAnLW9tYWUnLCAnPG91dGZpbGUubWFlPic=

> <r_lp_tautomer_probability>
1

> <r_epik_Ionization_Penalty>
2.29506e-06

> <r_epik_Ionization_Penalty_Charging>
8.26867e-09

> <r_epik_Ionization_Penalty_Neutral>
2.2868e-06

> <r_epik_State_Penalty>
-0

> <r_epik_Charging_Adjusted_Penalty>
8.26867e-09

> <i_epik_Tot_Q>
0

> <i_epik_Tot_abs_Q>
0

> <r_epik_Metal_State_Penalty>
-0

> <b_epik_Metal_Only>
0

> <s_epik_Chemistry_Notes>
This compound has an ester and may undergo hydrolysis at high or low pH. This compound contains an acetal/aminal-like group ( X-CH(R)-Y where X, Y are N, S, or O) that may be acid/base labile, releasing an aldehyde.

> <s_lp_Force_Field>
OPLS_2005

> <r_lp_Energy>
31.7957

> <b_lp_Chiralities_Consistent>
1

> <s_lp_Variant>
AV-unprocessed.smi:40-7

> <Gold.Version>
5.8.1

> <Gold.Id.Protein>
6NUR|6NUR_protein|mol2

> <Gold.PLP.Fitness>
49.9620

> <Gold.PLP.PLP>
-40.1365

> <Gold.PLP.part.hbond>
-6.8744

> <Gold.PLP.part.metal>
0.0000

> <Gold.PLP.part.buried>
-1.4891

> <Gold.PLP.part.nonpolar>
-32.8709

> <Gold.PLP.part.repulsive>
1.1107

> <Gold.PLP.ligand.clash>
0.0000

> <Gold.PLP.ligand.torsion>
1.1661

> <Gold.PLP.Chemscore.Hbond>
3.9753

> <Gold.PLP.Chemscore.CHOScore>
0.0000

> <Gold.PLP.Chemscore.Metal>
0.0000

> <Gold.Chemscore.Hbonds>
donor molecule, donor type, donor heavy atom, donor atom, acceptor molecule, acceptor atom, score
      L1  H    20    45       P1  7948  1.00
      L1  H    22    46       P1 10171  0.78
      P1  H  7954  7966       L1    22  0.12
      P1  H  7989  7998       L1    11  0.12
      P1  H  8011  8017       L1    13  0.04

> <Gold.PLP.Chemscore.Internal.Correction>
0.2318

> <Gold.Rescore>
     Score         DG    S(hbond)    S(metal)    S(lipo)     H(rot)  DE(clash)    DE(int)     intcor
     10.45     -14.19       2.60        0.00      81.23       3.70       2.56       1.19       ----

> <Gold.Chemscore.Fitness>
10.4453

> <Gold.Chemscore.DG>
-14.1938

> <Gold.Chemscore.ZeroCoef>
-5.4800

> <Gold.Chemscore.Hbond>
2.5961

> <Gold.Chemscore.Metal>
0.0000

> <Gold.Chemscore.Lipo>
81.2296

> <Gold.Chemscore.Internal_Hbond>
0.0000

> <Gold.Chemscore.DEClash>
2.5563

> <Gold.Chemscore.DEInternal>
1.1922

> <Gold.Chemscore.Rot>
3.6957

> <Gold.Chemscore.Internal.Correction>
   9.000000E+99

> <Gold.Chemscore.Hbonds>
donor molecule, donor type, donor heavy atom, donor atom, acceptor molecule, acceptor atom, score
      L1  H    20    45       P1  7948  1.00
      L1  H    22    46       P1 10171  0.73
      P1  H  7954  7966       L1    22  0.03
      P1  H  7989  7998       L1    11  0.01
      P1  H  8011  8017       L1    13  0.03

> <Gold.Chemscore.Hbond.Weighted>
-8.6709

> <Gold.Chemscore.Metal.Weighted>
-0.0000

> <Gold.Chemscore.Lipo.Weighted>
-9.5039

> <Gold.Chemscore.Internal_Hbond.Weighted>
0.0000

> <Gold.Chemscore.DEClash.Weighted>
2.5563

> <Gold.Chemscore.DEInternal.Weighted>
1.1922

> <Gold.Chemscore.Rot.Weighted>
9.4610

> <Gold.Chemscore.Internal.Correction.Weighted>
   9.000000E+99

> <Gold.Protein.RotatedTorsions>
[ 6907 6896 6895 6894 ] final  -30.14 input  -60.11 | X-H torsion
[ 7974 7965 7964 7962 ] final -160.36 input  175.53 | X-H torsion
[ 8008 7997 7996 7995 ] final -100.72 input   59.86 | X-H torsion
[ 10167 10162 10161 10158 ] final -152.95 input  -65.29 | X-H torsion
[ 10718 10713 10712 10709 ] final   40.05 input   66.30 | X-H torsion
[ 10763 10752 10751 10750 ] final -153.64 input  -60.55 | X-H torsion
[ 11005 11000 10999 10996 ] final  139.26 input  -57.11 | X-H torsion

> <Gold.Protein.ActiveResidues>
 VAL166  LYS551  ARG553  GLY616  TRP617  ASP618  TYR619  PRO620  LYS621  CYS622 
 ASP623  PHE694  ASN695  SER759  ASP760  ASP761  ALA762  ILE779  LEU786  VAL792 
 PHE793  MET794  SER795  GLU796  ALA797  LYS798  CYS799  TRP800  GLU811  SER814 

> <Gold.Protein.RotatedAtoms>
  151.1095  135.0019  159.8487 H   0  0  0  0  0  0  0  0  0  0  0  0  # atno 6907 bound_to 6896
  152.5442  134.1852  159.8662 H   0  0  0  0  0  0  0  0  0  0  0  0  # atno 6908 bound_to 6896
  151.1902  133.4627  159.2628 H   0  0  0  0  0  0  0  0  0  0  0  0  # atno 6909 bound_to 6896
  144.7430  140.3553  143.6107 H   0  0  0  0  0  0  0  0  0  0  0  0  # atno 7974 bound_to 7965
  154.8325  140.0439  157.1487 H   0  0  0  0  0  0  0  0  0  0  0  0  # atno 8008 bound_to 7997
  154.9136  140.3017  155.5233 H   0  0  0  0  0  0  0  0  0  0  0  0  # atno 8009 bound_to 7997
  156.2988  140.2353  156.4178 H   0  0  0  0  0  0  0  0  0  0  0  0  # atno 8010 bound_to 7997
  139.7138  143.9066  152.2478 H   0  0  0  0  0  0  0  0  0  0  0  0  # atno 10167 bound_to 10162
  157.3777  130.7736  149.7168 H   0  0  0  0  0  0  0  0  0  0  0  0  # atno 10718 bound_to 10713
  154.7914  135.3208  154.7768 H   0  0  0  0  0  0  0  0  0  0  0  0  # atno 10763 bound_to 10752
  153.8456  135.6867  153.4802 H   0  0  0  0  0  0  0  0  0  0  0  0  # atno 10764 bound_to 10752
  153.1586  135.4670  154.9680 H   0  0  0  0  0  0  0  0  0  0  0  0  # atno 10765 bound_to 10752
  140.0242  134.9382  157.0535 H   0  0  0  0  0  0  0  0  0  0  0  0  # atno 11005 bound_to 11000
  145.7234  139.1716  143.2471 LP  0  0  0  0  0  0  0  0  0  0  0  0  # atno 17320 bound_to 7965
  146.1260  140.7247  142.9435 LP  0  0  0  0  0  0  0  0  0  0  0  0  # atno 17321 bound_to 7965
  139.8942  144.6948  150.8736 LP  0  0  0  0  0  0  0  0  0  0  0  0  # atno 17342 bound_to 10162
  140.7739  143.3562  151.1916 LP  0  0  0  0  0  0  0  0  0  0  0  0  # atno 17343 bound_to 10162
  155.9769  130.4070  150.3749 LP  0  0  0  0  0  0  0  0  0  0  0  0  # atno 17370 bound_to 10713
  157.1848  131.0401  151.2730 LP  0  0  0  0  0  0  0  0  0  0  0  0  # atno 17371 bound_to 10713
  140.4335  134.1756  155.7169 LP  0  0  0  0  0  0  0  0  0  0  0  0  # atno 17394 bound_to 11000
  141.1793  133.8449  157.1315 LP  0  0  0  0  0  0  0  0  0  0  0  0  # atno 17395 bound_to 11000

$$$$
