AV-unprocessed.smi:21|AV-procd|sdf|151|dock8
  -GOLD-   2262015373D 1   1.00000     0.00000
 Structure written by MMmdl.
 62 65  0  0  0  0  0  0  0  0  2 V2000
  152.7208  143.4166  162.4642 C   0  0  0  0  0  0  0  0  0  0  0  0
  152.3511  142.6760  161.3113 O   0  0  0  0  0  0  0  0  0  0  0  0
  152.8776  143.2016  160.0999 C   0  0  1  0  0  0  0  0  0  0  0  0
  152.6874  142.1639  159.0006 C   0  0  0  0  0  0  0  0  0  0  0  0
  151.2505  142.3979  158.5261 C   0  0  2  0  0  0  0  0  0  0  0  0
  150.9725  141.8921  157.0956 C   0  0  0  0  0  0  0  0  0  0  0  0
  151.0173  140.4313  156.9975 N   0  0  0  0  0  0  0  0  0  0  0  0
  152.0038  139.8382  156.1034 C   0  0  0  0  0  0  0  0  0  0  0  0
  149.9660  139.6848  157.4421 C   0  0  0  0  0  0  0  0  0  0  0  0
  148.7113  140.1809  157.2700 N   0  0  0  0  0  0  0  0  0  0  0  0
  147.6399  139.4971  157.6793 C   0  0  0  0  0  0  0  0  0  0  0  0
  147.5908  138.3056  158.2736 N   0  0  0  0  0  0  0  0  0  0  0  0
  148.8408  137.7930  158.4512 C   0  0  0  0  0  0  0  0  0  0  0  0
  150.0718  138.4072  158.0756 C   0  0  0  0  0  0  0  0  0  0  0  0
  151.1265  137.5662  158.4195 N   0  0  0  0  0  0  0  0  0  0  0  0
  150.5567  136.5294  158.9686 C   0  0  0  0  0  0  0  0  0  0  0  0
  149.1836  136.5782  159.0169 N   0  0  0  0  0  0  0  0  0  0  0  0
  148.2913  135.5678  159.5570 C   0  0  0  0  0  0  0  0  0  0  0  0
  148.8348  134.9299  160.8618 C   0  0  1  0  0  0  0  0  0  0  0  0
  148.2341  135.6106  162.1137 C   0  0  0  0  0  0  0  0  0  0  0  0
  148.2797  137.0179  162.0037 O   0  0  0  0  0  0  0  0  0  0  0  0
  148.6736  133.3854  160.9081 C   0  0  1  0  0  0  0  0  0  0  0  0
  149.4386  132.5930  159.8531 C   0  0  0  0  0  0  0  0  0  0  0  0
  149.6456  131.2531  160.5448 C   0  0  0  0  0  0  0  0  0  0  0  0
  149.9394  131.6354  161.8779 O   0  0  0  0  0  0  0  0  0  0  0  0
  149.0808  132.7140  162.2325 C   0  0  0  0  0  0  0  0  0  0  0  0
  151.0531  143.8617  158.6349 N   0  3  1  0  0  0  0  0  0  0  0  0
  149.6578  144.2659  158.9152 C   0  0  0  0  0  0  0  0  0  0  0  0
  152.0342  144.3909  159.6131 C   0  0  0  0  0  0  0  0  0  0  0  0
  153.9327  143.4559  160.2148 H   0  0  0  0  0  0  0  0  0  0  0  0
  150.5760  141.9086  159.2314 H   0  0  0  0  0  0  0  0  0  0  0  0
  152.2639  142.9683  163.3463 H   0  0  0  0  0  0  0  0  0  0  0  0
  152.3879  144.4530  162.4063 H   0  0  0  0  0  0  0  0  0  0  0  0
  153.8022  143.4064  162.6063 H   0  0  0  0  0  0  0  0  0  0  0  0
  153.3879  142.3672  158.1893 H   0  0  0  0  0  0  0  0  0  0  0  0
  152.8632  141.1435  159.3434 H   0  0  0  0  0  0  0  0  0  0  0  0
  149.9746  142.2076  156.7901 H   0  0  0  0  0  0  0  0  0  0  0  0
  151.6473  142.3721  156.3865 H   0  0  0  0  0  0  0  0  0  0  0  0
  152.3473  138.8763  156.4854 H   0  0  0  0  0  0  0  0  0  0  0  0
  152.8778  140.4832  156.0086 H   0  0  0  0  0  0  0  0  0  0  0  0
  151.5847  139.6952  155.1069 H   0  0  0  0  0  0  0  0  0  0  0  0
  146.6855  139.9724  157.5056 H   0  0  0  0  0  0  0  0  0  0  0  0
  151.1254  135.6915  159.3453 H   0  0  0  0  0  0  0  0  0  0  0  0
  147.3201  136.0316  159.7295 H   0  0  0  0  0  0  0  0  0  0  0  0
  148.1393  134.8196  158.7802 H   0  0  0  0  0  0  0  0  0  0  0  0
  149.9088  135.1219  160.8840 H   0  0  0  0  0  0  0  0  0  0  0  0
  147.1887  135.3339  162.2475 H   0  0  0  0  0  0  0  0  0  0  0  0
  148.7619  135.3007  163.0159 H   0  0  0  0  0  0  0  0  0  0  0  0
  147.6421  137.2909  161.3613 H   0  0  0  0  0  0  0  0  0  0  0  0
  147.6166  133.1516  160.7729 H   0  0  0  0  0  0  0  0  0  0  0  0
  148.8949  132.5024  158.9125 H   0  0  0  0  0  0  0  0  0  0  0  0
  150.4106  133.0347  159.6389 H   0  0  0  0  0  0  0  0  0  0  0  0
  148.7329  130.6551  160.5245 H   0  0  0  0  0  0  0  0  0  0  0  0
  150.4542  130.6695  160.1042 H   0  0  0  0  0  0  0  0  0  0  0  0
  149.5875  133.3823  162.9278 H   0  0  0  0  0  0  0  0  0  0  0  0
  148.2016  132.3220  162.7454 H   0  0  0  0  0  0  0  0  0  0  0  0
  149.3255  143.8851  159.8821 H   0  0  0  0  0  0  0  0  0  0  0  0
  148.9827  143.8868  158.1477 H   0  0  0  0  0  0  0  0  0  0  0  0
  149.5725  145.3529  158.9278 H   0  0  0  0  0  0  0  0  0  0  0  0
  151.5579  144.9256  160.4356 H   0  0  0  0  0  0  0  0  0  0  0  0
  152.6673  145.1078  159.0894 H   0  0  0  0  0  0  0  0  0  0  0  0
  151.3083  144.2552  157.7402 H   0  0  0  0  0  0  0  0  0  0  0  0
  1  2  1  0  0  0  0
  1 32  1  0  0  0  0
  1 33  1  0  0  0  0
  1 34  1  0  0  0  0
  2  3  1  0  0  0  0
  3 30  1  0  0  0  0
  3 29  1  0  0  0  0
  3  4  1  0  0  0  0
  4  5  1  0  0  0  0
  4 35  1  0  0  0  0
  4 36  1  0  0  0  0
  5 31  1  0  0  0  0
  5  6  1  0  0  0  0
  5 27  1  0  0  0  0
  6  7  1  0  0  0  0
  6 37  1  0  0  0  0
  6 38  1  0  0  0  0
  7  8  1  0  0  0  0
  7  9  1  0  0  0  0
  8 39  1  0  0  0  0
  8 40  1  0  0  0  0
  8 41  1  0  0  0  0
  9 14  1  0  0  0  0
  9 10  2  0  0  0  0
 10 11  1  0  0  0  0
 11 12  2  0  0  0  0
 11 42  1  0  0  0  0
 12 13  1  0  0  0  0
 13 17  1  0  0  0  0
 13 14  2  0  0  0  0
 14 15  1  0  0  0  0
 15 16  2  0  0  0  0
 16 17  1  0  0  0  0
 16 43  1  0  0  0  0
 17 18  1  0  0  0  0
 18 19  1  0  0  0  0
 18 44  1  0  0  0  0
 18 45  1  0  0  0  0
 19 20  1  0  0  0  0
 19 22  1  0  0  0  0
 19 46  1  0  0  0  0
 20 21  1  0  0  0  0
 20 47  1  0  0  0  0
 20 48  1  0  0  0  0
 21 49  1  0  0  0  0
 22 26  1  0  0  0  0
 22 23  1  0  0  0  0
 22 50  1  0  0  0  0
 23 24  1  0  0  0  0
 23 51  1  0  0  0  0
 23 52  1  0  0  0  0
 24 25  1  0  0  0  0
 24 53  1  0  0  0  0
 24 54  1  0  0  0  0
 25 26  1  0  0  0  0
 26 55  1  0  0  0  0
 26 56  1  0  0  0  0
 27 28  1  0  0  0  0
 27 29  1  0  0  0  0
 27 62  1  0  0  0  0
 28 57  1  0  0  0  0
 28 58  1  0  0  0  0
 28 59  1  0  0  0  0
 29 60  1  0  0  0  0
 29 61  1  0  0  0  0
M  CHG  1  27   1
M  END
> <s_m_source_file>
AV-unprocessed.smi

> <i_m_source_file_index>
21

> <i_lp_mmshare_version>
43012

> <i_f3d_flags>
0

> <s_epik_input>
W0NIM11PW0NASF0xW0NIMl1bQ0BIXShOKFtDSDNdKVtDSDJdMSlbQ0gyXU4oW0NIM10pYyhuW2NIXW4yKWMoYzIzKW5bY0hdbjNbQ0gyXVtDQEhdKFtDSDJdW09IXSlbQ0BASF00W0NIMl1bQ0gyXU9bQ0gyXTQ=

> <s_epik_cmdline>
J2VwaWtfcHl0aG9uJywgJy1waCcsICc3LjAnLCAnLXRuJywgJzgnLCAnLW1hJywgJzIwMCcsICctbWV0YWxfYmluZGluZycsICctaW1hZScsICc8aW5maWxlLm1hZT4nLCAnLW9tYWUnLCAnPG91dGZpbGUubWFlPic=

> <r_lp_tautomer_probability>
1

> <r_epik_Ionization_Penalty>
0.0157465

> <r_epik_Ionization_Penalty_Charging>
0.015354

> <r_epik_Ionization_Penalty_Neutral>
0.000392529

> <r_epik_State_Penalty>
0.0120612

> <r_epik_Charging_Adjusted_Penalty>
0.0274152

> <i_epik_Tot_Q>
1

> <i_epik_Tot_abs_Q>
1

> <r_epik_Metal_State_Penalty>
0.0121253

> <b_epik_Metal_Only>
0

> <s_lp_Force_Field>
OPLS_2005

> <r_lp_Energy>
59.9021

> <b_lp_Chiralities_Consistent>
1

> <s_lp_Variant>
AV-unprocessed.smi:21-31

> <Gold.Version>
5.8.1

> <Gold.Id.Protein>
6NUR|6NUR_protein|mol2

> <Gold.PLP.Fitness>
46.4377

> <Gold.PLP.PLP>
-47.0290

> <Gold.PLP.part.hbond>
-3.0000

> <Gold.PLP.part.metal>
0.0000

> <Gold.PLP.part.buried>
-6.0711

> <Gold.PLP.part.nonpolar>
-38.3852

> <Gold.PLP.part.repulsive>
0.1148

> <Gold.PLP.ligand.clash>
0.0000

> <Gold.PLP.ligand.torsion>
1.9752

> <Gold.PLP.Chemscore.Hbond>
1.0000

> <Gold.PLP.Chemscore.CHOScore>
0.0000

> <Gold.PLP.Chemscore.Metal>
0.0000

> <Gold.Chemscore.Hbonds>
donor molecule, donor type, donor heavy atom, donor atom, acceptor molecule, acceptor atom, score
      P1  H  6931  6943       L1    21  0.55

> <Gold.PLP.Chemscore.Internal.Correction>
0.3590

> <Gold.Rescore>
     Score         DG    S(hbond)    S(metal)    S(lipo)     H(rot)  DE(clash)    DE(int)     intcor
     11.33     -13.83       0.84        0.00     114.62       3.08       0.03       2.47       ----

> <Gold.Chemscore.Fitness>
11.3280

> <Gold.Chemscore.DG>
-13.8251

> <Gold.Chemscore.ZeroCoef>
-5.4800

> <Gold.Chemscore.Hbond>
0.8409

> <Gold.Chemscore.Metal>
0.0000

> <Gold.Chemscore.Lipo>
114.6206

> <Gold.Chemscore.Internal_Hbond>
0.0000

> <Gold.Chemscore.DEClash>
0.0270

> <Gold.Chemscore.DEInternal>
2.4701

> <Gold.Chemscore.Rot>
3.0758

> <Gold.Chemscore.Internal.Correction>
   9.000000E+99

> <Gold.Chemscore.Hbonds>
donor molecule, donor type, donor heavy atom, donor atom, acceptor molecule, acceptor atom, score
      P1  H  6931  6943       L1    21  0.06

> <Gold.Chemscore.Hbond.Weighted>
-2.8087

> <Gold.Chemscore.Metal.Weighted>
-0.0000

> <Gold.Chemscore.Lipo.Weighted>
-13.4106

> <Gold.Chemscore.Internal_Hbond.Weighted>
0.0000

> <Gold.Chemscore.DEClash.Weighted>
0.0270

> <Gold.Chemscore.DEInternal.Weighted>
2.4701

> <Gold.Chemscore.Rot.Weighted>
7.8741

> <Gold.Chemscore.Internal.Correction.Weighted>
   9.000000E+99

> <Gold.Protein.RotatedTorsions>
[ 6907 6896 6895 6894 ] final  111.46 input  -60.11 | X-H torsion
[ 7974 7965 7964 7962 ] final -141.98 input  175.53 | X-H torsion
[ 8008 7997 7996 7995 ] final   78.43 input   59.86 | X-H torsion
[ 10167 10162 10161 10158 ] final  -85.86 input  -65.29 | X-H torsion
[ 10718 10713 10712 10709 ] final -115.11 input   66.30 | X-H torsion
[ 10763 10752 10751 10750 ] final  -12.99 input  -60.55 | X-H torsion
[ 11005 11000 10999 10996 ] final  -20.25 input  -57.11 | X-H torsion

> <Gold.Protein.ActiveResidues>
 VAL166  LYS551  ARG553  GLY616  TRP617  ASP618  TYR619  PRO620  LYS621  CYS622 
 ASP623  PHE694  ASN695  SER759  ASP760  ASP761  ALA762  ILE779  LEU786  VAL792 
 PHE793  MET794  SER795  GLU796  ALA797  LYS798  CYS799  TRP800  GLU811  SER814 

> <Gold.Protein.RotatedAtoms>
  152.4968  133.8655  159.7271 H   0  0  0  0  0  0  0  0  0  0  0  0  # atno 6907 bound_to 6896
  150.9155  133.6935  159.2851 H   0  0  0  0  0  0  0  0  0  0  0  0  # atno 6908 bound_to 6896
  151.4330  135.1016  159.9700 H   0  0  0  0  0  0  0  0  0  0  0  0  # atno 6909 bound_to 6896
  144.8478  140.6014  143.5410 H   0  0  0  0  0  0  0  0  0  0  0  0  # atno 7974 bound_to 7965
  155.8555  140.3456  155.5722 H   0  0  0  0  0  0  0  0  0  0  0  0  # atno 8008 bound_to 7997
  155.7990  140.0882  157.1987 H   0  0  0  0  0  0  0  0  0  0  0  0  # atno 8009 bound_to 7997
  154.4009  140.1469  156.3240 H   0  0  0  0  0  0  0  0  0  0  0  0  # atno 8010 bound_to 7997
  140.3996  143.2668  151.9159 H   0  0  0  0  0  0  0  0  0  0  0  0  # atno 10167 bound_to 10162
  156.0874  130.6063  150.8863 H   0  0  0  0  0  0  0  0  0  0  0  0  # atno 10718 bound_to 10713
  153.5067  135.7017  153.5803 H   0  0  0  0  0  0  0  0  0  0  0  0  # atno 10763 bound_to 10752
  153.3911  135.3896  155.1923 H   0  0  0  0  0  0  0  0  0  0  0  0  # atno 10764 bound_to 10752
  154.8706  135.3858  154.4543 H   0  0  0  0  0  0  0  0  0  0  0  0  # atno 10765 bound_to 10752
  140.8446  133.7901  155.9898 H   0  0  0  0  0  0  0  0  0  0  0  0  # atno 11005 bound_to 11000
  145.4562  139.1518  143.3891 LP  0  0  0  0  0  0  0  0  0  0  0  0  # atno 17320 bound_to 7965
  146.2759  140.4690  142.8796 LP  0  0  0  0  0  0  0  0  0  0  0  0  # atno 17321 bound_to 7965
  139.4785  144.5646  151.8185 LP  0  0  0  0  0  0  0  0  0  0  0  0  # atno 17342 bound_to 10162
  140.4753  144.1527  150.5924 LP  0  0  0  0  0  0  0  0  0  0  0  0  # atno 17343 bound_to 10162
  157.6012  131.0941  150.8956 LP  0  0  0  0  0  0  0  0  0  0  0  0  # atno 17370 bound_to 10713
  156.9113  130.5282  149.5280 LP  0  0  0  0  0  0  0  0  0  0  0  0  # atno 17371 bound_to 10713
  140.8858  134.2556  157.5120 LP  0  0  0  0  0  0  0  0  0  0  0  0  # atno 17394 bound_to 11000
  139.8703  134.9637  156.4471 LP  0  0  0  0  0  0  0  0  0  0  0  0  # atno 17395 bound_to 11000

$$$$
