AV-unprocessed.smi:2076|AV-procd|sdf|8460|dock4
  -GOLD-   2272011163D 1   1.00000     0.00000
 Structure written by MMmdl.
 45 46  0  0  0  0  0  0  0  0  2 V2000
  153.9986  141.4421  161.7037 C   0  0  0  0  0  0  0  0  0  0  0  0
  153.2063  142.4527  160.9282 C   0  0  0  0  0  0  0  0  0  0  0  0
  152.4285  143.5338  161.4284 C   0  0  0  0  0  0  0  0  0  0  0  0
  151.9250  144.1341  160.3089 C   0  0  0  0  0  0  0  0  0  0  0  0
  151.0339  145.3250  160.1731 C   0  0  0  0  0  0  0  0  0  0  0  0
  152.3998  143.4202  159.2229 N   0  0  0  0  0  0  0  0  0  0  0  0
  152.1714  143.6474  157.8046 C   0  0  0  0  0  0  0  0  0  0  0  0
  151.5026  142.4359  157.1536 C   0  0  0  0  0  0  0  0  0  0  0  0
  151.8089  141.2984  157.5092 O   0  0  0  0  0  0  0  0  0  0  0  0
  150.5945  142.6947  156.1993 N   0  0  0  0  0  0  0  0  0  0  0  0
  149.7966  141.6961  155.4916 C   0  0  0  0  0  0  0  0  0  0  0  0
  148.4497  141.3657  156.1949 C   0  0  1  0  0  0  0  0  0  0  0  0
  148.6108  141.4048  157.7350 C   0  0  0  0  0  0  0  0  0  0  0  0
  147.3380  142.2652  155.7326 N   0  3  0  0  0  0  0  0  0  0  0  0
  146.9638  142.0765  154.3019 C   0  0  0  0  0  0  0  0  0  0  0  0
  145.8239  143.0199  153.8822 C   0  0  0  0  0  0  0  0  0  0  0  0
  144.7003  142.8198  154.7237 O   0  0  0  0  0  0  0  0  0  0  0  0
  145.0102  143.1321  156.0718 C   0  0  0  0  0  0  0  0  0  0  0  0
  146.1150  142.1919  156.5820 C   0  0  0  0  0  0  0  0  0  0  0  0
  153.1861  142.3905  159.6069 N   0  0  0  0  0  0  0  0  0  0  0  0
  153.8327  141.5505  162.7757 H   0  0  0  0  0  0  0  0  0  0  0  0
  155.0670  141.5577  161.5201 H   0  0  0  0  0  0  0  0  0  0  0  0
  153.7194  140.4253  161.4268 H   0  0  0  0  0  0  0  0  0  0  0  0
  152.2651  143.8251  162.4554 H   0  0  0  0  0  0  0  0  0  0  0  0
  150.8102  145.7570  161.1486 H   0  0  0  0  0  0  0  0  0  0  0  0
  150.0892  145.0515  159.7030 H   0  0  0  0  0  0  0  0  0  0  0  0
  151.5053  146.0980  159.5662 H   0  0  0  0  0  0  0  0  0  0  0  0
  151.5488  144.5342  157.6731 H   0  0  0  0  0  0  0  0  0  0  0  0
  153.1244  143.8567  157.3179 H   0  0  0  0  0  0  0  0  0  0  0  0
  150.4136  143.6634  155.9768 H   0  0  0  0  0  0  0  0  0  0  0  0
  149.6208  141.9937  154.4565 H   0  0  0  0  0  0  0  0  0  0  0  0
  150.4410  140.8196  155.4544 H   0  0  0  0  0  0  0  0  0  0  0  0
  148.1780  140.3448  155.9205 H   0  0  0  0  0  0  0  0  0  0  0  0
  149.4440  140.7930  158.0773 H   0  0  0  0  0  0  0  0  0  0  0  0
  147.7423  141.0042  158.2552 H   0  0  0  0  0  0  0  0  0  0  0  0
  148.7832  142.4215  158.0896 H   0  0  0  0  0  0  0  0  0  0  0  0
  147.8043  142.2884  153.6441 H   0  0  0  0  0  0  0  0  0  0  0  0
  146.6703  141.0391  154.1340 H   0  0  0  0  0  0  0  0  0  0  0  0
  146.1454  144.0621  153.9202 H   0  0  0  0  0  0  0  0  0  0  0  0
  145.5312  142.8167  152.8518 H   0  0  0  0  0  0  0  0  0  0  0  0
  145.3140  144.1767  156.1592 H   0  0  0  0  0  0  0  0  0  0  0  0
  144.1100  143.0132  156.6751 H   0  0  0  0  0  0  0  0  0  0  0  0
  145.7481  141.1645  156.6059 H   0  0  0  0  0  0  0  0  0  0  0  0
  146.3304  142.4839  157.6080 H   0  0  0  0  0  0  0  0  0  0  0  0
  147.6837  143.2110  155.8132 H   0  0  0  0  0  0  0  0  0  0  0  0
  1  2  1  0  0  0  0
  1 21  1  0  0  0  0
  1 22  1  0  0  0  0
  1 23  1  0  0  0  0
  2 20  2  0  0  0  0
  2  3  1  0  0  0  0
  3  4  2  0  0  0  0
  3 24  1  0  0  0  0
  4  5  1  0  0  0  0
  4  6  1  0  0  0  0
  5 25  1  0  0  0  0
  5 26  1  0  0  0  0
  5 27  1  0  0  0  0
  6  7  1  0  0  0  0
  6 20  1  0  0  0  0
  7  8  1  0  0  0  0
  7 28  1  0  0  0  0
  7 29  1  0  0  0  0
  8  9  2  0  0  0  0
  8 10  1  0  0  0  0
 10 11  1  0  0  0  0
 10 30  1  0  0  0  0
 11 12  1  0  0  0  0
 11 31  1  0  0  0  0
 11 32  1  0  0  0  0
 12 13  1  0  0  0  0
 12 14  1  0  0  0  0
 12 33  1  0  0  0  0
 13 34  1  0  0  0  0
 13 35  1  0  0  0  0
 13 36  1  0  0  0  0
 14 19  1  0  0  0  0
 14 15  1  0  0  0  0
 14 45  1  0  0  0  0
 15 16  1  0  0  0  0
 15 37  1  0  0  0  0
 15 38  1  0  0  0  0
 16 17  1  0  0  0  0
 16 39  1  0  0  0  0
 16 40  1  0  0  0  0
 17 18  1  0  0  0  0
 18 19  1  0  0  0  0
 18 41  1  0  0  0  0
 18 42  1  0  0  0  0
 19 43  1  0  0  0  0
 19 44  1  0  0  0  0
M  CHG  1  14   1
M  END
> <s_m_source_file>
AV-unprocessed.smi

> <i_m_source_file_index>
2076

> <i_lp_mmshare_version>
43012

> <i_f3d_flags>
0

> <s_epik_input>
W0NIM11jMVtjSF1jKFtDSDNdKW4objEpW0NIMl1DKD1PKVtOSF1bQ0gyXVtDQEhdKFtDSDNdKU4yW0NIMl1bQ0gyXU9bQ0gyXVtDSDJdMg==

> <s_epik_cmdline>
J2VwaWtfcHl0aG9uJywgJy1waCcsICc3LjAnLCAnLXRuJywgJzgnLCAnLW1hJywgJzIwMCcsICctbWV0YWxfYmluZGluZycsICctaW1hZScsICc8aW5maWxlLm1hZT4nLCAnLW9tYWUnLCAnPG91dGZpbGUubWFlPic=

> <r_lp_tautomer_probability>
1

> <r_epik_Ionization_Penalty>
0.748594

> <r_epik_Ionization_Penalty_Charging>
0.748396

> <r_epik_Ionization_Penalty_Neutral>
0.000197403

> <r_epik_State_Penalty>
0.775162

> <r_epik_Charging_Adjusted_Penalty>
1.52356

> <i_epik_Tot_Q>
1

> <i_epik_Tot_abs_Q>
1

> <r_epik_Metal_State_Penalty>
0.77529

> <b_epik_Metal_Only>
0

> <s_lp_Force_Field>
OPLS_2005

> <r_lp_Energy>
19.0856

> <b_lp_Chiralities_Consistent>
1

> <s_lp_Variant>
AV-unprocessed.smi:2076-4

> <Gold.Version>
5.8.1

> <Gold.Id.Protein>
6NUR|6NUR_protein|mol2

> <Gold.PLP.Fitness>
50.5962

> <Gold.PLP.PLP>
-44.4170

> <Gold.PLP.part.hbond>
-2.0000

> <Gold.PLP.part.metal>
0.0000

> <Gold.PLP.part.buried>
-7.2188

> <Gold.PLP.part.nonpolar>
-35.8844

> <Gold.PLP.part.repulsive>
0.3727

> <Gold.PLP.ligand.clash>
0.0000

> <Gold.PLP.ligand.torsion>
0.9851

> <Gold.PLP.Chemscore.Hbond>
2.6880

> <Gold.PLP.Chemscore.CHOScore>
0.0000

> <Gold.PLP.Chemscore.Metal>
0.0000

> <Gold.Chemscore.Hbonds>
donor molecule, donor type, donor heavy atom, donor atom, acceptor molecule, acceptor atom, score
      L1  H    10    30       P1  8028  0.75
      L1  H    14    45       P1  8028  1.90

> <Gold.PLP.Chemscore.Internal.Correction>
0.0855

> <Gold.Rescore>
     Score         DG    S(hbond)    S(metal)    S(lipo)     H(rot)  DE(clash)    DE(int)     intcor
     12.43     -16.87       1.24        0.00     100.87       1.78       2.02       2.43       ----

> <Gold.Chemscore.Fitness>
12.4261

> <Gold.Chemscore.DG>
-16.8734

> <Gold.Chemscore.ZeroCoef>
-5.4800

> <Gold.Chemscore.Hbond>
1.2390

> <Gold.Chemscore.Metal>
0.0000

> <Gold.Chemscore.Lipo>
100.8689

> <Gold.Chemscore.Internal_Hbond>
0.0000

> <Gold.Chemscore.DEClash>
2.0222

> <Gold.Chemscore.DEInternal>
2.4251

> <Gold.Chemscore.Rot>
1.7760

> <Gold.Chemscore.Internal.Correction>
   9.000000E+99

> <Gold.Chemscore.Hbonds>
donor molecule, donor type, donor heavy atom, donor atom, acceptor molecule, acceptor atom, score
      L1  H    10    30       P1  8028  0.74
      L1  H    14    45       P1  8028  0.21

> <Gold.Chemscore.Hbond.Weighted>
-4.1382

> <Gold.Chemscore.Metal.Weighted>
-0.0000

> <Gold.Chemscore.Lipo.Weighted>
-11.8017

> <Gold.Chemscore.Internal_Hbond.Weighted>
0.0000

> <Gold.Chemscore.DEClash.Weighted>
2.0222

> <Gold.Chemscore.DEInternal.Weighted>
2.4251

> <Gold.Chemscore.Rot.Weighted>
4.5464

> <Gold.Chemscore.Internal.Correction.Weighted>
   9.000000E+99

> <Gold.Protein.RotatedTorsions>
[ 6907 6896 6895 6894 ] final  126.14 input  -60.11 | X-H torsion
[ 7974 7965 7964 7962 ] final  -46.32 input  175.53 | X-H torsion
[ 8008 7997 7996 7995 ] final  152.75 input   59.86 | X-H torsion
[ 10167 10162 10161 10158 ] final  170.14 input  -65.29 | X-H torsion
[ 10718 10713 10712 10709 ] final  131.00 input   66.30 | X-H torsion
[ 10763 10752 10751 10750 ] final   22.66 input  -60.55 | X-H torsion
[ 11005 11000 10999 10996 ] final -173.91 input  -57.11 | X-H torsion

> <Gold.Protein.ActiveResidues>
 VAL166  LYS551  ARG553  GLY616  TRP617  ASP618  TYR619  PRO620  LYS621  CYS622 
 ASP623  PHE694  ASN695  SER759  ASP760  ASP761  ALA762  ILE779  LEU786  VAL792 
 PHE793  MET794  SER795  GLU796  ALA797  LYS798  CYS799  TRP800  GLU811  SER814 

> <Gold.Protein.RotatedAtoms>
  152.3930  133.6706  159.6252 H   0  0  0  0  0  0  0  0  0  0  0  0  # atno 6907 bound_to 6896
  150.7834  133.8922  159.3325 H   0  0  0  0  0  0  0  0  0  0  0  0  # atno 6908 bound_to 6896
  151.6705  135.0978  160.0248 H   0  0  0  0  0  0  0  0  0  0  0  0  # atno 6909 bound_to 6896
  145.9731  140.7363  142.9401 H   0  0  0  0  0  0  0  0  0  0  0  0  # atno 7974 bound_to 7965
  156.2614  140.2012  156.6383 H   0  0  0  0  0  0  0  0  0  0  0  0  # atno 8008 bound_to 7997
  154.6629  140.0558  157.0107 H   0  0  0  0  0  0  0  0  0  0  0  0  # atno 8009 bound_to 7997
  155.1249  140.3228  155.4491 H   0  0  0  0  0  0  0  0  0  0  0  0  # atno 8010 bound_to 7997
  139.5010  144.3629  151.9806 H   0  0  0  0  0  0  0  0  0  0  0  0  # atno 10167 bound_to 10162
  157.5008  131.1094  150.9429 H   0  0  0  0  0  0  0  0  0  0  0  0  # atno 10718 bound_to 10713
  153.0898  135.6643  153.9877 H   0  0  0  0  0  0  0  0  0  0  0  0  # atno 10763 bound_to 10752
  153.9477  135.2987  155.3441 H   0  0  0  0  0  0  0  0  0  0  0  0  # atno 10764 bound_to 10752
  154.7311  135.5122  153.9038 H   0  0  0  0  0  0  0  0  0  0  0  0  # atno 10765 bound_to 10752
  140.4805  134.6080  157.4917 H   0  0  0  0  0  0  0  0  0  0  0  0  # atno 11005 bound_to 11000
  144.6842  140.2781  143.7296 LP  0  0  0  0  0  0  0  0  0  0  0  0  # atno 17320 bound_to 7965
  145.7878  139.1915  143.2120 LP  0  0  0  0  0  0  0  0  0  0  0  0  # atno 17321 bound_to 7965
  140.3065  144.3587  150.6045 LP  0  0  0  0  0  0  0  0  0  0  0  0  # atno 17342 bound_to 10162
  140.5832  143.2171  151.7390 LP  0  0  0  0  0  0  0  0  0  0  0  0  # atno 17343 bound_to 10162
  157.0100  130.5633  149.5320 LP  0  0  0  0  0  0  0  0  0  0  0  0  # atno 17370 bound_to 10713
  156.0228  130.5323  150.8324 LP  0  0  0  0  0  0  0  0  0  0  0  0  # atno 17371 bound_to 10713
  139.9829  134.7107  155.9826 LP  0  0  0  0  0  0  0  0  0  0  0  0  # atno 17394 bound_to 11000
  141.1533  133.6545  156.4083 LP  0  0  0  0  0  0  0  0  0  0  0  0  # atno 17395 bound_to 11000

$$$$
