AV-unprocessed.smi:2482|AV-procd|sdf|9782|dock9
  -GOLD-   2272013423D 1   1.00000     0.00000
 Structure written by MMmdl.
 34 35  0  0  0  0  0  0  0  0  3 V2000
  153.0763  142.7378  162.2735 C   0  0  0  0  0  0  0  0  0  0  0  0
  152.6769  142.6684  160.8112 C   0  0  0  0  0  0  0  0  0  0  0  0
  152.0540  143.7637  160.3251 N   0  0  0  0  0  0  0  0  0  0  0  0
  151.6830  143.7518  159.0296 C   0  0  0  0  0  0  0  0  0  0  0  0
  151.9106  142.6602  158.1706 C   0  0  0  0  0  0  0  0  0  0  0  0
  152.5540  141.5046  158.6670 C   0  0  0  0  0  0  0  0  0  0  0  0
  152.7833  140.4579  157.8568 N   0  5  0  0  0  0  0  0  0  0  0  0
  151.7459  139.8318  157.2502 C   0  0  0  0  0  0  0  0  0  0  0  0
  150.7176  139.3827  157.7608 O   0  0  0  0  0  0  0  0  0  0  0  0
  151.9716  139.7103  155.7263 C   0  0  1  0  0  0  0  0  0  0  0  0
  151.9897  138.2570  155.1957 C   0  0  0  0  0  0  0  0  0  0  0  0
  150.6371  137.6528  155.2478 N   0  3  2  0  0  0  0  0  0  0  0  0
  150.6252  136.2402  154.8131 C   0  0  0  0  0  0  0  0  0  0  0  0
  149.6588  138.4874  154.5148 C   0  0  0  0  0  0  0  0  0  0  0  0
  149.6668  139.9240  155.0623 C   0  0  0  0  0  0  0  0  0  0  0  0
  150.9896  140.4549  154.9948 O   0  0  0  0  0  0  0  0  0  0  0  0
  152.9515  141.5207  160.0293 C   0  0  0  0  0  0  0  0  0  0  0  0
  153.7616  140.1597  160.7348 Cl  0  0  0  0  0  0  0  0  0  0  0  0
  152.5837  141.9463  162.8387 H   0  0  0  0  0  0  0  0  0  0  0  0
  152.7996  143.6935  162.7204 H   0  0  0  0  0  0  0  0  0  0  0  0
  154.1547  142.6171  162.3779 H   0  0  0  0  0  0  0  0  0  0  0  0
  151.1895  144.6404  158.6646 H   0  0  0  0  0  0  0  0  0  0  0  0
  151.5909  142.7112  157.1400 H   0  0  0  0  0  0  0  0  0  0  0  0
  152.9436  140.1576  155.5125 H   0  0  0  0  0  0  0  0  0  0  0  0
  152.3487  138.2485  154.1655 H   0  0  0  0  0  0  0  0  0  0  0  0
  152.6896  137.6501  155.7724 H   0  0  0  0  0  0  0  0  0  0  0  0
  150.9236  136.1489  153.7680 H   0  0  0  0  0  0  0  0  0  0  0  0
  149.6283  135.8128  154.9241 H   0  0  0  0  0  0  0  0  0  0  0  0
  151.3112  135.6469  155.4186 H   0  0  0  0  0  0  0  0  0  0  0  0
  149.9047  138.4917  153.4517 H   0  0  0  0  0  0  0  0  0  0  0  0
  148.6603  138.0596  154.6123 H   0  0  0  0  0  0  0  0  0  0  0  0
  149.0088  140.5540  154.4638 H   0  0  0  0  0  0  0  0  0  0  0  0
  149.2803  139.9550  156.0818 H   0  0  0  0  0  0  0  0  0  0  0  0
  150.3579  137.6621  156.2191 H   0  0  0  0  0  0  0  0  0  0  0  0
  1  2  1  0  0  0  0
  1 19  1  0  0  0  0
  1 20  1  0  0  0  0
  1 21  1  0  0  0  0
  2 17  1  0  0  0  0
  2  3  2  0  0  0  0
  3  4  1  0  0  0  0
  4  5  2  0  0  0  0
  4 22  1  0  0  0  0
  5  6  1  0  0  0  0
  5 23  1  0  0  0  0
  6  7  1  0  0  0  0
  6 17  2  0  0  0  0
  7  8  1  0  0  0  0
  8  9  2  0  0  0  0
  8 10  1  0  0  0  0
 10 16  1  0  0  0  0
 10 11  1  0  0  0  0
 10 24  1  0  0  0  0
 11 12  1  0  0  0  0
 11 25  1  0  0  0  0
 11 26  1  0  0  0  0
 12 13  1  0  0  0  0
 12 14  1  0  0  0  0
 12 34  1  0  0  0  0
 13 27  1  0  0  0  0
 13 28  1  0  0  0  0
 13 29  1  0  0  0  0
 14 15  1  0  0  0  0
 14 30  1  0  0  0  0
 14 31  1  0  0  0  0
 15 16  1  0  0  0  0
 15 32  1  0  0  0  0
 15 33  1  0  0  0  0
 17 18  1  0  0  0  0
M  CHG  1   7  -1
M  CHG  1  12   1
M  END
> <s_m_source_file>
AV-unprocessed.smi

> <i_m_source_file_index>
2482

> <i_lp_mmshare_version>
43012

> <i_f3d_flags>
0

> <s_epik_input>
W0NIM11jMW5bY0hdW2NIXWMoYzFDbClbTkhdQyg9TylbQ0BASF0yW0NIMl1OKFtDSDNdKVtDSDJdW0NIMl1PMg==

> <s_epik_cmdline>
J2VwaWtfcHl0aG9uJywgJy1waCcsICc3LjAnLCAnLXRuJywgJzgnLCAnLW1hJywgJzIwMCcsICctbWV0YWxfYmluZGluZycsICctaW1hZScsICc8aW5maWxlLm1hZT4nLCAnLW9tYWUnLCAnPG91dGZpbGUubWFlPic=

> <r_epik_Ionization_Penalty>
6.9249

> <r_epik_Ionization_Penalty_Charging>
6.74596

> <r_epik_Ionization_Penalty_Neutral>
0.178941

> <r_epik_State_Penalty>
6.78185

> <r_epik_Charging_Adjusted_Penalty>
13.5278

> <i_epik_Tot_Q>
0

> <i_epik_Tot_abs_Q>
2

> <r_epik_Metal_State_Penalty>
2.70608

> <b_epik_Metal_Only>
1

> <s_lp_Force_Field>
OPLS_2005

> <r_lp_Energy>
12.3896

> <b_lp_Chiralities_Consistent>
1

> <s_lp_Variant>
AV-unprocessed.smi:2482-8

> <Gold.Version>
5.8.1

> <Gold.Id.Protein>
6NUR|6NUR_protein|mol2

> <Gold.PLP.Fitness>
43.4983

> <Gold.PLP.PLP>
-37.0020

> <Gold.PLP.part.hbond>
-2.0000

> <Gold.PLP.part.metal>
0.0000

> <Gold.PLP.part.buried>
-2.5759

> <Gold.PLP.part.nonpolar>
-31.7554

> <Gold.PLP.part.repulsive>
0.1891

> <Gold.PLP.ligand.clash>
0.0000

> <Gold.PLP.ligand.torsion>
1.0315

> <Gold.PLP.Chemscore.Hbond>
2.6960

> <Gold.PLP.Chemscore.CHOScore>
0.0000

> <Gold.PLP.Chemscore.Metal>
0.0000

> <Gold.Chemscore.Hbonds>
donor molecule, donor type, donor heavy atom, donor atom, acceptor molecule, acceptor atom, score
      P1  H  7989  7998       L1    16  1.00
      P1  H  7997  8008       L1     7  1.70

> <Gold.PLP.Chemscore.Internal.Correction>
0.4713

> <Gold.Rescore>
     Score         DG    S(hbond)    S(metal)    S(lipo)     H(rot)  DE(clash)    DE(int)     intcor
     18.34     -20.78       1.77        0.00     102.20       1.00       0.20       2.24       ----

> <Gold.Chemscore.Fitness>
18.3374

> <Gold.Chemscore.DG>
-20.7828

> <Gold.Chemscore.ZeroCoef>
-5.4800

> <Gold.Chemscore.Hbond>
1.7682

> <Gold.Chemscore.Metal>
0.0000

> <Gold.Chemscore.Lipo>
102.1984

> <Gold.Chemscore.Internal_Hbond>
0.0000

> <Gold.Chemscore.DEClash>
0.2038

> <Gold.Chemscore.DEInternal>
2.2417

> <Gold.Chemscore.Rot>
1.0000

> <Gold.Chemscore.Internal.Correction>
   9.000000E+99

> <Gold.Chemscore.Hbonds>
donor molecule, donor type, donor heavy atom, donor atom, acceptor molecule, acceptor atom, score
      P1  H  7989  7998       L1    16  0.66
      P1  H  7997  8008       L1     7  0.57

> <Gold.Chemscore.Hbond.Weighted>
-5.9056

> <Gold.Chemscore.Metal.Weighted>
-0.0000

> <Gold.Chemscore.Lipo.Weighted>
-11.9572

> <Gold.Chemscore.Internal_Hbond.Weighted>
0.0000

> <Gold.Chemscore.DEClash.Weighted>
0.2038

> <Gold.Chemscore.DEInternal.Weighted>
2.2417

> <Gold.Chemscore.Rot.Weighted>
2.5600

> <Gold.Chemscore.Internal.Correction.Weighted>
   9.000000E+99

> <Gold.Protein.RotatedTorsions>
[ 6907 6896 6895 6894 ] final  179.36 input  -60.11 | X-H torsion
[ 7974 7965 7964 7962 ] final   73.23 input  175.53 | X-H torsion
[ 8008 7997 7996 7995 ] final  -70.32 input   59.86 | X-H torsion
[ 10167 10162 10161 10158 ] final  -48.51 input  -65.29 | X-H torsion
[ 10718 10713 10712 10709 ] final   88.76 input   66.30 | X-H torsion
[ 10763 10752 10751 10750 ] final  -77.18 input  -60.55 | X-H torsion
[ 11005 11000 10999 10996 ] final  -82.03 input  -57.11 | X-H torsion

> <Gold.Protein.ActiveResidues>
 VAL166  LYS551  ARG553  GLY616  TRP617  ASP618  TYR619  PRO620  LYS621  CYS622 
 ASP623  PHE694  ASN695  SER759  ASP760  ASP761  ALA762  ILE779  LEU786  VAL792 
 PHE793  MET794  SER795  GLU796  ALA797  LYS798  CYS799  TRP800  GLU811  SER814 

> <Gold.Protein.RotatedAtoms>
  151.6729  133.3313  159.3200 H   0  0  0  0  0  0  0  0  0  0  0  0  # atno 6907 bound_to 6896
  150.7859  134.6847  159.6472 H   0  0  0  0  0  0  0  0  0  0  0  0  # atno 6908 bound_to 6896
  152.3928  134.6417  160.0153 H   0  0  0  0  0  0  0  0  0  0  0  0  # atno 6909 bound_to 6896
  145.7435  139.2730  143.1473 H   0  0  0  0  0  0  0  0  0  0  0  0  # atno 7974 bound_to 7965
  154.5003  140.0836  156.7784 H   0  0  0  0  0  0  0  0  0  0  0  0  # atno 8008 bound_to 7997
  155.4018  140.3437  155.4239 H   0  0  0  0  0  0  0  0  0  0  0  0  # atno 8009 bound_to 7997
  156.1448  140.1540  156.8851 H   0  0  0  0  0  0  0  0  0  0  0  0  # atno 8010 bound_to 7997
  140.6728  143.2737  151.4080 H   0  0  0  0  0  0  0  0  0  0  0  0  # atno 10167 bound_to 10162
  157.6951  131.0307  150.3323 H   0  0  0  0  0  0  0  0  0  0  0  0  # atno 10718 bound_to 10713
  154.5095  135.5773  153.6594 H   0  0  0  0  0  0  0  0  0  0  0  0  # atno 10763 bound_to 10752
  152.9894  135.6155  154.2897 H   0  0  0  0  0  0  0  0  0  0  0  0  # atno 10764 bound_to 10752
  154.2811  135.2851  155.2676 H   0  0  0  0  0  0  0  0  0  0  0  0  # atno 10765 bound_to 10752
  141.1664  133.7225  156.8510 H   0  0  0  0  0  0  0  0  0  0  0  0  # atno 11005 bound_to 11000
  146.0426  140.8150  142.9821 LP  0  0  0  0  0  0  0  0  0  0  0  0  # atno 17320 bound_to 7965
  144.6865  140.2932  143.7275 LP  0  0  0  0  0  0  0  0  0  0  0  0  # atno 17321 bound_to 7965
  139.6004  144.1307  152.2192 LP  0  0  0  0  0  0  0  0  0  0  0  0  # atno 17342 bound_to 10162
  140.0689  144.5795  150.7206 LP  0  0  0  0  0  0  0  0  0  0  0  0  # atno 17343 bound_to 10162
  156.3795  130.3878  149.7113 LP  0  0  0  0  0  0  0  0  0  0  0  0  # atno 17370 bound_to 10713
  156.4500  130.7902  151.2923 LP  0  0  0  0  0  0  0  0  0  0  0  0  # atno 17371 bound_to 10713
  140.1915  134.8962  157.3066 LP  0  0  0  0  0  0  0  0  0  0  0  0  # atno 17394 bound_to 11000
  140.2285  134.3938  155.7533 LP  0  0  0  0  0  0  0  0  0  0  0  0  # atno 17395 bound_to 11000

$$$$
