AV-unprocessed.smi:2083|AV-procd|sdf|8501|dock3
  -GOLD-   2272011213D 1   1.00000     0.00000
 Structure written by MMmdl.
 44 45  0  0  0  0  0  0  0  0  3 V2000
  151.2705  140.7129  156.2280 C   0  0  0  0  0  0  0  0  0  0  0  0
  151.0894  139.2608  155.9453 C   0  0  0  0  0  0  0  0  0  0  0  0
  151.4127  138.4781  154.8737 C   0  0  0  0  0  0  0  0  0  0  0  0
  150.9598  137.1887  155.2649 C   0  0  0  0  0  0  0  0  0  0  0  0
  151.0391  136.0694  154.5291 N   0  5  0  0  0  0  0  0  0  0  0  0
  150.3214  134.9759  154.8717 C   0  0  0  0  0  0  0  0  0  0  0  0
  150.5333  134.2319  155.8319 O   0  0  0  0  0  0  0  0  0  0  0  0
  149.3017  134.7226  154.0383 N   0  0  0  0  0  0  0  0  0  0  0  0
  148.3563  133.6129  154.1332 C   0  0  0  0  0  0  0  0  0  0  0  0
  148.8483  132.3395  153.3995 C   0  0  1  0  0  0  0  0  0  0  0  0
  149.3851  131.2903  154.4042 C   0  0  0  0  0  0  0  0  0  0  0  0
  147.7558  131.8307  152.5066 N   0  3  2  0  0  0  0  0  0  0  0  0
  146.8838  132.8610  151.8705 C   0  0  0  0  0  0  0  0  0  0  0  0
  145.9056  132.2312  150.8643 C   0  0  0  0  0  0  0  0  0  0  0  0
  145.0655  131.1246  151.5126 C   0  0  0  0  0  0  0  0  0  0  0  0
  145.9628  130.0861  152.2054 C   0  0  1  0  0  0  0  0  0  0  0  0
  146.6960  129.1654  151.2141 C   0  0  0  0  0  0  0  0  0  0  0  0
  146.9323  130.7844  153.1792 C   0  0  0  0  0  0  0  0  0  0  0  0
  150.3986  137.1911  156.4624 N   0  0  0  0  0  0  0  0  0  0  0  0
  150.4837  138.5154  156.9087 O   0  0  0  0  0  0  0  0  0  0  0  0
  150.7820  141.3171  155.4635 H   0  0  0  0  0  0  0  0  0  0  0  0
  152.3288  140.9734  156.2402 H   0  0  0  0  0  0  0  0  0  0  0  0
  150.8444  140.9826  157.1945 H   0  0  0  0  0  0  0  0  0  0  0  0
  151.8971  138.7790  153.9570 H   0  0  0  0  0  0  0  0  0  0  0  0
  149.1722  135.3645  153.2699 H   0  0  0  0  0  0  0  0  0  0  0  0
  148.1287  133.3789  155.1745 H   0  0  0  0  0  0  0  0  0  0  0  0
  147.4227  133.9743  153.7055 H   0  0  0  0  0  0  0  0  0  0  0  0
  149.6941  132.6122  152.7659 H   0  0  0  0  0  0  0  0  0  0  0  0
  150.1978  131.6929  155.0081 H   0  0  0  0  0  0  0  0  0  0  0  0
  149.8025  130.4169  153.9033 H   0  0  0  0  0  0  0  0  0  0  0  0
  148.6055  130.9568  155.0899 H   0  0  0  0  0  0  0  0  0  0  0  0
  146.3365  133.4054  152.6416 H   0  0  0  0  0  0  0  0  0  0  0  0
  147.4782  133.5875  151.3176 H   0  0  0  0  0  0  0  0  0  0  0  0
  145.2491  133.0009  150.4570 H   0  0  0  0  0  0  0  0  0  0  0  0
  146.4610  131.8279  150.0170 H   0  0  0  0  0  0  0  0  0  0  0  0
  144.3964  131.5711  152.2495 H   0  0  0  0  0  0  0  0  0  0  0  0
  144.4264  130.6468  150.7691 H   0  0  0  0  0  0  0  0  0  0  0  0
  145.3118  129.4423  152.7984 H   0  0  0  0  0  0  0  0  0  0  0  0
  147.3968  129.7160  150.5864 H   0  0  0  0  0  0  0  0  0  0  0  0
  145.9905  128.6567  150.5566 H   0  0  0  0  0  0  0  0  0  0  0  0
  147.2629  128.3976  151.7417 H   0  0  0  0  0  0  0  0  0  0  0  0
  147.5621  130.0312  153.6505 H   0  0  0  0  0  0  0  0  0  0  0  0
  146.3647  131.2505  153.9864 H   0  0  0  0  0  0  0  0  0  0  0  0
  148.2299  131.3756  151.7394 H   0  0  0  0  0  0  0  0  0  0  0  0
  1  2  1  0  0  0  0
  1 21  1  0  0  0  0
  1 22  1  0  0  0  0
  1 23  1  0  0  0  0
  2 20  1  0  0  0  0
  2  3  2  0  0  0  0
  3  4  1  0  0  0  0
  3 24  1  0  0  0  0
  4  5  1  0  0  0  0
  4 19  2  0  0  0  0
  5  6  1  0  0  0  0
  6  7  2  0  0  0  0
  6  8  1  0  0  0  0
  8  9  1  0  0  0  0
  8 25  1  0  0  0  0
  9 10  1  0  0  0  0
  9 26  1  0  0  0  0
  9 27  1  0  0  0  0
 10 11  1  0  0  0  0
 10 12  1  0  0  0  0
 10 28  1  0  0  0  0
 11 29  1  0  0  0  0
 11 30  1  0  0  0  0
 11 31  1  0  0  0  0
 12 18  1  0  0  0  0
 12 13  1  0  0  0  0
 12 44  1  0  0  0  0
 13 14  1  0  0  0  0
 13 32  1  0  0  0  0
 13 33  1  0  0  0  0
 14 15  1  0  0  0  0
 14 34  1  0  0  0  0
 14 35  1  0  0  0  0
 15 16  1  0  0  0  0
 15 36  1  0  0  0  0
 15 37  1  0  0  0  0
 16 17  1  0  0  0  0
 16 18  1  0  0  0  0
 16 38  1  0  0  0  0
 17 39  1  0  0  0  0
 17 40  1  0  0  0  0
 17 41  1  0  0  0  0
 18 42  1  0  0  0  0
 18 43  1  0  0  0  0
 19 20  1  0  0  0  0
M  CHG  1   5  -1
M  CHG  1  12   1
M  END
> <s_m_source_file>
AV-unprocessed.smi

> <i_m_source_file_index>
2083

> <i_lp_mmshare_version>
43012

> <i_f3d_flags>
0

> <s_epik_input>
W0NIM11jMVtjSF1jKG5vMSlbTkhdQyg9TylbTkhdW0NIMl1bQ0BIXShbQ0gzXSlOMltDSDJdW0NIMl1bQ0gyXVtDQEBIXShbQ0gzXSlbQ0gyXTI=

> <s_epik_cmdline>
J2VwaWtfcHl0aG9uJywgJy1waCcsICc3LjAnLCAnLXRuJywgJzgnLCAnLW1hJywgJzIwMCcsICctbWV0YWxfYmluZGluZycsICctaW1hZScsICc8aW5maWxlLm1hZT4nLCAnLW9tYWUnLCAnPG91dGZpbGUubWFlPic=

> <r_epik_Ionization_Penalty>
6.22434

> <r_epik_Ionization_Penalty_Charging>
6.22425

> <r_epik_Ionization_Penalty_Neutral>
9.62407e-05

> <r_epik_State_Penalty>
6.22423

> <r_epik_Charging_Adjusted_Penalty>
12.4485

> <i_epik_Tot_Q>
0

> <i_epik_Tot_abs_Q>
2

> <r_epik_Metal_State_Penalty>
2.16764

> <b_epik_Metal_Only>
1

> <s_lp_Force_Field>
OPLS_2005

> <r_lp_Energy>
14.1674

> <b_lp_Chiralities_Consistent>
1

> <s_lp_Variant>
AV-unprocessed.smi:2083-12

> <Gold.Version>
5.8.1

> <Gold.Id.Protein>
6NUR|6NUR_protein|mol2

> <Gold.PLP.Fitness>
44.0392

> <Gold.PLP.PLP>
-36.2610

> <Gold.PLP.part.hbond>
-3.0000

> <Gold.PLP.part.metal>
0.0000

> <Gold.PLP.part.buried>
-3.3842

> <Gold.PLP.part.nonpolar>
-30.8621

> <Gold.PLP.part.repulsive>
1.1095

> <Gold.PLP.ligand.clash>
0.0000

> <Gold.PLP.ligand.torsion>
2.2133

> <Gold.PLP.Chemscore.Hbond>
4.0000

> <Gold.PLP.Chemscore.CHOScore>
0.0000

> <Gold.PLP.Chemscore.Metal>
0.0000

> <Gold.Chemscore.Hbonds>
donor molecule, donor type, donor heavy atom, donor atom, acceptor molecule, acceptor atom, score
      L1  H     8    25       P1  7948  1.00
      L1  H    12    44       P1 10747  1.00
      P1  H 10752 10765       L1     5  2.00

> <Gold.PLP.Chemscore.Internal.Correction>
0.2049

> <Gold.Rescore>
     Score         DG    S(hbond)    S(metal)    S(lipo)     H(rot)  DE(clash)    DE(int)     intcor
     16.53     -18.66       2.20        0.00      82.99       1.52       0.02       2.11       ----

> <Gold.Chemscore.Fitness>
16.5320

> <Gold.Chemscore.DG>
-18.6607

> <Gold.Chemscore.ZeroCoef>
-5.4800

> <Gold.Chemscore.Hbond>
2.2035

> <Gold.Chemscore.Metal>
0.0000

> <Gold.Chemscore.Lipo>
82.9895

> <Gold.Chemscore.Internal_Hbond>
0.0000

> <Gold.Chemscore.DEClash>
0.0234

> <Gold.Chemscore.DEInternal>
2.1052

> <Gold.Chemscore.Rot>
1.5190

> <Gold.Chemscore.Internal.Correction>
   9.000000E+99

> <Gold.Chemscore.Hbonds>
donor molecule, donor type, donor heavy atom, donor atom, acceptor molecule, acceptor atom, score
      L1  H     8    25       P1  7948  0.30
      L1  H    12    44       P1 10747  1.00
      P1  H 10752 10765       L1     5  0.32

> <Gold.Chemscore.Hbond.Weighted>
-7.3596

> <Gold.Chemscore.Metal.Weighted>
-0.0000

> <Gold.Chemscore.Lipo.Weighted>
-9.7098

> <Gold.Chemscore.Internal_Hbond.Weighted>
0.0000

> <Gold.Chemscore.DEClash.Weighted>
0.0234

> <Gold.Chemscore.DEInternal.Weighted>
2.1052

> <Gold.Chemscore.Rot.Weighted>
3.8886

> <Gold.Chemscore.Internal.Correction.Weighted>
   9.000000E+99

> <Gold.Protein.RotatedTorsions>
[ 6907 6896 6895 6894 ] final  123.36 input  -60.11 | X-H torsion
[ 7974 7965 7964 7962 ] final  113.92 input  175.53 | X-H torsion
[ 8008 7997 7996 7995 ] final -141.11 input   59.86 | X-H torsion
[ 10167 10162 10161 10158 ] final  -80.65 input  -65.29 | X-H torsion
[ 10718 10713 10712 10709 ] final  -21.98 input   66.30 | X-H torsion
[ 10763 10752 10751 10750 ] final  178.71 input  -60.55 | X-H torsion
[ 11005 11000 10999 10996 ] final   62.01 input  -57.11 | X-H torsion

> <Gold.Protein.ActiveResidues>
 VAL166  LYS551  ARG553  GLY616  TRP617  ASP618  TYR619  PRO620  LYS621  CYS622 
 ASP623  PHE694  ASN695  SER759  ASP760  ASP761  ALA762  ILE779  LEU786  VAL792 
 PHE793  MET794  SER795  GLU796  ALA797  LYS798  CYS799  TRP800  GLU811  SER814 

> <Gold.Protein.RotatedAtoms>
  152.4168  133.7051  159.6445 H   0  0  0  0  0  0  0  0  0  0  0  0  # atno 6907 bound_to 6896
  150.8045  133.8525  159.3218 H   0  0  0  0  0  0  0  0  0  0  0  0  # atno 6908 bound_to 6896
  151.6253  135.1030  160.0162 H   0  0  0  0  0  0  0  0  0  0  0  0  # atno 6909 bound_to 6896
  145.2108  139.2907  143.4269 H   0  0  0  0  0  0  0  0  0  0  0  0  # atno 7974 bound_to 7965
  155.4724  140.0554  157.2978 H   0  0  0  0  0  0  0  0  0  0  0  0  # atno 8008 bound_to 7997
  154.4693  140.2033  155.9990 H   0  0  0  0  0  0  0  0  0  0  0  0  # atno 8009 bound_to 7997
  156.1028  140.3216  155.7970 H   0  0  0  0  0  0  0  0  0  0  0  0  # atno 8010 bound_to 7997
  140.4483  143.2491  151.8525 H   0  0  0  0  0  0  0  0  0  0  0  0  # atno 10167 bound_to 10162
  156.5108  130.4609  149.6649 H   0  0  0  0  0  0  0  0  0  0  0  0  # atno 10718 bound_to 10713
  154.5112  135.2788  155.1341 H   0  0  0  0  0  0  0  0  0  0  0  0  # atno 10763 bound_to 10752
  154.2936  135.6262  153.5399 H   0  0  0  0  0  0  0  0  0  0  0  0  # atno 10764 bound_to 10752
  152.9919  135.5680  154.5578 H   0  0  0  0  0  0  0  0  0  0  0  0  # atno 10765 bound_to 10752
  140.0121  134.6280  155.9764 H   0  0  0  0  0  0  0  0  0  0  0  0  # atno 11005 bound_to 11000
  146.3398  140.2384  142.8595 LP  0  0  0  0  0  0  0  0  0  0  0  0  # atno 17320 bound_to 7965
  144.9857  140.8501  143.5370 LP  0  0  0  0  0  0  0  0  0  0  0  0  # atno 17321 bound_to 7965
  139.4794  144.5149  151.8882 LP  0  0  0  0  0  0  0  0  0  0  0  0  # atno 17342 bound_to 10162
  140.4237  144.2209  150.5887 LP  0  0  0  0  0  0  0  0  0  0  0  0  # atno 17343 bound_to 10162
  156.3243  130.7297  151.2215 LP  0  0  0  0  0  0  0  0  0  0  0  0  # atno 17370 bound_to 10713
  157.7451  131.0447  150.4807 LP  0  0  0  0  0  0  0  0  0  0  0  0  # atno 17371 bound_to 10713
  141.1718  133.6538  156.4680 LP  0  0  0  0  0  0  0  0  0  0  0  0  # atno 17394 bound_to 11000
  140.4535  134.6906  157.5051 LP  0  0  0  0  0  0  0  0  0  0  0  0  # atno 17395 bound_to 11000

$$$$
