AV-unprocessed.smi:224|AV-procd|sdf|1707|dock1
  -GOLD-   2262020173D 1   1.00000     0.00000
 Structure written by MMmdl.
 56 59  0  0  0  0  0  0  0  0  2 V2000
  144.5644  135.4588  150.5741 C   0  0  0  0  0  0  0  0  0  0  0  0
  145.0488  134.0221  150.8199 C   0  0  2  0  0  0  0  0  0  0  0  0
  144.9938  133.3220  149.5945 O   0  0  0  0  0  0  0  0  0  0  0  0
  144.1889  133.2642  151.8532 C   0  0  0  0  0  0  0  0  0  0  0  0
  144.6274  133.5039  153.2584 N   0  3  2  0  0  0  0  0  0  0  0  0
  144.4446  134.9320  153.6467 C   0  0  0  0  0  0  0  0  0  0  0  0
  144.8241  135.1854  155.1122 C   0  0  0  0  0  0  0  0  0  0  0  0
  146.1872  134.7407  155.3635 N   0  0  0  0  0  0  0  0  0  0  0  0
  147.1751  135.6475  155.1357 C   0  0  0  0  0  0  0  0  0  0  0  0
  148.4678  135.3190  155.4006 N   0  0  0  0  0  0  0  0  0  0  0  0
  149.4506  136.1948  155.1730 C   0  0  0  0  0  0  0  0  0  0  0  0
  149.3656  137.4368  154.6953 N   0  0  0  0  0  0  0  0  0  0  0  0
  148.0715  137.7814  154.4400 C   0  0  0  0  0  0  0  0  0  0  0  0
  146.9266  136.9554  154.6278 C   0  0  0  0  0  0  0  0  0  0  0  0
  145.7795  137.6539  154.2681 N   0  0  0  0  0  0  0  0  0  0  0  0
  146.2215  138.8196  153.8820 C   0  0  0  0  0  0  0  0  0  0  0  0
  147.5858  138.9847  153.9585 N   0  0  0  0  0  0  0  0  0  0  0  0
  148.3394  140.1770  153.6012 C   0  0  0  0  0  0  0  0  0  0  0  0
  147.8404  141.4543  154.3157 C   0  0  1  0  0  0  0  0  0  0  0  0
  148.8552  142.4420  154.2534 O   0  0  0  0  0  0  0  0  0  0  0  0
  146.5588  142.0385  153.7288 C   0  0  0  0  0  0  0  0  0  0  0  0
  145.8852  142.6632  154.9422 C   0  0  0  0  0  0  0  0  0  0  0  0
  146.1465  141.7136  155.9615 O   0  0  0  0  0  0  0  0  0  0  0  0
  147.4743  141.2259  155.7961 C   0  0  0  0  0  0  0  0  0  0  0  0
  146.4084  133.3378  155.0261 C   0  0  0  0  0  0  0  0  0  0  0  0
  146.0053  133.0018  153.5688 C   0  0  1  0  0  0  0  0  0  0  0  0
  146.1500  131.4784  153.3745 C   0  0  0  0  0  0  0  0  0  0  0  0
  144.6281  136.0583  151.4825 H   0  0  0  0  0  0  0  0  0  0  0  0
  143.5282  135.4789  150.2347 H   0  0  0  0  0  0  0  0  0  0  0  0
  145.1727  135.9533  149.8158 H   0  0  0  0  0  0  0  0  0  0  0  0
  146.0951  134.0396  151.1216 H   0  0  0  0  0  0  0  0  0  0  0  0
  145.3315  133.8782  148.9088 H   0  0  0  0  0  0  0  0  0  0  0  0
  143.1587  133.5741  151.6978 H   0  0  0  0  0  0  0  0  0  0  0  0
  144.2049  132.1915  151.6520 H   0  0  0  0  0  0  0  0  0  0  0  0
  145.0534  135.5637  152.9975 H   0  0  0  0  0  0  0  0  0  0  0  0
  143.4106  135.2409  153.5029 H   0  0  0  0  0  0  0  0  0  0  0  0
  144.6871  136.2396  155.3485 H   0  0  0  0  0  0  0  0  0  0  0  0
  144.1527  134.6344  155.7715 H   0  0  0  0  0  0  0  0  0  0  0  0
  150.4473  135.8518  155.4083 H   0  0  0  0  0  0  0  0  0  0  0  0
  145.5596  139.6004  153.5355 H   0  0  0  0  0  0  0  0  0  0  0  0
  149.3894  140.0016  153.8390 H   0  0  0  0  0  0  0  0  0  0  0  0
  148.2894  140.3040  152.5188 H   0  0  0  0  0  0  0  0  0  0  0  0
  148.6631  143.1088  154.8950 H   0  0  0  0  0  0  0  0  0  0  0  0
  146.7265  142.7449  152.9149 H   0  0  0  0  0  0  0  0  0  0  0  0
  145.9191  141.2407  153.3501 H   0  0  0  0  0  0  0  0  0  0  0  0
  146.3450  143.6186  155.1997 H   0  0  0  0  0  0  0  0  0  0  0  0
  144.8157  142.8190  154.8000 H   0  0  0  0  0  0  0  0  0  0  0  0
  147.5024  140.1717  156.0737 H   0  0  0  0  0  0  0  0  0  0  0  0
  148.1453  141.7578  156.4727 H   0  0  0  0  0  0  0  0  0  0  0  0
  147.4461  133.0583  155.2145 H   0  0  0  0  0  0  0  0  0  0  0  0
  145.8118  132.7390  155.7154 H   0  0  0  0  0  0  0  0  0  0  0  0
  146.6996  133.5005  152.8910 H   0  0  0  0  0  0  0  0  0  0  0  0
  147.1045  131.1287  153.7693 H   0  0  0  0  0  0  0  0  0  0  0  0
  146.1342  131.1797  152.3276 H   0  0  0  0  0  0  0  0  0  0  0  0
  145.3623  130.9344  153.8968 H   0  0  0  0  0  0  0  0  0  0  0  0
  144.0062  132.9656  153.8452 H   0  0  0  0  0  0  0  0  0  0  0  0
  1  2  1  0  0  0  0
  1 28  1  0  0  0  0
  1 29  1  0  0  0  0
  1 30  1  0  0  0  0
  2  3  1  0  0  0  0
  2  4  1  0  0  0  0
  2 31  1  0  0  0  0
  3 32  1  0  0  0  0
  4  5  1  0  0  0  0
  4 33  1  0  0  0  0
  4 34  1  0  0  0  0
  5 26  1  0  0  0  0
  5  6  1  0  0  0  0
  5 56  1  0  0  0  0
  6  7  1  0  0  0  0
  6 35  1  0  0  0  0
  6 36  1  0  0  0  0
  7  8  1  0  0  0  0
  7 37  1  0  0  0  0
  7 38  1  0  0  0  0
  8  9  1  0  0  0  0
  8 25  1  0  0  0  0
  9 14  1  0  0  0  0
  9 10  2  0  0  0  0
 10 11  1  0  0  0  0
 11 12  2  0  0  0  0
 11 39  1  0  0  0  0
 12 13  1  0  0  0  0
 13 17  1  0  0  0  0
 13 14  2  0  0  0  0
 14 15  1  0  0  0  0
 15 16  2  0  0  0  0
 16 17  1  0  0  0  0
 16 40  1  0  0  0  0
 17 18  1  0  0  0  0
 18 19  1  0  0  0  0
 18 41  1  0  0  0  0
 18 42  1  0  0  0  0
 19 24  1  0  0  0  0
 19 20  1  0  0  0  0
 19 21  1  0  0  0  0
 20 43  1  0  0  0  0
 21 22  1  0  0  0  0
 21 44  1  0  0  0  0
 21 45  1  0  0  0  0
 22 23  1  0  0  0  0
 22 46  1  0  0  0  0
 22 47  1  0  0  0  0
 23 24  1  0  0  0  0
 24 48  1  0  0  0  0
 24 49  1  0  0  0  0
 25 26  1  0  0  0  0
 25 50  1  0  0  0  0
 25 51  1  0  0  0  0
 26 27  1  0  0  0  0
 26 52  1  0  0  0  0
 27 53  1  0  0  0  0
 27 54  1  0  0  0  0
 27 55  1  0  0  0  0
M  CHG  1   5   1
M  END
> <s_m_source_file>
AV-unprocessed.smi

> <i_m_source_file_index>
224

> <i_lp_mmshare_version>
43012

> <i_f3d_flags>
0

> <s_epik_input>
W0NIM11bQ0BIXShbT0hdKVtDSDJdTjFbQ0gyXVtDSDJdTihbQ0gyXVtDQEhdMVtDSDNdKWMobltjSF1uMiljKGMyMyluW2NIXW4zW0NIMl1bQ0BAXTQoW09IXSlbQ0gyXVtDSDJdT1tDSDJdNA==

> <s_epik_cmdline>
J2VwaWtfcHl0aG9uJywgJy1waCcsICc3LjAnLCAnLXRuJywgJzgnLCAnLW1hJywgJzIwMCcsICctbWV0YWxfYmluZGluZycsICctaW1hZScsICc8aW5maWxlLm1hZT4nLCAnLW9tYWUnLCAnPG91dGZpbGUubWFlPic=

> <r_lp_tautomer_probability>
1

> <r_epik_Ionization_Penalty>
0.00516958

> <r_epik_Ionization_Penalty_Charging>
0.00509693

> <r_epik_Ionization_Penalty_Neutral>
7.26542e-05

> <r_epik_State_Penalty>
-0

> <r_epik_Charging_Adjusted_Penalty>
0.00509693

> <i_epik_Tot_Q>
1

> <i_epik_Tot_abs_Q>
1

> <r_epik_Metal_State_Penalty>
-0

> <b_epik_Metal_Only>
0

> <s_lp_Force_Field>
OPLS_2005

> <r_lp_Energy>
50.3284

> <b_lp_Chiralities_Consistent>
1

> <s_lp_Variant>
AV-unprocessed.smi:224-1

> <Gold.Version>
5.8.1

> <Gold.Id.Protein>
6NUR|6NUR_protein|mol2

> <Gold.PLP.Fitness>
43.3804

> <Gold.PLP.PLP>
-29.1424

> <Gold.PLP.part.hbond>
-3.9916

> <Gold.PLP.part.metal>
0.0000

> <Gold.PLP.part.buried>
-3.2200

> <Gold.PLP.part.nonpolar>
-22.3775

> <Gold.PLP.part.repulsive>
0.4425

> <Gold.PLP.ligand.clash>
0.0000

> <Gold.PLP.ligand.torsion>
0.8657

> <Gold.PLP.Chemscore.Hbond>
4.1123

> <Gold.PLP.Chemscore.CHOScore>
1.0000

> <Gold.PLP.Chemscore.Metal>
0.0000

> <Gold.Chemscore.Hbonds>
donor molecule, donor type, donor heavy atom, donor atom, acceptor molecule, acceptor atom, score
      L1  H     3    32       P1  7921  1.00
      L1  H     5    56       P1 10957  2.00
      L1  H    20    43       P1  8028  1.00
      P1  H  8011  8017       L1    20  0.12
      L1  C    16    40       P1 10175  1.00

> <Gold.PLP.Chemscore.Internal.Correction>
0.6326

> <Gold.Rescore>
     Score         DG    S(hbond)    S(metal)    S(lipo)     H(rot)  DE(clash)    DE(int)     intcor
     10.56     -13.06       2.93        0.00      54.57       3.36       0.19       2.31       ----

> <Gold.Chemscore.Fitness>
10.5582

> <Gold.Chemscore.DG>
-13.0593

> <Gold.Chemscore.ZeroCoef>
-5.4800

> <Gold.Chemscore.Hbond>
2.9338

> <Gold.Chemscore.Metal>
0.0000

> <Gold.Chemscore.Lipo>
54.5728

> <Gold.Chemscore.Internal_Hbond>
0.0000

> <Gold.Chemscore.DEClash>
0.1898

> <Gold.Chemscore.DEInternal>
2.3113

> <Gold.Chemscore.Rot>
3.3611

> <Gold.Chemscore.Internal.Correction>
   9.000000E+99

> <Gold.Chemscore.Hbonds>
donor molecule, donor type, donor heavy atom, donor atom, acceptor molecule, acceptor atom, score
      L1  H     3    32       P1  7921  0.82
      L1  H     5    56       P1 10957  0.88
      L1  H    20    43       P1  8028  0.97
      P1  H  8011  8017       L1    20  0.10

> <Gold.Chemscore.Hbond.Weighted>
-9.7987

> <Gold.Chemscore.Metal.Weighted>
-0.0000

> <Gold.Chemscore.Lipo.Weighted>
-6.3850

> <Gold.Chemscore.Internal_Hbond.Weighted>
0.0000

> <Gold.Chemscore.DEClash.Weighted>
0.1898

> <Gold.Chemscore.DEInternal.Weighted>
2.3113

> <Gold.Chemscore.Rot.Weighted>
8.6045

> <Gold.Chemscore.Internal.Correction.Weighted>
   9.000000E+99

> <Gold.Protein.RotatedTorsions>
[ 6907 6896 6895 6894 ] final -104.40 input  -60.11 | X-H torsion
[ 7974 7965 7964 7962 ] final   82.75 input  175.53 | X-H torsion
[ 8008 7997 7996 7995 ] final   90.27 input   59.86 | X-H torsion
[ 10167 10162 10161 10158 ] final -164.53 input  -65.29 | X-H torsion
[ 10718 10713 10712 10709 ] final -125.99 input   66.30 | X-H torsion
[ 10763 10752 10751 10750 ] final   79.63 input  -60.55 | X-H torsion
[ 11005 11000 10999 10996 ] final -143.92 input  -57.11 | X-H torsion

> <Gold.Protein.ActiveResidues>
 VAL166  LYS551  ARG553  GLY616  TRP617  ASP618  TYR619  PRO620  LYS621  CYS622 
 ASP623  PHE694  ASN695  SER759  ASP760  ASP761  ALA762  ILE779  LEU786  VAL792 
 PHE793  MET794  SER795  GLU796  ALA797  LYS798  CYS799  TRP800  GLU811  SER814 

> <Gold.Protein.RotatedAtoms>
  150.7285  134.0284  159.3724 H   0  0  0  0  0  0  0  0  0  0  0  0  # atno 6907 bound_to 6896
  151.8252  135.0637  160.0439 H   0  0  0  0  0  0  0  0  0  0  0  0  # atno 6908 bound_to 6896
  152.2974  133.5585  159.5633 H   0  0  0  0  0  0  0  0  0  0  0  0  # atno 6909 bound_to 6896
  145.6209  139.2385  143.2139 H   0  0  0  0  0  0  0  0  0  0  0  0  # atno 7974 bound_to 7965
  156.0100  140.3351  155.6931 H   0  0  0  0  0  0  0  0  0  0  0  0  # atno 8008 bound_to 7997
  155.6171  140.0671  157.2707 H   0  0  0  0  0  0  0  0  0  0  0  0  # atno 8009 bound_to 7997
  154.4278  140.1783  156.1320 H   0  0  0  0  0  0  0  0  0  0  0  0  # atno 8010 bound_to 7997
  139.6244  144.0560  152.1962 H   0  0  0  0  0  0  0  0  0  0  0  0  # atno 10167 bound_to 10162
  156.1725  130.6677  151.0198 H   0  0  0  0  0  0  0  0  0  0  0  0  # atno 10718 bound_to 10713
  153.0968  135.4833  154.8793 H   0  0  0  0  0  0  0  0  0  0  0  0  # atno 10763 bound_to 10752
  154.7333  135.3065  154.8856 H   0  0  0  0  0  0  0  0  0  0  0  0  # atno 10764 bound_to 10752
  153.9486  135.6826  153.4797 H   0  0  0  0  0  0  0  0  0  0  0  0  # atno 10765 bound_to 10752
  140.8077  134.2782  157.4953 H   0  0  0  0  0  0  0  0  0  0  0  0  # atno 11005 bound_to 11000
  146.1432  140.7029  142.9357 LP  0  0  0  0  0  0  0  0  0  0  0  0  # atno 17320 bound_to 7965
  144.7231  140.4439  143.6993 LP  0  0  0  0  0  0  0  0  0  0  0  0  # atno 17321 bound_to 7965
  140.0210  144.6153  150.7566 LP  0  0  0  0  0  0  0  0  0  0  0  0  # atno 17342 bound_to 10162
  140.7402  143.2801  151.3623 LP  0  0  0  0  0  0  0  0  0  0  0  0  # atno 17343 bound_to 10162
  157.6812  131.0837  150.7364 LP  0  0  0  0  0  0  0  0  0  0  0  0  # atno 17370 bound_to 10713
  156.7422  130.4743  149.5475 LP  0  0  0  0  0  0  0  0  0  0  0  0  # atno 17371 bound_to 10713
  139.8716  134.9465  156.3941 LP  0  0  0  0  0  0  0  0  0  0  0  0  # atno 17394 bound_to 11000
  140.9230  133.7632  155.9930 LP  0  0  0  0  0  0  0  0  0  0  0  0  # atno 17395 bound_to 11000

$$$$
