AV-unprocessed.smi:34|AV-procd|sdf|237|dock2
  -GOLD-   2262015583D 1   1.00000     0.00000
 Structure written by MMmdl.
 54 58  0  0  0  0  0  0  0  0  2 V2000
  152.5338  140.1456  157.6596 O   0  0  0  0  0  0  0  0  0  0  0  0
  151.7225  141.0664  157.5413 C   0  0  0  0  0  0  0  0  0  0  0  0
  150.6336  141.1190  156.7331 N   0  5  0  0  0  0  0  0  0  0  0  0
  150.2779  140.0410  156.0183 C   0  0  0  0  0  0  0  0  0  0  0  0
  150.4547  140.0207  154.6725 N   0  0  0  0  0  0  0  0  0  0  0  0
  150.1083  138.9413  153.9615 C   0  0  0  0  0  0  0  0  0  0  0  0
  149.5819  137.7890  154.3867 N   0  0  0  0  0  0  0  0  0  0  0  0
  149.4059  137.7938  155.7399 C   0  0  0  0  0  0  0  0  0  0  0  0
  149.7301  138.8718  156.6140 C   0  0  0  0  0  0  0  0  0  0  0  0
  149.4305  138.5466  157.9288 N   0  0  0  0  0  0  0  0  0  0  0  0
  148.9484  137.3128  157.7972 C   0  0  0  0  0  0  0  0  0  0  0  0
  148.8946  136.7959  156.5537 N   0  0  0  0  0  0  0  0  0  0  0  0
  148.4078  135.4430  156.1524 C   0  0  2  0  0  0  0  0  0  0  0  0
  148.3612  134.6505  157.2971 O   0  0  0  0  0  0  0  0  0  0  0  0
  148.6746  133.3183  156.9278 C   0  0  2  0  0  0  0  0  0  0  0  0
  149.0733  132.4896  158.1554 C   0  0  0  0  0  0  0  0  0  0  0  0
  148.5075  133.0724  159.3182 O   0  0  0  0  0  0  0  0  0  0  0  0
  148.0133  132.2870  160.2950 C   0  0  0  0  0  0  0  0  0  0  0  0
  148.2691  131.0855  160.3995 O   0  0  0  0  0  0  0  0  0  0  0  0
  147.1190  133.0235  161.2344 C   0  0  0  0  0  0  0  0  0  0  0  0
  147.5400  134.2669  161.7610 C   0  0  0  0  0  0  0  0  0  0  0  0
  146.7182  134.9840  162.6520 C   0  0  0  0  0  0  0  0  0  0  0  0
  145.4647  134.4667  163.0273 C   0  0  0  0  0  0  0  0  0  0  0  0
  145.0339  133.2311  162.5101 C   0  0  0  0  0  0  0  0  0  0  0  0
  145.8547  132.5123  161.6190 C   0  0  0  0  0  0  0  0  0  0  0  0
  149.7690  133.4876  155.8712 C   0  0  2  0  0  0  0  0  0  0  0  0
  150.9650  133.6442  156.4408 F   0  0  0  0  0  0  0  0  0  0  0  0
  149.3738  134.7745  155.1558 C   0  0  1  0  0  0  0  0  0  0  0  0
  148.7363  134.4632  153.9335 O   0  0  0  0  0  0  0  0  0  0  0  0
  151.8704  142.2808  158.4187 C   0  0  0  0  0  0  0  0  0  0  0  0
  152.4414  142.1502  159.7053 C   0  0  0  0  0  0  0  0  0  0  0  0
  152.6120  143.2783  160.5312 C   0  0  0  0  0  0  0  0  0  0  0  0
  152.2221  144.5517  160.0756 C   0  0  0  0  0  0  0  0  0  0  0  0
  151.6657  144.6965  158.7910 C   0  0  0  0  0  0  0  0  0  0  0  0
  151.4949  143.5689  157.9643 C   0  0  0  0  0  0  0  0  0  0  0  0
  150.2788  139.0106  152.8975 H   0  0  0  0  0  0  0  0  0  0  0  0
  148.6139  136.7516  158.6572 H   0  0  0  0  0  0  0  0  0  0  0  0
  147.4045  135.6025  155.7536 H   0  0  0  0  0  0  0  0  0  0  0  0
  147.7854  132.8870  156.4639 H   0  0  0  0  0  0  0  0  0  0  0  0
  148.7409  131.4566  158.0422 H   0  0  0  0  0  0  0  0  0  0  0  0
  150.1592  132.4723  158.2560 H   0  0  0  0  0  0  0  0  0  0  0  0
  148.4994  134.6831  161.4885 H   0  0  0  0  0  0  0  0  0  0  0  0
  147.0507  135.9323  163.0482 H   0  0  0  0  0  0  0  0  0  0  0  0
  144.8348  135.0166  163.7110 H   0  0  0  0  0  0  0  0  0  0  0  0
  144.0716  132.8331  162.7967 H   0  0  0  0  0  0  0  0  0  0  0  0
  145.4928  131.5676  161.2401 H   0  0  0  0  0  0  0  0  0  0  0  0
  149.8517  132.6239  155.2100 H   0  0  0  0  0  0  0  0  0  0  0  0
  150.2401  135.4072  154.9552 H   0  0  0  0  0  0  0  0  0  0  0  0
  148.7708  135.2254  153.3754 H   0  0  0  0  0  0  0  0  0  0  0  0
  152.7476  141.1801  160.0694 H   0  0  0  0  0  0  0  0  0  0  0  0
  153.0439  143.1657  161.5145 H   0  0  0  0  0  0  0  0  0  0  0  0
  152.3535  145.4167  160.7085 H   0  0  0  0  0  0  0  0  0  0  0  0
  151.3725  145.6736  158.4364 H   0  0  0  0  0  0  0  0  0  0  0  0
  151.0767  143.7039  156.9772 H   0  0  0  0  0  0  0  0  0  0  0  0
  1  2  2  0  0  0  0
  2  3  1  0  0  0  0
  2 30  1  0  0  0  0
  3  4  1  0  0  0  0
  4  9  1  0  0  0  0
  4  5  2  0  0  0  0
  5  6  1  0  0  0  0
  6  7  2  0  0  0  0
  6 36  1  0  0  0  0
  7  8  1  0  0  0  0
  8 12  1  0  0  0  0
  8  9  2  0  0  0  0
  9 10  1  0  0  0  0
 10 11  2  0  0  0  0
 11 12  1  0  0  0  0
 11 37  1  0  0  0  0
 12 13  1  0  0  0  0
 13 28  1  0  0  0  0
 13 14  1  0  0  0  0
 13 38  1  0  0  0  0
 14 15  1  0  0  0  0
 15 16  1  0  0  0  0
 15 26  1  0  0  0  0
 15 39  1  0  0  0  0
 16 17  1  0  0  0  0
 16 40  1  0  0  0  0
 16 41  1  0  0  0  0
 17 18  1  0  0  0  0
 18 19  2  0  0  0  0
 18 20  1  0  0  0  0
 20 25  1  0  0  0  0
 20 21  2  0  0  0  0
 21 22  1  0  0  0  0
 21 42  1  0  0  0  0
 22 23  2  0  0  0  0
 22 43  1  0  0  0  0
 23 24  1  0  0  0  0
 23 44  1  0  0  0  0
 24 25  2  0  0  0  0
 24 45  1  0  0  0  0
 25 46  1  0  0  0  0
 26 27  1  0  0  0  0
 26 28  1  0  0  0  0
 26 47  1  0  0  0  0
 28 29  1  0  0  0  0
 28 48  1  0  0  0  0
 29 49  1  0  0  0  0
 30 35  1  0  0  0  0
 30 31  2  0  0  0  0
 31 32  1  0  0  0  0
 31 50  1  0  0  0  0
 32 33  2  0  0  0  0
 32 51  1  0  0  0  0
 33 34  1  0  0  0  0
 33 52  1  0  0  0  0
 34 35  2  0  0  0  0
 34 53  1  0  0  0  0
 35 54  1  0  0  0  0
M  CHG  1   3  -1
M  END
> <s_m_source_file>
AV-unprocessed.smi

> <i_m_source_file_index>
34

> <i_lp_mmshare_version>
43012

> <i_f3d_flags>
0

> <s_epik_input>
W2NIXTFbY0hdW2NIXVtjSF1bY0hdYzFDKD1PKVtOSF1jKG5bY0hdbjIpYyhjMjMpbltjSF1uM1tDQEBIXTRPW0NASF0oW0NAQEhdKEYpW0NASF00W09IXSlbQ0gyXU9DKD1PKWM1W2NIXVtjSF1bY0hdW2NIXVtjSF01

> <s_epik_cmdline>
J2VwaWtfcHl0aG9uJywgJy1waCcsICc3LjAnLCAnLXRuJywgJzgnLCAnLW1hJywgJzIwMCcsICctbWV0YWxfYmluZGluZycsICctaW1hZScsICc8aW5maWxlLm1hZT4nLCAnLW9tYWUnLCAnPG91dGZpbGUubWFlPic=

> <r_lp_tautomer_probability>
1

> <r_epik_Ionization_Penalty>
4.33227

> <r_epik_Ionization_Penalty_Charging>
3.41027

> <r_epik_Ionization_Penalty_Neutral>
0.922001

> <r_epik_State_Penalty>
3.41358

> <r_epik_Charging_Adjusted_Penalty>
6.82385

> <i_epik_Tot_Q>
-1

> <i_epik_Tot_abs_Q>
1

> <r_epik_Metal_State_Penalty>
0.496292

> <b_epik_Metal_Only>
1

> <s_epik_Chemistry_Notes>
This compound has an ester and may undergo hydrolysis at high or low pH. This compound contains an acetal/aminal-like group ( X-CH(R)-Y where X, Y are N, S, or O) that may be acid/base labile, releasing an aldehyde.

> <s_lp_Force_Field>
OPLS_2005

> <r_lp_Energy>
44.3344

> <b_lp_Chiralities_Consistent>
1

> <s_lp_Variant>
AV-unprocessed.smi:34-23

> <Gold.Version>
5.8.1

> <Gold.Id.Protein>
6NUR|6NUR_protein|mol2

> <Gold.PLP.Fitness>
60.6181

> <Gold.PLP.PLP>
-54.5094

> <Gold.PLP.part.hbond>
-3.6092

> <Gold.PLP.part.metal>
0.0000

> <Gold.PLP.part.buried>
-6.5401

> <Gold.PLP.part.nonpolar>
-45.1705

> <Gold.PLP.part.repulsive>
0.8088

> <Gold.PLP.ligand.clash>
0.0000

> <Gold.PLP.ligand.torsion>
3.3435

> <Gold.PLP.Chemscore.Hbond>
3.0000

> <Gold.PLP.Chemscore.CHOScore>
1.0000

> <Gold.PLP.Chemscore.Metal>
0.0000

> <Gold.Chemscore.Hbonds>
donor molecule, donor type, donor heavy atom, donor atom, acceptor molecule, acceptor atom, score
      L1  H    29    49       P1  7948  1.00
      P1  H  7989  7998       L1     5  1.00
      P1  H  7997  8008       L1     1  0.84
      L1  C     6    36       P1  7957  1.00

> <Gold.PLP.Chemscore.Internal.Correction>
0.7956

> <Gold.Rescore>
     Score         DG    S(hbond)    S(metal)    S(lipo)     H(rot)  DE(clash)    DE(int)     intcor
     17.86     -22.22       2.36        0.00     134.59       2.69       1.46       2.89       ----

> <Gold.Chemscore.Fitness>
17.8606

> <Gold.Chemscore.DG>
-22.2177

> <Gold.Chemscore.ZeroCoef>
-5.4800

> <Gold.Chemscore.Hbond>
2.3616

> <Gold.Chemscore.Metal>
0.0000

> <Gold.Chemscore.Lipo>
134.5947

> <Gold.Chemscore.Internal_Hbond>
0.0000

> <Gold.Chemscore.DEClash>
1.4644

> <Gold.Chemscore.DEInternal>
2.8927

> <Gold.Chemscore.Rot>
2.6944

> <Gold.Chemscore.Internal.Correction>
   9.000000E+99

> <Gold.Chemscore.Hbonds>
donor molecule, donor type, donor heavy atom, donor atom, acceptor molecule, acceptor atom, score
      L1  H    29    49       P1  7948  0.74
      P1  H  7989  7998       L1     5  0.30
      P1  H  7997  8008       L1     1  0.78

> <Gold.Chemscore.Hbond.Weighted>
-7.8877

> <Gold.Chemscore.Metal.Weighted>
-0.0000

> <Gold.Chemscore.Lipo.Weighted>
-15.7476

> <Gold.Chemscore.Internal_Hbond.Weighted>
0.0000

> <Gold.Chemscore.DEClash.Weighted>
1.4644

> <Gold.Chemscore.DEInternal.Weighted>
2.8927

> <Gold.Chemscore.Rot.Weighted>
6.8975

> <Gold.Chemscore.Internal.Correction.Weighted>
   9.000000E+99

> <Gold.Protein.RotatedTorsions>
[ 6907 6896 6895 6894 ] final  154.92 input  -60.11 | X-H torsion
[ 7974 7965 7964 7962 ] final   49.23 input  175.53 | X-H torsion
[ 8008 7997 7996 7995 ] final  -75.26 input   59.86 | X-H torsion
[ 10167 10162 10161 10158 ] final    1.84 input  -65.29 | X-H torsion
[ 10718 10713 10712 10709 ] final -176.05 input   66.30 | X-H torsion
[ 10763 10752 10751 10750 ] final   23.56 input  -60.55 | X-H torsion
[ 11005 11000 10999 10996 ] final  171.91 input  -57.11 | X-H torsion

> <Gold.Protein.ActiveResidues>
 VAL166  LYS551  ARG553  GLY616  TRP617  ASP618  TYR619  PRO620  LYS621  CYS622 
 ASP623  PHE694  ASN695  SER759  ASP760  ASP761  ALA762  ILE779  LEU786  VAL792 
 PHE793  MET794  SER795  GLU796  ALA797  LYS798  CYS799  TRP800  GLU811  SER814 

> <Gold.Protein.RotatedAtoms>
  152.0516  133.4021  159.4379 H   0  0  0  0  0  0  0  0  0  0  0  0  # atno 6907 bound_to 6896
  150.6870  134.3302  159.4833 H   0  0  0  0  0  0  0  0  0  0  0  0  # atno 6908 bound_to 6896
  152.1112  134.9272  160.0617 H   0  0  0  0  0  0  0  0  0  0  0  0  # atno 6909 bound_to 6896
  146.0129  139.4563  142.9945 H   0  0  0  0  0  0  0  0  0  0  0  0  # atno 7974 bound_to 7965
  154.5402  140.0747  156.8496 H   0  0  0  0  0  0  0  0  0  0  0  0  # atno 8008 bound_to 7997
  155.3197  140.3395  155.4223 H   0  0  0  0  0  0  0  0  0  0  0  0  # atno 8009 bound_to 7997
  156.1867  140.1671  156.8158 H   0  0  0  0  0  0  0  0  0  0  0  0  # atno 8010 bound_to 7997
  140.6664  143.7168  150.7835 H   0  0  0  0  0  0  0  0  0  0  0  0  # atno 10167 bound_to 10162
  156.8089  130.9579  151.3116 H   0  0  0  0  0  0  0  0  0  0  0  0  # atno 10718 bound_to 10713
  153.0829  135.6624  154.0008 H   0  0  0  0  0  0  0  0  0  0  0  0  # atno 10763 bound_to 10752
  153.9625  135.2972  155.3434 H   0  0  0  0  0  0  0  0  0  0  0  0  # atno 10764 bound_to 10752
  154.7232  135.5155  153.8916 H   0  0  0  0  0  0  0  0  0  0  0  0  # atno 10765 bound_to 10752
  140.3241  134.7412  157.4086 H   0  0  0  0  0  0  0  0  0  0  0  0  # atno 11005 bound_to 11000
  145.7314  141.0041  143.1349 LP  0  0  0  0  0  0  0  0  0  0  0  0  # atno 17320 bound_to 7965
  144.6959  139.8989  143.7457 LP  0  0  0  0  0  0  0  0  0  0  0  0  # atno 17321 bound_to 7965
  140.0846  143.4936  152.2512 LP  0  0  0  0  0  0  0  0  0  0  0  0  # atno 17342 bound_to 10162
  139.5914  144.7551  151.3391 LP  0  0  0  0  0  0  0  0  0  0  0  0  # atno 17343 bound_to 10162
  157.6516  130.8889  149.9644 LP  0  0  0  0  0  0  0  0  0  0  0  0  # atno 17370 bound_to 10713
  156.1056  130.3653  150.0139 LP  0  0  0  0  0  0  0  0  0  0  0  0  # atno 17371 bound_to 10713
  140.0916  134.5593  155.8438 LP  0  0  0  0  0  0  0  0  0  0  0  0  # atno 17394 bound_to 11000
  141.2079  133.6669  156.6339 LP  0  0  0  0  0  0  0  0  0  0  0  0  # atno 17395 bound_to 11000

$$$$
