AV-unprocessed.smi:3193|AV-procd|sdf|12208|dock7
  -GOLD-   2272018 43D 1   1.00000     0.00000
 Structure written by MMmdl.
 41 42  0  0  0  0  0  0  0  0  3 V2000
  151.5962  145.1053  159.5587 C   0  0  0  0  0  0  0  0  0  0  0  0
  152.4064  143.8025  159.4184 C   0  0  1  0  0  0  0  0  0  0  0  0
  152.8211  143.3020  160.8183 C   0  0  0  0  0  0  0  0  0  0  0  0
  153.6826  142.0342  160.7467 C   0  0  0  0  0  0  0  0  0  0  0  0
  152.9573  140.9258  159.9762 C   0  0  0  0  0  0  0  0  0  0  0  0
  152.5512  141.4096  158.5771 C   0  0  0  0  0  0  0  0  0  0  0  0
  151.6700  142.6776  158.6296 C   0  0  2  0  0  0  0  0  0  0  0  0
  151.2732  143.0855  157.1928 C   0  0  0  0  0  0  0  0  0  0  0  0
  149.9322  142.5855  156.8317 N   0  3  0  0  0  0  0  0  0  0  0  0
  149.9229  141.2336  156.2384 C   0  0  0  0  0  0  0  0  0  0  0  0
  149.5544  141.2784  154.7463 C   0  0  0  0  0  0  0  0  0  0  0  0
  148.1031  141.3241  154.5308 N   0  0  0  0  0  0  0  0  0  0  0  0
  147.1995  142.1575  155.1397 C   0  0  0  0  0  0  0  0  0  0  0  0
  145.9675  141.8400  154.6284 C   0  0  0  0  0  0  0  0  0  0  0  0
  146.1710  140.8315  153.7251 N   0  3  0  0  0  0  0  0  0  0  0  0
  147.4704  140.5230  153.6625 C   0  0  0  0  0  0  0  0  0  0  0  0
  150.6133  144.9190  159.9928 H   0  0  0  0  0  0  0  0  0  0  0  0
  151.4580  145.6028  158.5992 H   0  0  0  0  0  0  0  0  0  0  0  0
  152.1112  145.8178  160.2039 H   0  0  0  0  0  0  0  0  0  0  0  0
  153.3215  144.0502  158.8776 H   0  0  0  0  0  0  0  0  0  0  0  0
  153.3758  144.0798  161.3444 H   0  0  0  0  0  0  0  0  0  0  0  0
  151.9312  143.1022  161.4170 H   0  0  0  0  0  0  0  0  0  0  0  0
  154.6316  142.2615  160.2593 H   0  0  0  0  0  0  0  0  0  0  0  0
  153.9259  141.6909  161.7527 H   0  0  0  0  0  0  0  0  0  0  0  0
  153.5994  140.0482  159.8958 H   0  0  0  0  0  0  0  0  0  0  0  0
  152.0715  140.6116  160.5295 H   0  0  0  0  0  0  0  0  0  0  0  0
  153.4479  141.6073  157.9880 H   0  0  0  0  0  0  0  0  0  0  0  0
  152.0206  140.6056  158.0655 H   0  0  0  0  0  0  0  0  0  0  0  0
  150.7611  142.4113  159.1719 H   0  0  0  0  0  0  0  0  0  0  0  0
  151.3163  144.1704  157.0850 H   0  0  0  0  0  0  0  0  0  0  0  0
  151.9769  142.6700  156.4700 H   0  0  0  0  0  0  0  0  0  0  0  0
  149.3503  142.5888  157.6577 H   0  0  0  0  0  0  0  0  0  0  0  0
  150.9029  140.7709  156.3640 H   0  0  0  0  0  0  0  0  0  0  0  0
  149.2071  140.6144  156.7804 H   0  0  0  0  0  0  0  0  0  0  0  0
  149.9803  142.1681  154.2809 H   0  0  0  0  0  0  0  0  0  0  0  0
  149.9641  140.4158  154.2182 H   0  0  0  0  0  0  0  0  0  0  0  0
  147.4909  142.8953  155.8737 H   0  0  0  0  0  0  0  0  0  0  0  0
  144.9875  142.2474  154.8319 H   0  0  0  0  0  0  0  0  0  0  0  0
  147.9167  139.7721  153.0346 H   0  0  0  0  0  0  0  0  0  0  0  0
  149.5402  143.2270  156.1573 H   0  0  0  0  0  0  0  0  0  0  0  0
  145.4447  140.3882  153.1759 H   0  0  0  0  0  0  0  0  0  0  0  0
  1  2  1  0  0  0  0
  1 17  1  0  0  0  0
  1 18  1  0  0  0  0
  1 19  1  0  0  0  0
  2  7  1  0  0  0  0
  2  3  1  0  0  0  0
  2 20  1  0  0  0  0
  3  4  1  0  0  0  0
  3 21  1  0  0  0  0
  3 22  1  0  0  0  0
  4  5  1  0  0  0  0
  4 23  1  0  0  0  0
  4 24  1  0  0  0  0
  5  6  1  0  0  0  0
  5 25  1  0  0  0  0
  5 26  1  0  0  0  0
  6  7  1  0  0  0  0
  6 27  1  0  0  0  0
  6 28  1  0  0  0  0
  7  8  1  0  0  0  0
  7 29  1  0  0  0  0
  8  9  1  0  0  0  0
  8 30  1  0  0  0  0
  8 31  1  0  0  0  0
  9 10  1  0  0  0  0
  9 32  1  0  0  0  0
  9 40  1  0  0  0  0
 10 11  1  0  0  0  0
 10 33  1  0  0  0  0
 10 34  1  0  0  0  0
 11 12  1  0  0  0  0
 11 35  1  0  0  0  0
 11 36  1  0  0  0  0
 12 16  1  0  0  0  0
 12 13  1  0  0  0  0
 13 14  2  0  0  0  0
 13 37  1  0  0  0  0
 14 15  1  0  0  0  0
 14 38  1  0  0  0  0
 15 16  2  0  0  0  0
 15 41  1  0  0  0  0
 16 39  1  0  0  0  0
M  CHG  1   9   1
M  CHG  1  15   1
M  END
> <s_m_source_file>
AV-unprocessed.smi

> <i_m_source_file_index>
3193

> <i_lp_mmshare_version>
43012

> <i_f3d_flags>
0

> <s_epik_input>
W0NIM11bQ0BASF0xW0NIMl1bQ0gyXVtDSDJdW0NIMl1bQ0BIXTFbQ0gyXVtOSF1bQ0gyXVtDSDJdbjJbY0hdW2NIXW5bY0hdMg==

> <s_epik_cmdline>
J2VwaWtfcHl0aG9uJywgJy1waCcsICc3LjAnLCAnLXRuJywgJzgnLCAnLW1hJywgJzIwMCcsICctbWV0YWxfYmluZGluZycsICctaW1hZScsICc8aW5maWxlLm1hZT4nLCAnLW9tYWUnLCAnPG91dGZpbGUubWFlPic=

> <r_lp_tautomer_probability>
1

> <r_epik_Ionization_Penalty>
1.50262

> <r_epik_Ionization_Penalty_Charging>
0.00193432

> <r_epik_Ionization_Penalty_Neutral>
1.50068

> <r_epik_State_Penalty>
1.11854

> <r_epik_Charging_Adjusted_Penalty>
1.12048

> <i_epik_Tot_Q>
2

> <i_epik_Tot_abs_Q>
2

> <r_epik_Metal_State_Penalty>
5.11322

> <b_epik_Metal_Only>
0

> <s_lp_Force_Field>
OPLS_2005

> <r_lp_Energy>
27.1702

> <b_lp_Chiralities_Consistent>
1

> <s_lp_Variant>
AV-unprocessed.smi:3193-8

> <Gold.Version>
5.8.1

> <Gold.Id.Protein>
6NUR|6NUR_protein|mol2

> <Gold.PLP.Fitness>
55.6906

> <Gold.PLP.PLP>
-40.2910

> <Gold.PLP.part.hbond>
-2.0000

> <Gold.PLP.part.metal>
0.0000

> <Gold.PLP.part.buried>
-0.9298

> <Gold.PLP.part.nonpolar>
-37.4317

> <Gold.PLP.part.repulsive>
0.0536

> <Gold.PLP.ligand.clash>
0.0000

> <Gold.PLP.ligand.torsion>
1.3104

> <Gold.PLP.Chemscore.Hbond>
4.0000

> <Gold.PLP.Chemscore.CHOScore>
2.0000

> <Gold.PLP.Chemscore.Metal>
0.0000

> <Gold.Chemscore.Hbonds>
donor molecule, donor type, donor heavy atom, donor atom, acceptor molecule, acceptor atom, score
      L1  H     9    40       P1  8028  2.00
      L1  H    15    41       P1 10175  1.89
      L1  C    13    37       P1  8028  0.95
      L1  C    16    39       P1  7957  0.99

> <Gold.PLP.Chemscore.Internal.Correction>
0.0204

> <Gold.Rescore>
     Score         DG    S(hbond)    S(metal)    S(lipo)     H(rot)  DE(clash)    DE(int)     intcor
     17.85     -19.39       1.88        0.00     108.58       1.98       0.24       1.29       ----

> <Gold.Chemscore.Fitness>
17.8540

> <Gold.Chemscore.DG>
-19.3859

> <Gold.Chemscore.ZeroCoef>
-5.4800

> <Gold.Chemscore.Hbond>
1.8755

> <Gold.Chemscore.Metal>
0.0000

> <Gold.Chemscore.Lipo>
108.5798

> <Gold.Chemscore.Internal_Hbond>
0.0000

> <Gold.Chemscore.DEClash>
0.2386

> <Gold.Chemscore.DEInternal>
1.2933

> <Gold.Chemscore.Rot>
1.9774

> <Gold.Chemscore.Internal.Correction>
   9.000000E+99

> <Gold.Chemscore.Hbonds>
donor molecule, donor type, donor heavy atom, donor atom, acceptor molecule, acceptor atom, score
      L1  H     9    40       P1  8028  0.98
      L1  H    15    41       P1 10175  0.88

> <Gold.Chemscore.Hbond.Weighted>
-6.2643

> <Gold.Chemscore.Metal.Weighted>
-0.0000

> <Gold.Chemscore.Lipo.Weighted>
-12.7038

> <Gold.Chemscore.Internal_Hbond.Weighted>
0.0000

> <Gold.Chemscore.DEClash.Weighted>
0.2386

> <Gold.Chemscore.DEInternal.Weighted>
1.2933

> <Gold.Chemscore.Rot.Weighted>
5.0622

> <Gold.Chemscore.Internal.Correction.Weighted>
   9.000000E+99

> <Gold.Protein.RotatedTorsions>
[ 6907 6896 6895 6894 ] final  114.69 input  -60.11 | X-H torsion
[ 7974 7965 7964 7962 ] final  147.50 input  175.53 | X-H torsion
[ 8008 7997 7996 7995 ] final  101.00 input   59.86 | X-H torsion
[ 10167 10162 10161 10158 ] final   76.09 input  -65.29 | X-H torsion
[ 10718 10713 10712 10709 ] final  -47.06 input   66.30 | X-H torsion
[ 10763 10752 10751 10750 ] final  -35.91 input  -60.55 | X-H torsion
[ 11005 11000 10999 10996 ] final   52.14 input  -57.11 | X-H torsion

> <Gold.Protein.ActiveResidues>
 VAL166  LYS551  ARG553  GLY616  TRP617  ASP618  TYR619  PRO620  LYS621  CYS622 
 ASP623  PHE694  ASN695  SER759  ASP760  ASP761  ALA762  ILE779  LEU786  VAL792 
 PHE793  MET794  SER795  GLU796  ALA797  LYS798  CYS799  TRP800  GLU811  SER814 

> <Gold.Protein.RotatedAtoms>
  152.4787  133.8202  159.7049 H   0  0  0  0  0  0  0  0  0  0  0  0  # atno 6907 bound_to 6896
  150.8822  133.7347  159.2935 H   0  0  0  0  0  0  0  0  0  0  0  0  # atno 6908 bound_to 6896
  151.4847  135.1058  159.9839 H   0  0  0  0  0  0  0  0  0  0  0  0  # atno 6909 bound_to 6896
  144.8587  139.6036  143.5941 H   0  0  0  0  0  0  0  0  0  0  0  0  # atno 7974 bound_to 7965
  156.1257  140.3204  155.8274 H   0  0  0  0  0  0  0  0  0  0  0  0  # atno 8008 bound_to 7997
  155.4423  140.0526  157.3026 H   0  0  0  0  0  0  0  0  0  0  0  0  # atno 8009 bound_to 7997
  154.4861  140.2073  155.9666 H   0  0  0  0  0  0  0  0  0  0  0  0  # atno 8010 bound_to 7997
  139.9960  144.5722  150.7777 H   0  0  0  0  0  0  0  0  0  0  0  0  # atno 10167 bound_to 10162
  156.2122  130.4161  149.9100 H   0  0  0  0  0  0  0  0  0  0  0  0  # atno 10718 bound_to 10713
  153.8711  135.6831  153.4774 H   0  0  0  0  0  0  0  0  0  0  0  0  # atno 10763 bound_to 10752
  153.1287  135.4707  154.9312 H   0  0  0  0  0  0  0  0  0  0  0  0  # atno 10764 bound_to 10752
  154.7714  135.3240  154.8133 H   0  0  0  0  0  0  0  0  0  0  0  0  # atno 10765 bound_to 10752
  140.0874  134.5256  155.8886 H   0  0  0  0  0  0  0  0  0  0  0  0  # atno 11005 bound_to 11000
  146.2843  139.6961  142.9207 LP  0  0  0  0  0  0  0  0  0  0  0  0  # atno 17320 bound_to 7965
  145.4356  141.0418  143.2886 LP  0  0  0  0  0  0  0  0  0  0  0  0  # atno 17321 bound_to 7965
  140.7437  143.2850  151.3490 LP  0  0  0  0  0  0  0  0  0  0  0  0  # atno 17342 bound_to 10162
  139.6306  144.0729  152.2472 LP  0  0  0  0  0  0  0  0  0  0  0  0  # atno 17343 bound_to 10162
  156.6775  130.8845  151.3571 LP  0  0  0  0  0  0  0  0  0  0  0  0  # atno 17370 bound_to 10713
  157.7044  130.9369  150.0885 LP  0  0  0  0  0  0  0  0  0  0  0  0  # atno 17371 bound_to 10713
  141.2067  133.6657  156.6258 LP  0  0  0  0  0  0  0  0  0  0  0  0  # atno 17394 bound_to 11000
  140.3401  134.7856  157.4391 LP  0  0  0  0  0  0  0  0  0  0  0  0  # atno 17395 bound_to 11000

$$$$
