AV-unprocessed.smi:2322|AV-procd|sdf|9286|dock3
  -GOLD-   2272012513D 1   1.00000     0.00000
 Structure written by MMmdl.
 38 40  0  0  0  0  0  0  0  0  1 V2000
  147.6378  132.4711  152.7551 C   0  0  0  0  0  0  0  0  0  0  0  0
  148.7323  132.1631  153.6554 N   0  0  0  0  0  0  0  0  0  0  0  0
  148.9995  130.8845  154.0103 N   0  0  0  0  0  0  0  0  0  0  0  0
  150.0483  131.0183  154.8211 C   0  0  0  0  0  0  0  0  0  0  0  0
  150.4899  132.2949  155.0218 N   0  0  0  0  0  0  0  0  0  0  0  0
  149.6212  132.9568  154.2616 C   0  0  0  0  0  0  0  0  0  0  0  0
  149.5630  134.3670  154.0536 N   0  0  0  0  0  0  0  0  0  0  0  0
  149.8708  135.3993  154.8669 C   0  0  0  0  0  0  0  0  0  0  0  0
  150.2815  135.2054  156.0098 O   0  0  0  0  0  0  0  0  0  0  0  0
  149.6998  136.6289  154.3544 N   0  0  0  0  0  0  0  0  0  0  0  0
  149.9539  137.8842  155.0531 C   0  0  1  0  0  0  0  0  0  0  0  0
  151.4498  138.2383  155.0210 C   0  0  0  0  0  0  0  0  0  0  0  0
  151.6866  139.6378  155.6108 C   0  0  0  0  0  0  0  0  0  0  0  0
  150.9023  140.6012  154.9148 O   0  0  0  0  0  0  0  0  0  0  0  0
  149.5008  140.3736  155.0305 C   0  0  1  0  0  0  0  0  0  0  0  0
  148.7791  141.5174  154.3462 C   0  0  0  0  0  0  0  0  0  0  0  0
  147.4215  141.9750  154.8265 C   0  0  0  0  0  0  0  0  0  0  0  0
  147.5513  141.2593  153.5038 C   0  0  0  0  0  0  0  0  0  0  0  0
  149.1509  139.0153  154.3952 C   0  0  0  0  0  0  0  0  0  0  0  0
  148.0360  132.7888  151.7914 H   0  0  0  0  0  0  0  0  0  0  0  0
  147.0307  133.2743  153.1732 H   0  0  0  0  0  0  0  0  0  0  0  0
  147.0059  131.5946  152.6069 H   0  0  0  0  0  0  0  0  0  0  0  0
  150.5136  130.1618  155.2863 H   0  0  0  0  0  0  0  0  0  0  0  0
  149.2319  134.6397  153.1396 H   0  0  0  0  0  0  0  0  0  0  0  0
  149.3610  136.6969  153.4050 H   0  0  0  0  0  0  0  0  0  0  0  0
  149.6299  137.7932  156.0918 H   0  0  0  0  0  0  0  0  0  0  0  0
  152.0292  137.4984  155.5740 H   0  0  0  0  0  0  0  0  0  0  0  0
  151.8143  138.2162  153.9929 H   0  0  0  0  0  0  0  0  0  0  0  0
  151.4448  139.6573  156.6746 H   0  0  0  0  0  0  0  0  0  0  0  0
  152.7386  139.9086  155.5197 H   0  0  0  0  0  0  0  0  0  0  0  0
  149.2229  140.3695  156.0862 H   0  0  0  0  0  0  0  0  0  0  0  0
  149.4436  142.2989  153.9821 H   0  0  0  0  0  0  0  0  0  0  0  0
  146.9636  141.4299  155.6495 H   0  0  0  0  0  0  0  0  0  0  0  0
  147.2156  143.0431  154.8032 H   0  0  0  0  0  0  0  0  0  0  0  0
  147.4323  141.8493  152.5976 H   0  0  0  0  0  0  0  0  0  0  0  0
  147.1812  140.2374  153.4473 H   0  0  0  0  0  0  0  0  0  0  0  0
  149.3667  139.0482  153.3261 H   0  0  0  0  0  0  0  0  0  0  0  0
  148.0821  138.8203  154.4919 H   0  0  0  0  0  0  0  0  0  0  0  0
  1  2  1  0  0  0  0
  1 20  1  0  0  0  0
  1 21  1  0  0  0  0
  1 22  1  0  0  0  0
  2  6  1  0  0  0  0
  2  3  1  0  0  0  0
  3  4  2  0  0  0  0
  4  5  1  0  0  0  0
  4 23  1  0  0  0  0
  5  6  2  0  0  0  0
  6  7  1  0  0  0  0
  7  8  1  0  0  0  0
  7 24  1  0  0  0  0
  8  9  2  0  0  0  0
  8 10  1  0  0  0  0
 10 11  1  0  0  0  0
 10 25  1  0  0  0  0
 11 19  1  0  0  0  0
 11 12  1  0  0  0  0
 11 26  1  0  0  0  0
 12 13  1  0  0  0  0
 12 27  1  0  0  0  0
 12 28  1  0  0  0  0
 13 14  1  0  0  0  0
 13 29  1  0  0  0  0
 13 30  1  0  0  0  0
 14 15  1  0  0  0  0
 15 16  1  0  0  0  0
 15 19  1  0  0  0  0
 15 31  1  0  0  0  0
 16 18  1  0  0  0  0
 16 17  1  0  0  0  0
 16 32  1  0  0  0  0
 17 18  1  0  0  0  0
 17 33  1  0  0  0  0
 17 34  1  0  0  0  0
 18 35  1  0  0  0  0
 18 36  1  0  0  0  0
 19 37  1  0  0  0  0
 19 38  1  0  0  0  0
M  END
> <s_m_source_file>
AV-unprocessed.smi

> <i_m_source_file_index>
2322

> <i_lp_mmshare_version>
43012

> <i_f3d_flags>
0

> <s_epik_input>
W0NIM11uMW5bY0hdbmMxW05IXUMoPU8pW05IXVtDQEBIXTJbQ0gyXVtDSDJdT1tDQEhdKFtDSDJdMilbQ0hdM1tDSDJdW0NIMl0z

> <s_epik_cmdline>
J2VwaWtfcHl0aG9uJywgJy1waCcsICc3LjAnLCAnLXRuJywgJzgnLCAnLW1hJywgJzIwMCcsICctbWV0YWxfYmluZGluZycsICctaW1hZScsICc8aW5maWxlLm1hZT4nLCAnLW9tYWUnLCAnPG91dGZpbGUubWFlPic=

> <r_lp_tautomer_probability>
1

> <r_epik_Ionization_Penalty>
2.16399e-05

> <r_epik_Ionization_Penalty_Charging>
0

> <r_epik_Ionization_Penalty_Neutral>
2.16399e-05

> <r_epik_State_Penalty>
-0

> <r_epik_Charging_Adjusted_Penalty>
0

> <i_epik_Tot_Q>
0

> <i_epik_Tot_abs_Q>
0

> <r_epik_Metal_State_Penalty>
-0

> <b_epik_Metal_Only>
0

> <s_lp_Force_Field>
OPLS_2005

> <r_lp_Energy>
20.3548

> <b_lp_Chiralities_Consistent>
1

> <s_lp_Variant>
AV-unprocessed.smi:2322-2

> <Gold.Version>
5.8.1

> <Gold.Id.Protein>
6NUR|6NUR_protein|mol2

> <Gold.PLP.Fitness>
40.6476

> <Gold.PLP.PLP>
-35.1142

> <Gold.PLP.part.hbond>
-2.9897

> <Gold.PLP.part.metal>
0.0000

> <Gold.PLP.part.buried>
-1.9329

> <Gold.PLP.part.nonpolar>
-29.7235

> <Gold.PLP.part.repulsive>
0.2414

> <Gold.PLP.ligand.clash>
0.0000

> <Gold.PLP.ligand.torsion>
1.4793

> <Gold.PLP.Chemscore.Hbond>
2.4718

> <Gold.PLP.Chemscore.CHOScore>
0.0000

> <Gold.PLP.Chemscore.Metal>
0.0000

> <Gold.Chemscore.Hbonds>
donor molecule, donor type, donor heavy atom, donor atom, acceptor molecule, acceptor atom, score
      L1  H     7    24       P1  7948  0.36
      L1  H    10    25       P1  7948  1.00
      P1  H  7989  7998       L1    14  0.98

> <Gold.PLP.Chemscore.Internal.Correction>
1.0766

> <Gold.Rescore>
     Score         DG    S(hbond)    S(metal)    S(lipo)     H(rot)  DE(clash)    DE(int)     intcor
     12.68     -14.36       1.67        0.00      56.98       1.31       0.10       1.58       ----

> <Gold.Chemscore.Fitness>
12.6837

> <Gold.Chemscore.DG>
-14.3641

> <Gold.Chemscore.ZeroCoef>
-5.4800

> <Gold.Chemscore.Hbond>
1.6659

> <Gold.Chemscore.Metal>
0.0000

> <Gold.Chemscore.Lipo>
56.9761

> <Gold.Chemscore.Internal_Hbond>
0.0000

> <Gold.Chemscore.DEClash>
0.1019

> <Gold.Chemscore.DEInternal>
1.5784

> <Gold.Chemscore.Rot>
1.3072

> <Gold.Chemscore.Internal.Correction>
   9.000000E+99

> <Gold.Chemscore.Hbonds>
donor molecule, donor type, donor heavy atom, donor atom, acceptor molecule, acceptor atom, score
      L1  H     7    24       P1  7948  0.01
      L1  H    10    25       P1  7948  0.90
      P1  H  7989  7998       L1    14  0.55

> <Gold.Chemscore.Hbond.Weighted>
-5.5643

> <Gold.Chemscore.Metal.Weighted>
-0.0000

> <Gold.Chemscore.Lipo.Weighted>
-6.6662

> <Gold.Chemscore.Internal_Hbond.Weighted>
0.0000

> <Gold.Chemscore.DEClash.Weighted>
0.1019

> <Gold.Chemscore.DEInternal.Weighted>
1.5784

> <Gold.Chemscore.Rot.Weighted>
3.3464

> <Gold.Chemscore.Internal.Correction.Weighted>
   9.000000E+99

> <Gold.Protein.RotatedTorsions>
[ 6907 6896 6895 6894 ] final   51.58 input  -60.11 | X-H torsion
[ 7974 7965 7964 7962 ] final   17.16 input  175.53 | X-H torsion
[ 8008 7997 7996 7995 ] final  139.47 input   59.86 | X-H torsion
[ 10167 10162 10161 10158 ] final -100.59 input  -65.29 | X-H torsion
[ 10718 10713 10712 10709 ] final  -12.57 input   66.30 | X-H torsion
[ 10763 10752 10751 10750 ] final -130.25 input  -60.55 | X-H torsion
[ 11005 11000 10999 10996 ] final  -59.08 input  -57.11 | X-H torsion

> <Gold.Protein.ActiveResidues>
 VAL166  LYS551  ARG553  GLY616  TRP617  ASP618  TYR619  PRO620  LYS621  CYS622 
 ASP623  PHE694  ASN695  SER759  ASP760  ASP761  ALA762  ILE779  LEU786  VAL792 
 PHE793  MET794  SER795  GLU796  ALA797  LYS798  CYS799  TRP800  GLU811  SER814 

> <Gold.Protein.RotatedAtoms>
  152.3142  134.7460  160.0329 H   0  0  0  0  0  0  0  0  0  0  0  0  # atno 6907 bound_to 6896
  151.7930  133.3356  159.3513 H   0  0  0  0  0  0  0  0  0  0  0  0  # atno 6908 bound_to 6896
  150.7336  134.5755  159.5956 H   0  0  0  0  0  0  0  0  0  0  0  0  # atno 6909 bound_to 6896
  146.2227  139.8643  142.8599 H   0  0  0  0  0  0  0  0  0  0  0  0  # atno 7974 bound_to 7965
  156.2989  140.2367  156.4242 H   0  0  0  0  0  0  0  0  0  0  0  0  # atno 8008 bound_to 7997
  154.8328  140.0432  157.1509 H   0  0  0  0  0  0  0  0  0  0  0  0  # atno 8009 bound_to 7997
  154.9189  140.3001  155.5230 H   0  0  0  0  0  0  0  0  0  0  0  0  # atno 8010 bound_to 7997
  140.2502  143.3477  152.0721 H   0  0  0  0  0  0  0  0  0  0  0  0  # atno 10167 bound_to 10162
  156.6427  130.4932  149.6089 H   0  0  0  0  0  0  0  0  0  0  0  0  # atno 10718 bound_to 10713
  154.8756  135.3869  154.4052 H   0  0  0  0  0  0  0  0  0  0  0  0  # atno 10763 bound_to 10752
  153.4772  135.7030  153.5964 H   0  0  0  0  0  0  0  0  0  0  0  0  # atno 10764 bound_to 10752
  153.4395  135.3859  155.2187 H   0  0  0  0  0  0  0  0  0  0  0  0  # atno 10765 bound_to 10752
  141.1234  133.6615  156.5018 H   0  0  0  0  0  0  0  0  0  0  0  0  # atno 11005 bound_to 11000
  145.2672  141.0097  143.3792 LP  0  0  0  0  0  0  0  0  0  0  0  0  # atno 17320 bound_to 7965
  144.9252  139.4364  143.6522 LP  0  0  0  0  0  0  0  0  0  0  0  0  # atno 17321 bound_to 7965
  139.5048  144.6783  151.6072 LP  0  0  0  0  0  0  0  0  0  0  0  0  # atno 17342 bound_to 10162
  140.6046  143.9548  150.6410 LP  0  0  0  0  0  0  0  0  0  0  0  0  # atno 17343 bound_to 10162
  156.2146  130.6700  151.1305 LP  0  0  0  0  0  0  0  0  0  0  0  0  # atno 17370 bound_to 10713
  157.7166  131.0706  150.6303 LP  0  0  0  0  0  0  0  0  0  0  0  0  # atno 17371 bound_to 10713
  140.4440  134.6990  157.5006 LP  0  0  0  0  0  0  0  0  0  0  0  0  # atno 17394 bound_to 11000
  140.0210  134.6547  155.9240 LP  0  0  0  0  0  0  0  0  0  0  0  0  # atno 17395 bound_to 11000

$$$$
