AV-unprocessed.smi:2044|AV-procd|sdf|8307|dock9
  -GOLD-   2272010573D 1   1.00000     0.00000
 Structure written by MMmdl.
 39 40  0  0  0  0  0  0  0  0  3 V2000
  151.7883  144.9909  158.6830 C   0  0  0  0  0  0  0  0  0  0  0  0
  152.1539  143.8814  159.6089 C   0  0  0  0  0  0  0  0  0  0  0  0
  153.1519  142.9482  159.5905 C   0  0  0  0  0  0  0  0  0  0  0  0
  152.9115  142.1970  160.7715 C   0  0  0  0  0  0  0  0  0  0  0  0
  153.7565  141.1121  161.1247 N   0  0  0  0  0  0  0  0  0  0  0  0
  154.2497  140.1402  160.3365 C   0  0  0  0  0  0  0  0  0  0  0  0
  154.0272  140.1487  159.1198 O   0  0  0  0  0  0  0  0  0  0  0  0
  154.9573  139.2120  161.0387 N   0  5  0  0  0  0  0  0  0  0  0  0
  155.3364  137.8858  160.5386 C   0  0  0  0  0  0  0  0  0  0  0  0
  154.1253  136.9123  160.4993 C   0  0  1  0  0  0  0  0  0  0  0  0
  154.1474  135.9165  159.3126 C   0  0  0  0  0  0  0  0  0  0  0  0
  153.8982  136.2798  161.8381 N   0  3  0  0  0  0  0  0  0  0  0  0
  154.7456  135.0921  162.1032 C   0  0  0  0  0  0  0  0  0  0  0  0
  154.2779  134.3887  163.3891 C   0  0  0  0  0  0  0  0  0  0  0  0
  154.2997  135.3037  164.4785 O   0  0  0  0  0  0  0  0  0  0  0  0
  153.4315  136.4103  164.2637 C   0  0  0  0  0  0  0  0  0  0  0  0
  153.8929  137.1838  163.0195 C   0  0  0  0  0  0  0  0  0  0  0  0
  151.8646  142.6378  161.4537 N   0  0  0  0  0  0  0  0  0  0  0  0
  151.3718  143.7169  160.7105 O   0  0  0  0  0  0  0  0  0  0  0  0
  152.6803  145.5031  158.3220 H   0  0  0  0  0  0  0  0  0  0  0  0
  151.1565  145.7263  159.1816 H   0  0  0  0  0  0  0  0  0  0  0  0
  151.2450  144.6081  157.8191 H   0  0  0  0  0  0  0  0  0  0  0  0
  153.9274  142.8234  158.8492 H   0  0  0  0  0  0  0  0  0  0  0  0
  154.0033  141.0519  162.1015 H   0  0  0  0  0  0  0  0  0  0  0  0
  155.7736  137.9369  159.5403 H   0  0  0  0  0  0  0  0  0  0  0  0
  156.1149  137.4459  161.1620 H   0  0  0  0  0  0  0  0  0  0  0  0
  153.2672  137.5570  160.3036 H   0  0  0  0  0  0  0  0  0  0  0  0
  154.1904  136.4344  158.3526 H   0  0  0  0  0  0  0  0  0  0  0  0
  153.2393  135.3135  159.2969 H   0  0  0  0  0  0  0  0  0  0  0  0
  154.9971  135.2327  159.3473 H   0  0  0  0  0  0  0  0  0  0  0  0
  154.6824  134.3929  161.2684 H   0  0  0  0  0  0  0  0  0  0  0  0
  155.7887  135.3985  162.1926 H   0  0  0  0  0  0  0  0  0  0  0  0
  153.2730  133.9814  163.2642 H   0  0  0  0  0  0  0  0  0  0  0  0
  154.9350  133.5498  163.6185 H   0  0  0  0  0  0  0  0  0  0  0  0
  152.4009  136.0689  164.1512 H   0  0  0  0  0  0  0  0  0  0  0  0
  153.4592  137.0573  165.1407 H   0  0  0  0  0  0  0  0  0  0  0  0
  154.8906  137.5891  163.1915 H   0  0  0  0  0  0  0  0  0  0  0  0
  153.2233  138.0276  162.8525 H   0  0  0  0  0  0  0  0  0  0  0  0
  152.9544  135.9225  161.7753 H   0  0  0  0  0  0  0  0  0  0  0  0
  1  2  1  0  0  0  0
  1 20  1  0  0  0  0
  1 21  1  0  0  0  0
  1 22  1  0  0  0  0
  2 19  1  0  0  0  0
  2  3  2  0  0  0  0
  3  4  1  0  0  0  0
  3 23  1  0  0  0  0
  4  5  1  0  0  0  0
  4 18  2  0  0  0  0
  5  6  1  0  0  0  0
  5 24  1  0  0  0  0
  6  7  2  0  0  0  0
  6  8  1  0  0  0  0
  8  9  1  0  0  0  0
  9 10  1  0  0  0  0
  9 25  1  0  0  0  0
  9 26  1  0  0  0  0
 10 11  1  0  0  0  0
 10 12  1  0  0  0  0
 10 27  1  0  0  0  0
 11 28  1  0  0  0  0
 11 29  1  0  0  0  0
 11 30  1  0  0  0  0
 12 17  1  0  0  0  0
 12 13  1  0  0  0  0
 12 39  1  0  0  0  0
 13 14  1  0  0  0  0
 13 31  1  0  0  0  0
 13 32  1  0  0  0  0
 14 15  1  0  0  0  0
 14 33  1  0  0  0  0
 14 34  1  0  0  0  0
 15 16  1  0  0  0  0
 16 17  1  0  0  0  0
 16 35  1  0  0  0  0
 16 36  1  0  0  0  0
 17 37  1  0  0  0  0
 17 38  1  0  0  0  0
 18 19  1  0  0  0  0
M  CHG  1   8  -1
M  CHG  1  12   1
M  END
> <s_m_source_file>
AV-unprocessed.smi

> <i_m_source_file_index>
2044

> <i_lp_mmshare_version>
43012

> <i_f3d_flags>
0

> <s_epik_input>
W0NIM11jMVtjSF1jKG5vMSlbTkhdQyg9TylbTkhdW0NIMl1bQ0BIXShbQ0gzXSlOMltDSDJdW0NIMl1PW0NIMl1bQ0gyXTI=

> <s_epik_cmdline>
J2VwaWtfcHl0aG9uJywgJy1waCcsICc3LjAnLCAnLXRuJywgJzgnLCAnLW1hJywgJzIwMCcsICctbWV0YWxfYmluZGluZycsICctaW1hZScsICc8aW5maWxlLm1hZT4nLCAnLW9tYWUnLCAnPG91dGZpbGUubWFlPic=

> <r_epik_Ionization_Penalty>
6.79272

> <r_epik_Ionization_Penalty_Charging>
6.79272

> <r_epik_Ionization_Penalty_Neutral>
5.6208e-06

> <r_epik_State_Penalty>
7.45901

> <r_epik_Charging_Adjusted_Penalty>
14.2517

> <i_epik_Tot_Q>
0

> <i_epik_Tot_abs_Q>
2

> <r_epik_Metal_State_Penalty>
3.38639

> <b_epik_Metal_Only>
1

> <s_lp_Force_Field>
OPLS_2005

> <r_lp_Energy>
15.3215

> <b_lp_Chiralities_Consistent>
1

> <s_lp_Variant>
AV-unprocessed.smi:2044-10

> <Gold.Version>
5.8.1

> <Gold.Id.Protein>
6NUR|6NUR_protein|mol2

> <Gold.PLP.Fitness>
39.2393

> <Gold.PLP.PLP>
-37.3239

> <Gold.PLP.part.hbond>
-2.3690

> <Gold.PLP.part.metal>
0.0000

> <Gold.PLP.part.buried>
-5.7757

> <Gold.PLP.part.nonpolar>
-29.4458

> <Gold.PLP.part.repulsive>
0.3806

> <Gold.PLP.ligand.clash>
0.0000

> <Gold.PLP.ligand.torsion>
1.0523

> <Gold.PLP.Chemscore.Hbond>
1.2670

> <Gold.PLP.Chemscore.CHOScore>
0.0000

> <Gold.PLP.Chemscore.Metal>
0.0000

> <Gold.Chemscore.Hbonds>
donor molecule, donor type, donor heavy atom, donor atom, acceptor molecule, acceptor atom, score
      P1  H  6933  6945       L1    18  0.41
      P1  H  7997  8010       L1     7  0.90

> <Gold.PLP.Chemscore.Internal.Correction>
0.2190

> <Gold.Rescore>
     Score         DG    S(hbond)    S(metal)    S(lipo)     H(rot)  DE(clash)    DE(int)     intcor
     12.15     -14.44       0.99        0.00      83.26       1.59       0.07       2.23       ----

> <Gold.Chemscore.Fitness>
12.1450

> <Gold.Chemscore.DG>
-14.4370

> <Gold.Chemscore.ZeroCoef>
-5.4800

> <Gold.Chemscore.Hbond>
0.9862

> <Gold.Chemscore.Metal>
0.0000

> <Gold.Chemscore.Lipo>
83.2588

> <Gold.Chemscore.Internal_Hbond>
0.0000

> <Gold.Chemscore.DEClash>
0.0657

> <Gold.Chemscore.DEInternal>
2.2263

> <Gold.Chemscore.Rot>
1.5930

> <Gold.Chemscore.Internal.Correction>
   9.000000E+99

> <Gold.Chemscore.Hbonds>
donor molecule, donor type, donor heavy atom, donor atom, acceptor molecule, acceptor atom, score
      P1  H  6933  6945       L1    18  0.14
      P1  H  7997  8010       L1     7  0.83

> <Gold.Chemscore.Hbond.Weighted>
-3.2938

> <Gold.Chemscore.Metal.Weighted>
-0.0000

> <Gold.Chemscore.Lipo.Weighted>
-9.7413

> <Gold.Chemscore.Internal_Hbond.Weighted>
0.0000

> <Gold.Chemscore.DEClash.Weighted>
0.0657

> <Gold.Chemscore.DEInternal.Weighted>
2.2263

> <Gold.Chemscore.Rot.Weighted>
4.0781

> <Gold.Chemscore.Internal.Correction.Weighted>
   9.000000E+99

> <Gold.Protein.RotatedTorsions>
[ 6907 6896 6895 6894 ] final  -58.02 input  -60.11 | X-H torsion
[ 7974 7965 7964 7962 ] final -130.73 input  175.53 | X-H torsion
[ 8008 7997 7996 7995 ] final   10.71 input   59.86 | X-H torsion
[ 10167 10162 10161 10158 ] final  -63.80 input  -65.29 | X-H torsion
[ 10718 10713 10712 10709 ] final -151.35 input   66.30 | X-H torsion
[ 10763 10752 10751 10750 ] final -128.65 input  -60.55 | X-H torsion
[ 11005 11000 10999 10996 ] final   91.73 input  -57.11 | X-H torsion

> <Gold.Protein.ActiveResidues>
 VAL166  LYS551  ARG553  GLY616  TRP617  ASP618  TYR619  PRO620  LYS621  CYS622 
 ASP623  PHE694  ASN695  SER759  ASP760  ASP761  ALA762  ILE779  LEU786  VAL792 
 PHE793  MET794  SER795  GLU796  ALA797  LYS798  CYS799  TRP800  GLU811  SER814 

> <Gold.Protein.RotatedAtoms>
  150.8040  134.7153  159.6626 H   0  0  0  0  0  0  0  0  0  0  0  0  # atno 6907 bound_to 6896
  152.4159  134.6040  160.0017 H   0  0  0  0  0  0  0  0  0  0  0  0  # atno 6908 bound_to 6896
  151.6269  133.3298  159.3136 H   0  0  0  0  0  0  0  0  0  0  0  0  # atno 6909 bound_to 6896
  144.9447  140.7278  143.4825 H   0  0  0  0  0  0  0  0  0  0  0  0  # atno 7974 bound_to 7965
  154.7971  140.2845  155.5948 H   0  0  0  0  0  0  0  0  0  0  0  0  # atno 8008 bound_to 7997
  156.2972  140.2593  156.2760 H   0  0  0  0  0  0  0  0  0  0  0  0  # atno 8009 bound_to 7997
  154.9601  140.0378  157.2175 H   0  0  0  0  0  0  0  0  0  0  0  0  # atno 8010 bound_to 7997
  140.5846  143.2332  151.6271 H   0  0  0  0  0  0  0  0  0  0  0  0  # atno 10167 bound_to 10162
  156.4581  130.8200  151.2431 H   0  0  0  0  0  0  0  0  0  0  0  0  # atno 10718 bound_to 10713
  154.8756  135.3921  154.3792 H   0  0  0  0  0  0  0  0  0  0  0  0  # atno 10763 bound_to 10752
  153.4541  135.7028  153.6096 H   0  0  0  0  0  0  0  0  0  0  0  0  # atno 10764 bound_to 10752
  153.4623  135.3809  155.2313 H   0  0  0  0  0  0  0  0  0  0  0  0  # atno 10765 bound_to 10752
  139.8834  134.8691  156.3470 H   0  0  0  0  0  0  0  0  0  0  0  0  # atno 11005 bound_to 11000
  145.2937  139.1874  143.4727 LP  0  0  0  0  0  0  0  0  0  0  0  0  # atno 17320 bound_to 7965
  146.3299  140.2917  142.8615 LP  0  0  0  0  0  0  0  0  0  0  0  0  # atno 17321 bound_to 7965
  139.5190  144.3268  152.0862 LP  0  0  0  0  0  0  0  0  0  0  0  0  # atno 17342 bound_to 10162
  140.2423  144.4256  150.6255 LP  0  0  0  0  0  0  0  0  0  0  0  0  # atno 17343 bound_to 10162
  157.7499  131.0116  150.3352 LP  0  0  0  0  0  0  0  0  0  0  0  0  # atno 17370 bound_to 10713
  156.3745  130.3869  149.7149 LP  0  0  0  0  0  0  0  0  0  0  0  0  # atno 17371 bound_to 10713
  140.9620  133.7382  156.0414 LP  0  0  0  0  0  0  0  0  0  0  0  0  # atno 17394 bound_to 11000
  140.7978  134.3544  157.5448 LP  0  0  0  0  0  0  0  0  0  0  0  0  # atno 17395 bound_to 11000

$$$$
