AV-unprocessed.smi:474|AV-procd|sdf|2665|dock7
  -GOLD-   2262023 83D 1   1.00000     0.00000
 Structure written by MMmdl.
 37 38  0  0  0  0  0  0  0  0  1 V2000
  153.8457  133.2075  164.9564 C   0  0  0  0  0  0  0  0  0  0  0  0
  154.1749  134.3855  164.1051 C   0  0  0  0  0  0  0  0  0  0  0  0
  153.9805  135.7289  164.2611 C   0  0  0  0  0  0  0  0  0  0  0  0
  154.5394  136.2730  163.0680 C   0  0  0  0  0  0  0  0  0  0  0  0
  154.6040  137.6468  162.7195 N   0  0  0  0  0  0  0  0  0  0  0  0
  154.5973  138.1999  161.4949 C   0  0  0  0  0  0  0  0  0  0  0  0
  154.5540  137.5803  160.4320 O   0  0  0  0  0  0  0  0  0  0  0  0
  154.6426  139.5380  161.5680 N   0  0  0  0  0  0  0  0  0  0  0  0
  154.6379  140.4415  160.4232 C   0  0  0  0  0  0  0  0  0  0  0  0
  153.2068  140.7272  159.9356 C   0  0  0  0  0  0  0  0  0  0  0  0
  152.7900  142.1727  160.1498 C   0  0  0  0  0  0  0  0  0  0  0  0
  152.6062  142.6866  161.3815 C   0  0  0  0  0  0  0  0  0  0  0  0
  152.1762  144.1173  161.6542 C   0  0  0  0  0  0  0  0  0  0  0  0
  151.6458  144.8212  160.3938 C   0  0  0  0  0  0  0  0  0  0  0  0
  152.5300  144.5198  159.1776 C   0  0  0  0  0  0  0  0  0  0  0  0
  152.5911  143.0089  158.8904 C   0  0  0  0  0  0  0  0  0  0  0  0
  155.0245  135.3446  162.2643 N   0  0  0  0  0  0  0  0  0  0  0  0
  154.7944  134.1303  162.9214 O   0  0  0  0  0  0  0  0  0  0  0  0
  153.6028  133.5177  165.9729 H   0  0  0  0  0  0  0  0  0  0  0  0
  154.6883  132.5177  165.0071 H   0  0  0  0  0  0  0  0  0  0  0  0
  152.9890  132.6676  164.5532 H   0  0  0  0  0  0  0  0  0  0  0  0
  153.5143  136.2236  165.0995 H   0  0  0  0  0  0  0  0  0  0  0  0
  154.6482  138.2862  163.4992 H   0  0  0  0  0  0  0  0  0  0  0  0
  154.6779  139.9644  162.4824 H   0  0  0  0  0  0  0  0  0  0  0  0
  155.1249  141.3664  160.7318 H   0  0  0  0  0  0  0  0  0  0  0  0
  155.2420  140.0265  159.6145 H   0  0  0  0  0  0  0  0  0  0  0  0
  153.1256  140.4858  158.8747 H   0  0  0  0  0  0  0  0  0  0  0  0
  152.4966  140.0797  160.4512 H   0  0  0  0  0  0  0  0  0  0  0  0
  152.7747  142.0692  162.2521 H   0  0  0  0  0  0  0  0  0  0  0  0
  151.4105  144.1213  162.4305 H   0  0  0  0  0  0  0  0  0  0  0  0
  153.0359  144.6563  162.0528 H   0  0  0  0  0  0  0  0  0  0  0  0
  150.6292  144.4834  160.1881 H   0  0  0  0  0  0  0  0  0  0  0  0
  151.5855  145.8964  160.5644 H   0  0  0  0  0  0  0  0  0  0  0  0
  152.1617  145.0506  158.2993 H   0  0  0  0  0  0  0  0  0  0  0  0
  153.5367  144.8960  159.3655 H   0  0  0  0  0  0  0  0  0  0  0  0
  153.3980  142.8057  158.1855 H   0  0  0  0  0  0  0  0  0  0  0  0
  151.6649  142.6892  158.4120 H   0  0  0  0  0  0  0  0  0  0  0  0
  1  2  1  0  0  0  0
  1 19  1  0  0  0  0
  1 20  1  0  0  0  0
  1 21  1  0  0  0  0
  2 18  1  0  0  0  0
  2  3  2  0  0  0  0
  3  4  1  0  0  0  0
  3 22  1  0  0  0  0
  4  5  1  0  0  0  0
  4 17  2  0  0  0  0
  5  6  1  0  0  0  0
  5 23  1  0  0  0  0
  6  7  2  0  0  0  0
  6  8  1  0  0  0  0
  8  9  1  0  0  0  0
  8 24  1  0  0  0  0
  9 10  1  0  0  0  0
  9 25  1  0  0  0  0
  9 26  1  0  0  0  0
 10 11  1  0  0  0  0
 10 27  1  0  0  0  0
 10 28  1  0  0  0  0
 11 16  1  0  0  0  0
 11 12  2  0  0  0  0
 12 13  1  0  0  0  0
 12 29  1  0  0  0  0
 13 14  1  0  0  0  0
 13 30  1  0  0  0  0
 13 31  1  0  0  0  0
 14 15  1  0  0  0  0
 14 32  1  0  0  0  0
 14 33  1  0  0  0  0
 15 16  1  0  0  0  0
 15 34  1  0  0  0  0
 15 35  1  0  0  0  0
 16 36  1  0  0  0  0
 16 37  1  0  0  0  0
 17 18  1  0  0  0  0
M  END
> <s_m_source_file>
AV-unprocessed.smi

> <i_m_source_file_index>
474

> <i_lp_mmshare_version>
43012

> <i_f3d_flags>
0

> <s_epik_input>
W0NIM11jMVtjSF1jKG5vMSlbTkhdQyg9TylbTkhdW0NIMl1bQ0gyXUMyPVtDSF1bQ0gyXVtDSDJdW0NIMl1bQ0gyXTI=

> <s_epik_cmdline>
J2VwaWtfcHl0aG9uJywgJy1waCcsICc3LjAnLCAnLXRuJywgJzgnLCAnLW1hJywgJzIwMCcsICctbWV0YWxfYmluZGluZycsICctaW1hZScsICc8aW5maWxlLm1hZT4nLCAnLW9tYWUnLCAnPG91dGZpbGUubWFlPic=

> <r_lp_tautomer_probability>
1

> <r_epik_Ionization_Penalty>
2.87157e-05

> <r_epik_Ionization_Penalty_Charging>
0

> <r_epik_Ionization_Penalty_Neutral>
2.87157e-05

> <r_epik_State_Penalty>
-0

> <r_epik_Charging_Adjusted_Penalty>
0

> <i_epik_Tot_Q>
0

> <i_epik_Tot_abs_Q>
0

> <r_epik_Metal_State_Penalty>
0.00793999

> <b_epik_Metal_Only>
0

> <s_lp_Force_Field>
OPLS_2005

> <r_lp_Energy>
6.67712

> <b_lp_Chiralities_Consistent>
1

> <s_lp_Variant>
AV-unprocessed.smi:474-1

> <Gold.Version>
5.8.1

> <Gold.Id.Protein>
6NUR|6NUR_protein|mol2

> <Gold.PLP.Fitness>
43.8115

> <Gold.PLP.PLP>
-45.3475

> <Gold.PLP.part.hbond>
0.0000

> <Gold.PLP.part.metal>
0.0000

> <Gold.PLP.part.buried>
-5.4444

> <Gold.PLP.part.nonpolar>
-40.2856

> <Gold.PLP.part.repulsive>
0.0034

> <Gold.PLP.ligand.clash>
0.0000

> <Gold.PLP.ligand.torsion>
0.7755

> <Gold.PLP.Chemscore.Hbond>
0.0000

> <Gold.PLP.Chemscore.CHOScore>
0.0000

> <Gold.PLP.Chemscore.Metal>
0.0000

> <Gold.PLP.Chemscore.Internal.Correction>
0.0150

> <Gold.Rescore>
     Score         DG    S(hbond)    S(metal)    S(lipo)     H(rot)  DE(clash)    DE(int)     intcor
     13.83     -15.89       0.00        0.00     121.38       1.48       0.07       1.99       ----

> <Gold.Chemscore.Fitness>
13.8289

> <Gold.Chemscore.DG>
-15.8884

> <Gold.Chemscore.ZeroCoef>
-5.4800

> <Gold.Chemscore.Hbond>
0.0000

> <Gold.Chemscore.Metal>
0.0000

> <Gold.Chemscore.Lipo>
121.3823

> <Gold.Chemscore.Internal_Hbond>
0.0000

> <Gold.Chemscore.DEClash>
0.0682

> <Gold.Chemscore.DEInternal>
1.9914

> <Gold.Chemscore.Rot>
1.4818

> <Gold.Chemscore.Internal.Correction>
   9.000000E+99

> <Gold.Chemscore.Hbond.Weighted>
-0.0000

> <Gold.Chemscore.Metal.Weighted>
-0.0000

> <Gold.Chemscore.Lipo.Weighted>
-14.2017

> <Gold.Chemscore.Internal_Hbond.Weighted>
0.0000

> <Gold.Chemscore.DEClash.Weighted>
0.0682

> <Gold.Chemscore.DEInternal.Weighted>
1.9914

> <Gold.Chemscore.Rot.Weighted>
3.7933

> <Gold.Chemscore.Internal.Correction.Weighted>
   9.000000E+99

> <Gold.Protein.RotatedTorsions>
[ 6907 6896 6895 6894 ] final -104.64 input  -60.11 | X-H torsion
[ 7974 7965 7964 7962 ] final   93.26 input  175.53 | X-H torsion
[ 8008 7997 7996 7995 ] final  134.78 input   59.86 | X-H torsion
[ 10167 10162 10161 10158 ] final  -90.91 input  -65.29 | X-H torsion
[ 10718 10713 10712 10709 ] final   75.36 input   66.30 | X-H torsion
[ 10763 10752 10751 10750 ] final  177.19 input  -60.55 | X-H torsion
[ 11005 11000 10999 10996 ] final  159.23 input  -57.11 | X-H torsion

> <Gold.Protein.ActiveResidues>
 VAL166  LYS551  ARG553  GLY616  TRP617  ASP618  TYR619  PRO620  LYS621  CYS622 
 ASP623  PHE694  ASN695  SER759  ASP760  ASP761  ALA762  ILE779  LEU786  VAL792 
 PHE793  MET794  SER795  GLU796  ALA797  LYS798  CYS799  TRP800  GLU811  SER814 

> <Gold.Protein.RotatedAtoms>
  150.7297  134.0248  159.3713 H   0  0  0  0  0  0  0  0  0  0  0  0  # atno 6907 bound_to 6896
  151.8214  135.0648  160.0435 H   0  0  0  0  0  0  0  0  0  0  0  0  # atno 6908 bound_to 6896
  152.3001  133.5610  159.5649 H   0  0  0  0  0  0  0  0  0  0  0  0  # atno 6909 bound_to 6896
  145.4813  139.2278  143.2881 H   0  0  0  0  0  0  0  0  0  0  0  0  # atno 7974 bound_to 7965
  156.3000  140.2487  156.3473 H   0  0  0  0  0  0  0  0  0  0  0  0  # atno 8008 bound_to 7997
  154.8998  140.0406  157.1906 H   0  0  0  0  0  0  0  0  0  0  0  0  # atno 8009 bound_to 7997
  154.8512  140.2906  155.5601 H   0  0  0  0  0  0  0  0  0  0  0  0  # atno 8010 bound_to 7997
  140.3502  143.2895  151.9735 H   0  0  0  0  0  0  0  0  0  0  0  0  # atno 10167 bound_to 10162
  157.6631  130.9722  150.1342 H   0  0  0  0  0  0  0  0  0  0  0  0  # atno 10718 bound_to 10713
  154.4912  135.2779  155.1495 H   0  0  0  0  0  0  0  0  0  0  0  0  # atno 10763 bound_to 10752
  154.3166  135.6218  153.5493 H   0  0  0  0  0  0  0  0  0  0  0  0  # atno 10764 bound_to 10752
  152.9888  135.5732  154.5333 H   0  0  0  0  0  0  0  0  0  0  0  0  # atno 10765 bound_to 10752
  140.1942  134.8385  157.2946 H   0  0  0  0  0  0  0  0  0  0  0  0  # atno 11005 bound_to 11000
  146.2339  140.5599  142.8963 LP  0  0  0  0  0  0  0  0  0  0  0  0  # atno 17320 bound_to 7965
  144.7887  140.5989  143.6556 LP  0  0  0  0  0  0  0  0  0  0  0  0  # atno 17321 bound_to 7965
  139.4827  144.6083  151.7481 LP  0  0  0  0  0  0  0  0  0  0  0  0  # atno 17342 bound_to 10162
  140.5226  144.0855  150.6027 LP  0  0  0  0  0  0  0  0  0  0  0  0  # atno 17343 bound_to 10162
  156.2181  130.3672  149.8589 LP  0  0  0  0  0  0  0  0  0  0  0  0  # atno 17370 bound_to 10713
  156.6449  130.8720  151.3521 LP  0  0  0  0  0  0  0  0  0  0  0  0  # atno 17371 bound_to 10713
  140.2126  134.4120  155.7605 LP  0  0  0  0  0  0  0  0  0  0  0  0  # atno 17394 bound_to 11000
  141.2227  133.7126  156.8362 LP  0  0  0  0  0  0  0  0  0  0  0  0  # atno 17395 bound_to 11000

$$$$
