AV-unprocessed.smi:2520|AV-procd|sdf|9912|dock8
  -GOLD-   2272013553D 1   1.00000     0.00000
 Structure written by MMmdl.
 41 44  0  0  0  0  0  0  0  0  1 V2000
  147.6804  142.9212  158.3039 O   0  0  0  0  0  0  0  0  0  0  0  0
  148.1435  143.5477  159.2553 C   0  0  0  0  0  0  0  0  0  0  0  0
  147.4309  143.7222  160.3888 N   0  0  0  0  0  0  0  0  0  0  0  0
  146.1200  143.2937  160.7532 C   0  0  0  0  0  0  0  0  0  0  0  0
  145.4651  144.1237  161.6881 C   0  0  0  0  0  0  0  0  0  0  0  0
  144.1700  143.7719  162.1052 C   0  0  0  0  0  0  0  0  0  0  0  0
  143.6125  142.6039  161.5581 C   0  0  0  0  0  0  0  0  0  0  0  0
  144.2745  141.8348  160.6675 N   0  0  0  0  0  0  0  0  0  0  0  0
  145.5058  142.1780  160.2761 N   0  0  0  0  0  0  0  0  0  0  0  0
  149.3694  144.0911  159.2417 N   0  0  0  0  0  0  0  0  0  0  0  0
  150.3235  144.0442  158.1346 C   0  0  1  0  0  0  0  0  0  0  0  0
  151.7328  144.5320  158.5427 C   0  0  1  0  0  0  0  0  0  0  0  0
  151.9990  145.2637  159.8361 C   0  0  0  0  0  0  0  0  0  0  0  0
  152.4691  144.1450  160.7709 C   0  0  0  0  0  0  0  0  0  0  0  0
  151.9934  142.9402  160.1736 O   0  0  0  0  0  0  0  0  0  0  0  0
  152.1104  143.0751  158.7591 C   0  0  1  0  0  0  0  0  0  0  0  0
  150.8945  142.6220  157.9237 C   0  0  0  0  0  0  0  0  0  0  0  0
  151.2106  142.2156  156.4854 C   0  0  0  0  0  0  0  0  0  0  0  0
  151.4364  140.7002  156.4799 C   0  0  0  0  0  0  0  0  0  0  0  0
  150.7612  140.1745  157.7502 C   0  0  0  0  0  0  0  0  0  0  0  0
  150.1176  141.3968  158.4077 C   0  0  0  0  0  0  0  0  0  0  0  0
  147.9157  144.2357  161.1102 H   0  0  0  0  0  0  0  0  0  0  0  0
  145.9416  145.0114  162.0783 H   0  0  0  0  0  0  0  0  0  0  0  0
  143.6253  144.3741  162.8168 H   0  0  0  0  0  0  0  0  0  0  0  0
  142.6215  142.2796  161.8389 H   0  0  0  0  0  0  0  0  0  0  0  0
  149.6693  144.5878  160.0692 H   0  0  0  0  0  0  0  0  0  0  0  0
  149.9707  144.5051  157.2104 H   0  0  0  0  0  0  0  0  0  0  0  0
  152.2608  144.9497  157.6838 H   0  0  0  0  0  0  0  0  0  0  0  0
  152.7663  146.0301  159.7253 H   0  0  0  0  0  0  0  0  0  0  0  0
  151.1056  145.7539  160.2227 H   0  0  0  0  0  0  0  0  0  0  0  0
  153.5587  144.1138  160.8111 H   0  0  0  0  0  0  0  0  0  0  0  0
  152.0926  144.2614  161.7873 H   0  0  0  0  0  0  0  0  0  0  0  0
  153.0939  142.8045  158.3724 H   0  0  0  0  0  0  0  0  0  0  0  0
  150.3649  142.4545  155.8391 H   0  0  0  0  0  0  0  0  0  0  0  0
  152.0728  142.7466  156.0802 H   0  0  0  0  0  0  0  0  0  0  0  0
  151.0252  140.2418  155.5800 H   0  0  0  0  0  0  0  0  0  0  0  0
  152.5028  140.4739  156.5055 H   0  0  0  0  0  0  0  0  0  0  0  0
  150.0265  139.3978  157.5367 H   0  0  0  0  0  0  0  0  0  0  0  0
  151.5117  139.7448  158.4149 H   0  0  0  0  0  0  0  0  0  0  0  0
  150.1079  141.3021  159.4938 H   0  0  0  0  0  0  0  0  0  0  0  0
  149.0764  141.4697  158.0906 H   0  0  0  0  0  0  0  0  0  0  0  0
  1  2  2  0  0  0  0
  2  3  1  0  0  0  0
  2 10  1  0  0  0  0
  3  4  1  0  0  0  0
  3 22  1  0  0  0  0
  4  9  1  0  0  0  0
  4  5  2  0  0  0  0
  5  6  1  0  0  0  0
  5 23  1  0  0  0  0
  6  7  2  0  0  0  0
  6 24  1  0  0  0  0
  7  8  1  0  0  0  0
  7 25  1  0  0  0  0
  8  9  2  0  0  0  0
 10 11  1  0  0  0  0
 10 26  1  0  0  0  0
 11 17  1  0  0  0  0
 11 12  1  0  0  0  0
 11 27  1  0  0  0  0
 12 16  1  0  0  0  0
 12 13  1  0  0  0  0
 12 28  1  0  0  0  0
 13 14  1  0  0  0  0
 13 29  1  0  0  0  0
 13 30  1  0  0  0  0
 14 15  1  0  0  0  0
 14 31  1  0  0  0  0
 14 32  1  0  0  0  0
 15 16  1  0  0  0  0
 16 17  1  0  0  0  0
 16 33  1  0  0  0  0
 17 21  1  0  0  0  0
 17 18  1  0  0  0  0
 18 19  1  0  0  0  0
 18 34  1  0  0  0  0
 18 35  1  0  0  0  0
 19 20  1  0  0  0  0
 19 36  1  0  0  0  0
 19 37  1  0  0  0  0
 20 21  1  0  0  0  0
 20 38  1  0  0  0  0
 20 39  1  0  0  0  0
 21 40  1  0  0  0  0
 21 41  1  0  0  0  0
M  END
> <s_m_source_file>
AV-unprocessed.smi

> <i_m_source_file_index>
2520

> <i_lp_mmshare_version>
43012

> <i_f3d_flags>
0

> <s_epik_input>
bjFuW2NIXVtjSF1bY0hdYzFbTkhdQyg9TylbTkhdW0NAQEhdMltDQEBIXShbQ0gyXVtDSDJdTzMpW0NASF0zQzI0W0NIMl1bQ0gyXVtDSDJdW0NIMl00

> <s_epik_cmdline>
J2VwaWtfcHl0aG9uJywgJy1waCcsICc3LjAnLCAnLXRuJywgJzgnLCAnLW1hJywgJzIwMCcsICctbWV0YWxfYmluZGluZycsICctaW1hZScsICc8aW5maWxlLm1hZT4nLCAnLW9tYWUnLCAnPG91dGZpbGUubWFlPic=

> <r_lp_tautomer_probability>
1

> <r_epik_Ionization_Penalty>
0.00552561

> <r_epik_Ionization_Penalty_Charging>
0

> <r_epik_Ionization_Penalty_Neutral>
0.00552561

> <r_epik_State_Penalty>
-0

> <r_epik_Charging_Adjusted_Penalty>
0

> <i_epik_Tot_Q>
0

> <i_epik_Tot_abs_Q>
0

> <r_epik_Metal_State_Penalty>
-0

> <b_epik_Metal_Only>
0

> <s_lp_Force_Field>
OPLS_2005

> <r_lp_Energy>
62.4045

> <b_lp_Chiralities_Consistent>
1

> <s_lp_Variant>
AV-unprocessed.smi:2520-6

> <Gold.Version>
5.8.1

> <Gold.Id.Protein>
6NUR|6NUR_protein|mol2

> <Gold.PLP.Fitness>
37.2134

> <Gold.PLP.PLP>
-34.7043

> <Gold.PLP.part.hbond>
-1.8325

> <Gold.PLP.part.metal>
0.0000

> <Gold.PLP.part.buried>
-3.3578

> <Gold.PLP.part.nonpolar>
-31.4149

> <Gold.PLP.part.repulsive>
1.2058

> <Gold.PLP.ligand.clash>
0.0000

> <Gold.PLP.ligand.torsion>
0.2733

> <Gold.PLP.Chemscore.Hbond>
0.9500

> <Gold.PLP.Chemscore.CHOScore>
0.0000

> <Gold.PLP.Chemscore.Metal>
0.0000

> <Gold.Chemscore.Hbonds>
donor molecule, donor type, donor heavy atom, donor atom, acceptor molecule, acceptor atom, score
      P1  H  6934  6946       L1     9  0.95

> <Gold.PLP.Chemscore.Internal.Correction>
0.2056

> <Gold.Rescore>
     Score         DG    S(hbond)    S(metal)    S(lipo)     H(rot)  DE(clash)    DE(int)     intcor
     13.54     -18.36       0.81        0.00     108.67       1.00       1.57       3.25       ----

> <Gold.Chemscore.Fitness>
13.5395

> <Gold.Chemscore.DG>
-18.3559

> <Gold.Chemscore.ZeroCoef>
-5.4800

> <Gold.Chemscore.Hbond>
0.8148

> <Gold.Chemscore.Metal>
0.0000

> <Gold.Chemscore.Lipo>
108.6710

> <Gold.Chemscore.Internal_Hbond>
0.0000

> <Gold.Chemscore.DEClash>
1.5687

> <Gold.Chemscore.DEInternal>
3.2477

> <Gold.Chemscore.Rot>
1.0000

> <Gold.Chemscore.Internal.Correction>
   9.000000E+99

> <Gold.Chemscore.Hbonds>
donor molecule, donor type, donor heavy atom, donor atom, acceptor molecule, acceptor atom, score
      P1  H  6934  6946       L1     9  0.19

> <Gold.Chemscore.Hbond.Weighted>
-2.7214

> <Gold.Chemscore.Metal.Weighted>
-0.0000

> <Gold.Chemscore.Lipo.Weighted>
-12.7145

> <Gold.Chemscore.Internal_Hbond.Weighted>
0.0000

> <Gold.Chemscore.DEClash.Weighted>
1.5687

> <Gold.Chemscore.DEInternal.Weighted>
3.2477

> <Gold.Chemscore.Rot.Weighted>
2.5600

> <Gold.Chemscore.Internal.Correction.Weighted>
   9.000000E+99

> <Gold.Protein.RotatedTorsions>
[ 6907 6896 6895 6894 ] final  -53.08 input  -60.11 | X-H torsion
[ 7974 7965 7964 7962 ] final   26.07 input  175.53 | X-H torsion
[ 8008 7997 7996 7995 ] final   15.94 input   59.86 | X-H torsion
[ 10167 10162 10161 10158 ] final  -14.47 input  -65.29 | X-H torsion
[ 10718 10713 10712 10709 ] final  -32.59 input   66.30 | X-H torsion
[ 10763 10752 10751 10750 ] final   95.55 input  -60.55 | X-H torsion
[ 11005 11000 10999 10996 ] final  -92.41 input  -57.11 | X-H torsion

> <Gold.Protein.ActiveResidues>
 VAL166  LYS551  ARG553  GLY616  TRP617  ASP618  TYR619  PRO620  LYS621  CYS622 
 ASP623  PHE694  ASN695  SER759  ASP760  ASP761  ALA762  ILE779  LEU786  VAL792 
 PHE793  MET794  SER795  GLU796  ALA797  LYS798  CYS799  TRP800  GLU811  SER814 

> <Gold.Protein.RotatedAtoms>
  150.8459  134.7768  159.6969 H   0  0  0  0  0  0  0  0  0  0  0  0  # atno 6907 bound_to 6896
  152.4536  134.5337  159.9828 H   0  0  0  0  0  0  0  0  0  0  0  0  # atno 6908 bound_to 6896
  151.5467  133.3386  159.2981 H   0  0  0  0  0  0  0  0  0  0  0  0  # atno 6909 bound_to 6896
  146.1856  139.7379  142.8869 H   0  0  0  0  0  0  0  0  0  0  0  0  # atno 7974 bound_to 7965
  154.8699  140.2957  155.5488 H   0  0  0  0  0  0  0  0  0  0  0  0  # atno 8008 bound_to 7997
  156.3021  140.2462  156.3619 H   0  0  0  0  0  0  0  0  0  0  0  0  # atno 8009 bound_to 7997
  154.8828  140.0397  157.1782 H   0  0  0  0  0  0  0  0  0  0  0  0  # atno 8010 bound_to 7997
  140.7202  143.5318  150.9511 H   0  0  0  0  0  0  0  0  0  0  0  0  # atno 10167 bound_to 10162
  156.3730  130.4343  149.7530 H   0  0  0  0  0  0  0  0  0  0  0  0  # atno 10718 bound_to 10713
  153.2545  135.4250  155.0831 H   0  0  0  0  0  0  0  0  0  0  0  0  # atno 10763 bound_to 10752
  154.8395  135.3434  154.6465 H   0  0  0  0  0  0  0  0  0  0  0  0  # atno 10764 bound_to 10752
  153.6886  135.7035  153.5153 H   0  0  0  0  0  0  0  0  0  0  0  0  # atno 10765 bound_to 10752
  141.1522  133.7819  157.0016 H   0  0  0  0  0  0  0  0  0  0  0  0  # atno 11005 bound_to 11000
  145.3947  141.0377  143.3104 LP  0  0  0  0  0  0  0  0  0  0  0  0  # atno 17320 bound_to 7965
  144.8392  139.5500  143.6908 LP  0  0  0  0  0  0  0  0  0  0  0  0  # atno 17321 bound_to 7965
  139.9038  143.6803  152.3127 LP  0  0  0  0  0  0  0  0  0  0  0  0  # atno 17342 bound_to 10162
  139.7162  144.7611  151.1030 LP  0  0  0  0  0  0  0  0  0  0  0  0  # atno 17343 bound_to 10162
  156.4650  130.7970  151.2989 LP  0  0  0  0  0  0  0  0  0  0  0  0  # atno 17370 bound_to 10713
  157.7485  131.0054  150.3111 LP  0  0  0  0  0  0  0  0  0  0  0  0  # atno 17371 bound_to 10713
  140.0936  134.9577  157.1815 LP  0  0  0  0  0  0  0  0  0  0  0  0  # atno 17394 bound_to 11000
  140.3412  134.2702  155.7212 LP  0  0  0  0  0  0  0  0  0  0  0  0  # atno 17395 bound_to 11000

$$$$
