AV-unprocessed.smi:720|AV-procd|sdf|3502|dock4
  -GOLD-   22720 0493D 1   1.00000     0.00000
 Structure written by MMmdl.
 46 48  0  0  0  0  0  0  0  0  1 V2000
  151.8943  141.5551  158.9953 C   0  0  0  0  0  0  0  0  0  0  0  0
  151.6509  142.5541  157.9615 N   0  0  0  0  0  0  0  0  0  0  0  0
  151.3443  143.8197  158.6151 C   0  0  0  0  0  0  0  0  0  0  0  0
  150.5308  142.1856  157.0939 C   0  0  0  0  0  0  0  0  0  0  0  0
  150.9328  141.2739  155.9146 C   0  0  0  0  0  0  0  0  0  0  0  0
  149.8042  140.8417  155.1081 N   0  0  0  0  0  0  0  0  0  0  0  0
  148.7497  141.5974  154.6338 C   0  0  0  0  0  0  0  0  0  0  0  0
  147.9457  140.7704  153.9022 C   0  0  0  0  0  0  0  0  0  0  0  0
  148.6096  139.5159  153.9818 C   0  0  0  0  0  0  0  0  0  0  0  0
  148.0730  138.3735  153.3367 N   0  0  0  0  0  0  0  0  0  0  0  0
  146.7813  137.9980  153.2611 C   0  0  0  0  0  0  0  0  0  0  0  0
  145.8435  138.6149  153.7634 O   0  0  0  0  0  0  0  0  0  0  0  0
  146.5771  136.8655  152.5645 N   0  0  0  0  0  0  0  0  0  0  0  0
  145.3044  136.1904  152.2954 C   0  0  1  0  0  0  0  0  0  0  0  0
  145.1371  135.8969  150.7882 C   0  0  0  0  0  0  0  0  0  0  0  0
  144.9503  134.3691  150.7478 C   0  0  1  0  0  0  0  0  0  0  0  0
  146.2875  133.6768  151.0734 C   0  0  0  0  0  0  0  0  0  0  0  0
  146.4358  133.9170  152.5877 C   0  0  0  0  0  0  0  0  0  0  0  0
  145.1937  134.7730  152.9163 C   0  0  2  0  0  0  0  0  0  0  0  0
  144.1474  134.1222  152.0180 C   0  0  0  0  0  0  0  0  0  0  0  0
  149.7292  139.5592  154.6900 N   0  0  0  0  0  0  0  0  0  0  0  0
  152.2520  140.6227  158.5634 H   0  0  0  0  0  0  0  0  0  0  0  0
  150.9915  141.3470  159.5707 H   0  0  0  0  0  0  0  0  0  0  0  0
  152.6667  141.8984  159.6846 H   0  0  0  0  0  0  0  0  0  0  0  0
  151.1870  144.6063  157.8763 H   0  0  0  0  0  0  0  0  0  0  0  0
  152.1703  144.1328  159.2546 H   0  0  0  0  0  0  0  0  0  0  0  0
  150.4461  143.7431  159.2299 H   0  0  0  0  0  0  0  0  0  0  0  0
  149.7140  141.7532  157.6737 H   0  0  0  0  0  0  0  0  0  0  0  0
  150.1381  143.1066  156.6608 H   0  0  0  0  0  0  0  0  0  0  0  0
  151.6010  141.8252  155.2522 H   0  0  0  0  0  0  0  0  0  0  0  0
  151.4969  140.4076  156.2645 H   0  0  0  0  0  0  0  0  0  0  0  0
  148.6595  142.6503  154.8566 H   0  0  0  0  0  0  0  0  0  0  0  0
  147.0290  141.0247  153.3912 H   0  0  0  0  0  0  0  0  0  0  0  0
  148.7414  137.7812  152.8668 H   0  0  0  0  0  0  0  0  0  0  0  0
  147.3970  136.4286  152.1686 H   0  0  0  0  0  0  0  0  0  0  0  0
  144.4738  136.8157  152.6288 H   0  0  0  0  0  0  0  0  0  0  0  0
  144.2523  136.4028  150.3995 H   0  0  0  0  0  0  0  0  0  0  0  0
  145.9883  136.2184  150.1861 H   0  0  0  0  0  0  0  0  0  0  0  0
  144.4844  134.0105  149.8295 H   0  0  0  0  0  0  0  0  0  0  0  0
  146.2383  132.6089  150.8578 H   0  0  0  0  0  0  0  0  0  0  0  0
  147.1175  134.0961  150.5035 H   0  0  0  0  0  0  0  0  0  0  0  0
  146.3956  132.9687  153.1252 H   0  0  0  0  0  0  0  0  0  0  0  0
  147.3794  134.3958  152.8488 H   0  0  0  0  0  0  0  0  0  0  0  0
  144.9403  134.7777  153.9769 H   0  0  0  0  0  0  0  0  0  0  0  0
  143.1856  134.6379  152.0295 H   0  0  0  0  0  0  0  0  0  0  0  0
  143.9879  133.0634  152.2311 H   0  0  0  0  0  0  0  0  0  0  0  0
  1  2  1  0  0  0  0
  1 22  1  0  0  0  0
  1 23  1  0  0  0  0
  1 24  1  0  0  0  0
  2  3  1  0  0  0  0
  2  4  1  0  0  0  0
  3 25  1  0  0  0  0
  3 26  1  0  0  0  0
  3 27  1  0  0  0  0
  4  5  1  0  0  0  0
  4 28  1  0  0  0  0
  4 29  1  0  0  0  0
  5  6  1  0  0  0  0
  5 30  1  0  0  0  0
  5 31  1  0  0  0  0
  6 21  1  0  0  0  0
  6  7  1  0  0  0  0
  7  8  2  0  0  0  0
  7 32  1  0  0  0  0
  8  9  1  0  0  0  0
  8 33  1  0  0  0  0
  9 10  1  0  0  0  0
  9 21  2  0  0  0  0
 10 11  1  0  0  0  0
 10 34  1  0  0  0  0
 11 12  2  0  0  0  0
 11 13  1  0  0  0  0
 13 14  1  0  0  0  0
 13 35  1  0  0  0  0
 14 19  1  0  0  0  0
 14 15  1  0  0  0  0
 14 36  1  0  0  0  0
 15 16  1  0  0  0  0
 15 37  1  0  0  0  0
 15 38  1  0  0  0  0
 16 20  1  0  0  0  0
 16 17  1  0  0  0  0
 16 39  1  0  0  0  0
 17 18  1  0  0  0  0
 17 40  1  0  0  0  0
 17 41  1  0  0  0  0
 18 19  1  0  0  0  0
 18 42  1  0  0  0  0
 18 43  1  0  0  0  0
 19 20  1  0  0  0  0
 19 44  1  0  0  0  0
 20 45  1  0  0  0  0
 20 46  1  0  0  0  0
M  END
> <s_m_source_file>
AV-unprocessed.smi

> <i_m_source_file_index>
720

> <i_lp_mmshare_version>
43012

> <i_f3d_flags>
0

> <s_epik_input>
W0NIM11OKFtDSDNdKVtDSDJdW0NIMl1uMVtjSF1bY0hdYyhuMSlbTkhdQyg9TylbTkhdW0NASF0oW0NIMl1bQ0BIXTIzKVtDQEhdKFtDSDJdMylbQ0gyXVtDSDJdMg==

> <s_epik_cmdline>
J2VwaWtfcHl0aG9uJywgJy1waCcsICc3LjAnLCAnLXRuJywgJzgnLCAnLW1hJywgJzIwMCcsICctbWV0YWxfYmluZGluZycsICctaW1hZScsICc8aW5maWxlLm1hZT4nLCAnLW9tYWUnLCAnPG91dGZpbGUubWFlPic=

> <r_lp_tautomer_probability>
1

> <r_epik_Ionization_Penalty>
1.83819

> <r_epik_Ionization_Penalty_Charging>
0

> <r_epik_Ionization_Penalty_Neutral>
1.83819

> <r_epik_State_Penalty>
1.95467

> <r_epik_Charging_Adjusted_Penalty>
1.95467

> <i_epik_Tot_Q>
0

> <i_epik_Tot_abs_Q>
0

> <r_epik_Metal_State_Penalty>
1.95467

> <b_epik_Metal_Only>
0

> <s_lp_Force_Field>
OPLS_2005

> <r_lp_Energy>
62.953

> <b_lp_Chiralities_Consistent>
1

> <s_lp_Variant>
AV-unprocessed.smi:720-8

> <Gold.Version>
5.8.1

> <Gold.Id.Protein>
6NUR|6NUR_protein|mol2

> <Gold.PLP.Fitness>
42.9889

> <Gold.PLP.PLP>
-35.8544

> <Gold.PLP.part.hbond>
-2.6369

> <Gold.PLP.part.metal>
0.0000

> <Gold.PLP.part.buried>
-2.1910

> <Gold.PLP.part.nonpolar>
-31.7883

> <Gold.PLP.part.repulsive>
0.3861

> <Gold.PLP.ligand.clash>
0.0000

> <Gold.PLP.ligand.torsion>
0.8586

> <Gold.PLP.Chemscore.Hbond>
1.9280

> <Gold.PLP.Chemscore.CHOScore>
1.0000

> <Gold.PLP.Chemscore.Metal>
0.0000

> <Gold.Chemscore.Hbonds>
donor molecule, donor type, donor heavy atom, donor atom, acceptor molecule, acceptor atom, score
      L1  H    10    34       P1  7948  0.91
      L1  H    13    35       P1  7948  1.00
      L1  C     7    32       P1  8028  1.00

> <Gold.PLP.Chemscore.Internal.Correction>
0.0677

> <Gold.Rescore>
     Score         DG    S(hbond)    S(metal)    S(lipo)     H(rot)  DE(clash)    DE(int)     intcor
     15.97     -17.73       1.93        0.00      83.10       1.53       0.17       1.59       ----

> <Gold.Chemscore.Fitness>
15.9665

> <Gold.Chemscore.DG>
-17.7254

> <Gold.Chemscore.ZeroCoef>
-5.4800

> <Gold.Chemscore.Hbond>
1.9291

> <Gold.Chemscore.Metal>
0.0000

> <Gold.Chemscore.Lipo>
83.0959

> <Gold.Chemscore.Internal_Hbond>
0.0000

> <Gold.Chemscore.DEClash>
0.1661

> <Gold.Chemscore.DEInternal>
1.5928

> <Gold.Chemscore.Rot>
1.5312

> <Gold.Chemscore.Internal.Correction>
   9.000000E+99

> <Gold.Chemscore.Hbonds>
donor molecule, donor type, donor heavy atom, donor atom, acceptor molecule, acceptor atom, score
      L1  H    10    34       P1  7948  0.90
      L1  H    13    35       P1  7948  0.97

> <Gold.Chemscore.Hbond.Weighted>
-6.4430

> <Gold.Chemscore.Metal.Weighted>
-0.0000

> <Gold.Chemscore.Lipo.Weighted>
-9.7222

> <Gold.Chemscore.Internal_Hbond.Weighted>
0.0000

> <Gold.Chemscore.DEClash.Weighted>
0.1661

> <Gold.Chemscore.DEInternal.Weighted>
1.5928

> <Gold.Chemscore.Rot.Weighted>
3.9199

> <Gold.Chemscore.Internal.Correction.Weighted>
   9.000000E+99

> <Gold.Protein.RotatedTorsions>
[ 6907 6896 6895 6894 ] final  -54.15 input  -60.11 | X-H torsion
[ 7974 7965 7964 7962 ] final -166.36 input  175.53 | X-H torsion
[ 8008 7997 7996 7995 ] final   72.27 input   59.86 | X-H torsion
[ 10167 10162 10161 10158 ] final -131.69 input  -65.29 | X-H torsion
[ 10718 10713 10712 10709 ] final -148.38 input   66.30 | X-H torsion
[ 10763 10752 10751 10750 ] final   39.80 input  -60.55 | X-H torsion
[ 11005 11000 10999 10996 ] final   27.78 input  -57.11 | X-H torsion

> <Gold.Protein.ActiveResidues>
 VAL166  LYS551  ARG553  GLY616  TRP617  ASP618  TYR619  PRO620  LYS621  CYS622 
 ASP623  PHE694  ASN695  SER759  ASP760  ASP761  ALA762  ILE779  LEU786  VAL792 
 PHE793  MET794  SER795  GLU796  ALA797  LYS798  CYS799  TRP800  GLU811  SER814 

> <Gold.Protein.RotatedAtoms>
  150.8363  134.7638  159.6895 H   0  0  0  0  0  0  0  0  0  0  0  0  # atno 6907 bound_to 6896
  152.4459  134.5492  159.9871 H   0  0  0  0  0  0  0  0  0  0  0  0  # atno 6908 bound_to 6896
  151.5641  133.3361  159.3012 H   0  0  0  0  0  0  0  0  0  0  0  0  # atno 6909 bound_to 6896
  144.7247  140.2677  143.6255 H   0  0  0  0  0  0  0  0  0  0  0  0  # atno 7974 bound_to 7965
  155.7664  140.3485  155.5224 H   0  0  0  0  0  0  0  0  0  0  0  0  # atno 8008 bound_to 7997
  155.8865  140.1010  157.1470 H   0  0  0  0  0  0  0  0  0  0  0  0  # atno 8009 bound_to 7997
  154.4029  140.1312  156.4248 H   0  0  0  0  0  0  0  0  0  0  0  0  # atno 8010 bound_to 7997
  139.9163  143.6435  152.2564 H   0  0  0  0  0  0  0  0  0  0  0  0  # atno 10167 bound_to 10162
  156.4196  130.8022  151.2244 H   0  0  0  0  0  0  0  0  0  0  0  0  # atno 10718 bound_to 10713
  152.9956  135.6210  154.2523 H   0  0  0  0  0  0  0  0  0  0  0  0  # atno 10763 bound_to 10752
  154.2262  135.2794  155.2908 H   0  0  0  0  0  0  0  0  0  0  0  0  # atno 10764 bound_to 10752
  154.5488  135.5739  153.6962 H   0  0  0  0  0  0  0  0  0  0  0  0  # atno 10765 bound_to 10752
  140.3226  134.2526  155.7714 H   0  0  0  0  0  0  0  0  0  0  0  0  # atno 11005 bound_to 11000
  145.8073  139.1989  143.2013 LP  0  0  0  0  0  0  0  0  0  0  0  0  # atno 17320 bound_to 7965
  146.0626  140.7955  142.9727 LP  0  0  0  0  0  0  0  0  0  0  0  0  # atno 17321 bound_to 7965
  139.6900  144.7648  151.1456 LP  0  0  0  0  0  0  0  0  0  0  0  0  # atno 17342 bound_to 10162
  140.7673  143.5603  150.9106 LP  0  0  0  0  0  0  0  0  0  0  0  0  # atno 17343 bound_to 10162
  157.7508  131.0232  150.3825 LP  0  0  0  0  0  0  0  0  0  0  0  0  # atno 17370 bound_to 10713
  156.4140  130.3939  149.6872 LP  0  0  0  0  0  0  0  0  0  0  0  0  # atno 17371 bound_to 10713
  141.2083  133.7782  157.0069 LP  0  0  0  0  0  0  0  0  0  0  0  0  # atno 17394 bound_to 11000
  140.0928  134.9582  157.1803 LP  0  0  0  0  0  0  0  0  0  0  0  0  # atno 17395 bound_to 11000

$$$$
