AV-unprocessed.smi:186|AV-procd|sdf|1466|dock9
  -GOLD-   2262019283D 1   1.00000     0.00000
 Structure written by MMmdl.
 48 51  0  0  0  0  0  0  0  0  1 V2000
  151.8885  141.8765  158.8068 C   0  0  0  0  0  0  0  0  0  0  0  0
  151.2283  140.8580  158.0762 O   0  0  0  0  0  0  0  0  0  0  0  0
  151.4869  140.9343  156.6825 C   0  0  0  0  0  0  0  0  0  0  0  0
  150.7943  139.7744  155.9648 C   0  0  0  0  0  0  0  0  0  0  0  0
  150.8716  139.6516  154.7419 O   0  0  0  0  0  0  0  0  0  0  0  0
  150.1123  138.9243  156.7454 N   0  0  0  0  0  0  0  0  0  0  0  0
  149.3875  137.7595  156.2549 C   0  0  0  0  0  0  0  0  0  0  0  0
  149.0313  136.7464  157.3449 C   0  0  0  0  0  0  0  0  0  0  0  0
  149.5007  135.7059  156.4309 N   0  0  0  0  0  0  0  0  0  0  0  0
  148.4284  135.0386  155.7624 C   0  0  0  0  0  0  0  0  0  0  0  0
  147.1886  135.5221  156.0336 N   0  0  0  0  0  0  0  0  0  0  0  0
  146.0950  134.9947  155.4787 C   0  0  0  0  0  0  0  0  0  0  0  0
  146.0049  133.9783  154.6233 N   0  0  0  0  0  0  0  0  0  0  0  0
  147.2367  133.4739  154.3346 C   0  0  0  0  0  0  0  0  0  0  0  0
  148.4844  133.9364  154.8506 C   0  0  0  0  0  0  0  0  0  0  0  0
  149.5120  133.1701  154.3089 N   0  0  0  0  0  0  0  0  0  0  0  0
  148.9125  132.3126  153.5307 C   0  0  0  0  0  0  0  0  0  0  0  0
  147.5430  132.4200  153.4913 N   0  0  0  0  0  0  0  0  0  0  0  0
  146.6286  131.5979  152.7133 C   0  0  0  0  0  0  0  0  0  0  0  0
  146.1236  132.2908  151.4262 C   0  0  1  0  0  0  0  0  0  0  0  0
  147.2369  132.6122  150.6098 O   0  0  0  0  0  0  0  0  0  0  0  0
  145.1471  131.4520  150.6067 C   0  0  0  0  0  0  0  0  0  0  0  0
  144.2467  132.5029  149.9728 C   0  0  0  0  0  0  0  0  0  0  0  0
  144.0853  133.4433  151.0210 O   0  0  0  0  0  0  0  0  0  0  0  0
  145.3304  133.5847  151.6983 C   0  0  0  0  0  0  0  0  0  0  0  0
  150.3015  136.6756  155.6832 C   0  0  0  0  0  0  0  0  0  0  0  0
  151.6620  141.7715  159.8676 H   0  0  0  0  0  0  0  0  0  0  0  0
  151.5587  142.8663  158.4884 H   0  0  0  0  0  0  0  0  0  0  0  0
  152.9706  141.8113  158.6853 H   0  0  0  0  0  0  0  0  0  0  0  0
  151.1182  141.8797  156.2811 H   0  0  0  0  0  0  0  0  0  0  0  0
  152.5600  140.8825  156.4928 H   0  0  0  0  0  0  0  0  0  0  0  0
  150.0939  139.0942  157.7405 H   0  0  0  0  0  0  0  0  0  0  0  0
  148.5445  137.9995  155.6043 H   0  0  0  0  0  0  0  0  0  0  0  0
  149.6608  136.8142  158.2336 H   0  0  0  0  0  0  0  0  0  0  0  0
  147.9702  136.7047  157.5955 H   0  0  0  0  0  0  0  0  0  0  0  0
  145.1591  135.4535  155.7615 H   0  0  0  0  0  0  0  0  0  0  0  0
  149.4554  131.5706  152.9633 H   0  0  0  0  0  0  0  0  0  0  0  0
  147.1369  130.6660  152.4628 H   0  0  0  0  0  0  0  0  0  0  0  0
  145.7870  131.3232  153.3505 H   0  0  0  0  0  0  0  0  0  0  0  0
  147.6780  131.8096  150.3759 H   0  0  0  0  0  0  0  0  0  0  0  0
  145.6287  130.7979  149.8783 H   0  0  0  0  0  0  0  0  0  0  0  0
  144.5416  130.8278  151.2645 H   0  0  0  0  0  0  0  0  0  0  0  0
  144.7350  132.9787  149.1208 H   0  0  0  0  0  0  0  0  0  0  0  0
  143.2900  132.0974  149.6430 H   0  0  0  0  0  0  0  0  0  0  0  0
  145.1408  133.7399  152.7607 H   0  0  0  0  0  0  0  0  0  0  0  0
  145.8491  134.4707  151.3281 H   0  0  0  0  0  0  0  0  0  0  0  0
  150.3060  136.5711  154.6000 H   0  0  0  0  0  0  0  0  0  0  0  0
  151.3190  136.7203  156.0748 H   0  0  0  0  0  0  0  0  0  0  0  0
  1  2  1  0  0  0  0
  1 27  1  0  0  0  0
  1 28  1  0  0  0  0
  1 29  1  0  0  0  0
  2  3  1  0  0  0  0
  3  4  1  0  0  0  0
  3 30  1  0  0  0  0
  3 31  1  0  0  0  0
  4  5  2  0  0  0  0
  4  6  1  0  0  0  0
  6  7  1  0  0  0  0
  6 32  1  0  0  0  0
  7 26  1  0  0  0  0
  7  8  1  0  0  0  0
  7 33  1  0  0  0  0
  8  9  1  0  0  0  0
  8 34  1  0  0  0  0
  8 35  1  0  0  0  0
  9 10  1  0  0  0  0
  9 26  1  0  0  0  0
 10 15  1  0  0  0  0
 10 11  2  0  0  0  0
 11 12  1  0  0  0  0
 12 13  2  0  0  0  0
 12 36  1  0  0  0  0
 13 14  1  0  0  0  0
 14 18  1  0  0  0  0
 14 15  2  0  0  0  0
 15 16  1  0  0  0  0
 16 17  2  0  0  0  0
 17 18  1  0  0  0  0
 17 37  1  0  0  0  0
 18 19  1  0  0  0  0
 19 20  1  0  0  0  0
 19 38  1  0  0  0  0
 19 39  1  0  0  0  0
 20 25  1  0  0  0  0
 20 21  1  0  0  0  0
 20 22  1  0  0  0  0
 21 40  1  0  0  0  0
 22 23  1  0  0  0  0
 22 41  1  0  0  0  0
 22 42  1  0  0  0  0
 23 24  1  0  0  0  0
 23 43  1  0  0  0  0
 23 44  1  0  0  0  0
 24 25  1  0  0  0  0
 25 45  1  0  0  0  0
 25 46  1  0  0  0  0
 26 47  1  0  0  0  0
 26 48  1  0  0  0  0
M  END
> <s_m_source_file>
AV-unprocessed.smi

> <i_m_source_file_index>
186

> <i_lp_mmshare_version>
43012

> <i_f3d_flags>
0

> <s_epik_input>
W0NIM11PW0NIMl1DKD1PKVtOSF1bQ0hdMVtDSDJdTihbQ0gyXTEpYyhuW2NIXW4yKWMoYzIzKW5bY0hdbjNbQ0gyXVtDQEBdNChbT0hdKVtDSDJdW0NIMl1PW0NIMl00

> <s_epik_cmdline>
J2VwaWtfcHl0aG9uJywgJy1waCcsICc3LjAnLCAnLXRuJywgJzgnLCAnLW1hJywgJzIwMCcsICctbWV0YWxfYmluZGluZycsICctaW1hZScsICc8aW5maWxlLm1hZT4nLCAnLW9tYWUnLCAnPG91dGZpbGUubWFlPic=

> <r_lp_tautomer_probability>
1

> <r_epik_Ionization_Penalty>
0.00138671

> <r_epik_Ionization_Penalty_Charging>
0

> <r_epik_Ionization_Penalty_Neutral>
0.00138671

> <r_epik_State_Penalty>
0.000746021

> <r_epik_Charging_Adjusted_Penalty>
0.000746021

> <i_epik_Tot_Q>
0

> <i_epik_Tot_abs_Q>
0

> <r_epik_Metal_State_Penalty>
-0

> <b_epik_Metal_Only>
0

> <s_lp_Force_Field>
OPLS_2005

> <r_lp_Energy>
46.8047

> <b_lp_Chiralities_Consistent>
1

> <s_lp_Variant>
AV-unprocessed.smi:186-1

> <Gold.Version>
5.8.1

> <Gold.Id.Protein>
6NUR|6NUR_protein|mol2

> <Gold.PLP.Fitness>
40.8011

> <Gold.PLP.PLP>
-32.5000

> <Gold.PLP.part.hbond>
-2.0000

> <Gold.PLP.part.metal>
0.0000

> <Gold.PLP.part.buried>
-8.6427

> <Gold.PLP.part.nonpolar>
-23.6552

> <Gold.PLP.part.repulsive>
0.6590

> <Gold.PLP.ligand.clash>
0.0000

> <Gold.PLP.ligand.torsion>
0.6434

> <Gold.PLP.Chemscore.Hbond>
2.0000

> <Gold.PLP.Chemscore.CHOScore>
1.0000

> <Gold.PLP.Chemscore.Metal>
0.0000

> <Gold.Chemscore.Hbonds>
donor molecule, donor type, donor heavy atom, donor atom, acceptor molecule, acceptor atom, score
      L1  H    21    40       P1 10747  1.00
      P1  H  7989  7998       L1     5  1.00
      L1  C    17    37       P1 10747  0.33

> <Gold.PLP.Chemscore.Internal.Correction>
0.5878

> <Gold.Rescore>
     Score         DG    S(hbond)    S(metal)    S(lipo)     H(rot)  DE(clash)    DE(int)     intcor
     10.66     -11.50       1.96        0.00      69.21       3.36       0.01       0.83       ----

> <Gold.Chemscore.Fitness>
10.6574

> <Gold.Chemscore.DG>
-11.5025

> <Gold.Chemscore.ZeroCoef>
-5.4800

> <Gold.Chemscore.Hbond>
1.9556

> <Gold.Chemscore.Metal>
0.0000

> <Gold.Chemscore.Lipo>
69.2100

> <Gold.Chemscore.Internal_Hbond>
0.0000

> <Gold.Chemscore.DEClash>
0.0136

> <Gold.Chemscore.DEInternal>
0.8314

> <Gold.Chemscore.Rot>
3.3620

> <Gold.Chemscore.Internal.Correction>
   9.000000E+99

> <Gold.Chemscore.Hbonds>
donor molecule, donor type, donor heavy atom, donor atom, acceptor molecule, acceptor atom, score
      L1  H    21    40       P1 10747  0.96
      P1  H  7989  7998       L1     5  1.00

> <Gold.Chemscore.Hbond.Weighted>
-6.5316

> <Gold.Chemscore.Metal.Weighted>
-0.0000

> <Gold.Chemscore.Lipo.Weighted>
-8.0976

> <Gold.Chemscore.Internal_Hbond.Weighted>
0.0000

> <Gold.Chemscore.DEClash.Weighted>
0.0136

> <Gold.Chemscore.DEInternal.Weighted>
0.8314

> <Gold.Chemscore.Rot.Weighted>
8.6067

> <Gold.Chemscore.Internal.Correction.Weighted>
   9.000000E+99

> <Gold.Protein.RotatedTorsions>
[ 6907 6896 6895 6894 ] final  137.80 input  -60.11 | X-H torsion
[ 7974 7965 7964 7962 ] final  -45.28 input  175.53 | X-H torsion
[ 8008 7997 7996 7995 ] final  -99.81 input   59.86 | X-H torsion
[ 10167 10162 10161 10158 ] final -133.11 input  -65.29 | X-H torsion
[ 10718 10713 10712 10709 ] final -167.17 input   66.30 | X-H torsion
[ 10763 10752 10751 10750 ] final -150.70 input  -60.55 | X-H torsion
[ 11005 11000 10999 10996 ] final   60.13 input  -57.11 | X-H torsion

> <Gold.Protein.ActiveResidues>
 VAL166  LYS551  ARG553  GLY616  TRP617  ASP618  TYR619  PRO620  LYS621  CYS622 
 ASP623  PHE694  ASN695  SER759  ASP760  ASP761  ALA762  ILE779  LEU786  VAL792 
 PHE793  MET794  SER795  GLU796  ALA797  LYS798  CYS799  TRP800  GLU811  SER814 

> <Gold.Protein.RotatedAtoms>
  152.2739  133.5408  159.5455 H   0  0  0  0  0  0  0  0  0  0  0  0  # atno 6907 bound_to 6896
  150.7170  134.0659  159.3856 H   0  0  0  0  0  0  0  0  0  0  0  0  # atno 6908 bound_to 6896
  151.8572  135.0537  160.0516 H   0  0  0  0  0  0  0  0  0  0  0  0  # atno 6909 bound_to 6896
  145.9836  140.7257  142.9351 H   0  0  0  0  0  0  0  0  0  0  0  0  # atno 7974 bound_to 7965
  154.8200  140.0445  157.1404 H   0  0  0  0  0  0  0  0  0  0  0  0  # atno 8008 bound_to 7997
  154.9270  140.3034  155.5167 H   0  0  0  0  0  0  0  0  0  0  0  0  # atno 8009 bound_to 7997
  156.2979  140.2330  156.4326 H   0  0  0  0  0  0  0  0  0  0  0  0  # atno 8010 bound_to 7997
  139.9017  143.6600  152.2593 H   0  0  0  0  0  0  0  0  0  0  0  0  # atno 10167 bound_to 10162
  156.6784  130.9112  151.3053 H   0  0  0  0  0  0  0  0  0  0  0  0  # atno 10718 bound_to 10713
  154.8103  135.3278  154.7323 H   0  0  0  0  0  0  0  0  0  0  0  0  # atno 10763 bound_to 10752
  153.7974  135.6906  153.4866 H   0  0  0  0  0  0  0  0  0  0  0  0  # atno 10764 bound_to 10752
  153.1877  135.4563  155.0055 H   0  0  0  0  0  0  0  0  0  0  0  0  # atno 10765 bound_to 10752
  140.0254  134.6091  155.9580 H   0  0  0  0  0  0  0  0  0  0  0  0  # atno 11005 bound_to 11000
  144.6868  140.2950  143.7272 LP  0  0  0  0  0  0  0  0  0  0  0  0  # atno 17320 bound_to 7965
  145.7733  139.1865  143.2199 LP  0  0  0  0  0  0  0  0  0  0  0  0  # atno 17321 bound_to 7965
  139.7020  144.7633  151.1258 LP  0  0  0  0  0  0  0  0  0  0  0  0  # atno 17342 bound_to 10162
  140.7705  143.5445  150.9274 LP  0  0  0  0  0  0  0  0  0  0  0  0  # atno 17343 bound_to 10162
  157.7052  130.9377  150.0909 LP  0  0  0  0  0  0  0  0  0  0  0  0  # atno 17370 bound_to 10713
  156.1886  130.3653  149.8940 LP  0  0  0  0  0  0  0  0  0  0  0  0  # atno 17371 bound_to 10713
  141.1799  133.6545  156.4979 LP  0  0  0  0  0  0  0  0  0  0  0  0  # atno 17394 bound_to 11000
  140.4315  134.7097  157.4944 LP  0  0  0  0  0  0  0  0  0  0  0  0  # atno 17395 bound_to 11000

$$$$
