AV-unprocessed.smi:3216|AV-procd|sdf|12287|dock4
  -GOLD-   2272018123D 1   1.00000     0.00000
 Structure written by MMmdl.
 37 37  0  0  0  0  0  0  0  0  2 V2000
  143.2300  135.3727  151.3648 C   0  0  0  0  0  0  0  0  0  0  0  0
  144.5534  134.8448  150.7842 C   0  0  0  0  0  0  0  0  0  0  0  0
  144.4188  133.3684  150.3835 C   0  0  0  0  0  0  0  0  0  0  0  0
  145.7393  135.0416  151.7526 C   0  0  0  0  0  0  0  0  0  0  0  0
  146.3759  136.3468  151.6025 N   0  0  0  0  0  0  0  0  0  0  0  0
  145.7756  137.5263  151.8213 C   0  0  0  0  0  0  0  0  0  0  0  0
  144.6023  137.6307  152.1812 O   0  0  0  0  0  0  0  0  0  0  0  0
  146.6408  138.7699  151.6101 C   0  0  0  0  0  0  0  0  0  0  0  0
  147.8922  138.7197  152.3937 N   0  3  0  0  0  0  0  0  0  0  0  0
  147.7509  139.1913  153.7843 C   0  0  0  0  0  0  0  0  0  0  0  0
  148.9750  140.0126  154.2148 C   0  0  0  0  0  0  0  0  0  0  0  0
  150.1042  139.1647  154.5451 N   0  0  0  0  0  0  0  0  0  0  0  0
  150.2248  137.7988  154.3975 C   0  0  0  0  0  0  0  0  0  0  0  0
  151.4649  137.4498  154.8504 C   0  0  0  0  0  0  0  0  0  0  0  0
  152.0342  138.6862  155.2652 C   0  0  0  0  0  0  0  0  0  0  0  0
  151.2162  139.7106  155.0830 N   0  0  0  0  0  0  0  0  0  0  0  0
  142.9708  134.8570  152.2899 H   0  0  0  0  0  0  0  0  0  0  0  0
  142.4087  135.2262  150.6627 H   0  0  0  0  0  0  0  0  0  0  0  0
  143.2826  136.4399  151.5811 H   0  0  0  0  0  0  0  0  0  0  0  0
  144.7612  135.4067  149.8725 H   0  0  0  0  0  0  0  0  0  0  0  0
  144.2215  132.7381  151.2513 H   0  0  0  0  0  0  0  0  0  0  0  0
  145.3310  133.0052  149.9088 H   0  0  0  0  0  0  0  0  0  0  0  0
  143.6022  133.2253  149.6752 H   0  0  0  0  0  0  0  0  0  0  0  0
  145.3951  134.9509  152.7834 H   0  0  0  0  0  0  0  0  0  0  0  0
  146.4811  134.2535  151.6103 H   0  0  0  0  0  0  0  0  0  0  0  0
  147.3440  136.3486  151.3141 H   0  0  0  0  0  0  0  0  0  0  0  0
  146.8787  138.8568  150.5491 H   0  0  0  0  0  0  0  0  0  0  0  0
  146.0728  139.6574  151.8931 H   0  0  0  0  0  0  0  0  0  0  0  0
  148.2201  137.7645  152.4069 H   0  0  0  0  0  0  0  0  0  0  0  0
  146.8468  139.7960  153.8691 H   0  0  0  0  0  0  0  0  0  0  0  0
  147.6259  138.3284  154.4403 H   0  0  0  0  0  0  0  0  0  0  0  0
  149.2774  140.6967  153.4203 H   0  0  0  0  0  0  0  0  0  0  0  0
  148.7346  140.6241  155.0857 H   0  0  0  0  0  0  0  0  0  0  0  0
  149.4287  137.1953  153.9870 H   0  0  0  0  0  0  0  0  0  0  0  0
  151.8988  136.4614  154.8831 H   0  0  0  0  0  0  0  0  0  0  0  0
  153.0101  138.8681  155.6908 H   0  0  0  0  0  0  0  0  0  0  0  0
  148.5831  139.2887  151.9252 H   0  0  0  0  0  0  0  0  0  0  0  0
  1  2  1  0  0  0  0
  1 17  1  0  0  0  0
  1 18  1  0  0  0  0
  1 19  1  0  0  0  0
  2  3  1  0  0  0  0
  2  4  1  0  0  0  0
  2 20  1  0  0  0  0
  3 21  1  0  0  0  0
  3 22  1  0  0  0  0
  3 23  1  0  0  0  0
  4  5  1  0  0  0  0
  4 24  1  0  0  0  0
  4 25  1  0  0  0  0
  5  6  1  0  0  0  0
  5 26  1  0  0  0  0
  6  7  2  0  0  0  0
  6  8  1  0  0  0  0
  8  9  1  0  0  0  0
  8 27  1  0  0  0  0
  8 28  1  0  0  0  0
  9 10  1  0  0  0  0
  9 29  1  0  0  0  0
  9 37  1  0  0  0  0
 10 11  1  0  0  0  0
 10 30  1  0  0  0  0
 10 31  1  0  0  0  0
 11 12  1  0  0  0  0
 11 32  1  0  0  0  0
 11 33  1  0  0  0  0
 12 16  1  0  0  0  0
 12 13  1  0  0  0  0
 13 14  2  0  0  0  0
 13 34  1  0  0  0  0
 14 15  1  0  0  0  0
 14 35  1  0  0  0  0
 15 16  2  0  0  0  0
 15 36  1  0  0  0  0
M  CHG  1   9   1
M  END
> <s_m_source_file>
AV-unprocessed.smi

> <i_m_source_file_index>
3216

> <i_lp_mmshare_version>
43012

> <i_f3d_flags>
0

> <s_epik_input>
W0NIM11bQ0hdKFtDSDNdKVtDSDJdW05IXUMoPU8pW0NIMl1bTkhdW0NIMl1bQ0gyXW4xW2NIXVtjSF1bY0hdbjE=

> <s_epik_cmdline>
J2VwaWtfcHl0aG9uJywgJy1waCcsICc3LjAnLCAnLXRuJywgJzgnLCAnLW1hJywgJzIwMCcsICctbWV0YWxfYmluZGluZycsICctaW1hZScsICc8aW5maWxlLm1hZT4nLCAnLW9tYWUnLCAnPG91dGZpbGUubWFlPic=

> <r_lp_tautomer_probability>
1

> <r_epik_Ionization_Penalty>
0.20724

> <r_epik_Ionization_Penalty_Charging>
0.207237

> <r_epik_Ionization_Penalty_Neutral>
3.19342e-06

> <r_epik_State_Penalty>
0.197611

> <r_epik_Charging_Adjusted_Penalty>
0.404848

> <i_epik_Tot_Q>
1

> <i_epik_Tot_abs_Q>
1

> <r_epik_Metal_State_Penalty>
0.197786

> <b_epik_Metal_Only>
0

> <s_lp_Force_Field>
OPLS_2005

> <r_lp_Energy>
2.0828

> <b_lp_Chiralities_Consistent>
1

> <s_lp_Variant>
AV-unprocessed.smi:3216-1

> <Gold.Version>
5.8.1

> <Gold.Id.Protein>
6NUR|6NUR_protein|mol2

> <Gold.PLP.Fitness>
50.2723

> <Gold.PLP.PLP>
-34.1783

> <Gold.PLP.part.hbond>
-3.7144

> <Gold.PLP.part.metal>
0.0000

> <Gold.PLP.part.buried>
-4.6827

> <Gold.PLP.part.nonpolar>
-28.2382

> <Gold.PLP.part.repulsive>
0.3936

> <Gold.PLP.ligand.clash>
0.0000

> <Gold.PLP.ligand.torsion>
0.9365

> <Gold.PLP.Chemscore.Hbond>
4.9600

> <Gold.PLP.Chemscore.CHOScore>
1.0000

> <Gold.PLP.Chemscore.Metal>
0.0000

> <Gold.Chemscore.Hbonds>
donor molecule, donor type, donor heavy atom, donor atom, acceptor molecule, acceptor atom, score
      L1  H     5    26       P1  7948  0.93
      L1  H     9    29       P1  7948  2.00
      L1  H     9    37       P1  7957  0.83
      P1  H  7989  7998       L1    16  0.80
      L1  C    13    34       P1  7948  1.00

> <Gold.PLP.Chemscore.Internal.Correction>
0.0870

> <Gold.Rescore>
     Score         DG    S(hbond)    S(metal)    S(lipo)     H(rot)  DE(clash)    DE(int)     intcor
     18.56     -19.67       3.78        0.00      64.09       2.32       0.06       1.04       ----

> <Gold.Chemscore.Fitness>
18.5649

> <Gold.Chemscore.DG>
-19.6670

> <Gold.Chemscore.ZeroCoef>
-5.4800

> <Gold.Chemscore.Hbond>
3.7799

> <Gold.Chemscore.Metal>
0.0000

> <Gold.Chemscore.Lipo>
64.0904

> <Gold.Chemscore.Internal_Hbond>
0.0000

> <Gold.Chemscore.DEClash>
0.0589

> <Gold.Chemscore.DEInternal>
1.0432

> <Gold.Chemscore.Rot>
2.3189

> <Gold.Chemscore.Internal.Correction>
   9.000000E+99

> <Gold.Chemscore.Hbonds>
donor molecule, donor type, donor heavy atom, donor atom, acceptor molecule, acceptor atom, score
      L1  H     5    26       P1  7948  0.89
      L1  H     9    29       P1  7948  0.99
      L1  H     9    37       P1  7957  0.80
      P1  H  7989  7998       L1    16  0.10

> <Gold.Chemscore.Hbond.Weighted>
-12.6248

> <Gold.Chemscore.Metal.Weighted>
-0.0000

> <Gold.Chemscore.Lipo.Weighted>
-7.4986

> <Gold.Chemscore.Internal_Hbond.Weighted>
0.0000

> <Gold.Chemscore.DEClash.Weighted>
0.0589

> <Gold.Chemscore.DEInternal.Weighted>
1.0432

> <Gold.Chemscore.Rot.Weighted>
5.9363

> <Gold.Chemscore.Internal.Correction.Weighted>
   9.000000E+99

> <Gold.Protein.RotatedTorsions>
[ 6907 6896 6895 6894 ] final  119.45 input  -60.11 | X-H torsion
[ 7974 7965 7964 7962 ] final  124.58 input  175.53 | X-H torsion
[ 8008 7997 7996 7995 ] final -160.77 input   59.86 | X-H torsion
[ 10167 10162 10161 10158 ] final  -61.78 input  -65.29 | X-H torsion
[ 10718 10713 10712 10709 ] final  118.24 input   66.30 | X-H torsion
[ 10763 10752 10751 10750 ] final  147.24 input  -60.55 | X-H torsion
[ 11005 11000 10999 10996 ] final  123.21 input  -57.11 | X-H torsion

> <Gold.Protein.ActiveResidues>
 VAL166  LYS551  ARG553  GLY616  TRP617  ASP618  TYR619  PRO620  LYS621  CYS622 
 ASP623  PHE694  ASN695  SER759  ASP760  ASP761  ALA762  ILE779  LEU786  VAL792 
 PHE793  MET794  SER795  GLU796  ALA797  LYS798  CYS799  TRP800  GLU811  SER814 

> <Gold.Protein.RotatedAtoms>
  152.4471  133.7557  159.6718 H   0  0  0  0  0  0  0  0  0  0  0  0  # atno 6907 bound_to 6896
  150.8373  133.7982  159.3080 H   0  0  0  0  0  0  0  0  0  0  0  0  # atno 6908 bound_to 6896
  151.5618  135.1068  160.0026 H   0  0  0  0  0  0  0  0  0  0  0  0  # atno 6909 bound_to 6896
  145.0828  139.3644  143.4900 H   0  0  0  0  0  0  0  0  0  0  0  0  # atno 7974 bound_to 7965
  155.7824  140.0867  157.2052 H   0  0  0  0  0  0  0  0  0  0  0  0  # atno 8008 bound_to 7997
  154.3989  140.1505  156.3125 H   0  0  0  0  0  0  0  0  0  0  0  0  # atno 8009 bound_to 7997
  155.8640  140.3429  155.5778 H   0  0  0  0  0  0  0  0  0  0  0  0  # atno 8010 bound_to 7997
  140.5983  143.2355  151.5986 H   0  0  0  0  0  0  0  0  0  0  0  0  # atno 10167 bound_to 10162
  157.6043  131.1046  150.7729 H   0  0  0  0  0  0  0  0  0  0  0  0  # atno 10718 bound_to 10713
  154.0351  135.2894  155.3363 H   0  0  0  0  0  0  0  0  0  0  0  0  # atno 10763 bound_to 10752
  154.6964  135.5206  153.8467 H   0  0  0  0  0  0  0  0  0  0  0  0  # atno 10764 bound_to 10752
  153.0623  135.6618  154.0561 H   0  0  0  0  0  0  0  0  0  0  0  0  # atno 10765 bound_to 10752
  139.9302  134.9641  156.8226 H   0  0  0  0  0  0  0  0  0  0  0  0  # atno 11005 bound_to 11000
  146.3531  140.0626  142.8628 LP  0  0  0  0  0  0  0  0  0  0  0  0  # atno 17320 bound_to 7965
  145.1158  140.9432  143.4630 LP  0  0  0  0  0  0  0  0  0  0  0  0  # atno 17321 bound_to 7965
  139.5273  144.3020  152.1065 LP  0  0  0  0  0  0  0  0  0  0  0  0  # atno 17342 bound_to 10162
  140.2196  144.4479  150.6348 LP  0  0  0  0  0  0  0  0  0  0  0  0  # atno 17343 bound_to 10162
  156.8120  130.4955  149.5354 LP  0  0  0  0  0  0  0  0  0  0  0  0  # atno 17370 bound_to 10713
  156.1125  130.6050  151.0069 LP  0  0  0  0  0  0  0  0  0  0  0  0  # atno 17371 bound_to 10713
  140.6222  133.9983  155.7623 LP  0  0  0  0  0  0  0  0  0  0  0  0  # atno 17394 bound_to 11000
  141.0887  133.9951  157.3273 LP  0  0  0  0  0  0  0  0  0  0  0  0  # atno 17395 bound_to 11000

$$$$
