AV-unprocessed.smi:479|AV-procd|sdf|2675|dock3
  -GOLD-   2262023 93D 1   1.00000     0.00000
 Structure written by MMmdl.
 46 48  0  0  0  0  0  0  0  0  2 V2000
  143.9961  142.2212  157.3148 C   0  0  0  0  0  0  0  0  0  0  0  0
  144.9699  141.8129  156.3652 O   0  0  0  0  0  0  0  0  0  0  0  0
  145.0621  142.5076  155.1760 C   0  0  0  0  0  0  0  0  0  0  0  0
  144.1974  143.5738  154.8187 C   0  0  0  0  0  0  0  0  0  0  0  0
  144.3421  144.2461  153.5829 C   0  0  0  0  0  0  0  0  0  0  0  0
  143.4462  145.3709  153.1871 C   0  0  0  0  0  0  0  0  0  0  0  0
  142.4310  145.8731  154.2128 C   0  0  0  0  0  0  0  0  0  0  0  0
  143.4856  145.9129  152.0830 O   0  0  0  0  0  0  0  0  0  0  0  0
  145.3642  143.8354  152.7014 C   0  0  0  0  0  0  0  0  0  0  0  0
  146.2274  142.7810  153.0473 C   0  0  0  0  0  0  0  0  0  0  0  0
  146.0866  142.1125  154.2874 C   0  0  0  0  0  0  0  0  0  0  0  0
  146.9010  141.0764  154.6948 O   0  0  0  0  0  0  0  0  0  0  0  0
  148.0859  140.8111  153.9564 C   0  0  0  0  0  0  0  0  0  0  0  0
  149.2540  140.6601  154.9418 C   0  0  1  0  0  0  0  0  0  0  0  0
  150.3665  140.1378  154.2428 O   0  0  0  0  0  0  0  0  0  0  0  0
  149.6280  141.9980  155.6104 C   0  0  0  0  0  0  0  0  0  0  0  0
  150.2643  141.8231  156.9234 N   0  0  0  0  0  0  0  0  0  0  0  0
  150.5289  140.6798  157.6115 C   0  0  0  0  0  0  0  0  0  0  0  0
  151.1208  141.0334  158.7858 N   0  3  0  0  0  0  0  0  0  0  0  0
  151.2379  142.4235  158.8488 C   0  0  0  0  0  0  0  0  0  0  0  0
  151.7674  143.2488  159.8364 C   0  0  0  0  0  0  0  0  0  0  0  0
  151.7352  144.6365  159.5862 C   0  0  0  0  0  0  0  0  0  0  0  0
  151.1937  145.1551  158.3920 C   0  0  0  0  0  0  0  0  0  0  0  0
  150.6590  144.3092  157.3980 C   0  0  0  0  0  0  0  0  0  0  0  0
  150.6916  142.9384  157.6539 C   0  0  0  0  0  0  0  0  0  0  0  0
  144.0437  141.5642  158.1831 H   0  0  0  0  0  0  0  0  0  0  0  0
  142.9865  142.1538  156.9071 H   0  0  0  0  0  0  0  0  0  0  0  0
  144.1810  143.2388  157.6612 H   0  0  0  0  0  0  0  0  0  0  0  0
  143.4167  143.8805  155.4963 H   0  0  0  0  0  0  0  0  0  0  0  0
  142.9372  146.2250  155.1117 H   0  0  0  0  0  0  0  0  0  0  0  0
  141.7383  145.0772  154.4867 H   0  0  0  0  0  0  0  0  0  0  0  0
  141.8522  146.7011  153.8025 H   0  0  0  0  0  0  0  0  0  0  0  0
  145.4997  144.3255  151.7480 H   0  0  0  0  0  0  0  0  0  0  0  0
  146.9926  142.5037  152.3385 H   0  0  0  0  0  0  0  0  0  0  0  0
  147.9564  139.8885  153.3879 H   0  0  0  0  0  0  0  0  0  0  0  0
  148.2974  141.6180  153.2526 H   0  0  0  0  0  0  0  0  0  0  0  0
  148.9806  139.9346  155.7091 H   0  0  0  0  0  0  0  0  0  0  0  0
  150.0769  139.8484  153.3909 H   0  0  0  0  0  0  0  0  0  0  0  0
  150.2774  142.5947  154.9696 H   0  0  0  0  0  0  0  0  0  0  0  0
  148.7303  142.5960  155.7720 H   0  0  0  0  0  0  0  0  0  0  0  0
  150.3063  139.6739  157.2855 H   0  0  0  0  0  0  0  0  0  0  0  0
  152.1844  142.8538  160.7512 H   0  0  0  0  0  0  0  0  0  0  0  0
  152.1354  145.3168  160.3241 H   0  0  0  0  0  0  0  0  0  0  0  0
  151.1888  146.2240  158.2339 H   0  0  0  0  0  0  0  0  0  0  0  0
  150.2521  144.7175  156.4851 H   0  0  0  0  0  0  0  0  0  0  0  0
  151.4209  140.3724  159.4909 H   0  0  0  0  0  0  0  0  0  0  0  0
  1  2  1  0  0  0  0
  1 26  1  0  0  0  0
  1 27  1  0  0  0  0
  1 28  1  0  0  0  0
  2  3  1  0  0  0  0
  3 11  1  0  0  0  0
  3  4  2  0  0  0  0
  4  5  1  0  0  0  0
  4 29  1  0  0  0  0
  5  6  1  0  0  0  0
  5  9  2  0  0  0  0
  6  7  1  0  0  0  0
  6  8  2  0  0  0  0
  7 30  1  0  0  0  0
  7 31  1  0  0  0  0
  7 32  1  0  0  0  0
  9 10  1  0  0  0  0
  9 33  1  0  0  0  0
 10 11  2  0  0  0  0
 10 34  1  0  0  0  0
 11 12  1  0  0  0  0
 12 13  1  0  0  0  0
 13 14  1  0  0  0  0
 13 35  1  0  0  0  0
 13 36  1  0  0  0  0
 14 15  1  0  0  0  0
 14 16  1  0  0  0  0
 14 37  1  0  0  0  0
 15 38  1  0  0  0  0
 16 17  1  0  0  0  0
 16 39  1  0  0  0  0
 16 40  1  0  0  0  0
 17 25  1  0  0  0  0
 17 18  1  0  0  0  0
 18 19  2  0  0  0  0
 18 41  1  0  0  0  0
 19 20  1  0  0  0  0
 19 46  1  0  0  0  0
 20 25  2  0  0  0  0
 20 21  1  0  0  0  0
 21 22  2  0  0  0  0
 21 42  1  0  0  0  0
 22 23  1  0  0  0  0
 22 43  1  0  0  0  0
 23 24  2  0  0  0  0
 23 44  1  0  0  0  0
 24 25  1  0  0  0  0
 24 45  1  0  0  0  0
M  CHG  1  19   1
M  END
> <s_m_source_file>
AV-unprocessed.smi

> <i_m_source_file_index>
479

> <i_lp_mmshare_version>
43012

> <i_f3d_flags>
0

> <s_epik_input>
W0NIM11PYzFbY0hdYyhDKD1PKVtDSDNdKVtjSF1bY0hdYzFPW0NIMl1bQ0BIXShbT0hdKVtDSDJdbihbY0hdbjIpYyhjMjMpW2NIXVtjSF1bY0hdW2NIXTM=

> <s_epik_cmdline>
J2VwaWtfcHl0aG9uJywgJy1waCcsICc3LjAnLCAnLXRuJywgJzgnLCAnLW1hJywgJzIwMCcsICctbWV0YWxfYmluZGluZycsICctaW1hZScsICc8aW5maWxlLm1hZT4nLCAnLW9tYWUnLCAnPG91dGZpbGUubWFlPic=

> <r_lp_tautomer_probability>
0.99995

> <r_epik_Ionization_Penalty>
1.37698

> <r_epik_Ionization_Penalty_Charging>
1.37698

> <r_epik_Ionization_Penalty_Neutral>
2.3993e-06

> <r_epik_State_Penalty>
1.45717

> <r_epik_Charging_Adjusted_Penalty>
2.83415

> <i_epik_Tot_Q>
1

> <i_epik_Tot_abs_Q>
1

> <r_epik_Metal_State_Penalty>
5.49703

> <b_epik_Metal_Only>
0

> <s_lp_Force_Field>
OPLS_2005

> <r_lp_Energy>
29.5876

> <b_lp_Chiralities_Consistent>
1

> <s_lp_Variant>
AV-unprocessed.smi:479-4

> <Gold.Version>
5.8.1

> <Gold.Id.Protein>
6NUR|6NUR_protein|mol2

> <Gold.PLP.Fitness>
58.8491

> <Gold.PLP.PLP>
-54.3438

> <Gold.PLP.part.hbond>
-4.0000

> <Gold.PLP.part.metal>
0.0000

> <Gold.PLP.part.buried>
-7.0229

> <Gold.PLP.part.nonpolar>
-43.4714

> <Gold.PLP.part.repulsive>
0.3161

> <Gold.PLP.ligand.clash>
0.0000

> <Gold.PLP.ligand.torsion>
0.8284

> <Gold.PLP.Chemscore.Hbond>
2.0000

> <Gold.PLP.Chemscore.CHOScore>
0.0000

> <Gold.PLP.Chemscore.Metal>
0.0000

> <Gold.Chemscore.Hbonds>
donor molecule, donor type, donor heavy atom, donor atom, acceptor molecule, acceptor atom, score
      L1  H    15    38       P1  7957  0.37
      P1  H  7989  7998       L1    15  0.35

> <Gold.PLP.Chemscore.Internal.Correction>
0.1620

> <Gold.Rescore>
     Score         DG    S(hbond)    S(metal)    S(lipo)     H(rot)  DE(clash)    DE(int)     intcor
     16.01     -16.99       1.56        0.00     113.92       2.75       0.07       0.92       ----

> <Gold.Chemscore.Fitness>
16.0075

> <Gold.Chemscore.DG>
-16.9909

> <Gold.Chemscore.ZeroCoef>
-5.4800

> <Gold.Chemscore.Hbond>
1.5625

> <Gold.Chemscore.Metal>
0.0000

> <Gold.Chemscore.Lipo>
113.9226

> <Gold.Chemscore.Internal_Hbond>
0.0000

> <Gold.Chemscore.DEClash>
0.0670

> <Gold.Chemscore.DEInternal>
0.9164

> <Gold.Chemscore.Rot>
2.7487

> <Gold.Chemscore.Internal.Correction>
   9.000000E+99

> <Gold.Chemscore.Hbonds>
donor molecule, donor type, donor heavy atom, donor atom, acceptor molecule, acceptor atom, score
      L1  H    15    38       P1  7957  0.37
      P1  H  7989  7998       L1    15  0.01

> <Gold.Chemscore.Hbond.Weighted>
-5.2188

> <Gold.Chemscore.Metal.Weighted>
-0.0000

> <Gold.Chemscore.Lipo.Weighted>
-13.3289

> <Gold.Chemscore.Internal_Hbond.Weighted>
0.0000

> <Gold.Chemscore.DEClash.Weighted>
0.0670

> <Gold.Chemscore.DEInternal.Weighted>
0.9164

> <Gold.Chemscore.Rot.Weighted>
7.0368

> <Gold.Chemscore.Internal.Correction.Weighted>
   9.000000E+99

> <Gold.Protein.RotatedTorsions>
[ 6907 6896 6895 6894 ] final  143.77 input  -60.11 | X-H torsion
[ 7974 7965 7964 7962 ] final    9.30 input  175.53 | X-H torsion
[ 8008 7997 7996 7995 ] final   37.73 input   59.86 | X-H torsion
[ 10167 10162 10161 10158 ] final   76.40 input  -65.29 | X-H torsion
[ 10718 10713 10712 10709 ] final   91.02 input   66.30 | X-H torsion
[ 10763 10752 10751 10750 ] final   86.47 input  -60.55 | X-H torsion
[ 11005 11000 10999 10996 ] final  147.70 input  -57.11 | X-H torsion

> <Gold.Protein.ActiveResidues>
 VAL166  LYS551  ARG553  GLY616  TRP617  ASP618  TYR619  PRO620  LYS621  CYS622 
 ASP623  PHE694  ASN695  SER759  ASP760  ASP761  ALA762  ILE779  LEU786  VAL792 
 PHE793  MET794  SER795  GLU796  ALA797  LYS798  CYS799  TRP800  GLU811  SER814 

> <Gold.Protein.RotatedAtoms>
  152.2021  133.4848  159.5063 H   0  0  0  0  0  0  0  0  0  0  0  0  # atno 6907 bound_to 6896
  150.6972  134.1577  159.4173 H   0  0  0  0  0  0  0  0  0  0  0  0  # atno 6908 bound_to 6896
  151.9495  135.0176  160.0592 H   0  0  0  0  0  0  0  0  0  0  0  0  # atno 6909 bound_to 6896
  146.2405  139.9805  142.8436 H   0  0  0  0  0  0  0  0  0  0  0  0  # atno 7974 bound_to 7965
  155.2085  140.3321  155.4332 H   0  0  0  0  0  0  0  0  0  0  0  0  # atno 8008 bound_to 7997
  156.2379  140.1881  156.7117 H   0  0  0  0  0  0  0  0  0  0  0  0  # atno 8009 bound_to 7997
  154.6094  140.0611  156.9459 H   0  0  0  0  0  0  0  0  0  0  0  0  # atno 8010 bound_to 7997
  139.9926  144.5745  150.7805 H   0  0  0  0  0  0  0  0  0  0  0  0  # atno 10167 bound_to 10162
  157.6960  131.0392  150.3666 H   0  0  0  0  0  0  0  0  0  0  0  0  # atno 10718 bound_to 10713
  153.1573  135.4579  154.9723 H   0  0  0  0  0  0  0  0  0  0  0  0  # atno 10763 bound_to 10752
  154.7871  135.3208  154.7864 H   0  0  0  0  0  0  0  0  0  0  0  0  # atno 10764 bound_to 10752
  153.8359  135.6934  153.4863 H   0  0  0  0  0  0  0  0  0  0  0  0  # atno 10765 bound_to 10752
  140.0897  134.9048  157.1632 H   0  0  0  0  0  0  0  0  0  0  0  0  # atno 11005 bound_to 11000
  145.1597  140.9666  143.4384 LP  0  0  0  0  0  0  0  0  0  0  0  0  # atno 17320 bound_to 7965
  145.0128  139.3494  143.6111 LP  0  0  0  0  0  0  0  0  0  0  0  0  # atno 17321 bound_to 7965
  140.7449  143.2867  151.3443 LP  0  0  0  0  0  0  0  0  0  0  0  0  # atno 17342 bound_to 10162
  139.6329  144.0686  152.2491 LP  0  0  0  0  0  0  0  0  0  0  0  0  # atno 17343 bound_to 10162
  156.4096  130.3931  149.6901 LP  0  0  0  0  0  0  0  0  0  0  0  0  # atno 17370 bound_to 10713
  156.4190  130.7759  151.2775 LP  0  0  0  0  0  0  0  0  0  0  0  0  # atno 17371 bound_to 10713
  140.3369  134.2747  155.7218 LP  0  0  0  0  0  0  0  0  0  0  0  0  # atno 17394 bound_to 11000
  141.2074  133.7807  157.0121 LP  0  0  0  0  0  0  0  0  0  0  0  0  # atno 17395 bound_to 11000

$$$$
