AV-unprocessed.smi:1768|AV-procd|sdf|7144|dock10
  -GOLD-   22720 8383D 1   1.00000     0.00000
 Structure written by MMmdl.
 33 34  0  0  0  0  0  0  0  0  1 V2000
  147.1231  138.9709  152.9634 C   0  0  0  0  0  0  0  0  0  0  0  0
  148.1179  139.7474  153.7564 C   0  0  0  0  0  0  0  0  0  0  0  0
  149.3842  139.3473  153.9248 N   0  0  0  0  0  0  0  0  0  0  0  0
  150.1184  140.2367  154.6965 N   0  0  0  0  0  0  0  0  0  0  0  0
  149.3814  141.2850  155.0884 C   0  0  0  0  0  0  0  0  0  0  0  0
  149.8827  142.3497  155.8823 N   0  0  0  0  0  0  0  0  0  0  0  0
  150.9062  142.3289  156.7538 C   0  0  0  0  0  0  0  0  0  0  0  0
  151.5850  141.3393  157.0294 O   0  0  0  0  0  0  0  0  0  0  0  0
  151.0999  143.5396  157.2963 N   0  0  0  0  0  0  0  0  0  0  0  0
  152.1128  143.8781  158.2940 C   0  0  1  0  0  0  0  0  0  0  0  0
  151.9133  145.3402  158.7226 C   0  0  0  0  0  0  0  0  0  0  0  0
  152.0129  142.8942  159.4761 C   0  0  2  0  0  0  0  0  0  0  0  0
  152.5136  143.4489  160.8113 C   0  0  0  0  0  0  0  0  0  0  0  0
  152.8846  142.1843  161.5504 C   0  0  0  0  0  0  0  0  0  0  0  0
  153.4885  141.3414  160.4327 C   0  0  0  0  0  0  0  0  0  0  0  0
  152.8246  141.7445  159.2380 O   0  0  0  0  0  0  0  0  0  0  0  0
  147.7129  141.2678  154.5435 S   0  0  0  0  0  0  0  0  0  0  0  0
  147.5700  138.0550  152.5750 H   0  0  0  0  0  0  0  0  0  0  0  0
  146.7679  139.5696  152.1247 H   0  0  0  0  0  0  0  0  0  0  0  0
  146.2720  138.7063  153.5907 H   0  0  0  0  0  0  0  0  0  0  0  0
  149.4123  143.2350  155.7658 H   0  0  0  0  0  0  0  0  0  0  0  0
  150.4876  144.2882  157.0077 H   0  0  0  0  0  0  0  0  0  0  0  0
  153.1119  143.7910  157.8634 H   0  0  0  0  0  0  0  0  0  0  0  0
  152.6760  145.6534  159.4356 H   0  0  0  0  0  0  0  0  0  0  0  0
  150.9389  145.4888  159.1891 H   0  0  0  0  0  0  0  0  0  0  0  0
  151.9777  146.0104  157.8648 H   0  0  0  0  0  0  0  0  0  0  0  0
  150.9839  142.5508  159.5967 H   0  0  0  0  0  0  0  0  0  0  0  0
  153.4008  144.0669  160.6646 H   0  0  0  0  0  0  0  0  0  0  0  0
  151.7639  144.0434  161.3342 H   0  0  0  0  0  0  0  0  0  0  0  0
  153.5743  142.3543  162.3776 H   0  0  0  0  0  0  0  0  0  0  0  0
  151.9879  141.7031  161.9434 H   0  0  0  0  0  0  0  0  0  0  0  0
  154.5524  141.5562  160.3256 H   0  0  0  0  0  0  0  0  0  0  0  0
  153.3754  140.2717  160.6105 H   0  0  0  0  0  0  0  0  0  0  0  0
  1  2  1  0  0  0  0
  1 18  1  0  0  0  0
  1 19  1  0  0  0  0
  1 20  1  0  0  0  0
  2 17  1  0  0  0  0
  2  3  2  0  0  0  0
  3  4  1  0  0  0  0
  4  5  2  0  0  0  0
  5  6  1  0  0  0  0
  5 17  1  0  0  0  0
  6  7  1  0  0  0  0
  6 21  1  0  0  0  0
  7  8  2  0  0  0  0
  7  9  1  0  0  0  0
  9 10  1  0  0  0  0
  9 22  1  0  0  0  0
 10 11  1  0  0  0  0
 10 12  1  0  0  0  0
 10 23  1  0  0  0  0
 11 24  1  0  0  0  0
 11 25  1  0  0  0  0
 11 26  1  0  0  0  0
 12 16  1  0  0  0  0
 12 13  1  0  0  0  0
 12 27  1  0  0  0  0
 13 14  1  0  0  0  0
 13 28  1  0  0  0  0
 13 29  1  0  0  0  0
 14 15  1  0  0  0  0
 14 30  1  0  0  0  0
 14 31  1  0  0  0  0
 15 16  1  0  0  0  0
 15 32  1  0  0  0  0
 15 33  1  0  0  0  0
M  END
> <s_m_source_file>
AV-unprocessed.smi

> <i_m_source_file_index>
1768

> <i_lp_mmshare_version>
43012

> <i_f3d_flags>
0

> <s_epik_input>
W0NIM11jMW5uYyhzMSlbTkhdQyg9TylbTkhdW0NASF0oW0NIM10pW0NAQEhdMltDSDJdW0NIMl1bQ0gyXU8y

> <s_epik_cmdline>
J2VwaWtfcHl0aG9uJywgJy1waCcsICc3LjAnLCAnLXRuJywgJzgnLCAnLW1hJywgJzIwMCcsICctbWV0YWxfYmluZGluZycsICctaW1hZScsICc8aW5maWxlLm1hZT4nLCAnLW9tYWUnLCAnPG91dGZpbGUubWFlPic=

> <r_lp_tautomer_probability>
1

> <r_epik_Ionization_Penalty>
0.000523083

> <r_epik_Ionization_Penalty_Charging>
0

> <r_epik_Ionization_Penalty_Neutral>
0.000523083

> <r_epik_State_Penalty>
-0

> <r_epik_Charging_Adjusted_Penalty>
0

> <i_epik_Tot_Q>
0

> <i_epik_Tot_abs_Q>
0

> <r_epik_Metal_State_Penalty>
0.223408

> <b_epik_Metal_Only>
0

> <s_lp_Force_Field>
OPLS_2005

> <r_lp_Energy>
16.97

> <b_lp_Chiralities_Consistent>
1

> <s_lp_Variant>
AV-unprocessed.smi:1768-2

> <Gold.Version>
5.8.1

> <Gold.Id.Protein>
6NUR|6NUR_protein|mol2

> <Gold.PLP.Fitness>
44.5280

> <Gold.PLP.PLP>
-38.1389

> <Gold.PLP.part.hbond>
-3.0000

> <Gold.PLP.part.metal>
0.0000

> <Gold.PLP.part.buried>
-4.4679

> <Gold.PLP.part.nonpolar>
-32.5346

> <Gold.PLP.part.repulsive>
2.0977

> <Gold.PLP.ligand.clash>
0.0000

> <Gold.PLP.ligand.torsion>
0.8505

> <Gold.PLP.Chemscore.Hbond>
2.6933

> <Gold.PLP.Chemscore.CHOScore>
0.0000

> <Gold.PLP.Chemscore.Metal>
0.0000

> <Gold.Chemscore.Hbonds>
donor molecule, donor type, donor heavy atom, donor atom, acceptor molecule, acceptor atom, score
      L1  H     6    21       P1  8028  1.00
      L1  H     9    22       P1  8028  0.69
      P1  H  7989  7998       L1     4  1.00

> <Gold.PLP.Chemscore.Internal.Correction>
0.0104

> <Gold.Rescore>
     Score         DG    S(hbond)    S(metal)    S(lipo)     H(rot)  DE(clash)    DE(int)     intcor
     14.36     -20.43       2.37        0.00      88.43       1.29       1.16       4.91       ----

> <Gold.Chemscore.Fitness>
14.3649

> <Gold.Chemscore.DG>
-20.4324

> <Gold.Chemscore.ZeroCoef>
-5.4800

> <Gold.Chemscore.Hbond>
2.3693

> <Gold.Chemscore.Metal>
0.0000

> <Gold.Chemscore.Lipo>
88.4281

> <Gold.Chemscore.Internal_Hbond>
0.0000

> <Gold.Chemscore.DEClash>
1.1570

> <Gold.Chemscore.DEInternal>
4.9105

> <Gold.Chemscore.Rot>
1.2919

> <Gold.Chemscore.Internal.Correction>
   9.000000E+99

> <Gold.Chemscore.Hbonds>
donor molecule, donor type, donor heavy atom, donor atom, acceptor molecule, acceptor atom, score
      L1  H     6    21       P1  8028  0.97
      L1  H     9    22       P1  8028  0.62
      P1  H  7989  7998       L1     4  0.32

> <Gold.Chemscore.Hbond.Weighted>
-7.9135

> <Gold.Chemscore.Metal.Weighted>
-0.0000

> <Gold.Chemscore.Lipo.Weighted>
-10.3461

> <Gold.Chemscore.Internal_Hbond.Weighted>
0.0000

> <Gold.Chemscore.DEClash.Weighted>
1.1570

> <Gold.Chemscore.DEInternal.Weighted>
4.9105

> <Gold.Chemscore.Rot.Weighted>
3.3072

> <Gold.Chemscore.Internal.Correction.Weighted>
   9.000000E+99

> <Gold.Protein.RotatedTorsions>
[ 6907 6896 6895 6894 ] final -139.57 input  -60.11 | X-H torsion
[ 7974 7965 7964 7962 ] final  -41.50 input  175.53 | X-H torsion
[ 8008 7997 7996 7995 ] final   64.80 input   59.86 | X-H torsion
[ 10167 10162 10161 10158 ] final -177.39 input  -65.29 | X-H torsion
[ 10718 10713 10712 10709 ] final   36.59 input   66.30 | X-H torsion
[ 10763 10752 10751 10750 ] final  -73.20 input  -60.55 | X-H torsion
[ 11005 11000 10999 10996 ] final -108.01 input  -57.11 | X-H torsion

> <Gold.Protein.ActiveResidues>
 VAL166  LYS551  ARG553  GLY616  TRP617  ASP618  TYR619  PRO620  LYS621  CYS622 
 ASP623  PHE694  ASN695  SER759  ASP760  ASP761  ALA762  ILE779  LEU786  VAL792 
 PHE793  MET794  SER795  GLU796  ALA797  LYS798  CYS799  TRP800  GLU811  SER814 

> <Gold.Protein.RotatedAtoms>
  151.0495  133.5636  159.2643 H   0  0  0  0  0  0  0  0  0  0  0  0  # atno 6907 bound_to 6896
  151.2652  135.0666  159.9123 H   0  0  0  0  0  0  0  0  0  0  0  0  # atno 6908 bound_to 6896
  152.5379  134.0234  159.8046 H   0  0  0  0  0  0  0  0  0  0  0  0  # atno 6909 bound_to 6896
  146.0205  140.6856  142.9181 H   0  0  0  0  0  0  0  0  0  0  0  0  # atno 7974 bound_to 7965
  155.6517  140.3497  155.4751 H   0  0  0  0  0  0  0  0  0  0  0  0  # atno 8008 bound_to 7997
  155.9842  140.1180  157.0722 H   0  0  0  0  0  0  0  0  0  0  0  0  # atno 8009 bound_to 7997
  154.4200  140.1132  156.5463 H   0  0  0  0  0  0  0  0  0  0  0  0  # atno 8010 bound_to 7997
  139.5482  144.2178  152.1029 H   0  0  0  0  0  0  0  0  0  0  0  0  # atno 10167 bound_to 10162
  157.3367  130.7526  149.6884 H   0  0  0  0  0  0  0  0  0  0  0  0  # atno 10718 bound_to 10713
  154.4562  135.5905  153.6225 H   0  0  0  0  0  0  0  0  0  0  0  0  # atno 10763 bound_to 10752
  152.9818  135.6033  154.3543 H   0  0  0  0  0  0  0  0  0  0  0  0  # atno 10764 bound_to 10752
  154.3410  135.2841  155.2401 H   0  0  0  0  0  0  0  0  0  0  0  0  # atno 10765 bound_to 10752
  141.0924  133.9031  157.2043 H   0  0  0  0  0  0  0  0  0  0  0  0  # atno 11005 bound_to 11000
  144.6988  140.3557  143.7173 LP  0  0  0  0  0  0  0  0  0  0  0  0  # atno 17320 bound_to 7965
  145.7201  139.1707  143.2489 LP  0  0  0  0  0  0  0  0  0  0  0  0  # atno 17321 bound_to 7965
  140.1668  144.4973  150.6601 LP  0  0  0  0  0  0  0  0  0  0  0  0  # atno 17342 bound_to 10162
  140.6737  143.2296  151.5560 LP  0  0  0  0  0  0  0  0  0  0  0  0  # atno 17343 bound_to 10162
  155.9702  130.4179  150.4303 LP  0  0  0  0  0  0  0  0  0  0  0  0  # atno 17370 bound_to 10713
  157.2344  131.0511  151.2473 LP  0  0  0  0  0  0  0  0  0  0  0  0  # atno 17371 bound_to 10713
  139.9753  135.0116  156.9615 LP  0  0  0  0  0  0  0  0  0  0  0  0  # atno 17394 bound_to 11000
  140.5220  134.0898  155.7294 LP  0  0  0  0  0  0  0  0  0  0  0  0  # atno 17395 bound_to 11000

$$$$
