AV-unprocessed.smi:2730|AV-procd|sdf|10529|dock7
  -GOLD-   2272014573D 1   1.00000     0.00000
 Structure written by MMmdl.
 43 44  0  0  0  0  0  0  0  0  1 V2000
  150.0685  132.3701  153.7200 C   0  0  0  0  0  0  0  0  0  0  0  0
  149.6805  133.8518  153.6101 C   0  0  0  0  0  0  0  0  0  0  0  0
  150.0716  134.6899  154.8414 C   0  0  1  0  0  0  0  0  0  0  0  0
  151.5007  134.3597  155.3043 C   0  0  0  0  0  0  0  0  0  0  0  0
  151.5571  133.3931  156.4129 C   0  0  0  0  0  0  0  0  0  0  0  0
  151.6019  132.6326  157.2836 N   0  0  0  0  0  0  0  0  0  0  0  0
  149.9573  136.1152  154.5311 N   0  0  0  0  0  0  0  0  0  0  0  0
  150.2404  137.1233  155.3699 C   0  0  0  0  0  0  0  0  0  0  0  0
  150.6535  136.9569  156.5177 O   0  0  0  0  0  0  0  0  0  0  0  0
  150.0128  138.3154  154.7913 N   0  0  0  0  0  0  0  0  0  0  0  0
  150.1778  139.6084  155.3531 C   0  0  0  0  0  0  0  0  0  0  0  0
  149.9356  140.7766  154.6826 N   0  0  0  0  0  0  0  0  0  0  0  0
  150.2434  141.6381  155.6426 C   0  0  0  0  0  0  0  0  0  0  0  0
  150.6284  141.0634  156.7871 N   0  0  0  0  0  0  0  0  0  0  0  0
  151.0546  141.6480  158.0493 C   0  0  0  0  0  0  0  0  0  0  0  0
  151.1199  143.1862  157.9599 C   0  0  0  0  0  0  0  0  0  0  0  0
  151.5838  143.8045  159.2890 C   0  0  0  0  0  0  0  0  0  0  0  0
  152.9318  143.2177  159.7377 C   0  0  0  0  0  0  0  0  0  0  0  0
  152.8679  141.6846  159.8310 C   0  0  0  0  0  0  0  0  0  0  0  0
  152.4075  141.0637  158.5017 C   0  0  0  0  0  0  0  0  0  0  0  0
  150.5972  139.7199  156.6120 N   0  0  0  0  0  0  0  0  0  0  0  0
  149.8168  131.8359  152.8037 H   0  0  0  0  0  0  0  0  0  0  0  0
  149.5472  131.8775  154.5410 H   0  0  0  0  0  0  0  0  0  0  0  0
  151.1401  132.2559  153.8862 H   0  0  0  0  0  0  0  0  0  0  0  0
  150.1630  134.2716  152.7269 H   0  0  0  0  0  0  0  0  0  0  0  0
  148.6070  133.9324  153.4343 H   0  0  0  0  0  0  0  0  0  0  0  0
  149.3846  134.4261  155.6476 H   0  0  0  0  0  0  0  0  0  0  0  0
  152.0713  133.9299  154.4806 H   0  0  0  0  0  0  0  0  0  0  0  0
  152.0238  135.2642  155.6160 H   0  0  0  0  0  0  0  0  0  0  0  0
  149.6231  136.3499  153.6078 H   0  0  0  0  0  0  0  0  0  0  0  0
  149.6756  138.2978  153.8403 H   0  0  0  0  0  0  0  0  0  0  0  0
  150.1885  142.7085  155.5087 H   0  0  0  0  0  0  0  0  0  0  0  0
  150.3081  141.3890  158.8027 H   0  0  0  0  0  0  0  0  0  0  0  0
  151.8061  143.4865  157.1668 H   0  0  0  0  0  0  0  0  0  0  0  0
  150.1417  143.5861  157.6905 H   0  0  0  0  0  0  0  0  0  0  0  0
  151.6659  144.8869  159.1868 H   0  0  0  0  0  0  0  0  0  0  0  0
  150.8323  143.6227  160.0583 H   0  0  0  0  0  0  0  0  0  0  0  0
  153.7108  143.5089  159.0319 H   0  0  0  0  0  0  0  0  0  0  0  0
  153.2172  143.6375  160.7028 H   0  0  0  0  0  0  0  0  0  0  0  0
  153.8450  141.2883  160.1081 H   0  0  0  0  0  0  0  0  0  0  0  0
  152.1805  141.3953  160.6269 H   0  0  0  0  0  0  0  0  0  0  0  0
  152.3300  139.9810  158.6093 H   0  0  0  0  0  0  0  0  0  0  0  0
  153.1654  141.2450  157.7384 H   0  0  0  0  0  0  0  0  0  0  0  0
  1  2  1  0  0  0  0
  1 22  1  0  0  0  0
  1 23  1  0  0  0  0
  1 24  1  0  0  0  0
  2  3  1  0  0  0  0
  2 25  1  0  0  0  0
  2 26  1  0  0  0  0
  3  4  1  0  0  0  0
  3  7  1  0  0  0  0
  3 27  1  0  0  0  0
  4  5  1  0  0  0  0
  4 28  1  0  0  0  0
  4 29  1  0  0  0  0
  5  6  3  0  0  0  0
  7  8  1  0  0  0  0
  7 30  1  0  0  0  0
  8  9  2  0  0  0  0
  8 10  1  0  0  0  0
 10 11  1  0  0  0  0
 10 31  1  0  0  0  0
 11 21  2  0  0  0  0
 11 12  1  0  0  0  0
 12 13  2  0  0  0  0
 13 14  1  0  0  0  0
 13 32  1  0  0  0  0
 14 15  1  0  0  0  0
 14 21  1  0  0  0  0
 15 20  1  0  0  0  0
 15 16  1  0  0  0  0
 15 33  1  0  0  0  0
 16 17  1  0  0  0  0
 16 34  1  0  0  0  0
 16 35  1  0  0  0  0
 17 18  1  0  0  0  0
 17 36  1  0  0  0  0
 17 37  1  0  0  0  0
 18 19  1  0  0  0  0
 18 38  1  0  0  0  0
 18 39  1  0  0  0  0
 19 20  1  0  0  0  0
 19 40  1  0  0  0  0
 19 41  1  0  0  0  0
 20 42  1  0  0  0  0
 20 43  1  0  0  0  0
M  END
> <s_m_source_file>
AV-unprocessed.smi

> <i_m_source_file_index>
2730

> <i_lp_mmshare_version>
43012

> <i_f3d_flags>
0

> <s_epik_input>
TiNDW0NIMl1bQ0BASF0oW0NIMl1bQ0gzXSlbTkhdQyg9TylbTkhdYzFuW2NIXW4objEpW0NIXTJbQ0gyXVtDSDJdW0NIMl1bQ0gyXVtDSDJdMg==

> <s_epik_cmdline>
J2VwaWtfcHl0aG9uJywgJy1waCcsICc3LjAnLCAnLXRuJywgJzgnLCAnLW1hJywgJzIwMCcsICctbWV0YWxfYmluZGluZycsICctaW1hZScsICc8aW5maWxlLm1hZT4nLCAnLW9tYWUnLCAnPG91dGZpbGUubWFlPic=

> <r_lp_tautomer_probability>
1

> <r_epik_Ionization_Penalty>
7.18854e-05

> <r_epik_Ionization_Penalty_Charging>
0

> <r_epik_Ionization_Penalty_Neutral>
7.18854e-05

> <r_epik_State_Penalty>
-0

> <r_epik_Charging_Adjusted_Penalty>
0

> <i_epik_Tot_Q>
0

> <i_epik_Tot_abs_Q>
0

> <r_epik_Metal_State_Penalty>
-0

> <b_epik_Metal_Only>
0

> <s_lp_Force_Field>
OPLS_2005

> <r_lp_Energy>
17.9717

> <b_lp_Chiralities_Consistent>
1

> <s_lp_Variant>
AV-unprocessed.smi:2730-2

> <Gold.Version>
5.8.1

> <Gold.Id.Protein>
6NUR|6NUR_protein|mol2

> <Gold.PLP.Fitness>
46.8902

> <Gold.PLP.PLP>
-37.2303

> <Gold.PLP.part.hbond>
-3.0000

> <Gold.PLP.part.metal>
0.0000

> <Gold.PLP.part.buried>
-3.4326

> <Gold.PLP.part.nonpolar>
-30.6027

> <Gold.PLP.part.repulsive>
0.1673

> <Gold.PLP.ligand.clash>
0.0000

> <Gold.PLP.ligand.torsion>
0.7327

> <Gold.PLP.Chemscore.Hbond>
2.7144

> <Gold.PLP.Chemscore.CHOScore>
0.9661

> <Gold.PLP.Chemscore.Metal>
0.0000

> <Gold.Chemscore.Hbonds>
donor molecule, donor type, donor heavy atom, donor atom, acceptor molecule, acceptor atom, score
      L1  H     7    30       P1  7948  1.00
      P1  H  6896  6907       L1     6  0.73
      P1  H  7989  7998       L1    12  0.70
      L1  C    13    32       P1  8028  1.00

> <Gold.PLP.Chemscore.Internal.Correction>
0.0838

> <Gold.Rescore>
     Score         DG    S(hbond)    S(metal)    S(lipo)     H(rot)  DE(clash)    DE(int)     intcor
     13.42     -16.46       2.06        0.00      75.03       1.82       0.13       2.91       ----

> <Gold.Chemscore.Fitness>
13.4226

> <Gold.Chemscore.DG>
-16.4590

> <Gold.Chemscore.ZeroCoef>
-5.4800

> <Gold.Chemscore.Hbond>
2.0574

> <Gold.Chemscore.Metal>
0.0000

> <Gold.Chemscore.Lipo>
75.0348

> <Gold.Chemscore.Internal_Hbond>
0.0000

> <Gold.Chemscore.DEClash>
0.1266

> <Gold.Chemscore.DEInternal>
2.9098

> <Gold.Chemscore.Rot>
1.8249

> <Gold.Chemscore.Internal.Correction>
   9.000000E+99

> <Gold.Chemscore.Hbonds>
donor molecule, donor type, donor heavy atom, donor atom, acceptor molecule, acceptor atom, score
      L1  H     7    30       P1  7948  0.50
      P1  H  6896  6907       L1     6  0.64
      P1  H  7989  7998       L1    12  0.06

> <Gold.Chemscore.Hbond.Weighted>
-6.8717

> <Gold.Chemscore.Metal.Weighted>
-0.0000

> <Gold.Chemscore.Lipo.Weighted>
-8.7791

> <Gold.Chemscore.Internal_Hbond.Weighted>
0.0000

> <Gold.Chemscore.DEClash.Weighted>
0.1266

> <Gold.Chemscore.DEInternal.Weighted>
2.9098

> <Gold.Chemscore.Rot.Weighted>
4.6718

> <Gold.Chemscore.Internal.Correction.Weighted>
   9.000000E+99

> <Gold.Protein.RotatedTorsions>
[ 6907 6896 6895 6894 ] final -151.81 input  -60.11 | X-H torsion
[ 7974 7965 7964 7962 ] final  166.86 input  175.53 | X-H torsion
[ 8008 7997 7996 7995 ] final -142.50 input   59.86 | X-H torsion
[ 10167 10162 10161 10158 ] final -103.14 input  -65.29 | X-H torsion
[ 10718 10713 10712 10709 ] final  173.74 input   66.30 | X-H torsion
[ 10763 10752 10751 10750 ] final  -20.84 input  -60.55 | X-H torsion
[ 11005 11000 10999 10996 ] final -101.71 input  -57.11 | X-H torsion

> <Gold.Protein.ActiveResidues>
 VAL166  LYS551  ARG553  GLY616  TRP617  ASP618  TYR619  PRO620  LYS621  CYS622 
 ASP623  PHE694  ASN695  SER759  ASP760  ASP761  ALA762  ILE779  LEU786  VAL792 
 PHE793  MET794  SER795  GLU796  ALA797  LYS798  CYS799  TRP800  GLU811  SER814 

> <Gold.Protein.RotatedAtoms>
  151.2185  133.4516  159.2599 H   0  0  0  0  0  0  0  0  0  0  0  0  # atno 6907 bound_to 6896
  151.0908  134.9915  159.8412 H   0  0  0  0  0  0  0  0  0  0  0  0  # atno 6908 bound_to 6896
  152.5434  134.2118  159.8806 H   0  0  0  0  0  0  0  0  0  0  0  0  # atno 6909 bound_to 6896
  144.7446  139.8677  143.6386 H   0  0  0  0  0  0  0  0  0  0  0  0  # atno 7974 bound_to 7965
  155.4952  140.0571  157.2947 H   0  0  0  0  0  0  0  0  0  0  0  0  # atno 8008 bound_to 7997
  154.4608  140.1995  156.0201 H   0  0  0  0  0  0  0  0  0  0  0  0  # atno 8009 bound_to 7997
  156.0886  140.3237  155.7790 H   0  0  0  0  0  0  0  0  0  0  0  0  # atno 8010 bound_to 7997
  140.2232  143.3661  152.0952 H   0  0  0  0  0  0  0  0  0  0  0  0  # atno 10167 bound_to 10162
  156.9599  131.0057  151.2930 H   0  0  0  0  0  0  0  0  0  0  0  0  # atno 10718 bound_to 10713
  153.6267  135.6990  153.5290 H   0  0  0  0  0  0  0  0  0  0  0  0  # atno 10763 bound_to 10752
  153.2893  135.4162  155.1151 H   0  0  0  0  0  0  0  0  0  0  0  0  # atno 10764 bound_to 10752
  154.8531  135.3621  154.5809 H   0  0  0  0  0  0  0  0  0  0  0  0  # atno 10765 bound_to 10752
  141.1219  133.8500  157.1267 H   0  0  0  0  0  0  0  0  0  0  0  0  # atno 11005 bound_to 11000
  146.1303  139.4337  143.0173 LP  0  0  0  0  0  0  0  0  0  0  0  0  # atno 17320 bound_to 7965
  145.7173  141.0086  143.1421 LP  0  0  0  0  0  0  0  0  0  0  0  0  # atno 17321 bound_to 7965
  139.5137  144.6936  151.5692 LP  0  0  0  0  0  0  0  0  0  0  0  0  # atno 17342 bound_to 10162
  140.6240  143.9204  150.6549 LP  0  0  0  0  0  0  0  0  0  0  0  0  # atno 17343 bound_to 10162
  157.5665  130.8281  149.8334 LP  0  0  0  0  0  0  0  0  0  0  0  0  # atno 17370 bound_to 10713
  156.0327  130.3760  150.1644 LP  0  0  0  0  0  0  0  0  0  0  0  0  # atno 17371 bound_to 10713
  140.0184  134.9957  157.0541 LP  0  0  0  0  0  0  0  0  0  0  0  0  # atno 17394 bound_to 11000
  140.4481  134.1611  155.7179 LP  0  0  0  0  0  0  0  0  0  0  0  0  # atno 17395 bound_to 11000

$$$$
