AV-unprocessed.smi:3284|AV-procd|sdf|12575|dock5
  -GOLD-   2272018493D 1   1.00000     0.00000
 Structure written by MMmdl.
 44 45  0  0  0  0  0  0  0  0  2 V2000
  154.2868  140.1780  160.4259 C   0  0  0  0  0  0  0  0  0  0  0  0
  153.5347  141.4604  160.7381 C   0  0  0  0  0  0  0  0  0  0  0  0
  153.3417  141.8675  162.0081 C   0  0  0  0  0  0  0  0  0  0  0  0
  152.6408  143.1538  162.4062 C   0  0  0  0  0  0  0  0  0  0  0  0
  151.9807  143.8715  161.2178 C   0  0  0  0  0  0  0  0  0  0  0  0
  152.8370  143.7604  159.9433 C   0  0  2  0  0  0  0  0  0  0  0  0
  152.3189  144.6801  158.8249 C   0  0  0  0  0  0  0  0  0  0  0  0
  153.0527  142.2716  159.5329 C   0  0  2  0  0  0  0  0  0  0  0  0
  151.8156  141.5868  158.8968 C   0  0  0  0  0  0  0  0  0  0  0  0
  151.6095  141.9883  157.4915 N   0  3  0  0  0  0  0  0  0  0  0  0
  150.1931  142.1592  157.1098 C   0  0  0  0  0  0  0  0  0  0  0  0
  150.0412  142.4096  155.6017 C   0  0  0  0  0  0  0  0  0  0  0  0
  150.6082  141.3048  154.7611 C   0  0  0  0  0  0  0  0  0  0  0  0
  151.8681  140.8879  154.8464 N   0  0  0  0  0  0  0  0  0  0  0  0
  151.9623  139.8501  153.9252 C   0  0  0  0  0  0  0  0  0  0  0  0
  150.7435  139.6694  153.3172 C   0  0  0  0  0  0  0  0  0  0  0  0
  149.8805  140.6080  153.8671 N   0  0  0  0  0  0  0  0  0  0  0  0
  148.4812  140.7791  153.5273 C   0  0  0  0  0  0  0  0  0  0  0  0
  155.1545  140.3918  159.8014 H   0  0  0  0  0  0  0  0  0  0  0  0
  153.6541  139.4636  159.9007 H   0  0  0  0  0  0  0  0  0  0  0  0
  154.6433  139.6965  161.3373 H   0  0  0  0  0  0  0  0  0  0  0  0
  153.7235  141.2714  162.8242 H   0  0  0  0  0  0  0  0  0  0  0  0
  151.8980  142.9402  163.1753 H   0  0  0  0  0  0  0  0  0  0  0  0
  153.3870  143.8055  162.8614 H   0  0  0  0  0  0  0  0  0  0  0  0
  150.9919  143.4497  161.0383 H   0  0  0  0  0  0  0  0  0  0  0  0
  151.8164  144.9179  161.4781 H   0  0  0  0  0  0  0  0  0  0  0  0
  153.8236  144.1501  160.2002 H   0  0  0  0  0  0  0  0  0  0  0  0
  151.2775  144.4729  158.5787 H   0  0  0  0  0  0  0  0  0  0  0  0
  152.9148  144.5748  157.9179 H   0  0  0  0  0  0  0  0  0  0  0  0
  152.3732  145.7258  159.1293 H   0  0  0  0  0  0  0  0  0  0  0  0
  153.8645  142.2495  158.8038 H   0  0  0  0  0  0  0  0  0  0  0  0
  151.9324  140.5037  158.8993 H   0  0  0  0  0  0  0  0  0  0  0  0
  150.9173  141.7975  159.4769 H   0  0  0  0  0  0  0  0  0  0  0  0
  152.0887  142.8638  157.3371 H   0  0  0  0  0  0  0  0  0  0  0  0
  149.6259  141.2740  157.4010 H   0  0  0  0  0  0  0  0  0  0  0  0
  149.7786  143.0027  157.6633 H   0  0  0  0  0  0  0  0  0  0  0  0
  148.9888  142.5510  155.3556 H   0  0  0  0  0  0  0  0  0  0  0  0
  150.5375  143.3422  155.3296 H   0  0  0  0  0  0  0  0  0  0  0  0
  152.8898  139.3175  153.7739 H   0  0  0  0  0  0  0  0  0  0  0  0
  150.4277  138.9672  152.5594 H   0  0  0  0  0  0  0  0  0  0  0  0
  148.1706  140.0145  152.8146 H   0  0  0  0  0  0  0  0  0  0  0  0
  148.3280  141.7607  153.0779 H   0  0  0  0  0  0  0  0  0  0  0  0
  147.8683  140.6934  154.4251 H   0  0  0  0  0  0  0  0  0  0  0  0
  152.0224  141.2877  156.8916 H   0  0  0  0  0  0  0  0  0  0  0  0
  1  2  1  0  0  0  0
  1 19  1  0  0  0  0
  1 20  1  0  0  0  0
  1 21  1  0  0  0  0
  2  8  1  0  0  0  0
  2  3  2  0  0  0  0
  3  4  1  0  0  0  0
  3 22  1  0  0  0  0
  4  5  1  0  0  0  0
  4 23  1  0  0  0  0
  4 24  1  0  0  0  0
  5  6  1  0  0  0  0
  5 25  1  0  0  0  0
  5 26  1  0  0  0  0
  6  7  1  0  0  0  0
  6  8  1  0  0  0  0
  6 27  1  0  0  0  0
  7 28  1  0  0  0  0
  7 29  1  0  0  0  0
  7 30  1  0  0  0  0
  8  9  1  0  0  0  0
  8 31  1  0  0  0  0
  9 10  1  0  0  0  0
  9 32  1  0  0  0  0
  9 33  1  0  0  0  0
 10 11  1  0  0  0  0
 10 34  1  0  0  0  0
 10 44  1  0  0  0  0
 11 12  1  0  0  0  0
 11 35  1  0  0  0  0
 11 36  1  0  0  0  0
 12 13  1  0  0  0  0
 12 37  1  0  0  0  0
 12 38  1  0  0  0  0
 13 17  1  0  0  0  0
 13 14  2  0  0  0  0
 14 15  1  0  0  0  0
 15 16  2  0  0  0  0
 15 39  1  0  0  0  0
 16 17  1  0  0  0  0
 16 40  1  0  0  0  0
 17 18  1  0  0  0  0
 18 41  1  0  0  0  0
 18 42  1  0  0  0  0
 18 43  1  0  0  0  0
M  CHG  1  10   1
M  END
> <s_m_source_file>
AV-unprocessed.smi

> <i_m_source_file_index>
3284

> <i_lp_mmshare_version>
43012

> <i_f3d_flags>
0

> <s_epik_input>
W0NIM11DMT1bQ0hdW0NIMl1bQ0gyXVtDQEBIXShbQ0gzXSlbQ0BIXTFbQ0gyXVtOSF1bQ0gyXVtDSDJdYzJuW2NIXVtjSF1uMltDSDNd

> <s_epik_cmdline>
J2VwaWtfcHl0aG9uJywgJy1waCcsICc3LjAnLCAnLXRuJywgJzgnLCAnLW1hJywgJzIwMCcsICctbWV0YWxfYmluZGluZycsICctaW1hZScsICc8aW5maWxlLm1hZT4nLCAnLW9tYWUnLCAnPG91dGZpbGUubWFlPic=

> <r_lp_tautomer_probability>
1

> <r_epik_Ionization_Penalty>
0.150779

> <r_epik_Ionization_Penalty_Charging>
0.150779

> <r_epik_Ionization_Penalty_Neutral>
1.39452e-13

> <r_epik_State_Penalty>
0.349447

> <r_epik_Charging_Adjusted_Penalty>
0.500226

> <i_epik_Tot_Q>
1

> <i_epik_Tot_abs_Q>
1

> <r_epik_Metal_State_Penalty>
0.000470967

> <b_epik_Metal_Only>
0

> <s_lp_Force_Field>
OPLS_2005

> <r_lp_Energy>
16.0755

> <b_lp_Chiralities_Consistent>
1

> <s_lp_Variant>
AV-unprocessed.smi:3284-4

> <Gold.Version>
5.8.1

> <Gold.Id.Protein>
6NUR|6NUR_protein|mol2

> <Gold.PLP.Fitness>
54.2379

> <Gold.PLP.PLP>
-51.6887

> <Gold.PLP.part.hbond>
-1.0000

> <Gold.PLP.part.metal>
0.0000

> <Gold.PLP.part.buried>
-4.0937

> <Gold.PLP.part.nonpolar>
-46.2357

> <Gold.PLP.part.repulsive>
0.0799

> <Gold.PLP.ligand.clash>
0.0000

> <Gold.PLP.ligand.torsion>
0.4636

> <Gold.PLP.Chemscore.Hbond>
0.0000

> <Gold.PLP.Chemscore.CHOScore>
1.1179

> <Gold.PLP.Chemscore.Metal>
0.0000

> <Gold.Chemscore.Hbonds>
donor molecule, donor type, donor heavy atom, donor atom, acceptor molecule, acceptor atom, score
      L1  C    16    40       P1  7957  0.37

> <Gold.PLP.Chemscore.Internal.Correction>
0.1227

> <Gold.Rescore>
     Score         DG    S(hbond)    S(metal)    S(lipo)     H(rot)  DE(clash)    DE(int)     intcor
     14.85     -17.20       0.00        0.00     135.39       1.61       0.07       2.28       ----

> <Gold.Chemscore.Fitness>
14.8458

> <Gold.Chemscore.DG>
-17.1976

> <Gold.Chemscore.ZeroCoef>
-5.4800

> <Gold.Chemscore.Hbond>
0.0000

> <Gold.Chemscore.Metal>
0.0000

> <Gold.Chemscore.Lipo>
135.3902

> <Gold.Chemscore.Internal_Hbond>
0.0000

> <Gold.Chemscore.DEClash>
0.0726

> <Gold.Chemscore.DEInternal>
2.2793

> <Gold.Chemscore.Rot>
1.6105

> <Gold.Chemscore.Internal.Correction>
   9.000000E+99

> <Gold.Chemscore.Hbond.Weighted>
-0.0000

> <Gold.Chemscore.Metal.Weighted>
-0.0000

> <Gold.Chemscore.Lipo.Weighted>
-15.8406

> <Gold.Chemscore.Internal_Hbond.Weighted>
0.0000

> <Gold.Chemscore.DEClash.Weighted>
0.0726

> <Gold.Chemscore.DEInternal.Weighted>
2.2793

> <Gold.Chemscore.Rot.Weighted>
4.1230

> <Gold.Chemscore.Internal.Correction.Weighted>
   9.000000E+99

> <Gold.Protein.RotatedTorsions>
[ 6907 6896 6895 6894 ] final   30.56 input  -60.11 | X-H torsion
[ 7974 7965 7964 7962 ] final -101.11 input  175.53 | X-H torsion
[ 8008 7997 7996 7995 ] final  -42.71 input   59.86 | X-H torsion
[ 10167 10162 10161 10158 ] final  162.62 input  -65.29 | X-H torsion
[ 10718 10713 10712 10709 ] final  -18.84 input   66.30 | X-H torsion
[ 10763 10752 10751 10750 ] final   71.02 input  -60.55 | X-H torsion
[ 11005 11000 10999 10996 ] final  -63.94 input  -57.11 | X-H torsion

> <Gold.Protein.ActiveResidues>
 VAL166  LYS551  ARG553  GLY616  TRP617  ASP618  TYR619  PRO620  LYS621  CYS622 
 ASP623  PHE694  ASN695  SER759  ASP760  ASP761  ALA762  ILE779  LEU786  VAL792 
 PHE793  MET794  SER795  GLU796  ALA797  LYS798  CYS799  TRP800  GLU811  SER814 

> <Gold.Protein.RotatedAtoms>
  152.0478  134.9672  160.0574 H   0  0  0  0  0  0  0  0  0  0  0  0  # atno 6907 bound_to 6896
  152.1085  133.4283  159.4628 H   0  0  0  0  0  0  0  0  0  0  0  0  # atno 6908 bound_to 6896
  150.6842  134.2595  159.4587 H   0  0  0  0  0  0  0  0  0  0  0  0  # atno 6909 bound_to 6896
  145.2859  140.9339  143.2905 H   0  0  0  0  0  0  0  0  0  0  0  0  # atno 7974 bound_to 7965
  154.3998  140.1466  156.3400 H   0  0  0  0  0  0  0  0  0  0  0  0  # atno 8008 bound_to 7997
  155.8365  140.3463  155.5584 H   0  0  0  0  0  0  0  0  0  0  0  0  # atno 8009 bound_to 7997
  155.8132  140.0887  157.1882 H   0  0  0  0  0  0  0  0  0  0  0  0  # atno 8010 bound_to 7997
  139.4863  144.4419  151.8941 H   0  0  0  0  0  0  0  0  0  0  0  0  # atno 10167 bound_to 10162
  156.5539  130.4708  149.6439 H   0  0  0  0  0  0  0  0  0  0  0  0  # atno 10718 bound_to 10713
  153.0375  135.5152  154.7530 H   0  0  0  0  0  0  0  0  0  0  0  0  # atno 10763 bound_to 10752
  154.6495  135.2923  155.0007 H   0  0  0  0  0  0  0  0  0  0  0  0  # atno 10764 bound_to 10752
  154.0896  135.6652  153.4903 H   0  0  0  0  0  0  0  0  0  0  0  0  # atno 10765 bound_to 10752
  141.1409  133.6658  156.5757 H   0  0  0  0  0  0  0  0  0  0  0  0  # atno 11005 bound_to 11000
  144.9214  139.4407  143.6539 LP  0  0  0  0  0  0  0  0  0  0  0  0  # atno 17320 bound_to 7965
  146.3201  139.8076  142.8952 LP  0  0  0  0  0  0  0  0  0  0  0  0  # atno 17321 bound_to 7965
  140.3871  144.2662  150.5903 LP  0  0  0  0  0  0  0  0  0  0  0  0  # atno 17342 bound_to 10162
  140.5180  143.2273  151.8433 LP  0  0  0  0  0  0  0  0  0  0  0  0  # atno 17343 bound_to 10162
  156.2860  130.7097  151.1934 LP  0  0  0  0  0  0  0  0  0  0  0  0  # atno 17370 bound_to 10713
  157.7382  131.0543  150.5309 LP  0  0  0  0  0  0  0  0  0  0  0  0  # atno 17371 bound_to 10713
  140.3878  134.7467  157.4702 LP  0  0  0  0  0  0  0  0  0  0  0  0  # atno 17394 bound_to 11000
  140.0589  134.6024  155.8772 LP  0  0  0  0  0  0  0  0  0  0  0  0  # atno 17395 bound_to 11000

$$$$
