AV-unprocessed.smi:1671|AV-procd|sdf|6698|dock2
  -GOLD-   22720 7433D 1   1.00000     0.00000
 Structure written by MMmdl.
 44 45  0  0  0  0  0  0  0  0  1 V2000
  148.0881  136.7483  157.3619 C   0  0  0  0  0  0  0  0  0  0  0  0
  147.6729  135.8516  155.8412 S   0  0  0  0  0  0  0  0  0  0  0  0
  149.2251  134.9571  155.5333 C   0  0  1  0  0  0  0  0  0  0  0  0
  149.0774  134.0424  154.3072 C   0  0  0  0  0  0  0  0  0  0  0  0
  150.4134  135.9126  155.3696 C   0  0  0  0  0  0  0  0  0  0  0  0
  151.3744  135.8483  156.1369 O   0  0  0  0  0  0  0  0  0  0  0  0
  150.3376  136.7951  154.3610 N   0  0  0  0  0  0  0  0  0  0  0  0
  151.3584  137.7876  154.0406 C   0  0  0  0  0  0  0  0  0  0  0  0
  151.4850  138.9131  155.0582 C   0  0  0  0  0  0  0  0  0  0  0  0
  150.5611  139.9774  155.1217 C   0  0  0  0  0  0  0  0  0  0  0  0
  150.7435  140.9848  156.0878 C   0  0  0  0  0  0  0  0  0  0  0  0
  151.8491  140.9066  156.9679 C   0  0  0  0  0  0  0  0  0  0  0  0
  152.0476  141.9029  157.9488 N   0  0  0  0  0  0  0  0  0  0  0  0
  151.2366  143.1083  157.7985 C   0  0  0  0  0  0  0  0  0  0  0  0
  151.7568  144.2211  158.7236 C   0  0  0  0  0  0  0  0  0  0  0  0
  151.8052  143.7488  160.0659 O   0  0  0  0  0  0  0  0  0  0  0  0
  152.6900  142.6420  160.2140 C   0  0  1  0  0  0  0  0  0  0  0  0
  152.7454  142.2648  161.6981 C   0  0  0  0  0  0  0  0  0  0  0  0
  152.1919  141.4757  159.3394 C   0  0  0  0  0  0  0  0  0  0  0  0
  152.7435  139.8903  156.8927 N   0  0  0  0  0  0  0  0  0  0  0  0
  152.5626  138.9258  155.9663 C   0  0  0  0  0  0  0  0  0  0  0  0
  147.2232  137.3127  157.7100 H   0  0  0  0  0  0  0  0  0  0  0  0
  148.9051  137.4482  157.1877 H   0  0  0  0  0  0  0  0  0  0  0  0
  148.3846  136.0525  158.1467 H   0  0  0  0  0  0  0  0  0  0  0  0
  149.4065  134.3175  156.3985 H   0  0  0  0  0  0  0  0  0  0  0  0
  150.0038  133.5061  154.0978 H   0  0  0  0  0  0  0  0  0  0  0  0
  148.8088  134.6077  153.4138 H   0  0  0  0  0  0  0  0  0  0  0  0
  148.2989  133.2970  154.4710 H   0  0  0  0  0  0  0  0  0  0  0  0
  149.5156  136.7783  153.7746 H   0  0  0  0  0  0  0  0  0  0  0  0
  152.3231  137.2923  153.9169 H   0  0  0  0  0  0  0  0  0  0  0  0
  151.1131  138.2275  153.0740 H   0  0  0  0  0  0  0  0  0  0  0  0
  149.7233  140.0307  154.4420 H   0  0  0  0  0  0  0  0  0  0  0  0
  150.0454  141.8074  156.1325 H   0  0  0  0  0  0  0  0  0  0  0  0
  151.2369  143.4728  156.7722 H   0  0  0  0  0  0  0  0  0  0  0  0
  150.2024  142.8686  158.0495 H   0  0  0  0  0  0  0  0  0  0  0  0
  152.7456  144.5584  158.4086 H   0  0  0  0  0  0  0  0  0  0  0  0
  151.0959  145.0867  158.6765 H   0  0  0  0  0  0  0  0  0  0  0  0
  153.6906  142.9388  159.8944 H   0  0  0  0  0  0  0  0  0  0  0  0
  153.4187  141.4235  161.8643 H   0  0  0  0  0  0  0  0  0  0  0  0
  151.7602  141.9836  162.0710 H   0  0  0  0  0  0  0  0  0  0  0  0
  153.1032  143.1008  162.2995 H   0  0  0  0  0  0  0  0  0  0  0  0
  151.2300  141.1139  159.7058 H   0  0  0  0  0  0  0  0  0  0  0  0
  152.8989  140.6477  159.4059 H   0  0  0  0  0  0  0  0  0  0  0  0
  153.3028  138.1393  155.9514 H   0  0  0  0  0  0  0  0  0  0  0  0
  1  2  1  0  0  0  0
  1 22  1  0  0  0  0
  1 23  1  0  0  0  0
  1 24  1  0  0  0  0
  2  3  1  0  0  0  0
  3  4  1  0  0  0  0
  3  5  1  0  0  0  0
  3 25  1  0  0  0  0
  4 26  1  0  0  0  0
  4 27  1  0  0  0  0
  4 28  1  0  0  0  0
  5  6  2  0  0  0  0
  5  7  1  0  0  0  0
  7  8  1  0  0  0  0
  7 29  1  0  0  0  0
  8  9  1  0  0  0  0
  8 30  1  0  0  0  0
  8 31  1  0  0  0  0
  9 21  1  0  0  0  0
  9 10  2  0  0  0  0
 10 11  1  0  0  0  0
 10 32  1  0  0  0  0
 11 12  2  0  0  0  0
 11 33  1  0  0  0  0
 12 13  1  0  0  0  0
 12 20  1  0  0  0  0
 13 19  1  0  0  0  0
 13 14  1  0  0  0  0
 14 15  1  0  0  0  0
 14 34  1  0  0  0  0
 14 35  1  0  0  0  0
 15 16  1  0  0  0  0
 15 36  1  0  0  0  0
 15 37  1  0  0  0  0
 16 17  1  0  0  0  0
 17 18  1  0  0  0  0
 17 19  1  0  0  0  0
 17 38  1  0  0  0  0
 18 39  1  0  0  0  0
 18 40  1  0  0  0  0
 18 41  1  0  0  0  0
 19 42  1  0  0  0  0
 19 43  1  0  0  0  0
 20 21  2  0  0  0  0
 21 44  1  0  0  0  0
M  END
> <s_m_source_file>
AV-unprocessed.smi

> <i_m_source_file_index>
1671

> <i_lp_mmshare_version>
43012

> <i_f3d_flags>
0

> <s_epik_input>
W0NIM11TW0NASF0oW0NIM10pQyg9TylbTkhdW0NIMl1jMVtjSF1bY0hdYyhuW2NIXTEpTjJbQ0gyXVtDSDJdT1tDQEBIXShbQ0gzXSlbQ0gyXTI=

> <s_epik_cmdline>
J2VwaWtfcHl0aG9uJywgJy1waCcsICc3LjAnLCAnLXRuJywgJzgnLCAnLW1hJywgJzIwMCcsICctbWV0YWxfYmluZGluZycsICctaW1hZScsICc8aW5maWxlLm1hZT4nLCAnLW9tYWUnLCAnPG91dGZpbGUubWFlPic=

> <r_lp_tautomer_probability>
1

> <r_epik_Ionization_Penalty>
0.00480033

> <r_epik_Ionization_Penalty_Charging>
0

> <r_epik_Ionization_Penalty_Neutral>
0.00480033

> <r_epik_State_Penalty>
0.00347981

> <r_epik_Charging_Adjusted_Penalty>
0.00347981

> <i_epik_Tot_Q>
0

> <i_epik_Tot_abs_Q>
0

> <r_epik_Metal_State_Penalty>
-0

> <b_epik_Metal_Only>
0

> <s_lp_Force_Field>
OPLS_2005

> <r_lp_Energy>
15.4739

> <b_lp_Chiralities_Consistent>
1

> <s_lp_Variant>
AV-unprocessed.smi:1671-2

> <Gold.Version>
5.8.1

> <Gold.Id.Protein>
6NUR|6NUR_protein|mol2

> <Gold.PLP.Fitness>
47.6876

> <Gold.PLP.PLP>
-40.1526

> <Gold.PLP.part.hbond>
-3.8501

> <Gold.PLP.part.metal>
0.0000

> <Gold.PLP.part.buried>
-0.2583

> <Gold.PLP.part.nonpolar>
-34.5512

> <Gold.PLP.part.repulsive>
0.1324

> <Gold.PLP.ligand.clash>
0.0000

> <Gold.PLP.ligand.torsion>
0.4501

> <Gold.PLP.Chemscore.Hbond>
2.6890

> <Gold.PLP.Chemscore.CHOScore>
0.0000

> <Gold.PLP.Chemscore.Metal>
0.0000

> <Gold.Chemscore.Hbonds>
donor molecule, donor type, donor heavy atom, donor atom, acceptor molecule, acceptor atom, score
      L1  H     7    29       P1  7948  0.75
      P1  H  7997  8009       L1    20  0.95
      P1  H 10752 10764       L1     6  0.78

> <Gold.PLP.Chemscore.Internal.Correction>
0.3682

> <Gold.Rescore>
     Score         DG    S(hbond)    S(metal)    S(lipo)     H(rot)  DE(clash)    DE(int)     intcor
     19.50     -20.32       2.13        0.00     101.55       1.63       0.36       0.46       ----

> <Gold.Chemscore.Fitness>
19.4979

> <Gold.Chemscore.DG>
-20.3192

> <Gold.Chemscore.ZeroCoef>
-5.4800

> <Gold.Chemscore.Hbond>
2.1327

> <Gold.Chemscore.Metal>
0.0000

> <Gold.Chemscore.Lipo>
101.5530

> <Gold.Chemscore.Internal_Hbond>
0.0000

> <Gold.Chemscore.DEClash>
0.3570

> <Gold.Chemscore.DEInternal>
0.4643

> <Gold.Chemscore.Rot>
1.6272

> <Gold.Chemscore.Internal.Correction>
   9.000000E+99

> <Gold.Chemscore.Hbonds>
donor molecule, donor type, donor heavy atom, donor atom, acceptor molecule, acceptor atom, score
      L1  H     7    29       P1  7948  0.59
      P1  H  7997  8009       L1    20  0.21
      P1  H 10752 10764       L1     6  0.27

> <Gold.Chemscore.Hbond.Weighted>
-7.1233

> <Gold.Chemscore.Metal.Weighted>
-0.0000

> <Gold.Chemscore.Lipo.Weighted>
-11.8817

> <Gold.Chemscore.Internal_Hbond.Weighted>
0.0000

> <Gold.Chemscore.DEClash.Weighted>
0.3570

> <Gold.Chemscore.DEInternal.Weighted>
0.4643

> <Gold.Chemscore.Rot.Weighted>
4.1657

> <Gold.Chemscore.Internal.Correction.Weighted>
   9.000000E+99

> <Gold.Protein.RotatedTorsions>
[ 6907 6896 6895 6894 ] final  169.14 input  -60.11 | X-H torsion
[ 7974 7965 7964 7962 ] final -140.31 input  175.53 | X-H torsion
[ 8008 7997 7996 7995 ] final  170.96 input   59.86 | X-H torsion
[ 10167 10162 10161 10158 ] final  -70.22 input  -65.29 | X-H torsion
[ 10718 10713 10712 10709 ] final   58.09 input   66.30 | X-H torsion
[ 10763 10752 10751 10750 ] final  -47.94 input  -60.55 | X-H torsion
[ 11005 11000 10999 10996 ] final   72.06 input  -57.11 | X-H torsion

> <Gold.Protein.ActiveResidues>
 VAL166  LYS551  ARG553  GLY616  TRP617  ASP618  TYR619  PRO620  LYS621  CYS622 
 ASP623  PHE694  ASN695  SER759  ASP760  ASP761  ALA762  ILE779  LEU786  VAL792 
 PHE793  MET794  SER795  GLU796  ALA797  LYS798  CYS799  TRP800  GLU811  SER814 

> <Gold.Protein.RotatedAtoms>
  151.8366  133.3417  159.3629 H   0  0  0  0  0  0  0  0  0  0  0  0  # atno 6907 bound_to 6896
  150.7248  134.5432  159.5767 H   0  0  0  0  0  0  0  0  0  0  0  0  # atno 6908 bound_to 6896
  152.2896  134.7737  160.0431 H   0  0  0  0  0  0  0  0  0  0  0  0  # atno 6909 bound_to 6896
  144.8607  140.6215  143.5330 H   0  0  0  0  0  0  0  0  0  0  0  0  # atno 7974 bound_to 7965
  156.1316  140.1524  156.9057 H   0  0  0  0  0  0  0  0  0  0  0  0  # atno 8008 bound_to 7997
  154.4914  140.0850  156.7641 H   0  0  0  0  0  0  0  0  0  0  0  0  # atno 8009 bound_to 7997
  155.4245  140.3424  155.4276 H   0  0  0  0  0  0  0  0  0  0  0  0  # atno 8010 bound_to 7997
  140.5369  143.2317  151.7160 H   0  0  0  0  0  0  0  0  0  0  0  0  # atno 10167 bound_to 10162
  157.5568  130.8806  149.9048 H   0  0  0  0  0  0  0  0  0  0  0  0  # atno 10718 bound_to 10713
  154.0695  135.6606  153.4822 H   0  0  0  0  0  0  0  0  0  0  0  0  # atno 10763 bound_to 10752
  153.0396  135.5154  154.7580 H   0  0  0  0  0  0  0  0  0  0  0  0  # atno 10764 bound_to 10752
  154.6642  135.3019  154.9795 H   0  0  0  0  0  0  0  0  0  0  0  0  # atno 10765 bound_to 10752
  139.9510  134.7226  156.0862 H   0  0  0  0  0  0  0  0  0  0  0  0  # atno 11005 bound_to 11000
  145.4318  139.1548  143.4018 LP  0  0  0  0  0  0  0  0  0  0  0  0  # atno 17320 bound_to 7965
  146.2858  140.4434  142.8758 LP  0  0  0  0  0  0  0  0  0  0  0  0  # atno 17321 bound_to 7965
  139.4974  144.4028  152.0163 LP  0  0  0  0  0  0  0  0  0  0  0  0  # atno 17342 bound_to 10162
  140.3134  144.3511  150.6028 LP  0  0  0  0  0  0  0  0  0  0  0  0  # atno 17343 bound_to 10162
  156.0625  130.3697  150.0950 LP  0  0  0  0  0  0  0  0  0  0  0  0  # atno 17370 bound_to 10713
  156.9117  130.9654  151.3562 LP  0  0  0  0  0  0  0  0  0  0  0  0  # atno 17371 bound_to 10713
  141.1173  133.6624  156.3126 LP  0  0  0  0  0  0  0  0  0  0  0  0  # atno 17394 bound_to 11000
  140.5718  134.5832  157.5459 LP  0  0  0  0  0  0  0  0  0  0  0  0  # atno 17395 bound_to 11000

$$$$
