AV-unprocessed.smi:3331|AV-procd|sdf|12824|dock8
  -GOLD-   2272019203D 1   1.00000     0.00000
 Structure written by MMmdl.
 46 47  0  0  0  0  0  0  0  0  1 V2000
  151.4128  138.1722  158.9042 C   0  0  0  0  0  0  0  0  0  0  0  0
  150.4776  137.1861  158.1911 C   0  0  1  0  0  0  0  0  0  0  0  0
  149.0905  137.1251  158.8707 C   0  0  0  0  0  0  0  0  0  0  0  0
  148.0907  136.2373  158.0946 C   0  0  1  0  0  0  0  0  0  0  0  0
  146.6871  136.2919  158.7130 C   0  0  0  0  0  0  0  0  0  0  0  0
  148.0710  136.6325  156.6027 C   0  0  0  0  0  0  0  0  0  0  0  0
  149.4388  136.5321  156.0789 N   0  0  0  0  0  0  0  0  0  0  0  0
  149.8261  135.5303  155.2497 C   0  0  0  0  0  0  0  0  0  0  0  0
  151.0075  135.3682  154.9356 O   0  0  0  0  0  0  0  0  0  0  0  0
  148.7760  134.5612  154.6549 C   0  0  2  0  0  0  0  0  0  0  0  0
  149.4687  133.5285  153.7518 C   0  0  0  0  0  0  0  0  0  0  0  0
  147.7298  135.2585  153.8877 N   0  0  0  0  0  0  0  0  0  0  0  0
  146.6505  134.3781  153.4481 C   0  0  0  0  0  0  0  0  0  0  0  0
  146.7132  134.1939  151.9238 C   0  0  0  0  0  0  0  0  0  0  0  0
  145.5908  133.4159  151.4304 N   0  0  0  0  0  0  0  0  0  0  0  0
  145.6091  132.2037  150.7733 C   0  0  0  0  0  0  0  0  0  0  0  0
  144.3145  131.8782  150.4861 C   0  0  0  0  0  0  0  0  0  0  0  0
  143.5673  132.9680  151.0143 C   0  0  0  0  0  0  0  0  0  0  0  0
  144.3336  133.8858  151.5806 N   0  0  0  0  0  0  0  0  0  0  0  0
  150.3128  137.5355  156.6985 C   0  0  0  0  0  0  0  0  0  0  0  0
  151.0211  139.1891  158.8659 H   0  0  0  0  0  0  0  0  0  0  0  0
  152.4009  138.1779  158.4432 H   0  0  0  0  0  0  0  0  0  0  0  0
  151.5401  137.9032  159.9530 H   0  0  0  0  0  0  0  0  0  0  0  0
  150.9310  136.1957  158.2577 H   0  0  0  0  0  0  0  0  0  0  0  0
  149.1930  136.7626  159.8942 H   0  0  0  0  0  0  0  0  0  0  0  0
  148.6854  138.1355  158.9438 H   0  0  0  0  0  0  0  0  0  0  0  0
  148.4379  135.2048  158.1620 H   0  0  0  0  0  0  0  0  0  0  0  0
  146.2736  137.3000  158.6705 H   0  0  0  0  0  0  0  0  0  0  0  0
  146.7064  135.9825  159.7582 H   0  0  0  0  0  0  0  0  0  0  0  0
  146.0013  135.6283  158.1857 H   0  0  0  0  0  0  0  0  0  0  0  0
  147.3636  136.0050  156.0587 H   0  0  0  0  0  0  0  0  0  0  0  0
  147.7072  137.6543  156.4839 H   0  0  0  0  0  0  0  0  0  0  0  0
  148.2620  134.0277  155.4533 H   0  0  0  0  0  0  0  0  0  0  0  0
  150.2341  132.9713  154.2928 H   0  0  0  0  0  0  0  0  0  0  0  0
  149.9497  134.0058  152.8967 H   0  0  0  0  0  0  0  0  0  0  0  0
  148.7517  132.8036  153.3655 H   0  0  0  0  0  0  0  0  0  0  0  0
  148.1088  135.7528  153.0931 H   0  0  0  0  0  0  0  0  0  0  0  0
  146.7610  133.4155  153.9481 H   0  0  0  0  0  0  0  0  0  0  0  0
  145.6678  134.7631  153.7226 H   0  0  0  0  0  0  0  0  0  0  0  0
  146.7310  135.1575  151.4128 H   0  0  0  0  0  0  0  0  0  0  0  0
  147.6344  133.6781  151.6496 H   0  0  0  0  0  0  0  0  0  0  0  0
  146.5315  131.6838  150.5616 H   0  0  0  0  0  0  0  0  0  0  0  0
  143.9560  130.9981  149.9735 H   0  0  0  0  0  0  0  0  0  0  0  0
  142.4980  133.1186  151.0031 H   0  0  0  0  0  0  0  0  0  0  0  0
  149.8520  138.5195  156.5977 H   0  0  0  0  0  0  0  0  0  0  0  0
  151.2795  137.6352  156.2090 H   0  0  0  0  0  0  0  0  0  0  0  0
  1  2  1  0  0  0  0
  1 21  1  0  0  0  0
  1 22  1  0  0  0  0
  1 23  1  0  0  0  0
  2 20  1  0  0  0  0
  2  3  1  0  0  0  0
  2 24  1  0  0  0  0
  3  4  1  0  0  0  0
  3 25  1  0  0  0  0
  3 26  1  0  0  0  0
  4  5  1  0  0  0  0
  4  6  1  0  0  0  0
  4 27  1  0  0  0  0
  5 28  1  0  0  0  0
  5 29  1  0  0  0  0
  5 30  1  0  0  0  0
  6  7  1  0  0  0  0
  6 31  1  0  0  0  0
  6 32  1  0  0  0  0
  7  8  1  0  0  0  0
  7 20  1  0  0  0  0
  8  9  2  0  0  0  0
  8 10  1  0  0  0  0
 10 11  1  0  0  0  0
 10 12  1  0  0  0  0
 10 33  1  0  0  0  0
 11 34  1  0  0  0  0
 11 35  1  0  0  0  0
 11 36  1  0  0  0  0
 12 13  1  0  0  0  0
 12 37  1  0  0  0  0
 13 14  1  0  0  0  0
 13 38  1  0  0  0  0
 13 39  1  0  0  0  0
 14 15  1  0  0  0  0
 14 40  1  0  0  0  0
 14 41  1  0  0  0  0
 15 19  1  0  0  0  0
 15 16  1  0  0  0  0
 16 17  2  0  0  0  0
 16 42  1  0  0  0  0
 17 18  1  0  0  0  0
 17 43  1  0  0  0  0
 18 19  2  0  0  0  0
 18 44  1  0  0  0  0
 20 45  1  0  0  0  0
 20 46  1  0  0  0  0
M  END
> <s_m_source_file>
AV-unprocessed.smi

> <i_m_source_file_index>
3331

> <i_lp_mmshare_version>
43012

> <i_f3d_flags>
0

> <s_epik_input>
W0NIM11bQ0BASF0xW0NIMl1bQ0BASF0oW0NIM10pW0NIMl1OKFtDSDJdMSlDKD1PKVtDQEhdKFtDSDNdKVtOSF1bQ0gyXVtDSDJdbjJbY0hdW2NIXVtjSF1uMg==

> <s_epik_cmdline>
J2VwaWtfcHl0aG9uJywgJy1waCcsICc3LjAnLCAnLXRuJywgJzgnLCAnLW1hJywgJzIwMCcsICctbWV0YWxfYmluZGluZycsICctaW1hZScsICc8aW5maWxlLm1hZT4nLCAnLW9tYWUnLCAnPG91dGZpbGUubWFlPic=

> <r_lp_tautomer_probability>
1

> <r_epik_Ionization_Penalty>
0.767994

> <r_epik_Ionization_Penalty_Charging>
0

> <r_epik_Ionization_Penalty_Neutral>
0.767994

> <r_epik_State_Penalty>
0.795453

> <r_epik_Charging_Adjusted_Penalty>
0.795453

> <i_epik_Tot_Q>
0

> <i_epik_Tot_abs_Q>
0

> <r_epik_Metal_State_Penalty>
0.794784

> <b_epik_Metal_Only>
0

> <s_lp_Force_Field>
OPLS_2005

> <r_lp_Energy>
28.4276

> <b_lp_Chiralities_Consistent>
1

> <s_lp_Variant>
AV-unprocessed.smi:3331-8

> <Gold.Version>
5.8.1

> <Gold.Id.Protein>
6NUR|6NUR_protein|mol2

> <Gold.PLP.Fitness>
38.9283

> <Gold.PLP.PLP>
-27.6541

> <Gold.PLP.part.hbond>
-2.0000

> <Gold.PLP.part.metal>
0.0000

> <Gold.PLP.part.buried>
-2.8059

> <Gold.PLP.part.nonpolar>
-21.3957

> <Gold.PLP.part.repulsive>
0.2645

> <Gold.PLP.ligand.clash>
0.0000

> <Gold.PLP.ligand.torsion>
0.3971

> <Gold.PLP.Chemscore.Hbond>
2.0000

> <Gold.PLP.Chemscore.CHOScore>
2.0000

> <Gold.PLP.Chemscore.Metal>
0.0000

> <Gold.Chemscore.Hbonds>
donor molecule, donor type, donor heavy atom, donor atom, acceptor molecule, acceptor atom, score
      L1  H    12    37       P1  7948  1.00
      P1  H 10752 10763       L1     9  0.99
      L1  C    16    42       P1 10747  0.85
      L1  C    18    44       P1 10186  1.00

> <Gold.PLP.Chemscore.Internal.Correction>
0.0684

> <Gold.Rescore>
     Score         DG    S(hbond)    S(metal)    S(lipo)     H(rot)  DE(clash)    DE(int)     intcor
     14.66     -15.09       1.97        0.00      62.40       1.66       0.01       0.42       ----

> <Gold.Chemscore.Fitness>
14.6569

> <Gold.Chemscore.DG>
-15.0875

> <Gold.Chemscore.ZeroCoef>
-5.4800

> <Gold.Chemscore.Hbond>
1.9668

> <Gold.Chemscore.Metal>
0.0000

> <Gold.Chemscore.Lipo>
62.3980

> <Gold.Chemscore.Internal_Hbond>
0.0000

> <Gold.Chemscore.DEClash>
0.0060

> <Gold.Chemscore.DEInternal>
0.4246

> <Gold.Chemscore.Rot>
1.6649

> <Gold.Chemscore.Internal.Correction>
   9.000000E+99

> <Gold.Chemscore.Hbonds>
donor molecule, donor type, donor heavy atom, donor atom, acceptor molecule, acceptor atom, score
      L1  H    12    37       P1  7948  0.96
      P1  H 10752 10763       L1     9  0.93

> <Gold.Chemscore.Hbond.Weighted>
-6.5690

> <Gold.Chemscore.Metal.Weighted>
-0.0000

> <Gold.Chemscore.Lipo.Weighted>
-7.3006

> <Gold.Chemscore.Internal_Hbond.Weighted>
0.0000

> <Gold.Chemscore.DEClash.Weighted>
0.0060

> <Gold.Chemscore.DEInternal.Weighted>
0.4246

> <Gold.Chemscore.Rot.Weighted>
4.2621

> <Gold.Chemscore.Internal.Correction.Weighted>
   9.000000E+99

> <Gold.Protein.RotatedTorsions>
[ 6907 6896 6895 6894 ] final  -40.83 input  -60.11 | X-H torsion
[ 7974 7965 7964 7962 ] final -101.97 input  175.53 | X-H torsion
[ 8008 7997 7996 7995 ] final    2.96 input   59.86 | X-H torsion
[ 10167 10162 10161 10158 ] final   59.56 input  -65.29 | X-H torsion
[ 10718 10713 10712 10709 ] final  -17.17 input   66.30 | X-H torsion
[ 10763 10752 10751 10750 ] final   68.61 input  -60.55 | X-H torsion
[ 11005 11000 10999 10996 ] final  179.77 input  -57.11 | X-H torsion

> <Gold.Protein.ActiveResidues>
 VAL166  LYS551  ARG553  GLY616  TRP617  ASP618  TYR619  PRO620  LYS621  CYS622 
 ASP623  PHE694  ASN695  SER759  ASP760  ASP761  ALA762  ILE779  LEU786  VAL792 
 PHE793  MET794  SER795  GLU796  ALA797  LYS798  CYS799  TRP800  GLU811  SER814 

> <Gold.Protein.RotatedAtoms>
  150.9739  134.9107  159.7803 H   0  0  0  0  0  0  0  0  0  0  0  0  # atno 6907 bound_to 6896
  152.5199  134.3503  159.9259 H   0  0  0  0  0  0  0  0  0  0  0  0  # atno 6908 bound_to 6896
  151.3512  133.3884  159.2715 H   0  0  0  0  0  0  0  0  0  0  0  0  # atno 6909 bound_to 6896
  145.2747  140.9309  143.2966 H   0  0  0  0  0  0  0  0  0  0  0  0  # atno 7974 bound_to 7965
  154.6979  140.2667  155.6748 H   0  0  0  0  0  0  0  0  0  0  0  0  # atno 8008 bound_to 7997
  156.2755  140.2778  156.1503 H   0  0  0  0  0  0  0  0  0  0  0  0  # atno 8009 bound_to 7997
  155.0805  140.0372  157.2627 H   0  0  0  0  0  0  0  0  0  0  0  0  # atno 8010 bound_to 7997
  140.1751  144.4238  150.6642 H   0  0  0  0  0  0  0  0  0  0  0  0  # atno 10167 bound_to 10162
  156.5773  130.4765  149.6336 H   0  0  0  0  0  0  0  0  0  0  0  0  # atno 10718 bound_to 10713
  153.0244  135.5241  154.7160 H   0  0  0  0  0  0  0  0  0  0  0  0  # atno 10763 bound_to 10752
  154.6229  135.2891  155.0307 H   0  0  0  0  0  0  0  0  0  0  0  0  # atno 10764 bound_to 10752
  154.1287  135.6596  153.4970 H   0  0  0  0  0  0  0  0  0  0  0  0  # atno 10765 bound_to 10752
  140.4099  134.6701  157.4608 H   0  0  0  0  0  0  0  0  0  0  0  0  # atno 11005 bound_to 11000
  144.9304  139.4305  143.6497 LP  0  0  0  0  0  0  0  0  0  0  0  0  # atno 17320 bound_to 7965
  146.3235  139.8213  142.8926 LP  0  0  0  0  0  0  0  0  0  0  0  0  # atno 17321 bound_to 7965
  140.6556  143.2237  151.5976 LP  0  0  0  0  0  0  0  0  0  0  0  0  # atno 17342 bound_to 10162
  139.5320  144.2888  152.1169 LP  0  0  0  0  0  0  0  0  0  0  0  0  # atno 17343 bound_to 10162
  156.2662  130.6991  151.1775 LP  0  0  0  0  0  0  0  0  0  0  0  0  # atno 17370 bound_to 10713
  157.7335  131.0591  150.5575 LP  0  0  0  0  0  0  0  0  0  0  0  0  # atno 17371 bound_to 10713
  140.0275  134.6455  155.9152 LP  0  0  0  0  0  0  0  0  0  0  0  0  # atno 17394 bound_to 11000
  141.1825  133.6549  156.5079 LP  0  0  0  0  0  0  0  0  0  0  0  0  # atno 17395 bound_to 11000

$$$$
