AV-unprocessed.smi:3042|AV-procd|sdf|11599|dock2
  -GOLD-   2272016573D 1   1.00000     0.00000
 Structure written by MMmdl.
 33 34  0  0  0  0  0  0  0  0  2 V2000
  147.5519  138.8400  152.0184 N   0  3  0  0  0  0  0  0  0  0  0  0
  147.0575  139.5838  153.1915 C   0  0  0  0  0  0  0  0  0  0  0  0
  148.1322  140.5379  153.7738 C   0  0  2  0  0  0  0  0  0  0  0  0
  149.0804  139.7280  154.6573 C   0  0  0  0  0  0  0  0  0  0  0  0
  149.7936  140.3309  155.7173 C   0  0  0  0  0  0  0  0  0  0  0  0
  150.6462  139.5338  156.5043 C   0  0  0  0  0  0  0  0  0  0  0  0
  150.7557  138.1633  156.1975 C   0  0  0  0  0  0  0  0  0  0  0  0
  150.0804  137.5746  155.1871 N   0  0  0  0  0  0  0  0  0  0  0  0
  149.2658  138.3456  154.4361 C   0  0  0  0  0  0  0  0  0  0  0  0
  147.5858  141.7058  154.4962 N   0  0  0  0  0  0  0  0  0  0  0  0
  146.7534  142.5472  153.6278 C   0  0  0  0  0  0  0  0  0  0  0  0
  146.1778  143.7684  154.3646 C   0  0  0  0  0  0  0  0  0  0  0  0
  145.4255  143.3326  155.4894 O   0  0  0  0  0  0  0  0  0  0  0  0
  146.2053  142.5625  156.3947 C   0  0  0  0  0  0  0  0  0  0  0  0
  146.7867  141.3366  155.6683 C   0  0  0  0  0  0  0  0  0  0  0  0
  148.3222  139.3417  151.6001 H   0  0  0  0  0  0  0  0  0  0  0  0
  146.8056  138.7452  151.3442 H   0  0  0  0  0  0  0  0  0  0  0  0
  146.1777  140.1294  152.8539 H   0  0  0  0  0  0  0  0  0  0  0  0
  146.7232  138.8704  153.9456 H   0  0  0  0  0  0  0  0  0  0  0  0
  148.7178  140.9116  152.9321 H   0  0  0  0  0  0  0  0  0  0  0  0
  149.6889  141.3858  155.9247 H   0  0  0  0  0  0  0  0  0  0  0  0
  151.2050  139.9626  157.3231 H   0  0  0  0  0  0  0  0  0  0  0  0
  151.4014  137.5230  156.7799 H   0  0  0  0  0  0  0  0  0  0  0  0
  148.7416  137.8414  153.6376 H   0  0  0  0  0  0  0  0  0  0  0  0
  147.3276  142.9088  152.7752 H   0  0  0  0  0  0  0  0  0  0  0  0
  145.9322  141.9562  153.2193 H   0  0  0  0  0  0  0  0  0  0  0  0
  146.9761  144.4395  154.6858 H   0  0  0  0  0  0  0  0  0  0  0  0
  145.5271  144.3381  153.7011 H   0  0  0  0  0  0  0  0  0  0  0  0
  147.0033  143.1776  156.8140 H   0  0  0  0  0  0  0  0  0  0  0  0
  145.5755  142.2463  157.2263 H   0  0  0  0  0  0  0  0  0  0  0  0
  145.9737  140.6734  155.3690 H   0  0  0  0  0  0  0  0  0  0  0  0
  147.3927  140.7919  156.3900 H   0  0  0  0  0  0  0  0  0  0  0  0
  147.8633  137.9233  152.3058 H   0  0  0  0  0  0  0  0  0  0  0  0
  1  2  1  0  0  0  0
  1 16  1  0  0  0  0
  1 17  1  0  0  0  0
  1 33  1  0  0  0  0
  2  3  1  0  0  0  0
  2 18  1  0  0  0  0
  2 19  1  0  0  0  0
  3  4  1  0  0  0  0
  3 10  1  0  0  0  0
  3 20  1  0  0  0  0
  4  9  1  0  0  0  0
  4  5  2  0  0  0  0
  5  6  1  0  0  0  0
  5 21  1  0  0  0  0
  6  7  2  0  0  0  0
  6 22  1  0  0  0  0
  7  8  1  0  0  0  0
  7 23  1  0  0  0  0
  8  9  2  0  0  0  0
  9 24  1  0  0  0  0
 10 15  1  0  0  0  0
 10 11  1  0  0  0  0
 11 12  1  0  0  0  0
 11 25  1  0  0  0  0
 11 26  1  0  0  0  0
 12 13  1  0  0  0  0
 12 27  1  0  0  0  0
 12 28  1  0  0  0  0
 13 14  1  0  0  0  0
 14 15  1  0  0  0  0
 14 29  1  0  0  0  0
 14 30  1  0  0  0  0
 15 31  1  0  0  0  0
 15 32  1  0  0  0  0
M  CHG  1   1   1
M  END
> <s_m_source_file>
AV-unprocessed.smi

> <i_m_source_file_index>
3042

> <i_lp_mmshare_version>
43012

> <i_f3d_flags>
0

> <s_epik_input>
W0NIMl0xW0NIMl1PW0NIMl1bQ0gyXU4xW0NASF0oW0NIMl1bTkgyXSljMltjSF1bY0hdW2NIXW5bY0hdMg==

> <s_epik_cmdline>
J2VwaWtfcHl0aG9uJywgJy1waCcsICc3LjAnLCAnLXRuJywgJzgnLCAnLW1hJywgJzIwMCcsICctbWV0YWxfYmluZGluZycsICctaW1hZScsICc8aW5maWxlLm1hZT4nLCAnLW9tYWUnLCAnPG91dGZpbGUubWFlPic=

> <r_epik_Ionization_Penalty>
0.0112597

> <r_epik_Ionization_Penalty_Charging>
0.00794922

> <r_epik_Ionization_Penalty_Neutral>
0.00331052

> <r_epik_State_Penalty>
0.00596555

> <r_epik_Charging_Adjusted_Penalty>
0.0139148

> <i_epik_Tot_Q>
1

> <i_epik_Tot_abs_Q>
1

> <r_epik_Metal_State_Penalty>
0.00603286

> <b_epik_Metal_Only>
0

> <s_lp_Force_Field>
OPLS_2005

> <r_lp_Energy>
28.2789

> <b_lp_Chiralities_Consistent>
1

> <s_lp_Variant>
AV-unprocessed.smi:3042-1

> <Gold.Version>
5.8.1

> <Gold.Id.Protein>
6NUR|6NUR_protein|mol2

> <Gold.PLP.Fitness>
38.9998

> <Gold.PLP.PLP>
-28.8825

> <Gold.PLP.part.hbond>
-2.0000

> <Gold.PLP.part.metal>
0.0000

> <Gold.PLP.part.buried>
-3.1096

> <Gold.PLP.part.nonpolar>
-24.5774

> <Gold.PLP.part.repulsive>
0.5057

> <Gold.PLP.ligand.clash>
0.0000

> <Gold.PLP.ligand.torsion>
0.9841

> <Gold.PLP.Chemscore.Hbond>
2.9920

> <Gold.PLP.Chemscore.CHOScore>
1.0000

> <Gold.PLP.Chemscore.Metal>
0.0000

> <Gold.Chemscore.Hbonds>
donor molecule, donor type, donor heavy atom, donor atom, acceptor molecule, acceptor atom, score
      L1  H     1    16       P1  7957  0.91
      L1  H     1    33       P1  7948  1.81
      L1  C     9    24       P1  7948  1.00

> <Gold.PLP.Chemscore.Internal.Correction>
0.1095

> <Gold.Rescore>
     Score         DG    S(hbond)    S(metal)    S(lipo)     H(rot)  DE(clash)    DE(int)     intcor
     14.43     -15.43       1.98        0.00      61.01       1.48       0.00       1.00       ----

> <Gold.Chemscore.Fitness>
14.4293

> <Gold.Chemscore.DG>
-15.4339

> <Gold.Chemscore.ZeroCoef>
-5.4800

> <Gold.Chemscore.Hbond>
1.9809

> <Gold.Chemscore.Metal>
0.0000

> <Gold.Chemscore.Lipo>
61.0088

> <Gold.Chemscore.Internal_Hbond>
0.0000

> <Gold.Chemscore.DEClash>
0.0030

> <Gold.Chemscore.DEInternal>
1.0015

> <Gold.Chemscore.Rot>
1.4846

> <Gold.Chemscore.Internal.Correction>
   9.000000E+99

> <Gold.Chemscore.Hbonds>
donor molecule, donor type, donor heavy atom, donor atom, acceptor molecule, acceptor atom, score
      L1  H     1    16       P1  7957  0.84
      L1  H     1    33       P1  7948  0.83

> <Gold.Chemscore.Hbond.Weighted>
-6.6163

> <Gold.Chemscore.Metal.Weighted>
-0.0000

> <Gold.Chemscore.Lipo.Weighted>
-7.1380

> <Gold.Chemscore.Internal_Hbond.Weighted>
0.0000

> <Gold.Chemscore.DEClash.Weighted>
0.0030

> <Gold.Chemscore.DEInternal.Weighted>
1.0015

> <Gold.Chemscore.Rot.Weighted>
3.8005

> <Gold.Chemscore.Internal.Correction.Weighted>
   9.000000E+99

> <Gold.Protein.RotatedTorsions>
[ 6907 6896 6895 6894 ] final  -39.79 input  -60.11 | X-H torsion
[ 7974 7965 7964 7962 ] final -174.36 input  175.53 | X-H torsion
[ 8008 7997 7996 7995 ] final  103.49 input   59.86 | X-H torsion
[ 10167 10162 10161 10158 ] final  -56.83 input  -65.29 | X-H torsion
[ 10718 10713 10712 10709 ] final  -55.74 input   66.30 | X-H torsion
[ 10763 10752 10751 10750 ] final  138.88 input  -60.55 | X-H torsion
[ 11005 11000 10999 10996 ] final  -65.53 input  -57.11 | X-H torsion

> <Gold.Protein.ActiveResidues>
 VAL166  LYS551  ARG553  GLY616  TRP617  ASP618  TYR619  PRO620  LYS621  CYS622 
 ASP623  PHE694  ASN695  SER759  ASP760  ASP761  ALA762  ILE779  LEU786  VAL792 
 PHE793  MET794  SER795  GLU796  ALA797  LYS798  CYS799  TRP800  GLU811  SER814 

> <Gold.Protein.RotatedAtoms>
  150.9862  134.9207  159.7872 H   0  0  0  0  0  0  0  0  0  0  0  0  # atno 6907 bound_to 6896
  152.5237  134.3344  159.9204 H   0  0  0  0  0  0  0  0  0  0  0  0  # atno 6908 bound_to 6896
  151.3350  133.3944  159.2700 H   0  0  0  0  0  0  0  0  0  0  0  0  # atno 6909 bound_to 6896
  144.7132  140.1484  143.6386 H   0  0  0  0  0  0  0  0  0  0  0  0  # atno 7974 bound_to 7965
  156.1489  140.3164  155.8615 H   0  0  0  0  0  0  0  0  0  0  0  0  # atno 8008 bound_to 7997
  155.4010  140.0499  157.3054 H   0  0  0  0  0  0  0  0  0  0  0  0  # atno 8009 bound_to 7997
  154.5040  140.2140  155.9299 H   0  0  0  0  0  0  0  0  0  0  0  0  # atno 8010 bound_to 7997
  140.6294  143.2452  151.5280 H   0  0  0  0  0  0  0  0  0  0  0  0  # atno 10167 bound_to 10162
  156.1344  130.4157  150.0211 H   0  0  0  0  0  0  0  0  0  0  0  0  # atno 10718 bound_to 10713
  153.8969  135.3026  155.3448 H   0  0  0  0  0  0  0  0  0  0  0  0  # atno 10763 bound_to 10752
  154.7689  135.4896  153.9612 H   0  0  0  0  0  0  0  0  0  0  0  0  # atno 10764 bound_to 10752
  153.1266  135.6794  153.9346 H   0  0  0  0  0  0  0  0  0  0  0  0  # atno 10765 bound_to 10752
  141.1457  133.6683  156.6000 H   0  0  0  0  0  0  0  0  0  0  0  0  # atno 11005 bound_to 11000
  145.9139  139.2504  143.1421 LP  0  0  0  0  0  0  0  0  0  0  0  0  # atno 17320 bound_to 7965
  145.9688  140.8776  143.0173 LP  0  0  0  0  0  0  0  0  0  0  0  0  # atno 17321 bound_to 7965
  139.5510  144.2396  152.1530 LP  0  0  0  0  0  0  0  0  0  0  0  0  # atno 17342 bound_to 10162
  140.1636  144.5002  150.6618 LP  0  0  0  0  0  0  0  0  0  0  0  0  # atno 17343 bound_to 10162
  156.8114  130.9326  151.3644 LP  0  0  0  0  0  0  0  0  0  0  0  0  # atno 17370 bound_to 10713
  157.6519  130.8891  149.9649 LP  0  0  0  0  0  0  0  0  0  0  0  0  # atno 17371 bound_to 10713
  140.3696  134.7617  157.4590 LP  0  0  0  0  0  0  0  0  0  0  0  0  # atno 17394 bound_to 11000
  140.0721  134.5848  155.8631 LP  0  0  0  0  0  0  0  0  0  0  0  0  # atno 17395 bound_to 11000

$$$$
