AV-unprocessed.smi:1401|AV-procd|sdf|5688|dock4
  -GOLD-   22720 5313D 1   1.00000     0.00000
 Structure written by MMmdl.
 48 50  0  0  0  0  0  0  0  0  1 V2000
  148.2208  140.6369  157.2673 C   0  0  0  0  0  0  0  0  0  0  0  0
  149.1231  139.5697  156.7091 C   0  0  0  0  0  0  0  0  0  0  0  0
  148.6835  138.3555  156.7566 N   0  0  0  0  0  0  0  0  0  0  0  0
  149.4246  137.3006  156.2588 N   0  0  0  0  0  0  0  0  0  0  0  0
  148.7361  136.0008  156.3374 C   0  0  0  0  0  0  0  0  0  0  0  0
  148.8547  135.2995  157.7024 C   0  0  0  0  0  0  0  0  0  0  0  0
  149.9706  135.0968  158.1794 O   0  0  0  0  0  0  0  0  0  0  0  0
  147.7183  134.9520  158.3298 N   0  0  0  0  0  0  0  0  0  0  0  0
  147.6053  134.3650  159.6603 C   0  0  2  0  0  0  0  0  0  0  0  0
  147.2919  132.8630  159.5491 C   0  0  0  0  0  0  0  0  0  0  0  0
  146.5185  135.1356  160.4468 C   0  0  2  0  0  0  0  0  0  0  0  0
  146.8428  136.6227  160.7228 C   0  0  0  0  0  0  0  0  0  0  0  0
  146.5438  136.7679  162.2264 C   0  0  2  0  0  0  0  0  0  0  0  0
  147.6672  136.0865  163.0286 C   0  0  0  0  0  0  0  0  0  0  0  0
  147.3883  134.5903  162.7956 C   0  0  0  0  0  0  0  0  0  0  0  0
  146.1620  134.6109  161.8596 C   0  0  1  0  0  0  0  0  0  0  0  0
  145.3846  135.7971  162.4222 C   0  0  0  0  0  0  0  0  0  0  0  0
  150.6585  137.4201  155.6889 C   0  0  0  0  0  0  0  0  0  0  0  0
  151.2766  136.4549  155.2381 O   0  0  0  0  0  0  0  0  0  0  0  0
  151.1559  138.7972  155.6501 C   0  0  0  0  0  0  0  0  0  0  0  0
  152.4451  138.9674  155.0616 C   0  0  0  0  0  0  0  0  0  0  0  0
  153.4816  139.1152  154.5678 N   0  0  0  0  0  0  0  0  0  0  0  0
  150.4353  139.8409  156.1316 C   0  0  0  0  0  0  0  0  0  0  0  0
  150.9020  141.2898  156.1050 C   0  0  0  0  0  0  0  0  0  0  0  0
  148.6921  141.1390  158.1123 H   0  0  0  0  0  0  0  0  0  0  0  0
  147.2719  140.2263  157.6156 H   0  0  0  0  0  0  0  0  0  0  0  0
  147.9940  141.3871  156.5097 H   0  0  0  0  0  0  0  0  0  0  0  0
  147.6782  136.1043  156.0904 H   0  0  0  0  0  0  0  0  0  0  0  0
  149.1415  135.3300  155.5780 H   0  0  0  0  0  0  0  0  0  0  0  0
  146.8494  135.1539  157.8570 H   0  0  0  0  0  0  0  0  0  0  0  0
  148.5665  134.4880  160.1598 H   0  0  0  0  0  0  0  0  0  0  0  0
  147.2419  132.3961  160.5327 H   0  0  0  0  0  0  0  0  0  0  0  0
  148.0617  132.3378  158.9829 H   0  0  0  0  0  0  0  0  0  0  0  0
  146.3378  132.6924  159.0497 H   0  0  0  0  0  0  0  0  0  0  0  0
  145.6033  135.1032  159.8518 H   0  0  0  0  0  0  0  0  0  0  0  0
  147.8759  136.8862  160.4921 H   0  0  0  0  0  0  0  0  0  0  0  0
  146.1980  137.2707  160.1276 H   0  0  0  0  0  0  0  0  0  0  0  0
  146.3461  137.7945  162.5363 H   0  0  0  0  0  0  0  0  0  0  0  0
  148.6595  136.3832  162.6867 H   0  0  0  0  0  0  0  0  0  0  0  0
  147.5921  136.3298  164.0892 H   0  0  0  0  0  0  0  0  0  0  0  0
  148.2440  134.0584  162.3823 H   0  0  0  0  0  0  0  0  0  0  0  0
  147.1353  134.1052  163.7393 H   0  0  0  0  0  0  0  0  0  0  0  0
  145.6049  133.6736  161.8504 H   0  0  0  0  0  0  0  0  0  0  0  0
  145.0969  135.6713  163.4676 H   0  0  0  0  0  0  0  0  0  0  0  0
  144.4999  136.0557  161.8376 H   0  0  0  0  0  0  0  0  0  0  0  0
  151.9102  141.3919  155.7053 H   0  0  0  0  0  0  0  0  0  0  0  0
  150.9070  141.7110  157.1106 H   0  0  0  0  0  0  0  0  0  0  0  0
  150.2390  141.8920  155.4831 H   0  0  0  0  0  0  0  0  0  0  0  0
  1  2  1  0  0  0  0
  1 25  1  0  0  0  0
  1 26  1  0  0  0  0
  1 27  1  0  0  0  0
  2 23  1  0  0  0  0
  2  3  2  0  0  0  0
  3  4  1  0  0  0  0
  4  5  1  0  0  0  0
  4 18  1  0  0  0  0
  5  6  1  0  0  0  0
  5 28  1  0  0  0  0
  5 29  1  0  0  0  0
  6  7  2  0  0  0  0
  6  8  1  0  0  0  0
  8  9  1  0  0  0  0
  8 30  1  0  0  0  0
  9 10  1  0  0  0  0
  9 11  1  0  0  0  0
  9 31  1  0  0  0  0
 10 32  1  0  0  0  0
 10 33  1  0  0  0  0
 10 34  1  0  0  0  0
 11 16  1  0  0  0  0
 11 12  1  0  0  0  0
 11 35  1  0  0  0  0
 12 13  1  0  0  0  0
 12 36  1  0  0  0  0
 12 37  1  0  0  0  0
 13 17  1  0  0  0  0
 13 14  1  0  0  0  0
 13 38  1  0  0  0  0
 14 15  1  0  0  0  0
 14 39  1  0  0  0  0
 14 40  1  0  0  0  0
 15 16  1  0  0  0  0
 15 41  1  0  0  0  0
 15 42  1  0  0  0  0
 16 17  1  0  0  0  0
 16 43  1  0  0  0  0
 17 44  1  0  0  0  0
 17 45  1  0  0  0  0
 18 19  2  0  0  0  0
 18 20  1  0  0  0  0
 20 21  1  0  0  0  0
 20 23  2  0  0  0  0
 21 22  3  0  0  0  0
 23 24  1  0  0  0  0
 24 46  1  0  0  0  0
 24 47  1  0  0  0  0
 24 48  1  0  0  0  0
M  END
> <s_m_source_file>
AV-unprocessed.smi

> <i_m_source_file_index>
1401

> <i_lp_mmshare_version>
43012

> <i_f3d_flags>
0

> <s_epik_input>
TiNDYyhjMVtDSDNdKWMoPU8pbihuYzFbQ0gzXSlbQ0gyXUMoPU8pW05IXVtDQEhdKFtDSDNdKVtDQEhdKFtDSDJdW0NASF0yMylbQ0BIXShbQ0gyXTMpW0NIMl1bQ0gyXTI=

> <s_epik_cmdline>
J2VwaWtfcHl0aG9uJywgJy1waCcsICc3LjAnLCAnLXRuJywgJzgnLCAnLW1hJywgJzIwMCcsICctbWV0YWxfYmluZGluZycsICctaW1hZScsICc8aW5maWxlLm1hZT4nLCAnLW9tYWUnLCAnPG91dGZpbGUubWFlPic=

> <r_lp_tautomer_probability>
1

> <r_epik_Ionization_Penalty>
2.16501e-08

> <r_epik_Ionization_Penalty_Charging>
2.29436e-11

> <r_epik_Ionization_Penalty_Neutral>
2.16271e-08

> <r_epik_State_Penalty>
-0

> <r_epik_Charging_Adjusted_Penalty>
2.29436e-11

> <i_epik_Tot_Q>
0

> <i_epik_Tot_abs_Q>
0

> <r_epik_Metal_State_Penalty>
-0

> <b_epik_Metal_Only>
0

> <s_lp_Force_Field>
OPLS_2005

> <r_lp_Energy>
65.8104

> <b_lp_Chiralities_Consistent>
1

> <s_lp_Variant>
AV-unprocessed.smi:1401-1

> <Gold.Version>
5.8.1

> <Gold.Id.Protein>
6NUR|6NUR_protein|mol2

> <Gold.PLP.Fitness>
43.1094

> <Gold.PLP.PLP>
-35.3277

> <Gold.PLP.part.hbond>
-2.9147

> <Gold.PLP.part.metal>
0.0000

> <Gold.PLP.part.buried>
-6.4457

> <Gold.PLP.part.nonpolar>
-27.8222

> <Gold.PLP.part.repulsive>
0.1665

> <Gold.PLP.ligand.clash>
0.0000

> <Gold.PLP.ligand.torsion>
0.5323

> <Gold.PLP.Chemscore.Hbond>
2.9440

> <Gold.PLP.Chemscore.CHOScore>
0.0000

> <Gold.PLP.Chemscore.Metal>
0.0000

> <Gold.Chemscore.Hbonds>
donor molecule, donor type, donor heavy atom, donor atom, acceptor molecule, acceptor atom, score
      P1  H  6896  6907       L1     7  0.96
      P1  H  7997  8010       L1    22  1.00
      P1  H 10752 10765       L1    19  1.00

> <Gold.PLP.Chemscore.Internal.Correction>
0.0143

> <Gold.Rescore>
     Score         DG    S(hbond)    S(metal)    S(lipo)     H(rot)  DE(clash)    DE(int)     intcor
     20.11     -20.66       2.78        0.00      85.87       1.63       0.02       0.53       ----

> <Gold.Chemscore.Fitness>
20.1075

> <Gold.Chemscore.DG>
-20.6551

> <Gold.Chemscore.ZeroCoef>
-5.4800

> <Gold.Chemscore.Hbond>
2.7832

> <Gold.Chemscore.Metal>
0.0000

> <Gold.Chemscore.Lipo>
85.8730

> <Gold.Chemscore.Internal_Hbond>
0.0000

> <Gold.Chemscore.DEClash>
0.0198

> <Gold.Chemscore.DEInternal>
0.5278

> <Gold.Chemscore.Rot>
1.6281

> <Gold.Chemscore.Internal.Correction>
   9.000000E+99

> <Gold.Chemscore.Hbonds>
donor molecule, donor type, donor heavy atom, donor atom, acceptor molecule, acceptor atom, score
      P1  H  6896  6907       L1     7  0.91
      P1  H  7997  8010       L1    22  0.88
      P1  H 10752 10765       L1    19  0.98

> <Gold.Chemscore.Hbond.Weighted>
-9.2958

> <Gold.Chemscore.Metal.Weighted>
-0.0000

> <Gold.Chemscore.Lipo.Weighted>
-10.0471

> <Gold.Chemscore.Internal_Hbond.Weighted>
0.0000

> <Gold.Chemscore.DEClash.Weighted>
0.0198

> <Gold.Chemscore.DEInternal.Weighted>
0.5278

> <Gold.Chemscore.Rot.Weighted>
4.1678

> <Gold.Chemscore.Internal.Correction.Weighted>
   9.000000E+99

> <Gold.Protein.RotatedTorsions>
[ 6907 6896 6895 6894 ] final  -79.95 input  -60.11 | X-H torsion
[ 7974 7965 7964 7962 ] final   19.92 input  175.53 | X-H torsion
[ 8008 7997 7996 7995 ] final  133.20 input   59.86 | X-H torsion
[ 10167 10162 10161 10158 ] final   63.58 input  -65.29 | X-H torsion
[ 10718 10713 10712 10709 ] final  128.02 input   66.30 | X-H torsion
[ 10763 10752 10751 10750 ] final -171.77 input  -60.55 | X-H torsion
[ 11005 11000 10999 10996 ] final  143.53 input  -57.11 | X-H torsion

> <Gold.Protein.ActiveResidues>
 VAL166  LYS551  ARG553  GLY616  TRP617  ASP618  TYR619  PRO620  LYS621  CYS622 
 ASP623  PHE694  ASN695  SER759  ASP760  ASP761  ALA762  ILE779  LEU786  VAL792 
 PHE793  MET794  SER795  GLU796  ALA797  LYS798  CYS799  TRP800  GLU811  SER814 

> <Gold.Protein.RotatedAtoms>
  150.6939  134.4043  159.5132 H   0  0  0  0  0  0  0  0  0  0  0  0  # atno 6907 bound_to 6896
  152.1812  134.8750  160.0535 H   0  0  0  0  0  0  0  0  0  0  0  0  # atno 6908 bound_to 6896
  151.9740  133.3700  159.4119 H   0  0  0  0  0  0  0  0  0  0  0  0  # atno 6909 bound_to 6896
  146.2131  139.8243  142.8673 H   0  0  0  0  0  0  0  0  0  0  0  0  # atno 7974 bound_to 7965
  156.2990  140.2527  156.3214 H   0  0  0  0  0  0  0  0  0  0  0  0  # atno 8008 bound_to 7997
  154.9232  140.0400  157.2028 H   0  0  0  0  0  0  0  0  0  0  0  0  # atno 8009 bound_to 7997
  154.8291  140.2872  155.5739 H   0  0  0  0  0  0  0  0  0  0  0  0  # atno 8010 bound_to 7997
  140.1314  144.4639  150.6862 H   0  0  0  0  0  0  0  0  0  0  0  0  # atno 10167 bound_to 10162
  157.5281  131.1098  150.9051 H   0  0  0  0  0  0  0  0  0  0  0  0  # atno 10718 bound_to 10713
  154.6268  135.2882  155.0263 H   0  0  0  0  0  0  0  0  0  0  0  0  # atno 10763 bound_to 10752
  154.1438  135.6514  153.4952 H   0  0  0  0  0  0  0  0  0  0  0  0  # atno 10764 bound_to 10752
  153.0261  135.5339  154.7079 H   0  0  0  0  0  0  0  0  0  0  0  0  # atno 10765 bound_to 10752
  140.0561  134.9230  157.1103 H   0  0  0  0  0  0  0  0  0  0  0  0  # atno 11005 bound_to 11000
  145.3063  141.0208  143.3580 LP  0  0  0  0  0  0  0  0  0  0  0  0  # atno 17320 bound_to 7965
  144.8969  139.4701  143.6651 LP  0  0  0  0  0  0  0  0  0  0  0  0  # atno 17321 bound_to 7965
  140.6814  143.2329  151.5373 LP  0  0  0  0  0  0  0  0  0  0  0  0  # atno 17342 bound_to 10162
  139.5517  144.2377  152.1543 LP  0  0  0  0  0  0  0  0  0  0  0  0  # atno 17343 bound_to 10162
  156.9641  130.5466  149.5287 LP  0  0  0  0  0  0  0  0  0  0  0  0  # atno 17370 bound_to 10713
  156.0402  130.5485  150.8752 LP  0  0  0  0  0  0  0  0  0  0  0  0  # atno 17371 bound_to 10713
  140.3841  134.2255  155.7169 LP  0  0  0  0  0  0  0  0  0  0  0  0  # atno 17394 bound_to 11000
  141.1953  133.8109  157.0722 LP  0  0  0  0  0  0  0  0  0  0  0  0  # atno 17395 bound_to 11000

$$$$
