AV-unprocessed.smi:2275|AV-procd|sdf|9171|dock6
  -GOLD-   2272012383D 1   1.00000     0.00000
 Structure written by MMmdl.
 38 39  0  0  0  0  0  0  0  0  1 V2000
  145.5877  139.0909  154.5885 C   0  0  0  0  0  0  0  0  0  0  0  0
  147.1027  139.1923  154.5871 C   0  0  0  0  0  0  0  0  0  0  0  0
  147.7866  138.0235  154.9344 N   0  0  0  0  0  0  0  0  0  0  0  0
  149.0795  138.0145  154.9537 C   0  0  0  0  0  0  0  0  0  0  0  0
  149.8297  139.1558  154.6279 N   0  0  0  0  0  0  0  0  0  0  0  0
  151.2935  139.0099  154.6795 C   0  0  0  0  0  0  0  0  0  0  0  0
  151.8596  139.3208  156.0832 C   0  0  1  0  0  0  0  0  0  0  0  0
  153.2384  139.0154  156.1362 O   0  0  0  0  0  0  0  0  0  0  0  0
  151.6909  140.7944  156.4888 C   0  0  0  0  0  0  0  0  0  0  0  0
  152.0835  140.9715  157.8449 O   0  0  0  0  0  0  0  0  0  0  0  0
  152.0891  142.2487  158.3626 C   0  0  0  0  0  0  0  0  0  0  0  0
  152.5190  142.3950  159.6979 C   0  0  0  0  0  0  0  0  0  0  0  0
  152.5573  143.6630  160.3087 C   0  0  0  0  0  0  0  0  0  0  0  0
  152.1645  144.8040  159.5853 C   0  0  0  0  0  0  0  0  0  0  0  0
  151.7330  144.6732  158.2523 C   0  0  0  0  0  0  0  0  0  0  0  0
  151.6943  143.4044  157.6416 C   0  0  0  0  0  0  0  0  0  0  0  0
  149.2426  140.3429  154.2998 C   0  0  0  0  0  0  0  0  0  0  0  0
  149.9110  141.3467  154.0451 O   0  0  0  0  0  0  0  0  0  0  0  0
  147.7709  140.3356  154.2732 C   0  0  0  0  0  0  0  0  0  0  0  0
  147.0806  141.6375  153.8863 C   0  0  0  0  0  0  0  0  0  0  0  0
  145.1919  139.2803  153.5906 H   0  0  0  0  0  0  0  0  0  0  0  0
  145.1565  139.8157  155.2794 H   0  0  0  0  0  0  0  0  0  0  0  0
  145.2553  138.0990  154.8971 H   0  0  0  0  0  0  0  0  0  0  0  0
  149.6613  137.1316  155.2242 H   0  0  0  0  0  0  0  0  0  0  0  0
  151.6195  138.0232  154.3432 H   0  0  0  0  0  0  0  0  0  0  0  0
  151.7332  139.6955  153.9528 H   0  0  0  0  0  0  0  0  0  0  0  0
  151.3617  138.7098  156.8373 H   0  0  0  0  0  0  0  0  0  0  0  0
  153.3422  138.0832  156.0198 H   0  0  0  0  0  0  0  0  0  0  0  0
  152.3315  141.4044  155.8498 H   0  0  0  0  0  0  0  0  0  0  0  0
  150.6608  141.1193  156.3310 H   0  0  0  0  0  0  0  0  0  0  0  0
  152.8224  141.5244  160.2607 H   0  0  0  0  0  0  0  0  0  0  0  0
  152.8880  143.7596  161.3322 H   0  0  0  0  0  0  0  0  0  0  0  0
  152.1934  145.7776  160.0521 H   0  0  0  0  0  0  0  0  0  0  0  0
  151.4309  145.5483  157.6961 H   0  0  0  0  0  0  0  0  0  0  0  0
  151.3580  143.3449  156.6177 H   0  0  0  0  0  0  0  0  0  0  0  0
  147.3388  142.4247  154.5954 H   0  0  0  0  0  0  0  0  0  0  0  0
  145.9950  141.5582  153.8639 H   0  0  0  0  0  0  0  0  0  0  0  0
  147.4056  141.9552  152.8950 H   0  0  0  0  0  0  0  0  0  0  0  0
  1  2  1  0  0  0  0
  1 21  1  0  0  0  0
  1 22  1  0  0  0  0
  1 23  1  0  0  0  0
  2 19  2  0  0  0  0
  2  3  1  0  0  0  0
  3  4  2  0  0  0  0
  4  5  1  0  0  0  0
  4 24  1  0  0  0  0
  5  6  1  0  0  0  0
  5 17  1  0  0  0  0
  6  7  1  0  0  0  0
  6 25  1  0  0  0  0
  6 26  1  0  0  0  0
  7  8  1  0  0  0  0
  7  9  1  0  0  0  0
  7 27  1  0  0  0  0
  8 28  1  0  0  0  0
  9 10  1  0  0  0  0
  9 29  1  0  0  0  0
  9 30  1  0  0  0  0
 10 11  1  0  0  0  0
 11 16  1  0  0  0  0
 11 12  2  0  0  0  0
 12 13  1  0  0  0  0
 12 31  1  0  0  0  0
 13 14  2  0  0  0  0
 13 32  1  0  0  0  0
 14 15  1  0  0  0  0
 14 33  1  0  0  0  0
 15 16  2  0  0  0  0
 15 34  1  0  0  0  0
 16 35  1  0  0  0  0
 17 18  2  0  0  0  0
 17 19  1  0  0  0  0
 19 20  1  0  0  0  0
 20 36  1  0  0  0  0
 20 37  1  0  0  0  0
 20 38  1  0  0  0  0
M  END
> <s_m_source_file>
AV-unprocessed.smi

> <i_m_source_file_index>
2275

> <i_lp_mmshare_version>
43012

> <i_f3d_flags>
0

> <s_epik_input>
W0NIM11jMW5bY0hdbihjKD1PKWMxW0NIM10pW0NIMl1bQ0BIXShbT0hdKVtDSDJdT2MyW2NIXVtjSF1bY0hdW2NIXVtjSF0y

> <s_epik_cmdline>
J2VwaWtfcHl0aG9uJywgJy1waCcsICc3LjAnLCAnLXRuJywgJzgnLCAnLW1hJywgJzIwMCcsICctbWV0YWxfYmluZGluZycsICctaW1hZScsICc8aW5maWxlLm1hZT4nLCAnLW9tYWUnLCAnPG91dGZpbGUubWFlPic=

> <r_lp_tautomer_probability>
1

> <r_epik_Ionization_Penalty>
4.18311e-05

> <r_epik_Ionization_Penalty_Charging>
1.04093e-07

> <r_epik_Ionization_Penalty_Neutral>
4.1727e-05

> <r_epik_State_Penalty>
-0

> <r_epik_Charging_Adjusted_Penalty>
1.04093e-07

> <i_epik_Tot_Q>
0

> <i_epik_Tot_abs_Q>
0

> <r_epik_Metal_State_Penalty>
-0

> <b_epik_Metal_Only>
0

> <s_lp_Force_Field>
OPLS_2005

> <r_lp_Energy>
23.5562

> <b_lp_Chiralities_Consistent>
1

> <s_lp_Variant>
AV-unprocessed.smi:2275-2

> <Gold.Version>
5.8.1

> <Gold.Id.Protein>
6NUR|6NUR_protein|mol2

> <Gold.PLP.Fitness>
46.6337

> <Gold.PLP.PLP>
-41.5495

> <Gold.PLP.part.hbond>
-2.8810

> <Gold.PLP.part.metal>
0.0000

> <Gold.PLP.part.buried>
-3.5261

> <Gold.PLP.part.nonpolar>
-34.8226

> <Gold.PLP.part.repulsive>
0.2783

> <Gold.PLP.ligand.clash>
0.0000

> <Gold.PLP.ligand.torsion>
0.4232

> <Gold.PLP.Chemscore.Hbond>
1.9538

> <Gold.PLP.Chemscore.CHOScore>
0.0000

> <Gold.PLP.Chemscore.Metal>
0.0000

> <Gold.Chemscore.Hbonds>
donor molecule, donor type, donor heavy atom, donor atom, acceptor molecule, acceptor atom, score
      P1  H  7989  7998       L1    18  0.30
      P1  H  7997  8009       L1     8  1.00
      P1  H  8011  8017       L1    18  0.67

> <Gold.PLP.Chemscore.Internal.Correction>
0.0694

> <Gold.Rescore>
     Score         DG    S(hbond)    S(metal)    S(lipo)     H(rot)  DE(clash)    DE(int)     intcor
     17.88     -18.89       2.09        0.00     107.22       2.38       0.58       0.43       ----

> <Gold.Chemscore.Fitness>
17.8787

> <Gold.Chemscore.DG>
-18.8923

> <Gold.Chemscore.ZeroCoef>
-5.4800

> <Gold.Chemscore.Hbond>
2.0860

> <Gold.Chemscore.Metal>
0.0000

> <Gold.Chemscore.Lipo>
107.2202

> <Gold.Chemscore.Internal_Hbond>
0.0000

> <Gold.Chemscore.DEClash>
0.5794

> <Gold.Chemscore.DEInternal>
0.4343

> <Gold.Chemscore.Rot>
2.3826

> <Gold.Chemscore.Internal.Correction>
   9.000000E+99

> <Gold.Chemscore.Hbonds>
donor molecule, donor type, donor heavy atom, donor atom, acceptor molecule, acceptor atom, score
      P1  H  7989  7998       L1    18  0.25
      P1  H  7997  8009       L1     8  0.93
      P1  H  8011  8017       L1    18  0.64

> <Gold.Chemscore.Hbond.Weighted>
-6.9671

> <Gold.Chemscore.Metal.Weighted>
-0.0000

> <Gold.Chemscore.Lipo.Weighted>
-12.5448

> <Gold.Chemscore.Internal_Hbond.Weighted>
0.0000

> <Gold.Chemscore.DEClash.Weighted>
0.5794

> <Gold.Chemscore.DEInternal.Weighted>
0.4343

> <Gold.Chemscore.Rot.Weighted>
6.0996

> <Gold.Chemscore.Internal.Correction.Weighted>
   9.000000E+99

> <Gold.Protein.RotatedTorsions>
[ 6907 6896 6895 6894 ] final  124.72 input  -60.11 | X-H torsion
[ 7974 7965 7964 7962 ] final  -14.74 input  175.53 | X-H torsion
[ 8008 7997 7996 7995 ] final -149.31 input   59.86 | X-H torsion
[ 10167 10162 10161 10158 ] final   20.39 input  -65.29 | X-H torsion
[ 10718 10713 10712 10709 ] final   90.15 input   66.30 | X-H torsion
[ 10763 10752 10751 10750 ] final  164.63 input  -60.55 | X-H torsion
[ 11005 11000 10999 10996 ] final  -78.78 input  -57.11 | X-H torsion

> <Gold.Protein.ActiveResidues>
 VAL166  LYS551  ARG553  GLY616  TRP617  ASP618  TYR619  PRO620  LYS621  CYS622 
 ASP623  PHE694  ASN695  SER759  ASP760  ASP761  ALA762  ILE779  LEU786  VAL792 
 PHE793  MET794  SER795  GLU796  ALA797  LYS798  CYS799  TRP800  GLU811  SER814 

> <Gold.Protein.RotatedAtoms>
  152.4053  133.6880  159.6351 H   0  0  0  0  0  0  0  0  0  0  0  0  # atno 6907 bound_to 6896
  150.7939  133.8719  159.3270 H   0  0  0  0  0  0  0  0  0  0  0  0  # atno 6908 bound_to 6896
  151.6475  135.1007  160.0205 H   0  0  0  0  0  0  0  0  0  0  0  0  # atno 6909 bound_to 6896
  146.2061  140.3393  142.8406 H   0  0  0  0  0  0  0  0  0  0  0  0  # atno 7974 bound_to 7965
  155.6056  140.0666  157.2721 H   0  0  0  0  0  0  0  0  0  0  0  0  # atno 8008 bound_to 7997
  154.4267  140.1810  156.1266 H   0  0  0  0  0  0  0  0  0  0  0  0  # atno 8009 bound_to 7997
  156.0125  140.3325  155.6959 H   0  0  0  0  0  0  0  0  0  0  0  0  # atno 8010 bound_to 7997
  140.5507  143.9514  150.6576 H   0  0  0  0  0  0  0  0  0  0  0  0  # atno 10167 bound_to 10162
  157.6958  131.0360  150.3534 H   0  0  0  0  0  0  0  0  0  0  0  0  # atno 10718 bound_to 10713
  154.3118  135.2757  155.2562 H   0  0  0  0  0  0  0  0  0  0  0  0  # atno 10763 bound_to 10752
  154.4954  135.5822  153.6494 H   0  0  0  0  0  0  0  0  0  0  0  0  # atno 10764 bound_to 10752
  152.9887  135.6145  154.3295 H   0  0  0  0  0  0  0  0  0  0  0  0  # atno 10765 bound_to 10752
  141.1666  133.7078  156.8024 H   0  0  0  0  0  0  0  0  0  0  0  0  # atno 11005 bound_to 11000
  144.8797  140.7384  143.5994 LP  0  0  0  0  0  0  0  0  0  0  0  0  # atno 17320 bound_to 7965
  145.3313  139.1759  143.4535 LP  0  0  0  0  0  0  0  0  0  0  0  0  # atno 17321 bound_to 7965
  140.2939  143.3306  152.1036 LP  0  0  0  0  0  0  0  0  0  0  0  0  # atno 17342 bound_to 10162
  139.5026  144.6738  151.6177 LP  0  0  0  0  0  0  0  0  0  0  0  0  # atno 17343 bound_to 10162
  156.3979  130.3910  149.6981 LP  0  0  0  0  0  0  0  0  0  0  0  0  # atno 17370 bound_to 10713
  156.4308  130.7814  151.2834 LP  0  0  0  0  0  0  0  0  0  0  0  0  # atno 17371 bound_to 10713
  140.2247  134.8731  157.3414 LP  0  0  0  0  0  0  0  0  0  0  0  0  # atno 17394 bound_to 11000
  140.1952  134.4322  155.7693 LP  0  0  0  0  0  0  0  0  0  0  0  0  # atno 17395 bound_to 11000

$$$$
