AV-unprocessed.smi:1260|AV-procd|sdf|5294|dock6
  -GOLD-   22720 4413D 1   1.00000     0.00000
 Structure written by MMmdl.
 37 39  0  0  0  0  0  0  0  0  2 V2000
  147.6587  131.2454  154.3023 O   0  0  0  0  0  0  0  0  0  0  0  0
  148.0944  132.3675  154.0466 C   0  0  0  0  0  0  0  0  0  0  0  0
  149.6004  132.6009  153.9422 C   0  0  0  0  0  0  0  0  0  0  0  0
  150.2396  132.3082  155.2112 N   0  0  0  0  0  0  0  0  0  0  0  0
  151.2147  131.4528  155.5248 C   0  0  0  0  0  0  0  0  0  0  0  0
  151.5366  131.5282  156.8071 N   0  0  0  0  0  0  0  0  0  0  0  0
  150.6814  132.5046  157.2899 N   0  0  0  0  0  0  0  0  0  0  0  0
  149.9093  132.9715  156.3476 N   0  0  0  0  0  0  0  0  0  0  0  0
  147.3090  133.4279  153.8035 N   0  0  0  0  0  0  0  0  0  0  0  0
  145.8545  133.3769  153.6933 C   0  0  1  0  0  0  0  0  0  0  0  0
  145.2167  134.7457  153.4208 C   0  0  0  0  0  0  0  0  0  0  0  0
  143.9703  134.4452  152.5683 C   0  0  0  0  0  0  0  0  0  0  0  0
  143.9641  132.9819  152.3463 N   0  3  1  0  0  0  0  0  0  0  0  0
  143.2643  132.5005  151.1275 C   0  0  0  0  0  0  0  0  0  0  0  0
  144.1066  132.6685  149.8518 C   0  0  0  0  0  0  0  0  0  0  0  0
  145.4839  132.0201  150.0227 C   0  0  0  0  0  0  0  0  0  0  0  0
  146.1949  132.6382  151.2303 C   0  0  0  0  0  0  0  0  0  0  0  0
  145.3536  132.5058  152.5275 C   0  0  1  0  0  0  0  0  0  0  0  0
  150.0327  131.9731  153.1613 H   0  0  0  0  0  0  0  0  0  0  0  0
  149.8029  133.6390  153.6755 H   0  0  0  0  0  0  0  0  0  0  0  0
  151.6921  130.7905  154.8177 H   0  0  0  0  0  0  0  0  0  0  0  0
  147.7541  134.3131  153.6070 H   0  0  0  0  0  0  0  0  0  0  0  0
  145.4354  132.9911  154.6252 H   0  0  0  0  0  0  0  0  0  0  0  0
  144.9671  135.2650  154.3468 H   0  0  0  0  0  0  0  0  0  0  0  0
  145.8968  135.3878  152.8588 H   0  0  0  0  0  0  0  0  0  0  0  0
  143.0509  134.7484  153.0699 H   0  0  0  0  0  0  0  0  0  0  0  0
  144.0271  134.9850  151.6224 H   0  0  0  0  0  0  0  0  0  0  0  0
  143.0383  131.4428  151.2688 H   0  0  0  0  0  0  0  0  0  0  0  0
  142.3056  133.0106  151.0269 H   0  0  0  0  0  0  0  0  0  0  0  0
  143.5878  132.2188  149.0047 H   0  0  0  0  0  0  0  0  0  0  0  0
  144.2230  133.7261  149.6128 H   0  0  0  0  0  0  0  0  0  0  0  0
  145.3778  130.9435  150.1622 H   0  0  0  0  0  0  0  0  0  0  0  0
  146.0818  132.1630  149.1220 H   0  0  0  0  0  0  0  0  0  0  0  0
  147.1659  132.1590  151.3593 H   0  0  0  0  0  0  0  0  0  0  0  0
  146.4001  133.6883  151.0184 H   0  0  0  0  0  0  0  0  0  0  0  0
  145.3285  131.4556  152.8220 H   0  0  0  0  0  0  0  0  0  0  0  0
  143.4500  132.6067  153.1308 H   0  0  0  0  0  0  0  0  0  0  0  0
  1  2  2  0  0  0  0
  2  3  1  0  0  0  0
  2  9  1  0  0  0  0
  3  4  1  0  0  0  0
  3 19  1  0  0  0  0
  3 20  1  0  0  0  0
  4  8  1  0  0  0  0
  4  5  1  0  0  0  0
  5  6  2  0  0  0  0
  5 21  1  0  0  0  0
  6  7  1  0  0  0  0
  7  8  2  0  0  0  0
  9 10  1  0  0  0  0
  9 22  1  0  0  0  0
 10 18  1  0  0  0  0
 10 11  1  0  0  0  0
 10 23  1  0  0  0  0
 11 12  1  0  0  0  0
 11 24  1  0  0  0  0
 11 25  1  0  0  0  0
 12 13  1  0  0  0  0
 12 26  1  0  0  0  0
 12 27  1  0  0  0  0
 13 18  1  0  0  0  0
 13 14  1  0  0  0  0
 13 37  1  0  0  0  0
 14 15  1  0  0  0  0
 14 28  1  0  0  0  0
 14 29  1  0  0  0  0
 15 16  1  0  0  0  0
 15 30  1  0  0  0  0
 15 31  1  0  0  0  0
 16 17  1  0  0  0  0
 16 32  1  0  0  0  0
 16 33  1  0  0  0  0
 17 18  1  0  0  0  0
 17 34  1  0  0  0  0
 17 35  1  0  0  0  0
 18 36  1  0  0  0  0
M  CHG  1  13   1
M  END
> <s_m_source_file>
AV-unprocessed.smi

> <i_m_source_file_index>
1260

> <i_lp_mmshare_version>
43012

> <i_f3d_flags>
0

> <s_epik_input>
bjFubltjSF1uMVtDSDJdQyg9TylbTkhdW0NASF0oW0NIMl1bQ0gyXTIpW0NAQEhdKE4yMylbQ0gyXVtDSDJdW0NIMl1bQ0gyXTM=

> <s_epik_cmdline>
J2VwaWtfcHl0aG9uJywgJy1waCcsICc3LjAnLCAnLXRuJywgJzgnLCAnLW1hJywgJzIwMCcsICctbWV0YWxfYmluZGluZycsICctaW1hZScsICc8aW5maWxlLm1hZT4nLCAnLW9tYWUnLCAnPG91dGZpbGUubWFlPic=

> <r_lp_tautomer_probability>
1

> <r_epik_Ionization_Penalty>
0.00234324

> <r_epik_Ionization_Penalty_Charging>
0.00233897

> <r_epik_Ionization_Penalty_Neutral>
4.26861e-06

> <r_epik_State_Penalty>
0.00161477

> <r_epik_Charging_Adjusted_Penalty>
0.00395374

> <i_epik_Tot_Q>
1

> <i_epik_Tot_abs_Q>
1

> <r_epik_Metal_State_Penalty>
-0

> <b_epik_Metal_Only>
0

> <s_lp_Force_Field>
OPLS_2005

> <r_lp_Energy>
37.4375

> <b_lp_Chiralities_Consistent>
1

> <s_lp_Variant>
AV-unprocessed.smi:1260-2

> <Gold.Version>
5.8.1

> <Gold.Id.Protein>
6NUR|6NUR_protein|mol2

> <Gold.PLP.Fitness>
36.7946

> <Gold.PLP.PLP>
-27.8039

> <Gold.PLP.part.hbond>
-2.0000

> <Gold.PLP.part.metal>
0.0000

> <Gold.PLP.part.buried>
-5.8672

> <Gold.PLP.part.nonpolar>
-21.8867

> <Gold.PLP.part.repulsive>
0.0437

> <Gold.PLP.ligand.clash>
0.0000

> <Gold.PLP.ligand.torsion>
0.0083

> <Gold.PLP.Chemscore.Hbond>
3.0000

> <Gold.PLP.Chemscore.CHOScore>
0.0000

> <Gold.PLP.Chemscore.Metal>
0.0000

> <Gold.Chemscore.Hbonds>
donor molecule, donor type, donor heavy atom, donor atom, acceptor molecule, acceptor atom, score
      L1  H    13    37       P1 10957  1.90
      P1  H  6896  6907       L1     7  0.62

> <Gold.PLP.Chemscore.Internal.Correction>
0.0072

> <Gold.Rescore>
     Score         DG    S(hbond)    S(metal)    S(lipo)     H(rot)  DE(clash)    DE(int)     intcor
     12.60     -12.62       1.89        0.00      50.41       1.98       0.00       0.02       ----

> <Gold.Chemscore.Fitness>
12.5963

> <Gold.Chemscore.DG>
-12.6176

> <Gold.Chemscore.ZeroCoef>
-5.4800

> <Gold.Chemscore.Hbond>
1.8854

> <Gold.Chemscore.Metal>
0.0000

> <Gold.Chemscore.Lipo>
50.4118

> <Gold.Chemscore.Internal_Hbond>
0.0000

> <Gold.Chemscore.DEClash>
0.0015

> <Gold.Chemscore.DEInternal>
0.0199

> <Gold.Chemscore.Rot>
1.9757

> <Gold.Chemscore.Internal.Correction>
   9.000000E+99

> <Gold.Chemscore.Hbonds>
donor molecule, donor type, donor heavy atom, donor atom, acceptor molecule, acceptor atom, score
      L1  H    13    37       P1 10957  0.21
      P1  H  6896  6907       L1     7  0.56

> <Gold.Chemscore.Hbond.Weighted>
-6.2972

> <Gold.Chemscore.Metal.Weighted>
-0.0000

> <Gold.Chemscore.Lipo.Weighted>
-5.8982

> <Gold.Chemscore.Internal_Hbond.Weighted>
0.0000

> <Gold.Chemscore.DEClash.Weighted>
0.0015

> <Gold.Chemscore.DEInternal.Weighted>
0.0199

> <Gold.Chemscore.Rot.Weighted>
5.0578

> <Gold.Chemscore.Internal.Correction.Weighted>
   9.000000E+99

> <Gold.Protein.RotatedTorsions>
[ 6907 6896 6895 6894 ] final -154.84 input  -60.11 | X-H torsion
[ 7974 7965 7964 7962 ] final  -48.08 input  175.53 | X-H torsion
[ 8008 7997 7996 7995 ] final  143.16 input   59.86 | X-H torsion
[ 10167 10162 10161 10158 ] final  -26.24 input  -65.29 | X-H torsion
[ 10718 10713 10712 10709 ] final   36.45 input   66.30 | X-H torsion
[ 10763 10752 10751 10750 ] final   92.58 input  -60.55 | X-H torsion
[ 11005 11000 10999 10996 ] final -116.77 input  -57.11 | X-H torsion

> <Gold.Protein.ActiveResidues>
 VAL166  LYS551  ARG553  GLY616  TRP617  ASP618  TYR619  PRO620  LYS621  CYS622 
 ASP623  PHE694  ASN695  SER759  ASP760  ASP761  ALA762  ILE779  LEU786  VAL792 
 PHE793  MET794  SER795  GLU796  ALA797  LYS798  CYS799  TRP800  GLU811  SER814 

> <Gold.Protein.RotatedAtoms>
  151.2635  133.4290  159.2617 H   0  0  0  0  0  0  0  0  0  0  0  0  # atno 6907 bound_to 6896
  151.0509  134.9672  159.8221 H   0  0  0  0  0  0  0  0  0  0  0  0  # atno 6908 bound_to 6896
  152.5382  134.2590  159.8980 H   0  0  0  0  0  0  0  0  0  0  0  0  # atno 6909 bound_to 6896
  145.9549  140.7536  142.9486 H   0  0  0  0  0  0  0  0  0  0  0  0  # atno 7974 bound_to 7965
  156.2936  140.2270  156.4845 H   0  0  0  0  0  0  0  0  0  0  0  0  # atno 8008 bound_to 7997
  154.7824  140.0459  157.1159 H   0  0  0  0  0  0  0  0  0  0  0  0  # atno 8009 bound_to 7997
  154.9742  140.3070  155.4978 H   0  0  0  0  0  0  0  0  0  0  0  0  # atno 8010 bound_to 7997
  140.7283  143.4195  151.0974 H   0  0  0  0  0  0  0  0  0  0  0  0  # atno 10167 bound_to 10162
  157.3350  130.7518  149.6873 H   0  0  0  0  0  0  0  0  0  0  0  0  # atno 10718 bound_to 10713
  153.2207  135.4356  155.0486 H   0  0  0  0  0  0  0  0  0  0  0  0  # atno 10763 bound_to 10752
  154.8248  135.3355  154.6931 H   0  0  0  0  0  0  0  0  0  0  0  0  # atno 10764 bound_to 10752
  153.7363  135.7007  153.5033 H   0  0  0  0  0  0  0  0  0  0  0  0  # atno 10765 bound_to 10752
  141.0400  133.9851  157.3010 H   0  0  0  0  0  0  0  0  0  0  0  0  # atno 11005 bound_to 11000
  144.6803  140.2496  143.7333 LP  0  0  0  0  0  0  0  0  0  0  0  0  # atno 17320 bound_to 7965
  145.8120  139.2007  143.1988 LP  0  0  0  0  0  0  0  0  0  0  0  0  # atno 17321 bound_to 7965
  139.7839  143.8316  152.3142 LP  0  0  0  0  0  0  0  0  0  0  0  0  # atno 17342 bound_to 10162
  139.8276  144.7268  150.9491 LP  0  0  0  0  0  0  0  0  0  0  0  0  # atno 17343 bound_to 10162
  155.9700  130.4184  150.4326 LP  0  0  0  0  0  0  0  0  0  0  0  0  # atno 17370 bound_to 10713
  157.2364  131.0515  151.2462 LP  0  0  0  0  0  0  0  0  0  0  0  0  # atno 17371 bound_to 10713
  139.9268  135.0201  156.8264 LP  0  0  0  0  0  0  0  0  0  0  0  0  # atno 17394 bound_to 11000
  140.6252  133.9957  155.7636 LP  0  0  0  0  0  0  0  0  0  0  0  0  # atno 17395 bound_to 11000

$$$$
