AV-unprocessed.smi:960|AV-procd|sdf|4273|dock9
  -GOLD-   22720 2183D 1   1.00000     0.00000
 Structure written by MMmdl.
 45 46  0  0  0  0  0  0  0  0  1 V2000
  152.7113  139.1631  155.3978 C   0  0  0  0  0  0  0  0  0  0  0  0
  151.4591  139.0902  154.9175 C   0  0  0  0  0  0  0  0  0  0  0  0
  150.9970  137.9347  154.0496 C   0  0  0  0  0  0  0  0  0  0  0  0
  150.4143  140.1509  155.2328 C   0  0  0  0  0  0  0  0  0  0  0  0
  149.0756  139.8135  154.7482 N   0  0  0  0  0  0  0  0  0  0  0  0
  148.1811  140.9758  154.7858 C   0  0  0  0  0  0  0  0  0  0  0  0
  146.8034  140.6111  154.2056 C   0  0  0  0  0  0  0  0  0  0  0  0
  146.1674  139.4411  154.9710 C   0  0  0  0  0  0  0  0  0  0  0  0
  144.9312  139.0320  154.3112 N   0  0  0  0  0  0  0  0  0  0  0  0
  144.2334  137.9237  154.5960 C   0  0  0  0  0  0  0  0  0  0  0  0
  144.5491  137.1255  155.4778 O   0  0  0  0  0  0  0  0  0  0  0  0
  143.1484  137.8151  153.8143 N   0  0  0  0  0  0  0  0  0  0  0  0
  142.2030  136.7590  153.8094 C   0  0  0  0  0  0  0  0  0  0  0  0
  142.2634  135.4882  153.1647 C   0  0  0  0  0  0  0  0  0  0  0  0
  143.3241  134.8674  152.2988 C   0  0  0  0  0  0  0  0  0  0  0  0
  141.1425  134.8175  153.3865 N   0  0  0  0  0  0  0  0  0  0  0  0
  140.3161  135.6539  154.1523 O   0  0  0  0  0  0  0  0  0  0  0  0
  140.9661  136.8248  154.3800 C   0  0  0  0  0  0  0  0  0  0  0  0
  140.2372  137.8630  155.1642 C   0  0  0  0  0  0  0  0  0  0  0  0
  147.1689  138.2749  155.0304 C   0  0  0  0  0  0  0  0  0  0  0  0
  148.5288  138.7394  155.5789 C   0  0  0  0  0  0  0  0  0  0  0  0
  153.4430  138.4004  155.1750 H   0  0  0  0  0  0  0  0  0  0  0  0
  153.0242  139.9879  156.0212 H   0  0  0  0  0  0  0  0  0  0  0  0
  150.1521  137.4274  154.5150 H   0  0  0  0  0  0  0  0  0  0  0  0
  151.7926  137.2036  153.9036 H   0  0  0  0  0  0  0  0  0  0  0  0
  150.6842  138.2923  153.0682 H   0  0  0  0  0  0  0  0  0  0  0  0
  150.3851  140.2749  156.3161 H   0  0  0  0  0  0  0  0  0  0  0  0
  150.7260  141.1091  154.8138 H   0  0  0  0  0  0  0  0  0  0  0  0
  148.0786  141.3357  155.8108 H   0  0  0  0  0  0  0  0  0  0  0  0
  148.5975  141.7957  154.2007 H   0  0  0  0  0  0  0  0  0  0  0  0
  146.1473  141.4815  154.2428 H   0  0  0  0  0  0  0  0  0  0  0  0
  146.9148  140.3523  153.1514 H   0  0  0  0  0  0  0  0  0  0  0  0
  145.9437  139.7744  155.9865 H   0  0  0  0  0  0  0  0  0  0  0  0
  144.5904  139.6322  153.5745 H   0  0  0  0  0  0  0  0  0  0  0  0
  142.9354  138.6029  153.2200 H   0  0  0  0  0  0  0  0  0  0  0  0
  143.8370  135.6208  151.7011 H   0  0  0  0  0  0  0  0  0  0  0  0
  142.8994  134.1395  151.6067 H   0  0  0  0  0  0  0  0  0  0  0  0
  144.0698  134.3509  152.9030 H   0  0  0  0  0  0  0  0  0  0  0  0
  140.8001  138.7957  155.2002 H   0  0  0  0  0  0  0  0  0  0  0  0
  140.0738  137.5278  156.1883 H   0  0  0  0  0  0  0  0  0  0  0  0
  139.2654  138.0728  154.7173 H   0  0  0  0  0  0  0  0  0  0  0  0
  146.7771  137.4733  155.6573 H   0  0  0  0  0  0  0  0  0  0  0  0
  147.3073  137.8495  154.0352 H   0  0  0  0  0  0  0  0  0  0  0  0
  149.2189  137.8946  155.5850 H   0  0  0  0  0  0  0  0  0  0  0  0
  148.4262  139.0764  156.6118 H   0  0  0  0  0  0  0  0  0  0  0  0
  1  2  2  0  0  0  0
  1 22  1  0  0  0  0
  1 23  1  0  0  0  0
  2  3  1  0  0  0  0
  2  4  1  0  0  0  0
  3 24  1  0  0  0  0
  3 25  1  0  0  0  0
  3 26  1  0  0  0  0
  4  5  1  0  0  0  0
  4 27  1  0  0  0  0
  4 28  1  0  0  0  0
  5 21  1  0  0  0  0
  5  6  1  0  0  0  0
  6  7  1  0  0  0  0
  6 29  1  0  0  0  0
  6 30  1  0  0  0  0
  7  8  1  0  0  0  0
  7 31  1  0  0  0  0
  7 32  1  0  0  0  0
  8  9  1  0  0  0  0
  8 20  1  0  0  0  0
  8 33  1  0  0  0  0
  9 10  1  0  0  0  0
  9 34  1  0  0  0  0
 10 11  2  0  0  0  0
 10 12  1  0  0  0  0
 12 13  1  0  0  0  0
 12 35  1  0  0  0  0
 13 18  2  0  0  0  0
 13 14  1  0  0  0  0
 14 15  1  0  0  0  0
 14 16  2  0  0  0  0
 15 36  1  0  0  0  0
 15 37  1  0  0  0  0
 15 38  1  0  0  0  0
 16 17  1  0  0  0  0
 17 18  1  0  0  0  0
 18 19  1  0  0  0  0
 19 39  1  0  0  0  0
 19 40  1  0  0  0  0
 19 41  1  0  0  0  0
 20 21  1  0  0  0  0
 20 42  1  0  0  0  0
 20 43  1  0  0  0  0
 21 44  1  0  0  0  0
 21 45  1  0  0  0  0
M  END
> <s_m_source_file>
AV-unprocessed.smi

> <i_m_source_file_index>
960

> <i_lp_mmshare_version>
43012

> <i_f3d_flags>
0

> <s_epik_input>
W0NIMl09QyhbQ0gzXSlbQ0gyXU4xW0NIMl1bQ0gyXVtDSF0oW0NIMl1bQ0gyXTEpW05IXUMoPU8pW05IXWMyYyhbQ0gzXSlub2MyW0NIM10=

> <s_epik_cmdline>
J2VwaWtfcHl0aG9uJywgJy1waCcsICc3LjAnLCAnLXRuJywgJzgnLCAnLW1hJywgJzIwMCcsICctbWV0YWxfYmluZGluZycsICctaW1hZScsICc8aW5maWxlLm1hZT4nLCAnLW9tYWUnLCAnPG91dGZpbGUubWFlPic=

> <r_epik_Ionization_Penalty>
2.03694

> <r_epik_Ionization_Penalty_Charging>
0

> <r_epik_Ionization_Penalty_Neutral>
2.03694

> <r_epik_State_Penalty>
2.16834

> <r_epik_Charging_Adjusted_Penalty>
2.16834

> <i_epik_Tot_Q>
0

> <i_epik_Tot_abs_Q>
0

> <r_epik_Metal_State_Penalty>
2.16834

> <b_epik_Metal_Only>
0

> <s_lp_Force_Field>
OPLS_2005

> <r_lp_Energy>
16.835

> <b_lp_Chiralities_Consistent>
1

> <s_lp_Variant>
AV-unprocessed.smi:960-3

> <Gold.Version>
5.8.1

> <Gold.Id.Protein>
6NUR|6NUR_protein|mol2

> <Gold.PLP.Fitness>
35.4992

> <Gold.PLP.PLP>
-28.8105

> <Gold.PLP.part.hbond>
-3.0992

> <Gold.PLP.part.metal>
0.0000

> <Gold.PLP.part.buried>
-4.2149

> <Gold.PLP.part.nonpolar>
-21.4434

> <Gold.PLP.part.repulsive>
0.4652

> <Gold.PLP.ligand.clash>
0.0000

> <Gold.PLP.ligand.torsion>
0.9547

> <Gold.PLP.Chemscore.Hbond>
2.7842

> <Gold.PLP.Chemscore.CHOScore>
0.0000

> <Gold.PLP.Chemscore.Metal>
0.0000

> <Gold.Chemscore.Hbonds>
donor molecule, donor type, donor heavy atom, donor atom, acceptor molecule, acceptor atom, score
      L1  H     9    34       P1 10175  1.00
      L1  H    12    35       P1 10175  0.77
      P1  H 11000 11005       L1    17  1.00

> <Gold.PLP.Chemscore.Internal.Correction>
0.2456

> <Gold.Rescore>
     Score         DG    S(hbond)    S(metal)    S(lipo)     H(rot)  DE(clash)    DE(int)     intcor
     14.72     -17.32       2.28        0.00      65.16       1.32       0.20       2.39       ----

> <Gold.Chemscore.Fitness>
14.7194

> <Gold.Chemscore.DG>
-17.3178

> <Gold.Chemscore.ZeroCoef>
-5.4800

> <Gold.Chemscore.Hbond>
2.2754

> <Gold.Chemscore.Metal>
0.0000

> <Gold.Chemscore.Lipo>
65.1568

> <Gold.Chemscore.Internal_Hbond>
0.0000

> <Gold.Chemscore.DEClash>
0.2049

> <Gold.Chemscore.DEInternal>
2.3935

> <Gold.Chemscore.Rot>
1.3225

> <Gold.Chemscore.Internal.Correction>
   9.000000E+99

> <Gold.Chemscore.Hbonds>
donor molecule, donor type, donor heavy atom, donor atom, acceptor molecule, acceptor atom, score
      L1  H     9    34       P1 10175  1.00
      L1  H    12    35       P1 10175  0.74
      P1  H 11000 11005       L1    17  0.24

> <Gold.Chemscore.Hbond.Weighted>
-7.6000

> <Gold.Chemscore.Metal.Weighted>
-0.0000

> <Gold.Chemscore.Lipo.Weighted>
-7.6234

> <Gold.Chemscore.Internal_Hbond.Weighted>
0.0000

> <Gold.Chemscore.DEClash.Weighted>
0.2049

> <Gold.Chemscore.DEInternal.Weighted>
2.3935

> <Gold.Chemscore.Rot.Weighted>
3.3856

> <Gold.Chemscore.Internal.Correction.Weighted>
   9.000000E+99

> <Gold.Protein.RotatedTorsions>
[ 6907 6896 6895 6894 ] final  -93.52 input  -60.11 | X-H torsion
[ 7974 7965 7964 7962 ] final  152.84 input  175.53 | X-H torsion
[ 8008 7997 7996 7995 ] final -165.90 input   59.86 | X-H torsion
[ 10167 10162 10161 10158 ] final   -7.06 input  -65.29 | X-H torsion
[ 10718 10713 10712 10709 ] final -131.24 input   66.30 | X-H torsion
[ 10763 10752 10751 10750 ] final  174.59 input  -60.55 | X-H torsion
[ 11005 11000 10999 10996 ] final   50.24 input  -57.11 | X-H torsion

> <Gold.Protein.ActiveResidues>
 VAL166  LYS551  ARG553  GLY616  TRP617  ASP618  TYR619  PRO620  LYS621  CYS622 
 ASP623  PHE694  ASN695  SER759  ASP760  ASP761  ALA762  ILE779  LEU786  VAL792 
 PHE793  MET794  SER795  GLU796  ALA797  LYS798  CYS799  TRP800  GLU811  SER814 

> <Gold.Protein.RotatedAtoms>
  150.6924  134.1955  159.4301 H   0  0  0  0  0  0  0  0  0  0  0  0  # atno 6907 bound_to 6896
  151.9924  134.9970  160.0571 H   0  0  0  0  0  0  0  0  0  0  0  0  # atno 6908 bound_to 6896
  152.1655  133.4574  159.4919 H   0  0  0  0  0  0  0  0  0  0  0  0  # atno 6909 bound_to 6896
  144.8195  139.6721  143.6106 H   0  0  0  0  0  0  0  0  0  0  0  0  # atno 7974 bound_to 7965
  155.8564  140.0971  157.1642 H   0  0  0  0  0  0  0  0  0  0  0  0  # atno 8008 bound_to 7997
  154.3988  140.1373  156.3969 H   0  0  0  0  0  0  0  0  0  0  0  0  # atno 8009 bound_to 7997
  155.7905  140.3456  155.5349 H   0  0  0  0  0  0  0  0  0  0  0  0  # atno 8010 bound_to 7997
  140.7017  143.6124  150.8691 H   0  0  0  0  0  0  0  0  0  0  0  0  # atno 10167 bound_to 10162
  156.2224  130.6987  151.0770 H   0  0  0  0  0  0  0  0  0  0  0  0  # atno 10718 bound_to 10713
  154.4560  135.2766  155.1747 H   0  0  0  0  0  0  0  0  0  0  0  0  # atno 10763 bound_to 10752
  154.3555  135.6141  153.5667 H   0  0  0  0  0  0  0  0  0  0  0  0  # atno 10764 bound_to 10752
  152.9851  135.5821  154.4913 H   0  0  0  0  0  0  0  0  0  0  0  0  # atno 10765 bound_to 10752
  140.1034  134.5050  155.8741 H   0  0  0  0  0  0  0  0  0  0  0  0  # atno 11005 bound_to 11000
  146.2500  139.6179  142.9433 LP  0  0  0  0  0  0  0  0  0  0  0  0  # atno 17320 bound_to 7965
  145.5137  141.0434  143.2473 LP  0  0  0  0  0  0  0  0  0  0  0  0  # atno 17321 bound_to 7965
  139.9846  143.5913  152.2931 LP  0  0  0  0  0  0  0  0  0  0  0  0  # atno 17342 bound_to 10162
  139.6547  144.7662  151.2080 LP  0  0  0  0  0  0  0  0  0  0  0  0  # atno 17343 bound_to 10162
  157.7094  131.0741  150.6554 LP  0  0  0  0  0  0  0  0  0  0  0  0  # atno 17370 bound_to 10713
  156.6618  130.4514  149.5685 LP  0  0  0  0  0  0  0  0  0  0  0  0  # atno 17371 bound_to 10713
  141.2112  133.6703  156.6564 LP  0  0  0  0  0  0  0  0  0  0  0  0  # atno 17394 bound_to 11000
  140.3188  134.8025  157.4236 LP  0  0  0  0  0  0  0  0  0  0  0  0  # atno 17395 bound_to 11000

$$$$
