AV-unprocessed.smi:1480|AV-procd|sdf|5986|dock1
  -GOLD-   22720 6 83D 1   1.00000     0.00000
 Structure written by MMmdl.
 37 38  0  0  0  0  0  0  0  0  1 V2000
  151.7158  145.7891  160.4245 C   0  0  0  0  0  0  0  0  0  0  0  0
  152.1931  144.4108  160.2992 N   0  0  0  0  0  0  0  0  0  0  0  0
  152.2355  143.6501  161.5563 C   0  0  0  0  0  0  0  0  0  0  0  0
  153.1045  142.3881  161.4817 C   0  0  0  0  0  0  0  0  0  0  0  0
  152.7620  141.5864  160.2194 C   0  0  2  0  0  0  0  0  0  0  0  0
  153.5807  140.2884  160.1585 C   0  0  0  0  0  0  0  0  0  0  0  0
  154.3039  140.0695  159.1867 O   0  0  0  0  0  0  0  0  0  0  0  0
  153.4443  139.4613  161.2114 N   0  0  0  0  0  0  0  0  0  0  0  0
  154.0536  138.1988  161.4317 C   0  0  0  0  0  0  0  0  0  0  0  0
  153.9384  137.4014  162.6102 C   0  0  0  0  0  0  0  0  0  0  0  0
  154.7047  136.3078  162.3243 C   0  0  0  0  0  0  0  0  0  0  0  0
  155.2202  136.4811  161.0553 N   0  0  0  0  0  0  0  0  0  0  0  0
  156.0936  135.5925  160.3094 C   0  0  0  0  0  0  0  0  0  0  0  0
  155.4221  134.2417  160.0571 C   0  0  0  0  0  0  0  0  0  0  0  0
  156.0098  133.1617  160.5785 N   0  0  0  0  0  0  0  0  0  0  0  0
  154.3856  134.1745  159.4002 O   0  0  0  0  0  0  0  0  0  0  0  0
  154.8187  137.6482  160.5045 N   0  0  0  0  0  0  0  0  0  0  0  0
  153.0115  142.4553  158.9699 C   0  0  0  0  0  0  0  0  0  0  0  0
  152.4770  143.8934  159.0793 C   0  0  0  0  0  0  0  0  0  0  0  0
  152.3530  144.5441  158.0413 O   0  0  0  0  0  0  0  0  0  0  0  0
  150.7942  145.9295  159.8578 H   0  0  0  0  0  0  0  0  0  0  0  0
  152.4605  146.4894  160.0441 H   0  0  0  0  0  0  0  0  0  0  0  0
  151.5052  146.0619  161.4592 H   0  0  0  0  0  0  0  0  0  0  0  0
  152.6003  144.2823  162.3671 H   0  0  0  0  0  0  0  0  0  0  0  0
  151.2124  143.3730  161.8140 H   0  0  0  0  0  0  0  0  0  0  0  0
  154.1576  142.6753  161.4724 H   0  0  0  0  0  0  0  0  0  0  0  0
  152.9538  141.7842  162.3777 H   0  0  0  0  0  0  0  0  0  0  0  0
  151.7016  141.3282  160.2545 H   0  0  0  0  0  0  0  0  0  0  0  0
  152.8228  139.7725  161.9437 H   0  0  0  0  0  0  0  0  0  0  0  0
  153.3917  137.5840  163.5227 H   0  0  0  0  0  0  0  0  0  0  0  0
  154.9238  135.4280  162.9113 H   0  0  0  0  0  0  0  0  0  0  0  0
  156.3732  136.0587  159.3630 H   0  0  0  0  0  0  0  0  0  0  0  0
  157.0127  135.4484  160.8789 H   0  0  0  0  0  0  0  0  0  0  0  0
  155.5990  132.2492  160.4429 H   0  0  0  0  0  0  0  0  0  0  0  0
  156.8610  133.2630  161.1124 H   0  0  0  0  0  0  0  0  0  0  0  0
  154.0803  142.5304  158.7635 H   0  0  0  0  0  0  0  0  0  0  0  0
  152.5630  141.9799  158.0965 H   0  0  0  0  0  0  0  0  0  0  0  0
  1  2  1  0  0  0  0
  1 21  1  0  0  0  0
  1 22  1  0  0  0  0
  1 23  1  0  0  0  0
  2 19  1  0  0  0  0
  2  3  1  0  0  0  0
  3  4  1  0  0  0  0
  3 24  1  0  0  0  0
  3 25  1  0  0  0  0
  4  5  1  0  0  0  0
  4 26  1  0  0  0  0
  4 27  1  0  0  0  0
  5  6  1  0  0  0  0
  5 18  1  0  0  0  0
  5 28  1  0  0  0  0
  6  7  2  0  0  0  0
  6  8  1  0  0  0  0
  8  9  1  0  0  0  0
  8 29  1  0  0  0  0
  9 17  2  0  0  0  0
  9 10  1  0  0  0  0
 10 11  2  0  0  0  0
 10 30  1  0  0  0  0
 11 12  1  0  0  0  0
 11 31  1  0  0  0  0
 12 13  1  0  0  0  0
 12 17  1  0  0  0  0
 13 14  1  0  0  0  0
 13 32  1  0  0  0  0
 13 33  1  0  0  0  0
 14 15  1  0  0  0  0
 14 16  2  0  0  0  0
 15 34  1  0  0  0  0
 15 35  1  0  0  0  0
 18 19  1  0  0  0  0
 18 36  1  0  0  0  0
 18 37  1  0  0  0  0
 19 20  2  0  0  0  0
M  END
> <s_m_source_file>
AV-unprocessed.smi

> <i_m_source_file_index>
1480

> <i_lp_mmshare_version>
43012

> <i_f3d_flags>
0

> <s_epik_input>
W0NIM11OMVtDSDJdW0NIMl1bQ0BIXShbQ0gyXUMxPU8pQyg9TylbTkhdYzJbY0hdW2NIXW4objIpW0NIMl1DKD1PKVtOSDJd

> <s_epik_cmdline>
J2VwaWtfcHl0aG9uJywgJy1waCcsICc3LjAnLCAnLXRuJywgJzgnLCAnLW1hJywgJzIwMCcsICctbWV0YWxfYmluZGluZycsICctaW1hZScsICc8aW5maWxlLm1hZT4nLCAnLW9tYWUnLCAnPG91dGZpbGUubWFlPic=

> <r_lp_tautomer_probability>
1

> <r_epik_Ionization_Penalty>
3.93272e-06

> <r_epik_Ionization_Penalty_Charging>
0

> <r_epik_Ionization_Penalty_Neutral>
3.93272e-06

> <r_epik_State_Penalty>
-0

> <r_epik_Charging_Adjusted_Penalty>
0

> <i_epik_Tot_Q>
0

> <i_epik_Tot_abs_Q>
0

> <r_epik_Metal_State_Penalty>
-0

> <b_epik_Metal_Only>
0

> <s_lp_Force_Field>
OPLS_2005

> <r_lp_Energy>
16.8293

> <b_lp_Chiralities_Consistent>
1

> <s_lp_Variant>
AV-unprocessed.smi:1480-2

> <Gold.Version>
5.8.1

> <Gold.Id.Protein>
6NUR|6NUR_protein|mol2

> <Gold.PLP.Fitness>
43.3664

> <Gold.PLP.PLP>
-37.3836

> <Gold.PLP.part.hbond>
-2.0000

> <Gold.PLP.part.metal>
0.0000

> <Gold.PLP.part.buried>
-2.3431

> <Gold.PLP.part.nonpolar>
-33.4809

> <Gold.PLP.part.repulsive>
0.1291

> <Gold.PLP.ligand.clash>
0.0000

> <Gold.PLP.ligand.torsion>
0.0155

> <Gold.PLP.Chemscore.Hbond>
2.0000

> <Gold.PLP.Chemscore.CHOScore>
0.0000

> <Gold.PLP.Chemscore.Metal>
0.0000

> <Gold.Chemscore.Hbonds>
donor molecule, donor type, donor heavy atom, donor atom, acceptor molecule, acceptor atom, score
      P1  H  6896  6908       L1    16  1.00
      P1  H  7997  8009       L1     7  0.99

> <Gold.PLP.Chemscore.Internal.Correction>
0.0138

> <Gold.Rescore>
     Score         DG    S(hbond)    S(metal)    S(lipo)     H(rot)  DE(clash)    DE(int)     intcor
     13.49     -15.20       1.94        0.00      72.12       2.03       0.30       1.41       ----

> <Gold.Chemscore.Fitness>
13.4926

> <Gold.Chemscore.DG>
-15.1969

> <Gold.Chemscore.ZeroCoef>
-5.4800

> <Gold.Chemscore.Hbond>
1.9365

> <Gold.Chemscore.Metal>
0.0000

> <Gold.Chemscore.Lipo>
72.1160

> <Gold.Chemscore.Internal_Hbond>
0.0000

> <Gold.Chemscore.DEClash>
0.2990

> <Gold.Chemscore.DEInternal>
1.4053

> <Gold.Chemscore.Rot>
2.0269

> <Gold.Chemscore.Internal.Correction>
   9.000000E+99

> <Gold.Chemscore.Hbonds>
donor molecule, donor type, donor heavy atom, donor atom, acceptor molecule, acceptor atom, score
      P1  H  6896  6908       L1    16  1.00
      P1  H  7997  8009       L1     7  0.91

> <Gold.Chemscore.Hbond.Weighted>
-6.4680

> <Gold.Chemscore.Metal.Weighted>
-0.0000

> <Gold.Chemscore.Lipo.Weighted>
-8.4376

> <Gold.Chemscore.Internal_Hbond.Weighted>
0.0000

> <Gold.Chemscore.DEClash.Weighted>
0.2990

> <Gold.Chemscore.DEInternal.Weighted>
1.4053

> <Gold.Chemscore.Rot.Weighted>
5.1888

> <Gold.Chemscore.Internal.Correction.Weighted>
   9.000000E+99

> <Gold.Protein.RotatedTorsions>
[ 6907 6896 6895 6894 ] final  -20.22 input  -60.11 | X-H torsion
[ 7974 7965 7964 7962 ] final  -32.76 input  175.53 | X-H torsion
[ 8008 7997 7996 7995 ] final  122.83 input   59.86 | X-H torsion
[ 10167 10162 10161 10158 ] final   55.75 input  -65.29 | X-H torsion
[ 10718 10713 10712 10709 ] final  -42.07 input   66.30 | X-H torsion
[ 10763 10752 10751 10750 ] final   56.98 input  -60.55 | X-H torsion
[ 11005 11000 10999 10996 ] final  -48.22 input  -57.11 | X-H torsion

> <Gold.Protein.ActiveResidues>
 VAL166  LYS551  ARG553  GLY616  TRP617  ASP618  TYR619  PRO620  LYS621  CYS622 
 ASP623  PHE694  ASN695  SER759  ASP760  ASP761  ALA762  ILE779  LEU786  VAL792 
 PHE793  MET794  SER795  GLU796  ALA797  LYS798  CYS799  TRP800  GLU811  SER814 

> <Gold.Protein.RotatedAtoms>
  151.2514  135.0623  159.9063 H   0  0  0  0  0  0  0  0  0  0  0  0  # atno 6907 bound_to 6896
  152.5379  134.0328  159.8042 H   0  0  0  0  0  0  0  0  0  0  0  0  # atno 6908 bound_to 6896
  151.0536  133.5553  159.2671 H   0  0  0  0  0  0  0  0  0  0  0  0  # atno 6909 bound_to 6896
  146.0964  140.5833  142.8841 H   0  0  0  0  0  0  0  0  0  0  0  0  # atno 7974 bound_to 7965
  156.2743  140.2776  156.1531 H   0  0  0  0  0  0  0  0  0  0  0  0  # atno 8008 bound_to 7997
  155.0832  140.0388  157.2663 H   0  0  0  0  0  0  0  0  0  0  0  0  # atno 8009 bound_to 7997
  154.6947  140.2636  155.6783 H   0  0  0  0  0  0  0  0  0  0  0  0  # atno 8010 bound_to 7997
  140.2161  144.3838  150.6469 H   0  0  0  0  0  0  0  0  0  0  0  0  # atno 10167 bound_to 10162
  156.2635  130.4199  149.8516 H   0  0  0  0  0  0  0  0  0  0  0  0  # atno 10718 bound_to 10713
  152.9841  135.5657  154.5316 H   0  0  0  0  0  0  0  0  0  0  0  0  # atno 10763 bound_to 10752
  154.4787  135.2787  155.1590 H   0  0  0  0  0  0  0  0  0  0  0  0  # atno 10764 bound_to 10752
  154.3107  135.6289  153.5518 H   0  0  0  0  0  0  0  0  0  0  0  0  # atno 10765 bound_to 10752
  141.0688  133.6685  156.3410 H   0  0  0  0  0  0  0  0  0  0  0  0  # atno 11005 bound_to 11000
  144.7399  140.4912  143.6877 LP  0  0  0  0  0  0  0  0  0  0  0  0  # atno 17320 bound_to 7965
  145.5940  139.1498  143.3166 LP  0  0  0  0  0  0  0  0  0  0  0  0  # atno 17321 bound_to 7965
  140.6289  143.2185  151.6538 LP  0  0  0  0  0  0  0  0  0  0  0  0  # atno 17342 bound_to 10162
  139.5161  144.3356  152.0787 LP  0  0  0  0  0  0  0  0  0  0  0  0  # atno 17343 bound_to 10162
  156.6022  130.8551  151.3434 LP  0  0  0  0  0  0  0  0  0  0  0  0  # atno 17370 bound_to 10713
  157.7259  130.9622  150.1634 LP  0  0  0  0  0  0  0  0  0  0  0  0  # atno 17371 bound_to 10713
  140.5717  134.5833  157.5459 LP  0  0  0  0  0  0  0  0  0  0  0  0  # atno 17394 bound_to 11000
  139.9502  134.7630  156.0465 LP  0  0  0  0  0  0  0  0  0  0  0  0  # atno 17395 bound_to 11000

$$$$
