AV-unprocessed.smi:1512|AV-procd|sdf|6105|dock7
  -GOLD-   22720 6233D 1   1.00000     0.00000
 Structure written by MMmdl.
 44 46  0  0  0  0  0  0  0  0  3 V2000
  151.8590  140.0935  157.8400 C   0  0  0  0  0  0  0  0  0  0  0  0
  151.3110  141.5171  157.6471 C   0  0  1  0  0  0  0  0  0  0  0  0
  150.0953  141.4789  156.8420 N   0  0  0  0  0  0  0  0  0  0  0  0
  149.9671  140.9369  155.6190 C   0  0  0  0  0  0  0  0  0  0  0  0
  150.8655  140.2994  155.0715 O   0  0  0  0  0  0  0  0  0  0  0  0
  148.6396  141.1597  154.8724 C   0  0  0  0  0  0  0  0  0  0  0  0
  147.8560  139.9315  154.6344 N   0  0  0  0  0  0  0  0  0  0  0  0
  147.5458  139.6224  153.2968 C   0  0  0  0  0  0  0  0  0  0  0  0
  146.8649  138.5164  152.9648 C   0  0  0  0  0  0  0  0  0  0  0  0
  146.4590  137.6212  154.0209 C   0  0  0  0  0  0  0  0  0  0  0  0
  146.7463  137.8969  155.3137 C   0  0  0  0  0  0  0  0  0  0  0  0
  146.3373  136.9449  156.3197 N   0  3  0  0  0  0  0  0  0  0  0  0
  146.5979  137.1792  157.4960 O   0  0  0  0  0  0  0  0  0  0  0  0
  145.7578  135.9247  155.9597 O   0  5  0  0  0  0  0  0  0  0  0  0
  147.4707  139.1314  155.6779 C   0  0  0  0  0  0  0  0  0  0  0  0
  147.7275  139.4358  156.8441 O   0  0  0  0  0  0  0  0  0  0  0  0
  150.9898  142.2128  158.9910 C   0  0  2  0  0  0  0  0  0  0  0  0
  150.0332  143.4247  158.8900 C   0  0  0  0  0  0  0  0  0  0  0  0
  150.7611  144.5078  159.7067 C   0  0  2  0  0  0  0  0  0  0  0  0
  151.9568  145.0305  158.8902 C   0  0  0  0  0  0  0  0  0  0  0  0
  152.9549  143.8606  158.9671 C   0  0  0  0  0  0  0  0  0  0  0  0
  152.1831  142.8025  159.7830 C   0  0  1  0  0  0  0  0  0  0  0  0
  151.4536  143.6871  160.7896 C   0  0  0  0  0  0  0  0  0  0  0  0
  152.7920  140.1028  158.4036 H   0  0  0  0  0  0  0  0  0  0  0  0
  152.0650  139.6160  156.8815 H   0  0  0  0  0  0  0  0  0  0  0  0
  151.1497  139.4650  158.3793 H   0  0  0  0  0  0  0  0  0  0  0  0
  152.0511  142.1074  157.1066 H   0  0  0  0  0  0  0  0  0  0  0  0
  149.2981  141.9718  157.2173 H   0  0  0  0  0  0  0  0  0  0  0  0
  148.0409  141.8780  155.4352 H   0  0  0  0  0  0  0  0  0  0  0  0
  148.8657  141.6600  153.9300 H   0  0  0  0  0  0  0  0  0  0  0  0
  147.8961  140.3349  152.5641 H   0  0  0  0  0  0  0  0  0  0  0  0
  146.6363  138.2954  151.9324 H   0  0  0  0  0  0  0  0  0  0  0  0
  145.9367  136.7119  153.7607 H   0  0  0  0  0  0  0  0  0  0  0  0
  150.5115  141.4711  159.6339 H   0  0  0  0  0  0  0  0  0  0  0  0
  149.8559  143.7484  157.8633 H   0  0  0  0  0  0  0  0  0  0  0  0
  149.0642  143.1841  159.3293 H   0  0  0  0  0  0  0  0  0  0  0  0
  150.1027  145.2963  160.0721 H   0  0  0  0  0  0  0  0  0  0  0  0
  151.6818  145.2759  157.8637 H   0  0  0  0  0  0  0  0  0  0  0  0
  152.3795  145.9263  159.3465 H   0  0  0  0  0  0  0  0  0  0  0  0
  153.2744  143.5101  157.9868 H   0  0  0  0  0  0  0  0  0  0  0  0
  153.8530  144.1694  159.5034 H   0  0  0  0  0  0  0  0  0  0  0  0
  152.8259  142.0458  160.2336 H   0  0  0  0  0  0  0  0  0  0  0  0
  152.1254  144.2761  161.4164 H   0  0  0  0  0  0  0  0  0  0  0  0
  150.7585  143.1392  161.4286 H   0  0  0  0  0  0  0  0  0  0  0  0
  1  2  1  0  0  0  0
  1 24  1  0  0  0  0
  1 25  1  0  0  0  0
  1 26  1  0  0  0  0
  2  3  1  0  0  0  0
  2 17  1  0  0  0  0
  2 27  1  0  0  0  0
  3  4  1  0  0  0  0
  3 28  1  0  0  0  0
  4  5  2  0  0  0  0
  4  6  1  0  0  0  0
  6  7  1  0  0  0  0
  6 29  1  0  0  0  0
  6 30  1  0  0  0  0
  7 15  1  0  0  0  0
  7  8  1  0  0  0  0
  8  9  2  0  0  0  0
  8 31  1  0  0  0  0
  9 10  1  0  0  0  0
  9 32  1  0  0  0  0
 10 11  2  0  0  0  0
 10 33  1  0  0  0  0
 11 12  1  0  0  0  0
 11 15  1  0  0  0  0
 12 13  2  0  0  0  0
 12 14  1  0  0  0  0
 15 16  2  0  0  0  0
 17 22  1  0  0  0  0
 17 18  1  0  0  0  0
 17 34  1  0  0  0  0
 18 19  1  0  0  0  0
 18 35  1  0  0  0  0
 18 36  1  0  0  0  0
 19 23  1  0  0  0  0
 19 20  1  0  0  0  0
 19 37  1  0  0  0  0
 20 21  1  0  0  0  0
 20 38  1  0  0  0  0
 20 39  1  0  0  0  0
 21 22  1  0  0  0  0
 21 40  1  0  0  0  0
 21 41  1  0  0  0  0
 22 23  1  0  0  0  0
 22 42  1  0  0  0  0
 23 43  1  0  0  0  0
 23 44  1  0  0  0  0
M  CHG  1  12   1
M  CHG  1  14  -1
M  END
> <s_m_source_file>
AV-unprocessed.smi

> <i_m_source_file_index>
1512

> <i_lp_mmshare_version>
43012

> <i_f3d_flags>
0

> <s_epik_input>
W0NIMl0xW0NIMl1bQ0BIXShbQ0gyXTIpW0NAQEhdKFtDSDJdW0NAQEhdMTIpW0NASF0oW0NIM10pW05IXUMoPU8pW0NIMl1uM1tjSF1bY0hdW2NIXWMoW04rXSg9TylbTy1dKWMzPU8=

> <s_epik_cmdline>
J2VwaWtfcHl0aG9uJywgJy1waCcsICc3LjAnLCAnLXRuJywgJzgnLCAnLW1hJywgJzIwMCcsICctbWV0YWxfYmluZGluZycsICctaW1hZScsICc8aW5maWxlLm1hZT4nLCAnLW9tYWUnLCAnPG91dGZpbGUubWFlPic=

> <r_lp_tautomer_probability>
1

> <r_epik_Ionization_Penalty>
2.17697e-08

> <r_epik_Ionization_Penalty_Charging>
1.42735e-10

> <r_epik_Ionization_Penalty_Neutral>
2.16269e-08

> <r_epik_State_Penalty>
-0

> <r_epik_Charging_Adjusted_Penalty>
1.42735e-10

> <i_epik_Tot_Q>
0

> <i_epik_Tot_abs_Q>
2

> <r_epik_Metal_State_Penalty>
-0

> <b_epik_Metal_Only>
0

> <s_lp_Force_Field>
OPLS_2005

> <r_lp_Energy>
64.4109

> <b_lp_Chiralities_Consistent>
1

> <s_lp_Variant>
AV-unprocessed.smi:1512-6

> <Gold.Version>
5.8.1

> <Gold.Id.Protein>
6NUR|6NUR_protein|mol2

> <Gold.PLP.Fitness>
43.9081

> <Gold.PLP.PLP>
-39.0002

> <Gold.PLP.part.hbond>
-1.0000

> <Gold.PLP.part.metal>
0.0000

> <Gold.PLP.part.buried>
-4.4708

> <Gold.PLP.part.nonpolar>
-34.3542

> <Gold.PLP.part.repulsive>
0.0861

> <Gold.PLP.ligand.clash>
0.0000

> <Gold.PLP.ligand.torsion>
0.4167

> <Gold.PLP.Chemscore.Hbond>
1.0000

> <Gold.PLP.Chemscore.CHOScore>
0.9083

> <Gold.PLP.Chemscore.Metal>
0.0000

> <Gold.Chemscore.Hbonds>
donor molecule, donor type, donor heavy atom, donor atom, acceptor molecule, acceptor atom, score
      P1  H  7989  7998       L1     5  1.00
      L1  C     8    31       P1  7957  0.93

> <Gold.PLP.Chemscore.Internal.Correction>
0.0162

> <Gold.Rescore>
     Score         DG    S(hbond)    S(metal)    S(lipo)     H(rot)  DE(clash)    DE(int)     intcor
     14.68     -18.10       0.97        0.00     118.47       1.75       0.23       3.20       ----

> <Gold.Chemscore.Fitness>
14.6753

> <Gold.Chemscore.DG>
-18.1026

> <Gold.Chemscore.ZeroCoef>
-5.4800

> <Gold.Chemscore.Hbond>
0.9687

> <Gold.Chemscore.Metal>
0.0000

> <Gold.Chemscore.Lipo>
118.4656

> <Gold.Chemscore.Internal_Hbond>
0.0000

> <Gold.Chemscore.DEClash>
0.2290

> <Gold.Chemscore.DEInternal>
3.1983

> <Gold.Chemscore.Rot>
1.7474

> <Gold.Chemscore.Internal.Correction>
   9.000000E+99

> <Gold.Chemscore.Hbonds>
donor molecule, donor type, donor heavy atom, donor atom, acceptor molecule, acceptor atom, score
      P1  H  7989  7998       L1     5  0.97

> <Gold.Chemscore.Hbond.Weighted>
-3.2354

> <Gold.Chemscore.Metal.Weighted>
-0.0000

> <Gold.Chemscore.Lipo.Weighted>
-13.8605

> <Gold.Chemscore.Internal_Hbond.Weighted>
0.0000

> <Gold.Chemscore.DEClash.Weighted>
0.2290

> <Gold.Chemscore.DEInternal.Weighted>
3.1983

> <Gold.Chemscore.Rot.Weighted>
4.4733

> <Gold.Chemscore.Internal.Correction.Weighted>
   9.000000E+99

> <Gold.Protein.RotatedTorsions>
[ 6907 6896 6895 6894 ] final   23.81 input  -60.11 | X-H torsion
[ 7974 7965 7964 7962 ] final  107.85 input  175.53 | X-H torsion
[ 8008 7997 7996 7995 ] final   52.41 input   59.86 | X-H torsion
[ 10167 10162 10161 10158 ] final  -86.33 input  -65.29 | X-H torsion
[ 10718 10713 10712 10709 ] final   63.53 input   66.30 | X-H torsion
[ 10763 10752 10751 10750 ] final -113.58 input  -60.55 | X-H torsion
[ 11005 11000 10999 10996 ] final -105.25 input  -57.11 | X-H torsion

> <Gold.Protein.ActiveResidues>
 VAL166  LYS551  ARG553  GLY616  TRP617  ASP618  TYR619  PRO620  LYS621  CYS622 
 ASP623  PHE694  ASN695  SER759  ASP760  ASP761  ALA762  ILE779  LEU786  VAL792 
 PHE793  MET794  SER795  GLU796  ALA797  LYS798  CYS799  TRP800  GLU811  SER814 

> <Gold.Protein.RotatedAtoms>
  151.9480  135.0183  160.0539 H   0  0  0  0  0  0  0  0  0  0  0  0  # atno 6907 bound_to 6896
  152.1978  133.4815  159.5051 H   0  0  0  0  0  0  0  0  0  0  0  0  # atno 6908 bound_to 6896
  150.6948  134.1546  159.4196 H   0  0  0  0  0  0  0  0  0  0  0  0  # atno 6909 bound_to 6896
  145.2883  139.2609  143.3878 H   0  0  0  0  0  0  0  0  0  0  0  0  # atno 7974 bound_to 7965
  155.4514  140.3458  155.4301 H   0  0  0  0  0  0  0  0  0  0  0  0  # atno 8008 bound_to 7997
  156.1218  140.1489  156.9223 H   0  0  0  0  0  0  0  0  0  0  0  0  # atno 8009 bound_to 7997
  154.4829  140.0864  156.7398 H   0  0  0  0  0  0  0  0  0  0  0  0  # atno 8010 bound_to 7997
  140.3952  143.2687  151.9214 H   0  0  0  0  0  0  0  0  0  0  0  0  # atno 10167 bound_to 10162
  157.5978  130.9110  149.9728 H   0  0  0  0  0  0  0  0  0  0  0  0  # atno 10718 bound_to 10713
  154.8402  135.4449  154.1372 H   0  0  0  0  0  0  0  0  0  0  0  0  # atno 10763 bound_to 10752
  153.2567  135.6932  153.7628 H   0  0  0  0  0  0  0  0  0  0  0  0  # atno 10764 bound_to 10752
  153.6920  135.3386  155.3180 H   0  0  0  0  0  0  0  0  0  0  0  0  # atno 10765 bound_to 10752
  141.1062  133.8792  157.1711 H   0  0  0  0  0  0  0  0  0  0  0  0  # atno 11005 bound_to 11000
  146.3193  140.3367  142.8644 LP  0  0  0  0  0  0  0  0  0  0  0  0  # atno 17320 bound_to 7965
  144.9194  140.7851  143.5757 LP  0  0  0  0  0  0  0  0  0  0  0  0  # atno 17321 bound_to 7965
  139.4787  144.5688  151.8121 LP  0  0  0  0  0  0  0  0  0  0  0  0  # atno 17342 bound_to 10162
  140.4798  144.1466  150.5931 LP  0  0  0  0  0  0  0  0  0  0  0  0  # atno 17343 bound_to 10162
  156.1044  130.3653  150.0160 LP  0  0  0  0  0  0  0  0  0  0  0  0  # atno 17370 bound_to 10713
  156.8270  130.9379  151.3639 LP  0  0  0  0  0  0  0  0  0  0  0  0  # atno 17371 bound_to 10713
  139.9934  135.0056  157.0026 LP  0  0  0  0  0  0  0  0  0  0  0  0  # atno 17394 bound_to 11000
  140.4895  134.1207  155.7230 LP  0  0  0  0  0  0  0  0  0  0  0  0  # atno 17395 bound_to 11000

$$$$
