AV-unprocessed.smi:3019|AV-procd|sdf|11491|dock2
  -GOLD-   2272016433D 1   1.00000     0.00000
 Structure written by MMmdl.
 30 31  0  0  0  0  0  0  0  0  1 V2000
  152.8222  142.0037  161.0193 C   0  0  0  0  0  0  0  0  0  0  0  0
  152.5650  143.2704  160.1902 C   0  0  0  0  0  0  0  0  0  0  0  0
  151.8910  144.3892  160.9983 C   0  0  0  0  0  0  0  0  0  0  0  0
  151.8104  142.9651  158.9327 C   0  0  0  0  0  0  0  0  0  0  0  0
  150.7364  143.6720  158.5824 N   0  0  0  0  0  0  0  0  0  0  0  0
  150.3763  143.0812  157.4238 N   0  0  0  0  0  0  0  0  0  0  0  0
  151.2256  142.0890  157.1489 C   0  0  0  0  0  0  0  0  0  0  0  0
  151.0811  141.2333  155.9304 C   0  0  2  0  0  0  0  0  0  0  0  0
  149.7961  141.5506  155.1407 C   0  0  0  0  0  0  0  0  0  0  0  0
  149.6542  140.6303  154.0133 N   0  0  0  0  0  0  0  0  0  0  0  0
  149.6977  139.2385  154.4596 C   0  0  0  0  0  0  0  0  0  0  0  0
  150.9790  138.9758  155.2711 C   0  0  0  0  0  0  0  0  0  0  0  0
  151.0413  139.8783  156.3702 O   0  0  0  0  0  0  0  0  0  0  0  0
  152.1680  141.9586  158.0778 N   0  0  0  0  0  0  0  0  0  0  0  0
  149.5798  143.3769  156.8776 H   0  0  0  0  0  0  0  0  0  0  0  0
  153.3616  141.2569  160.4362 H   0  0  0  0  0  0  0  0  0  0  0  0
  151.8882  141.5527  161.3556 H   0  0  0  0  0  0  0  0  0  0  0  0
  153.4197  142.2276  161.9034 H   0  0  0  0  0  0  0  0  0  0  0  0
  153.5449  143.6503  159.8961 H   0  0  0  0  0  0  0  0  0  0  0  0
  151.7861  145.2951  160.4003 H   0  0  0  0  0  0  0  0  0  0  0  0
  152.4761  144.6423  161.8827 H   0  0  0  0  0  0  0  0  0  0  0  0
  150.8958  144.0935  161.3320 H   0  0  0  0  0  0  0  0  0  0  0  0
  151.9581  141.3829  155.2972 H   0  0  0  0  0  0  0  0  0  0  0  0
  148.9290  141.4653  155.7971 H   0  0  0  0  0  0  0  0  0  0  0  0
  149.8190  142.5802  154.7833 H   0  0  0  0  0  0  0  0  0  0  0  0
  148.7740  140.8071  153.5393 H   0  0  0  0  0  0  0  0  0  0  0  0
  148.8246  139.0184  155.0752 H   0  0  0  0  0  0  0  0  0  0  0  0
  149.6538  138.5679  153.6013 H   0  0  0  0  0  0  0  0  0  0  0  0
  150.9778  137.9547  155.6525 H   0  0  0  0  0  0  0  0  0  0  0  0
  151.8669  139.0809  154.6456 H   0  0  0  0  0  0  0  0  0  0  0  0
  1  2  1  0  0  0  0
  1 16  1  0  0  0  0
  1 17  1  0  0  0  0
  1 18  1  0  0  0  0
  2  3  1  0  0  0  0
  2  4  1  0  0  0  0
  2 19  1  0  0  0  0
  3 20  1  0  0  0  0
  3 21  1  0  0  0  0
  3 22  1  0  0  0  0
  4 14  1  0  0  0  0
  4  5  2  0  0  0  0
  5  6  1  0  0  0  0
  6 15  1  0  0  0  0
  6  7  1  0  0  0  0
  7  8  1  0  0  0  0
  7 14  2  0  0  0  0
  8 13  1  0  0  0  0
  8  9  1  0  0  0  0
  8 23  1  0  0  0  0
  9 10  1  0  0  0  0
  9 24  1  0  0  0  0
  9 25  1  0  0  0  0
 10 11  1  0  0  0  0
 10 26  1  0  0  0  0
 11 12  1  0  0  0  0
 11 27  1  0  0  0  0
 11 28  1  0  0  0  0
 12 13  1  0  0  0  0
 12 29  1  0  0  0  0
 12 30  1  0  0  0  0
M  END
> <s_m_source_file>
AV-unprocessed.smi

> <i_m_source_file_index>
3019

> <i_lp_mmshare_version>
43012

> <i_f3d_flags>
0

> <s_epik_input>
W0NIM11bQ0hdKFtDSDNdKWMxbltuSF1jKG4xKVtDQEBIXTJbQ0gyXVtOSF1bQ0gyXVtDSDJdTzI=

> <s_epik_cmdline>
J2VwaWtfcHl0aG9uJywgJy1waCcsICc3LjAnLCAnLXRuJywgJzgnLCAnLW1hJywgJzIwMCcsICctbWV0YWxfYmluZGluZycsICctaW1hZScsICc8aW5maWxlLm1hZT4nLCAnLW9tYWUnLCAnPG91dGZpbGUubWFlPic=

> <r_epik_Ionization_Penalty>
0.981987

> <r_epik_Ionization_Penalty_Charging>
0

> <r_epik_Ionization_Penalty_Neutral>
0.981987

> <r_epik_State_Penalty>
2.09479

> <r_epik_Charging_Adjusted_Penalty>
2.09479

> <i_epik_Tot_Q>
0

> <i_epik_Tot_abs_Q>
0

> <r_epik_Metal_State_Penalty>
2.40362

> <b_epik_Metal_Only>
0

> <s_lp_Force_Field>
OPLS_2005

> <r_lp_Energy>
8.95245

> <b_lp_Chiralities_Consistent>
1

> <s_lp_Variant>
AV-unprocessed.smi:3019-7

> <Gold.Version>
5.8.1

> <Gold.Id.Protein>
6NUR|6NUR_protein|mol2

> <Gold.PLP.Fitness>
33.8326

> <Gold.PLP.PLP>
-30.2889

> <Gold.PLP.part.hbond>
-3.0000

> <Gold.PLP.part.metal>
0.0000

> <Gold.PLP.part.buried>
-3.0167

> <Gold.PLP.part.nonpolar>
-23.3824

> <Gold.PLP.part.repulsive>
0.1454

> <Gold.PLP.ligand.clash>
0.0000

> <Gold.PLP.ligand.torsion>
0.1972

> <Gold.PLP.Chemscore.Hbond>
1.2928

> <Gold.PLP.Chemscore.CHOScore>
0.0000

> <Gold.PLP.Chemscore.Metal>
0.0000

> <Gold.Chemscore.Hbonds>
donor molecule, donor type, donor heavy atom, donor atom, acceptor molecule, acceptor atom, score
      L1  H     6    15       P1  8028  0.90
      P1  H  7989  7998       L1    10  0.36

> <Gold.PLP.Chemscore.Internal.Correction>
0.0597

> <Gold.Rescore>
     Score         DG    S(hbond)    S(metal)    S(lipo)     H(rot)  DE(clash)    DE(int)     intcor
     12.89     -12.98       1.00        0.00      63.14       1.26       0.01       0.09       ----

> <Gold.Chemscore.Fitness>
12.8909

> <Gold.Chemscore.DG>
-12.9846

> <Gold.Chemscore.ZeroCoef>
-5.4800

> <Gold.Chemscore.Hbond>
1.0008

> <Gold.Chemscore.Metal>
0.0000

> <Gold.Chemscore.Lipo>
63.1374

> <Gold.Chemscore.Internal_Hbond>
0.0000

> <Gold.Chemscore.DEClash>
0.0064

> <Gold.Chemscore.DEInternal>
0.0873

> <Gold.Chemscore.Rot>
1.2598

> <Gold.Chemscore.Internal.Correction>
   9.000000E+99

> <Gold.Chemscore.Hbonds>
donor molecule, donor type, donor heavy atom, donor atom, acceptor molecule, acceptor atom, score
      L1  H     6    15       P1  8028  0.87
      P1  H  7989  7998       L1    10  0.01

> <Gold.Chemscore.Hbond.Weighted>
-3.3427

> <Gold.Chemscore.Metal.Weighted>
-0.0000

> <Gold.Chemscore.Lipo.Weighted>
-7.3871

> <Gold.Chemscore.Internal_Hbond.Weighted>
0.0000

> <Gold.Chemscore.DEClash.Weighted>
0.0064

> <Gold.Chemscore.DEInternal.Weighted>
0.0873

> <Gold.Chemscore.Rot.Weighted>
3.2251

> <Gold.Chemscore.Internal.Correction.Weighted>
   9.000000E+99

> <Gold.Protein.RotatedTorsions>
[ 6907 6896 6895 6894 ] final  -54.36 input  -60.11 | X-H torsion
[ 7974 7965 7964 7962 ] final   43.63 input  175.53 | X-H torsion
[ 8008 7997 7996 7995 ] final   60.02 input   59.86 | X-H torsion
[ 10167 10162 10161 10158 ] final  -80.30 input  -65.29 | X-H torsion
[ 10718 10713 10712 10709 ] final  153.13 input   66.30 | X-H torsion
[ 10763 10752 10751 10750 ] final   74.94 input  -60.55 | X-H torsion
[ 11005 11000 10999 10996 ] final -107.02 input  -57.11 | X-H torsion

> <Gold.Protein.ActiveResidues>
 VAL166  LYS551  ARG553  GLY616  TRP617  ASP618  TYR619  PRO620  LYS621  CYS622 
 ASP623  PHE694  ASN695  SER759  ASP760  ASP761  ALA762  ILE779  LEU786  VAL792 
 PHE793  MET794  SER795  GLU796  ALA797  LYS798  CYS799  TRP800  GLU811  SER814 

> <Gold.Protein.RotatedAtoms>
  150.8345  134.7612  159.6880 H   0  0  0  0  0  0  0  0  0  0  0  0  # atno 6907 bound_to 6896
  152.4444  134.5522  159.9880 H   0  0  0  0  0  0  0  0  0  0  0  0  # atno 6908 bound_to 6896
  151.5675  133.3357  159.3019 H   0  0  0  0  0  0  0  0  0  0  0  0  # atno 6909 bound_to 6896
  146.0639  139.5165  142.9641 H   0  0  0  0  0  0  0  0  0  0  0  0  # atno 7974 bound_to 7965
  155.5756  140.3490  155.4526 H   0  0  0  0  0  0  0  0  0  0  0  0  # atno 8008 bound_to 7997
  156.0411  140.1296  157.0179 H   0  0  0  0  0  0  0  0  0  0  0  0  # atno 8009 bound_to 7997
  154.4392  140.1024  156.6224 H   0  0  0  0  0  0  0  0  0  0  0  0  # atno 8010 bound_to 7997
  140.4515  143.2481  151.8481 H   0  0  0  0  0  0  0  0  0  0  0  0  # atno 10167 bound_to 10162
  157.2487  131.0774  151.1744 H   0  0  0  0  0  0  0  0  0  0  0  0  # atno 10718 bound_to 10713
  153.0620  135.5007  154.8116 H   0  0  0  0  0  0  0  0  0  0  0  0  # atno 10763 bound_to 10752
  154.6897  135.2982  154.9499 H   0  0  0  0  0  0  0  0  0  0  0  0  # atno 10764 bound_to 10752
  154.0257  135.6736  153.4829 H   0  0  0  0  0  0  0  0  0  0  0  0  # atno 10765 bound_to 10752
  141.0975  133.8944  157.1926 H   0  0  0  0  0  0  0  0  0  0  0  0  # atno 11005 bound_to 11000
  145.6512  141.0263  143.1759 LP  0  0  0  0  0  0  0  0  0  0  0  0  # atno 17320 bound_to 7965
  144.7191  139.8093  143.7388 LP  0  0  0  0  0  0  0  0  0  0  0  0  # atno 17321 bound_to 7965
  139.4797  144.5114  151.8927 LP  0  0  0  0  0  0  0  0  0  0  0  0  # atno 17342 bound_to 10162
  140.4201  144.2254  150.5887 LP  0  0  0  0  0  0  0  0  0  0  0  0  # atno 17343 bound_to 10162
  157.3301  130.6980  149.6319 LP  0  0  0  0  0  0  0  0  0  0  0  0  # atno 17370 bound_to 10713
  155.9667  130.4310  150.4901 LP  0  0  0  0  0  0  0  0  0  0  0  0  # atno 17371 bound_to 10713
  139.9816  135.0096  156.9764 LP  0  0  0  0  0  0  0  0  0  0  0  0  # atno 17394 bound_to 11000
  140.5103  134.1008  155.7269 LP  0  0  0  0  0  0  0  0  0  0  0  0  # atno 17395 bound_to 11000

$$$$
