AV-unprocessed.smi:210|AV-procd|sdf|1611|dock3
  -GOLD-   2262019533D 1   1.00000     0.00000
 Structure written by MMmdl.
 57 61  0  0  0  0  0  0  0  0  1 V2000
  151.2463  145.5742  160.1427 C   0  0  0  0  0  0  0  0  0  0  0  0
  150.8232  144.4992  159.3210 O   0  0  0  0  0  0  0  0  0  0  0  0
  151.9094  143.8141  158.7121 C   0  0  2  0  0  0  0  0  0  0  0  0
  151.4316  143.0610  157.4643 C   0  0  0  0  0  0  0  0  0  0  0  0
  151.1470  141.8545  158.3741 C   0  0  1  0  0  0  0  0  0  0  0  0
  151.4863  140.5564  157.7893 N   0  0  0  0  0  0  0  0  0  0  0  0
  151.5896  139.4401  158.7219 C   0  0  0  0  0  0  0  0  0  0  0  0
  150.7281  140.2326  156.7185 C   0  0  0  0  0  0  0  0  0  0  0  0
  151.1690  140.5135  155.4640 N   0  0  0  0  0  0  0  0  0  0  0  0
  150.4186  140.1870  154.4072 C   0  0  0  0  0  0  0  0  0  0  0  0
  149.2260  139.5865  154.3830 N   0  0  0  0  0  0  0  0  0  0  0  0
  148.7853  139.3024  155.6431 C   0  0  0  0  0  0  0  0  0  0  0  0
  149.4698  139.5919  156.8562 C   0  0  0  0  0  0  0  0  0  0  0  0
  148.7219  139.1617  157.9438 N   0  0  0  0  0  0  0  0  0  0  0  0
  147.6508  138.6475  157.4038 C   0  0  0  0  0  0  0  0  0  0  0  0
  147.6069  138.6843  156.0270 N   0  0  0  0  0  0  0  0  0  0  0  0
  146.5467  138.2015  155.1880 C   0  0  0  0  0  0  0  0  0  0  0  0
  146.8173  137.1401  154.1213 C   0  0  0  0  0  0  0  0  0  0  0  0
  145.7306  137.7741  153.2241 C   0  0  0  0  0  0  0  0  0  0  0  0
  146.0913  137.8711  151.7323 C   0  0  0  0  0  0  0  0  0  0  0  0
  147.4024  138.3669  151.5528 O   0  0  0  0  0  0  0  0  0  0  0  0
  144.3241  137.1580  153.3660 C   0  0  0  0  0  0  0  0  0  0  0  0
  143.3603  137.8953  152.6413 O   0  0  0  0  0  0  0  0  0  0  0  0
  145.9762  139.0561  154.0541 C   0  0  0  0  0  0  0  0  0  0  0  0
  152.2053  142.4329  159.3375 C   0  0  0  0  0  0  0  0  0  0  0  0
  152.1499  142.1982  160.8545 C   0  0  0  0  0  0  0  0  0  0  0  0
  153.6788  142.2921  160.8730 C   0  0  0  0  0  0  0  0  0  0  0  0
  153.6681  141.9494  159.3797 C   0  0  0  0  0  0  0  0  0  0  0  0
  150.3820  146.0265  160.6290 H   0  0  0  0  0  0  0  0  0  0  0  0
  151.7395  146.3458  159.5500 H   0  0  0  0  0  0  0  0  0  0  0  0
  151.9362  145.2424  160.9190 H   0  0  0  0  0  0  0  0  0  0  0  0
  152.7854  144.4360  158.5184 H   0  0  0  0  0  0  0  0  0  0  0  0
  150.5508  143.4826  156.9790 H   0  0  0  0  0  0  0  0  0  0  0  0
  152.2395  142.8896  156.7503 H   0  0  0  0  0  0  0  0  0  0  0  0
  150.1444  141.8993  158.8037 H   0  0  0  0  0  0  0  0  0  0  0  0
  151.7994  138.5079  158.1954 H   0  0  0  0  0  0  0  0  0  0  0  0
  150.6627  139.3161  159.2833 H   0  0  0  0  0  0  0  0  0  0  0  0
  152.3958  139.6021  159.4357 H   0  0  0  0  0  0  0  0  0  0  0  0
  150.8334  140.4427  153.4434 H   0  0  0  0  0  0  0  0  0  0  0  0
  146.8562  138.2257  158.0020 H   0  0  0  0  0  0  0  0  0  0  0  0
  145.7419  137.8754  155.8486 H   0  0  0  0  0  0  0  0  0  0  0  0
  147.8191  137.2187  153.6949 H   0  0  0  0  0  0  0  0  0  0  0  0
  146.6092  136.1181  154.4395 H   0  0  0  0  0  0  0  0  0  0  0  0
  146.0055  136.9057  151.2332 H   0  0  0  0  0  0  0  0  0  0  0  0
  145.4087  138.5441  151.2127 H   0  0  0  0  0  0  0  0  0  0  0  0
  147.9825  137.8968  152.1325 H   0  0  0  0  0  0  0  0  0  0  0  0
  144.3051  136.1238  153.0222 H   0  0  0  0  0  0  0  0  0  0  0  0
  144.0084  137.1340  154.4092 H   0  0  0  0  0  0  0  0  0  0  0  0
  143.7299  138.7366  152.4204 H   0  0  0  0  0  0  0  0  0  0  0  0
  145.0777  139.6128  154.3222 H   0  0  0  0  0  0  0  0  0  0  0  0
  146.7192  139.7172  153.6051 H   0  0  0  0  0  0  0  0  0  0  0  0
  151.6347  142.9643  161.4323 H   0  0  0  0  0  0  0  0  0  0  0  0
  151.7897  141.2019  161.1135 H   0  0  0  0  0  0  0  0  0  0  0  0
  154.0355  143.3043  161.0704 H   0  0  0  0  0  0  0  0  0  0  0  0
  154.1736  141.5565  161.5076 H   0  0  0  0  0  0  0  0  0  0  0  0
  153.7915  140.8814  159.2008 H   0  0  0  0  0  0  0  0  0  0  0  0
  154.3633  142.5345  158.7768 H   0  0  0  0  0  0  0  0  0  0  0  0
  1  2  1  0  0  0  0
  1 29  1  0  0  0  0
  1 30  1  0  0  0  0
  1 31  1  0  0  0  0
  2  3  1  0  0  0  0
  3 25  1  0  0  0  0
  3  4  1  0  0  0  0
  3 32  1  0  0  0  0
  4  5  1  0  0  0  0
  4 33  1  0  0  0  0
  4 34  1  0  0  0  0
  5  6  1  0  0  0  0
  5 25  1  0  0  0  0
  5 35  1  0  0  0  0
  6  7  1  0  0  0  0
  6  8  1  0  0  0  0
  7 36  1  0  0  0  0
  7 37  1  0  0  0  0
  7 38  1  0  0  0  0
  8 13  1  0  0  0  0
  8  9  2  0  0  0  0
  9 10  1  0  0  0  0
 10 11  2  0  0  0  0
 10 39  1  0  0  0  0
 11 12  1  0  0  0  0
 12 16  1  0  0  0  0
 12 13  2  0  0  0  0
 13 14  1  0  0  0  0
 14 15  2  0  0  0  0
 15 16  1  0  0  0  0
 15 40  1  0  0  0  0
 16 17  1  0  0  0  0
 17 24  1  0  0  0  0
 17 18  1  0  0  0  0
 17 41  1  0  0  0  0
 18 19  1  0  0  0  0
 18 42  1  0  0  0  0
 18 43  1  0  0  0  0
 19 20  1  0  0  0  0
 19 22  1  0  0  0  0
 19 24  1  0  0  0  0
 20 21  1  0  0  0  0
 20 44  1  0  0  0  0
 20 45  1  0  0  0  0
 21 46  1  0  0  0  0
 22 23  1  0  0  0  0
 22 47  1  0  0  0  0
 22 48  1  0  0  0  0
 23 49  1  0  0  0  0
 24 50  1  0  0  0  0
 24 51  1  0  0  0  0
 25 28  1  0  0  0  0
 25 26  1  0  0  0  0
 26 27  1  0  0  0  0
 26 52  1  0  0  0  0
 26 53  1  0  0  0  0
 27 28  1  0  0  0  0
 27 54  1  0  0  0  0
 27 55  1  0  0  0  0
 28 56  1  0  0  0  0
 28 57  1  0  0  0  0
M  END
> <s_m_source_file>
AV-unprocessed.smi

> <i_m_source_file_index>
210

> <i_lp_mmshare_version>
43012

> <i_f3d_flags>
0

> <s_epik_input>
W0NIMl0xW0NIMl1bQ0gyXUMxMltDQEhdKE9bQ0gzXSlbQ0gyXVtDQEhdMk4oW0NIM10pYyhuW2NIXW4zKWMoYzM0KW5bY0hdbjRbQ0hdKFtDSDJdNSlbQ0gyXUM1KFtDSDJdW09IXSlbQ0gyXVtPSF0=

> <s_epik_cmdline>
J2VwaWtfcHl0aG9uJywgJy1waCcsICc3LjAnLCAnLXRuJywgJzgnLCAnLW1hJywgJzIwMCcsICctbWV0YWxfYmluZGluZycsICctaW1hZScsICc8aW5maWxlLm1hZT4nLCAnLW9tYWUnLCAnPG91dGZpbGUubWFlPic=

> <r_lp_tautomer_probability>
1

> <r_epik_Ionization_Penalty>
0.00313676

> <r_epik_Ionization_Penalty_Charging>
0

> <r_epik_Ionization_Penalty_Neutral>
0.00313676

> <r_epik_State_Penalty>
0.00199132

> <r_epik_Charging_Adjusted_Penalty>
0.00199132

> <i_epik_Tot_Q>
0

> <i_epik_Tot_abs_Q>
0

> <r_epik_Metal_State_Penalty>
-0

> <b_epik_Metal_Only>
0

> <s_lp_Force_Field>
OPLS_2005

> <r_lp_Energy>
59.5036

> <b_lp_Chiralities_Consistent>
1

> <s_lp_Variant>
AV-unprocessed.smi:210-1

> <Gold.Version>
5.8.1

> <Gold.Id.Protein>
6NUR|6NUR_protein|mol2

> <Gold.PLP.Fitness>
48.9619

> <Gold.PLP.PLP>
-40.6764

> <Gold.PLP.part.hbond>
-5.9481

> <Gold.PLP.part.metal>
0.0000

> <Gold.PLP.part.buried>
-1.0130

> <Gold.PLP.part.nonpolar>
-33.8101

> <Gold.PLP.part.repulsive>
0.2907

> <Gold.PLP.ligand.clash>
0.0000

> <Gold.PLP.ligand.torsion>
1.3617

> <Gold.PLP.Chemscore.Hbond>
2.5520

> <Gold.PLP.Chemscore.CHOScore>
0.7362

> <Gold.PLP.Chemscore.Metal>
0.0000

> <Gold.Chemscore.Hbonds>
donor molecule, donor type, donor heavy atom, donor atom, acceptor molecule, acceptor atom, score
      L1  H    21    46       P1  7948  0.59
      L1  H    23    49       P1 10175  0.99
      P1  H  7954  7966       L1    21  0.95
      L1  C    10    39       P1  7957  0.73

> <Gold.PLP.Chemscore.Internal.Correction>
1.1443

> <Gold.Rescore>
     Score         DG    S(hbond)    S(metal)    S(lipo)     H(rot)  DE(clash)    DE(int)     intcor
     12.33     -16.35       2.19        0.00     108.38       3.57       1.58       2.44       ----

> <Gold.Chemscore.Fitness>
12.3257

> <Gold.Chemscore.DG>
-16.3483

> <Gold.Chemscore.ZeroCoef>
-5.4800

> <Gold.Chemscore.Hbond>
2.1947

> <Gold.Chemscore.Metal>
0.0000

> <Gold.Chemscore.Lipo>
108.3777

> <Gold.Chemscore.Internal_Hbond>
0.0000

> <Gold.Chemscore.DEClash>
1.5788

> <Gold.Chemscore.DEInternal>
2.4438

> <Gold.Chemscore.Rot>
3.5712

> <Gold.Chemscore.Internal.Correction>
   9.000000E+99

> <Gold.Chemscore.Hbonds>
donor molecule, donor type, donor heavy atom, donor atom, acceptor molecule, acceptor atom, score
      L1  H    21    46       P1  7948  0.58
      L1  H    23    49       P1 10175  0.94
      P1  H  7954  7966       L1    21  0.19

> <Gold.Chemscore.Hbond.Weighted>
-7.3304

> <Gold.Chemscore.Metal.Weighted>
-0.0000

> <Gold.Chemscore.Lipo.Weighted>
-12.6802

> <Gold.Chemscore.Internal_Hbond.Weighted>
0.0000

> <Gold.Chemscore.DEClash.Weighted>
1.5788

> <Gold.Chemscore.DEInternal.Weighted>
2.4438

> <Gold.Chemscore.Rot.Weighted>
9.1423

> <Gold.Chemscore.Internal.Correction.Weighted>
   9.000000E+99

> <Gold.Protein.RotatedTorsions>
[ 6907 6896 6895 6894 ] final   -8.58 input  -60.11 | X-H torsion
[ 7974 7965 7964 7962 ] final   72.86 input  175.53 | X-H torsion
[ 8008 7997 7996 7995 ] final -125.23 input   59.86 | X-H torsion
[ 10167 10162 10161 10158 ] final  153.17 input  -65.29 | X-H torsion
[ 10718 10713 10712 10709 ] final  -67.22 input   66.30 | X-H torsion
[ 10763 10752 10751 10750 ] final  -78.73 input  -60.55 | X-H torsion
[ 11005 11000 10999 10996 ] final   17.52 input  -57.11 | X-H torsion

> <Gold.Protein.ActiveResidues>
 VAL166  LYS551  ARG553  GLY616  TRP617  ASP618  TYR619  PRO620  LYS621  CYS622 
 ASP623  PHE694  ASN695  SER759  ASP760  ASP761  ALA762  ILE779  LEU786  VAL792 
 PHE793  MET794  SER795  GLU796  ALA797  LYS798  CYS799  TRP800  GLU811  SER814 

> <Gold.Protein.RotatedAtoms>
  151.4313  135.1010  159.9642 H   0  0  0  0  0  0  0  0  0  0  0  0  # atno 6907 bound_to 6896
  152.4955  133.8614  159.7263 H   0  0  0  0  0  0  0  0  0  0  0  0  # atno 6908 bound_to 6896
  150.9153  133.6889  159.2872 H   0  0  0  0  0  0  0  0  0  0  0  0  # atno 6909 bound_to 6896
  145.7481  139.2748  143.1447 H   0  0  0  0  0  0  0  0  0  0  0  0  # atno 7974 bound_to 7965
  155.2099  140.0418  157.2931 H   0  0  0  0  0  0  0  0  0  0  0  0  # atno 8008 bound_to 7997
  154.6018  140.2454  155.7754 H   0  0  0  0  0  0  0  0  0  0  0  0  # atno 8009 bound_to 7997
  156.2326  140.2933  156.0236 H   0  0  0  0  0  0  0  0  0  0  0  0  # atno 8010 bound_to 7997
  139.4828  144.5296  151.7745 H   0  0  0  0  0  0  0  0  0  0  0  0  # atno 10167 bound_to 10162
  156.0569  130.4274  150.1822 H   0  0  0  0  0  0  0  0  0  0  0  0  # atno 10718 bound_to 10713
  154.5297  135.5720  153.6748 H   0  0  0  0  0  0  0  0  0  0  0  0  # atno 10763 bound_to 10752
  152.9936  135.6201  154.2645 H   0  0  0  0  0  0  0  0  0  0  0  0  # atno 10764 bound_to 10752
  154.2571  135.2857  155.2773 H   0  0  0  0  0  0  0  0  0  0  0  0  # atno 10765 bound_to 10752
  140.4350  134.1380  155.7684 H   0  0  0  0  0  0  0  0  0  0  0  0  # atno 11005 bound_to 11000
  146.0383  140.8190  142.9841 LP  0  0  0  0  0  0  0  0  0  0  0  0  # atno 17320 bound_to 7965
  144.6855  140.2872  143.7283 LP  0  0  0  0  0  0  0  0  0  0  0  0  # atno 17321 bound_to 7965
  140.4820  144.1436  150.5934 LP  0  0  0  0  0  0  0  0  0  0  0  0  # atno 17342 bound_to 10162
  140.4267  143.2586  151.9647 LP  0  0  0  0  0  0  0  0  0  0  0  0  # atno 17343 bound_to 10162
  156.9897  130.9889  151.3417 LP  0  0  0  0  0  0  0  0  0  0  0  0  # atno 17370 bound_to 10713
  157.5547  130.8205  149.8189 LP  0  0  0  0  0  0  0  0  0  0  0  0  # atno 17371 bound_to 10713
  141.1729  133.8572  157.1513 LP  0  0  0  0  0  0  0  0  0  0  0  0  # atno 17394 bound_to 11000
  140.0108  134.9989  157.0391 LP  0  0  0  0  0  0  0  0  0  0  0  0  # atno 17395 bound_to 11000

$$$$
