AV-unprocessed.smi:876|AV-procd|sdf|4026|dock4
  -GOLD-   22720 1513D 1   1.00000     0.00000
 Structure written by MMmdl.
 40 41  0  0  0  0  0  0  0  0  1 V2000
  143.8796  132.7143  148.8480 C   0  0  0  0  0  0  0  0  0  0  0  0
  144.3147  132.5422  150.2286 N   0  0  0  0  0  0  0  0  0  0  0  0
  144.3610  131.2069  150.8157 C   0  0  0  0  0  0  0  0  0  0  0  0
  144.7127  133.6620  150.9944 C   0  0  0  0  0  0  0  0  0  0  0  0
  145.0340  133.5422  152.3694 C   0  0  0  0  0  0  0  0  0  0  0  0
  145.4242  134.6868  153.0911 C   0  0  0  0  0  0  0  0  0  0  0  0
  145.4941  135.9302  152.4213 C   0  0  0  0  0  0  0  0  0  0  0  0
  145.8560  137.1607  153.0349 N   0  0  0  0  0  0  0  0  0  0  0  0
  146.4419  138.2387  152.4852 C   0  0  0  0  0  0  0  0  0  0  0  0
  146.7665  138.3524  151.3035 O   0  0  0  0  0  0  0  0  0  0  0  0
  146.6205  139.2071  153.3946 N   0  0  0  0  0  0  0  0  0  0  0  0
  147.2123  140.5115  153.1173 C   0  0  1  0  0  0  0  0  0  0  0  0
  146.5920  141.5697  153.9880 C   0  0  0  0  0  0  0  0  0  0  0  0
  147.4951  142.2580  154.6825 C   0  0  0  0  0  0  0  0  0  0  0  0
  148.9067  141.7967  154.4244 C   0  0  1  0  0  0  0  0  0  0  0  0
  149.6728  141.4533  155.7137 C   0  0  0  0  0  0  0  0  0  0  0  0
  149.9006  142.6166  156.4819 O   0  0  0  0  0  0  0  0  0  0  0  0
  148.7191  140.5805  153.4815 C   0  0  0  0  0  0  0  0  0  0  0  0
  145.1464  135.9531  151.0566 C   0  0  0  0  0  0  0  0  0  0  0  0
  144.7713  134.8594  150.3618 N   0  0  0  0  0  0  0  0  0  0  0  0
  147.0496  140.7889  152.0745 H   0  0  0  0  0  0  0  0  0  0  0  0
  149.4254  142.5940  153.8899 H   0  0  0  0  0  0  0  0  0  0  0  0
  144.6822  133.1364  148.2425 H   0  0  0  0  0  0  0  0  0  0  0  0
  143.0165  133.3790  148.7977 H   0  0  0  0  0  0  0  0  0  0  0  0
  143.5914  131.7628  148.4011 H   0  0  0  0  0  0  0  0  0  0  0  0
  143.7031  131.1461  151.6832 H   0  0  0  0  0  0  0  0  0  0  0  0
  145.3755  130.9629  151.1325 H   0  0  0  0  0  0  0  0  0  0  0  0
  144.0434  130.4467  150.1021 H   0  0  0  0  0  0  0  0  0  0  0  0
  144.9838  132.5969  152.8882 H   0  0  0  0  0  0  0  0  0  0  0  0
  145.6466  134.5847  154.1413 H   0  0  0  0  0  0  0  0  0  0  0  0
  145.5919  137.2501  154.0050 H   0  0  0  0  0  0  0  0  0  0  0  0
  146.3228  139.0338  154.3434 H   0  0  0  0  0  0  0  0  0  0  0  0
  145.5261  141.7429  154.0135 H   0  0  0  0  0  0  0  0  0  0  0  0
  147.2702  143.0724  155.3555 H   0  0  0  0  0  0  0  0  0  0  0  0
  149.1209  140.7286  156.3135 H   0  0  0  0  0  0  0  0  0  0  0  0
  150.6370  141.0054  155.4717 H   0  0  0  0  0  0  0  0  0  0  0  0
  149.5138  143.3532  156.0338 H   0  0  0  0  0  0  0  0  0  0  0  0
  149.0395  139.6627  153.9777 H   0  0  0  0  0  0  0  0  0  0  0  0
  149.3332  140.6800  152.5858 H   0  0  0  0  0  0  0  0  0  0  0  0
  145.1723  136.8785  150.4999 H   0  0  0  0  0  0  0  0  0  0  0  0
  1  2  1  0  0  0  0
  1 23  1  0  0  0  0
  1 24  1  0  0  0  0
  1 25  1  0  0  0  0
  2  3  1  0  0  0  0
  2  4  1  0  0  0  0
  3 26  1  0  0  0  0
  3 27  1  0  0  0  0
  3 28  1  0  0  0  0
  4 20  1  0  0  0  0
  4  5  2  0  0  0  0
  5  6  1  0  0  0  0
  5 29  1  0  0  0  0
  6  7  2  0  0  0  0
  6 30  1  0  0  0  0
  7  8  1  0  0  0  0
  7 19  1  0  0  0  0
  8  9  1  0  0  0  0
  8 31  1  0  0  0  0
  9 10  2  0  0  0  0
  9 11  1  0  0  0  0
 11 12  1  0  0  0  0
 11 32  1  0  0  0  0
 12 21  1  0  0  0  0
 12 18  1  0  0  0  0
 12 13  1  0  0  0  0
 13 14  2  0  0  0  0
 13 33  1  0  0  0  0
 14 15  1  0  0  0  0
 14 34  1  0  0  0  0
 15 22  1  0  0  0  0
 15 16  1  0  0  0  0
 15 18  1  0  0  0  0
 16 17  1  0  0  0  0
 16 35  1  0  0  0  0
 16 36  1  0  0  0  0
 17 37  1  0  0  0  0
 18 38  1  0  0  0  0
 18 39  1  0  0  0  0
 19 20  2  0  0  0  0
 19 40  1  0  0  0  0
M  END
> <s_m_source_file>
AV-unprocessed.smi

> <i_m_source_file_index>
876

> <i_lp_mmshare_version>
43012

> <i_f3d_flags>
0

> <s_epik_input>
W0NIM11OKFtDSDNdKWMxW2NIXVtjSF1jKFtjSF1uMSlbTkhdQyg9TylbTkhdW0NAQEhdMltDSF09W0NIXVtDQEBIXShbQ0gyXTIpW0NIMl1bT0hd

> <s_epik_cmdline>
J2VwaWtfcHl0aG9uJywgJy1waCcsICc3LjAnLCAnLXRuJywgJzgnLCAnLW1hJywgJzIwMCcsICctbWV0YWxfYmluZGluZycsICctaW1hZScsICc8aW5maWxlLm1hZT4nLCAnLW9tYWUnLCAnPG91dGZpbGUubWFlPic=

> <r_lp_tautomer_probability>
1

> <r_epik_Ionization_Penalty>
0.617998

> <r_epik_Ionization_Penalty_Charging>
0

> <r_epik_Ionization_Penalty_Neutral>
0.617998

> <r_epik_State_Penalty>
0.632637

> <r_epik_Charging_Adjusted_Penalty>
0.632637

> <i_epik_Tot_Q>
0

> <i_epik_Tot_abs_Q>
0

> <r_epik_Metal_State_Penalty>
0.305596

> <b_epik_Metal_Only>
0

> <s_lp_Force_Field>
OPLS_2005

> <r_lp_Energy>
21.5566

> <b_lp_Chiralities_Consistent>
1

> <s_lp_Variant>
AV-unprocessed.smi:876-8

> <Gold.Version>
5.8.1

> <Gold.Id.Protein>
6NUR|6NUR_protein|mol2

> <Gold.PLP.Fitness>
41.8955

> <Gold.PLP.PLP>
-33.9838

> <Gold.PLP.part.hbond>
-2.0000

> <Gold.PLP.part.metal>
0.0000

> <Gold.PLP.part.buried>
3.8192

> <Gold.PLP.part.nonpolar>
-36.8796

> <Gold.PLP.part.repulsive>
1.7188

> <Gold.PLP.ligand.clash>
0.0000

> <Gold.PLP.ligand.torsion>
0.5552

> <Gold.PLP.Chemscore.Hbond>
2.0000

> <Gold.PLP.Chemscore.CHOScore>
1.0000

> <Gold.PLP.Chemscore.Metal>
0.0000

> <Gold.Chemscore.Hbonds>
donor molecule, donor type, donor heavy atom, donor atom, acceptor molecule, acceptor atom, score
      L1  H    17    37       P1  8028  1.00
      P1  H  7954  7966       L1    10  0.98
      L1  C    19    40       P1 10171  1.00

> <Gold.PLP.Chemscore.Internal.Correction>
0.0221

> <Gold.Rescore>
     Score         DG    S(hbond)    S(metal)    S(lipo)     H(rot)  DE(clash)    DE(int)     intcor
     12.77     -17.00       1.91        0.00      83.36       1.80       2.47       1.76       ----

> <Gold.Chemscore.Fitness>
12.7729

> <Gold.Chemscore.DG>
-16.9985

> <Gold.Chemscore.ZeroCoef>
-5.4800

> <Gold.Chemscore.Hbond>
1.9068

> <Gold.Chemscore.Metal>
0.0000

> <Gold.Chemscore.Lipo>
83.3565

> <Gold.Chemscore.Internal_Hbond>
0.0000

> <Gold.Chemscore.DEClash>
2.4663

> <Gold.Chemscore.DEInternal>
1.7593

> <Gold.Chemscore.Rot>
1.7980

> <Gold.Chemscore.Internal.Correction>
   9.000000E+99

> <Gold.Chemscore.Hbonds>
donor molecule, donor type, donor heavy atom, donor atom, acceptor molecule, acceptor atom, score
      L1  H    17    37       P1  8028  0.95
      P1  H  7954  7966       L1    10  0.91

> <Gold.Chemscore.Hbond.Weighted>
-6.3687

> <Gold.Chemscore.Metal.Weighted>
-0.0000

> <Gold.Chemscore.Lipo.Weighted>
-9.7527

> <Gold.Chemscore.Internal_Hbond.Weighted>
0.0000

> <Gold.Chemscore.DEClash.Weighted>
2.4663

> <Gold.Chemscore.DEInternal.Weighted>
1.7593

> <Gold.Chemscore.Rot.Weighted>
4.6029

> <Gold.Chemscore.Internal.Correction.Weighted>
   9.000000E+99

> <Gold.Protein.RotatedTorsions>
[ 6907 6896 6895 6894 ] final  -96.98 input  -60.11 | X-H torsion
[ 7974 7965 7964 7962 ] final  174.63 input  175.53 | X-H torsion
[ 8008 7997 7996 7995 ] final  -84.21 input   59.86 | X-H torsion
[ 10167 10162 10161 10158 ] final -106.24 input  -65.29 | X-H torsion
[ 10718 10713 10712 10709 ] final  137.76 input   66.30 | X-H torsion
[ 10763 10752 10751 10750 ] final  -72.47 input  -60.55 | X-H torsion
[ 11005 11000 10999 10996 ] final  -62.61 input  -57.11 | X-H torsion

> <Gold.Protein.ActiveResidues>
 VAL166  LYS551  ARG553  GLY616  TRP617  ASP618  TYR619  PRO620  LYS621  CYS622 
 ASP623  PHE694  ASN695  SER759  ASP760  ASP761  ALA762  ILE779  LEU786  VAL792 
 PHE793  MET794  SER795  GLU796  ALA797  LYS798  CYS799  TRP800  GLU811  SER814 

> <Gold.Protein.RotatedAtoms>
  150.7003  134.1420  159.4108 H   0  0  0  0  0  0  0  0  0  0  0  0  # atno 6907 bound_to 6896
  151.9404  135.0213  160.0544 H   0  0  0  0  0  0  0  0  0  0  0  0  # atno 6908 bound_to 6896
  152.2099  133.4868  159.5141 H   0  0  0  0  0  0  0  0  0  0  0  0  # atno 6909 bound_to 6896
  144.7218  139.9825  143.6439 H   0  0  0  0  0  0  0  0  0  0  0  0  # atno 7974 bound_to 7965
  154.6274  140.0608  156.9690 H   0  0  0  0  0  0  0  0  0  0  0  0  # atno 8008 bound_to 7997
  155.1721  140.3292  155.4372 H   0  0  0  0  0  0  0  0  0  0  0  0  # atno 8009 bound_to 7997
  156.2464  140.1912  156.6822 H   0  0  0  0  0  0  0  0  0  0  0  0  # atno 8010 bound_to 7997
  140.1899  143.3900  152.1214 H   0  0  0  0  0  0  0  0  0  0  0  0  # atno 10167 bound_to 10162
  157.4326  131.1050  151.0233 H   0  0  0  0  0  0  0  0  0  0  0  0  # atno 10718 bound_to 10713
  154.4462  135.5928  153.6161 H   0  0  0  0  0  0  0  0  0  0  0  0  # atno 10763 bound_to 10752
  152.9809  135.6010  154.3661 H   0  0  0  0  0  0  0  0  0  0  0  0  # atno 10764 bound_to 10752
  154.3517  135.2841  155.2347 H   0  0  0  0  0  0  0  0  0  0  0  0  # atno 10765 bound_to 10752
  141.1365  133.6642  156.5554 H   0  0  0  0  0  0  0  0  0  0  0  0  # atno 11005 bound_to 11000
  146.0476  139.3480  143.0659 LP  0  0  0  0  0  0  0  0  0  0  0  0  # atno 17320 bound_to 7965
  145.8256  140.9657  143.0876 LP  0  0  0  0  0  0  0  0  0  0  0  0  # atno 17321 bound_to 7965
  139.5260  144.7103  151.5228 LP  0  0  0  0  0  0  0  0  0  0  0  0  # atno 17342 bound_to 10162
  140.6463  143.8788  150.6740 LP  0  0  0  0  0  0  0  0  0  0  0  0  # atno 17343 bound_to 10162
  157.1124  130.6027  149.5485 LP  0  0  0  0  0  0  0  0  0  0  0  0  # atno 17370 bound_to 10713
  155.9919  130.4975  150.7317 LP  0  0  0  0  0  0  0  0  0  0  0  0  # atno 17371 bound_to 10713
  140.4030  134.7339  157.4791 LP  0  0  0  0  0  0  0  0  0  0  0  0  # atno 17394 bound_to 11000
  140.0482  134.6169  155.8895 LP  0  0  0  0  0  0  0  0  0  0  0  0  # atno 17395 bound_to 11000

$$$$
