AV-unprocessed.smi:332|AV-procd|sdf|2352|dock2
  -GOLD-   2262022263D 1   1.00000     0.00000
 Structure written by MMmdl.
 42 44  0  0  0  0  0  0  0  0  1 V2000
  151.8156  137.4551  159.4063 C   0  0  0  0  0  0  0  0  0  0  0  0
  152.2567  138.6971  158.6143 C   0  0  2  0  0  0  0  0  0  0  0  0
  152.5786  139.7573  159.5681 N   0  0  0  0  0  0  0  0  0  0  0  0
  153.7948  140.2842  159.7806 C   0  0  0  0  0  0  0  0  0  0  0  0
  154.8126  139.9001  159.2036 O   0  0  0  0  0  0  0  0  0  0  0  0
  153.8663  141.4170  160.8131 C   0  0  0  0  0  0  0  0  0  0  0  0
  153.1084  142.6104  160.4021 N   0  0  0  0  0  0  0  0  0  0  0  0
  153.3252  143.0923  159.0959 C   0  0  0  0  0  0  0  0  0  0  0  0
  152.6818  144.1703  158.6208 C   0  0  0  0  0  0  0  0  0  0  0  0
  151.7436  144.8427  159.4881 C   0  0  0  0  0  0  0  0  0  0  0  0
  151.5262  144.3884  160.7383 C   0  0  0  0  0  0  0  0  0  0  0  0
  152.2262  143.2092  161.2613 C   0  0  0  0  0  0  0  0  0  0  0  0
  152.0318  142.7859  162.4015 O   0  0  0  0  0  0  0  0  0  0  0  0
  151.1682  139.1763  157.6199 C   0  0  2  0  0  0  0  0  0  0  0  0
  150.6038  138.0386  156.7336 C   0  0  0  0  0  0  0  0  0  0  0  0
  150.7866  138.5766  155.3036 C   0  0  1  0  0  0  0  0  0  0  0  0
  149.8125  139.7441  155.0643 C   0  0  0  0  0  0  0  0  0  0  0  0
  150.4267  140.8732  155.9116 C   0  0  0  0  0  0  0  0  0  0  0  0
  151.6521  140.1918  156.5505 C   0  0  2  0  0  0  0  0  0  0  0  0
  152.1257  139.2931  155.4137 C   0  0  0  0  0  0  0  0  0  0  0  0
  151.6070  136.6115  158.7489 H   0  0  0  0  0  0  0  0  0  0  0  0
  150.9132  137.6540  159.9855 H   0  0  0  0  0  0  0  0  0  0  0  0
  152.5934  137.1378  160.1016 H   0  0  0  0  0  0  0  0  0  0  0  0
  153.1495  138.4236  158.0499 H   0  0  0  0  0  0  0  0  0  0  0  0
  151.8057  140.1381  160.0944 H   0  0  0  0  0  0  0  0  0  0  0  0
  153.5038  141.0621  161.7798 H   0  0  0  0  0  0  0  0  0  0  0  0
  154.9170  141.6617  160.9738 H   0  0  0  0  0  0  0  0  0  0  0  0
  154.0361  142.5294  158.5084 H   0  0  0  0  0  0  0  0  0  0  0  0
  152.8579  144.5222  157.6150 H   0  0  0  0  0  0  0  0  0  0  0  0
  151.2120  145.7128  159.1323 H   0  0  0  0  0  0  0  0  0  0  0  0
  150.8192  144.9033  161.3722 H   0  0  0  0  0  0  0  0  0  0  0  0
  150.3603  139.6269  158.1992 H   0  0  0  0  0  0  0  0  0  0  0  0
  151.1741  137.1165  156.8528 H   0  0  0  0  0  0  0  0  0  0  0  0
  149.5618  137.8129  156.9634 H   0  0  0  0  0  0  0  0  0  0  0  0
  150.7396  137.8028  154.5368 H   0  0  0  0  0  0  0  0  0  0  0  0
  149.7902  140.0245  154.0105 H   0  0  0  0  0  0  0  0  0  0  0  0
  148.7940  139.5005  155.3690 H   0  0  0  0  0  0  0  0  0  0  0  0
  150.7354  141.7033  155.2747 H   0  0  0  0  0  0  0  0  0  0  0  0
  149.7311  141.2660  156.6540 H   0  0  0  0  0  0  0  0  0  0  0  0
  152.3917  140.9119  156.8991 H   0  0  0  0  0  0  0  0  0  0  0  0
  152.9508  138.6355  155.6919 H   0  0  0  0  0  0  0  0  0  0  0  0
  152.3977  139.8442  154.5116 H   0  0  0  0  0  0  0  0  0  0  0  0
  1  2  1  0  0  0  0
  1 21  1  0  0  0  0
  1 22  1  0  0  0  0
  1 23  1  0  0  0  0
  2  3  1  0  0  0  0
  2 14  1  0  0  0  0
  2 24  1  0  0  0  0
  3  4  1  0  0  0  0
  3 25  1  0  0  0  0
  4  5  2  0  0  0  0
  4  6  1  0  0  0  0
  6  7  1  0  0  0  0
  6 26  1  0  0  0  0
  6 27  1  0  0  0  0
  7 12  1  0  0  0  0
  7  8  1  0  0  0  0
  8  9  2  0  0  0  0
  8 28  1  0  0  0  0
  9 10  1  0  0  0  0
  9 29  1  0  0  0  0
 10 11  2  0  0  0  0
 10 30  1  0  0  0  0
 11 12  1  0  0  0  0
 11 31  1  0  0  0  0
 12 13  2  0  0  0  0
 14 19  1  0  0  0  0
 14 15  1  0  0  0  0
 14 32  1  0  0  0  0
 15 16  1  0  0  0  0
 15 33  1  0  0  0  0
 15 34  1  0  0  0  0
 16 20  1  0  0  0  0
 16 17  1  0  0  0  0
 16 35  1  0  0  0  0
 17 18  1  0  0  0  0
 17 36  1  0  0  0  0
 17 37  1  0  0  0  0
 18 19  1  0  0  0  0
 18 38  1  0  0  0  0
 18 39  1  0  0  0  0
 19 20  1  0  0  0  0
 19 40  1  0  0  0  0
 20 41  1  0  0  0  0
 20 42  1  0  0  0  0
M  END
> <s_m_source_file>
AV-unprocessed.smi

> <i_m_source_file_index>
332

> <i_lp_mmshare_version>
43012

> <i_f3d_flags>
0

> <s_epik_input>
W0NIMl0xW0NIMl1bQ0BIXShbQ0gyXTIpW0NAQEhdKFtDSDJdW0NAQEhdMTIpW0NASF0oW0NIM10pW05IXUMoPU8pW0NIMl1uM1tjSF1bY0hdW2NIXVtjSF1jMz1P

> <s_epik_cmdline>
J2VwaWtfcHl0aG9uJywgJy1waCcsICc3LjAnLCAnLXRuJywgJzgnLCAnLW1hJywgJzIwMCcsICctbWV0YWxfYmluZGluZycsICctaW1hZScsICc8aW5maWxlLm1hZT4nLCAnLW9tYWUnLCAnPG91dGZpbGUubWFlPic=

> <r_lp_tautomer_probability>
1

> <r_epik_Ionization_Penalty>
4.05802e-07

> <r_epik_Ionization_Penalty_Charging>
3.84175e-07

> <r_epik_Ionization_Penalty_Neutral>
2.16269e-08

> <r_epik_State_Penalty>
-0

> <r_epik_Charging_Adjusted_Penalty>
3.84175e-07

> <i_epik_Tot_Q>
0

> <i_epik_Tot_abs_Q>
0

> <r_epik_Metal_State_Penalty>
-0

> <b_epik_Metal_Only>
0

> <s_lp_Force_Field>
OPLS_2005

> <r_lp_Energy>
59.6993

> <b_lp_Chiralities_Consistent>
1

> <s_lp_Variant>
AV-unprocessed.smi:332-1

> <Gold.Version>
5.8.1

> <Gold.Id.Protein>
6NUR|6NUR_protein|mol2

> <Gold.PLP.Fitness>
51.6264

> <Gold.PLP.PLP>
-46.8807

> <Gold.PLP.part.hbond>
-1.9431

> <Gold.PLP.part.metal>
0.0000

> <Gold.PLP.part.buried>
-4.5263

> <Gold.PLP.part.nonpolar>
-42.9452

> <Gold.PLP.part.repulsive>
2.1537

> <Gold.PLP.ligand.clash>
0.0000

> <Gold.PLP.ligand.torsion>
0.2940

> <Gold.PLP.Chemscore.Hbond>
1.7638

> <Gold.PLP.Chemscore.CHOScore>
0.0000

> <Gold.PLP.Chemscore.Metal>
0.0000

> <Gold.Chemscore.Hbonds>
donor molecule, donor type, donor heavy atom, donor atom, acceptor molecule, acceptor atom, score
      P1  H  6933  6945       L1    13  0.49
      P1  H  7997  8009       L1     5  1.00

> <Gold.PLP.Chemscore.Internal.Correction>
0.0423

> <Gold.Rescore>
     Score         DG    S(hbond)    S(metal)    S(lipo)     H(rot)  DE(clash)    DE(int)     intcor
     19.38     -20.89       1.75        0.00     115.28       1.54       1.14       0.37       ----

> <Gold.Chemscore.Fitness>
19.3753

> <Gold.Chemscore.DG>
-20.8865

> <Gold.Chemscore.ZeroCoef>
-5.4800

> <Gold.Chemscore.Hbond>
1.7547

> <Gold.Chemscore.Metal>
0.0000

> <Gold.Chemscore.Lipo>
115.2797

> <Gold.Chemscore.Internal_Hbond>
0.0000

> <Gold.Chemscore.DEClash>
1.1440

> <Gold.Chemscore.DEInternal>
0.3672

> <Gold.Chemscore.Rot>
1.5398

> <Gold.Chemscore.Internal.Correction>
   9.000000E+99

> <Gold.Chemscore.Hbonds>
donor molecule, donor type, donor heavy atom, donor atom, acceptor molecule, acceptor atom, score
      P1  H  6933  6945       L1    13  0.22
      P1  H  7997  8009       L1     5  0.95

> <Gold.Chemscore.Hbond.Weighted>
-5.8607

> <Gold.Chemscore.Metal.Weighted>
-0.0000

> <Gold.Chemscore.Lipo.Weighted>
-13.4877

> <Gold.Chemscore.Internal_Hbond.Weighted>
0.0000

> <Gold.Chemscore.DEClash.Weighted>
1.1440

> <Gold.Chemscore.DEInternal.Weighted>
0.3672

> <Gold.Chemscore.Rot.Weighted>
3.9419

> <Gold.Chemscore.Internal.Correction.Weighted>
   9.000000E+99

> <Gold.Protein.RotatedTorsions>
[ 6907 6896 6895 6894 ] final  133.93 input  -60.11 | X-H torsion
[ 7974 7965 7964 7962 ] final -177.28 input  175.53 | X-H torsion
[ 8008 7997 7996 7995 ] final  106.14 input   59.86 | X-H torsion
[ 10167 10162 10161 10158 ] final  -86.11 input  -65.29 | X-H torsion
[ 10718 10713 10712 10709 ] final   41.85 input   66.30 | X-H torsion
[ 10763 10752 10751 10750 ] final  -17.87 input  -60.55 | X-H torsion
[ 11005 11000 10999 10996 ] final  -17.80 input  -57.11 | X-H torsion

> <Gold.Protein.ActiveResidues>
 VAL166  LYS551  ARG553  GLY616  TRP617  ASP618  TYR619  PRO620  LYS621  CYS622 
 ASP623  PHE694  ASN695  SER759  ASP760  ASP761  ALA762  ILE779  LEU786  VAL792 
 PHE793  MET794  SER795  GLU796  ALA797  LYS798  CYS799  TRP800  GLU811  SER814 

> <Gold.Protein.RotatedAtoms>
  152.3167  133.5810  159.5716 H   0  0  0  0  0  0  0  0  0  0  0  0  # atno 6907 bound_to 6896
  150.7350  134.0072  159.3666 H   0  0  0  0  0  0  0  0  0  0  0  0  # atno 6908 bound_to 6896
  151.7960  135.0723  160.0444 H   0  0  0  0  0  0  0  0  0  0  0  0  # atno 6909 bound_to 6896
  144.7127  140.1044  143.6414 H   0  0  0  0  0  0  0  0  0  0  0  0  # atno 7974 bound_to 7965
  156.1718  140.3118  155.8987 H   0  0  0  0  0  0  0  0  0  0  0  0  # atno 8008 bound_to 7997
  155.3571  140.0474  157.3063 H   0  0  0  0  0  0  0  0  0  0  0  0  # atno 8009 bound_to 7997
  154.5249  140.2211  155.8919 H   0  0  0  0  0  0  0  0  0  0  0  0  # atno 8010 bound_to 7997
  140.3973  143.2678  151.9188 H   0  0  0  0  0  0  0  0  0  0  0  0  # atno 10167 bound_to 10162
  157.3982  130.7845  149.7326 H   0  0  0  0  0  0  0  0  0  0  0  0  # atno 10718 bound_to 10713
  153.5805  135.7005  153.5465 H   0  0  0  0  0  0  0  0  0  0  0  0  # atno 10763 bound_to 10752
  153.3265  135.4059  155.1460 H   0  0  0  0  0  0  0  0  0  0  0  0  # atno 10764 bound_to 10752
  154.8618  135.3708  154.5332 H   0  0  0  0  0  0  0  0  0  0  0  0  # atno 10765 bound_to 10752
  140.8204  133.8072  155.9654 H   0  0  0  0  0  0  0  0  0  0  0  0  # atno 11005 bound_to 11000
  145.9510  139.2733  143.1212 LP  0  0  0  0  0  0  0  0  0  0  0  0  # atno 17320 bound_to 7965
  145.9323  140.9039  143.0350 LP  0  0  0  0  0  0  0  0  0  0  0  0  # atno 17321 bound_to 7965
  139.4786  144.5669  151.8151 LP  0  0  0  0  0  0  0  0  0  0  0  0  # atno 17342 bound_to 10162
  140.4777  144.1495  150.5927 LP  0  0  0  0  0  0  0  0  0  0  0  0  # atno 17343 bound_to 10162
  155.9816  130.4018  150.3462 LP  0  0  0  0  0  0  0  0  0  0  0  0  # atno 17370 bound_to 10713
  157.1586  131.0339  151.2851 LP  0  0  0  0  0  0  0  0  0  0  0  0  # atno 17371 bound_to 10713
  140.9105  134.2267  157.4989 LP  0  0  0  0  0  0  0  0  0  0  0  0  # atno 17394 bound_to 11000
  139.8709  134.9748  156.4858 LP  0  0  0  0  0  0  0  0  0  0  0  0  # atno 17395 bound_to 11000

$$$$
