AV-unprocessed.smi:3185|AV-procd|sdf|12171|dock10
  -GOLD-   2272018 13D 1   1.00000     0.00000
 Structure written by MMmdl.
 37 38  0  0  0  0  0  0  0  0  1 V2000
  151.7887  146.2292  159.8843 N   0  0  0  0  0  0  0  0  0  0  0  0
  152.0061  145.2383  159.3284 C   0  0  0  0  0  0  0  0  0  0  0  0
  152.2823  143.9786  158.6218 C   0  0  0  0  0  0  0  0  0  0  0  0
  151.0155  143.1555  158.3651 C   0  0  0  0  0  0  0  0  0  0  0  0
  151.3350  141.7750  157.7808 C   0  0  0  0  0  0  0  0  0  0  0  0
  150.1282  140.9625  157.7718 N   0  0  0  0  0  0  0  0  0  0  0  0
  149.1615  141.4061  156.7715 C   0  0  2  0  0  0  0  0  0  0  0  0
  147.8398  140.6475  157.0058 C   0  0  0  0  0  0  0  0  0  0  0  0
  146.7669  141.0766  155.9939 C   0  0  0  0  0  0  0  0  0  0  0  0
  147.2417  140.8697  154.5483 C   0  0  0  0  0  0  0  0  0  0  0  0
  148.5777  141.5899  154.2852 C   0  0  0  0  0  0  0  0  0  0  0  0
  149.6863  141.2558  155.3125 C   0  0  2  0  0  0  0  0  0  0  0  0
  150.3459  139.9755  155.0423 N   0  0  0  0  0  0  0  0  0  0  0  0
  149.7644  138.7230  155.0281 C   0  0  0  0  0  0  0  0  0  0  0  0
  150.7355  137.8166  154.7136 C   0  0  0  0  0  0  0  0  0  0  0  0
  151.8989  138.6162  154.5476 C   0  0  0  0  0  0  0  0  0  0  0  0
  151.6622  139.9025  154.7409 N   0  0  0  0  0  0  0  0  0  0  0  0
  152.7744  144.2248  157.6804 H   0  0  0  0  0  0  0  0  0  0  0  0
  152.9928  143.4085  159.2209 H   0  0  0  0  0  0  0  0  0  0  0  0
  150.4643  143.0417  159.2995 H   0  0  0  0  0  0  0  0  0  0  0  0
  150.3624  143.7022  157.6830 H   0  0  0  0  0  0  0  0  0  0  0  0
  151.7171  141.8776  156.7645 H   0  0  0  0  0  0  0  0  0  0  0  0
  152.1112  141.2974  158.3779 H   0  0  0  0  0  0  0  0  0  0  0  0
  150.3577  139.9907  157.6162 H   0  0  0  0  0  0  0  0  0  0  0  0
  148.9543  142.4621  156.9515 H   0  0  0  0  0  0  0  0  0  0  0  0
  147.9932  139.5700  156.9458 H   0  0  0  0  0  0  0  0  0  0  0  0
  147.4771  140.8431  158.0156 H   0  0  0  0  0  0  0  0  0  0  0  0
  145.8482  140.5155  156.1666 H   0  0  0  0  0  0  0  0  0  0  0  0
  146.5205  142.1277  156.1494 H   0  0  0  0  0  0  0  0  0  0  0  0
  147.3327  139.8046  154.3395 H   0  0  0  0  0  0  0  0  0  0  0  0
  146.4844  141.2425  153.8582 H   0  0  0  0  0  0  0  0  0  0  0  0
  148.9242  141.3752  153.2737 H   0  0  0  0  0  0  0  0  0  0  0  0
  148.3942  142.6646  154.3146 H   0  0  0  0  0  0  0  0  0  0  0  0
  150.4551  142.0154  155.1666 H   0  0  0  0  0  0  0  0  0  0  0  0
  148.7145  138.5816  155.2380 H   0  0  0  0  0  0  0  0  0  0  0  0
  150.6298  136.7465  154.6153 H   0  0  0  0  0  0  0  0  0  0  0  0
  152.9006  138.3033  154.2922 H   0  0  0  0  0  0  0  0  0  0  0  0
  1  2  3  0  0  0  0
  2  3  1  0  0  0  0
  3  4  1  0  0  0  0
  3 18  1  0  0  0  0
  3 19  1  0  0  0  0
  4  5  1  0  0  0  0
  4 20  1  0  0  0  0
  4 21  1  0  0  0  0
  5  6  1  0  0  0  0
  5 22  1  0  0  0  0
  5 23  1  0  0  0  0
  6  7  1  0  0  0  0
  6 24  1  0  0  0  0
  7 12  1  0  0  0  0
  7  8  1  0  0  0  0
  7 25  1  0  0  0  0
  8  9  1  0  0  0  0
  8 26  1  0  0  0  0
  8 27  1  0  0  0  0
  9 10  1  0  0  0  0
  9 28  1  0  0  0  0
  9 29  1  0  0  0  0
 10 11  1  0  0  0  0
 10 30  1  0  0  0  0
 10 31  1  0  0  0  0
 11 12  1  0  0  0  0
 11 32  1  0  0  0  0
 11 33  1  0  0  0  0
 12 13  1  0  0  0  0
 12 34  1  0  0  0  0
 13 17  1  0  0  0  0
 13 14  1  0  0  0  0
 14 15  2  0  0  0  0
 14 35  1  0  0  0  0
 15 16  1  0  0  0  0
 15 36  1  0  0  0  0
 16 17  2  0  0  0  0
 16 37  1  0  0  0  0
M  END
> <s_m_source_file>
AV-unprocessed.smi

> <i_m_source_file_index>
3185

> <i_lp_mmshare_version>
43012

> <i_f3d_flags>
0

> <s_epik_input>
TiNDW0NIMl1bQ0gyXVtDSDJdW05IXVtDQEBIXTFbQ0gyXVtDSDJdW0NIMl1bQ0gyXVtDQEhdMW4yW2NIXVtjSF1bY0hdbjI=

> <s_epik_cmdline>
J2VwaWtfcHl0aG9uJywgJy1waCcsICc3LjAnLCAnLXRuJywgJzgnLCAnLW1hJywgJzIwMCcsICctbWV0YWxfYmluZGluZycsICctaW1hZScsICc8aW5maWxlLm1hZT4nLCAnLW9tYWUnLCAnPG91dGZpbGUubWFlPic=

> <r_lp_tautomer_probability>
1

> <r_epik_Ionization_Penalty>
2.21326

> <r_epik_Ionization_Penalty_Charging>
0

> <r_epik_Ionization_Penalty_Neutral>
2.21326

> <r_epik_State_Penalty>
2.35651

> <r_epik_Charging_Adjusted_Penalty>
2.35651

> <i_epik_Tot_Q>
0

> <i_epik_Tot_abs_Q>
0

> <r_epik_Metal_State_Penalty>
2.3555

> <b_epik_Metal_Only>
0

> <s_lp_Force_Field>
OPLS_2005

> <r_lp_Energy>
17.6064

> <b_lp_Chiralities_Consistent>
1

> <s_lp_Variant>
AV-unprocessed.smi:3185-7

> <Gold.Version>
5.8.1

> <Gold.Id.Protein>
6NUR|6NUR_protein|mol2

> <Gold.PLP.Fitness>
39.4417

> <Gold.PLP.PLP>
-36.7803

> <Gold.PLP.part.hbond>
-2.3297

> <Gold.PLP.part.metal>
0.0000

> <Gold.PLP.part.buried>
-4.5151

> <Gold.PLP.part.nonpolar>
-29.8696

> <Gold.PLP.part.repulsive>
0.2741

> <Gold.PLP.ligand.clash>
0.0000

> <Gold.PLP.ligand.torsion>
0.1346

> <Gold.PLP.Chemscore.Hbond>
0.9500

> <Gold.PLP.Chemscore.CHOScore>
0.0000

> <Gold.PLP.Chemscore.Metal>
0.0000

> <Gold.Chemscore.Hbonds>
donor molecule, donor type, donor heavy atom, donor atom, acceptor molecule, acceptor atom, score
      P1  H  7989  7998       L1    17  0.90

> <Gold.PLP.Chemscore.Internal.Correction>
0.0806

> <Gold.Rescore>
     Score         DG    S(hbond)    S(metal)    S(lipo)     H(rot)  DE(clash)    DE(int)     intcor
     12.00     -12.22       0.90        0.00      71.62       1.81       0.00       0.22       ----

> <Gold.Chemscore.Fitness>
12.0004

> <Gold.Chemscore.DG>
-12.2222

> <Gold.Chemscore.ZeroCoef>
-5.4800

> <Gold.Chemscore.Hbond>
0.8978

> <Gold.Chemscore.Metal>
0.0000

> <Gold.Chemscore.Lipo>
71.6204

> <Gold.Chemscore.Internal_Hbond>
0.0000

> <Gold.Chemscore.DEClash>
0.0029

> <Gold.Chemscore.DEInternal>
0.2189

> <Gold.Chemscore.Rot>
1.8110

> <Gold.Chemscore.Internal.Correction>
   9.000000E+99

> <Gold.Chemscore.Hbonds>
donor molecule, donor type, donor heavy atom, donor atom, acceptor molecule, acceptor atom, score
      P1  H  7989  7998       L1    17  0.16

> <Gold.Chemscore.Hbond.Weighted>
-2.9988

> <Gold.Chemscore.Metal.Weighted>
-0.0000

> <Gold.Chemscore.Lipo.Weighted>
-8.3796

> <Gold.Chemscore.Internal_Hbond.Weighted>
0.0000

> <Gold.Chemscore.DEClash.Weighted>
0.0029

> <Gold.Chemscore.DEInternal.Weighted>
0.2189

> <Gold.Chemscore.Rot.Weighted>
4.6362

> <Gold.Chemscore.Internal.Correction.Weighted>
   9.000000E+99

> <Gold.Protein.RotatedTorsions>
[ 6907 6896 6895 6894 ] final   13.18 input  -60.11 | X-H torsion
[ 7974 7965 7964 7962 ] final   44.25 input  175.53 | X-H torsion
[ 8008 7997 7996 7995 ] final  155.71 input   59.86 | X-H torsion
[ 10167 10162 10161 10158 ] final   -6.29 input  -65.29 | X-H torsion
[ 10718 10713 10712 10709 ] final   38.70 input   66.30 | X-H torsion
[ 10763 10752 10751 10750 ] final  -99.32 input  -60.55 | X-H torsion
[ 11005 11000 10999 10996 ] final    9.35 input  -57.11 | X-H torsion

> <Gold.Protein.ActiveResidues>
 VAL166  LYS551  ARG553  GLY616  TRP617  ASP618  TYR619  PRO620  LYS621  CYS622 
 ASP623  PHE694  ASN695  SER759  ASP760  ASP761  ALA762  ILE779  LEU786  VAL792 
 PHE793  MET794  SER795  GLU796  ALA797  LYS798  CYS799  TRP800  GLU811  SER814 

> <Gold.Protein.RotatedAtoms>
  151.7822  135.0758  160.0375 H   0  0  0  0  0  0  0  0  0  0  0  0  # atno 6907 bound_to 6896
  152.3215  133.5854  159.5756 H   0  0  0  0  0  0  0  0  0  0  0  0  # atno 6908 bound_to 6896
  150.7372  133.9920  159.3652 H   0  0  0  0  0  0  0  0  0  0  0  0  # atno 6909 bound_to 6896
  146.0585  139.5095  142.9673 H   0  0  0  0  0  0  0  0  0  0  0  0  # atno 7974 bound_to 7965
  156.2463  140.1932  156.6843 H   0  0  0  0  0  0  0  0  0  0  0  0  # atno 8008 bound_to 7997
  154.6298  140.0597  156.9744 H   0  0  0  0  0  0  0  0  0  0  0  0  # atno 8009 bound_to 7997
  155.1728  140.3269  155.4392 H   0  0  0  0  0  0  0  0  0  0  0  0  # atno 8010 bound_to 7997
  140.6992  143.6211  150.8612 H   0  0  0  0  0  0  0  0  0  0  0  0  # atno 10167 bound_to 10162
  157.3619  130.7654  149.7054 H   0  0  0  0  0  0  0  0  0  0  0  0  # atno 10718 bound_to 10713
  154.7488  135.4976  153.9252 H   0  0  0  0  0  0  0  0  0  0  0  0  # atno 10763 bound_to 10752
  153.1121  135.6711  153.9491 H   0  0  0  0  0  0  0  0  0  0  0  0  # atno 10764 bound_to 10752
  153.9247  135.3084  155.3426 H   0  0  0  0  0  0  0  0  0  0  0  0  # atno 10765 bound_to 10752
  140.5268  134.0505  155.7861 H   0  0  0  0  0  0  0  0  0  0  0  0  # atno 11005 bound_to 11000
  145.6602  141.0242  143.1713 LP  0  0  0  0  0  0  0  0  0  0  0  0  # atno 17320 bound_to 7965
  144.7161  139.8191  143.7398 LP  0  0  0  0  0  0  0  0  0  0  0  0  # atno 17321 bound_to 7965
  139.9931  143.5825  152.2903 LP  0  0  0  0  0  0  0  0  0  0  0  0  # atno 17342 bound_to 10162
  139.6487  144.7659  151.2191 LP  0  0  0  0  0  0  0  0  0  0  0  0  # atno 17343 bound_to 10162
  155.9739  130.4111  150.3966 LP  0  0  0  0  0  0  0  0  0  0  0  0  # atno 17370 bound_to 10713
  157.2044  131.0446  151.2633 LP  0  0  0  0  0  0  0  0  0  0  0  0  # atno 17371 bound_to 10713
  141.1304  133.9312  157.2548 LP  0  0  0  0  0  0  0  0  0  0  0  0  # atno 17394 bound_to 11000
  139.9576  135.0162  156.9171 LP  0  0  0  0  0  0  0  0  0  0  0  0  # atno 17395 bound_to 11000

$$$$
