AV-unprocessed.smi:1254|AV-procd|sdf|5272|dock9
  -GOLD-   22720 4393D 1   1.00000     0.00000
 Structure written by MMmdl.
 46 47  0  0  0  0  0  0  0  0  2 V2000
  153.0525  142.8510  160.6987 C   0  0  0  0  0  0  0  0  0  0  0  0
  152.9105  141.6646  159.8080 C   0  0  0  0  0  0  0  0  0  0  0  0
  151.8563  141.1489  159.1082 C   0  0  0  0  0  0  0  0  0  0  0  0
  152.4192  140.0084  158.4765 C   0  0  0  0  0  0  0  0  0  0  0  0
  151.6333  139.1795  157.6360 N   0  0  0  0  0  0  0  0  0  0  0  0
  151.8353  137.8831  157.3465 C   0  0  0  0  0  0  0  0  0  0  0  0
  152.7492  137.1892  157.7933 O   0  0  0  0  0  0  0  0  0  0  0  0
  150.9104  137.4220  156.4923 N   0  0  0  0  0  0  0  0  0  0  0  0
  150.8580  136.0582  155.9765 C   0  0  0  0  0  0  0  0  0  0  0  0
  149.6631  135.8464  155.0292 C   0  0  1  0  0  0  0  0  0  0  0  0
  149.5364  134.3779  154.5804 C   0  0  0  0  0  0  0  0  0  0  0  0
  148.3451  134.2026  153.7129 N   0  3  1  0  0  0  0  0  0  0  0  0
  148.1813  132.8211  153.1918 C   0  0  0  0  0  0  0  0  0  0  0  0
  146.8266  132.5907  152.4871 C   0  0  0  0  0  0  0  0  0  0  0  0
  146.5096  131.0944  152.3260 C   0  0  0  0  0  0  0  0  0  0  0  0
  146.8046  133.2923  151.1210 C   0  0  0  0  0  0  0  0  0  0  0  0
  147.1286  134.6934  154.4029 C   0  0  0  0  0  0  0  0  0  0  0  0
  147.3253  136.1427  154.8767 C   0  0  0  0  0  0  0  0  0  0  0  0
  148.4713  136.2176  155.7147 O   0  0  0  0  0  0  0  0  0  0  0  0
  153.7016  139.8433  158.7633 N   0  0  0  0  0  0  0  0  0  0  0  0
  154.0225  140.9034  159.6193 O   0  0  0  0  0  0  0  0  0  0  0  0
  152.2673  143.5812  160.5018 H   0  0  0  0  0  0  0  0  0  0  0  0
  154.0143  143.3407  160.5453 H   0  0  0  0  0  0  0  0  0  0  0  0
  152.9854  142.5560  161.7459 H   0  0  0  0  0  0  0  0  0  0  0  0
  150.8470  141.5289  159.0590 H   0  0  0  0  0  0  0  0  0  0  0  0
  150.8377  139.6245  157.2030 H   0  0  0  0  0  0  0  0  0  0  0  0
  150.1940  138.0579  156.1731 H   0  0  0  0  0  0  0  0  0  0  0  0
  151.7936  135.8292  155.4636 H   0  0  0  0  0  0  0  0  0  0  0  0
  150.7931  135.3727  156.8219 H   0  0  0  0  0  0  0  0  0  0  0  0
  149.7847  136.4771  154.1465 H   0  0  0  0  0  0  0  0  0  0  0  0
  150.4403  134.0901  154.0450 H   0  0  0  0  0  0  0  0  0  0  0  0
  149.4572  133.7228  155.4495 H   0  0  0  0  0  0  0  0  0  0  0  0
  149.0085  132.5927  152.5178 H   0  0  0  0  0  0  0  0  0  0  0  0
  148.2597  132.1136  154.0188 H   0  0  0  0  0  0  0  0  0  0  0  0
  146.0317  133.0406  153.0811 H   0  0  0  0  0  0  0  0  0  0  0  0
  147.2769  130.5868  151.7405 H   0  0  0  0  0  0  0  0  0  0  0  0
  145.5553  130.9485  151.8186 H   0  0  0  0  0  0  0  0  0  0  0  0
  146.4416  130.5933  153.2917 H   0  0  0  0  0  0  0  0  0  0  0  0
  147.5692  132.8899  150.4555 H   0  0  0  0  0  0  0  0  0  0  0  0
  146.9835  134.3629  151.2249 H   0  0  0  0  0  0  0  0  0  0  0  0
  145.8387  133.1687  150.6301 H   0  0  0  0  0  0  0  0  0  0  0  0
  146.2727  134.6431  153.7288 H   0  0  0  0  0  0  0  0  0  0  0  0
  146.9060  134.0484  155.2546 H   0  0  0  0  0  0  0  0  0  0  0  0
  147.4333  136.8205  154.0283 H   0  0  0  0  0  0  0  0  0  0  0  0
  146.4534  136.4755  155.4398 H   0  0  0  0  0  0  0  0  0  0  0  0
  148.4742  134.8004  152.9087 H   0  0  0  0  0  0  0  0  0  0  0  0
  1  2  1  0  0  0  0
  1 22  1  0  0  0  0
  1 23  1  0  0  0  0
  1 24  1  0  0  0  0
  2 21  1  0  0  0  0
  2  3  2  0  0  0  0
  3  4  1  0  0  0  0
  3 25  1  0  0  0  0
  4  5  1  0  0  0  0
  4 20  2  0  0  0  0
  5  6  1  0  0  0  0
  5 26  1  0  0  0  0
  6  7  2  0  0  0  0
  6  8  1  0  0  0  0
  8  9  1  0  0  0  0
  8 27  1  0  0  0  0
  9 10  1  0  0  0  0
  9 28  1  0  0  0  0
  9 29  1  0  0  0  0
 10 19  1  0  0  0  0
 10 11  1  0  0  0  0
 10 30  1  0  0  0  0
 11 12  1  0  0  0  0
 11 31  1  0  0  0  0
 11 32  1  0  0  0  0
 12 13  1  0  0  0  0
 12 17  1  0  0  0  0
 12 46  1  0  0  0  0
 13 14  1  0  0  0  0
 13 33  1  0  0  0  0
 13 34  1  0  0  0  0
 14 15  1  0  0  0  0
 14 16  1  0  0  0  0
 14 35  1  0  0  0  0
 15 36  1  0  0  0  0
 15 37  1  0  0  0  0
 15 38  1  0  0  0  0
 16 39  1  0  0  0  0
 16 40  1  0  0  0  0
 16 41  1  0  0  0  0
 17 18  1  0  0  0  0
 17 42  1  0  0  0  0
 17 43  1  0  0  0  0
 18 19  1  0  0  0  0
 18 44  1  0  0  0  0
 18 45  1  0  0  0  0
 20 21  1  0  0  0  0
M  CHG  1  12   1
M  END
> <s_m_source_file>
AV-unprocessed.smi

> <i_m_source_file_index>
1254

> <i_lp_mmshare_version>
43012

> <i_f3d_flags>
0

> <s_epik_input>
W0NIM11jMVtjSF1jKG5vMSlbTkhdQyg9TylbTkhdW0NIMl1bQ0BASF0yW0NIMl1OKFtDSDJdW0NIMl1PMilbQ0gyXVtDSF0oW0NIM10pW0NIM10=

> <s_epik_cmdline>
J2VwaWtfcHl0aG9uJywgJy1waCcsICc3LjAnLCAnLXRuJywgJzgnLCAnLW1hJywgJzIwMCcsICctbWV0YWxfYmluZGluZycsICctaW1hZScsICc8aW5maWxlLm1hZT4nLCAnLW9tYWUnLCAnPG91dGZpbGUubWFlPic=

> <r_epik_Ionization_Penalty>
0.0986825

> <r_epik_Ionization_Penalty_Charging>
0.0986478

> <r_epik_Ionization_Penalty_Neutral>
3.46838e-05

> <r_epik_State_Penalty>
0.0887259

> <r_epik_Charging_Adjusted_Penalty>
0.187374

> <i_epik_Tot_Q>
1

> <i_epik_Tot_abs_Q>
1

> <r_epik_Metal_State_Penalty>
0.103424

> <b_epik_Metal_Only>
0

> <s_lp_Force_Field>
OPLS_2005

> <r_lp_Energy>
13.7393

> <b_lp_Chiralities_Consistent>
1

> <s_lp_Variant>
AV-unprocessed.smi:1254-4

> <Gold.Version>
5.8.1

> <Gold.Id.Protein>
6NUR|6NUR_protein|mol2

> <Gold.PLP.Fitness>
38.6841

> <Gold.PLP.PLP>
-30.3339

> <Gold.PLP.part.hbond>
-2.0000

> <Gold.PLP.part.metal>
0.0000

> <Gold.PLP.part.buried>
-3.8922

> <Gold.PLP.part.nonpolar>
-24.1827

> <Gold.PLP.part.repulsive>
0.1598

> <Gold.PLP.ligand.clash>
0.0000

> <Gold.PLP.ligand.torsion>
0.3386

> <Gold.PLP.Chemscore.Hbond>
3.0000

> <Gold.PLP.Chemscore.CHOScore>
0.0000

> <Gold.PLP.Chemscore.Metal>
0.0000

> <Gold.Chemscore.Hbonds>
donor molecule, donor type, donor heavy atom, donor atom, acceptor molecule, acceptor atom, score
      L1  H    12    46       P1  7948  2.00
      P1  H  7997  8009       L1    20  1.00

> <Gold.PLP.Chemscore.Internal.Correction>
0.0275

> <Gold.Rescore>
     Score         DG    S(hbond)    S(metal)    S(lipo)     H(rot)  DE(clash)    DE(int)     intcor
     13.62     -15.06       1.79        0.00      68.48       1.73       0.01       1.42       ----

> <Gold.Chemscore.Fitness>
13.6223

> <Gold.Chemscore.DG>
-15.0574

> <Gold.Chemscore.ZeroCoef>
-5.4800

> <Gold.Chemscore.Hbond>
1.7940

> <Gold.Chemscore.Metal>
0.0000

> <Gold.Chemscore.Lipo>
68.4778

> <Gold.Chemscore.Internal_Hbond>
0.0000

> <Gold.Chemscore.DEClash>
0.0110

> <Gold.Chemscore.DEInternal>
1.4241

> <Gold.Chemscore.Rot>
1.7291

> <Gold.Chemscore.Internal.Correction>
   9.000000E+99

> <Gold.Chemscore.Hbonds>
donor molecule, donor type, donor heavy atom, donor atom, acceptor molecule, acceptor atom, score
      L1  H    12    46       P1  7948  0.45
      P1  H  7997  8009       L1    20  0.46

> <Gold.Chemscore.Hbond.Weighted>
-5.9920

> <Gold.Chemscore.Metal.Weighted>
-0.0000

> <Gold.Chemscore.Lipo.Weighted>
-8.0119

> <Gold.Chemscore.Internal_Hbond.Weighted>
0.0000

> <Gold.Chemscore.DEClash.Weighted>
0.0110

> <Gold.Chemscore.DEInternal.Weighted>
1.4241

> <Gold.Chemscore.Rot.Weighted>
4.4265

> <Gold.Chemscore.Internal.Correction.Weighted>
   9.000000E+99

> <Gold.Protein.RotatedTorsions>
[ 6907 6896 6895 6894 ] final  172.44 input  -60.11 | X-H torsion
[ 7974 7965 7964 7962 ] final  114.08 input  175.53 | X-H torsion
[ 8008 7997 7996 7995 ] final  136.05 input   59.86 | X-H torsion
[ 10167 10162 10161 10158 ] final   92.24 input  -65.29 | X-H torsion
[ 10718 10713 10712 10709 ] final    8.43 input   66.30 | X-H torsion
[ 10763 10752 10751 10750 ] final -163.54 input  -60.55 | X-H torsion
[ 11005 11000 10999 10996 ] final  170.44 input  -57.11 | X-H torsion

> <Gold.Protein.ActiveResidues>
 VAL166  LYS551  ARG553  GLY616  TRP617  ASP618  TYR619  PRO620  LYS621  CYS622 
 ASP623  PHE694  ASN695  SER759  ASP760  ASP761  ALA762  ILE779  LEU786  VAL792 
 PHE793  MET794  SER795  GLU796  ALA797  LYS798  CYS799  TRP800  GLU811  SER814 

> <Gold.Protein.RotatedAtoms>
  151.7842  133.3352  159.3480 H   0  0  0  0  0  0  0  0  0  0  0  0  # atno 6907 bound_to 6896
  150.7415  134.5902  159.5993 H   0  0  0  0  0  0  0  0  0  0  0  0  # atno 6908 bound_to 6896
  152.3255  134.7328  160.0354 H   0  0  0  0  0  0  0  0  0  0  0  0  # atno 6909 bound_to 6896
  145.2090  139.2915  143.4278 H   0  0  0  0  0  0  0  0  0  0  0  0  # atno 7974 bound_to 7965
  156.3004  140.2455  156.3682 H   0  0  0  0  0  0  0  0  0  0  0  0  # atno 8008 bound_to 7997
  154.8814  140.0412  157.1804 H   0  0  0  0  0  0  0  0  0  0  0  0  # atno 8009 bound_to 7997
  154.8692  140.2932  155.5495 H   0  0  0  0  0  0  0  0  0  0  0  0  # atno 8010 bound_to 7997
  139.8295  144.6693  150.9417 H   0  0  0  0  0  0  0  0  0  0  0  0  # atno 10167 bound_to 10162
  156.9515  130.5899  149.5657 H   0  0  0  0  0  0  0  0  0  0  0  0  # atno 10718 bound_to 10713
  154.7112  135.3007  154.9193 H   0  0  0  0  0  0  0  0  0  0  0  0  # atno 10763 bound_to 10752
  154.0094  135.6696  153.4768 H   0  0  0  0  0  0  0  0  0  0  0  0  # atno 10764 bound_to 10752
  153.0757  135.5036  154.8312 H   0  0  0  0  0  0  0  0  0  0  0  0  # atno 10765 bound_to 10752
  140.3084  134.7537  157.3972 H   0  0  0  0  0  0  0  0  0  0  0  0  # atno 11005 bound_to 11000
  146.3402  140.2359  142.8594 LP  0  0  0  0  0  0  0  0  0  0  0  0  # atno 17320 bound_to 7965
  144.9875  140.8516  143.5360 LP  0  0  0  0  0  0  0  0  0  0  0  0  # atno 17321 bound_to 7965
  140.7807  143.4014  151.1143 LP  0  0  0  0  0  0  0  0  0  0  0  0  # atno 17342 bound_to 10162
  139.7669  143.8552  152.3112 LP  0  0  0  0  0  0  0  0  0  0  0  0  # atno 17343 bound_to 10162
  156.0361  130.5448  150.8656 LP  0  0  0  0  0  0  0  0  0  0  0  0  # atno 17370 bound_to 10713
  157.5719  131.0946  150.9405 LP  0  0  0  0  0  0  0  0  0  0  0  0  # atno 17371 bound_to 10713
  140.1047  134.5426  155.8320 LP  0  0  0  0  0  0  0  0  0  0  0  0  # atno 17394 bound_to 11000
  141.2113  133.6705  156.6576 LP  0  0  0  0  0  0  0  0  0  0  0  0  # atno 17395 bound_to 11000

$$$$
