AV-unprocessed.smi:1805|AV-procd|sdf|7298|dock4
  -GOLD-   22720 8553D 1   1.00000     0.00000
 Structure written by MMmdl.
 29 30  0  0  0  0  0  0  0  0  1 V2000
  149.6492  140.3237  156.5685 O   0  0  0  0  0  0  0  0  0  0  0  0
  149.6419  141.5355  156.3512 C   0  0  0  0  0  0  0  0  0  0  0  0
  150.4846  142.4004  156.9334 N   0  0  0  0  0  0  0  0  0  0  0  0
  151.5215  142.0522  157.8997 C   0  0  0  0  0  0  0  0  0  0  0  0
  151.8991  143.2488  158.7893 C   0  0  1  0  0  0  0  0  0  0  0  0
  152.3932  144.4866  158.0393 C   0  0  0  0  0  0  0  0  0  0  0  0
  152.0817  145.5845  159.0299 C   0  0  0  0  0  0  0  0  0  0  0  0
  150.7448  145.1175  159.5980 C   0  0  0  0  0  0  0  0  0  0  0  0
  150.7606  143.6939  159.5222 O   0  0  0  0  0  0  0  0  0  0  0  0
  148.7988  142.1646  155.5164 N   0  0  0  0  0  0  0  0  0  0  0  0
  147.7785  141.5819  154.7226 C   0  0  0  0  0  0  0  0  0  0  0  0
  147.9881  140.5590  153.7584 C   0  0  0  0  0  0  0  0  0  0  0  0
  146.8528  140.2074  153.1716 N   0  0  0  0  0  0  0  0  0  0  0  0
  145.9202  140.9946  153.7540 N   0  0  0  0  0  0  0  0  0  0  0  0
  146.4377  141.8469  154.7042 C   0  0  0  0  0  0  0  0  0  0  0  0
  144.9453  140.9383  153.4958 H   0  0  0  0  0  0  0  0  0  0  0  0
  150.4015  143.3774  156.6936 H   0  0  0  0  0  0  0  0  0  0  0  0
  151.2209  141.2002  158.5118 H   0  0  0  0  0  0  0  0  0  0  0  0
  152.3985  141.7281  157.3391 H   0  0  0  0  0  0  0  0  0  0  0  0
  152.6539  142.9470  159.5175 H   0  0  0  0  0  0  0  0  0  0  0  0
  153.4500  144.4339  157.7763 H   0  0  0  0  0  0  0  0  0  0  0  0
  151.8190  144.6382  157.1241 H   0  0  0  0  0  0  0  0  0  0  0  0
  152.8381  145.6056  159.8156 H   0  0  0  0  0  0  0  0  0  0  0  0
  152.0307  146.5740  158.5752 H   0  0  0  0  0  0  0  0  0  0  0  0
  150.5855  145.4606  160.6204 H   0  0  0  0  0  0  0  0  0  0  0  0
  149.9214  145.4859  158.9849 H   0  0  0  0  0  0  0  0  0  0  0  0
  148.8971  143.1663  155.4395 H   0  0  0  0  0  0  0  0  0  0  0  0
  148.9071  140.0701  153.4700 H   0  0  0  0  0  0  0  0  0  0  0  0
  145.8201  142.5374  155.2593 H   0  0  0  0  0  0  0  0  0  0  0  0
  1  2  2  0  0  0  0
  2  3  1  0  0  0  0
  2 10  1  0  0  0  0
  3  4  1  0  0  0  0
  3 17  1  0  0  0  0
  4  5  1  0  0  0  0
  4 18  1  0  0  0  0
  4 19  1  0  0  0  0
  5  9  1  0  0  0  0
  5  6  1  0  0  0  0
  5 20  1  0  0  0  0
  6  7  1  0  0  0  0
  6 21  1  0  0  0  0
  6 22  1  0  0  0  0
  7  8  1  0  0  0  0
  7 23  1  0  0  0  0
  7 24  1  0  0  0  0
  8  9  1  0  0  0  0
  8 25  1  0  0  0  0
  8 26  1  0  0  0  0
 10 11  1  0  0  0  0
 10 27  1  0  0  0  0
 11 15  2  0  0  0  0
 11 12  1  0  0  0  0
 12 13  2  0  0  0  0
 12 28  1  0  0  0  0
 13 14  1  0  0  0  0
 14 16  1  0  0  0  0
 14 15  1  0  0  0  0
 15 29  1  0  0  0  0
M  END
> <s_m_source_file>
AV-unprocessed.smi

> <i_m_source_file_index>
1805

> <i_lp_mmshare_version>
43012

> <i_f3d_flags>
0

> <s_epik_input>
W2NIXTFbbkhdbltjSF1jMVtOSF1DKD1PKVtOSF1bQ0gyXVtDQEBIXTJbQ0gyXVtDSDJdW0NIMl1PMg==

> <s_epik_cmdline>
J2VwaWtfcHl0aG9uJywgJy1waCcsICc3LjAnLCAnLXRuJywgJzgnLCAnLW1hJywgJzIwMCcsICctbWV0YWxfYmluZGluZycsICctaW1hZScsICc8aW5maWxlLm1hZT4nLCAnLW9tYWUnLCAnPG91dGZpbGUubWFlPic=

> <r_lp_tautomer_probability>
1

> <r_epik_Ionization_Penalty>
4.81496e-05

> <r_epik_Ionization_Penalty_Charging>
0

> <r_epik_Ionization_Penalty_Neutral>
4.81496e-05

> <r_epik_State_Penalty>
-0

> <r_epik_Charging_Adjusted_Penalty>
0

> <i_epik_Tot_Q>
0

> <i_epik_Tot_abs_Q>
0

> <r_epik_Metal_State_Penalty>
-0

> <b_epik_Metal_Only>
0

> <s_lp_Force_Field>
OPLS_2005

> <r_lp_Energy>
19.2876

> <b_lp_Chiralities_Consistent>
1

> <s_lp_Variant>
AV-unprocessed.smi:1805-2

> <Gold.Version>
5.8.1

> <Gold.Id.Protein>
6NUR|6NUR_protein|mol2

> <Gold.PLP.Fitness>
39.3179

> <Gold.PLP.PLP>
-30.5276

> <Gold.PLP.part.hbond>
-2.9407

> <Gold.PLP.part.metal>
0.0000

> <Gold.PLP.part.buried>
-3.6482

> <Gold.PLP.part.nonpolar>
-24.7061

> <Gold.PLP.part.repulsive>
0.4675

> <Gold.PLP.ligand.clash>
0.0000

> <Gold.PLP.ligand.torsion>
0.7016

> <Gold.PLP.Chemscore.Hbond>
2.3976

> <Gold.PLP.Chemscore.CHOScore>
0.9998

> <Gold.PLP.Chemscore.Metal>
0.0000

> <Gold.Chemscore.Hbonds>
donor molecule, donor type, donor heavy atom, donor atom, acceptor molecule, acceptor atom, score
      L1  H     3    17       P1  8028  0.31
      L1  H    10    27       P1  8028  1.00
      L1  H    14    16       P1 10175  1.00
      L1  C    12    28       P1  7957  0.81

> <Gold.PLP.Chemscore.Internal.Correction>
0.0011

> <Gold.Rescore>
     Score         DG    S(hbond)    S(metal)    S(lipo)     H(rot)  DE(clash)    DE(int)     intcor
     18.67     -19.40       2.54        0.00      75.61       1.33       0.23       0.51       ----

> <Gold.Chemscore.Fitness>
18.6706

> <Gold.Chemscore.DG>
-19.4040

> <Gold.Chemscore.ZeroCoef>
-5.4800

> <Gold.Chemscore.Hbond>
2.5402

> <Gold.Chemscore.Metal>
0.0000

> <Gold.Chemscore.Lipo>
75.6071

> <Gold.Chemscore.Internal_Hbond>
0.0000

> <Gold.Chemscore.DEClash>
0.2266

> <Gold.Chemscore.DEInternal>
0.5068

> <Gold.Chemscore.Rot>
1.3306

> <Gold.Chemscore.Internal.Correction>
   9.000000E+99

> <Gold.Chemscore.Hbonds>
donor molecule, donor type, donor heavy atom, donor atom, acceptor molecule, acceptor atom, score
      L1  H     3    17       P1  8028  0.31
      L1  H    10    27       P1  8028  0.96
      L1  H    14    16       P1 10175  0.73

> <Gold.Chemscore.Hbond.Weighted>
-8.4842

> <Gold.Chemscore.Metal.Weighted>
-0.0000

> <Gold.Chemscore.Lipo.Weighted>
-8.8460

> <Gold.Chemscore.Internal_Hbond.Weighted>
0.0000

> <Gold.Chemscore.DEClash.Weighted>
0.2266

> <Gold.Chemscore.DEInternal.Weighted>
0.5068

> <Gold.Chemscore.Rot.Weighted>
3.4063

> <Gold.Chemscore.Internal.Correction.Weighted>
   9.000000E+99

> <Gold.Protein.RotatedTorsions>
[ 6907 6896 6895 6894 ] final  174.31 input  -60.11 | X-H torsion
[ 7974 7965 7964 7962 ] final  -95.42 input  175.53 | X-H torsion
[ 8008 7997 7996 7995 ] final  119.63 input   59.86 | X-H torsion
[ 10167 10162 10161 10158 ] final   82.03 input  -65.29 | X-H torsion
[ 10718 10713 10712 10709 ] final   14.49 input   66.30 | X-H torsion
[ 10763 10752 10751 10750 ] final   37.61 input  -60.55 | X-H torsion
[ 11005 11000 10999 10996 ] final -141.09 input  -57.11 | X-H torsion

> <Gold.Protein.ActiveResidues>
 VAL166  LYS551  ARG553  GLY616  TRP617  ASP618  TYR619  PRO620  LYS621  CYS622 
 ASP623  PHE694  ASN695  SER759  ASP760  ASP761  ALA762  ILE779  LEU786  VAL792 
 PHE793  MET794  SER795  GLU796  ALA797  LYS798  CYS799  TRP800  GLU811  SER814 

> <Gold.Protein.RotatedAtoms>
  151.7543  133.3329  159.3399 H   0  0  0  0  0  0  0  0  0  0  0  0  # atno 6907 bound_to 6896
  150.7523  134.6163  159.6122 H   0  0  0  0  0  0  0  0  0  0  0  0  # atno 6908 bound_to 6896
  152.3447  134.7089  160.0305 H   0  0  0  0  0  0  0  0  0  0  0  0  # atno 6909 bound_to 6896
  145.3602  140.9490  143.2505 H   0  0  0  0  0  0  0  0  0  0  0  0  # atno 7974 bound_to 7965
  156.2605  140.2849  156.1021 H   0  0  0  0  0  0  0  0  0  0  0  0  # atno 8008 bound_to 7997
  155.1348  140.0394  157.2801 H   0  0  0  0  0  0  0  0  0  0  0  0  # atno 8009 bound_to 7997
  154.6573  140.2558  155.7154 H   0  0  0  0  0  0  0  0  0  0  0  0  # atno 8010 bound_to 7997
  139.9330  144.6139  150.8326 H   0  0  0  0  0  0  0  0  0  0  0  0  # atno 10167 bound_to 10162
  157.0399  130.6227  149.5749 H   0  0  0  0  0  0  0  0  0  0  0  0  # atno 10718 bound_to 10713
  153.0031  135.6273  154.2173 H   0  0  0  0  0  0  0  0  0  0  0  0  # atno 10763 bound_to 10752
  154.1916  135.2808  155.3022 H   0  0  0  0  0  0  0  0  0  0  0  0  # atno 10764 bound_to 10752
  154.5755  135.5663  153.7195 H   0  0  0  0  0  0  0  0  0  0  0  0  # atno 10765 bound_to 10752
  140.8358  134.2461  157.4834 H   0  0  0  0  0  0  0  0  0  0  0  0  # atno 11005 bound_to 11000
  144.8652  139.5119  143.6793 LP  0  0  0  0  0  0  0  0  0  0  0  0  # atno 17320 bound_to 7965
  146.2930  139.7195  142.9147 LP  0  0  0  0  0  0  0  0  0  0  0  0  # atno 17321 bound_to 7965
  140.7632  143.3217  151.2607 LP  0  0  0  0  0  0  0  0  0  0  0  0  # atno 17342 bound_to 10162
  139.6766  143.9927  152.2784 LP  0  0  0  0  0  0  0  0  0  0  0  0  # atno 17343 bound_to 10162
  156.0041  130.5125  150.7769 LP  0  0  0  0  0  0  0  0  0  0  0  0  # atno 17370 bound_to 10713
  157.5112  131.0925  151.0195 LP  0  0  0  0  0  0  0  0  0  0  0  0  # atno 17371 bound_to 10713
  139.8704  134.9610  156.4382 LP  0  0  0  0  0  0  0  0  0  0  0  0  # atno 17394 bound_to 11000
  140.8948  133.7822  155.9613 LP  0  0  0  0  0  0  0  0  0  0  0  0  # atno 17395 bound_to 11000

$$$$
