AV-unprocessed.smi:535|AV-procd|sdf|2859|dock3
  -GOLD-   2262023353D 1   1.00000     0.00000
 Structure written by MMmdl.
 46 48  0  0  0  0  0  0  0  0  1 V2000
  147.7507  141.2254  154.1710 C   0  0  0  0  0  0  0  0  0  0  0  0
  149.0733  141.6616  154.4316 O   0  0  0  0  0  0  0  0  0  0  0  0
  149.3907  141.6392  155.8124 C   0  0  0  0  0  0  0  0  0  0  0  0
  150.8307  142.1468  155.9945 C   0  0  0  0  0  0  0  0  0  0  0  0
  151.6758  141.1861  156.6977 N   0  0  0  0  0  0  0  0  0  0  0  0
  152.3946  141.3347  157.8499 C   0  0  0  0  0  0  0  0  0  0  0  0
  152.4585  142.5294  158.5822 N   0  0  0  0  0  0  0  0  0  0  0  0
  151.9942  143.8598  158.1803 C   0  0  0  0  0  0  0  0  0  0  0  0
  151.0920  144.5032  159.2485 C   0  0  0  0  0  0  0  0  0  0  0  0
  151.8342  144.6062  160.5861 C   0  0  0  0  0  0  0  0  0  0  0  0
  152.4141  143.2361  160.9740 C   0  0  2  0  0  0  0  0  0  0  0  0
  153.2371  143.3180  162.2666 C   0  0  0  0  0  0  0  0  0  0  0  0
  153.2496  142.6698  159.8078 C   0  0  0  0  0  0  0  0  0  0  0  0
  153.0143  140.2196  158.2516 N   0  0  0  0  0  0  0  0  0  0  0  0
  152.6807  139.2920  157.2799 C   0  0  0  0  0  0  0  0  0  0  0  0
  151.8711  139.8479  156.3450 C   0  0  0  0  0  0  0  0  0  0  0  0
  151.3322  139.0761  155.2154 C   0  0  0  0  0  0  0  0  0  0  0  0
  150.5838  139.5502  154.3636 O   0  0  0  0  0  0  0  0  0  0  0  0
  151.7386  137.7834  155.2113 N   0  0  0  0  0  0  0  0  0  0  0  0
  152.5546  137.1654  156.1181 C   0  0  0  0  0  0  0  0  0  0  0  0
  152.8326  135.9738  155.9840 O   0  0  0  0  0  0  0  0  0  0  0  0
  153.0340  137.9178  157.1593 N   0  0  0  0  0  0  0  0  0  0  0  0
  153.9084  137.3070  158.1623 C   0  0  0  0  0  0  0  0  0  0  0  0
  151.3962  137.2094  154.4547 H   0  0  0  0  0  0  0  0  0  0  0  0
  147.5541  141.2717  153.0999 H   0  0  0  0  0  0  0  0  0  0  0  0
  147.0195  141.8584  154.6752 H   0  0  0  0  0  0  0  0  0  0  0  0
  147.6051  140.1942  154.4955 H   0  0  0  0  0  0  0  0  0  0  0  0
  148.6898  142.2678  156.3621 H   0  0  0  0  0  0  0  0  0  0  0  0
  149.2803  140.6282  156.2042 H   0  0  0  0  0  0  0  0  0  0  0  0
  151.2777  142.3990  155.0365 H   0  0  0  0  0  0  0  0  0  0  0  0
  150.8285  143.0816  156.5548 H   0  0  0  0  0  0  0  0  0  0  0  0
  152.8653  144.4937  158.0092 H   0  0  0  0  0  0  0  0  0  0  0  0
  151.4768  143.8220  157.2271 H   0  0  0  0  0  0  0  0  0  0  0  0
  150.7744  145.4936  158.9220 H   0  0  0  0  0  0  0  0  0  0  0  0
  150.1842  143.9140  159.3790 H   0  0  0  0  0  0  0  0  0  0  0  0
  152.6389  145.3376  160.4987 H   0  0  0  0  0  0  0  0  0  0  0  0
  151.1610  144.9717  161.3622 H   0  0  0  0  0  0  0  0  0  0  0  0
  151.5822  142.5535  161.1550 H   0  0  0  0  0  0  0  0  0  0  0  0
  154.0932  143.9833  162.1503 H   0  0  0  0  0  0  0  0  0  0  0  0
  153.6154  142.3360  162.5527 H   0  0  0  0  0  0  0  0  0  0  0  0
  152.6332  143.6921  163.0938 H   0  0  0  0  0  0  0  0  0  0  0  0
  153.6523  141.6996  160.1001 H   0  0  0  0  0  0  0  0  0  0  0  0
  154.1103  143.3100  159.6091 H   0  0  0  0  0  0  0  0  0  0  0  0
  154.7780  136.8497  157.6888 H   0  0  0  0  0  0  0  0  0  0  0  0
  153.3725  136.5322  158.7118 H   0  0  0  0  0  0  0  0  0  0  0  0
  154.2800  138.0283  158.8897 H   0  0  0  0  0  0  0  0  0  0  0  0
  1  2  1  0  0  0  0
  1 25  1  0  0  0  0
  1 26  1  0  0  0  0
  1 27  1  0  0  0  0
  2  3  1  0  0  0  0
  3  4  1  0  0  0  0
  3 28  1  0  0  0  0
  3 29  1  0  0  0  0
  4  5  1  0  0  0  0
  4 30  1  0  0  0  0
  4 31  1  0  0  0  0
  5 16  1  0  0  0  0
  5  6  1  0  0  0  0
  6  7  1  0  0  0  0
  6 14  2  0  0  0  0
  7 13  1  0  0  0  0
  7  8  1  0  0  0  0
  8  9  1  0  0  0  0
  8 32  1  0  0  0  0
  8 33  1  0  0  0  0
  9 10  1  0  0  0  0
  9 34  1  0  0  0  0
  9 35  1  0  0  0  0
 10 11  1  0  0  0  0
 10 36  1  0  0  0  0
 10 37  1  0  0  0  0
 11 12  1  0  0  0  0
 11 13  1  0  0  0  0
 11 38  1  0  0  0  0
 12 39  1  0  0  0  0
 12 40  1  0  0  0  0
 12 41  1  0  0  0  0
 13 42  1  0  0  0  0
 13 43  1  0  0  0  0
 14 15  1  0  0  0  0
 15 22  1  0  0  0  0
 15 16  2  0  0  0  0
 16 17  1  0  0  0  0
 17 18  2  0  0  0  0
 17 19  1  0  0  0  0
 19 24  1  0  0  0  0
 19 20  1  0  0  0  0
 20 21  2  0  0  0  0
 20 22  1  0  0  0  0
 22 23  1  0  0  0  0
 23 44  1  0  0  0  0
 23 45  1  0  0  0  0
 23 46  1  0  0  0  0
M  END
> <s_m_source_file>
AV-unprocessed.smi

> <i_m_source_file_index>
535

> <i_lp_mmshare_version>
43012

> <i_f3d_flags>
0

> <s_epik_input>
W0NIM11uMWMoPU8pW25IXWMoPU8pYyhjMTIpbihbQ0gyXVtDSDJdT1tDSDNdKWMobjIpTjNbQ0gyXVtDSDJdW0NIMl1bQ0BASF0oW0NIM10pW0NIMl0z

> <s_epik_cmdline>
J2VwaWtfcHl0aG9uJywgJy1waCcsICc3LjAnLCAnLXRuJywgJzgnLCAnLW1hJywgJzIwMCcsICctbWV0YWxfYmluZGluZycsICctaW1hZScsICc8aW5maWxlLm1hZT4nLCAnLW9tYWUnLCAnPG91dGZpbGUubWFlPic=

> <r_lp_tautomer_probability>
1

> <r_epik_Ionization_Penalty>
0.00042181

> <r_epik_Ionization_Penalty_Charging>
0.000122112

> <r_epik_Ionization_Penalty_Neutral>
0.000299698

> <r_epik_State_Penalty>
-0

> <r_epik_Charging_Adjusted_Penalty>
0.000122112

> <i_epik_Tot_Q>
0

> <i_epik_Tot_abs_Q>
0

> <r_epik_Metal_State_Penalty>
0.0934894

> <b_epik_Metal_Only>
0

> <s_lp_Force_Field>
OPLS_2005

> <r_lp_Energy>
38.1768

> <b_lp_Chiralities_Consistent>
1

> <s_lp_Variant>
AV-unprocessed.smi:535-2

> <Gold.Version>
5.8.1

> <Gold.Id.Protein>
6NUR|6NUR_protein|mol2

> <Gold.PLP.Fitness>
52.1495

> <Gold.PLP.PLP>
-45.8056

> <Gold.PLP.part.hbond>
-4.0000

> <Gold.PLP.part.metal>
0.0000

> <Gold.PLP.part.buried>
-5.1881

> <Gold.PLP.part.nonpolar>
-35.1474

> <Gold.PLP.part.repulsive>
0.4176

> <Gold.PLP.ligand.clash>
0.0000

> <Gold.PLP.ligand.torsion>
0.4182

> <Gold.PLP.Chemscore.Hbond>
2.3775

> <Gold.PLP.Chemscore.CHOScore>
0.0000

> <Gold.PLP.Chemscore.Metal>
0.0000

> <Gold.Chemscore.Hbonds>
donor molecule, donor type, donor heavy atom, donor atom, acceptor molecule, acceptor atom, score
      P1  H  7989  7998       L1    18  1.00
      P1  H  8011  8017       L1     2  0.12

> <Gold.PLP.Chemscore.Internal.Correction>
0.0477

> <Gold.Rescore>
     Score         DG    S(hbond)    S(metal)    S(lipo)     H(rot)  DE(clash)    DE(int)     intcor
     15.36     -19.34       1.81        0.00      98.54       1.46       0.57       3.42       ----

> <Gold.Chemscore.Fitness>
15.3595

> <Gold.Chemscore.DG>
-19.3410

> <Gold.Chemscore.ZeroCoef>
-5.4800

> <Gold.Chemscore.Hbond>
1.8140

> <Gold.Chemscore.Metal>
0.0000

> <Gold.Chemscore.Lipo>
98.5379

> <Gold.Chemscore.Internal_Hbond>
0.0000

> <Gold.Chemscore.DEClash>
0.5665

> <Gold.Chemscore.DEInternal>
3.4150

> <Gold.Chemscore.Rot>
1.4557

> <Gold.Chemscore.Internal.Correction>
   9.000000E+99

> <Gold.Chemscore.Hbonds>
donor molecule, donor type, donor heavy atom, donor atom, acceptor molecule, acceptor atom, score
      P1  H  7989  7998       L1    18  0.50
      P1  H  8011  8017       L1     2  0.05
      P1  H 10752 10765       L1    21  0.02

> <Gold.Chemscore.Hbond.Weighted>
-6.0588

> <Gold.Chemscore.Metal.Weighted>
-0.0000

> <Gold.Chemscore.Lipo.Weighted>
-11.5289

> <Gold.Chemscore.Internal_Hbond.Weighted>
0.0000

> <Gold.Chemscore.DEClash.Weighted>
0.5665

> <Gold.Chemscore.DEInternal.Weighted>
3.4150

> <Gold.Chemscore.Rot.Weighted>
3.7267

> <Gold.Chemscore.Internal.Correction.Weighted>
   9.000000E+99

> <Gold.Protein.RotatedTorsions>
[ 6907 6896 6895 6894 ] final -168.80 input  -60.11 | X-H torsion
[ 7974 7965 7964 7962 ] final   36.21 input  175.53 | X-H torsion
[ 8008 7997 7996 7995 ] final  153.37 input   59.86 | X-H torsion
[ 10167 10162 10161 10158 ] final   18.85 input  -65.29 | X-H torsion
[ 10718 10713 10712 10709 ] final   97.75 input   66.30 | X-H torsion
[ 10763 10752 10751 10750 ] final -145.25 input  -60.55 | X-H torsion
[ 11005 11000 10999 10996 ] final -142.81 input  -57.11 | X-H torsion

> <Gold.Protein.ActiveResidues>
 VAL166  LYS551  ARG553  GLY616  TRP617  ASP618  TYR619  PRO620  LYS621  CYS622 
 ASP623  PHE694  ASN695  SER759  ASP760  ASP761  ALA762  ILE779  LEU786  VAL792 
 PHE793  MET794  SER795  GLU796  ALA797  LYS798  CYS799  TRP800  GLU811  SER814 

> <Gold.Protein.RotatedAtoms>
  151.4813  133.3546  159.2838 H   0  0  0  0  0  0  0  0  0  0  0  0  # atno 6907 bound_to 6896
  150.8895  134.8299  159.7294 H   0  0  0  0  0  0  0  0  0  0  0  0  # atno 6908 bound_to 6896
  152.4814  134.4721  159.9691 H   0  0  0  0  0  0  0  0  0  0  0  0  # atno 6909 bound_to 6896
  146.1228  139.6046  142.9278 H   0  0  0  0  0  0  0  0  0  0  0  0  # atno 7974 bound_to 7965
  156.2584  140.1995  156.6480 H   0  0  0  0  0  0  0  0  0  0  0  0  # atno 8008 bound_to 7997
  154.6558  140.0566  157.0032 H   0  0  0  0  0  0  0  0  0  0  0  0  # atno 8009 bound_to 7997
  155.1349  140.3237  155.4468 H   0  0  0  0  0  0  0  0  0  0  0  0  # atno 8010 bound_to 7997
  140.5623  143.9315  150.6651 H   0  0  0  0  0  0  0  0  0  0  0  0  # atno 10167 bound_to 10162
  157.6907  131.0619  150.4691 H   0  0  0  0  0  0  0  0  0  0  0  0  # atno 10718 bound_to 10713
  154.8392  135.3418  154.6474 H   0  0  0  0  0  0  0  0  0  0  0  0  # atno 10763 bound_to 10752
  153.7086  135.6965  153.5048 H   0  0  0  0  0  0  0  0  0  0  0  0  # atno 10764 bound_to 10752
  153.2468  135.4366  155.0710 H   0  0  0  0  0  0  0  0  0  0  0  0  # atno 10765 bound_to 10752
  140.8188  134.2656  157.4909 H   0  0  0  0  0  0  0  0  0  0  0  0  # atno 11005 bound_to 11000
  145.5430  141.0419  143.2320 LP  0  0  0  0  0  0  0  0  0  0  0  0  # atno 17320 bound_to 7965
  144.7613  139.6950  143.7233 LP  0  0  0  0  0  0  0  0  0  0  0  0  # atno 17321 bound_to 7965
  140.2769  143.3416  152.1187 LP  0  0  0  0  0  0  0  0  0  0  0  0  # atno 17342 bound_to 10162
  139.5076  144.6834  151.5949 LP  0  0  0  0  0  0  0  0  0  0  0  0  # atno 17343 bound_to 10162
  156.5030  130.4121  149.6342 LP  0  0  0  0  0  0  0  0  0  0  0  0  # atno 17370 bound_to 10713
  156.3311  130.7332  151.2261 LP  0  0  0  0  0  0  0  0  0  0  0  0  # atno 17371 bound_to 10713
  139.8709  134.9524  156.4113 LP  0  0  0  0  0  0  0  0  0  0  0  0  # atno 17394 bound_to 11000
  140.9121  133.7704  155.9804 LP  0  0  0  0  0  0  0  0  0  0  0  0  # atno 17395 bound_to 11000

$$$$
