AV-unprocessed.smi:1707|AV-procd|sdf|6888|dock9
  -GOLD-   22720 8 93D 1   1.00000     0.00000
 Structure written by MMmdl.
 40 41  0  0  0  0  0  0  0  0  2 V2000
  150.8772  136.8085  159.5299 O   0  0  0  0  0  0  0  0  0  0  0  0
  149.8125  137.3460  159.2255 C   0  0  0  0  0  0  0  0  0  0  0  0
  149.7351  138.4078  158.4104 N   0  0  0  0  0  0  0  0  0  0  0  0
  150.8749  139.0631  157.7797 C   0  0  0  0  0  0  0  0  0  0  0  0
  151.8561  139.6188  158.8266 C   0  0  0  0  0  0  0  0  0  0  0  0
  152.0003  141.1297  158.7552 C   0  0  0  0  0  0  0  0  0  0  0  0
  152.8523  141.8039  159.5521 C   0  0  0  0  0  0  0  0  0  0  0  0
  153.0286  143.3121  159.5305 C   0  0  0  0  0  0  0  0  0  0  0  0
  151.9036  144.0227  158.7597 C   0  0  0  0  0  0  0  0  0  0  0  0
  151.5755  143.2863  157.4549 C   0  0  0  0  0  0  0  0  0  0  0  0
  151.1270  141.8392  157.7260 C   0  0  0  0  0  0  0  0  0  0  0  0
  148.5896  136.9840  159.6544 N   0  0  0  0  0  0  0  0  0  0  0  0
  148.2096  135.9263  160.4990 C   0  0  0  0  0  0  0  0  0  0  0  0
  148.2898  134.6040  160.1818 C   0  0  0  0  0  0  0  0  0  0  0  0
  147.8661  133.5538  161.0993 C   0  0  0  0  0  0  0  0  0  0  0  0
  148.0319  132.0711  160.8169 C   0  0  0  0  0  0  0  0  0  0  0  0
  146.8518  131.4507  160.7993 F   0  0  0  0  0  0  0  0  0  0  0  0
  148.6101  131.8977  159.6293 F   0  0  0  0  0  0  0  0  0  0  0  0
  148.7980  131.4913  161.7407 F   0  0  0  0  0  0  0  0  0  0  0  0
  147.3991  134.0607  162.2963 C   0  0  0  0  0  0  0  0  0  0  0  0
  147.2626  135.3490  162.6791 N   0  5  0  0  0  0  0  0  0  0  0  0
  147.6603  136.3229  161.8125 C   0  0  0  0  0  0  0  0  0  0  0  0
  147.5694  137.5168  162.1007 O   0  0  0  0  0  0  0  0  0  0  0  0
  148.8217  138.7894  158.2123 H   0  0  0  0  0  0  0  0  0  0  0  0
  151.3738  138.3641  157.1066 H   0  0  0  0  0  0  0  0  0  0  0  0
  150.4962  139.8756  157.1591 H   0  0  0  0  0  0  0  0  0  0  0  0
  151.5210  139.3331  159.8249 H   0  0  0  0  0  0  0  0  0  0  0  0
  152.8432  139.1734  158.6967 H   0  0  0  0  0  0  0  0  0  0  0  0
  153.4706  141.2656  160.2554 H   0  0  0  0  0  0  0  0  0  0  0  0
  153.0695  143.6851  160.5541 H   0  0  0  0  0  0  0  0  0  0  0  0
  153.9946  143.5308  159.0744 H   0  0  0  0  0  0  0  0  0  0  0  0
  151.0075  144.0655  159.3803 H   0  0  0  0  0  0  0  0  0  0  0  0
  152.1864  145.0554  158.5537 H   0  0  0  0  0  0  0  0  0  0  0  0
  150.8001  143.8184  156.9032 H   0  0  0  0  0  0  0  0  0  0  0  0
  152.4592  143.2796  156.8155 H   0  0  0  0  0  0  0  0  0  0  0  0
  151.1317  141.2763  156.7922 H   0  0  0  0  0  0  0  0  0  0  0  0
  150.0994  141.8370  158.0907 H   0  0  0  0  0  0  0  0  0  0  0  0
  147.8212  137.5658  159.3540 H   0  0  0  0  0  0  0  0  0  0  0  0
  148.6576  134.2838  159.2217 H   0  0  0  0  0  0  0  0  0  0  0  0
  147.0932  133.3187  163.0644 H   0  0  0  0  0  0  0  0  0  0  0  0
  1  2  2  0  0  0  0
  2  3  1  0  0  0  0
  2 12  1  0  0  0  0
  3  4  1  0  0  0  0
  3 24  1  0  0  0  0
  4  5  1  0  0  0  0
  4 25  1  0  0  0  0
  4 26  1  0  0  0  0
  5  6  1  0  0  0  0
  5 27  1  0  0  0  0
  5 28  1  0  0  0  0
  6 11  1  0  0  0  0
  6  7  2  0  0  0  0
  7  8  1  0  0  0  0
  7 29  1  0  0  0  0
  8  9  1  0  0  0  0
  8 30  1  0  0  0  0
  8 31  1  0  0  0  0
  9 10  1  0  0  0  0
  9 32  1  0  0  0  0
  9 33  1  0  0  0  0
 10 11  1  0  0  0  0
 10 34  1  0  0  0  0
 10 35  1  0  0  0  0
 11 36  1  0  0  0  0
 11 37  1  0  0  0  0
 12 13  1  0  0  0  0
 12 38  1  0  0  0  0
 13 22  1  0  0  0  0
 13 14  2  0  0  0  0
 14 15  1  0  0  0  0
 14 39  1  0  0  0  0
 15 16  1  0  0  0  0
 15 20  2  0  0  0  0
 16 17  1  0  0  0  0
 16 18  1  0  0  0  0
 16 19  1  0  0  0  0
 20 21  1  0  0  0  0
 20 40  1  0  0  0  0
 21 22  1  0  0  0  0
 22 23  2  0  0  0  0
M  CHG  1  21  -1
M  END
> <s_m_source_file>
AV-unprocessed.smi

> <i_m_source_file_index>
1707

> <i_lp_mmshare_version>
43012

> <i_f3d_flags>
0

> <s_epik_input>
Tz1jMVtuSF1bY0hdYyhDKEYpKEYpRilbY0hdYzFbTkhdQyg9TylbTkhdW0NIMl1bQ0gyXUMyPVtDSF1bQ0gyXVtDSDJdW0NIMl1bQ0gyXTI=

> <s_epik_cmdline>
J2VwaWtfcHl0aG9uJywgJy1waCcsICc3LjAnLCAnLXRuJywgJzgnLCAnLW1hJywgJzIwMCcsICctbWV0YWxfYmluZGluZycsICctaW1hZScsICc8aW5maWxlLm1hZT4nLCAnLW9tYWUnLCAnPG91dGZpbGUubWFlPic=

> <r_lp_tautomer_probability>
1

> <r_epik_Ionization_Penalty>
3.1649

> <r_epik_Ionization_Penalty_Charging>
0.171543

> <r_epik_Ionization_Penalty_Neutral>
2.99336

> <r_epik_State_Penalty>
2.98952

> <r_epik_Charging_Adjusted_Penalty>
3.16106

> <i_epik_Tot_Q>
-1

> <i_epik_Tot_abs_Q>
1

> <r_epik_Metal_State_Penalty>
0.452963

> <b_epik_Metal_Only>
1

> <s_lp_Force_Field>
OPLS_2005

> <r_lp_Energy>
21.1574

> <b_lp_Chiralities_Consistent>
1

> <s_lp_Variant>
AV-unprocessed.smi:1707-2

> <Gold.Version>
5.8.1

> <Gold.Id.Protein>
6NUR|6NUR_protein|mol2

> <Gold.PLP.Fitness>
49.0261

> <Gold.PLP.PLP>
-44.1098

> <Gold.PLP.part.hbond>
-3.0000

> <Gold.PLP.part.metal>
0.0000

> <Gold.PLP.part.buried>
-5.1548

> <Gold.PLP.part.nonpolar>
-36.1040

> <Gold.PLP.part.repulsive>
0.3880

> <Gold.PLP.ligand.clash>
0.0000

> <Gold.PLP.ligand.torsion>
1.0667

> <Gold.PLP.Chemscore.Hbond>
2.3280

> <Gold.PLP.Chemscore.CHOScore>
0.0000

> <Gold.PLP.Chemscore.Metal>
0.0000

> <Gold.Chemscore.Hbonds>
donor molecule, donor type, donor heavy atom, donor atom, acceptor molecule, acceptor atom, score
      P1  H  6896  6909       L1     1  1.00
      P1  H  6931  6943       L1    23  0.77
      P1  H  6934  6947       L1    23  0.53

> <Gold.PLP.Chemscore.Internal.Correction>
0.0656

> <Gold.Rescore>
     Score         DG    S(hbond)    S(metal)    S(lipo)     H(rot)  DE(clash)    DE(int)     intcor
     20.60     -21.75       2.70        0.00      95.79       1.55       0.00       1.15       ----

> <Gold.Chemscore.Fitness>
20.5976

> <Gold.Chemscore.DG>
-21.7475

> <Gold.Chemscore.ZeroCoef>
-5.4800

> <Gold.Chemscore.Hbond>
2.7048

> <Gold.Chemscore.Metal>
0.0000

> <Gold.Chemscore.Lipo>
95.7900

> <Gold.Chemscore.Internal_Hbond>
0.0000

> <Gold.Chemscore.DEClash>
0.0000

> <Gold.Chemscore.DEInternal>
1.1499

> <Gold.Chemscore.Rot>
1.5523

> <Gold.Chemscore.Internal.Correction>
   9.000000E+99

> <Gold.Chemscore.Hbonds>
donor molecule, donor type, donor heavy atom, donor atom, acceptor molecule, acceptor atom, score
      P1  H  6896  6909       L1     1  1.00
      P1  H  6931  6943       L1    23  0.59
      P1  H  6934  6947       L1    23  0.54

> <Gold.Chemscore.Hbond.Weighted>
-9.0341

> <Gold.Chemscore.Metal.Weighted>
-0.0000

> <Gold.Chemscore.Lipo.Weighted>
-11.2074

> <Gold.Chemscore.Internal_Hbond.Weighted>
0.0000

> <Gold.Chemscore.DEClash.Weighted>
0.0000

> <Gold.Chemscore.DEInternal.Weighted>
1.1499

> <Gold.Chemscore.Rot.Weighted>
3.9740

> <Gold.Chemscore.Internal.Correction.Weighted>
   9.000000E+99

> <Gold.Protein.RotatedTorsions>
[ 6907 6896 6895 6894 ] final   95.44 input  -60.11 | X-H torsion
[ 7974 7965 7964 7962 ] final   17.08 input  175.53 | X-H torsion
[ 8008 7997 7996 7995 ] final -106.49 input   59.86 | X-H torsion
[ 10167 10162 10161 10158 ] final  -96.24 input  -65.29 | X-H torsion
[ 10718 10713 10712 10709 ] final -130.63 input   66.30 | X-H torsion
[ 10763 10752 10751 10750 ] final  -48.11 input  -60.55 | X-H torsion
[ 11005 11000 10999 10996 ] final -160.27 input  -57.11 | X-H torsion

> <Gold.Protein.ActiveResidues>
 VAL166  LYS551  ARG553  GLY616  TRP617  ASP618  TYR619  PRO620  LYS621  CYS622 
 ASP623  PHE694  ASN695  SER759  ASP760  ASP761  ALA762  ILE779  LEU786  VAL792 
 PHE793  MET794  SER795  GLU796  ALA797  LYS798  CYS799  TRP800  GLU811  SER814 

> <Gold.Protein.RotatedAtoms>
  152.5443  134.1040  159.8329 H   0  0  0  0  0  0  0  0  0  0  0  0  # atno 6907 bound_to 6896
  151.1114  133.5162  159.2613 H   0  0  0  0  0  0  0  0  0  0  0  0  # atno 6908 bound_to 6896
  151.1880  135.0399  159.8875 H   0  0  0  0  0  0  0  0  0  0  0  0  # atno 6909 bound_to 6896
  146.2229  139.8654  142.8597 H   0  0  0  0  0  0  0  0  0  0  0  0  # atno 7974 bound_to 7965
  154.9153  140.0409  157.1968 H   0  0  0  0  0  0  0  0  0  0  0  0  # atno 8008 bound_to 7997
  154.8308  140.2899  155.5702 H   0  0  0  0  0  0  0  0  0  0  0  0  # atno 8009 bound_to 7997
  156.2986  140.2501  156.3233 H   0  0  0  0  0  0  0  0  0  0  0  0  # atno 8010 bound_to 7997
  140.2958  143.3193  152.0299 H   0  0  0  0  0  0  0  0  0  0  0  0  # atno 10167 bound_to 10162
  156.2163  130.6950  151.0706 H   0  0  0  0  0  0  0  0  0  0  0  0  # atno 10718 bound_to 10713
  154.0724  135.6603  153.4826 H   0  0  0  0  0  0  0  0  0  0  0  0  # atno 10763 bound_to 10752
  153.0386  135.5160  154.7554 H   0  0  0  0  0  0  0  0  0  0  0  0  # atno 10764 bound_to 10752
  154.6624  135.3017  154.9817 H   0  0  0  0  0  0  0  0  0  0  0  0  # atno 10765 bound_to 10752
  140.6334  134.4627  157.5230 H   0  0  0  0  0  0  0  0  0  0  0  0  # atno 11005 bound_to 11000
  145.2662  141.0093  143.3798 LP  0  0  0  0  0  0  0  0  0  0  0  0  # atno 17320 bound_to 7965
  144.9259  139.4356  143.6518 LP  0  0  0  0  0  0  0  0  0  0  0  0  # atno 17321 bound_to 7965
  139.4927  144.6492  151.6713 LP  0  0  0  0  0  0  0  0  0  0  0  0  # atno 17342 bound_to 10162
  140.5693  144.0136  150.6208 LP  0  0  0  0  0  0  0  0  0  0  0  0  # atno 17343 bound_to 10162
  157.7065  131.0754  150.6649 LP  0  0  0  0  0  0  0  0  0  0  0  0  # atno 17370 bound_to 10713
  156.6711  130.4540  149.5657 LP  0  0  0  0  0  0  0  0  0  0  0  0  # atno 17371 bound_to 10713
  139.9107  134.8350  156.1538 LP  0  0  0  0  0  0  0  0  0  0  0  0  # atno 17394 bound_to 11000
  141.0659  133.6819  156.2044 LP  0  0  0  0  0  0  0  0  0  0  0  0  # atno 17395 bound_to 11000

$$$$
