AV-unprocessed.smi:651|AV-procd|sdf|3189|dock6
  -GOLD-   22720 0113D 1   1.00000     0.00000
 Structure written by MMmdl.
 39 40  0  0  0  0  0  0  0  0  2 V2000
  146.7956  139.5525  152.4483 C   0  0  0  0  0  0  0  0  0  0  0  0
  148.0273  139.7200  153.3124 C   0  0  0  0  0  0  0  0  0  0  0  0
  148.2898  140.9071  154.0294 C   0  0  0  0  0  0  0  0  0  0  0  0
  149.4578  140.9929  154.8152 C   0  0  0  0  0  0  0  0  0  0  0  0
  150.3393  139.8903  154.8701 C   0  0  0  0  0  0  0  0  0  0  0  0
  151.6011  139.9484  155.7154 C   0  0  0  0  0  0  0  0  0  0  0  0
  151.2698  140.2143  157.1862 C   0  0  0  0  0  0  0  0  0  0  0  0
  150.4827  139.4788  157.7803 O   0  0  0  0  0  0  0  0  0  0  0  0
  151.8640  141.2751  157.7550 N   0  0  0  0  0  0  0  0  0  0  0  0
  151.6711  141.7201  159.1361 C   0  0  1  0  0  0  0  0  0  0  0  0
  152.9526  141.5044  159.9658 C   0  0  0  0  0  0  0  0  0  0  0  0
  153.2157  142.8075  160.7281 C   0  0  0  0  0  0  0  0  0  0  0  0
  151.9143  143.6060  160.6348 C   0  0  0  0  0  0  0  0  0  0  0  0
  151.2870  143.2184  159.2870 C   0  0  1  0  0  0  0  0  0  0  0  0
  151.7929  144.1472  158.1613 C   0  0  0  0  0  0  0  0  0  0  0  0
  151.2965  143.9415  156.9388 N   0  0  0  0  0  0  0  0  0  0  0  0
  152.6213  145.0284  158.3860 O   0  0  0  0  0  0  0  0  0  0  0  0
  150.0266  138.7308  154.1274 C   0  0  0  0  0  0  0  0  0  0  0  0
  148.8975  138.6882  153.3869 N   0  3  0  0  0  0  0  0  0  0  0  0
  146.0726  140.3464  152.6387 H   0  0  0  0  0  0  0  0  0  0  0  0
  146.3109  138.5972  152.6523 H   0  0  0  0  0  0  0  0  0  0  0  0
  147.0673  139.5834  151.3928 H   0  0  0  0  0  0  0  0  0  0  0  0
  147.6061  141.7423  153.9813 H   0  0  0  0  0  0  0  0  0  0  0  0
  149.6710  141.8935  155.3729 H   0  0  0  0  0  0  0  0  0  0  0  0
  152.1523  139.0106  155.6355 H   0  0  0  0  0  0  0  0  0  0  0  0
  152.2561  140.7334  155.3347 H   0  0  0  0  0  0  0  0  0  0  0  0
  152.4847  141.8317  157.1856 H   0  0  0  0  0  0  0  0  0  0  0  0
  150.8810  141.1226  159.5956 H   0  0  0  0  0  0  0  0  0  0  0  0
  152.8104  140.6764  160.6612 H   0  0  0  0  0  0  0  0  0  0  0  0
  153.8138  141.2535  159.3447 H   0  0  0  0  0  0  0  0  0  0  0  0
  153.5173  142.6300  161.7608 H   0  0  0  0  0  0  0  0  0  0  0  0
  154.0229  143.3590  160.2449 H   0  0  0  0  0  0  0  0  0  0  0  0
  151.2442  143.3087  161.4423 H   0  0  0  0  0  0  0  0  0  0  0  0
  152.0859  144.6784  160.7408 H   0  0  0  0  0  0  0  0  0  0  0  0
  150.2011  143.3134  159.3434 H   0  0  0  0  0  0  0  0  0  0  0  0
  151.5992  144.5181  156.1669 H   0  0  0  0  0  0  0  0  0  0  0  0
  150.6227  143.2044  156.7890 H   0  0  0  0  0  0  0  0  0  0  0  0
  150.6378  137.8401  154.1063 H   0  0  0  0  0  0  0  0  0  0  0  0
  148.6919  137.8386  152.8605 H   0  0  0  0  0  0  0  0  0  0  0  0
  1  2  1  0  0  0  0
  1 20  1  0  0  0  0
  1 21  1  0  0  0  0
  1 22  1  0  0  0  0
  2 19  1  0  0  0  0
  2  3  2  0  0  0  0
  3  4  1  0  0  0  0
  3 23  1  0  0  0  0
  4  5  2  0  0  0  0
  4 24  1  0  0  0  0
  5  6  1  0  0  0  0
  5 18  1  0  0  0  0
  6  7  1  0  0  0  0
  6 25  1  0  0  0  0
  6 26  1  0  0  0  0
  7  8  2  0  0  0  0
  7  9  1  0  0  0  0
  9 10  1  0  0  0  0
  9 27  1  0  0  0  0
 10 14  1  0  0  0  0
 10 11  1  0  0  0  0
 10 28  1  0  0  0  0
 11 12  1  0  0  0  0
 11 29  1  0  0  0  0
 11 30  1  0  0  0  0
 12 13  1  0  0  0  0
 12 31  1  0  0  0  0
 12 32  1  0  0  0  0
 13 14  1  0  0  0  0
 13 33  1  0  0  0  0
 13 34  1  0  0  0  0
 14 15  1  0  0  0  0
 14 35  1  0  0  0  0
 15 16  1  0  0  0  0
 15 17  2  0  0  0  0
 16 36  1  0  0  0  0
 16 37  1  0  0  0  0
 18 19  2  0  0  0  0
 18 38  1  0  0  0  0
 19 39  1  0  0  0  0
M  CHG  1  19   1
M  END
> <s_m_source_file>
AV-unprocessed.smi

> <i_m_source_file_index>
651

> <i_lp_mmshare_version>
43012

> <i_f3d_flags>
0

> <s_epik_input>
W0NIM11jMVtjSF1bY0hdYyhbY0hdbjEpW0NIMl1DKD1PKVtOSF1bQ0BASF0yW0NIMl1bQ0gyXVtDSDJdW0NASF0yQyg9TylbTkgyXQ==

> <s_epik_cmdline>
J2VwaWtfcHl0aG9uJywgJy1waCcsICc3LjAnLCAnLXRuJywgJzgnLCAnLW1hJywgJzIwMCcsICctbWV0YWxfYmluZGluZycsICctaW1hZScsICc8aW5maWxlLm1hZT4nLCAnLW9tYWUnLCAnPG91dGZpbGUubWFlPic=

> <r_epik_Ionization_Penalty>
2.14971

> <r_epik_Ionization_Penalty_Charging>
2.14971

> <r_epik_Ionization_Penalty_Neutral>
1.65229e-07

> <r_epik_State_Penalty>
2.28946

> <r_epik_Charging_Adjusted_Penalty>
4.43917

> <i_epik_Tot_Q>
1

> <i_epik_Tot_abs_Q>
1

> <r_epik_Metal_State_Penalty>
2.30508

> <b_epik_Metal_Only>
0

> <s_lp_Force_Field>
OPLS_2005

> <r_lp_Energy>
19.7283

> <b_lp_Chiralities_Consistent>
1

> <s_lp_Variant>
AV-unprocessed.smi:651-6

> <Gold.Version>
5.8.1

> <Gold.Id.Protein>
6NUR|6NUR_protein|mol2

> <Gold.PLP.Fitness>
47.3656

> <Gold.PLP.PLP>
-41.5806

> <Gold.PLP.part.hbond>
-3.0000

> <Gold.PLP.part.metal>
0.0000

> <Gold.PLP.part.buried>
-1.7401

> <Gold.PLP.part.nonpolar>
-37.2059

> <Gold.PLP.part.repulsive>
0.1781

> <Gold.PLP.ligand.clash>
0.0000

> <Gold.PLP.ligand.torsion>
0.1197

> <Gold.PLP.Chemscore.Hbond>
2.0000

> <Gold.PLP.Chemscore.CHOScore>
0.0000

> <Gold.PLP.Chemscore.Metal>
0.0000

> <Gold.Chemscore.Hbonds>
donor molecule, donor type, donor heavy atom, donor atom, acceptor molecule, acceptor atom, score
      L1  H    19    39       P1  7948  2.00

> <Gold.PLP.Chemscore.Internal.Correction>
0.0245

> <Gold.Rescore>
     Score         DG    S(hbond)    S(metal)    S(lipo)     H(rot)  DE(clash)    DE(int)     intcor
     13.17     -15.70       1.00        0.00     103.43       2.04       1.08       1.46       ----

> <Gold.Chemscore.Fitness>
13.1662

> <Gold.Chemscore.DG>
-15.7016

> <Gold.Chemscore.ZeroCoef>
-5.4800

> <Gold.Chemscore.Hbond>
0.9997

> <Gold.Chemscore.Metal>
0.0000

> <Gold.Chemscore.Lipo>
103.4311

> <Gold.Chemscore.Internal_Hbond>
0.0000

> <Gold.Chemscore.DEClash>
1.0803

> <Gold.Chemscore.DEInternal>
1.4551

> <Gold.Chemscore.Rot>
2.0386

> <Gold.Chemscore.Internal.Correction>
   9.000000E+99

> <Gold.Chemscore.Hbonds>
donor molecule, donor type, donor heavy atom, donor atom, acceptor molecule, acceptor atom, score
      L1  H    19    39       P1  7948  0.99

> <Gold.Chemscore.Hbond.Weighted>
-3.3389

> <Gold.Chemscore.Metal.Weighted>
-0.0000

> <Gold.Chemscore.Lipo.Weighted>
-12.1014

> <Gold.Chemscore.Internal_Hbond.Weighted>
0.0000

> <Gold.Chemscore.DEClash.Weighted>
1.0803

> <Gold.Chemscore.DEInternal.Weighted>
1.4551

> <Gold.Chemscore.Rot.Weighted>
5.2188

> <Gold.Chemscore.Internal.Correction.Weighted>
   9.000000E+99

> <Gold.Protein.RotatedTorsions>
[ 6907 6896 6895 6894 ] final  -57.03 input  -60.11 | X-H torsion
[ 7974 7965 7964 7962 ] final  -14.61 input  175.53 | X-H torsion
[ 8008 7997 7996 7995 ] final  -71.15 input   59.86 | X-H torsion
[ 10167 10162 10161 10158 ] final   70.25 input  -65.29 | X-H torsion
[ 10718 10713 10712 10709 ] final  -26.20 input   66.30 | X-H torsion
[ 10763 10752 10751 10750 ] final   -7.17 input  -60.55 | X-H torsion
[ 11005 11000 10999 10996 ] final  -84.00 input  -57.11 | X-H torsion

> <Gold.Protein.ActiveResidues>
 VAL166  LYS551  ARG553  GLY616  TRP617  ASP618  TYR619  PRO620  LYS621  CYS622 
 ASP623  PHE694  ASN695  SER759  ASP760  ASP761  ALA762  ILE779  LEU786  VAL792 
 PHE793  MET794  SER795  GLU796  ALA797  LYS798  CYS799  TRP800  GLU811  SER814 

> <Gold.Protein.RotatedAtoms>
  150.8119  134.7278  159.6695 H   0  0  0  0  0  0  0  0  0  0  0  0  # atno 6907 bound_to 6896
  152.4238  134.5902  159.9982 H   0  0  0  0  0  0  0  0  0  0  0  0  # atno 6908 bound_to 6896
  151.6109  133.3310  159.3103 H   0  0  0  0  0  0  0  0  0  0  0  0  # atno 6909 bound_to 6896
  146.2067  140.3373  142.8404 H   0  0  0  0  0  0  0  0  0  0  0  0  # atno 7974 bound_to 7965
  154.5066  140.0821  156.7906 H   0  0  0  0  0  0  0  0  0  0  0  0  # atno 8008 bound_to 7997
  155.3881  140.3431  155.4232 H   0  0  0  0  0  0  0  0  0  0  0  0  # atno 8009 bound_to 7997
  156.1522  140.1562  156.8738 H   0  0  0  0  0  0  0  0  0  0  0  0  # atno 8010 bound_to 7997
  140.0590  144.5249  150.7308 H   0  0  0  0  0  0  0  0  0  0  0  0  # atno 10167 bound_to 10162
  156.4544  130.4490  149.6969 H   0  0  0  0  0  0  0  0  0  0  0  0  # atno 10718 bound_to 10713
  153.4226  135.7010  153.6284 H   0  0  0  0  0  0  0  0  0  0  0  0  # atno 10763 bound_to 10752
  153.4732  135.3710  155.2402 H   0  0  0  0  0  0  0  0  0  0  0  0  # atno 10764 bound_to 10752
  154.8722  135.4048  154.3597 H   0  0  0  0  0  0  0  0  0  0  0  0  # atno 10765 bound_to 10752
  141.1654  133.7323  156.8803 H   0  0  0  0  0  0  0  0  0  0  0  0  # atno 11005 bound_to 11000
  144.8810  140.7400  143.5986 LP  0  0  0  0  0  0  0  0  0  0  0  0  # atno 17320 bound_to 7965
  145.3293  139.1764  143.4545 LP  0  0  0  0  0  0  0  0  0  0  0  0  # atno 17321 bound_to 7965
  140.7181  143.2563  151.4369 LP  0  0  0  0  0  0  0  0  0  0  0  0  # atno 17342 bound_to 10162
  139.5905  144.1509  152.2083 LP  0  0  0  0  0  0  0  0  0  0  0  0  # atno 17343 bound_to 10162
  156.3782  130.7565  151.2556 LP  0  0  0  0  0  0  0  0  0  0  0  0  # atno 17370 bound_to 10713
  157.7501  131.0303  150.4132 LP  0  0  0  0  0  0  0  0  0  0  0  0  # atno 17371 bound_to 10713
  140.1719  134.9094  157.2844 LP  0  0  0  0  0  0  0  0  0  0  0  0  # atno 17394 bound_to 11000
  140.2492  134.3703  155.7449 LP  0  0  0  0  0  0  0  0  0  0  0  0  # atno 17395 bound_to 11000

$$$$
