AV-unprocessed.smi:104|AV-procd|sdf|997|dock8
  -GOLD-   2262017583D 1   1.00000     0.00000
 Structure written by MMmdl.
 47 49  0  0  0  0  0  0  0  0  1 V2000
  152.2944  144.7278  158.8498 C   0  0  0  0  0  0  0  0  0  0  0  0
  152.0294  143.4931  159.7020 C   0  0  0  0  0  0  0  0  0  0  0  0
  151.0757  143.4430  160.4789 O   0  0  0  0  0  0  0  0  0  0  0  0
  152.9316  142.5215  159.4974 O   0  0  0  0  0  0  0  0  0  0  0  0
  152.7038  141.2308  160.0376 C   0  0  0  0  0  0  0  0  0  0  0  0
  152.6939  140.1959  158.9048 C   0  0  2  0  0  0  0  0  0  0  0  0
  152.0087  140.7341  157.7772 O   0  0  0  0  0  0  0  0  0  0  0  0
  150.7311  140.1974  157.7377 C   0  0  1  0  0  0  0  0  0  0  0  0
  150.2266  140.2306  156.3343 N   0  0  0  0  0  0  0  0  0  0  0  0
  150.8080  139.7335  155.1907 C   0  0  0  0  0  0  0  0  0  0  0  0
  152.4987  138.8566  155.2070 Br  0  0  0  0  0  0  0  0  0  0  0  0
  150.1603  139.9035  154.0721 N   0  0  0  0  0  0  0  0  0  0  0  0
  149.0239  140.5927  154.4784 C   0  0  0  0  0  0  0  0  0  0  0  0
  147.8908  141.1101  153.8020 C   0  0  0  0  0  0  0  0  0  0  0  0
  147.7136  140.9949  152.4785 N   0  0  0  0  0  0  0  0  0  0  0  0
  146.9441  141.7537  154.5243 N   0  0  0  0  0  0  0  0  0  0  0  0
  147.0987  141.8857  155.8459 C   0  0  0  0  0  0  0  0  0  0  0  0
  148.1012  141.4568  156.6176 N   0  0  0  0  0  0  0  0  0  0  0  0
  149.0541  140.8051  155.8879 C   0  0  0  0  0  0  0  0  0  0  0  0
  150.8591  138.7648  158.2274 C   0  0  2  0  0  0  0  0  0  0  0  0
  149.6200  138.3267  158.7659 O   0  0  0  0  0  0  0  0  0  0  0  0
  149.3754  137.0147  158.9099 C   0  0  0  0  0  0  0  0  0  0  0  0
  148.0318  136.7447  159.5738 C   0  0  0  0  0  0  0  0  0  0  0  0
  150.1178  136.0959  158.5630 O   0  0  0  0  0  0  0  0  0  0  0  0
  151.9324  138.9129  159.2954 C   0  0  1  0  0  0  0  0  0  0  0  0
  152.7808  137.7727  159.2636 O   0  0  0  0  0  0  0  0  0  0  0  0
  153.6908  137.5786  160.2324 C   0  0  0  0  0  0  0  0  0  0  0  0
  154.5091  136.3129  160.0151 C   0  0  0  0  0  0  0  0  0  0  0  0
  153.8835  138.3102  161.2034 O   0  0  0  0  0  0  0  0  0  0  0  0
  153.3021  144.7050  158.4338 H   0  0  0  0  0  0  0  0  0  0  0  0
  152.1912  145.6306  159.4519 H   0  0  0  0  0  0  0  0  0  0  0  0
  151.5813  144.7776  158.0269 H   0  0  0  0  0  0  0  0  0  0  0  0
  153.5057  140.9996  160.7402 H   0  0  0  0  0  0  0  0  0  0  0  0
  151.7646  141.2043  160.5920 H   0  0  0  0  0  0  0  0  0  0  0  0
  153.7173  139.9621  158.6072 H   0  0  0  0  0  0  0  0  0  0  0  0
  150.0504  140.8091  158.3307 H   0  0  0  0  0  0  0  0  0  0  0  0
  148.4071  140.5213  151.9175 H   0  0  0  0  0  0  0  0  0  0  0  0
  146.8888  141.3835  152.0446 H   0  0  0  0  0  0  0  0  0  0  0  0
  146.3065  142.4115  156.3584 H   0  0  0  0  0  0  0  0  0  0  0  0
  151.2078  138.1420  157.4014 H   0  0  0  0  0  0  0  0  0  0  0  0
  147.2222  136.8972  158.8601 H   0  0  0  0  0  0  0  0  0  0  0  0
  147.8808  137.4166  160.4190 H   0  0  0  0  0  0  0  0  0  0  0  0
  147.9846  135.7181  159.9371 H   0  0  0  0  0  0  0  0  0  0  0  0
  151.4575  139.0340  160.2710 H   0  0  0  0  0  0  0  0  0  0  0  0
  153.9419  135.4376  160.3320 H   0  0  0  0  0  0  0  0  0  0  0  0
  155.4346  136.3533  160.5897 H   0  0  0  0  0  0  0  0  0  0  0  0
  154.7633  136.1989  158.9610 H   0  0  0  0  0  0  0  0  0  0  0  0
  1  2  1  0  0  0  0
  1 30  1  0  0  0  0
  1 31  1  0  0  0  0
  1 32  1  0  0  0  0
  2  3  2  0  0  0  0
  2  4  1  0  0  0  0
  4  5  1  0  0  0  0
  5  6  1  0  0  0  0
  5 33  1  0  0  0  0
  5 34  1  0  0  0  0
  6 25  1  0  0  0  0
  6  7  1  0  0  0  0
  6 35  1  0  0  0  0
  7  8  1  0  0  0  0
  8  9  1  0  0  0  0
  8 20  1  0  0  0  0
  8 36  1  0  0  0  0
  9 19  1  0  0  0  0
  9 10  1  0  0  0  0
 10 11  1  0  0  0  0
 10 12  2  0  0  0  0
 12 13  1  0  0  0  0
 13 19  2  0  0  0  0
 13 14  1  0  0  0  0
 14 15  1  0  0  0  0
 14 16  2  0  0  0  0
 15 37  1  0  0  0  0
 15 38  1  0  0  0  0
 16 17  1  0  0  0  0
 17 18  2  0  0  0  0
 17 39  1  0  0  0  0
 18 19  1  0  0  0  0
 20 21  1  0  0  0  0
 20 25  1  0  0  0  0
 20 40  1  0  0  0  0
 21 22  1  0  0  0  0
 22 23  1  0  0  0  0
 22 24  2  0  0  0  0
 23 41  1  0  0  0  0
 23 42  1  0  0  0  0
 23 43  1  0  0  0  0
 25 26  1  0  0  0  0
 25 44  1  0  0  0  0
 26 27  1  0  0  0  0
 27 28  1  0  0  0  0
 27 29  2  0  0  0  0
 28 45  1  0  0  0  0
 28 46  1  0  0  0  0
 28 47  1  0  0  0  0
M  END
> <s_m_source_file>
AV-unprocessed.smi

> <i_m_source_file_index>
104

> <i_lp_mmshare_version>
43012

> <i_f3d_flags>
0

> <s_epik_input>
W0NIM11DKD1PKU9bQ0gyXVtDQEBIXTFPW0NASF0oW0NAQEhdKE9DKD1PKVtDSDNdKVtDQEhdMU9DKD1PKVtDSDNdKW4oYyhCciluMiljKGMyMyluW2NIXW5jM1tOSDJd

> <s_epik_cmdline>
J2VwaWtfcHl0aG9uJywgJy1waCcsICc3LjAnLCAnLXRuJywgJzgnLCAnLW1hJywgJzIwMCcsICctbWV0YWxfYmluZGluZycsICctaW1hZScsICc8aW5maWxlLm1hZT4nLCAnLW9tYWUnLCAnPG91dGZpbGUubWFlPic=

> <r_lp_tautomer_probability>
1

> <r_epik_Ionization_Penalty>
7.36622e-05

> <r_epik_Ionization_Penalty_Charging>
0

> <r_epik_Ionization_Penalty_Neutral>
7.36622e-05

> <r_epik_State_Penalty>
-0

> <r_epik_Charging_Adjusted_Penalty>
0

> <i_epik_Tot_Q>
0

> <i_epik_Tot_abs_Q>
0

> <r_epik_Metal_State_Penalty>
-0

> <b_epik_Metal_Only>
0

> <s_epik_Chemistry_Notes>
This compound has an ester and may undergo hydrolysis at high or low pH. This compound contains an acetal/aminal-like group ( X-CH(R)-Y where X, Y are N, S, or O) that may be acid/base labile, releasing an aldehyde.

> <s_lp_Force_Field>
OPLS_2005

> <r_lp_Energy>
16.3368

> <b_lp_Chiralities_Consistent>
1

> <s_lp_Variant>
AV-unprocessed.smi:104-5

> <Gold.Version>
5.8.1

> <Gold.Id.Protein>
6NUR|6NUR_protein|mol2

> <Gold.PLP.Fitness>
49.1688

> <Gold.PLP.PLP>
-43.7348

> <Gold.PLP.part.hbond>
-4.1662

> <Gold.PLP.part.metal>
0.0000

> <Gold.PLP.part.buried>
-7.5218

> <Gold.PLP.part.nonpolar>
-34.6175

> <Gold.PLP.part.repulsive>
1.0485

> <Gold.PLP.ligand.clash>
0.0000

> <Gold.PLP.ligand.torsion>
1.0491

> <Gold.PLP.Chemscore.Hbond>
2.4500

> <Gold.PLP.Chemscore.CHOScore>
0.0000

> <Gold.PLP.Chemscore.Metal>
0.0000

> <Gold.Chemscore.Hbonds>
donor molecule, donor type, donor heavy atom, donor atom, acceptor molecule, acceptor atom, score
      L1  H    15    37       P1  7957  0.86
      P1  H  6896  6908       L1    24  1.00
      P1  H  7989  7998       L1    12  0.40

> <Gold.PLP.Chemscore.Internal.Correction>
0.1822

> <Gold.Rescore>
     Score         DG    S(hbond)    S(metal)    S(lipo)     H(rot)  DE(clash)    DE(int)     intcor
      7.16      -8.34       1.96        0.00      62.82       4.31       0.15       1.03       ----

> <Gold.Chemscore.Fitness>
7.1610

> <Gold.Chemscore.DG>
-8.3426

> <Gold.Chemscore.ZeroCoef>
-5.4800

> <Gold.Chemscore.Hbond>
1.9577

> <Gold.Chemscore.Metal>
0.0000

> <Gold.Chemscore.Lipo>
62.8197

> <Gold.Chemscore.Internal_Hbond>
0.0000

> <Gold.Chemscore.DEClash>
0.1522

> <Gold.Chemscore.DEInternal>
1.0294

> <Gold.Chemscore.Rot>
4.3070

> <Gold.Chemscore.Internal.Correction>
   9.000000E+99

> <Gold.Chemscore.Hbonds>
donor molecule, donor type, donor heavy atom, donor atom, acceptor molecule, acceptor atom, score
      L1  H    15    37       P1  7957  0.84
      P1  H  6896  6908       L1    24  0.96
      P1  H  7989  7998       L1    12  0.01

> <Gold.Chemscore.Hbond.Weighted>
-6.5386

> <Gold.Chemscore.Metal.Weighted>
-0.0000

> <Gold.Chemscore.Lipo.Weighted>
-7.3499

> <Gold.Chemscore.Internal_Hbond.Weighted>
0.0000

> <Gold.Chemscore.DEClash.Weighted>
0.1522

> <Gold.Chemscore.DEInternal.Weighted>
1.0294

> <Gold.Chemscore.Rot.Weighted>
11.0259

> <Gold.Chemscore.Internal.Correction.Weighted>
   9.000000E+99

> <Gold.Protein.RotatedTorsions>
[ 6907 6896 6895 6894 ] final -177.79 input  -60.11 | X-H torsion
[ 7974 7965 7964 7962 ] final  153.44 input  175.53 | X-H torsion
[ 8008 7997 7996 7995 ] final  140.93 input   59.86 | X-H torsion
[ 10167 10162 10161 10158 ] final  -46.86 input  -65.29 | X-H torsion
[ 10718 10713 10712 10709 ] final  -47.78 input   66.30 | X-H torsion
[ 10763 10752 10751 10750 ] final  102.93 input  -60.55 | X-H torsion
[ 11005 11000 10999 10996 ] final    6.08 input  -57.11 | X-H torsion

> <Gold.Protein.ActiveResidues>
 VAL166  LYS551  ARG553  GLY616  TRP617  ASP618  TYR619  PRO620  LYS621  CYS622 
 ASP623  PHE694  ASN695  SER759  ASP760  ASP761  ALA762  ILE779  LEU786  VAL792 
 PHE793  MET794  SER795  GLU796  ALA797  LYS798  CYS799  TRP800  GLU811  SER814 

> <Gold.Protein.RotatedAtoms>
  151.6267  133.3335  159.3099 H   0  0  0  0  0  0  0  0  0  0  0  0  # atno 6907 bound_to 6896
  150.8077  134.7217  159.6671 H   0  0  0  0  0  0  0  0  0  0  0  0  # atno 6908 bound_to 6896
  152.4173  134.6023  160.0055 H   0  0  0  0  0  0  0  0  0  0  0  0  # atno 6909 bound_to 6896
  144.8154  139.6801  143.6123 H   0  0  0  0  0  0  0  0  0  0  0  0  # atno 7974 bound_to 7965
  156.2973  140.2328  156.4481 H   0  0  0  0  0  0  0  0  0  0  0  0  # atno 8008 bound_to 7997
  154.8126  140.0442  157.1374 H   0  0  0  0  0  0  0  0  0  0  0  0  # atno 8009 bound_to 7997
  154.9406  140.3029  155.5126 H   0  0  0  0  0  0  0  0  0  0  0  0  # atno 8010 bound_to 7997
  140.6799  143.2811  151.3844 H   0  0  0  0  0  0  0  0  0  0  0  0  # atno 10167 bound_to 10162
  156.2051  130.4158  149.9189 H   0  0  0  0  0  0  0  0  0  0  0  0  # atno 10718 bound_to 10713
  153.3460  135.3994  155.1609 H   0  0  0  0  0  0  0  0  0  0  0  0  # atno 10763 bound_to 10752
  154.8653  135.3645  154.5284 H   0  0  0  0  0  0  0  0  0  0  0  0  # atno 10764 bound_to 10752
  153.5732  135.7078  153.5555 H   0  0  0  0  0  0  0  0  0  0  0  0  # atno 10765 bound_to 10752
  140.5635  134.0169  155.7981 H   0  0  0  0  0  0  0  0  0  0  0  0  # atno 11005 bound_to 11000
  146.2457  139.6093  142.9461 LP  0  0  0  0  0  0  0  0  0  0  0  0  # atno 17320 bound_to 7965
  145.5226  141.0431  143.2427 LP  0  0  0  0  0  0  0  0  0  0  0  0  # atno 17321 bound_to 7965
  139.6115  144.1088  152.2304 LP  0  0  0  0  0  0  0  0  0  0  0  0  # atno 17342 bound_to 10162
  140.0503  144.5937  150.7341 LP  0  0  0  0  0  0  0  0  0  0  0  0  # atno 17343 bound_to 10162
  156.6886  130.8886  151.3585 LP  0  0  0  0  0  0  0  0  0  0  0  0  # atno 17370 bound_to 10713
  157.7007  130.9330  150.0778 LP  0  0  0  0  0  0  0  0  0  0  0  0  # atno 17371 bound_to 10713
  141.1100  133.9632  157.2928 LP  0  0  0  0  0  0  0  0  0  0  0  0  # atno 17394 bound_to 11000
  139.9396  135.0192  156.8666 LP  0  0  0  0  0  0  0  0  0  0  0  0  # atno 17395 bound_to 11000

$$$$
