AV-unprocessed.smi:3|AV-procd|sdf|32|dock8
  -GOLD-   2262015143D 1   1.00000     0.00000
 Structure written by MMmdl.
 33 35  0  0  0  0  0  0  0  0  1 V2000
  152.2007  140.5722  157.6973 C   0  0  0  0  0  0  0  0  0  0  0  0
  151.3499  141.7399  157.5199 N   0  0  0  0  0  0  0  0  0  0  0  0
  150.2569  141.6798  156.5530 C   0  0  0  0  0  0  0  0  0  0  0  0
  150.4653  140.5754  155.5188 C   0  0  1  0  0  0  0  0  0  0  0  0
  150.1562  139.1151  155.8827 C   0  0  0  0  0  0  0  0  0  0  0  0
  149.5735  138.9085  154.4818 C   0  0  2  0  0  0  0  0  0  0  0  0
  150.3904  138.2503  153.5380 O   0  0  0  0  0  0  0  0  0  0  0  0
  149.4645  140.4320  154.3640 C   0  0  0  0  0  0  0  0  0  0  0  0
  151.2895  142.7345  158.5186 C   0  0  0  0  0  0  0  0  0  0  0  0
  150.4624  143.7861  158.2920 N   0  0  0  0  0  0  0  0  0  0  0  0
  150.3895  144.7521  159.2418 C   0  0  0  0  0  0  0  0  0  0  0  0
  151.0462  144.8072  160.4257 N   0  0  0  0  0  0  0  0  0  0  0  0
  151.8763  143.7536  160.6821 C   0  0  0  0  0  0  0  0  0  0  0  0
  152.6163  143.5489  161.7669 N   0  0  0  0  0  0  0  0  0  0  0  0
  153.2410  142.3748  161.5798 C   0  0  0  0  0  0  0  0  0  0  0  0
  152.9154  141.7481  160.3169 C   0  0  0  0  0  0  0  0  0  0  0  0
  152.0176  142.7019  159.7426 C   0  0  0  0  0  0  0  0  0  0  0  0
  151.4677  140.6236  155.0894 H   0  0  0  0  0  0  0  0  0  0  0  0
  148.5953  138.4274  154.5058 H   0  0  0  0  0  0  0  0  0  0  0  0
  153.0876  140.8118  158.2845 H   0  0  0  0  0  0  0  0  0  0  0  0
  152.5384  140.2056  156.7275 H   0  0  0  0  0  0  0  0  0  0  0  0
  151.6551  139.7661  158.1873 H   0  0  0  0  0  0  0  0  0  0  0  0
  149.2987  141.5564  157.0582 H   0  0  0  0  0  0  0  0  0  0  0  0
  150.1962  142.6458  156.0510 H   0  0  0  0  0  0  0  0  0  0  0  0
  151.0403  138.5172  156.1075 H   0  0  0  0  0  0  0  0  0  0  0  0
  149.4032  139.0205  156.6667 H   0  0  0  0  0  0  0  0  0  0  0  0
  149.8170  137.7534  152.9747 H   0  0  0  0  0  0  0  0  0  0  0  0
  148.4682  140.7993  154.6149 H   0  0  0  0  0  0  0  0  0  0  0  0
  149.8137  140.8448  153.4169 H   0  0  0  0  0  0  0  0  0  0  0  0
  149.7254  145.5764  159.0286 H   0  0  0  0  0  0  0  0  0  0  0  0
  153.9092  141.9697  162.3296 H   0  0  0  0  0  0  0  0  0  0  0  0
  153.2677  140.8017  159.9291 H   0  0  0  0  0  0  0  0  0  0  0  0
  150.8917  145.5905  161.0442 H   0  0  0  0  0  0  0  0  0  0  0  0
  1  2  1  0  0  0  0
  1 20  1  0  0  0  0
  1 21  1  0  0  0  0
  1 22  1  0  0  0  0
  2  3  1  0  0  0  0
  2  9  1  0  0  0  0
  3  4  1  0  0  0  0
  3 23  1  0  0  0  0
  3 24  1  0  0  0  0
  4 18  1  0  0  0  0
  4  8  1  0  0  0  0
  4  5  1  0  0  0  0
  5  6  1  0  0  0  0
  5 25  1  0  0  0  0
  5 26  1  0  0  0  0
  6 19  1  0  0  0  0
  6  7  1  0  0  0  0
  6  8  1  0  0  0  0
  7 27  1  0  0  0  0
  8 28  1  0  0  0  0
  8 29  1  0  0  0  0
  9 17  2  0  0  0  0
  9 10  1  0  0  0  0
 10 11  2  0  0  0  0
 11 12  1  0  0  0  0
 11 30  1  0  0  0  0
 12 13  1  0  0  0  0
 12 33  1  0  0  0  0
 13 17  1  0  0  0  0
 13 14  2  0  0  0  0
 14 15  1  0  0  0  0
 15 16  2  0  0  0  0
 15 31  1  0  0  0  0
 16 17  1  0  0  0  0
 16 32  1  0  0  0  0
M  END
> <s_m_source_file>
AV-unprocessed.smi

> <i_m_source_file_index>
3

> <i_lp_mmshare_version>
43012

> <i_f3d_flags>
0

> <s_epik_input>
W25IXTFbY0hdW2NIXWMoYzEyKWMobltjSF1uMilOKFtDSDNdKVtDSDJdW0NASF0zW0NIMl1bQ0BASF0oW09IXSlbQ0gyXTM=

> <s_epik_cmdline>
J2VwaWtfcHl0aG9uJywgJy1waCcsICc3LjAnLCAnLXRuJywgJzgnLCAnLW1hJywgJzIwMCcsICctbWV0YWxfYmluZGluZycsICctaW1hZScsICc8aW5maWxlLm1hZT4nLCAnLW9tYWUnLCAnPG91dGZpbGUubWFlPic=

> <r_lp_tautomer_probability>
1.75997e-05

> <r_epik_Ionization_Penalty>
5.52529

> <r_epik_Ionization_Penalty_Charging>
0

> <r_epik_Ionization_Penalty_Neutral>
5.52529

> <r_epik_State_Penalty>
8.99615

> <r_epik_Charging_Adjusted_Penalty>
8.99615

> <i_epik_Tot_Q>
0

> <i_epik_Tot_abs_Q>
0

> <r_epik_Metal_State_Penalty>
6.01519

> <b_epik_Metal_Only>
1

> <s_lp_Force_Field>
OPLS_2005

> <r_lp_Energy>
26.4435

> <b_lp_Chiralities_Consistent>
1

> <s_lp_Variant>
AV-unprocessed.smi:3-6

> <Gold.Version>
5.8.1

> <Gold.Id.Protein>
6NUR|6NUR_protein|mol2

> <Gold.PLP.Fitness>
41.3165

> <Gold.PLP.PLP>
-35.9077

> <Gold.PLP.part.hbond>
-2.5357

> <Gold.PLP.part.metal>
0.0000

> <Gold.PLP.part.buried>
-2.9906

> <Gold.PLP.part.nonpolar>
-30.0421

> <Gold.PLP.part.repulsive>
0.4584

> <Gold.PLP.ligand.clash>
1.3557

> <Gold.PLP.ligand.torsion>
0.3145

> <Gold.PLP.Chemscore.Hbond>
1.0000

> <Gold.PLP.Chemscore.CHOScore>
0.9539

> <Gold.PLP.Chemscore.Metal>
0.0000

> <Gold.Chemscore.Hbonds>
donor molecule, donor type, donor heavy atom, donor atom, acceptor molecule, acceptor atom, score
      L1  H     7    27       P1  7948  1.00
      L1  C    11    30       P1  8029  0.95

> <Gold.PLP.Chemscore.Internal.Correction>
1.5319

> <Gold.Rescore>
     Score         DG    S(hbond)    S(metal)    S(lipo)     H(rot)  DE(clash)    DE(int)     intcor
      9.97     -11.59       0.90        0.00      66.87       1.84       0.14       1.48       ----

> <Gold.Chemscore.Fitness>
9.9671

> <Gold.Chemscore.DG>
-11.5947

> <Gold.Chemscore.ZeroCoef>
-5.4800

> <Gold.Chemscore.Hbond>
0.8982

> <Gold.Chemscore.Metal>
0.0000

> <Gold.Chemscore.Lipo>
66.8721

> <Gold.Chemscore.Internal_Hbond>
0.0000

> <Gold.Chemscore.DEClash>
0.1432

> <Gold.Chemscore.DEInternal>
1.4845

> <Gold.Chemscore.Rot>
1.8396

> <Gold.Chemscore.Internal.Correction>
   9.000000E+99

> <Gold.Chemscore.Hbonds>
donor molecule, donor type, donor heavy atom, donor atom, acceptor molecule, acceptor atom, score
      L1  H     7    27       P1  7948  0.47

> <Gold.Chemscore.Hbond.Weighted>
-3.0001

> <Gold.Chemscore.Metal.Weighted>
-0.0000

> <Gold.Chemscore.Lipo.Weighted>
-7.8240

> <Gold.Chemscore.Internal_Hbond.Weighted>
0.0000

> <Gold.Chemscore.DEClash.Weighted>
0.1432

> <Gold.Chemscore.DEInternal.Weighted>
1.4845

> <Gold.Chemscore.Rot.Weighted>
4.7095

> <Gold.Chemscore.Internal.Correction.Weighted>
   9.000000E+99

> <Gold.Protein.RotatedTorsions>
[ 6907 6896 6895 6894 ] final  151.90 input  -60.11 | X-H torsion
[ 7974 7965 7964 7962 ] final -100.16 input  175.53 | X-H torsion
[ 8008 7997 7996 7995 ] final  111.19 input   59.86 | X-H torsion
[ 10167 10162 10161 10158 ] final   31.77 input  -65.29 | X-H torsion
[ 10718 10713 10712 10709 ] final   71.90 input   66.30 | X-H torsion
[ 10763 10752 10751 10750 ] final -107.52 input  -60.55 | X-H torsion
[ 11005 11000 10999 10996 ] final  -25.18 input  -57.11 | X-H torsion

> <Gold.Protein.ActiveResidues>
 VAL166  LYS551  ARG553  GLY616  TRP617  ASP618  TYR619  PRO620  LYS621  CYS622 
 ASP623  PHE694  ASN695  SER759  ASP760  ASP761  ALA762  ILE779  LEU786  VAL792 
 PHE793  MET794  SER795  GLU796  ALA797  LYS798  CYS799  TRP800  GLU811  SER814 

> <Gold.Protein.RotatedAtoms>
  152.0942  133.4216  159.4557 H   0  0  0  0  0  0  0  0  0  0  0  0  # atno 6907 bound_to 6896
  150.6863  134.2836  159.4646 H   0  0  0  0  0  0  0  0  0  0  0  0  # atno 6908 bound_to 6896
  152.0690  134.9545  160.0625 H   0  0  0  0  0  0  0  0  0  0  0  0  # atno 6909 bound_to 6896
  145.2981  140.9370  143.2839 H   0  0  0  0  0  0  0  0  0  0  0  0  # atno 7974 bound_to 7965
  156.2106  140.3024  155.9724 H   0  0  0  0  0  0  0  0  0  0  0  0  # atno 8008 bound_to 7997
  155.2733  140.0434  157.3026 H   0  0  0  0  0  0  0  0  0  0  0  0  # atno 8009 bound_to 7997
  154.5694  140.2344  155.8222 H   0  0  0  0  0  0  0  0  0  0  0  0  # atno 8010 bound_to 7997
  140.4559  144.0979  150.6201 H   0  0  0  0  0  0  0  0  0  0  0  0  # atno 10167 bound_to 10162
  157.6475  130.9552  150.0854 H   0  0  0  0  0  0  0  0  0  0  0  0  # atno 10718 bound_to 10713
  154.8080  135.4672  154.0442 H   0  0  0  0  0  0  0  0  0  0  0  0  # atno 10763 bound_to 10752
  153.1895  135.6853  153.8377 H   0  0  0  0  0  0  0  0  0  0  0  0  # atno 10764 bound_to 10752
  153.7900  135.3244  155.3354 H   0  0  0  0  0  0  0  0  0  0  0  0  # atno 10765 bound_to 10752
  140.8914  133.7586  156.0425 H   0  0  0  0  0  0  0  0  0  0  0  0  # atno 11005 bound_to 11000
  144.9116  139.4521  143.6584 LP  0  0  0  0  0  0  0  0  0  0  0  0  # atno 17320 bound_to 7965
  146.3161  139.7927  142.8982 LP  0  0  0  0  0  0  0  0  0  0  0  0  # atno 17321 bound_to 7965
  140.4152  143.2637  151.9784 LP  0  0  0  0  0  0  0  0  0  0  0  0  # atno 17342 bound_to 10162
  139.4801  144.5880  151.7820 LP  0  0  0  0  0  0  0  0  0  0  0  0  # atno 17343 bound_to 10162
  156.1818  130.3650  149.9025 LP  0  0  0  0  0  0  0  0  0  0  0  0  # atno 17370 bound_to 10713
  156.6975  130.8920  151.3595 LP  0  0  0  0  0  0  0  0  0  0  0  0  # atno 17371 bound_to 10713
  140.8342  134.3142  157.5337 LP  0  0  0  0  0  0  0  0  0  0  0  0  # atno 17394 bound_to 11000
  139.8730  134.9380  156.3703 LP  0  0  0  0  0  0  0  0  0  0  0  0  # atno 17395 bound_to 11000

$$$$
