AV-unprocessed.smi:861|AV-procd|sdf|3969|dock5
  -GOLD-   22720 1443D 1   1.00000     0.00000
 Structure written by MMmdl.
 44 45  0  0  0  0  0  0  0  0  2 V2000
  152.7217  142.0889  160.7252 C   0  0  0  0  0  0  0  0  0  0  0  0
  152.1938  142.7585  159.4444 C   0  0  0  0  0  0  0  0  0  0  0  0
  151.4294  144.0448  159.7950 C   0  0  0  0  0  0  0  0  0  0  0  0
  151.3136  141.8116  158.6014 C   0  0  0  0  0  0  0  0  0  0  0  0
  152.0948  140.6676  157.9245 C   0  0  0  0  0  0  0  0  0  0  0  0
  151.3216  140.0082  156.8417 N   0  3  2  0  0  0  0  0  0  0  0  0
  152.2002  139.4408  155.7911 C   0  0  0  0  0  0  0  0  0  0  0  0
  151.3650  138.7216  154.7200 C   0  0  0  0  0  0  0  0  0  0  0  0
  150.4151  139.6272  154.1739 O   0  0  0  0  0  0  0  0  0  0  0  0
  149.4966  140.1008  155.1537 C   0  0  2  0  0  0  0  0  0  0  0  0
  148.4612  140.9918  154.4535 C   0  0  0  0  0  0  0  0  0  0  0  0
  147.3164  141.2614  155.3125 N   0  0  0  0  0  0  0  0  0  0  0  0
  146.4416  142.3186  155.0285 C   0  0  0  0  0  0  0  0  0  0  0  0
  146.5779  143.0069  153.8065 C   0  0  0  0  0  0  0  0  0  0  0  0
  145.6824  144.0589  153.5469 C   0  0  0  0  0  0  0  0  0  0  0  0
  144.7177  144.3428  154.5307 C   0  0  0  0  0  0  0  0  0  0  0  0
  144.6325  143.6489  155.6882 N   0  0  0  0  0  0  0  0  0  0  0  0
  145.4855  142.6477  155.9336 N   0  0  0  0  0  0  0  0  0  0  0  0
  150.2834  140.8752  156.2297 C   0  0  0  0  0  0  0  0  0  0  0  0
  151.9035  141.7388  161.3555 H   0  0  0  0  0  0  0  0  0  0  0  0
  153.3155  142.7880  161.3147 H   0  0  0  0  0  0  0  0  0  0  0  0
  153.3623  141.2356  160.5055 H   0  0  0  0  0  0  0  0  0  0  0  0
  153.0532  143.0511  158.8397 H   0  0  0  0  0  0  0  0  0  0  0  0
  150.5456  143.8295  160.3964 H   0  0  0  0  0  0  0  0  0  0  0  0
  151.1017  144.5676  158.8959 H   0  0  0  0  0  0  0  0  0  0  0  0
  152.0572  144.7336  160.3612 H   0  0  0  0  0  0  0  0  0  0  0  0
  150.5197  141.3995  159.2260 H   0  0  0  0  0  0  0  0  0  0  0  0
  150.8160  142.4040  157.8342 H   0  0  0  0  0  0  0  0  0  0  0  0
  153.0482  141.0277  157.5347 H   0  0  0  0  0  0  0  0  0  0  0  0
  152.3333  139.9151  158.6756 H   0  0  0  0  0  0  0  0  0  0  0  0
  152.7857  140.2401  155.3336 H   0  0  0  0  0  0  0  0  0  0  0  0
  152.9070  138.7385  156.2349 H   0  0  0  0  0  0  0  0  0  0  0  0
  152.0108  138.3605  153.9192 H   0  0  0  0  0  0  0  0  0  0  0  0
  150.8585  137.8505  155.1383 H   0  0  0  0  0  0  0  0  0  0  0  0
  148.9841  139.2563  155.6190 H   0  0  0  0  0  0  0  0  0  0  0  0
  148.9230  141.9435  154.1868 H   0  0  0  0  0  0  0  0  0  0  0  0
  148.1252  140.5254  153.5264 H   0  0  0  0  0  0  0  0  0  0  0  0
  147.1106  140.6285  156.0719 H   0  0  0  0  0  0  0  0  0  0  0  0
  147.3408  142.7390  153.0903 H   0  0  0  0  0  0  0  0  0  0  0  0
  145.7323  144.6260  152.6293 H   0  0  0  0  0  0  0  0  0  0  0  0
  144.0019  145.1390  154.3883 H   0  0  0  0  0  0  0  0  0  0  0  0
  149.5889  141.2295  156.9904 H   0  0  0  0  0  0  0  0  0  0  0  0
  150.7548  141.7568  155.7916 H   0  0  0  0  0  0  0  0  0  0  0  0
  150.8427  139.2253  157.2637 H   0  0  0  0  0  0  0  0  0  0  0  0
  1  2  1  0  0  0  0
  1 20  1  0  0  0  0
  1 21  1  0  0  0  0
  1 22  1  0  0  0  0
  2  3  1  0  0  0  0
  2  4  1  0  0  0  0
  2 23  1  0  0  0  0
  3 24  1  0  0  0  0
  3 25  1  0  0  0  0
  3 26  1  0  0  0  0
  4  5  1  0  0  0  0
  4 27  1  0  0  0  0
  4 28  1  0  0  0  0
  5  6  1  0  0  0  0
  5 29  1  0  0  0  0
  5 30  1  0  0  0  0
  6 19  1  0  0  0  0
  6  7  1  0  0  0  0
  6 44  1  0  0  0  0
  7  8  1  0  0  0  0
  7 31  1  0  0  0  0
  7 32  1  0  0  0  0
  8  9  1  0  0  0  0
  8 33  1  0  0  0  0
  8 34  1  0  0  0  0
  9 10  1  0  0  0  0
 10 11  1  0  0  0  0
 10 19  1  0  0  0  0
 10 35  1  0  0  0  0
 11 12  1  0  0  0  0
 11 36  1  0  0  0  0
 11 37  1  0  0  0  0
 12 13  1  0  0  0  0
 12 38  1  0  0  0  0
 13 18  1  0  0  0  0
 13 14  2  0  0  0  0
 14 15  1  0  0  0  0
 14 39  1  0  0  0  0
 15 16  2  0  0  0  0
 15 40  1  0  0  0  0
 16 17  1  0  0  0  0
 16 41  1  0  0  0  0
 17 18  2  0  0  0  0
 19 42  1  0  0  0  0
 19 43  1  0  0  0  0
M  CHG  1   6   1
M  END
> <s_m_source_file>
AV-unprocessed.smi

> <i_m_source_file_index>
861

> <i_lp_mmshare_version>
43012

> <i_f3d_flags>
0

> <s_epik_input>
W0NIM11bQ0hdKFtDSDNdKVtDSDJdW0NIMl1OMVtDSDJdW0NIMl1PW0NASF0oW0NIMl0xKVtDSDJdW05IXWMyW2NIXVtjSF1bY0hdbm4y

> <s_epik_cmdline>
J2VwaWtfcHl0aG9uJywgJy1waCcsICc3LjAnLCAnLXRuJywgJzgnLCAnLW1hJywgJzIwMCcsICctbWV0YWxfYmluZGluZycsICctaW1hZScsICc8aW5maWxlLm1hZT4nLCAnLW9tYWUnLCAnPG91dGZpbGUubWFlPic=

> <r_lp_tautomer_probability>
0.999978

> <r_epik_Ionization_Penalty>
0.114704

> <r_epik_Ionization_Penalty_Charging>
0.0953451

> <r_epik_Ionization_Penalty_Neutral>
0.0193593

> <r_epik_State_Penalty>
0.104983

> <r_epik_Charging_Adjusted_Penalty>
0.200328

> <i_epik_Tot_Q>
1

> <i_epik_Tot_abs_Q>
1

> <r_epik_Metal_State_Penalty>
0.100113

> <b_epik_Metal_Only>
0

> <s_lp_Force_Field>
OPLS_2005

> <r_lp_Energy>
25.0457

> <b_lp_Chiralities_Consistent>
1

> <s_lp_Variant>
AV-unprocessed.smi:861-4

> <Gold.Version>
5.8.1

> <Gold.Id.Protein>
6NUR|6NUR_protein|mol2

> <Gold.PLP.Fitness>
42.1509

> <Gold.PLP.PLP>
-41.1784

> <Gold.PLP.part.hbond>
-1.0000

> <Gold.PLP.part.metal>
0.0000

> <Gold.PLP.part.buried>
-6.7333

> <Gold.PLP.part.nonpolar>
-33.4613

> <Gold.PLP.part.repulsive>
0.7693

> <Gold.PLP.ligand.clash>
0.0000

> <Gold.PLP.ligand.torsion>
0.7638

> <Gold.PLP.Chemscore.Hbond>
0.8000

> <Gold.PLP.Chemscore.CHOScore>
0.0000

> <Gold.PLP.Chemscore.Metal>
0.0000

> <Gold.Chemscore.Hbonds>
donor molecule, donor type, donor heavy atom, donor atom, acceptor molecule, acceptor atom, score
      P1  H  7989  7998       L1     9  0.90

> <Gold.PLP.Chemscore.Internal.Correction>
0.1001

> <Gold.Rescore>
     Score         DG    S(hbond)    S(metal)    S(lipo)     H(rot)  DE(clash)    DE(int)     intcor
     13.18     -13.87       0.16        0.00     104.46       1.71       0.01       0.68       ----

> <Gold.Chemscore.Fitness>
13.1752

> <Gold.Chemscore.DG>
-13.8657

> <Gold.Chemscore.ZeroCoef>
-5.4800

> <Gold.Chemscore.Hbond>
0.1643

> <Gold.Chemscore.Metal>
0.0000

> <Gold.Chemscore.Lipo>
104.4559

> <Gold.Chemscore.Internal_Hbond>
0.0000

> <Gold.Chemscore.DEClash>
0.0115

> <Gold.Chemscore.DEInternal>
0.6789

> <Gold.Chemscore.Rot>
1.7127

> <Gold.Chemscore.Internal.Correction>
   9.000000E+99

> <Gold.Chemscore.Hbonds>
donor molecule, donor type, donor heavy atom, donor atom, acceptor molecule, acceptor atom, score
      P1  H  7989  7998       L1     9  0.17

> <Gold.Chemscore.Hbond.Weighted>
-0.5488

> <Gold.Chemscore.Metal.Weighted>
-0.0000

> <Gold.Chemscore.Lipo.Weighted>
-12.2213

> <Gold.Chemscore.Internal_Hbond.Weighted>
0.0000

> <Gold.Chemscore.DEClash.Weighted>
0.0115

> <Gold.Chemscore.DEInternal.Weighted>
0.6789

> <Gold.Chemscore.Rot.Weighted>
4.3844

> <Gold.Chemscore.Internal.Correction.Weighted>
   9.000000E+99

> <Gold.Protein.RotatedTorsions>
[ 6907 6896 6895 6894 ] final   24.41 input  -60.11 | X-H torsion
[ 7974 7965 7964 7962 ] final  -84.74 input  175.53 | X-H torsion
[ 8008 7997 7996 7995 ] final  -44.65 input   59.86 | X-H torsion
[ 10167 10162 10161 10158 ] final   24.58 input  -65.29 | X-H torsion
[ 10718 10713 10712 10709 ] final  -28.06 input   66.30 | X-H torsion
[ 10763 10752 10751 10750 ] final -163.20 input  -60.55 | X-H torsion
[ 11005 11000 10999 10996 ] final  108.37 input  -57.11 | X-H torsion

> <Gold.Protein.ActiveResidues>
 VAL166  LYS551  ARG553  GLY616  TRP617  ASP618  TYR619  PRO620  LYS621  CYS622 
 ASP623  PHE694  ASN695  SER759  ASP760  ASP761  ALA762  ILE779  LEU786  VAL792 
 PHE793  MET794  SER795  GLU796  ALA797  LYS798  CYS799  TRP800  GLU811  SER814 

> <Gold.Protein.RotatedAtoms>
  151.9570  135.0142  160.0545 H   0  0  0  0  0  0  0  0  0  0  0  0  # atno 6907 bound_to 6896
  152.1902  133.4763  159.5012 H   0  0  0  0  0  0  0  0  0  0  0  0  # atno 6908 bound_to 6896
  150.6933  134.1639  159.4229 H   0  0  0  0  0  0  0  0  0  0  0  0  # atno 6909 bound_to 6896
  145.5026  140.9546  143.1751 H   0  0  0  0  0  0  0  0  0  0  0  0  # atno 7974 bound_to 7965
  154.3998  140.1417  156.3718 H   0  0  0  0  0  0  0  0  0  0  0  0  # atno 8008 bound_to 7997
  155.8086  140.3473  155.5423 H   0  0  0  0  0  0  0  0  0  0  0  0  # atno 8009 bound_to 7997
  155.8410  140.0927  157.1725 H   0  0  0  0  0  0  0  0  0  0  0  0  # atno 8010 bound_to 7997
  140.5176  144.0056  150.6401 H   0  0  0  0  0  0  0  0  0  0  0  0  # atno 10167 bound_to 10162
  156.4301  130.4443  149.7123 H   0  0  0  0  0  0  0  0  0  0  0  0  # atno 10718 bound_to 10713
  154.7144  135.3013  154.9147 H   0  0  0  0  0  0  0  0  0  0  0  0  # atno 10763 bound_to 10752
  154.0038  135.6703  153.4765 H   0  0  0  0  0  0  0  0  0  0  0  0  # atno 10764 bound_to 10752
  153.0781  135.5023  154.8361 H   0  0  0  0  0  0  0  0  0  0  0  0  # atno 10765 bound_to 10752
  139.8843  134.9428  156.5962 H   0  0  0  0  0  0  0  0  0  0  0  0  # atno 11005 bound_to 11000
  144.7771  139.6605  143.7170 LP  0  0  0  0  0  0  0  0  0  0  0  0  # atno 17320 bound_to 7965
  146.2216  139.5647  142.9614 LP  0  0  0  0  0  0  0  0  0  0  0  0  # atno 17321 bound_to 7965
  140.3396  143.3028  152.0602 LP  0  0  0  0  0  0  0  0  0  0  0  0  # atno 17342 bound_to 10162
  139.4914  144.6452  151.6793 LP  0  0  0  0  0  0  0  0  0  0  0  0  # atno 17343 bound_to 10162
  156.4029  130.7684  151.2692 LP  0  0  0  0  0  0  0  0  0  0  0  0  # atno 17370 bound_to 10713
  157.7508  131.0234  150.3834 LP  0  0  0  0  0  0  0  0  0  0  0  0  # atno 17371 bound_to 10713
  140.7918  133.8576  155.8652 LP  0  0  0  0  0  0  0  0  0  0  0  0  # atno 17394 bound_to 11000
  140.9670  134.1581  157.4607 LP  0  0  0  0  0  0  0  0  0  0  0  0  # atno 17395 bound_to 11000

$$$$
