AV-unprocessed.smi:1762|AV-procd|sdf|7124|dock1
  -GOLD-   22720 8363D 1   1.00000     0.00000
 Structure written by MMmdl.
 52 53  0  0  0  0  0  0  0  0  3 V2000
  142.0127  134.1997  162.6157 C   0  0  0  0  0  0  0  0  0  0  0  0
  142.2705  135.6707  162.9883 C   0  0  1  0  0  0  0  0  0  0  0  0
  143.7660  136.0442  163.0014 C   0  0  0  0  0  0  0  0  0  0  0  0
  144.3181  136.1445  161.6217 N   0  3  2  0  0  0  0  0  0  0  0  0
  145.7886  136.4394  161.5433 C   0  0  2  0  0  0  0  0  0  0  0  0
  146.2969  136.3079  160.0863 C   0  0  0  0  0  0  0  0  0  0  0  0
  146.1558  135.2262  159.5057 O   0  0  0  0  0  0  0  0  0  0  0  0
  146.8196  137.4822  159.6407 N   0  5  0  0  0  0  0  0  0  0  0  0
  147.7526  137.5970  158.5215 C   0  0  0  0  0  0  0  0  0  0  0  0
  149.0467  136.8043  158.8184 C   0  0  0  0  0  0  0  0  0  0  0  0
  150.3199  137.6425  158.9178 C   0  0  0  0  0  0  0  0  0  0  0  0
  150.3638  138.9491  158.3793 C   0  0  0  0  0  0  0  0  0  0  0  0
  151.5616  139.6820  158.4804 C   0  0  0  0  0  0  0  0  0  0  0  0
  152.6716  139.0841  159.1066 C   0  0  0  0  0  0  0  0  0  0  0  0
  152.5335  137.7735  159.6051 C   0  0  0  0  0  0  0  0  0  0  0  0
  151.3904  137.0609  159.5130 N   0  0  0  0  0  0  0  0  0  0  0  0
  146.6775  135.6058  162.5281 C   0  0  0  0  0  0  0  0  0  0  0  0
  148.0065  136.3058  162.8745 C   0  0  0  0  0  0  0  0  0  0  0  0
  146.9444  134.1533  162.0793 C   0  0  0  0  0  0  0  0  0  0  0  0
  143.4858  137.1048  160.8425 C   0  0  0  0  0  0  0  0  0  0  0  0
  142.0111  136.6714  160.8278 C   0  0  2  0  0  0  0  0  0  0  0  0
  141.1265  137.6784  160.0842 C   0  0  0  0  0  0  0  0  0  0  0  0
  141.5361  136.5743  162.1655 O   0  0  0  0  0  0  0  0  0  0  0  0
  142.4675  133.5313  163.3472 H   0  0  0  0  0  0  0  0  0  0  0  0
  142.4268  133.9398  161.6417 H   0  0  0  0  0  0  0  0  0  0  0  0
  140.9441  133.9848  162.5942 H   0  0  0  0  0  0  0  0  0  0  0  0
  141.8868  135.8091  163.9995 H   0  0  0  0  0  0  0  0  0  0  0  0
  143.9048  137.0003  163.5086 H   0  0  0  0  0  0  0  0  0  0  0  0
  144.2847  135.2942  163.5948 H   0  0  0  0  0  0  0  0  0  0  0  0
  145.8872  137.4800  161.8631 H   0  0  0  0  0  0  0  0  0  0  0  0
  147.3108  137.2362  157.5924 H   0  0  0  0  0  0  0  0  0  0  0  0
  148.0306  138.6346  158.3304 H   0  0  0  0  0  0  0  0  0  0  0  0
  148.9218  136.2660  159.7588 H   0  0  0  0  0  0  0  0  0  0  0  0
  149.1883  136.0343  158.0586 H   0  0  0  0  0  0  0  0  0  0  0  0
  149.4938  139.3822  157.9078 H   0  0  0  0  0  0  0  0  0  0  0  0
  151.6273  140.6845  158.0841 H   0  0  0  0  0  0  0  0  0  0  0  0
  153.6059  139.6170  159.2023 H   0  0  0  0  0  0  0  0  0  0  0  0
  153.3652  137.2835  160.0892 H   0  0  0  0  0  0  0  0  0  0  0  0
  146.1521  135.5562  163.4808 H   0  0  0  0  0  0  0  0  0  0  0  0
  148.6851  136.3414  162.0214 H   0  0  0  0  0  0  0  0  0  0  0  0
  148.5249  135.7831  163.6787 H   0  0  0  0  0  0  0  0  0  0  0  0
  147.8362  137.3306  163.2061 H   0  0  0  0  0  0  0  0  0  0  0  0
  147.5975  134.1123  161.2078 H   0  0  0  0  0  0  0  0  0  0  0  0
  146.0255  133.6248  161.8281 H   0  0  0  0  0  0  0  0  0  0  0  0
  147.4351  133.5895  162.8730 H   0  0  0  0  0  0  0  0  0  0  0  0
  143.5837  138.1020  161.2752 H   0  0  0  0  0  0  0  0  0  0  0  0
  143.8223  137.1794  159.8090 H   0  0  0  0  0  0  0  0  0  0  0  0
  141.9173  135.7071  160.3278 H   0  0  0  0  0  0  0  0  0  0  0  0
  141.4420  137.7862  159.0460 H   0  0  0  0  0  0  0  0  0  0  0  0
  141.1703  138.6631  160.5508 H   0  0  0  0  0  0  0  0  0  0  0  0
  140.0850  137.3561  160.0822 H   0  0  0  0  0  0  0  0  0  0  0  0
  144.1969  135.2382  161.1928 H   0  0  0  0  0  0  0  0  0  0  0  0
  1  2  1  0  0  0  0
  1 24  1  0  0  0  0
  1 25  1  0  0  0  0
  1 26  1  0  0  0  0
  2 23  1  0  0  0  0
  2  3  1  0  0  0  0
  2 27  1  0  0  0  0
  3  4  1  0  0  0  0
  3 28  1  0  0  0  0
  3 29  1  0  0  0  0
  4  5  1  0  0  0  0
  4 20  1  0  0  0  0
  4 52  1  0  0  0  0
  5  6  1  0  0  0  0
  5 17  1  0  0  0  0
  5 30  1  0  0  0  0
  6  7  2  0  0  0  0
  6  8  1  0  0  0  0
  8  9  1  0  0  0  0
  9 10  1  0  0  0  0
  9 31  1  0  0  0  0
  9 32  1  0  0  0  0
 10 11  1  0  0  0  0
 10 33  1  0  0  0  0
 10 34  1  0  0  0  0
 11 16  1  0  0  0  0
 11 12  2  0  0  0  0
 12 13  1  0  0  0  0
 12 35  1  0  0  0  0
 13 14  2  0  0  0  0
 13 36  1  0  0  0  0
 14 15  1  0  0  0  0
 14 37  1  0  0  0  0
 15 16  2  0  0  0  0
 15 38  1  0  0  0  0
 17 18  1  0  0  0  0
 17 19  1  0  0  0  0
 17 39  1  0  0  0  0
 18 40  1  0  0  0  0
 18 41  1  0  0  0  0
 18 42  1  0  0  0  0
 19 43  1  0  0  0  0
 19 44  1  0  0  0  0
 19 45  1  0  0  0  0
 20 21  1  0  0  0  0
 20 46  1  0  0  0  0
 20 47  1  0  0  0  0
 21 22  1  0  0  0  0
 21 23  1  0  0  0  0
 21 48  1  0  0  0  0
 22 49  1  0  0  0  0
 22 50  1  0  0  0  0
 22 51  1  0  0  0  0
M  CHG  1   4   1
M  CHG  1   8  -1
M  END
> <s_m_source_file>
AV-unprocessed.smi

> <i_m_source_file_index>
1762

> <i_lp_mmshare_version>
43012

> <i_f3d_flags>
0

> <s_epik_input>
W0NIM11bQ0BASF0xW0NIMl1OKFtDSDJdW0NASF0oTzEpW0NIM10pW0NAQEhdKFtDSF0oW0NIM10pW0NIM10pQyg9TylbTkhdW0NIMl1bQ0gyXWMyW2NIXVtjSF1bY0hdW2NIXW4y

> <s_epik_cmdline>
J2VwaWtfcHl0aG9uJywgJy1waCcsICc3LjAnLCAnLXRuJywgJzgnLCAnLW1hJywgJzIwMCcsICctbWV0YWxfYmluZGluZycsICctaW1hZScsICc8aW5maWxlLm1hZT4nLCAnLW9tYWUnLCAnPG91dGZpbGUubWFlPic=

> <r_epik_Ionization_Penalty>
7.82966

> <r_epik_Ionization_Penalty_Charging>
7.7461

> <r_epik_Ionization_Penalty_Neutral>
0.0835571

> <r_epik_State_Penalty>
8.52273

> <r_epik_Charging_Adjusted_Penalty>
16.2688

> <i_epik_Tot_Q>
0

> <i_epik_Tot_abs_Q>
2

> <r_epik_Metal_State_Penalty>
4.47451

> <b_epik_Metal_Only>
1

> <s_lp_Force_Field>
OPLS_2005

> <r_lp_Energy>
24.9826

> <b_lp_Chiralities_Consistent>
1

> <s_lp_Variant>
AV-unprocessed.smi:1762-26

> <Gold.Version>
5.8.1

> <Gold.Id.Protein>
6NUR|6NUR_protein|mol2

> <Gold.PLP.Fitness>
39.7626

> <Gold.PLP.PLP>
-32.9069

> <Gold.PLP.part.hbond>
-2.0000

> <Gold.PLP.part.metal>
0.0000

> <Gold.PLP.part.buried>
-6.2888

> <Gold.PLP.part.nonpolar>
-25.5197

> <Gold.PLP.part.repulsive>
0.0623

> <Gold.PLP.ligand.clash>
0.0000

> <Gold.PLP.ligand.torsion>
1.2242

> <Gold.PLP.Chemscore.Hbond>
2.9840

> <Gold.PLP.Chemscore.CHOScore>
0.0000

> <Gold.PLP.Chemscore.Metal>
0.0000

> <Gold.Chemscore.Hbonds>
donor molecule, donor type, donor heavy atom, donor atom, acceptor molecule, acceptor atom, score
      P1  H  6896  6907       L1    16  1.00
      P1  H  6934  6947       L1     8  1.95

> <Gold.PLP.Chemscore.Internal.Correction>
0.3521

> <Gold.Rescore>
     Score         DG    S(hbond)    S(metal)    S(lipo)     H(rot)  DE(clash)    DE(int)     intcor
     14.43     -16.52       1.66        0.00      82.07       1.60       0.01       2.08       ----

> <Gold.Chemscore.Fitness>
14.4290

> <Gold.Chemscore.DG>
-16.5235

> <Gold.Chemscore.ZeroCoef>
-5.4800

> <Gold.Chemscore.Hbond>
1.6586

> <Gold.Chemscore.Metal>
0.0000

> <Gold.Chemscore.Lipo>
82.0736

> <Gold.Chemscore.Internal_Hbond>
0.0000

> <Gold.Chemscore.DEClash>
0.0111

> <Gold.Chemscore.DEInternal>
2.0834

> <Gold.Chemscore.Rot>
1.6012

> <Gold.Chemscore.Internal.Correction>
   9.000000E+99

> <Gold.Chemscore.Hbonds>
donor molecule, donor type, donor heavy atom, donor atom, acceptor molecule, acceptor atom, score
      P1  H  6896  6907       L1    16  0.85
      P1  H  6934  6947       L1     8  0.56

> <Gold.Chemscore.Hbond.Weighted>
-5.5399

> <Gold.Chemscore.Metal.Weighted>
-0.0000

> <Gold.Chemscore.Lipo.Weighted>
-9.6026

> <Gold.Chemscore.Internal_Hbond.Weighted>
0.0000

> <Gold.Chemscore.DEClash.Weighted>
0.0111

> <Gold.Chemscore.DEInternal.Weighted>
2.0834

> <Gold.Chemscore.Rot.Weighted>
4.0990

> <Gold.Chemscore.Internal.Correction.Weighted>
   9.000000E+99

> <Gold.Protein.RotatedTorsions>
[ 6907 6896 6895 6894 ] final  -24.10 input  -60.11 | X-H torsion
[ 7974 7965 7964 7962 ] final  -43.96 input  175.53 | X-H torsion
[ 8008 7997 7996 7995 ] final -135.64 input   59.86 | X-H torsion
[ 10167 10162 10161 10158 ] final  165.96 input  -65.29 | X-H torsion
[ 10718 10713 10712 10709 ] final  -27.32 input   66.30 | X-H torsion
[ 10763 10752 10751 10750 ] final -131.45 input  -60.55 | X-H torsion
[ 11005 11000 10999 10996 ] final   95.60 input  -57.11 | X-H torsion

> <Gold.Protein.ActiveResidues>
 VAL166  LYS551  ARG553  GLY616  TRP617  ASP618  TYR619  PRO620  LYS621  CYS622 
 ASP623  PHE694  ASN695  SER759  ASP760  ASP761  ALA762  ILE779  LEU786  VAL792 
 PHE793  MET794  SER795  GLU796  ALA797  LYS798  CYS799  TRP800  GLU811  SER814 

> <Gold.Protein.RotatedAtoms>
  151.1944  135.0416  159.8845 H   0  0  0  0  0  0  0  0  0  0  0  0  # atno 6907 bound_to 6896
  152.5437  134.0920  159.8291 H   0  0  0  0  0  0  0  0  0  0  0  0  # atno 6908 bound_to 6896
  151.1052  133.5166  159.2640 H   0  0  0  0  0  0  0  0  0  0  0  0  # atno 6909 bound_to 6896
  145.9968  140.7120  142.9290 H   0  0  0  0  0  0  0  0  0  0  0  0  # atno 7974 bound_to 7965
  155.3820  140.0494  157.3043 H   0  0  0  0  0  0  0  0  0  0  0  0  # atno 8008 bound_to 7997
  154.5078  140.2180  155.9178 H   0  0  0  0  0  0  0  0  0  0  0  0  # atno 8009 bound_to 7997
  156.1546  140.3129  155.8710 H   0  0  0  0  0  0  0  0  0  0  0  0  # atno 8010 bound_to 7997
  139.4915  144.4078  151.9335 H   0  0  0  0  0  0  0  0  0  0  0  0  # atno 10167 bound_to 10162
  156.4397  130.4462  149.7061 H   0  0  0  0  0  0  0  0  0  0  0  0  # atno 10718 bound_to 10713
  154.8750  135.3830  154.4248 H   0  0  0  0  0  0  0  0  0  0  0  0  # atno 10763 bound_to 10752
  153.4948  135.7030  153.5869 H   0  0  0  0  0  0  0  0  0  0  0  0  # atno 10764 bound_to 10752
  153.4227  135.3897  155.2088 H   0  0  0  0  0  0  0  0  0  0  0  0  # atno 10765 bound_to 10752
  139.8788  134.8907  156.4035 H   0  0  0  0  0  0  0  0  0  0  0  0  # atno 11005 bound_to 11000
  144.6906  140.3164  143.7239 LP  0  0  0  0  0  0  0  0  0  0  0  0  # atno 17320 bound_to 7965
  145.7548  139.1805  143.2301 LP  0  0  0  0  0  0  0  0  0  0  0  0  # atno 17321 bound_to 7965
  140.3518  144.3079  150.5948 LP  0  0  0  0  0  0  0  0  0  0  0  0  # atno 17342 bound_to 10162
  140.5478  143.2211  151.7977 LP  0  0  0  0  0  0  0  0  0  0  0  0  # atno 17343 bound_to 10162
  156.3930  130.7637  151.2639 LP  0  0  0  0  0  0  0  0  0  0  0  0  # atno 17370 bound_to 10713
  157.7506  131.0262  150.3952 LP  0  0  0  0  0  0  0  0  0  0  0  0  # atno 17371 bound_to 10713
  140.9250  133.7618  155.9954 LP  0  0  0  0  0  0  0  0  0  0  0  0  # atno 17394 bound_to 11000
  140.8396  134.3082  157.5318 LP  0  0  0  0  0  0  0  0  0  0  0  0  # atno 17395 bound_to 11000

$$$$
