AV-unprocessed.smi:647|AV-procd|sdf|3169|dock3
  -GOLD-   22720 0 93D 1   1.00000     0.00000
 Structure written by MMmdl.
 46 48  0  0  0  0  0  0  0  0  1 V2000
  148.1337  132.7690  154.9225 O   0  0  0  0  0  0  0  0  0  0  0  0
  148.5651  133.6841  154.2194 C   0  0  0  0  0  0  0  0  0  0  0  0
  149.9185  134.3336  154.5287 C   0  0  0  0  0  0  0  0  0  0  0  0
  149.7917  135.7251  154.9544 N   0  0  0  0  0  0  0  0  0  0  0  0
  150.6714  136.3745  155.7316 C   0  0  0  0  0  0  0  0  0  0  0  0
  151.6995  135.8570  156.1698 O   0  0  0  0  0  0  0  0  0  0  0  0
  150.2814  137.6413  155.9569 N   0  0  0  0  0  0  0  0  0  0  0  0
  150.9534  138.6423  156.7068 C   0  0  0  0  0  0  0  0  0  0  0  0
  150.1299  139.6619  157.2285 C   0  0  0  0  0  0  0  0  0  0  0  0
  150.7320  140.6890  157.9748 C   0  0  0  0  0  0  0  0  0  0  0  0
  152.1270  140.6304  158.1507 C   0  0  0  0  0  0  0  0  0  0  0  0
  152.8804  141.6604  158.9334 C   0  0  0  0  0  0  0  0  0  0  0  0
  152.7245  141.7766  160.4338 C   0  0  0  0  0  0  0  0  0  0  0  0
  152.1681  142.8513  159.5332 C   0  0  0  0  0  0  0  0  0  0  0  0
  152.8726  139.6262  157.6385 N   0  0  0  0  0  0  0  0  0  0  0  0
  152.2937  138.6533  156.9270 N   0  0  0  0  0  0  0  0  0  0  0  0
  147.8964  134.1873  153.1708 N   0  0  0  0  0  0  0  0  0  0  0  0
  146.5951  133.7268  152.6973 C   0  0  0  0  0  0  0  0  0  0  0  0
  146.6244  132.2106  152.4098 C   0  0  0  0  0  0  0  0  0  0  0  0
  145.2867  131.7213  151.8322 C   0  0  0  0  0  0  0  0  0  0  0  0
  144.8994  132.5124  150.5729 C   0  0  0  0  0  0  0  0  0  0  0  0
  144.8617  134.0222  150.8573 C   0  0  0  0  0  0  0  0  0  0  0  0
  146.1994  134.5145  151.4336 C   0  0  0  0  0  0  0  0  0  0  0  0
  150.4521  133.7576  155.2874 H   0  0  0  0  0  0  0  0  0  0  0  0
  150.5300  134.3041  153.6268 H   0  0  0  0  0  0  0  0  0  0  0  0
  148.9694  136.2215  154.6443 H   0  0  0  0  0  0  0  0  0  0  0  0
  149.4112  137.9261  155.5328 H   0  0  0  0  0  0  0  0  0  0  0  0
  149.0627  139.6609  157.0608 H   0  0  0  0  0  0  0  0  0  0  0  0
  150.1440  141.4911  158.3954 H   0  0  0  0  0  0  0  0  0  0  0  0
  153.8727  141.8202  158.5158 H   0  0  0  0  0  0  0  0  0  0  0  0
  152.0072  141.1260  160.9304 H   0  0  0  0  0  0  0  0  0  0  0  0
  153.6051  142.0349  161.0183 H   0  0  0  0  0  0  0  0  0  0  0  0
  152.6868  143.8077  159.5302 H   0  0  0  0  0  0  0  0  0  0  0  0
  151.0860  142.9041  159.4271 H   0  0  0  0  0  0  0  0  0  0  0  0
  148.3278  134.9395  152.6532 H   0  0  0  0  0  0  0  0  0  0  0  0
  145.8478  133.9258  153.4680 H   0  0  0  0  0  0  0  0  0  0  0  0
  147.4265  131.9836  151.7056 H   0  0  0  0  0  0  0  0  0  0  0  0
  146.8504  131.6566  153.3216 H   0  0  0  0  0  0  0  0  0  0  0  0
  145.3498  130.6580  151.5983 H   0  0  0  0  0  0  0  0  0  0  0  0
  144.5044  131.8265  152.5851 H   0  0  0  0  0  0  0  0  0  0  0  0
  145.6170  132.3078  149.7771 H   0  0  0  0  0  0  0  0  0  0  0  0
  143.9281  132.1780  150.2070 H   0  0  0  0  0  0  0  0  0  0  0  0
  144.6289  134.5667  149.9418 H   0  0  0  0  0  0  0  0  0  0  0  0
  144.0576  134.2419  151.5609 H   0  0  0  0  0  0  0  0  0  0  0  0
  146.1307  135.5787  151.6622 H   0  0  0  0  0  0  0  0  0  0  0  0
  146.9770  134.4115  150.6751 H   0  0  0  0  0  0  0  0  0  0  0  0
  1  2  2  0  0  0  0
  2  3  1  0  0  0  0
  2 17  1  0  0  0  0
  3  4  1  0  0  0  0
  3 24  1  0  0  0  0
  3 25  1  0  0  0  0
  4  5  1  0  0  0  0
  4 26  1  0  0  0  0
  5  6  2  0  0  0  0
  5  7  1  0  0  0  0
  7  8  1  0  0  0  0
  7 27  1  0  0  0  0
  8 16  1  0  0  0  0
  8  9  2  0  0  0  0
  9 10  1  0  0  0  0
  9 28  1  0  0  0  0
 10 11  2  0  0  0  0
 10 29  1  0  0  0  0
 11 12  1  0  0  0  0
 11 15  1  0  0  0  0
 12 14  1  0  0  0  0
 12 13  1  0  0  0  0
 12 30  1  0  0  0  0
 13 14  1  0  0  0  0
 13 31  1  0  0  0  0
 13 32  1  0  0  0  0
 14 33  1  0  0  0  0
 14 34  1  0  0  0  0
 15 16  2  0  0  0  0
 17 18  1  0  0  0  0
 17 35  1  0  0  0  0
 18 23  1  0  0  0  0
 18 19  1  0  0  0  0
 18 36  1  0  0  0  0
 19 20  1  0  0  0  0
 19 37  1  0  0  0  0
 19 38  1  0  0  0  0
 20 21  1  0  0  0  0
 20 39  1  0  0  0  0
 20 40  1  0  0  0  0
 21 22  1  0  0  0  0
 21 41  1  0  0  0  0
 21 42  1  0  0  0  0
 22 23  1  0  0  0  0
 22 43  1  0  0  0  0
 22 44  1  0  0  0  0
 23 45  1  0  0  0  0
 23 46  1  0  0  0  0
M  END
> <s_m_source_file>
AV-unprocessed.smi

> <i_m_source_file_index>
647

> <i_lp_mmshare_version>
43012

> <i_f3d_flags>
0

> <s_epik_input>
W0NIMl0xW0NIMl1bQ0gyXVtDSDJdW0NIMl1bQ0hdMVtOSF1DKD1PKVtDSDJdW05IXUMoPU8pW05IXWMyW2NIXVtjSF1jKG5uMilbQ0hdM1tDSDJdW0NIMl0z

> <s_epik_cmdline>
J2VwaWtfcHl0aG9uJywgJy1waCcsICc3LjAnLCAnLXRuJywgJzgnLCAnLW1hJywgJzIwMCcsICctbWV0YWxfYmluZGluZycsICctaW1hZScsICc8aW5maWxlLm1hZT4nLCAnLW9tYWUnLCAnPG91dGZpbGUubWFlPic=

> <r_lp_tautomer_probability>
1

> <r_epik_Ionization_Penalty>
0.00779169

> <r_epik_Ionization_Penalty_Charging>
0

> <r_epik_Ionization_Penalty_Neutral>
0.00779169

> <r_epik_State_Penalty>
-0

> <r_epik_Charging_Adjusted_Penalty>
0

> <i_epik_Tot_Q>
0

> <i_epik_Tot_abs_Q>
0

> <r_epik_Metal_State_Penalty>
-0

> <b_epik_Metal_Only>
0

> <s_lp_Force_Field>
OPLS_2005

> <r_lp_Energy>
15.7946

> <b_lp_Chiralities_Consistent>
1

> <s_lp_Variant>
AV-unprocessed.smi:647-1

> <Gold.Version>
5.8.1

> <Gold.Id.Protein>
6NUR|6NUR_protein|mol2

> <Gold.PLP.Fitness>
44.1568

> <Gold.PLP.PLP>
-35.8995

> <Gold.PLP.part.hbond>
-3.4965

> <Gold.PLP.part.metal>
0.0000

> <Gold.PLP.part.buried>
-5.3854

> <Gold.PLP.part.nonpolar>
-26.8214

> <Gold.PLP.part.repulsive>
0.0979

> <Gold.PLP.ligand.clash>
0.0000

> <Gold.PLP.ligand.torsion>
0.4481

> <Gold.PLP.Chemscore.Hbond>
3.0000

> <Gold.PLP.Chemscore.CHOScore>
0.0000

> <Gold.PLP.Chemscore.Metal>
0.0000

> <Gold.Chemscore.Hbonds>
donor molecule, donor type, donor heavy atom, donor atom, acceptor molecule, acceptor atom, score
      L1  H    17    35       P1  7948  1.00
      P1  H  7997  8008       L1    15  1.00
      P1  H 10752 10765       L1     6  1.00

> <Gold.PLP.Chemscore.Internal.Correction>
0.1534

> <Gold.Rescore>
     Score         DG    S(hbond)    S(metal)    S(lipo)     H(rot)  DE(clash)    DE(int)     intcor
     18.43     -20.33       2.83        0.00      83.70       1.72       0.26       1.63       ----

> <Gold.Chemscore.Fitness>
18.4340

> <Gold.Chemscore.DG>
-20.3273

> <Gold.Chemscore.ZeroCoef>
-5.4800

> <Gold.Chemscore.Hbond>
2.8305

> <Gold.Chemscore.Metal>
0.0000

> <Gold.Chemscore.Lipo>
83.7026

> <Gold.Chemscore.Internal_Hbond>
0.0000

> <Gold.Chemscore.DEClash>
0.2639

> <Gold.Chemscore.DEInternal>
1.6294

> <Gold.Chemscore.Rot>
1.7187

> <Gold.Chemscore.Internal.Correction>
   9.000000E+99

> <Gold.Chemscore.Hbonds>
donor molecule, donor type, donor heavy atom, donor atom, acceptor molecule, acceptor atom, score
      L1  H    17    35       P1  7948  0.60
      P1  H  7997  8008       L1    15  0.42
      P1  H 10752 10765       L1     6  0.97

> <Gold.Chemscore.Hbond.Weighted>
-9.4540

> <Gold.Chemscore.Metal.Weighted>
-0.0000

> <Gold.Chemscore.Lipo.Weighted>
-9.7932

> <Gold.Chemscore.Internal_Hbond.Weighted>
0.0000

> <Gold.Chemscore.DEClash.Weighted>
0.2639

> <Gold.Chemscore.DEInternal.Weighted>
1.6294

> <Gold.Chemscore.Rot.Weighted>
4.4000

> <Gold.Chemscore.Internal.Correction.Weighted>
   9.000000E+99

> <Gold.Protein.RotatedTorsions>
[ 6907 6896 6895 6894 ] final   67.09 input  -60.11 | X-H torsion
[ 7974 7965 7964 7962 ] final  -66.62 input  175.53 | X-H torsion
[ 8008 7997 7996 7995 ] final  -58.28 input   59.86 | X-H torsion
[ 10167 10162 10161 10158 ] final -162.71 input  -65.29 | X-H torsion
[ 10718 10713 10712 10709 ] final  -10.14 input   66.30 | X-H torsion
[ 10763 10752 10751 10750 ] final -155.45 input  -60.55 | X-H torsion
[ 11005 11000 10999 10996 ] final  167.68 input  -57.11 | X-H torsion

> <Gold.Protein.ActiveResidues>
 VAL166  LYS551  ARG553  GLY616  TRP617  ASP618  TYR619  PRO620  LYS621  CYS622 
 ASP623  PHE694  ASN695  SER759  ASP760  ASP761  ALA762  ILE779  LEU786  VAL792 
 PHE793  MET794  SER795  GLU796  ALA797  LYS798  CYS799  TRP800  GLU811  SER814 

> <Gold.Protein.RotatedAtoms>
  152.4527  134.5358  159.9824 H   0  0  0  0  0  0  0  0  0  0  0  0  # atno 6907 bound_to 6896
  151.5427  133.3424  159.2946 H   0  0  0  0  0  0  0  0  0  0  0  0  # atno 6908 bound_to 6896
  150.8461  134.7802  159.7035 H   0  0  0  0  0  0  0  0  0  0  0  0  # atno 6909 bound_to 6896
  145.7394  140.8960  143.0538 H   0  0  0  0  0  0  0  0  0  0  0  0  # atno 7974 bound_to 7965
  154.4302  140.1087  156.5932 H   0  0  0  0  0  0  0  0  0  0  0  0  # atno 8008 bound_to 7997
  155.5989  140.3493  155.4569 H   0  0  0  0  0  0  0  0  0  0  0  0  # atno 8009 bound_to 7997
  156.0188  140.1235  157.0368 H   0  0  0  0  0  0  0  0  0  0  0  0  # atno 8010 bound_to 7997
  139.6373  144.0326  152.2064 H   0  0  0  0  0  0  0  0  0  0  0  0  # atno 10167 bound_to 10162
  156.6778  130.5028  149.5980 H   0  0  0  0  0  0  0  0  0  0  0  0  # atno 10718 bound_to 10713
  154.7786  135.3167  154.8039 H   0  0  0  0  0  0  0  0  0  0  0  0  # atno 10763 bound_to 10752
  153.8756  135.6840  153.4775 H   0  0  0  0  0  0  0  0  0  0  0  0  # atno 10764 bound_to 10752
  153.1416  135.4737  154.9440 H   0  0  0  0  0  0  0  0  0  0  0  0  # atno 10765 bound_to 10752
  140.2793  134.7763  157.3744 H   0  0  0  0  0  0  0  0  0  0  0  0  # atno 11005 bound_to 11000
  144.6874  139.9440  143.7476 LP  0  0  0  0  0  0  0  0  0  0  0  0  # atno 17320 bound_to 7965
  146.0462  139.3468  143.0667 LP  0  0  0  0  0  0  0  0  0  0  0  0  # atno 17321 bound_to 7965
  140.0007  144.6295  150.7732 LP  0  0  0  0  0  0  0  0  0  0  0  0  # atno 17342 bound_to 10162
  140.7472  143.2902  151.3351 LP  0  0  0  0  0  0  0  0  0  0  0  0  # atno 17343 bound_to 10162
  156.1890  130.6548  151.1040 LP  0  0  0  0  0  0  0  0  0  0  0  0  # atno 17370 bound_to 10713
  157.7054  131.0758  150.6683 LP  0  0  0  0  0  0  0  0  0  0  0  0  # atno 17371 bound_to 10713
  140.1298  134.5110  155.8114 LP  0  0  0  0  0  0  0  0  0  0  0  0  # atno 17394 bound_to 11000
  141.2165  133.6786  156.7019 LP  0  0  0  0  0  0  0  0  0  0  0  0  # atno 17395 bound_to 11000

$$$$
