AV-unprocessed.smi:2001|AV-procd|sdf|8104|dock4
  -GOLD-   2272010333D 1   1.00000     0.00000
 Structure written by MMmdl.
 50 51  0  0  0  0  0  0  0  0  1 V2000
  146.4967  138.1843  151.9393 C   0  0  0  0  0  0  0  0  0  0  0  0
  145.9911  137.2132  152.8385 O   0  0  0  0  0  0  0  0  0  0  0  0
  144.8835  136.5064  152.3068 C   0  0  0  0  0  0  0  0  0  0  0  0
  145.3507  135.6952  151.0891 C   0  0  0  0  0  0  0  0  0  0  0  0
  145.8237  134.3628  151.4782 N   0  0  0  0  0  0  0  0  0  0  0  0
  146.8015  134.3741  152.4591 N   0  0  0  0  0  0  0  0  0  0  0  0
  147.3007  133.2616  152.8922 C   0  0  0  0  0  0  0  0  0  0  0  0
  148.3467  133.2291  153.9518 C   0  0  0  0  0  0  0  0  0  0  0  0
  148.4025  132.3203  154.7820 O   0  0  0  0  0  0  0  0  0  0  0  0
  149.2149  134.2570  153.9382 N   0  0  0  0  0  0  0  0  0  0  0  0
  150.2996  134.4519  154.8925 C   0  0  0  0  0  0  0  0  0  0  0  0
  149.8913  135.4093  156.0282 C   0  0  0  0  0  0  0  0  0  0  0  0
  150.1868  136.8182  155.7758 N   0  0  0  0  0  0  0  0  0  0  0  0
  149.2573  137.4283  154.8276 C   0  0  0  0  0  0  0  0  0  0  0  0
  149.5838  138.9086  154.5423 C   0  0  1  0  0  0  0  0  0  0  0  0
  149.2108  139.8482  155.7018 C   0  0  0  0  0  0  0  0  0  0  0  0
  150.9540  139.0520  154.1639 O   0  0  0  0  0  0  0  0  0  0  0  0
  151.8971  138.4709  155.0626 C   0  0  2  0  0  0  0  0  0  0  0  0
  153.2975  138.6509  154.4676 C   0  0  0  0  0  0  0  0  0  0  0  0
  151.5468  136.9881  155.2808 C   0  0  0  0  0  0  0  0  0  0  0  0
  146.8518  131.9867  152.3580 C   0  0  0  0  0  0  0  0  0  0  0  0
  145.9022  131.9922  151.3971 C   0  0  0  0  0  0  0  0  0  0  0  0
  145.3214  133.2359  150.8892 C   0  0  0  0  0  0  0  0  0  0  0  0
  144.4607  133.2668  150.0102 O   0  0  0  0  0  0  0  0  0  0  0  0
  147.3440  138.6983  152.3931 H   0  0  0  0  0  0  0  0  0  0  0  0
  145.7395  138.9319  151.6996 H   0  0  0  0  0  0  0  0  0  0  0  0
  146.8400  137.7228  151.0125 H   0  0  0  0  0  0  0  0  0  0  0  0
  144.4655  135.8452  153.0676 H   0  0  0  0  0  0  0  0  0  0  0  0
  144.1008  137.2076  152.0126 H   0  0  0  0  0  0  0  0  0  0  0  0
  144.5280  135.6043  150.3775 H   0  0  0  0  0  0  0  0  0  0  0  0
  146.1349  136.2372  150.5572 H   0  0  0  0  0  0  0  0  0  0  0  0
  149.1026  134.9614  153.2231 H   0  0  0  0  0  0  0  0  0  0  0  0
  150.5616  133.4716  155.2889 H   0  0  0  0  0  0  0  0  0  0  0  0
  151.1846  134.8276  154.3762 H   0  0  0  0  0  0  0  0  0  0  0  0
  148.8167  135.3049  156.1841 H   0  0  0  0  0  0  0  0  0  0  0  0
  150.3597  135.0937  156.9618 H   0  0  0  0  0  0  0  0  0  0  0  0
  149.2855  136.8746  153.8879 H   0  0  0  0  0  0  0  0  0  0  0  0
  148.2340  137.3586  155.1944 H   0  0  0  0  0  0  0  0  0  0  0  0
  148.9947  139.2209  153.6795 H   0  0  0  0  0  0  0  0  0  0  0  0
  148.1401  139.8087  155.9030 H   0  0  0  0  0  0  0  0  0  0  0  0
  149.4636  140.8811  155.4622 H   0  0  0  0  0  0  0  0  0  0  0  0
  149.7247  139.5842  156.6258 H   0  0  0  0  0  0  0  0  0  0  0  0
  151.8608  138.9977  156.0166 H   0  0  0  0  0  0  0  0  0  0  0  0
  154.0594  138.2313  155.1249 H   0  0  0  0  0  0  0  0  0  0  0  0
  153.5274  139.7071  154.3249 H   0  0  0  0  0  0  0  0  0  0  0  0
  153.3812  138.1576  153.4990 H   0  0  0  0  0  0  0  0  0  0  0  0
  152.2535  136.5551  155.9897 H   0  0  0  0  0  0  0  0  0  0  0  0
  151.6696  136.4407  154.3448 H   0  0  0  0  0  0  0  0  0  0  0  0
  147.2631  131.0532  152.7139 H   0  0  0  0  0  0  0  0  0  0  0  0
  145.5600  131.0520  150.9900 H   0  0  0  0  0  0  0  0  0  0  0  0
  1  2  1  0  0  0  0
  1 25  1  0  0  0  0
  1 26  1  0  0  0  0
  1 27  1  0  0  0  0
  2  3  1  0  0  0  0
  3  4  1  0  0  0  0
  3 28  1  0  0  0  0
  3 29  1  0  0  0  0
  4  5  1  0  0  0  0
  4 30  1  0  0  0  0
  4 31  1  0  0  0  0
  5 23  1  0  0  0  0
  5  6  1  0  0  0  0
  6  7  2  0  0  0  0
  7  8  1  0  0  0  0
  7 21  1  0  0  0  0
  8  9  2  0  0  0  0
  8 10  1  0  0  0  0
 10 11  1  0  0  0  0
 10 32  1  0  0  0  0
 11 12  1  0  0  0  0
 11 33  1  0  0  0  0
 11 34  1  0  0  0  0
 12 13  1  0  0  0  0
 12 35  1  0  0  0  0
 12 36  1  0  0  0  0
 13 20  1  0  0  0  0
 13 14  1  0  0  0  0
 14 15  1  0  0  0  0
 14 37  1  0  0  0  0
 14 38  1  0  0  0  0
 15 16  1  0  0  0  0
 15 17  1  0  0  0  0
 15 39  1  0  0  0  0
 16 40  1  0  0  0  0
 16 41  1  0  0  0  0
 16 42  1  0  0  0  0
 17 18  1  0  0  0  0
 18 19  1  0  0  0  0
 18 20  1  0  0  0  0
 18 43  1  0  0  0  0
 19 44  1  0  0  0  0
 19 45  1  0  0  0  0
 19 46  1  0  0  0  0
 20 47  1  0  0  0  0
 20 48  1  0  0  0  0
 21 22  2  0  0  0  0
 21 49  1  0  0  0  0
 22 23  1  0  0  0  0
 22 50  1  0  0  0  0
 23 24  2  0  0  0  0
M  END
> <s_m_source_file>
AV-unprocessed.smi

> <i_m_source_file_index>
2001

> <i_lp_mmshare_version>
43012

> <i_f3d_flags>
0

> <s_epik_input>
W0NIM11PW0NIMl1bQ0gyXW4xbmMoW2NIXVtjSF1jMT1PKUMoPU8pW05IXVtDSDJdW0NIMl1OMltDSDJdW0NAQEhdKFtDSDNdKU9bQ0BASF0oW0NIM10pW0NIMl0y

> <s_epik_cmdline>
J2VwaWtfcHl0aG9uJywgJy1waCcsICc3LjAnLCAnLXRuJywgJzgnLCAnLW1hJywgJzIwMCcsICctbWV0YWxfYmluZGluZycsICctaW1hZScsICc8aW5maWxlLm1hZT4nLCAnLW9tYWUnLCAnPG91dGZpbGUubWFlPic=

> <r_lp_tautomer_probability>
1

> <r_epik_Ionization_Penalty>
0.206669

> <r_epik_Ionization_Penalty_Charging>
5.55992e-09

> <r_epik_Ionization_Penalty_Neutral>
0.206669

> <r_epik_State_Penalty>
0.196651

> <r_epik_Charging_Adjusted_Penalty>
0.196651

> <i_epik_Tot_Q>
0

> <i_epik_Tot_abs_Q>
0

> <r_epik_Metal_State_Penalty>
0.198372

> <b_epik_Metal_Only>
0

> <s_lp_Force_Field>
OPLS_2005

> <r_lp_Energy>
41.2012

> <b_lp_Chiralities_Consistent>
1

> <s_lp_Variant>
AV-unprocessed.smi:2001-3

> <Gold.Version>
5.8.1

> <Gold.Id.Protein>
6NUR|6NUR_protein|mol2

> <Gold.PLP.Fitness>
39.4154

> <Gold.PLP.PLP>
-35.4868

> <Gold.PLP.part.hbond>
-2.0000

> <Gold.PLP.part.metal>
0.0000

> <Gold.PLP.part.buried>
-3.5011

> <Gold.PLP.part.nonpolar>
-32.8248

> <Gold.PLP.part.repulsive>
2.6031

> <Gold.PLP.ligand.clash>
0.0000

> <Gold.PLP.ligand.torsion>
1.1458

> <Gold.PLP.Chemscore.Hbond>
2.0000

> <Gold.PLP.Chemscore.CHOScore>
0.0000

> <Gold.PLP.Chemscore.Metal>
0.0000

> <Gold.Chemscore.Hbonds>
donor molecule, donor type, donor heavy atom, donor atom, acceptor molecule, acceptor atom, score
      L1  H    10    32       P1  7948  0.80
      P1  H  7989  7998       L1    17  0.98

> <Gold.PLP.Chemscore.Internal.Correction>
0.2203

> <Gold.Rescore>
     Score         DG    S(hbond)    S(metal)    S(lipo)     H(rot)  DE(clash)    DE(int)     intcor
     10.38     -13.65       1.19        0.00      79.78       2.00       1.26       2.02       ----

> <Gold.Chemscore.Fitness>
10.3769

> <Gold.Chemscore.DG>
-13.6547

> <Gold.Chemscore.ZeroCoef>
-5.4800

> <Gold.Chemscore.Hbond>
1.1871

> <Gold.Chemscore.Metal>
0.0000

> <Gold.Chemscore.Lipo>
79.7845

> <Gold.Chemscore.Internal_Hbond>
0.0000

> <Gold.Chemscore.DEClash>
1.2551

> <Gold.Chemscore.DEInternal>
2.0227

> <Gold.Chemscore.Rot>
2.0020

> <Gold.Chemscore.Internal.Correction>
   9.000000E+99

> <Gold.Chemscore.Hbonds>
donor molecule, donor type, donor heavy atom, donor atom, acceptor molecule, acceptor atom, score
      L1  H    10    32       P1  7948  0.12
      P1  H  7989  7998       L1    17  0.67

> <Gold.Chemscore.Hbond.Weighted>
-3.9651

> <Gold.Chemscore.Metal.Weighted>
-0.0000

> <Gold.Chemscore.Lipo.Weighted>
-9.3348

> <Gold.Chemscore.Internal_Hbond.Weighted>
0.0000

> <Gold.Chemscore.DEClash.Weighted>
1.2551

> <Gold.Chemscore.DEInternal.Weighted>
2.0227

> <Gold.Chemscore.Rot.Weighted>
5.1252

> <Gold.Chemscore.Internal.Correction.Weighted>
   9.000000E+99

> <Gold.Protein.RotatedTorsions>
[ 6907 6896 6895 6894 ] final  -80.31 input  -60.11 | X-H torsion
[ 7974 7965 7964 7962 ] final -129.89 input  175.53 | X-H torsion
[ 8008 7997 7996 7995 ] final   33.33 input   59.86 | X-H torsion
[ 10167 10162 10161 10158 ] final  169.65 input  -65.29 | X-H torsion
[ 10718 10713 10712 10709 ] final  -27.82 input   66.30 | X-H torsion
[ 10763 10752 10751 10750 ] final   38.75 input  -60.55 | X-H torsion
[ 11005 11000 10999 10996 ] final  -77.50 input  -57.11 | X-H torsion

> <Gold.Protein.ActiveResidues>
 VAL166  LYS551  ARG553  GLY616  TRP617  ASP618  TYR619  PRO620  LYS621  CYS622 
 ASP623  PHE694  ASN695  SER759  ASP760  ASP761  ALA762  ILE779  LEU786  VAL792 
 PHE793  MET794  SER795  GLU796  ALA797  LYS798  CYS799  TRP800  GLU811  SER814 

> <Gold.Protein.RotatedAtoms>
  150.6932  134.3988  159.5109 H   0  0  0  0  0  0  0  0  0  0  0  0  # atno 6907 bound_to 6896
  152.1765  134.8787  160.0539 H   0  0  0  0  0  0  0  0  0  0  0  0  # atno 6908 bound_to 6896
  151.9794  133.3717  159.4138 H   0  0  0  0  0  0  0  0  0  0  0  0  # atno 6909 bound_to 6896
  144.9528  140.7363  143.4777 H   0  0  0  0  0  0  0  0  0  0  0  0  # atno 7974 bound_to 7965
  155.1370  140.3262  155.4461 H   0  0  0  0  0  0  0  0  0  0  0  0  # atno 8008 bound_to 7997
  156.2617  140.2000  156.6436 H   0  0  0  0  0  0  0  0  0  0  0  0  # atno 8009 bound_to 7997
  154.6571  140.0551  157.0007 H   0  0  0  0  0  0  0  0  0  0  0  0  # atno 8010 bound_to 7997
  139.4998  144.3683  151.9752 H   0  0  0  0  0  0  0  0  0  0  0  0  # atno 10167 bound_to 10162
  156.4332  130.4449  149.7103 H   0  0  0  0  0  0  0  0  0  0  0  0  # atno 10718 bound_to 10713
  152.9990  135.6240  154.2354 H   0  0  0  0  0  0  0  0  0  0  0  0  # atno 10763 bound_to 10752
  154.2095  135.2800  155.2965 H   0  0  0  0  0  0  0  0  0  0  0  0  # atno 10764 bound_to 10752
  154.5618  135.5703  153.7073 H   0  0  0  0  0  0  0  0  0  0  0  0  # atno 10765 bound_to 10752
  141.1660  133.7025  156.7829 H   0  0  0  0  0  0  0  0  0  0  0  0  # atno 11005 bound_to 11000
  145.2818  139.1915  143.4787 LP  0  0  0  0  0  0  0  0  0  0  0  0  # atno 17320 bound_to 7965
  146.3327  140.2781  142.8609 LP  0  0  0  0  0  0  0  0  0  0  0  0  # atno 17321 bound_to 7965
  140.3119  144.3528  150.6031 LP  0  0  0  0  0  0  0  0  0  0  0  0  # atno 17342 bound_to 10162
  140.5792  143.2174  151.7460 LP  0  0  0  0  0  0  0  0  0  0  0  0  # atno 17343 bound_to 10162
  156.3997  130.7669  151.2675 LP  0  0  0  0  0  0  0  0  0  0  0  0  # atno 17370 bound_to 10713
  157.7508  131.0243  150.3872 LP  0  0  0  0  0  0  0  0  0  0  0  0  # atno 17371 bound_to 10713
  140.2381  134.8634  157.3545 LP  0  0  0  0  0  0  0  0  0  0  0  0  # atno 17394 bound_to 11000
  140.1823  134.4474  155.7764 LP  0  0  0  0  0  0  0  0  0  0  0  0  # atno 17395 bound_to 11000

$$$$
