AV-unprocessed.smi:2500|AV-procd|sdf|9842|dock4
  -GOLD-   2272013463D 1   1.00000     0.00000
 Structure written by MMmdl.
 38 39  0  0  0  0  0  0  0  0  1 V2000
  149.2180  134.8063  154.5885 C   0  0  0  0  0  0  0  0  0  0  0  0
  149.0027  136.2209  154.3281 N   0  0  0  0  0  0  0  0  0  0  0  0
  148.8422  137.1547  155.2805 C   0  0  0  0  0  0  0  0  0  0  0  0
  148.8618  136.8941  156.4844 O   0  0  0  0  0  0  0  0  0  0  0  0
  148.6232  138.5646  154.7945 C   0  0  0  0  0  0  0  0  0  0  0  0
  147.8277  138.8048  153.6520 C   0  0  0  0  0  0  0  0  0  0  0  0
  147.6388  140.1317  153.2260 C   0  0  0  0  0  0  0  0  0  0  0  0
  148.2465  141.1725  153.9518 C   0  0  0  0  0  0  0  0  0  0  0  0
  149.0287  140.8597  155.0842 C   0  0  0  0  0  0  0  0  0  0  0  0
  149.5940  141.9748  155.7562 N   0  0  0  0  0  0  0  0  0  0  0  0
  150.6418  141.9953  156.6044 C   0  0  0  0  0  0  0  0  0  0  0  0
  151.3406  141.0206  156.8774 O   0  0  0  0  0  0  0  0  0  0  0  0
  150.8929  143.2025  157.1449 N   0  0  0  0  0  0  0  0  0  0  0  0
  151.9421  143.5806  158.0946 C   0  0  1  0  0  0  0  0  0  0  0  0
  151.7221  144.9997  158.6059 C   0  0  0  0  0  0  0  0  0  0  0  0
  151.8269  145.3540  159.8980 C   0  0  0  0  0  0  0  0  0  0  0  0
  152.1908  144.3828  161.0050 C   0  0  0  0  0  0  0  0  0  0  0  0
  152.7794  143.0721  160.4538 C   0  0  0  0  0  0  0  0  0  0  0  0
  151.9794  142.5550  159.2485 C   0  0  0  0  0  0  0  0  0  0  0  0
  149.2028  139.5769  155.4842 N   0  0  0  0  0  0  0  0  0  0  0  0
  149.3075  134.2649  153.6468 H   0  0  0  0  0  0  0  0  0  0  0  0
  148.3828  134.3827  155.1472 H   0  0  0  0  0  0  0  0  0  0  0  0
  150.1345  134.6520  155.1595 H   0  0  0  0  0  0  0  0  0  0  0  0
  148.9729  136.5189  153.3631 H   0  0  0  0  0  0  0  0  0  0  0  0
  147.3667  137.9945  153.1062 H   0  0  0  0  0  0  0  0  0  0  0  0
  147.0361  140.3481  152.3563 H   0  0  0  0  0  0  0  0  0  0  0  0
  148.1106  142.1978  153.6391 H   0  0  0  0  0  0  0  0  0  0  0  0
  149.1332  142.8583  155.5956 H   0  0  0  0  0  0  0  0  0  0  0  0
  150.2932  143.9564  156.8417 H   0  0  0  0  0  0  0  0  0  0  0  0
  152.9132  143.5632  157.5972 H   0  0  0  0  0  0  0  0  0  0  0  0
  151.4671  145.7515  157.8731 H   0  0  0  0  0  0  0  0  0  0  0  0
  151.6350  146.3759  160.1908 H   0  0  0  0  0  0  0  0  0  0  0  0
  152.9043  144.8561  161.6800 H   0  0  0  0  0  0  0  0  0  0  0  0
  151.2903  144.1786  161.5851 H   0  0  0  0  0  0  0  0  0  0  0  0
  153.8134  143.2390  160.1491 H   0  0  0  0  0  0  0  0  0  0  0  0
  152.8092  142.3178  161.2406 H   0  0  0  0  0  0  0  0  0  0  0  0
  150.9632  142.3332  159.5791 H   0  0  0  0  0  0  0  0  0  0  0  0
  152.3985  141.6121  158.8950 H   0  0  0  0  0  0  0  0  0  0  0  0
  1  2  1  0  0  0  0
  1 21  1  0  0  0  0
  1 22  1  0  0  0  0
  1 23  1  0  0  0  0
  2  3  1  0  0  0  0
  2 24  1  0  0  0  0
  3  4  2  0  0  0  0
  3  5  1  0  0  0  0
  5 20  1  0  0  0  0
  5  6  2  0  0  0  0
  6  7  1  0  0  0  0
  6 25  1  0  0  0  0
  7  8  2  0  0  0  0
  7 26  1  0  0  0  0
  8  9  1  0  0  0  0
  8 27  1  0  0  0  0
  9 10  1  0  0  0  0
  9 20  2  0  0  0  0
 10 11  1  0  0  0  0
 10 28  1  0  0  0  0
 11 12  2  0  0  0  0
 11 13  1  0  0  0  0
 13 14  1  0  0  0  0
 13 29  1  0  0  0  0
 14 19  1  0  0  0  0
 14 15  1  0  0  0  0
 14 30  1  0  0  0  0
 15 16  2  0  0  0  0
 15 31  1  0  0  0  0
 16 17  1  0  0  0  0
 16 32  1  0  0  0  0
 17 18  1  0  0  0  0
 17 33  1  0  0  0  0
 17 34  1  0  0  0  0
 18 19  1  0  0  0  0
 18 35  1  0  0  0  0
 18 36  1  0  0  0  0
 19 37  1  0  0  0  0
 19 38  1  0  0  0  0
M  END
> <s_m_source_file>
AV-unprocessed.smi

> <i_m_source_file_index>
2500

> <i_lp_mmshare_version>
43012

> <i_f3d_flags>
0

> <s_epik_input>
W0NIM11bTkhdQyg9TyljMVtjSF1bY0hdW2NIXWMobjEpW05IXUMoPU8pW05IXVtDQEBIXTJbQ0hdPVtDSF1bQ0gyXVtDSDJdW0NIMl0y

> <s_epik_cmdline>
J2VwaWtfcHl0aG9uJywgJy1waCcsICc3LjAnLCAnLXRuJywgJzgnLCAnLW1hJywgJzIwMCcsICctbWV0YWxfYmluZGluZycsICctaW1hZScsICc8aW5maWxlLm1hZT4nLCAnLW9tYWUnLCAnPG91dGZpbGUubWFlPic=

> <r_lp_tautomer_probability>
1

> <r_epik_Ionization_Penalty>
3.75371e-05

> <r_epik_Ionization_Penalty_Charging>
0

> <r_epik_Ionization_Penalty_Neutral>
3.75371e-05

> <r_epik_State_Penalty>
-0

> <r_epik_Charging_Adjusted_Penalty>
0

> <i_epik_Tot_Q>
0

> <i_epik_Tot_abs_Q>
0

> <r_epik_Metal_State_Penalty>
-0

> <b_epik_Metal_Only>
0

> <s_lp_Force_Field>
OPLS_2005

> <r_lp_Energy>
23.2344

> <b_lp_Chiralities_Consistent>
1

> <s_lp_Variant>
AV-unprocessed.smi:2500-2

> <Gold.Version>
5.8.1

> <Gold.Id.Protein>
6NUR|6NUR_protein|mol2

> <Gold.PLP.Fitness>
47.6477

> <Gold.PLP.PLP>
-40.2004

> <Gold.PLP.part.hbond>
-3.0000

> <Gold.PLP.part.metal>
0.0000

> <Gold.PLP.part.buried>
-3.9047

> <Gold.PLP.part.nonpolar>
-33.7780

> <Gold.PLP.part.repulsive>
0.1972

> <Gold.PLP.ligand.clash>
0.0000

> <Gold.PLP.ligand.torsion>
0.7803

> <Gold.PLP.Chemscore.Hbond>
3.0000

> <Gold.PLP.Chemscore.CHOScore>
0.0000

> <Gold.PLP.Chemscore.Metal>
0.0000

> <Gold.Chemscore.Hbonds>
donor molecule, donor type, donor heavy atom, donor atom, acceptor molecule, acceptor atom, score
      L1  H     2    24       P1  7948  0.96
      L1  H    10    28       P1  8028  1.00
      L1  H    13    29       P1  8028  1.00

> <Gold.PLP.Chemscore.Internal.Correction>
0.0080

> <Gold.Rescore>
     Score         DG    S(hbond)    S(metal)    S(lipo)     H(rot)  DE(clash)    DE(int)     intcor
     20.83     -24.11       2.88        0.00      98.80       1.00       0.07       3.22       ----

> <Gold.Chemscore.Fitness>
20.8265

> <Gold.Chemscore.DG>
-24.1107

> <Gold.Chemscore.ZeroCoef>
-5.4800

> <Gold.Chemscore.Hbond>
2.8837

> <Gold.Chemscore.Metal>
0.0000

> <Gold.Chemscore.Lipo>
98.7968

> <Gold.Chemscore.Internal_Hbond>
0.0000

> <Gold.Chemscore.DEClash>
0.0650

> <Gold.Chemscore.DEInternal>
3.2191

> <Gold.Chemscore.Rot>
1.0000

> <Gold.Chemscore.Internal.Correction>
   9.000000E+99

> <Gold.Chemscore.Hbonds>
donor molecule, donor type, donor heavy atom, donor atom, acceptor molecule, acceptor atom, score
      L1  H     2    24       P1  7948  0.88
      L1  H    10    28       P1  8028  0.99
      L1  H    13    29       P1  8028  0.94

> <Gold.Chemscore.Hbond.Weighted>
-9.6314

> <Gold.Chemscore.Metal.Weighted>
-0.0000

> <Gold.Chemscore.Lipo.Weighted>
-11.5592

> <Gold.Chemscore.Internal_Hbond.Weighted>
0.0000

> <Gold.Chemscore.DEClash.Weighted>
0.0650

> <Gold.Chemscore.DEInternal.Weighted>
3.2191

> <Gold.Chemscore.Rot.Weighted>
2.5600

> <Gold.Chemscore.Internal.Correction.Weighted>
   9.000000E+99

> <Gold.Protein.RotatedTorsions>
[ 6907 6896 6895 6894 ] final  152.60 input  -60.11 | X-H torsion
[ 7974 7965 7964 7962 ] final  -63.09 input  175.53 | X-H torsion
[ 8008 7997 7996 7995 ] final -120.55 input   59.86 | X-H torsion
[ 10167 10162 10161 10158 ] final -115.43 input  -65.29 | X-H torsion
[ 10718 10713 10712 10709 ] final  128.63 input   66.30 | X-H torsion
[ 10763 10752 10751 10750 ] final  -29.72 input  -60.55 | X-H torsion
[ 11005 11000 10999 10996 ] final  -39.16 input  -57.11 | X-H torsion

> <Gold.Protein.ActiveResidues>
 VAL166  LYS551  ARG553  GLY616  TRP617  ASP618  TYR619  PRO620  LYS621  CYS622 
 ASP623  PHE694  ASN695  SER759  ASP760  ASP761  ALA762  ILE779  LEU786  VAL792 
 PHE793  MET794  SER795  GLU796  ALA797  LYS798  CYS799  TRP800  GLU811  SER814 

> <Gold.Protein.RotatedAtoms>
  152.0845  133.4169  159.4515 H   0  0  0  0  0  0  0  0  0  0  0  0  # atno 6907 bound_to 6896
  150.6862  134.2944  159.4689 H   0  0  0  0  0  0  0  0  0  0  0  0  # atno 6908 bound_to 6896
  152.0789  134.9484  160.0624 H   0  0  0  0  0  0  0  0  0  0  0  0  # atno 6909 bound_to 6896
  145.7833  140.8750  143.0319 H   0  0  0  0  0  0  0  0  0  0  0  0  # atno 7974 bound_to 7965
  155.1336  140.0400  157.2781 H   0  0  0  0  0  0  0  0  0  0  0  0  # atno 8008 bound_to 7997
  154.6524  140.2572  155.7172 H   0  0  0  0  0  0  0  0  0  0  0  0  # atno 8009 bound_to 7997
  156.2583  140.2833  156.0964 H   0  0  0  0  0  0  0  0  0  0  0  0  # atno 8010 bound_to 7997
  140.0902  143.4707  152.1874 H   0  0  0  0  0  0  0  0  0  0  0  0  # atno 10167 bound_to 10162
  157.5227  131.1098  150.9129 H   0  0  0  0  0  0  0  0  0  0  0  0  # atno 10718 bound_to 10713
  153.7692  135.6913  153.4910 H   0  0  0  0  0  0  0  0  0  0  0  0  # atno 10763 bound_to 10752
  153.1886  135.4479  155.0119 H   0  0  0  0  0  0  0  0  0  0  0  0  # atno 10764 bound_to 10752
  154.8124  135.3383  154.7203 H   0  0  0  0  0  0  0  0  0  0  0  0  # atno 10765 bound_to 10752
  141.0081  133.6921  156.2150 H   0  0  0  0  0  0  0  0  0  0  0  0  # atno 11005 bound_to 11000
  144.6793  140.0020  143.7484 LP  0  0  0  0  0  0  0  0  0  0  0  0  # atno 17320 bound_to 7965
  146.0051  139.3123  143.0904 LP  0  0  0  0  0  0  0  0  0  0  0  0  # atno 17321 bound_to 7965
  139.5729  144.7472  151.3842 LP  0  0  0  0  0  0  0  0  0  0  0  0  # atno 17342 bound_to 10162
  140.7032  143.7578  150.7438 LP  0  0  0  0  0  0  0  0  0  0  0  0  # atno 17343 bound_to 10162
  156.9735  130.5500  149.5292 LP  0  0  0  0  0  0  0  0  0  0  0  0  # atno 17370 bound_to 10713
  156.0365  130.5452  150.8666 LP  0  0  0  0  0  0  0  0  0  0  0  0  # atno 17371 bound_to 10713
  140.6778  134.4799  157.5588 LP  0  0  0  0  0  0  0  0  0  0  0  0  # atno 17394 bound_to 11000
  139.9075  134.8418  156.1652 LP  0  0  0  0  0  0  0  0  0  0  0  0  # atno 17395 bound_to 11000

$$$$
