AV-unprocessed.smi:22|AV-procd|sdf|169|dock5
  -GOLD-   2262015423D 1   1.00000     0.00000
 Structure written by MMmdl.
 56 59  0  0  0  0  0  0  0  0  2 V2000
  143.9465  134.3394  151.5378 C   0  0  0  0  0  0  0  0  0  0  0  0
  144.6204  133.4696  150.5429 N   0  3  2  0  0  0  0  0  0  0  0  0
  143.6710  132.5825  149.8165 C   0  0  0  0  0  0  0  0  0  0  0  0
  143.6647  132.8539  148.3029 C   0  0  0  0  0  0  0  0  0  0  0  0
  143.4326  134.2254  148.0610 O   0  0  0  0  0  0  0  0  0  0  0  0
  145.8235  132.7881  151.1038 C   0  0  0  0  0  0  0  0  0  0  0  0
  145.4419  131.6028  152.0149 C   0  0  0  0  0  0  0  0  0  0  0  0
  146.6981  130.8852  152.5349 C   0  0  0  0  0  0  0  0  0  0  0  0
  147.6021  131.8292  153.1917 N   0  0  0  0  0  0  0  0  0  0  0  0
  148.5325  131.2589  153.9992 C   0  0  0  0  0  0  0  0  0  0  0  0
  149.2015  132.0194  154.9070 N   0  0  0  0  0  0  0  0  0  0  0  0
  150.1242  131.4678  155.7007 C   0  0  0  0  0  0  0  0  0  0  0  0
  150.5267  130.1968  155.7540 N   0  0  0  0  0  0  0  0  0  0  0  0
  149.8560  129.4268  154.8503 C   0  0  0  0  0  0  0  0  0  0  0  0
  148.8522  129.8726  153.9444 C   0  0  0  0  0  0  0  0  0  0  0  0
  148.3863  128.8015  153.1911 N   0  0  0  0  0  0  0  0  0  0  0  0
  149.0823  127.7838  153.6192 C   0  0  0  0  0  0  0  0  0  0  0  0
  149.9929  128.0706  154.6111 N   0  0  0  0  0  0  0  0  0  0  0  0
  150.8910  127.1314  155.2652 C   0  0  0  0  0  0  0  0  0  0  0  0
  152.3608  127.2661  154.8044 C   0  0  1  0  0  0  0  0  0  0  0  0
  152.5697  126.4264  153.6815 O   0  0  0  0  0  0  0  0  0  0  0  0
  152.7711  128.6875  154.4298 C   0  0  0  0  0  0  0  0  0  0  0  0
  154.2453  128.7248  154.8071 C   0  0  0  0  0  0  0  0  0  0  0  0
  154.2720  127.9882  156.0178 O   0  0  0  0  0  0  0  0  0  0  0  0
  153.3815  126.8836  155.8952 C   0  0  0  0  0  0  0  0  0  0  0  0
  148.0169  132.9673  152.3694 C   0  0  0  0  0  0  0  0  0  0  0  0
  146.7943  133.7376  151.8437 C   0  0  0  0  0  0  0  0  0  0  0  0
  143.5028  133.7508  152.3412 H   0  0  0  0  0  0  0  0  0  0  0  0
  143.1552  134.9297  151.0775 H   0  0  0  0  0  0  0  0  0  0  0  0
  144.6521  135.0426  151.9810 H   0  0  0  0  0  0  0  0  0  0  0  0
  143.9200  131.5328  149.9674 H   0  0  0  0  0  0  0  0  0  0  0  0
  142.6680  132.7133  150.2252 H   0  0  0  0  0  0  0  0  0  0  0  0
  144.6341  132.5927  147.8780 H   0  0  0  0  0  0  0  0  0  0  0  0
  142.9193  132.2561  147.7795 H   0  0  0  0  0  0  0  0  0  0  0  0
  144.2296  134.6132  147.7308 H   0  0  0  0  0  0  0  0  0  0  0  0
  146.3659  132.3552  150.2615 H   0  0  0  0  0  0  0  0  0  0  0  0
  144.8556  131.9391  152.8696 H   0  0  0  0  0  0  0  0  0  0  0  0
  144.8154  130.8955  151.4702 H   0  0  0  0  0  0  0  0  0  0  0  0
  146.4007  130.0805  153.2064 H   0  0  0  0  0  0  0  0  0  0  0  0
  147.2280  130.4159  151.7049 H   0  0  0  0  0  0  0  0  0  0  0  0
  150.6103  132.1413  156.3909 H   0  0  0  0  0  0  0  0  0  0  0  0
  148.9525  126.7889  153.2185 H   0  0  0  0  0  0  0  0  0  0  0  0
  150.8211  127.2870  156.3426 H   0  0  0  0  0  0  0  0  0  0  0  0
  150.5263  126.1201  155.0791 H   0  0  0  0  0  0  0  0  0  0  0  0
  152.2292  126.8621  152.9150 H   0  0  0  0  0  0  0  0  0  0  0  0
  152.5850  128.9414  153.3853 H   0  0  0  0  0  0  0  0  0  0  0  0
  152.2364  129.4101  155.0474 H   0  0  0  0  0  0  0  0  0  0  0  0
  154.8573  128.2233  154.0557 H   0  0  0  0  0  0  0  0  0  0  0  0
  154.6224  129.7388  154.9424 H   0  0  0  0  0  0  0  0  0  0  0  0
  152.9087  126.7006  156.8606 H   0  0  0  0  0  0  0  0  0  0  0  0
  153.9456  125.9865  155.6348 H   0  0  0  0  0  0  0  0  0  0  0  0
  148.6454  133.6424  152.9518 H   0  0  0  0  0  0  0  0  0  0  0  0
  148.6187  132.6067  151.5338 H   0  0  0  0  0  0  0  0  0  0  0  0
  147.1284  134.5385  151.1842 H   0  0  0  0  0  0  0  0  0  0  0  0
  146.2981  134.2169  152.6879 H   0  0  0  0  0  0  0  0  0  0  0  0
  144.9878  134.0974  149.8415 H   0  0  0  0  0  0  0  0  0  0  0  0
  1  2  1  0  0  0  0
  1 28  1  0  0  0  0
  1 29  1  0  0  0  0
  1 30  1  0  0  0  0
  2  3  1  0  0  0  0
  2  6  1  0  0  0  0
  2 56  1  0  0  0  0
  3  4  1  0  0  0  0
  3 31  1  0  0  0  0
  3 32  1  0  0  0  0
  4  5  1  0  0  0  0
  4 33  1  0  0  0  0
  4 34  1  0  0  0  0
  5 35  1  0  0  0  0
  6 27  1  0  0  0  0
  6  7  1  0  0  0  0
  6 36  1  0  0  0  0
  7  8  1  0  0  0  0
  7 37  1  0  0  0  0
  7 38  1  0  0  0  0
  8  9  1  0  0  0  0
  8 39  1  0  0  0  0
  8 40  1  0  0  0  0
  9 10  1  0  0  0  0
  9 26  1  0  0  0  0
 10 15  1  0  0  0  0
 10 11  2  0  0  0  0
 11 12  1  0  0  0  0
 12 13  2  0  0  0  0
 12 41  1  0  0  0  0
 13 14  1  0  0  0  0
 14 18  1  0  0  0  0
 14 15  2  0  0  0  0
 15 16  1  0  0  0  0
 16 17  2  0  0  0  0
 17 18  1  0  0  0  0
 17 42  1  0  0  0  0
 18 19  1  0  0  0  0
 19 20  1  0  0  0  0
 19 43  1  0  0  0  0
 19 44  1  0  0  0  0
 20 25  1  0  0  0  0
 20 21  1  0  0  0  0
 20 22  1  0  0  0  0
 21 45  1  0  0  0  0
 22 23  1  0  0  0  0
 22 46  1  0  0  0  0
 22 47  1  0  0  0  0
 23 24  1  0  0  0  0
 23 48  1  0  0  0  0
 23 49  1  0  0  0  0
 24 25  1  0  0  0  0
 25 50  1  0  0  0  0
 25 51  1  0  0  0  0
 26 27  1  0  0  0  0
 26 52  1  0  0  0  0
 26 53  1  0  0  0  0
 27 54  1  0  0  0  0
 27 55  1  0  0  0  0
M  CHG  1   2   1
M  END
> <s_m_source_file>
AV-unprocessed.smi

> <i_m_source_file_index>
22

> <i_lp_mmshare_version>
43012

> <i_f3d_flags>
0

> <s_epik_input>
W09IXVtDSDJdW0NIMl1OKFtDSDNdKVtDSF0xW0NIMl1bQ0gyXU4oW0NIMl1bQ0gyXTEpYyhuW2NIXW4yKWMoYzIzKW5bY0hdbjNbQ0gyXVtDQEBdNChbT0hdKVtDSDJdW0NIMl1PW0NIMl00

> <s_epik_cmdline>
J2VwaWtfcHl0aG9uJywgJy1waCcsICc3LjAnLCAnLXRuJywgJzgnLCAnLW1hJywgJzIwMCcsICctbWV0YWxfYmluZGluZycsICctaW1hZScsICc8aW5maWxlLm1hZT4nLCAnLW9tYWUnLCAnPG91dGZpbGUubWFlPic=

> <r_lp_tautomer_probability>
1

> <r_epik_Ionization_Penalty>
0.00317524

> <r_epik_Ionization_Penalty_Charging>
0.00191487

> <r_epik_Ionization_Penalty_Neutral>
0.00126037

> <r_epik_State_Penalty>
-0

> <r_epik_Charging_Adjusted_Penalty>
0.00191487

> <i_epik_Tot_Q>
1

> <i_epik_Tot_abs_Q>
1

> <r_epik_Metal_State_Penalty>
-0

> <b_epik_Metal_Only>
0

> <s_lp_Force_Field>
OPLS_2005

> <r_lp_Energy>
45.1339

> <b_lp_Chiralities_Consistent>
1

> <s_lp_Variant>
AV-unprocessed.smi:22-1

> <Gold.Version>
5.8.1

> <Gold.Id.Protein>
6NUR|6NUR_protein|mol2

> <Gold.PLP.Fitness>
51.1669

> <Gold.PLP.PLP>
-45.1801

> <Gold.PLP.part.hbond>
-4.7302

> <Gold.PLP.part.metal>
0.0000

> <Gold.PLP.part.buried>
-3.1489

> <Gold.PLP.part.nonpolar>
-36.7603

> <Gold.PLP.part.repulsive>
0.2691

> <Gold.PLP.ligand.clash>
0.0000

> <Gold.PLP.ligand.torsion>
1.7947

> <Gold.PLP.Chemscore.Hbond>
3.0000

> <Gold.PLP.Chemscore.CHOScore>
0.0000

> <Gold.PLP.Chemscore.Metal>
0.0000

> <Gold.Chemscore.Hbonds>
donor molecule, donor type, donor heavy atom, donor atom, acceptor molecule, acceptor atom, score
      L1  H     5    35       P1  7921  1.00
      L1  H    21    45       P1 10737  0.80
      P1  H 10192 10197       L1     5  1.00

> <Gold.PLP.Chemscore.Internal.Correction>
0.5762

> <Gold.Rescore>
     Score         DG    S(hbond)    S(metal)    S(lipo)     H(rot)  DE(clash)    DE(int)     intcor
     12.38     -16.00       2.82        0.00      91.70       3.76       0.44       3.18       ----

> <Gold.Chemscore.Fitness>
12.3818

> <Gold.Chemscore.DG>
-16.0012

> <Gold.Chemscore.ZeroCoef>
-5.4800

> <Gold.Chemscore.Hbond>
2.8184

> <Gold.Chemscore.Metal>
0.0000

> <Gold.Chemscore.Lipo>
91.7015

> <Gold.Chemscore.Internal_Hbond>
0.0000

> <Gold.Chemscore.DEClash>
0.4424

> <Gold.Chemscore.DEInternal>
3.1770

> <Gold.Chemscore.Rot>
3.7583

> <Gold.Chemscore.Internal.Correction>
   9.000000E+99

> <Gold.Chemscore.Hbonds>
donor molecule, donor type, donor heavy atom, donor atom, acceptor molecule, acceptor atom, score
      L1  H     5    35       P1  7921  0.98
      L1  H    21    45       P1 10737  0.78
      P1  H 10192 10197       L1     5  0.50

> <Gold.Chemscore.Hbond.Weighted>
-9.4134

> <Gold.Chemscore.Metal.Weighted>
-0.0000

> <Gold.Chemscore.Lipo.Weighted>
-10.7291

> <Gold.Chemscore.Internal_Hbond.Weighted>
0.0000

> <Gold.Chemscore.DEClash.Weighted>
0.4424

> <Gold.Chemscore.DEInternal.Weighted>
3.1770

> <Gold.Chemscore.Rot.Weighted>
9.6213

> <Gold.Chemscore.Internal.Correction.Weighted>
   9.000000E+99

> <Gold.Protein.RotatedTorsions>
[ 6907 6896 6895 6894 ] final -168.05 input  -60.11 | X-H torsion
[ 7974 7965 7964 7962 ] final   41.95 input  175.53 | X-H torsion
[ 8008 7997 7996 7995 ] final  -83.72 input   59.86 | X-H torsion
[ 10167 10162 10161 10158 ] final  -42.54 input  -65.29 | X-H torsion
[ 10718 10713 10712 10709 ] final -147.34 input   66.30 | X-H torsion
[ 10763 10752 10751 10750 ] final  -40.00 input  -60.55 | X-H torsion
[ 11005 11000 10999 10996 ] final  154.60 input  -57.11 | X-H torsion

> <Gold.Protein.ActiveResidues>
 VAL166  LYS551  ARG553  GLY616  TRP617  ASP618  TYR619  PRO620  LYS621  CYS622 
 ASP623  PHE694  ASN695  SER759  ASP760  ASP761  ALA762  ILE779  LEU786  VAL792 
 PHE793  MET794  SER795  GLU796  ALA797  LYS798  CYS799  TRP800  GLU811  SER814 

> <Gold.Protein.RotatedAtoms>
  151.4694  133.3573  159.2820 H   0  0  0  0  0  0  0  0  0  0  0  0  # atno 6907 bound_to 6896
  150.8971  134.8382  159.7345 H   0  0  0  0  0  0  0  0  0  0  0  0  # atno 6908 bound_to 6896
  152.4858  134.4610  159.9657 H   0  0  0  0  0  0  0  0  0  0  0  0  # atno 6909 bound_to 6896
  146.0781  139.5356  142.9554 H   0  0  0  0  0  0  0  0  0  0  0  0  # atno 7974 bound_to 7965
  154.6221  140.0615  156.9628 H   0  0  0  0  0  0  0  0  0  0  0  0  # atno 8008 bound_to 7997
  155.1800  140.3298  155.4358 H   0  0  0  0  0  0  0  0  0  0  0  0  # atno 8009 bound_to 7997
  156.2437  140.1899  156.6897 H   0  0  0  0  0  0  0  0  0  0  0  0  # atno 8010 bound_to 7997
  140.6966  143.3032  151.3223 H   0  0  0  0  0  0  0  0  0  0  0  0  # atno 10167 bound_to 10162
  156.4063  130.7959  151.2174 H   0  0  0  0  0  0  0  0  0  0  0  0  # atno 10718 bound_to 10713
  153.9387  135.6764  153.4744 H   0  0  0  0  0  0  0  0  0  0  0  0  # atno 10763 bound_to 10752
  153.0943  135.4859  154.8745 H   0  0  0  0  0  0  0  0  0  0  0  0  # atno 10764 bound_to 10752
  154.7389  135.3156  154.8721 H   0  0  0  0  0  0  0  0  0  0  0  0  # atno 10765 bound_to 10752
  140.1504  134.8679  157.2447 H   0  0  0  0  0  0  0  0  0  0  0  0  # atno 11005 bound_to 11000
  145.6269  141.0312  143.1884 LP  0  0  0  0  0  0  0  0  0  0  0  0  # atno 17320 bound_to 7965
  144.7275  139.7830  143.7359 LP  0  0  0  0  0  0  0  0  0  0  0  0  # atno 17321 bound_to 7965
  139.6428  144.0507  152.2568 LP  0  0  0  0  0  0  0  0  0  0  0  0  # atno 17342 bound_to 10162
  140.0018  144.6288  150.7723 LP  0  0  0  0  0  0  0  0  0  0  0  0  # atno 17343 bound_to 10162
  157.7505  131.0271  150.3991 LP  0  0  0  0  0  0  0  0  0  0  0  0  # atno 17370 bound_to 10713
  156.4281  130.3966  149.6779 LP  0  0  0  0  0  0  0  0  0  0  0  0  # atno 17371 bound_to 10713
  140.2612  134.3569  155.7406 LP  0  0  0  0  0  0  0  0  0  0  0  0  # atno 17394 bound_to 11000
  141.2198  133.7370  156.9082 LP  0  0  0  0  0  0  0  0  0  0  0  0  # atno 17395 bound_to 11000

$$$$
