AV-unprocessed.smi:1280|AV-procd|sdf|5358|dock6
  -GOLD-   22720 4493D 1   1.00000     0.00000
 Structure written by MMmdl.
 44 45  0  0  0  0  0  0  0  0  2 V2000
  147.4468  134.6073  160.1604 C   0  0  0  0  0  0  0  0  0  0  0  0
  147.9063  136.3423  159.7699 S   0  0  0  0  0  0  0  0  0  0  0  0
  147.0945  136.7192  158.6014 O   0  0  0  0  0  0  0  0  0  0  0  0
  147.6909  137.1022  161.0119 O   0  0  0  0  0  0  0  0  0  0  0  0
  149.4761  136.1614  159.4100 N   0  5  0  0  0  0  0  0  0  0  0  0
  150.1542  137.1999  158.6524 C   0  0  0  0  0  0  0  0  0  0  0  0
  151.3461  137.7608  159.4544 C   0  0  0  0  0  0  0  0  0  0  0  0
  152.3301  138.6357  158.6450 C   0  0  0  0  0  0  0  0  0  0  0  0
  151.9679  140.0466  158.7282 N   0  0  0  0  0  0  0  0  0  0  0  0
  152.7354  141.0148  159.2553 C   0  0  0  0  0  0  0  0  0  0  0  0
  153.8382  140.8118  159.7628 O   0  0  0  0  0  0  0  0  0  0  0  0
  152.1332  142.3947  159.2623 C   0  0  0  0  0  0  0  0  0  0  0  0
  152.7541  143.3969  160.0405 C   0  0  0  0  0  0  0  0  0  0  0  0
  152.2036  144.6902  160.0762 C   0  0  0  0  0  0  0  0  0  0  0  0
  151.0463  144.9404  159.3195 C   0  0  0  0  0  0  0  0  0  0  0  0
  150.4514  144.0049  158.5524 N   0  0  0  0  0  0  0  0  0  0  0  0
  150.9775  142.7551  158.5057 C   0  0  0  0  0  0  0  0  0  0  0  0
  150.3591  141.8454  157.6241 N   0  0  0  0  0  0  0  0  0  0  0  0
  148.9424  141.5693  157.8409 C   0  0  0  0  0  0  0  0  0  0  0  0
  148.4896  140.4180  156.9277 C   0  0  0  0  0  0  0  0  0  0  0  0
  148.7691  140.7520  155.5711 O   0  0  0  0  0  0  0  0  0  0  0  0
  150.1619  140.9475  155.3436 C   0  0  0  0  0  0  0  0  0  0  0  0
  150.6800  142.0981  156.2242 C   0  0  0  0  0  0  0  0  0  0  0  0
  146.3915  134.5661  160.4279 H   0  0  0  0  0  0  0  0  0  0  0  0
  148.0477  134.2518  160.9970 H   0  0  0  0  0  0  0  0  0  0  0  0
  147.6254  133.9783  159.2888 H   0  0  0  0  0  0  0  0  0  0  0  0
  150.5285  136.8135  157.7041 H   0  0  0  0  0  0  0  0  0  0  0  0
  149.4844  138.0205  158.3928 H   0  0  0  0  0  0  0  0  0  0  0  0
  150.9765  138.3162  160.3178 H   0  0  0  0  0  0  0  0  0  0  0  0
  151.9007  136.9147  159.8600 H   0  0  0  0  0  0  0  0  0  0  0  0
  153.3448  138.5399  159.0356 H   0  0  0  0  0  0  0  0  0  0  0  0
  152.3726  138.3301  157.5971 H   0  0  0  0  0  0  0  0  0  0  0  0
  151.0677  140.3085  158.3537 H   0  0  0  0  0  0  0  0  0  0  0  0
  153.6397  143.1773  160.6194 H   0  0  0  0  0  0  0  0  0  0  0  0
  152.6559  145.4692  160.6717 H   0  0  0  0  0  0  0  0  0  0  0  0
  150.5911  145.9197  159.3224 H   0  0  0  0  0  0  0  0  0  0  0  0
  148.7719  141.3095  158.8865 H   0  0  0  0  0  0  0  0  0  0  0  0
  148.3521  142.4611  157.6251 H   0  0  0  0  0  0  0  0  0  0  0  0
  148.9908  139.4866  157.1962 H   0  0  0  0  0  0  0  0  0  0  0  0
  147.4187  140.2489  157.0388 H   0  0  0  0  0  0  0  0  0  0  0  0
  150.7049  140.0250  155.5503 H   0  0  0  0  0  0  0  0  0  0  0  0
  150.3214  141.1796  154.2906 H   0  0  0  0  0  0  0  0  0  0  0  0
  150.2216  143.0391  155.9173 H   0  0  0  0  0  0  0  0  0  0  0  0
  151.7567  142.2088  156.0912 H   0  0  0  0  0  0  0  0  0  0  0  0
  1  2  1  0  0  0  0
  1 24  1  0  0  0  0
  1 25  1  0  0  0  0
  1 26  1  0  0  0  0
  2  3  2  0  0  0  0
  2  4  2  0  0  0  0
  2  5  1  0  0  0  0
  5  6  1  0  0  0  0
  6  7  1  0  0  0  0
  6 27  1  0  0  0  0
  6 28  1  0  0  0  0
  7  8  1  0  0  0  0
  7 29  1  0  0  0  0
  7 30  1  0  0  0  0
  8  9  1  0  0  0  0
  8 31  1  0  0  0  0
  8 32  1  0  0  0  0
  9 10  1  0  0  0  0
  9 33  1  0  0  0  0
 10 11  2  0  0  0  0
 10 12  1  0  0  0  0
 12 17  1  0  0  0  0
 12 13  2  0  0  0  0
 13 14  1  0  0  0  0
 13 34  1  0  0  0  0
 14 15  2  0  0  0  0
 14 35  1  0  0  0  0
 15 16  1  0  0  0  0
 15 36  1  0  0  0  0
 16 17  2  0  0  0  0
 17 18  1  0  0  0  0
 18 23  1  0  0  0  0
 18 19  1  0  0  0  0
 19 20  1  0  0  0  0
 19 37  1  0  0  0  0
 19 38  1  0  0  0  0
 20 21  1  0  0  0  0
 20 39  1  0  0  0  0
 20 40  1  0  0  0  0
 21 22  1  0  0  0  0
 22 23  1  0  0  0  0
 22 41  1  0  0  0  0
 22 42  1  0  0  0  0
 23 43  1  0  0  0  0
 23 44  1  0  0  0  0
M  CHG  1   5  -1
M  END
> <s_m_source_file>
AV-unprocessed.smi

> <i_m_source_file_index>
1280

> <i_lp_mmshare_version>
43012

> <i_f3d_flags>
0

> <s_epik_input>
W0NIM11TKD1PKSg9TylbTkhdW0NIMl1bQ0gyXVtDSDJdW05IXUMoPU8pYzFbY0hdW2NIXVtjSF1uYzFOMltDSDJdW0NIMl1PW0NIMl1bQ0gyXTI=

> <s_epik_cmdline>
J2VwaWtfcHl0aG9uJywgJy1waCcsICc3LjAnLCAnLXRuJywgJzgnLCAnLW1hJywgJzIwMCcsICctbWV0YWxfYmluZGluZycsICctaW1hZScsICc8aW5maWxlLm1hZT4nLCAnLW9tYWUnLCAnPG91dGZpbGUubWFlPic=

> <r_lp_tautomer_probability>
1

> <r_epik_Ionization_Penalty>
6.65739

> <r_epik_Ionization_Penalty_Charging>
6.65737

> <r_epik_Ionization_Penalty_Neutral>
1.70916e-05

> <r_epik_State_Penalty>
6.65736

> <r_epik_Charging_Adjusted_Penalty>
13.3147

> <i_epik_Tot_Q>
-1

> <i_epik_Tot_abs_Q>
1

> <r_epik_Metal_State_Penalty>
2.58004

> <b_epik_Metal_Only>
1

> <s_lp_Force_Field>
OPLS_2005

> <r_lp_Energy>
24.7135

> <b_lp_Chiralities_Consistent>
1

> <s_lp_Variant>
AV-unprocessed.smi:1280-2

> <Gold.Version>
5.8.1

> <Gold.Id.Protein>
6NUR|6NUR_protein|mol2

> <Gold.PLP.Fitness>
48.5387

> <Gold.PLP.PLP>
-38.1129

> <Gold.PLP.part.hbond>
-3.0000

> <Gold.PLP.part.metal>
0.0000

> <Gold.PLP.part.buried>
-6.5383

> <Gold.PLP.part.nonpolar>
-29.0074

> <Gold.PLP.part.repulsive>
0.4392

> <Gold.PLP.ligand.clash>
0.0000

> <Gold.PLP.ligand.torsion>
1.1645

> <Gold.PLP.Chemscore.Hbond>
3.8400

> <Gold.PLP.Chemscore.CHOScore>
0.0000

> <Gold.PLP.Chemscore.Metal>
0.0000

> <Gold.Chemscore.Hbonds>
donor molecule, donor type, donor heavy atom, donor atom, acceptor molecule, acceptor atom, score
      P1  H  6896  6909       L1     5  2.00
      P1  H  6931  6943       L1     4  0.93
      P1  H  6934  6947       L1     4  0.91

> <Gold.PLP.Chemscore.Internal.Correction>
1.2347

> <Gold.Rescore>
     Score         DG    S(hbond)    S(metal)    S(lipo)     H(rot)  DE(clash)    DE(int)     intcor
     15.13     -18.06       2.47        0.00      84.18       2.16       0.03       2.90       ----

> <Gold.Chemscore.Fitness>
15.1328

> <Gold.Chemscore.DG>
-18.0595

> <Gold.Chemscore.ZeroCoef>
-5.4800

> <Gold.Chemscore.Hbond>
2.4695

> <Gold.Chemscore.Metal>
0.0000

> <Gold.Chemscore.Lipo>
84.1793

> <Gold.Chemscore.Internal_Hbond>
0.0000

> <Gold.Chemscore.DEClash>
0.0313

> <Gold.Chemscore.DEInternal>
2.8953

> <Gold.Chemscore.Rot>
2.1554

> <Gold.Chemscore.Internal.Correction>
   9.000000E+99

> <Gold.Chemscore.Hbonds>
donor molecule, donor type, donor heavy atom, donor atom, acceptor molecule, acceptor atom, score
      P1  H  6896  6909       L1     5  0.67
      P1  H  6931  6943       L1     4  0.89
      P1  H  6934  6947       L1     4  0.84

> <Gold.Chemscore.Hbond.Weighted>
-8.2483

> <Gold.Chemscore.Metal.Weighted>
-0.0000

> <Gold.Chemscore.Lipo.Weighted>
-9.8490

> <Gold.Chemscore.Internal_Hbond.Weighted>
0.0000

> <Gold.Chemscore.DEClash.Weighted>
0.0313

> <Gold.Chemscore.DEInternal.Weighted>
2.8953

> <Gold.Chemscore.Rot.Weighted>
5.5178

> <Gold.Chemscore.Internal.Correction.Weighted>
   9.000000E+99

> <Gold.Protein.RotatedTorsions>
[ 6907 6896 6895 6894 ] final   51.08 input  -60.11 | X-H torsion
[ 7974 7965 7964 7962 ] final    9.53 input  175.53 | X-H torsion
[ 8008 7997 7996 7995 ] final  125.84 input   59.86 | X-H torsion
[ 10167 10162 10161 10158 ] final  -33.91 input  -65.29 | X-H torsion
[ 10718 10713 10712 10709 ] final  -13.69 input   66.30 | X-H torsion
[ 10763 10752 10751 10750 ] final   59.76 input  -60.55 | X-H torsion
[ 11005 11000 10999 10996 ] final   67.19 input  -57.11 | X-H torsion

> <Gold.Protein.ActiveResidues>
 VAL166  LYS551  ARG553  GLY616  TRP617  ASP618  TYR619  PRO620  LYS621  CYS622 
 ASP623  PHE694  ASN695  SER759  ASP760  ASP761  ALA762  ILE779  LEU786  VAL792 
 PHE793  MET794  SER795  GLU796  ALA797  LYS798  CYS799  TRP800  GLU811  SER814 

> <Gold.Protein.RotatedAtoms>
  152.3088  134.7522  160.0340 H   0  0  0  0  0  0  0  0  0  0  0  0  # atno 6907 bound_to 6896
  151.8010  133.3364  159.3535 H   0  0  0  0  0  0  0  0  0  0  0  0  # atno 6908 bound_to 6896
  150.7310  134.5684  159.5922 H   0  0  0  0  0  0  0  0  0  0  0  0  # atno 6909 bound_to 6896
  146.2402  139.9769  142.8440 H   0  0  0  0  0  0  0  0  0  0  0  0  # atno 7974 bound_to 7965
  156.2846  140.2707  156.2014 H   0  0  0  0  0  0  0  0  0  0  0  0  # atno 8008 bound_to 7997
  155.0357  140.0386  157.2509 H   0  0  0  0  0  0  0  0  0  0  0  0  # atno 8009 bound_to 7997
  154.7317  140.2708  155.6456 H   0  0  0  0  0  0  0  0  0  0  0  0  # atno 8010 bound_to 7997
  140.7196  143.3586  151.2009 H   0  0  0  0  0  0  0  0  0  0  0  0  # atno 10167 bound_to 10162
  156.6267  130.4890  149.6144 H   0  0  0  0  0  0  0  0  0  0  0  0  # atno 10718 bound_to 10713
  152.9903  135.5560  154.5764 H   0  0  0  0  0  0  0  0  0  0  0  0  # atno 10763 bound_to 10752
  154.5154  135.2804  155.1309 H   0  0  0  0  0  0  0  0  0  0  0  0  # atno 10764 bound_to 10752
  154.2684  135.6368  153.5354 H   0  0  0  0  0  0  0  0  0  0  0  0  # atno 10765 bound_to 10752
  139.9786  134.6781  156.0306 H   0  0  0  0  0  0  0  0  0  0  0  0  # atno 11005 bound_to 11000
  145.1628  140.9681  143.4367 LP  0  0  0  0  0  0  0  0  0  0  0  0  # atno 17320 bound_to 7965
  145.0100  139.3518  143.6125 LP  0  0  0  0  0  0  0  0  0  0  0  0  # atno 17321 bound_to 7965
  139.7133  143.9341  152.2956 LP  0  0  0  0  0  0  0  0  0  0  0  0  # atno 17342 bound_to 10162
  139.9074  144.6877  150.8599 LP  0  0  0  0  0  0  0  0  0  0  0  0  # atno 17343 bound_to 10162
  156.2268  130.6770  151.1424 LP  0  0  0  0  0  0  0  0  0  0  0  0  # atno 17370 bound_to 10713
  157.7212  131.0680  150.6127 LP  0  0  0  0  0  0  0  0  0  0  0  0  # atno 17371 bound_to 10713
  141.1460  133.6556  156.3870 LP  0  0  0  0  0  0  0  0  0  0  0  0  # atno 17394 bound_to 11000
  140.5143  134.6365  157.5296 LP  0  0  0  0  0  0  0  0  0  0  0  0  # atno 17395 bound_to 11000

$$$$
