AV-unprocessed.smi:2315|AV-procd|sdf|9268|dock4
  -GOLD-   2272012493D 1   1.00000     0.00000
 Structure written by MMmdl.
 40 41  0  0  0  0  0  0  0  0  1 V2000
  144.4411  136.5522  152.6688 O   0  0  0  0  0  0  0  0  0  0  0  0
  145.6565  136.4690  152.4924 C   0  0  0  0  0  0  0  0  0  0  0  0
  146.5324  137.3720  152.9563 N   0  0  0  0  0  0  0  0  0  0  0  0
  146.1815  138.5705  153.7104 C   0  0  0  0  0  0  0  0  0  0  0  0
  147.4137  139.1839  154.4073 C   0  0  0  0  0  0  0  0  0  0  0  0
  148.5833  138.1994  154.5843 C   0  0  0  0  0  0  0  0  0  0  0  0
  148.3356  137.0089  154.7836 O   0  0  0  0  0  0  0  0  0  0  0  0
  149.8533  138.6690  154.5121 N   0  0  0  0  0  0  0  0  0  0  0  0
  151.0718  137.8718  154.7117 C   0  0  0  0  0  0  0  0  0  0  0  0
  151.7179  138.2797  156.0484 C   0  0  0  0  0  0  0  0  0  0  0  0
  152.0077  139.7925  156.0787 C   0  0  0  0  0  0  0  0  0  0  0  0
  150.7701  140.6170  155.6772 C   0  0  0  0  0  0  0  0  0  0  0  0
  150.1628  140.0972  154.3607 C   0  0  0  0  0  0  0  0  0  0  0  0
  146.2846  135.4756  151.8398 N   0  0  0  0  0  0  0  0  0  0  0  0
  145.7292  134.3364  151.1944 C   0  0  0  0  0  0  0  0  0  0  0  0
  144.5063  134.3404  150.4802 C   0  0  0  0  0  0  0  0  0  0  0  0
  144.0768  133.1447  149.8696 C   0  0  0  0  0  0  0  0  0  0  0  0
  144.7736  131.9899  149.9226 N   0  0  0  0  0  0  0  0  0  0  0  0
  145.9445  131.9925  150.5936 C   0  0  0  0  0  0  0  0  0  0  0  0
  146.4648  133.1327  151.2381 C   0  0  0  0  0  0  0  0  0  0  0  0
  147.6507  133.0671  151.8906 F   0  0  0  0  0  0  0  0  0  0  0  0
  147.5137  137.2237  152.7705 H   0  0  0  0  0  0  0  0  0  0  0  0
  145.7502  139.2858  153.0091 H   0  0  0  0  0  0  0  0  0  0  0  0
  145.4013  138.3362  154.4373 H   0  0  0  0  0  0  0  0  0  0  0  0
  147.7644  140.0385  153.8272 H   0  0  0  0  0  0  0  0  0  0  0  0
  147.1208  139.5555  155.3900 H   0  0  0  0  0  0  0  0  0  0  0  0
  150.9028  136.7965  154.6941 H   0  0  0  0  0  0  0  0  0  0  0  0
  151.7638  138.0667  153.8910 H   0  0  0  0  0  0  0  0  0  0  0  0
  151.0508  138.0172  156.8707 H   0  0  0  0  0  0  0  0  0  0  0  0
  152.6403  137.7205  156.2066 H   0  0  0  0  0  0  0  0  0  0  0  0
  152.3557  140.0908  157.0680 H   0  0  0  0  0  0  0  0  0  0  0  0
  152.8213  140.0128  155.3863 H   0  0  0  0  0  0  0  0  0  0  0  0
  150.0215  140.5611  156.4688 H   0  0  0  0  0  0  0  0  0  0  0  0
  151.0389  141.6691  155.5786 H   0  0  0  0  0  0  0  0  0  0  0  0
  150.8718  140.2286  153.5421 H   0  0  0  0  0  0  0  0  0  0  0  0
  149.2905  140.6953  154.0944 H   0  0  0  0  0  0  0  0  0  0  0  0
  147.2935  135.5122  151.8460 H   0  0  0  0  0  0  0  0  0  0  0  0
  143.8999  135.2265  150.3767 H   0  0  0  0  0  0  0  0  0  0  0  0
  143.1489  133.1176  149.3178 H   0  0  0  0  0  0  0  0  0  0  0  0
  146.4851  131.0579  150.6158 H   0  0  0  0  0  0  0  0  0  0  0  0
  1  2  2  0  0  0  0
  2  3  1  0  0  0  0
  2 14  1  0  0  0  0
  3  4  1  0  0  0  0
  3 22  1  0  0  0  0
  4  5  1  0  0  0  0
  4 23  1  0  0  0  0
  4 24  1  0  0  0  0
  5  6  1  0  0  0  0
  5 25  1  0  0  0  0
  5 26  1  0  0  0  0
  6  7  2  0  0  0  0
  6  8  1  0  0  0  0
  8 13  1  0  0  0  0
  8  9  1  0  0  0  0
  9 10  1  0  0  0  0
  9 27  1  0  0  0  0
  9 28  1  0  0  0  0
 10 11  1  0  0  0  0
 10 29  1  0  0  0  0
 10 30  1  0  0  0  0
 11 12  1  0  0  0  0
 11 31  1  0  0  0  0
 11 32  1  0  0  0  0
 12 13  1  0  0  0  0
 12 33  1  0  0  0  0
 12 34  1  0  0  0  0
 13 35  1  0  0  0  0
 13 36  1  0  0  0  0
 14 15  1  0  0  0  0
 14 37  1  0  0  0  0
 15 20  1  0  0  0  0
 15 16  2  0  0  0  0
 16 17  1  0  0  0  0
 16 38  1  0  0  0  0
 17 18  2  0  0  0  0
 17 39  1  0  0  0  0
 18 19  1  0  0  0  0
 19 20  2  0  0  0  0
 19 40  1  0  0  0  0
 20 21  1  0  0  0  0
M  END
> <s_m_source_file>
AV-unprocessed.smi

> <i_m_source_file_index>
2315

> <i_lp_mmshare_version>
43012

> <i_f3d_flags>
0

> <s_epik_input>
RmMxW2NIXW5bY0hdW2NIXWMxW05IXUMoPU8pW05IXVtDSDJdW0NIMl1DKD1PKU4yW0NIMl1bQ0gyXVtDSDJdW0NIMl1bQ0gyXTI=

> <s_epik_cmdline>
J2VwaWtfcHl0aG9uJywgJy1waCcsICc3LjAnLCAnLXRuJywgJzgnLCAnLW1hJywgJzIwMCcsICctbWV0YWxfYmluZGluZycsICctaW1hZScsICc8aW5maWxlLm1hZT4nLCAnLW9tYWUnLCAnPG91dGZpbGUubWFlPic=

> <r_epik_Ionization_Penalty>
0.00291221

> <r_epik_Ionization_Penalty_Charging>
0

> <r_epik_Ionization_Penalty_Neutral>
0.00291221

> <r_epik_State_Penalty>
0.0020173

> <r_epik_Charging_Adjusted_Penalty>
0.0020173

> <i_epik_Tot_Q>
0

> <i_epik_Tot_abs_Q>
0

> <r_epik_Metal_State_Penalty>
-0

> <b_epik_Metal_Only>
0

> <s_lp_Force_Field>
OPLS_2005

> <r_lp_Energy>
31.5376

> <b_lp_Chiralities_Consistent>
1

> <s_lp_Variant>
AV-unprocessed.smi:2315-1

> <Gold.Version>
5.8.1

> <Gold.Id.Protein>
6NUR|6NUR_protein|mol2

> <Gold.PLP.Fitness>
42.3322

> <Gold.PLP.PLP>
-32.7989

> <Gold.PLP.part.hbond>
-2.0000

> <Gold.PLP.part.metal>
0.0000

> <Gold.PLP.part.buried>
-1.4489

> <Gold.PLP.part.nonpolar>
-30.9363

> <Gold.PLP.part.repulsive>
0.7376

> <Gold.PLP.ligand.clash>
0.1396

> <Gold.PLP.ligand.torsion>
0.9941

> <Gold.PLP.Chemscore.Hbond>
2.0000

> <Gold.PLP.Chemscore.CHOScore>
1.8797

> <Gold.PLP.Chemscore.Metal>
0.0000

> <Gold.Chemscore.Hbonds>
donor molecule, donor type, donor heavy atom, donor atom, acceptor molecule, acceptor atom, score
      L1  H     3    22       P1  7948  1.00
      L1  H    14    37       P1  7948  1.00
      L1  C    17    39       P1 10186  1.00
      L1  C    19    40       P1 10747  0.89

> <Gold.PLP.Chemscore.Internal.Correction>
0.0219

> <Gold.Rescore>
     Score         DG    S(hbond)    S(metal)    S(lipo)     H(rot)  DE(clash)    DE(int)     intcor
     13.78     -16.89       1.93        0.00      76.93       1.57       0.44       2.67       ----

> <Gold.Chemscore.Fitness>
13.7801

> <Gold.Chemscore.DG>
-16.8901

> <Gold.Chemscore.ZeroCoef>
-5.4800

> <Gold.Chemscore.Hbond>
1.9272

> <Gold.Chemscore.Metal>
0.0000

> <Gold.Chemscore.Lipo>
76.9261

> <Gold.Chemscore.Internal_Hbond>
0.0000

> <Gold.Chemscore.DEClash>
0.4355

> <Gold.Chemscore.DEInternal>
2.6745

> <Gold.Chemscore.Rot>
1.5731

> <Gold.Chemscore.Internal.Correction>
   9.000000E+99

> <Gold.Chemscore.Hbonds>
donor molecule, donor type, donor heavy atom, donor atom, acceptor molecule, acceptor atom, score
      L1  H     3    22       P1  7948  0.93
      L1  H    14    37       P1  7948  0.99

> <Gold.Chemscore.Hbond.Weighted>
-6.4368

> <Gold.Chemscore.Metal.Weighted>
-0.0000

> <Gold.Chemscore.Lipo.Weighted>
-9.0004

> <Gold.Chemscore.Internal_Hbond.Weighted>
0.0000

> <Gold.Chemscore.DEClash.Weighted>
0.4355

> <Gold.Chemscore.DEInternal.Weighted>
2.6745

> <Gold.Chemscore.Rot.Weighted>
4.0271

> <Gold.Chemscore.Internal.Correction.Weighted>
   9.000000E+99

> <Gold.Protein.RotatedTorsions>
[ 6907 6896 6895 6894 ] final  -85.65 input  -60.11 | X-H torsion
[ 7974 7965 7964 7962 ] final  -82.53 input  175.53 | X-H torsion
[ 8008 7997 7996 7995 ] final  178.12 input   59.86 | X-H torsion
[ 10167 10162 10161 10158 ] final  146.10 input  -65.29 | X-H torsion
[ 10718 10713 10712 10709 ] final    0.40 input   66.30 | X-H torsion
[ 10763 10752 10751 10750 ] final  109.52 input  -60.55 | X-H torsion
[ 11005 11000 10999 10996 ] final   72.22 input  -57.11 | X-H torsion

> <Gold.Protein.ActiveResidues>
 VAL166  LYS551  ARG553  GLY616  TRP617  ASP618  TYR619  PRO620  LYS621  CYS622 
 ASP623  PHE694  ASN695  SER759  ASP760  ASP761  ALA762  ILE779  LEU786  VAL792 
 PHE793  MET794  SER795  GLU796  ALA797  LYS798  CYS799  TRP800  GLU811  SER814 

> <Gold.Protein.RotatedAtoms>
  150.6869  134.3172  159.4770 H   0  0  0  0  0  0  0  0  0  0  0  0  # atno 6907 bound_to 6896
  152.1051  134.9311  160.0577 H   0  0  0  0  0  0  0  0  0  0  0  0  # atno 6908 bound_to 6896
  152.0576  133.4012  159.4440 H   0  0  0  0  0  0  0  0  0  0  0  0  # atno 6909 bound_to 6896
  145.5321  140.9520  143.1597 H   0  0  0  0  0  0  0  0  0  0  0  0  # atno 7974 bound_to 7965
  156.0582  140.1341  156.9972 H   0  0  0  0  0  0  0  0  0  0  0  0  # atno 8008 bound_to 7997
  154.4468  140.0997  156.6548 H   0  0  0  0  0  0  0  0  0  0  0  0  # atno 8009 bound_to 7997
  155.5419  140.3461  155.4451 H   0  0  0  0  0  0  0  0  0  0  0  0  # atno 8010 bound_to 7997
  139.4913  144.5853  151.6789 H   0  0  0  0  0  0  0  0  0  0  0  0  # atno 10167 bound_to 10162
  156.8328  130.5494  149.5685 H   0  0  0  0  0  0  0  0  0  0  0  0  # atno 10718 bound_to 10713
  153.4359  135.3777  155.2198 H   0  0  0  0  0  0  0  0  0  0  0  0  # atno 10763 bound_to 10752
  154.8752  135.3851  154.4212 H   0  0  0  0  0  0  0  0  0  0  0  0  # atno 10764 bound_to 10752
  153.4751  135.7087  153.6034 H   0  0  0  0  0  0  0  0  0  0  0  0  # atno 10765 bound_to 10752
  139.9502  134.7240  156.0881 H   0  0  0  0  0  0  0  0  0  0  0  0  # atno 11005 bound_to 11000
  144.7620  139.6933  143.7230 LP  0  0  0  0  0  0  0  0  0  0  0  0  # atno 17320 bound_to 7965
  146.2037  139.5348  142.9726 LP  0  0  0  0  0  0  0  0  0  0  0  0  # atno 17321 bound_to 7965
  140.5468  144.0489  150.6110 LP  0  0  0  0  0  0  0  0  0  0  0  0  # atno 17342 bound_to 10162
  140.3530  143.2952  152.0466 LP  0  0  0  0  0  0  0  0  0  0  0  0  # atno 17343 bound_to 10162
  156.0924  130.5906  150.9756 LP  0  0  0  0  0  0  0  0  0  0  0  0  # atno 17370 bound_to 10713
  157.6397  131.0912  150.8276 LP  0  0  0  0  0  0  0  0  0  0  0  0  # atno 17371 bound_to 10713
  141.1163  133.6627  156.3102 LP  0  0  0  0  0  0  0  0  0  0  0  0  # atno 17394 bound_to 11000
  140.5737  134.5815  157.5463 LP  0  0  0  0  0  0  0  0  0  0  0  0  # atno 17395 bound_to 11000

$$$$
