AV-unprocessed.smi:771|AV-procd|sdf|3681|dock6
  -GOLD-   22720 1 93D 1   1.00000     0.00000
 Structure written by MMmdl.
 41 42  0  0  0  0  0  0  0  0  3 V2000
  147.2023  137.5479  154.7766 O   0  0  0  0  0  0  0  0  0  0  0  0
  146.9047  138.0304  153.6829 C   0  0  0  0  0  0  0  0  0  0  0  0
  147.5266  139.3524  153.2107 C   0  0  0  0  0  0  0  0  0  0  0  0
  148.6151  139.8279  154.0814 N   0  0  0  0  0  0  0  0  0  0  0  0
  149.7449  138.9952  154.2066 C   0  0  0  0  0  0  0  0  0  0  0  0
  150.8029  139.3339  154.9689 C   0  0  0  0  0  0  0  0  0  0  0  0
  151.9577  138.4699  155.0806 N   0  3  0  0  0  0  0  0  0  0  0  0
  152.9891  138.9261  155.5635 O   0  0  0  0  0  0  0  0  0  0  0  0
  151.8729  137.3089  154.6912 O   0  5  0  0  0  0  0  0  0  0  0  0
  150.7482  140.6002  155.6737 C   0  0  0  0  0  0  0  0  0  0  0  0
  149.6724  141.4030  155.5542 C   0  0  0  0  0  0  0  0  0  0  0  0
  148.5248  141.0352  154.7187 C   0  0  0  0  0  0  0  0  0  0  0  0
  147.5426  141.7676  154.5992 O   0  0  0  0  0  0  0  0  0  0  0  0
  146.0163  137.4699  152.8476 N   0  0  0  0  0  0  0  0  0  0  0  0
  145.2928  136.2235  153.0876 C   0  0  0  0  0  0  0  0  0  0  0  0
  145.6149  135.1365  152.0338 C   0  0  2  0  0  0  0  0  0  0  0  0
  144.3397  134.6409  151.3101 C   0  0  0  0  0  0  0  0  0  0  0  0
  144.6392  133.5297  150.2926 C   0  0  0  0  0  0  0  0  0  0  0  0
  145.3600  132.3502  150.9571 C   0  0  0  0  0  0  0  0  0  0  0  0
  146.6466  132.8207  151.6472 C   0  0  0  0  0  0  0  0  0  0  0  0
  146.3621  133.9366  152.6701 C   0  0  1  0  0  0  0  0  0  0  0  0
  147.6025  134.3541  153.2048 O   0  0  0  0  0  0  0  0  0  0  0  0
  147.8847  139.2378  152.1856 H   0  0  0  0  0  0  0  0  0  0  0  0
  146.7325  140.0981  153.1527 H   0  0  0  0  0  0  0  0  0  0  0  0
  149.6912  138.0786  153.6370 H   0  0  0  0  0  0  0  0  0  0  0  0
  151.5689  140.9143  156.3018 H   0  0  0  0  0  0  0  0  0  0  0  0
  149.6529  142.3421  156.0877 H   0  0  0  0  0  0  0  0  0  0  0  0
  145.8301  137.9398  151.9736 H   0  0  0  0  0  0  0  0  0  0  0  0
  145.5839  135.8805  154.0806 H   0  0  0  0  0  0  0  0  0  0  0  0
  144.2162  136.3954  153.1356 H   0  0  0  0  0  0  0  0  0  0  0  0
  146.2699  135.5802  151.2820 H   0  0  0  0  0  0  0  0  0  0  0  0
  143.6209  134.2752  152.0446 H   0  0  0  0  0  0  0  0  0  0  0  0
  143.8521  135.4643  150.7885 H   0  0  0  0  0  0  0  0  0  0  0  0
  143.7111  133.1866  149.8344 H   0  0  0  0  0  0  0  0  0  0  0  0
  145.2543  133.9282  149.4848 H   0  0  0  0  0  0  0  0  0  0  0  0
  144.7006  131.8797  151.6877 H   0  0  0  0  0  0  0  0  0  0  0  0
  145.5934  131.5887  150.2124 H   0  0  0  0  0  0  0  0  0  0  0  0
  147.1279  131.9750  152.1403 H   0  0  0  0  0  0  0  0  0  0  0  0
  147.3484  133.1788  150.8924 H   0  0  0  0  0  0  0  0  0  0  0  0
  145.7639  133.5287  153.4862 H   0  0  0  0  0  0  0  0  0  0  0  0
  147.9646  135.0198  152.6404 H   0  0  0  0  0  0  0  0  0  0  0  0
  1  2  2  0  0  0  0
  2  3  1  0  0  0  0
  2 14  1  0  0  0  0
  3  4  1  0  0  0  0
  3 23  1  0  0  0  0
  3 24  1  0  0  0  0
  4 12  1  0  0  0  0
  4  5  1  0  0  0  0
  5  6  2  0  0  0  0
  5 25  1  0  0  0  0
  6  7  1  0  0  0  0
  6 10  1  0  0  0  0
  7  8  2  0  0  0  0
  7  9  1  0  0  0  0
 10 11  2  0  0  0  0
 10 26  1  0  0  0  0
 11 12  1  0  0  0  0
 11 27  1  0  0  0  0
 12 13  2  0  0  0  0
 14 15  1  0  0  0  0
 14 28  1  0  0  0  0
 15 16  1  0  0  0  0
 15 29  1  0  0  0  0
 15 30  1  0  0  0  0
 16 21  1  0  0  0  0
 16 17  1  0  0  0  0
 16 31  1  0  0  0  0
 17 18  1  0  0  0  0
 17 32  1  0  0  0  0
 17 33  1  0  0  0  0
 18 19  1  0  0  0  0
 18 34  1  0  0  0  0
 18 35  1  0  0  0  0
 19 20  1  0  0  0  0
 19 36  1  0  0  0  0
 19 37  1  0  0  0  0
 20 21  1  0  0  0  0
 20 38  1  0  0  0  0
 20 39  1  0  0  0  0
 21 22  1  0  0  0  0
 21 40  1  0  0  0  0
 22 41  1  0  0  0  0
M  CHG  1   7   1
M  CHG  1   9  -1
M  END
> <s_m_source_file>
AV-unprocessed.smi

> <i_m_source_file_index>
771

> <i_lp_mmshare_version>
43012

> <i_f3d_flags>
0

> <s_epik_input>
Tz1jMVtjSF1bY0hdYyhbTitdKD1PKVtPLV0pW2NIXW4xW0NIMl1DKD1PKVtOSF1bQ0gyXVtDQEBIXTJbQ0gyXVtDSDJdW0NIMl1bQ0gyXVtDQEhdMltPSF0=

> <s_epik_cmdline>
J2VwaWtfcHl0aG9uJywgJy1waCcsICc3LjAnLCAnLXRuJywgJzgnLCAnLW1hJywgJzIwMCcsICctbWV0YWxfYmluZGluZycsICctaW1hZScsICc8aW5maWxlLm1hZT4nLCAnLW9tYWUnLCAnPG91dGZpbGUubWFlPic=

> <r_lp_tautomer_probability>
1

> <r_epik_Ionization_Penalty>
3.77175e-07

> <r_epik_Ionization_Penalty_Charging>
7.70067e-11

> <r_epik_Ionization_Penalty_Neutral>
3.77098e-07

> <r_epik_State_Penalty>
-0

> <r_epik_Charging_Adjusted_Penalty>
7.70067e-11

> <i_epik_Tot_Q>
0

> <i_epik_Tot_abs_Q>
2

> <r_epik_Metal_State_Penalty>
-0

> <b_epik_Metal_Only>
0

> <s_lp_Force_Field>
OPLS_2005

> <r_lp_Energy>
23.4116

> <b_lp_Chiralities_Consistent>
1

> <s_lp_Variant>
AV-unprocessed.smi:771-1

> <Gold.Version>
5.8.1

> <Gold.Id.Protein>
6NUR|6NUR_protein|mol2

> <Gold.PLP.Fitness>
48.0593

> <Gold.PLP.PLP>
-37.9066

> <Gold.PLP.part.hbond>
-3.0000

> <Gold.PLP.part.metal>
0.0000

> <Gold.PLP.part.buried>
-2.5945

> <Gold.PLP.part.nonpolar>
-32.4741

> <Gold.PLP.part.repulsive>
0.3778

> <Gold.PLP.ligand.clash>
0.0000

> <Gold.PLP.ligand.torsion>
0.8922

> <Gold.PLP.Chemscore.Hbond>
3.0000

> <Gold.PLP.Chemscore.CHOScore>
0.9736

> <Gold.PLP.Chemscore.Metal>
0.0000

> <Gold.Chemscore.Hbonds>
donor molecule, donor type, donor heavy atom, donor atom, acceptor molecule, acceptor atom, score
      L1  H    22    41       P1  7948  1.00
      P1  H  7997  8009       L1     8  1.00
      P1  H 10752 10765       L1     9  0.90
      L1  C     5    25       P1  7948  0.75

> <Gold.PLP.Chemscore.Internal.Correction>
0.0163

> <Gold.Rescore>
     Score         DG    S(hbond)    S(metal)    S(lipo)     H(rot)  DE(clash)    DE(int)     intcor
     15.37     -17.24       2.88        0.00      72.57       2.48       0.01       1.85       ----

> <Gold.Chemscore.Fitness>
15.3725

> <Gold.Chemscore.DG>
-17.2377

> <Gold.Chemscore.ZeroCoef>
-5.4800

> <Gold.Chemscore.Hbond>
2.8753

> <Gold.Chemscore.Metal>
0.0000

> <Gold.Chemscore.Lipo>
72.5745

> <Gold.Chemscore.Internal_Hbond>
0.0000

> <Gold.Chemscore.DEClash>
0.0136

> <Gold.Chemscore.DEInternal>
1.8517

> <Gold.Chemscore.Rot>
2.4753

> <Gold.Chemscore.Internal.Correction>
   9.000000E+99

> <Gold.Chemscore.Hbonds>
donor molecule, donor type, donor heavy atom, donor atom, acceptor molecule, acceptor atom, score
      L1  H    22    41       P1  7948  0.93
      P1  H  7997  8009       L1     8  0.99
      P1  H 10752 10765       L1     9  0.84

> <Gold.Chemscore.Hbond.Weighted>
-9.6034

> <Gold.Chemscore.Metal.Weighted>
-0.0000

> <Gold.Chemscore.Lipo.Weighted>
-8.4912

> <Gold.Chemscore.Internal_Hbond.Weighted>
0.0000

> <Gold.Chemscore.DEClash.Weighted>
0.0136

> <Gold.Chemscore.DEInternal.Weighted>
1.8517

> <Gold.Chemscore.Rot.Weighted>
6.3369

> <Gold.Chemscore.Internal.Correction.Weighted>
   9.000000E+99

> <Gold.Protein.RotatedTorsions>
[ 6907 6896 6895 6894 ] final  135.26 input  -60.11 | X-H torsion
[ 7974 7965 7964 7962 ] final -176.40 input  175.53 | X-H torsion
[ 8008 7997 7996 7995 ] final -143.52 input   59.86 | X-H torsion
[ 10167 10162 10161 10158 ] final  150.11 input  -65.29 | X-H torsion
[ 10718 10713 10712 10709 ] final   50.06 input   66.30 | X-H torsion
[ 10763 10752 10751 10750 ] final  156.16 input  -60.55 | X-H torsion
[ 11005 11000 10999 10996 ] final  -52.74 input  -57.11 | X-H torsion

> <Gold.Protein.ActiveResidues>
 VAL166  LYS551  ARG553  GLY616  TRP617  ASP618  TYR619  PRO620  LYS621  CYS622 
 ASP623  PHE694  ASN695  SER759  ASP760  ASP761  ALA762  ILE779  LEU786  VAL792 
 PHE793  MET794  SER795  GLU796  ALA797  LYS798  CYS799  TRP800  GLU811  SER814 

> <Gold.Protein.RotatedAtoms>
  152.3023  133.5668  159.5626 H   0  0  0  0  0  0  0  0  0  0  0  0  # atno 6907 bound_to 6896
  150.7283  134.0273  159.3730 H   0  0  0  0  0  0  0  0  0  0  0  0  # atno 6908 bound_to 6896
  151.8172  135.0663  160.0471 H   0  0  0  0  0  0  0  0  0  0  0  0  # atno 6909 bound_to 6896
  144.7127  140.1175  143.6407 H   0  0  0  0  0  0  0  0  0  0  0  0  # atno 7974 bound_to 7965
  155.5119  140.0584  157.2922 H   0  0  0  0  0  0  0  0  0  0  0  0  # atno 8008 bound_to 7997
  154.4549  140.1967  156.0358 H   0  0  0  0  0  0  0  0  0  0  0  0  # atno 8009 bound_to 7997
  156.0778  140.3251  155.7660 H   0  0  0  0  0  0  0  0  0  0  0  0  # atno 8010 bound_to 7997
  139.4854  144.5548  151.7336 H   0  0  0  0  0  0  0  0  0  0  0  0  # atno 10167 bound_to 10162
  157.4847  130.8338  149.8133 H   0  0  0  0  0  0  0  0  0  0  0  0  # atno 10718 bound_to 10713
  154.1799  135.2800  155.3055 H   0  0  0  0  0  0  0  0  0  0  0  0  # atno 10763 bound_to 10752
  154.6010  135.5529  153.7378 H   0  0  0  0  0  0  0  0  0  0  0  0  # atno 10764 bound_to 10752
  153.0141  135.6392  154.1938 H   0  0  0  0  0  0  0  0  0  0  0  0  # atno 10765 bound_to 10752
  141.0940  133.6627  156.4069 H   0  0  0  0  0  0  0  0  0  0  0  0  # atno 11005 bound_to 11000
  145.9400  139.2663  143.1274 LP  0  0  0  0  0  0  0  0  0  0  0  0  # atno 17320 bound_to 7965
  145.9433  140.8963  143.0296 LP  0  0  0  0  0  0  0  0  0  0  0  0  # atno 17321 bound_to 7965
  140.5108  144.1027  150.5995 LP  0  0  0  0  0  0  0  0  0  0  0  0  # atno 17342 bound_to 10162
  140.3952  143.2731  152.0013 LP  0  0  0  0  0  0  0  0  0  0  0  0  # atno 17343 bound_to 10162
  156.0140  130.3821  150.2170 LP  0  0  0  0  0  0  0  0  0  0  0  0  # atno 17370 bound_to 10713
  157.0357  131.0020  151.3299 LP  0  0  0  0  0  0  0  0  0  0  0  0  # atno 17371 bound_to 10713
  140.5184  134.6327  157.5309 LP  0  0  0  0  0  0  0  0  0  0  0  0  # atno 17394 bound_to 11000
  139.9772  134.7196  155.9927 LP  0  0  0  0  0  0  0  0  0  0  0  0  # atno 17395 bound_to 11000

$$$$
