AV-unprocessed.smi:1704|AV-procd|sdf|6881|dock2
  -GOLD-   22720 8 83D 1   1.00000     0.00000
 Structure written by MMmdl.
 41 43  0  0  0  0  0  0  0  0  1 V2000
  151.8555  144.2565  160.6892 C   0  0  0  0  0  0  0  0  0  0  0  0
  152.0716  143.0422  159.8799 N   0  0  0  0  0  0  0  0  0  0  0  0
  151.3881  142.9210  158.6984 C   0  0  0  0  0  0  0  0  0  0  0  0
  150.5807  143.7443  158.2662 O   0  0  0  0  0  0  0  0  0  0  0  0
  151.6966  141.6932  157.9572 C   0  0  0  0  0  0  0  0  0  0  0  0
  152.5485  140.7478  158.4231 C   0  0  0  0  0  0  0  0  0  0  0  0
  152.6535  139.6790  157.5410 N   0  0  0  0  0  0  0  0  0  0  0  0
  151.8356  140.0523  156.5565 C   0  0  0  0  0  0  0  0  0  0  0  0
  151.2332  141.2489  156.7183 N   0  0  0  0  0  0  0  0  0  0  0  0
  150.3058  141.8777  155.7845 C   0  0  0  0  0  0  0  0  0  0  0  0
  149.3671  140.8878  155.0453 C   0  0  0  0  0  0  0  0  0  0  0  0
  150.1356  140.1883  154.0833 O   0  0  0  0  0  0  0  0  0  0  0  0
  148.7368  139.8441  156.0020 C   0  0  0  0  0  0  0  0  0  0  0  0
  147.6856  138.9523  155.3161 C   0  0  0  0  0  0  0  0  0  0  0  0
  146.6006  139.7895  154.6255 C   0  0  0  0  0  0  0  0  0  0  0  0
  147.2221  140.7702  153.6223 C   0  0  0  0  0  0  0  0  0  0  0  0
  148.2653  141.6770  154.2992 C   0  0  0  0  0  0  0  0  0  0  0  0
  153.1821  140.9581  159.6729 N   0  0  0  0  0  0  0  0  0  0  0  0
  154.0886  139.9087  160.1486 C   0  0  0  0  0  0  0  0  0  0  0  0
  152.9600  142.1096  160.3888 C   0  0  0  0  0  0  0  0  0  0  0  0
  153.5387  142.3057  161.4609 O   0  0  0  0  0  0  0  0  0  0  0  0
  151.1431  144.9682  160.2705 H   0  0  0  0  0  0  0  0  0  0  0  0
  152.7938  144.7984  160.8175 H   0  0  0  0  0  0  0  0  0  0  0  0
  151.4821  143.9931  161.6801 H   0  0  0  0  0  0  0  0  0  0  0  0
  151.6750  139.4388  155.6822 H   0  0  0  0  0  0  0  0  0  0  0  0
  149.7047  142.5920  156.3488 H   0  0  0  0  0  0  0  0  0  0  0  0
  150.8721  142.4779  155.0731 H   0  0  0  0  0  0  0  0  0  0  0  0
  149.6377  140.1377  153.2819 H   0  0  0  0  0  0  0  0  0  0  0  0
  149.5070  139.2079  156.4392 H   0  0  0  0  0  0  0  0  0  0  0  0
  148.2632  140.3638  156.8358 H   0  0  0  0  0  0  0  0  0  0  0  0
  148.1703  138.3061  154.5834 H   0  0  0  0  0  0  0  0  0  0  0  0
  147.2285  138.2895  156.0514 H   0  0  0  0  0  0  0  0  0  0  0  0
  145.8931  139.1346  154.1161 H   0  0  0  0  0  0  0  0  0  0  0  0
  146.0298  140.3407  155.3737 H   0  0  0  0  0  0  0  0  0  0  0  0
  147.6860  140.2155  152.8060 H   0  0  0  0  0  0  0  0  0  0  0  0
  146.4403  141.3815  153.1706 H   0  0  0  0  0  0  0  0  0  0  0  0
  147.7494  142.3283  155.0063 H   0  0  0  0  0  0  0  0  0  0  0  0
  148.7137  142.3371  153.5554 H   0  0  0  0  0  0  0  0  0  0  0  0
  154.5003  140.0853  161.1427 H   0  0  0  0  0  0  0  0  0  0  0  0
  154.9279  139.8033  159.4604 H   0  0  0  0  0  0  0  0  0  0  0  0
  153.5646  138.9529  160.1847 H   0  0  0  0  0  0  0  0  0  0  0  0
  1  2  1  0  0  0  0
  1 22  1  0  0  0  0
  1 23  1  0  0  0  0
  1 24  1  0  0  0  0
  2 20  1  0  0  0  0
  2  3  1  0  0  0  0
  3  4  2  0  0  0  0
  3  5  1  0  0  0  0
  5  9  1  0  0  0  0
  5  6  2  0  0  0  0
  6  7  1  0  0  0  0
  6 18  1  0  0  0  0
  7  8  2  0  0  0  0
  8  9  1  0  0  0  0
  8 25  1  0  0  0  0
  9 10  1  0  0  0  0
 10 11  1  0  0  0  0
 10 26  1  0  0  0  0
 10 27  1  0  0  0  0
 11 17  1  0  0  0  0
 11 12  1  0  0  0  0
 11 13  1  0  0  0  0
 12 28  1  0  0  0  0
 13 14  1  0  0  0  0
 13 29  1  0  0  0  0
 13 30  1  0  0  0  0
 14 15  1  0  0  0  0
 14 31  1  0  0  0  0
 14 32  1  0  0  0  0
 15 16  1  0  0  0  0
 15 33  1  0  0  0  0
 15 34  1  0  0  0  0
 16 17  1  0  0  0  0
 16 35  1  0  0  0  0
 16 36  1  0  0  0  0
 17 37  1  0  0  0  0
 17 38  1  0  0  0  0
 18 19  1  0  0  0  0
 18 20  1  0  0  0  0
 19 39  1  0  0  0  0
 19 40  1  0  0  0  0
 19 41  1  0  0  0  0
 20 21  2  0  0  0  0
M  END
> <s_m_source_file>
AV-unprocessed.smi

> <i_m_source_file_index>
1704

> <i_lp_mmshare_version>
43012

> <i_f3d_flags>
0

> <s_epik_input>
Tz1jMW4oW0NIM10pYyg9TyluKFtDSDNdKWMoYzEyKW5bY0hdbjJbQ0gyXUMzKFtPSF0pW0NIMl1bQ0gyXVtDSDJdW0NIMl1bQ0gyXTM=

> <s_epik_cmdline>
J2VwaWtfcHl0aG9uJywgJy1waCcsICc3LjAnLCAnLXRuJywgJzgnLCAnLW1hJywgJzIwMCcsICctbWV0YWxfYmluZGluZycsICctaW1hZScsICc8aW5maWxlLm1hZT4nLCAnLW9tYWUnLCAnPG91dGZpbGUubWFlPic=

> <r_lp_tautomer_probability>
1

> <r_epik_Ionization_Penalty>
6.70257e-06

> <r_epik_Ionization_Penalty_Charging>
6.65152e-09

> <r_epik_Ionization_Penalty_Neutral>
6.69592e-06

> <r_epik_State_Penalty>
-0

> <r_epik_Charging_Adjusted_Penalty>
6.65152e-09

> <i_epik_Tot_Q>
0

> <i_epik_Tot_abs_Q>
0

> <r_epik_Metal_State_Penalty>
-0

> <b_epik_Metal_Only>
0

> <s_lp_Force_Field>
OPLS_2005

> <r_lp_Energy>
39.0788

> <b_lp_Chiralities_Consistent>
1

> <s_lp_Variant>
AV-unprocessed.smi:1704-1

> <Gold.Version>
5.8.1

> <Gold.Id.Protein>
6NUR|6NUR_protein|mol2

> <Gold.PLP.Fitness>
49.0872

> <Gold.PLP.PLP>
-41.2421

> <Gold.PLP.part.hbond>
-2.9511

> <Gold.PLP.part.metal>
0.0000

> <Gold.PLP.part.buried>
-5.4908

> <Gold.PLP.part.nonpolar>
-33.2459

> <Gold.PLP.part.repulsive>
0.1922

> <Gold.PLP.ligand.clash>
0.0000

> <Gold.PLP.ligand.torsion>
0.4584

> <Gold.PLP.Chemscore.Hbond>
2.9193

> <Gold.PLP.Chemscore.CHOScore>
0.0000

> <Gold.PLP.Chemscore.Metal>
0.0000

> <Gold.Chemscore.Hbonds>
donor molecule, donor type, donor heavy atom, donor atom, acceptor molecule, acceptor atom, score
      L1  H    12    28       P1  7957  0.75
      P1  H  7989  7998       L1    12  0.93
      P1  H  7997  8008       L1     7  0.95

> <Gold.PLP.Chemscore.Internal.Correction>
0.0041

> <Gold.Rescore>
     Score         DG    S(hbond)    S(metal)    S(lipo)     H(rot)  DE(clash)    DE(int)     intcor
     13.86     -14.83       1.96        0.00      64.08       1.84       0.46       0.50       ----

> <Gold.Chemscore.Fitness>
13.8616

> <Gold.Chemscore.DG>
-14.8269

> <Gold.Chemscore.ZeroCoef>
-5.4800

> <Gold.Chemscore.Hbond>
1.9633

> <Gold.Chemscore.Metal>
0.0000

> <Gold.Chemscore.Lipo>
64.0780

> <Gold.Chemscore.Internal_Hbond>
0.0000

> <Gold.Chemscore.DEClash>
0.4611

> <Gold.Chemscore.DEInternal>
0.5041

> <Gold.Chemscore.Rot>
1.8389

> <Gold.Chemscore.Internal.Correction>
   9.000000E+99

> <Gold.Chemscore.Hbonds>
donor molecule, donor type, donor heavy atom, donor atom, acceptor molecule, acceptor atom, score
      L1  H    12    28       P1  7957  0.72
      P1  H  7989  7998       L1    12  0.22
      P1  H  7997  8008       L1     7  0.08

> <Gold.Chemscore.Hbond.Weighted>
-6.5573

> <Gold.Chemscore.Metal.Weighted>
-0.0000

> <Gold.Chemscore.Lipo.Weighted>
-7.4971

> <Gold.Chemscore.Internal_Hbond.Weighted>
0.0000

> <Gold.Chemscore.DEClash.Weighted>
0.4611

> <Gold.Chemscore.DEInternal.Weighted>
0.5041

> <Gold.Chemscore.Rot.Weighted>
4.7076

> <Gold.Chemscore.Internal.Correction.Weighted>
   9.000000E+99

> <Gold.Protein.RotatedTorsions>
[ 6907 6896 6895 6894 ] final  130.62 input  -60.11 | X-H torsion
[ 7974 7965 7964 7962 ] final  -30.10 input  175.53 | X-H torsion
[ 8008 7997 7996 7995 ] final  -70.25 input   59.86 | X-H torsion
[ 10167 10162 10161 10158 ] final  -23.93 input  -65.29 | X-H torsion
[ 10718 10713 10712 10709 ] final -173.52 input   66.30 | X-H torsion
[ 10763 10752 10751 10750 ] final   -7.76 input  -60.55 | X-H torsion
[ 11005 11000 10999 10996 ] final  -19.76 input  -57.11 | X-H torsion

> <Gold.Protein.ActiveResidues>
 VAL166  LYS551  ARG553  GLY616  TRP617  ASP618  TYR619  PRO620  LYS621  CYS622 
 ASP623  PHE694  ASN695  SER759  ASP760  ASP761  ALA762  ILE779  LEU786  VAL792 
 PHE793  MET794  SER795  GLU796  ALA797  LYS798  CYS799  TRP800  GLU811  SER814 

> <Gold.Protein.RotatedAtoms>
  152.3508  133.6178  159.5943 H   0  0  0  0  0  0  0  0  0  0  0  0  # atno 6907 bound_to 6896
  150.7537  133.9576  159.3514 H   0  0  0  0  0  0  0  0  0  0  0  0  # atno 6908 bound_to 6896
  151.7428  135.0851  160.0369 H   0  0  0  0  0  0  0  0  0  0  0  0  # atno 6909 bound_to 6896
  146.1168  140.5497  142.8753 H   0  0  0  0  0  0  0  0  0  0  0  0  # atno 7974 bound_to 7965
  154.4998  140.0838  156.7774 H   0  0  0  0  0  0  0  0  0  0  0  0  # atno 8008 bound_to 7997
  155.4030  140.3438  155.4240 H   0  0  0  0  0  0  0  0  0  0  0  0  # atno 8009 bound_to 7997
  156.1441  140.1538  156.8861 H   0  0  0  0  0  0  0  0  0  0  0  0  # atno 8010 bound_to 7997
  140.7288  143.4399  151.0673 H   0  0  0  0  0  0  0  0  0  0  0  0  # atno 10167 bound_to 10162
  156.7716  130.9450  151.3120 H   0  0  0  0  0  0  0  0  0  0  0  0  # atno 10718 bound_to 10713
  153.4308  135.7012  153.6232 H   0  0  0  0  0  0  0  0  0  0  0  0  # atno 10763 bound_to 10752
  153.4647  135.3728  155.2358 H   0  0  0  0  0  0  0  0  0  0  0  0  # atno 10764 bound_to 10752
  154.8725  135.4028  154.3692 H   0  0  0  0  0  0  0  0  0  0  0  0  # atno 10765 bound_to 10752
  140.8399  133.7934  155.9849 H   0  0  0  0  0  0  0  0  0  0  0  0  # atno 11005 bound_to 11000
  144.7560  140.5308  143.6769 LP  0  0  0  0  0  0  0  0  0  0  0  0  # atno 17320 bound_to 7965
  145.5551  139.1477  143.3373 LP  0  0  0  0  0  0  0  0  0  0  0  0  # atno 17321 bound_to 7965
  139.8064  143.8011  152.3167 LP  0  0  0  0  0  0  0  0  0  0  0  0  # atno 17342 bound_to 10162
  139.8046  144.7360  150.9779 LP  0  0  0  0  0  0  0  0  0  0  0  0  # atno 17343 bound_to 10162
  157.6688  130.9032  149.9993 LP  0  0  0  0  0  0  0  0  0  0  0  0  # atno 17370 bound_to 10713
  156.1274  130.3644  149.9787 LP  0  0  0  0  0  0  0  0  0  0  0  0  # atno 17371 bound_to 10713
  140.8907  134.2499  157.5096 LP  0  0  0  0  0  0  0  0  0  0  0  0  # atno 17394 bound_to 11000
  139.8703  134.9660  156.4547 LP  0  0  0  0  0  0  0  0  0  0  0  0  # atno 17395 bound_to 11000

$$$$
