AV-unprocessed.smi:1619|AV-procd|sdf|6489|dock8
  -GOLD-   22720 7153D 1   1.00000     0.00000
 Structure written by MMmdl.
 45 47  0  0  0  0  0  0  0  0  3 V2000
  151.9613  144.4146  160.7909 C   0  0  0  0  0  0  0  0  0  0  0  0
  151.8703  143.3967  159.6665 C   0  0  0  0  0  0  0  0  0  0  0  0
  150.9380  143.6206  158.6281 C   0  0  0  0  0  0  0  0  0  0  0  0
  150.8809  142.6741  157.6119 C   0  0  0  0  0  0  0  0  0  0  0  0
  150.0854  142.6074  156.4660 N   0  3  0  0  0  0  0  0  0  0  0  0
  150.3920  141.4809  155.7645 C   0  0  0  0  0  0  0  0  0  0  0  0
  151.3740  140.8284  156.4450 N   0  0  0  0  0  0  0  0  0  0  0  0
  152.0672  139.5708  156.1338 C   0  0  0  0  0  0  0  0  0  0  0  0
  151.1066  138.3720  156.0040 C   0  0  2  0  0  0  0  0  0  0  0  0
  151.5175  137.3488  156.8910 O   0  0  0  0  0  0  0  0  0  0  0  0
  151.0784  137.8122  154.5684 C   0  0  0  0  0  0  0  0  0  0  0  0
  150.0400  136.7694  154.3828 N   0  3  0  0  0  0  0  0  0  0  0  0
  150.4215  135.4081  154.8103 C   0  0  0  0  0  0  0  0  0  0  0  0
  149.1050  134.6490  155.0051 C   0  0  0  0  0  0  0  0  0  0  0  0
  148.0205  135.7264  155.1264 C   0  0  0  0  0  0  0  0  0  0  0  0
  148.7662  137.0611  155.0656 C   0  0  0  0  0  0  0  0  0  0  0  0
  151.7088  141.5348  157.6052 C   0  0  0  0  0  0  0  0  0  0  0  0
  152.6311  141.2972  158.6212 C   0  0  0  0  0  0  0  0  0  0  0  0
  152.7065  142.2501  159.6624 C   0  0  0  0  0  0  0  0  0  0  0  0
  153.7071  142.0212  160.7827 C   0  0  0  0  0  0  0  0  0  0  0  0
  151.2293  145.2133  160.6660 H   0  0  0  0  0  0  0  0  0  0  0  0
  152.9515  144.8701  160.8146 H   0  0  0  0  0  0  0  0  0  0  0  0
  151.7744  143.9409  161.7549 H   0  0  0  0  0  0  0  0  0  0  0  0
  150.2983  144.4912  158.6245 H   0  0  0  0  0  0  0  0  0  0  0  0
  149.9402  141.1656  154.8350 H   0  0  0  0  0  0  0  0  0  0  0  0
  152.6403  139.7139  155.2168 H   0  0  0  0  0  0  0  0  0  0  0  0
  152.7938  139.3920  156.9277 H   0  0  0  0  0  0  0  0  0  0  0  0
  150.1064  138.6922  156.2955 H   0  0  0  0  0  0  0  0  0  0  0  0
  152.3302  137.6079  157.2983 H   0  0  0  0  0  0  0  0  0  0  0  0
  150.9072  138.6180  153.8528 H   0  0  0  0  0  0  0  0  0  0  0  0
  152.0543  137.3880  154.3262 H   0  0  0  0  0  0  0  0  0  0  0  0
  151.0720  134.9207  154.0833 H   0  0  0  0  0  0  0  0  0  0  0  0
  150.9561  135.4586  155.7605 H   0  0  0  0  0  0  0  0  0  0  0  0
  148.9001  134.0122  154.1436 H   0  0  0  0  0  0  0  0  0  0  0  0
  149.1448  134.0068  155.8857 H   0  0  0  0  0  0  0  0  0  0  0  0
  147.3261  135.6459  154.2892 H   0  0  0  0  0  0  0  0  0  0  0  0
  147.4410  135.6296  156.0452 H   0  0  0  0  0  0  0  0  0  0  0  0
  148.9699  137.4120  156.0788 H   0  0  0  0  0  0  0  0  0  0  0  0
  148.1975  137.8349  154.5484 H   0  0  0  0  0  0  0  0  0  0  0  0
  153.2664  140.4241  158.6188 H   0  0  0  0  0  0  0  0  0  0  0  0
  154.2873  141.1126  160.6207 H   0  0  0  0  0  0  0  0  0  0  0  0
  153.1943  141.9226  161.7396 H   0  0  0  0  0  0  0  0  0  0  0  0
  154.4060  142.8552  160.8480 H   0  0  0  0  0  0  0  0  0  0  0  0
  149.8295  136.7191  153.3958 H   0  0  0  0  0  0  0  0  0  0  0  0
  149.3847  143.2799  156.1813 H   0  0  0  0  0  0  0  0  0  0  0  0
  1  2  1  0  0  0  0
  1 21  1  0  0  0  0
  1 22  1  0  0  0  0
  1 23  1  0  0  0  0
  2 19  1  0  0  0  0
  2  3  2  0  0  0  0
  3  4  1  0  0  0  0
  3 24  1  0  0  0  0
  4 17  2  0  0  0  0
  4  5  1  0  0  0  0
  5  6  2  0  0  0  0
  5 45  1  0  0  0  0
  6  7  1  0  0  0  0
  6 25  1  0  0  0  0
  7  8  1  0  0  0  0
  7 17  1  0  0  0  0
  8  9  1  0  0  0  0
  8 26  1  0  0  0  0
  8 27  1  0  0  0  0
  9 10  1  0  0  0  0
  9 11  1  0  0  0  0
  9 28  1  0  0  0  0
 10 29  1  0  0  0  0
 11 12  1  0  0  0  0
 11 30  1  0  0  0  0
 11 31  1  0  0  0  0
 12 16  1  0  0  0  0
 12 13  1  0  0  0  0
 12 44  1  0  0  0  0
 13 14  1  0  0  0  0
 13 32  1  0  0  0  0
 13 33  1  0  0  0  0
 14 15  1  0  0  0  0
 14 34  1  0  0  0  0
 14 35  1  0  0  0  0
 15 16  1  0  0  0  0
 15 36  1  0  0  0  0
 15 37  1  0  0  0  0
 16 38  1  0  0  0  0
 16 39  1  0  0  0  0
 17 18  1  0  0  0  0
 18 19  2  0  0  0  0
 18 40  1  0  0  0  0
 19 20  1  0  0  0  0
 20 41  1  0  0  0  0
 20 42  1  0  0  0  0
 20 43  1  0  0  0  0
M  CHG  1   5   1
M  CHG  1  12   1
M  END
> <s_m_source_file>
AV-unprocessed.smi

> <i_m_source_file_index>
1619

> <i_lp_mmshare_version>
43012

> <i_f3d_flags>
0

> <s_epik_input>
W0NIM11jKFtjSF0xKWMoW0NIM10pW2NIXWMoYzEyKW4oW2NIXW4yKVtDSDJdW0NASF0oW09IXSlbQ0gyXU4zW0NIMl1bQ0gyXVtDSDJdW0NIMl0z

> <s_epik_cmdline>
J2VwaWtfcHl0aG9uJywgJy1waCcsICc3LjAnLCAnLXRuJywgJzgnLCAnLW1hJywgJzIwMCcsICctbWV0YWxfYmluZGluZycsICctaW1hZScsICc8aW5maWxlLm1hZT4nLCAnLW9tYWUnLCAnPG91dGZpbGUubWFlPic=

> <r_epik_Ionization_Penalty>
1.18067

> <r_epik_Ionization_Penalty_Charging>
1.18067

> <r_epik_Ionization_Penalty_Neutral>
1.08888e-06

> <r_epik_State_Penalty>
1.26407

> <r_epik_Charging_Adjusted_Penalty>
2.44473

> <i_epik_Tot_Q>
2

> <i_epik_Tot_abs_Q>
2

> <r_epik_Metal_State_Penalty>
5.27628

> <b_epik_Metal_Only>
0

> <s_lp_Force_Field>
OPLS_2005

> <r_lp_Energy>
41.212

> <b_lp_Chiralities_Consistent>
1

> <s_lp_Variant>
AV-unprocessed.smi:1619-3

> <Gold.Version>
5.8.1

> <Gold.Id.Protein>
6NUR|6NUR_protein|mol2

> <Gold.PLP.Fitness>
51.0927

> <Gold.PLP.PLP>
-41.0286

> <Gold.PLP.part.hbond>
-2.5698

> <Gold.PLP.part.metal>
0.0000

> <Gold.PLP.part.buried>
-5.0533

> <Gold.PLP.part.nonpolar>
-34.4160

> <Gold.PLP.part.repulsive>
0.1201

> <Gold.PLP.ligand.clash>
0.0000

> <Gold.PLP.ligand.torsion>
0.9732

> <Gold.PLP.Chemscore.Hbond>
4.0000

> <Gold.PLP.Chemscore.CHOScore>
0.0000

> <Gold.PLP.Chemscore.Metal>
0.0000

> <Gold.Chemscore.Hbonds>
donor molecule, donor type, donor heavy atom, donor atom, acceptor molecule, acceptor atom, score
      L1  H     5    45       P1  8028  2.00
      L1  H    12    44       P1  7948  2.00

> <Gold.PLP.Chemscore.Internal.Correction>
0.0105

> <Gold.Rescore>
     Score         DG    S(hbond)    S(metal)    S(lipo)     H(rot)  DE(clash)    DE(int)     intcor
     18.40     -19.41       1.96        0.00     108.50       2.08       0.02       0.99       ----

> <Gold.Chemscore.Fitness>
18.3970

> <Gold.Chemscore.DG>
-19.4064

> <Gold.Chemscore.ZeroCoef>
-5.4800

> <Gold.Chemscore.Hbond>
1.9640

> <Gold.Chemscore.Metal>
0.0000

> <Gold.Chemscore.Lipo>
108.4975

> <Gold.Chemscore.Internal_Hbond>
0.0000

> <Gold.Chemscore.DEClash>
0.0211

> <Gold.Chemscore.DEInternal>
0.9882

> <Gold.Chemscore.Rot>
2.0811

> <Gold.Chemscore.Internal.Correction>
   9.000000E+99

> <Gold.Chemscore.Hbonds>
donor molecule, donor type, donor heavy atom, donor atom, acceptor molecule, acceptor atom, score
      L1  H     5    45       P1  8028  0.97
      L1  H    12    44       P1  7948  0.30

> <Gold.Chemscore.Hbond.Weighted>
-6.5597

> <Gold.Chemscore.Metal.Weighted>
-0.0000

> <Gold.Chemscore.Lipo.Weighted>
-12.6942

> <Gold.Chemscore.Internal_Hbond.Weighted>
0.0000

> <Gold.Chemscore.DEClash.Weighted>
0.0211

> <Gold.Chemscore.DEInternal.Weighted>
0.9882

> <Gold.Chemscore.Rot.Weighted>
5.3275

> <Gold.Chemscore.Internal.Correction.Weighted>
   9.000000E+99

> <Gold.Protein.RotatedTorsions>
[ 6907 6896 6895 6894 ] final -129.69 input  -60.11 | X-H torsion
[ 7974 7965 7964 7962 ] final  100.23 input  175.53 | X-H torsion
[ 8008 7997 7996 7995 ] final  144.42 input   59.86 | X-H torsion
[ 10167 10162 10161 10158 ] final  112.75 input  -65.29 | X-H torsion
[ 10718 10713 10712 10709 ] final  114.66 input   66.30 | X-H torsion
[ 10763 10752 10751 10750 ] final   98.38 input  -60.55 | X-H torsion
[ 11005 11000 10999 10996 ] final   11.59 input  -57.11 | X-H torsion

> <Gold.Protein.ActiveResidues>
 VAL166  LYS551  ARG553  GLY616  TRP617  ASP618  TYR619  PRO620  LYS621  CYS622 
 ASP623  PHE694  ASN695  SER759  ASP760  ASP761  ALA762  ILE779  LEU786  VAL792 
 PHE793  MET794  SER795  GLU796  ALA797  LYS798  CYS799  TRP800  GLU811  SER814 

> <Gold.Protein.RotatedAtoms>
  150.9314  133.6762  159.2809 H   0  0  0  0  0  0  0  0  0  0  0  0  # atno 6907 bound_to 6896
  151.4182  135.0993  159.9615 H   0  0  0  0  0  0  0  0  0  0  0  0  # atno 6908 bound_to 6896
  152.5028  133.8772  159.7383 H   0  0  0  0  0  0  0  0  0  0  0  0  # atno 6909 bound_to 6896
  145.3883  139.2367  143.3366 H   0  0  0  0  0  0  0  0  0  0  0  0  # atno 7974 bound_to 7965
  156.2908  140.2236  156.5050 H   0  0  0  0  0  0  0  0  0  0  0  0  # atno 8008 bound_to 7997
  154.7657  140.0470  157.1032 H   0  0  0  0  0  0  0  0  0  0  0  0  # atno 8009 bound_to 7997
  154.9936  140.3093  155.4899 H   0  0  0  0  0  0  0  0  0  0  0  0  # atno 8010 bound_to 7997
  139.6512  144.7128  151.2045 H   0  0  0  0  0  0  0  0  0  0  0  0  # atno 10167 bound_to 10162
  157.6268  131.1001  150.7217 H   0  0  0  0  0  0  0  0  0  0  0  0  # atno 10718 bound_to 10713
  153.2884  135.4150  155.1144 H   0  0  0  0  0  0  0  0  0  0  0  0  # atno 10763 bound_to 10752
  154.8512  135.3512  154.6015 H   0  0  0  0  0  0  0  0  0  0  0  0  # atno 10764 bound_to 10752
  153.6437  135.7056  153.5290 H   0  0  0  0  0  0  0  0  0  0  0  0  # atno 10765 bound_to 10752
  140.5015  134.0741  155.7795 H   0  0  0  0  0  0  0  0  0  0  0  0  # atno 11005 bound_to 11000
  146.2810  140.4561  142.8776 LP  0  0  0  0  0  0  0  0  0  0  0  0  # atno 17320 bound_to 7965
  144.8458  140.6927  143.6200 LP  0  0  0  0  0  0  0  0  0  0  0  0  # atno 17321 bound_to 7965
  140.7538  143.6147  150.8571 LP  0  0  0  0  0  0  0  0  0  0  0  0  # atno 17342 bound_to 10162
  139.9795  143.5966  152.2947 LP  0  0  0  0  0  0  0  0  0  0  0  0  # atno 17343 bound_to 10162
  156.7564  130.4785  149.5446 LP  0  0  0  0  0  0  0  0  0  0  0  0  # atno 17370 bound_to 10713
  156.1446  130.6268  151.0513 LP  0  0  0  0  0  0  0  0  0  0  0  0  # atno 17371 bound_to 10713
  141.1433  133.9100  157.2275 LP  0  0  0  0  0  0  0  0  0  0  0  0  # atno 17394 bound_to 11000
  139.9711  135.0128  156.9513 LP  0  0  0  0  0  0  0  0  0  0  0  0  # atno 17395 bound_to 11000

$$$$
