AV-unprocessed.smi:2178|AV-procd|sdf|8854|dock6
  -GOLD-   2272012 53D 1   1.00000     0.00000
 Structure written by MMmdl.
 47 49  0  0  0  0  0  0  0  0  2 V2000
  151.5974  144.0901  158.5777 C   0  0  0  0  0  0  0  0  0  0  0  0
  152.2269  143.4452  159.7989 C   0  0  0  0  0  0  0  0  0  0  0  0
  152.2142  144.1366  161.0279 C   0  0  0  0  0  0  0  0  0  0  0  0
  152.8101  143.5680  162.1686 C   0  0  0  0  0  0  0  0  0  0  0  0
  153.4269  142.3061  162.0848 C   0  0  0  0  0  0  0  0  0  0  0  0
  153.4429  141.6036  160.8621 C   0  0  0  0  0  0  0  0  0  0  0  0
  154.1178  140.2471  160.7837 C   0  0  0  0  0  0  0  0  0  0  0  0
  152.8293  142.1664  159.7185 C   0  0  0  0  0  0  0  0  0  0  0  0
  152.8478  141.4785  158.5324 O   0  0  0  0  0  0  0  0  0  0  0  0
  152.0913  140.2770  158.5574 C   0  0  0  0  0  0  0  0  0  0  0  0
  151.3253  140.1431  157.2326 C   0  0  2  0  0  0  0  0  0  0  0  0
  150.8368  141.4178  156.8638 O   0  0  0  0  0  0  0  0  0  0  0  0
  150.1430  139.1604  157.3480 C   0  0  0  0  0  0  0  0  0  0  0  0
  149.7003  138.6452  156.0419 N   0  0  0  0  0  0  0  0  0  0  0  0
  150.4242  138.0652  155.0415 C   0  0  0  0  0  0  0  0  0  0  0  0
  151.8938  137.8015  155.0362 C   0  0  0  0  0  0  0  0  0  0  0  0
  152.2345  136.6799  154.2520 O   0  0  0  0  0  0  0  0  0  0  0  0
  149.5540  137.7567  154.0393 N   0  3  0  0  0  0  0  0  0  0  0  0
  148.2631  138.1456  154.3980 C   0  0  0  0  0  0  0  0  0  0  0  0
  147.0581  138.0429  153.7099 C   0  0  0  0  0  0  0  0  0  0  0  0
  145.9122  138.5429  154.3624 C   0  0  0  0  0  0  0  0  0  0  0  0
  145.9914  139.1156  155.6484 C   0  0  0  0  0  0  0  0  0  0  0  0
  147.2186  139.2125  156.3368 C   0  0  0  0  0  0  0  0  0  0  0  0
  148.3479  138.7168  155.6847 C   0  0  0  0  0  0  0  0  0  0  0  0
  151.6161  145.1772  158.6596 H   0  0  0  0  0  0  0  0  0  0  0  0
  150.5592  143.7745  158.4770 H   0  0  0  0  0  0  0  0  0  0  0  0
  152.1322  143.8169  157.6676 H   0  0  0  0  0  0  0  0  0  0  0  0
  151.7504  145.1097  161.0989 H   0  0  0  0  0  0  0  0  0  0  0  0
  152.7997  144.1028  163.1067 H   0  0  0  0  0  0  0  0  0  0  0  0
  153.8889  141.8806  162.9636 H   0  0  0  0  0  0  0  0  0  0  0  0
  154.7667  140.1912  159.9092 H   0  0  0  0  0  0  0  0  0  0  0  0
  153.3711  139.4566  160.7095 H   0  0  0  0  0  0  0  0  0  0  0  0
  154.7284  140.0565  161.6668 H   0  0  0  0  0  0  0  0  0  0  0  0
  152.7841  139.4409  158.6650 H   0  0  0  0  0  0  0  0  0  0  0  0
  151.4134  140.2371  159.4114 H   0  0  0  0  0  0  0  0  0  0  0  0
  152.0046  139.7898  156.4559 H   0  0  0  0  0  0  0  0  0  0  0  0
  150.4766  141.3604  155.9923 H   0  0  0  0  0  0  0  0  0  0  0  0
  150.4362  138.2969  157.9464 H   0  0  0  0  0  0  0  0  0  0  0  0
  149.2979  139.6119  157.8682 H   0  0  0  0  0  0  0  0  0  0  0  0
  152.4190  138.6763  154.6522 H   0  0  0  0  0  0  0  0  0  0  0  0
  152.2403  137.6427  156.0574 H   0  0  0  0  0  0  0  0  0  0  0  0
  151.7426  136.7157  153.4456 H   0  0  0  0  0  0  0  0  0  0  0  0
  146.9956  137.6048  152.7245 H   0  0  0  0  0  0  0  0  0  0  0  0
  144.9539  138.4865  153.8666 H   0  0  0  0  0  0  0  0  0  0  0  0
  145.0923  139.4893  156.1166 H   0  0  0  0  0  0  0  0  0  0  0  0
  147.2656  139.6568  157.3195 H   0  0  0  0  0  0  0  0  0  0  0  0
  149.8272  137.3101  153.1735 H   0  0  0  0  0  0  0  0  0  0  0  0
  1  2  1  0  0  0  0
  1 25  1  0  0  0  0
  1 26  1  0  0  0  0
  1 27  1  0  0  0  0
  2  8  1  0  0  0  0
  2  3  2  0  0  0  0
  3  4  1  0  0  0  0
  3 28  1  0  0  0  0
  4  5  2  0  0  0  0
  4 29  1  0  0  0  0
  5  6  1  0  0  0  0
  5 30  1  0  0  0  0
  6  7  1  0  0  0  0
  6  8  2  0  0  0  0
  7 31  1  0  0  0  0
  7 32  1  0  0  0  0
  7 33  1  0  0  0  0
  8  9  1  0  0  0  0
  9 10  1  0  0  0  0
 10 11  1  0  0  0  0
 10 34  1  0  0  0  0
 10 35  1  0  0  0  0
 11 12  1  0  0  0  0
 11 13  1  0  0  0  0
 11 36  1  0  0  0  0
 12 37  1  0  0  0  0
 13 14  1  0  0  0  0
 13 38  1  0  0  0  0
 13 39  1  0  0  0  0
 14 24  1  0  0  0  0
 14 15  1  0  0  0  0
 15 16  1  0  0  0  0
 15 18  2  0  0  0  0
 16 17  1  0  0  0  0
 16 40  1  0  0  0  0
 16 41  1  0  0  0  0
 17 42  1  0  0  0  0
 18 19  1  0  0  0  0
 18 47  1  0  0  0  0
 19 24  2  0  0  0  0
 19 20  1  0  0  0  0
 20 21  2  0  0  0  0
 20 43  1  0  0  0  0
 21 22  1  0  0  0  0
 21 44  1  0  0  0  0
 22 23  2  0  0  0  0
 22 45  1  0  0  0  0
 23 24  1  0  0  0  0
 23 46  1  0  0  0  0
M  CHG  1  18   1
M  END
> <s_m_source_file>
AV-unprocessed.smi

> <i_m_source_file_index>
2178

> <i_lp_mmshare_version>
43012

> <i_f3d_flags>
0

> <s_epik_input>
W0NIM11jMVtjSF1bY0hdW2NIXWMoW0NIM10pYzFPW0NIMl1bQ0BIXShbT0hdKVtDSDJdbihjKG4yKVtDSDJdW09IXSljKGMyMylbY0hdW2NIXVtjSF1bY0hdMw==

> <s_epik_cmdline>
J2VwaWtfcHl0aG9uJywgJy1waCcsICc3LjAnLCAnLXRuJywgJzgnLCAnLW1hJywgJzIwMCcsICctbWV0YWxfYmluZGluZycsICctaW1hZScsICc8aW5maWxlLm1hZT4nLCAnLW9tYWUnLCAnPG91dGZpbGUubWFlPic=

> <r_lp_tautomer_probability>
1

> <r_epik_Ionization_Penalty>
1.43125

> <r_epik_Ionization_Penalty_Charging>
1.43039

> <r_epik_Ionization_Penalty_Neutral>
0.000858184

> <r_epik_State_Penalty>
1.51493

> <r_epik_Charging_Adjusted_Penalty>
2.94531

> <i_epik_Tot_Q>
1

> <i_epik_Tot_abs_Q>
1

> <r_epik_Metal_State_Penalty>
5.5599

> <b_epik_Metal_Only>
0

> <s_lp_Force_Field>
OPLS_2005

> <r_lp_Energy>
23.8242

> <b_lp_Chiralities_Consistent>
1

> <s_lp_Variant>
AV-unprocessed.smi:2178-3

> <Gold.Version>
5.8.1

> <Gold.Id.Protein>
6NUR|6NUR_protein|mol2

> <Gold.PLP.Fitness>
53.0001

> <Gold.PLP.PLP>
-44.7093

> <Gold.PLP.part.hbond>
-3.0000

> <Gold.PLP.part.metal>
0.0000

> <Gold.PLP.part.buried>
-5.9965

> <Gold.PLP.part.nonpolar>
-35.3436

> <Gold.PLP.part.repulsive>
0.0185

> <Gold.PLP.ligand.clash>
0.0000

> <Gold.PLP.ligand.torsion>
1.1413

> <Gold.PLP.Chemscore.Hbond>
3.4750

> <Gold.PLP.Chemscore.CHOScore>
0.0000

> <Gold.PLP.Chemscore.Metal>
0.0000

> <Gold.Chemscore.Hbonds>
donor molecule, donor type, donor heavy atom, donor atom, acceptor molecule, acceptor atom, score
      L1  H    17    42       P1  7949  0.68
      L1  H    18    47       P1  7948  1.50
      P1  H 10752 10765       L1    17  0.26

> <Gold.PLP.Chemscore.Internal.Correction>
0.1483

> <Gold.Rescore>
     Score         DG    S(hbond)    S(metal)    S(lipo)     H(rot)  DE(clash)    DE(int)     intcor
     17.70     -19.21       2.24        0.00     120.19       3.05       0.24       1.28       ----

> <Gold.Chemscore.Fitness>
17.6982

> <Gold.Chemscore.DG>
-19.2129

> <Gold.Chemscore.ZeroCoef>
-5.4800

> <Gold.Chemscore.Hbond>
2.2372

> <Gold.Chemscore.Metal>
0.0000

> <Gold.Chemscore.Lipo>
120.1903

> <Gold.Chemscore.Internal_Hbond>
0.0000

> <Gold.Chemscore.DEClash>
0.2362

> <Gold.Chemscore.DEInternal>
1.2785

> <Gold.Chemscore.Rot>
3.0476

> <Gold.Chemscore.Internal.Correction>
   9.000000E+99

> <Gold.Chemscore.Hbonds>
donor molecule, donor type, donor heavy atom, donor atom, acceptor molecule, acceptor atom, score
      L1  H    17    42       P1  7949  0.63
      L1  H    18    47       P1  7948  0.33
      P1  H 10752 10765       L1    17  0.18

> <Gold.Chemscore.Hbond.Weighted>
-7.4724

> <Gold.Chemscore.Metal.Weighted>
-0.0000

> <Gold.Chemscore.Lipo.Weighted>
-14.0623

> <Gold.Chemscore.Internal_Hbond.Weighted>
0.0000

> <Gold.Chemscore.DEClash.Weighted>
0.2362

> <Gold.Chemscore.DEInternal.Weighted>
1.2785

> <Gold.Chemscore.Rot.Weighted>
7.8018

> <Gold.Chemscore.Internal.Correction.Weighted>
   9.000000E+99

> <Gold.Protein.RotatedTorsions>
[ 6907 6896 6895 6894 ] final  170.88 input  -60.11 | X-H torsion
[ 7974 7965 7964 7962 ] final   96.63 input  175.53 | X-H torsion
[ 8008 7997 7996 7995 ] final  171.30 input   59.86 | X-H torsion
[ 10167 10162 10161 10158 ] final  -35.19 input  -65.29 | X-H torsion
[ 10718 10713 10712 10709 ] final   18.64 input   66.30 | X-H torsion
[ 10763 10752 10751 10750 ] final  160.05 input  -60.55 | X-H torsion
[ 11005 11000 10999 10996 ] final  142.43 input  -57.11 | X-H torsion

> <Gold.Protein.ActiveResidues>
 VAL166  LYS551  ARG553  GLY616  TRP617  ASP618  TYR619  PRO620  LYS621  CYS622 
 ASP623  PHE694  ASN695  SER759  ASP760  ASP761  ALA762  ILE779  LEU786  VAL792 
 PHE793  MET794  SER795  GLU796  ALA797  LYS798  CYS799  TRP800  GLU811  SER814 

> <Gold.Protein.RotatedAtoms>
  151.8090  133.3379  159.3549 H   0  0  0  0  0  0  0  0  0  0  0  0  # atno 6907 bound_to 6896
  150.7332  134.5682  159.5886 H   0  0  0  0  0  0  0  0  0  0  0  0  # atno 6908 bound_to 6896
  152.3088  134.7523  160.0392 H   0  0  0  0  0  0  0  0  0  0  0  0  # atno 6909 bound_to 6896
  145.4362  139.2305  143.3117 H   0  0  0  0  0  0  0  0  0  0  0  0  # atno 7974 bound_to 7965
  156.1284  140.1515  156.9101 H   0  0  0  0  0  0  0  0  0  0  0  0  # atno 8008 bound_to 7997
  154.4890  140.0857  156.7591 H   0  0  0  0  0  0  0  0  0  0  0  0  # atno 8009 bound_to 7997
  155.4301  140.3426  155.4281 H   0  0  0  0  0  0  0  0  0  0  0  0  # atno 8010 bound_to 7997
  140.7170  143.3495  151.2186 H   0  0  0  0  0  0  0  0  0  0  0  0  # atno 10167 bound_to 10162
  157.0991  130.6460  149.5868 H   0  0  0  0  0  0  0  0  0  0  0  0  # atno 10718 bound_to 10713
  154.2413  135.2774  155.2852 H   0  0  0  0  0  0  0  0  0  0  0  0  # atno 10763 bound_to 10752
  154.5542  135.5666  153.6953 H   0  0  0  0  0  0  0  0  0  0  0  0  # atno 10764 bound_to 10752
  152.9999  135.6282  154.2558 H   0  0  0  0  0  0  0  0  0  0  0  0  # atno 10765 bound_to 10752
  140.0477  134.9272  157.0959 H   0  0  0  0  0  0  0  0  0  0  0  0  # atno 11005 bound_to 11000
  146.2581  140.5105  142.8865 LP  0  0  0  0  0  0  0  0  0  0  0  0  # atno 17320 bound_to 7965
  144.8151  140.6453  143.6390 LP  0  0  0  0  0  0  0  0  0  0  0  0  # atno 17321 bound_to 7965
  139.7022  143.9514  152.2910 LP  0  0  0  0  0  0  0  0  0  0  0  0  # atno 17342 bound_to 10162
  139.9211  144.6799  150.8461 LP  0  0  0  0  0  0  0  0  0  0  0  0  # atno 17343 bound_to 10162
  155.9878  130.4919  150.7142 LP  0  0  0  0  0  0  0  0  0  0  0  0  # atno 17370 bound_to 10713
  157.4656  131.0888  151.0699 LP  0  0  0  0  0  0  0  0  0  0  0  0  # atno 17371 bound_to 10713
  140.3968  134.2126  155.7164 LP  0  0  0  0  0  0  0  0  0  0  0  0  # atno 17394 bound_to 11000
  141.1915  133.8194  157.0877 LP  0  0  0  0  0  0  0  0  0  0  0  0  # atno 17395 bound_to 11000

$$$$
