AV-unprocessed.smi:244|AV-procd|sdf|1871|dock4
  -GOLD-   2262020513D 1   1.00000     0.00000
 Structure written by MMmdl.
 57 61  0  0  0  0  0  0  0  0  2 V2000
  149.4613  127.4420  153.5677 C   0  0  0  0  0  0  0  0  0  0  0  0
  148.3496  128.4120  153.4673 N   0  3  2  0  0  0  0  0  0  0  0  0
  147.6964  128.3847  152.1345 C   0  0  0  0  0  0  0  0  0  0  0  0
  146.4774  129.3207  152.0959 C   0  0  0  0  0  0  0  0  0  0  0  0
  146.8856  130.7470  152.4835 C   0  0  1  0  0  0  0  0  0  0  0  0
  145.7371  131.5871  152.5007 O   0  0  0  0  0  0  0  0  0  0  0  0
  146.0777  132.9383  152.7936 C   0  0  0  0  0  0  0  0  0  0  0  0
  146.7298  133.0127  154.1839 C   0  0  0  0  0  0  0  0  0  0  0  0
  147.8802  132.1158  154.2575 N   0  0  0  0  0  0  0  0  0  0  0  0
  148.5503  132.2355  155.4254 C   0  0  0  0  0  0  0  0  0  0  0  0
  149.8739  132.5443  155.4248 N   0  0  0  0  0  0  0  0  0  0  0  0
  150.5250  132.6831  156.5840 C   0  0  0  0  0  0  0  0  0  0  0  0
  150.0504  132.5713  157.8269 N   0  0  0  0  0  0  0  0  0  0  0  0
  148.7195  132.2708  157.8258 C   0  0  0  0  0  0  0  0  0  0  0  0
  147.9018  132.0832  156.6776 C   0  0  0  0  0  0  0  0  0  0  0  0
  146.5990  131.7914  157.0584 N   0  0  0  0  0  0  0  0  0  0  0  0
  146.6447  131.7996  158.3631 C   0  0  0  0  0  0  0  0  0  0  0  0
  147.8746  132.0971  158.9079 N   0  0  0  0  0  0  0  0  0  0  0  0
  148.2035  132.1829  160.3224 C   0  0  0  0  0  0  0  0  0  0  0  0
  147.9804  133.5827  160.9500 C   0  0  0  0  0  0  0  0  0  0  0  0
  146.5791  133.7862  160.9191 O   0  0  0  0  0  0  0  0  0  0  0  0
  148.4533  133.6690  162.4174 C   0  0  0  0  0  0  0  0  0  0  0  0
  148.3045  135.0921  162.9854 C   0  0  0  0  0  0  0  0  0  0  0  0
  149.0063  136.0190  162.1649 O   0  0  0  0  0  0  0  0  0  0  0  0
  148.4943  136.0829  160.8388 C   0  0  0  0  0  0  0  0  0  0  0  0
  148.6536  134.7171  160.1468 C   0  0  0  0  0  0  0  0  0  0  0  0
  147.5420  130.7411  153.8807 C   0  0  2  0  0  0  0  0  0  0  0  0
  148.7573  129.7823  153.8691 C   0  0  0  0  0  0  0  0  0  0  0  0
  150.2655  127.6947  152.8755 H   0  0  0  0  0  0  0  0  0  0  0  0
  149.1145  126.4343  153.3366 H   0  0  0  0  0  0  0  0  0  0  0  0
  149.8711  127.4276  154.5780 H   0  0  0  0  0  0  0  0  0  0  0  0
  148.4173  128.6756  151.3686 H   0  0  0  0  0  0  0  0  0  0  0  0
  147.3807  127.3666  151.9029 H   0  0  0  0  0  0  0  0  0  0  0  0
  146.0347  129.3160  151.0995 H   0  0  0  0  0  0  0  0  0  0  0  0
  145.7098  128.9558  152.7798 H   0  0  0  0  0  0  0  0  0  0  0  0
  147.5910  131.1241  151.7398 H   0  0  0  0  0  0  0  0  0  0  0  0
  146.7472  133.3328  152.0276 H   0  0  0  0  0  0  0  0  0  0  0  0
  145.1733  133.5462  152.7696 H   0  0  0  0  0  0  0  0  0  0  0  0
  147.0437  134.0364  154.3927 H   0  0  0  0  0  0  0  0  0  0  0  0
  145.9963  132.7391  154.9438 H   0  0  0  0  0  0  0  0  0  0  0  0
  151.5756  132.9213  156.5045 H   0  0  0  0  0  0  0  0  0  0  0  0
  145.7733  131.5987  158.9695 H   0  0  0  0  0  0  0  0  0  0  0  0
  147.6063  131.4375  160.8499 H   0  0  0  0  0  0  0  0  0  0  0  0
  149.2438  131.8776  160.4463 H   0  0  0  0  0  0  0  0  0  0  0  0
  146.4007  134.6875  161.1404 H   0  0  0  0  0  0  0  0  0  0  0  0
  147.9094  132.9566  163.0390 H   0  0  0  0  0  0  0  0  0  0  0  0
  149.5058  133.3942  162.4838 H   0  0  0  0  0  0  0  0  0  0  0  0
  147.2548  135.3790  163.0634 H   0  0  0  0  0  0  0  0  0  0  0  0
  148.7178  135.1356  163.9931 H   0  0  0  0  0  0  0  0  0  0  0  0
  147.4504  136.4000  160.8535 H   0  0  0  0  0  0  0  0  0  0  0  0
  149.0463  136.8448  160.2883 H   0  0  0  0  0  0  0  0  0  0  0  0
  149.7205  134.5191  160.0486 H   0  0  0  0  0  0  0  0  0  0  0  0
  148.2537  134.7598  159.1328 H   0  0  0  0  0  0  0  0  0  0  0  0
  146.8143  130.3666  154.6030 H   0  0  0  0  0  0  0  0  0  0  0  0
  149.2078  129.7261  154.8608 H   0  0  0  0  0  0  0  0  0  0  0  0
  149.5278  130.1517  153.1902 H   0  0  0  0  0  0  0  0  0  0  0  0
  147.6513  128.1153  154.1344 H   0  0  0  0  0  0  0  0  0  0  0  0
  1  2  1  0  0  0  0
  1 29  1  0  0  0  0
  1 30  1  0  0  0  0
  1 31  1  0  0  0  0
  2 28  1  0  0  0  0
  2  3  1  0  0  0  0
  2 57  1  0  0  0  0
  3  4  1  0  0  0  0
  3 32  1  0  0  0  0
  3 33  1  0  0  0  0
  4  5  1  0  0  0  0
  4 34  1  0  0  0  0
  4 35  1  0  0  0  0
  5 27  1  0  0  0  0
  5  6  1  0  0  0  0
  5 36  1  0  0  0  0
  6  7  1  0  0  0  0
  7  8  1  0  0  0  0
  7 37  1  0  0  0  0
  7 38  1  0  0  0  0
  8  9  1  0  0  0  0
  8 39  1  0  0  0  0
  8 40  1  0  0  0  0
  9 10  1  0  0  0  0
  9 27  1  0  0  0  0
 10 15  1  0  0  0  0
 10 11  2  0  0  0  0
 11 12  1  0  0  0  0
 12 13  2  0  0  0  0
 12 41  1  0  0  0  0
 13 14  1  0  0  0  0
 14 18  1  0  0  0  0
 14 15  2  0  0  0  0
 15 16  1  0  0  0  0
 16 17  2  0  0  0  0
 17 18  1  0  0  0  0
 17 42  1  0  0  0  0
 18 19  1  0  0  0  0
 19 20  1  0  0  0  0
 19 43  1  0  0  0  0
 19 44  1  0  0  0  0
 20 26  1  0  0  0  0
 20 21  1  0  0  0  0
 20 22  1  0  0  0  0
 21 45  1  0  0  0  0
 22 23  1  0  0  0  0
 22 46  1  0  0  0  0
 22 47  1  0  0  0  0
 23 24  1  0  0  0  0
 23 48  1  0  0  0  0
 23 49  1  0  0  0  0
 24 25  1  0  0  0  0
 25 26  1  0  0  0  0
 25 50  1  0  0  0  0
 25 51  1  0  0  0  0
 26 52  1  0  0  0  0
 26 53  1  0  0  0  0
 27 28  1  0  0  0  0
 27 54  1  0  0  0  0
 28 55  1  0  0  0  0
 28 56  1  0  0  0  0
M  CHG  1   2   1
M  END
> <s_m_source_file>
AV-unprocessed.smi

> <i_m_source_file_index>
244

> <i_lp_mmshare_version>
43012

> <i_f3d_flags>
0

> <s_epik_input>
W0NIMl0xW0NIMl1OKFtDSDNdKVtDSDJdW0NAQEhdKFtDQEhdMTIpTihbQ0gyXVtDSDJdTzIpYyhuW2NIXW4zKWMoYzM0KW5bY0hdbjRbQ0gyXUM1KFtPSF0pW0NIMl1bQ0gyXU9bQ0gyXVtDSDJdNQ==

> <s_epik_cmdline>
J2VwaWtfcHl0aG9uJywgJy1waCcsICc3LjAnLCAnLXRuJywgJzgnLCAnLW1hJywgJzIwMCcsICctbWV0YWxfYmluZGluZycsICctaW1hZScsICc8aW5maWxlLm1hZT4nLCAnLW9tYWUnLCAnPG91dGZpbGUubWFlPic=

> <r_lp_tautomer_probability>
1

> <r_epik_Ionization_Penalty>
0.0136215

> <r_epik_Ionization_Penalty_Charging>
0.0131385

> <r_epik_Ionization_Penalty_Neutral>
0.000483022

> <r_epik_State_Penalty>
0.0104001

> <r_epik_Charging_Adjusted_Penalty>
0.0235387

> <i_epik_Tot_Q>
1

> <i_epik_Tot_abs_Q>
1

> <r_epik_Metal_State_Penalty>
0.0104469

> <b_epik_Metal_Only>
0

> <s_lp_Force_Field>
OPLS_2005

> <r_lp_Energy>
42.2984

> <b_lp_Chiralities_Consistent>
1

> <s_lp_Variant>
AV-unprocessed.smi:244-8

> <Gold.Version>
5.8.1

> <Gold.Id.Protein>
6NUR|6NUR_protein|mol2

> <Gold.PLP.Fitness>
38.6071

> <Gold.PLP.PLP>
-33.6706

> <Gold.PLP.part.hbond>
-2.0000

> <Gold.PLP.part.metal>
0.0000

> <Gold.PLP.part.buried>
-4.4039

> <Gold.PLP.part.nonpolar>
-26.8289

> <Gold.PLP.part.repulsive>
0.2961

> <Gold.PLP.ligand.clash>
0.0000

> <Gold.PLP.ligand.torsion>
0.5916

> <Gold.PLP.Chemscore.Hbond>
2.0000

> <Gold.PLP.Chemscore.CHOScore>
0.0000

> <Gold.PLP.Chemscore.Metal>
0.0000

> <Gold.Chemscore.Hbonds>
donor molecule, donor type, donor heavy atom, donor atom, acceptor molecule, acceptor atom, score
      P1  H  6896  6908       L1    13  1.00
      P1  H  6931  6943       L1    24  0.08

> <Gold.PLP.Chemscore.Internal.Correction>
0.1198

> <Gold.Rescore>
     Score         DG    S(hbond)    S(metal)    S(lipo)     H(rot)  DE(clash)    DE(int)     intcor
     14.83     -15.62       1.75        0.00      82.51       2.09       0.03       0.76       ----

> <Gold.Chemscore.Fitness>
14.8341

> <Gold.Chemscore.DG>
-15.6245

> <Gold.Chemscore.ZeroCoef>
-5.4800

> <Gold.Chemscore.Hbond>
1.7496

> <Gold.Chemscore.Metal>
0.0000

> <Gold.Chemscore.Lipo>
82.5117

> <Gold.Chemscore.Internal_Hbond>
0.0000

> <Gold.Chemscore.DEClash>
0.0333

> <Gold.Chemscore.DEInternal>
0.7571

> <Gold.Chemscore.Rot>
2.0911

> <Gold.Chemscore.Internal.Correction>
   9.000000E+99

> <Gold.Chemscore.Hbonds>
donor molecule, donor type, donor heavy atom, donor atom, acceptor molecule, acceptor atom, score
      P1  H  6896  6908       L1    13  0.94

> <Gold.Chemscore.Hbond.Weighted>
-5.8437

> <Gold.Chemscore.Metal.Weighted>
-0.0000

> <Gold.Chemscore.Lipo.Weighted>
-9.6539

> <Gold.Chemscore.Internal_Hbond.Weighted>
0.0000

> <Gold.Chemscore.DEClash.Weighted>
0.0333

> <Gold.Chemscore.DEInternal.Weighted>
0.7571

> <Gold.Chemscore.Rot.Weighted>
5.3531

> <Gold.Chemscore.Internal.Correction.Weighted>
   9.000000E+99

> <Gold.Protein.RotatedTorsions>
[ 6907 6896 6895 6894 ] final  106.69 input  -60.11 | X-H torsion
[ 7974 7965 7964 7962 ] final   19.27 input  175.53 | X-H torsion
[ 8008 7997 7996 7995 ] final   42.67 input   59.86 | X-H torsion
[ 10167 10162 10161 10158 ] final  105.34 input  -65.29 | X-H torsion
[ 10718 10713 10712 10709 ] final -124.14 input   66.30 | X-H torsion
[ 10763 10752 10751 10750 ] final  125.05 input  -60.55 | X-H torsion
[ 11005 11000 10999 10996 ] final  143.42 input  -57.11 | X-H torsion

> <Gold.Protein.ActiveResidues>
 VAL166  LYS551  ARG553  GLY616  TRP617  ASP618  TYR619  PRO620  LYS621  CYS622 
 ASP623  PHE694  ASN695  SER759  ASP760  ASP761  ALA762  ILE779  LEU786  VAL792 
 PHE793  MET794  SER795  GLU796  ALA797  LYS798  CYS799  TRP800  GLU811  SER814 

> <Gold.Protein.RotatedAtoms>
  152.5184  133.9345  159.7596 H   0  0  0  0  0  0  0  0  0  0  0  0  # atno 6907 bound_to 6896
  150.9688  133.6358  159.2748 H   0  0  0  0  0  0  0  0  0  0  0  0  # atno 6908 bound_to 6896
  151.3577  135.0903  159.9477 H   0  0  0  0  0  0  0  0  0  0  0  0  # atno 6909 bound_to 6896
  146.2155  139.8337  142.8655 H   0  0  0  0  0  0  0  0  0  0  0  0  # atno 7974 bound_to 7965
  155.2901  140.3378  155.4253 H   0  0  0  0  0  0  0  0  0  0  0  0  # atno 8008 bound_to 7997
  156.2050  140.1747  156.7859 H   0  0  0  0  0  0  0  0  0  0  0  0  # atno 8009 bound_to 7997
  154.5609  140.0687  156.8801 H   0  0  0  0  0  0  0  0  0  0  0  0  # atno 8010 bound_to 7997
  139.7101  144.7079  151.1042 H   0  0  0  0  0  0  0  0  0  0  0  0  # atno 10167 bound_to 10162
  156.1562  130.6570  150.9985 H   0  0  0  0  0  0  0  0  0  0  0  0  # atno 10718 bound_to 10713
  153.6712  135.3330  155.3154 H   0  0  0  0  0  0  0  0  0  0  0  0  # atno 10763 bound_to 10752
  154.8490  135.4387  154.1703 H   0  0  0  0  0  0  0  0  0  0  0  0  # atno 10764 bound_to 10752
  153.2695  135.6999  153.7571 H   0  0  0  0  0  0  0  0  0  0  0  0  # atno 10765 bound_to 10752
  140.0553  134.9234  157.1089 H   0  0  0  0  0  0  0  0  0  0  0  0  # atno 11005 bound_to 11000
  145.2971  141.0184  143.3630 LP  0  0  0  0  0  0  0  0  0  0  0  0  # atno 17320 bound_to 7965
  144.9034  139.4620  143.6622 LP  0  0  0  0  0  0  0  0  0  0  0  0  # atno 17321 bound_to 7965
  140.7731  143.5305  150.9429 LP  0  0  0  0  0  0  0  0  0  0  0  0  # atno 17342 bound_to 10162
  139.8989  143.6860  152.3134 LP  0  0  0  0  0  0  0  0  0  0  0  0  # atno 17343 bound_to 10162
  157.6697  131.0864  150.7642 LP  0  0  0  0  0  0  0  0  0  0  0  0  # atno 17370 bound_to 10713
  156.7707  130.4828  149.5419 LP  0  0  0  0  0  0  0  0  0  0  0  0  # atno 17371 bound_to 10713
  140.3854  134.2242  155.7168 LP  0  0  0  0  0  0  0  0  0  0  0  0  # atno 17394 bound_to 11000
  141.1949  133.8118  157.0738 LP  0  0  0  0  0  0  0  0  0  0  0  0  # atno 17395 bound_to 11000

$$$$
