AV-unprocessed.smi:1051|AV-procd|sdf|4615|dock10
  -GOLD-   22720 3113D 1   1.00000     0.00000
 Structure written by MMmdl.
 45 47  0  0  0  0  0  0  0  0  1 V2000
  147.3824  134.7191  162.2088 C   0  0  0  0  0  0  0  0  0  0  0  0
  147.7277  136.0140  161.4746 C   0  0  0  0  0  0  0  0  0  0  0  0
  147.5077  137.0865  162.0369 O   0  0  0  0  0  0  0  0  0  0  0  0
  148.3168  135.9073  160.1088 C   0  0  0  0  0  0  0  0  0  0  0  0
  148.2117  134.6862  159.4057 C   0  0  0  0  0  0  0  0  0  0  0  0
  148.7561  134.5571  158.1153 C   0  0  0  0  0  0  0  0  0  0  0  0
  149.4125  135.6467  157.5160 C   0  0  0  0  0  0  0  0  0  0  0  0
  149.5340  136.8743  158.1956 C   0  0  0  0  0  0  0  0  0  0  0  0
  150.1946  137.8871  157.5343 O   0  0  0  0  0  0  0  0  0  0  0  0
  150.3384  139.1424  158.1860 C   0  0  0  0  0  0  0  0  0  0  0  0
  150.0505  140.2591  157.1717 C   0  0  1  0  0  0  0  0  0  0  0  0
  149.0660  141.0989  157.7404 O   0  0  0  0  0  0  0  0  0  0  0  0
  151.3033  141.1049  156.8648 C   0  0  0  0  0  0  0  0  0  0  0  0
  151.9476  141.5769  158.0885 N   0  0  0  0  0  0  0  0  0  0  0  0
  152.8997  140.9263  158.7990 C   0  0  0  0  0  0  0  0  0  0  0  0
  153.3763  139.8247  158.5257 O   0  0  0  0  0  0  0  0  0  0  0  0
  153.2364  141.7019  159.8561 N   0  0  0  0  0  0  0  0  0  0  0  0
  154.2142  141.3971  160.8937 C   0  0  0  0  0  0  0  0  0  0  0  0
  152.4850  142.8835  159.8171 C   0  0  0  0  0  0  0  0  0  0  0  0
  152.4719  143.9969  160.6744 C   0  0  0  0  0  0  0  0  0  0  0  0
  151.5849  145.0505  160.3506 C   0  0  0  0  0  0  0  0  0  0  0  0
  150.7504  144.9724  159.2052 C   0  0  0  0  0  0  0  0  0  0  0  0
  150.7845  143.8392  158.3591 C   0  0  0  0  0  0  0  0  0  0  0  0
  151.6737  142.8063  158.7045 C   0  0  0  0  0  0  0  0  0  0  0  0
  148.9801  136.9976  159.4955 C   0  0  0  0  0  0  0  0  0  0  0  0
  146.6513  134.1414  161.6428 H   0  0  0  0  0  0  0  0  0  0  0  0
  146.9578  134.9383  163.1886 H   0  0  0  0  0  0  0  0  0  0  0  0
  148.2760  134.1115  162.3529 H   0  0  0  0  0  0  0  0  0  0  0  0
  147.7122  133.8360  159.8472 H   0  0  0  0  0  0  0  0  0  0  0  0
  148.6702  133.6204  157.5848 H   0  0  0  0  0  0  0  0  0  0  0  0
  149.8291  135.5389  156.5252 H   0  0  0  0  0  0  0  0  0  0  0  0
  149.6268  139.2023  159.0116 H   0  0  0  0  0  0  0  0  0  0  0  0
  151.3443  139.2565  158.5942 H   0  0  0  0  0  0  0  0  0  0  0  0
  149.6461  139.8128  156.2621 H   0  0  0  0  0  0  0  0  0  0  0  0
  149.3591  141.3663  158.5983 H   0  0  0  0  0  0  0  0  0  0  0  0
  152.0064  140.5591  156.2345 H   0  0  0  0  0  0  0  0  0  0  0  0
  151.0209  141.9847  156.2844 H   0  0  0  0  0  0  0  0  0  0  0  0
  153.7193  141.3118  161.8615 H   0  0  0  0  0  0  0  0  0  0  0  0
  154.9576  142.1922  160.9587 H   0  0  0  0  0  0  0  0  0  0  0  0
  154.7395  140.4610  160.7001 H   0  0  0  0  0  0  0  0  0  0  0  0
  153.1115  144.0495  161.5430 H   0  0  0  0  0  0  0  0  0  0  0  0
  151.5430  145.9258  160.9821 H   0  0  0  0  0  0  0  0  0  0  0  0
  150.0810  145.7883  158.9758 H   0  0  0  0  0  0  0  0  0  0  0  0
  150.1534  143.7760  157.4851 H   0  0  0  0  0  0  0  0  0  0  0  0
  149.0622  137.9330  160.0256 H   0  0  0  0  0  0  0  0  0  0  0  0
  1  2  1  0  0  0  0
  1 26  1  0  0  0  0
  1 27  1  0  0  0  0
  1 28  1  0  0  0  0
  2  3  2  0  0  0  0
  2  4  1  0  0  0  0
  4 25  1  0  0  0  0
  4  5  2  0  0  0  0
  5  6  1  0  0  0  0
  5 29  1  0  0  0  0
  6  7  2  0  0  0  0
  6 30  1  0  0  0  0
  7  8  1  0  0  0  0
  7 31  1  0  0  0  0
  8  9  1  0  0  0  0
  8 25  2  0  0  0  0
  9 10  1  0  0  0  0
 10 11  1  0  0  0  0
 10 32  1  0  0  0  0
 10 33  1  0  0  0  0
 11 12  1  0  0  0  0
 11 13  1  0  0  0  0
 11 34  1  0  0  0  0
 12 35  1  0  0  0  0
 13 14  1  0  0  0  0
 13 36  1  0  0  0  0
 13 37  1  0  0  0  0
 14 24  1  0  0  0  0
 14 15  1  0  0  0  0
 15 16  2  0  0  0  0
 15 17  1  0  0  0  0
 17 18  1  0  0  0  0
 17 19  1  0  0  0  0
 18 38  1  0  0  0  0
 18 39  1  0  0  0  0
 18 40  1  0  0  0  0
 19 24  2  0  0  0  0
 19 20  1  0  0  0  0
 20 21  2  0  0  0  0
 20 41  1  0  0  0  0
 21 22  1  0  0  0  0
 21 42  1  0  0  0  0
 22 23  2  0  0  0  0
 22 43  1  0  0  0  0
 23 24  1  0  0  0  0
 23 44  1  0  0  0  0
 25 45  1  0  0  0  0
M  END
> <s_m_source_file>
AV-unprocessed.smi

> <i_m_source_file_index>
1051

> <i_lp_mmshare_version>
43012

> <i_f3d_flags>
0

> <s_epik_input>
W0NIM11DKD1PKWMxW2NIXVtjSF1bY0hdYyhbY0hdMSlPW0NIMl1bQ0BIXShbT0hdKVtDSDJdbihjKD1PKW4yW0NIM10pYyhjMjMpW2NIXVtjSF1bY0hdW2NIXTM=

> <s_epik_cmdline>
J2VwaWtfcHl0aG9uJywgJy1waCcsICc3LjAnLCAnLXRuJywgJzgnLCAnLW1hJywgJzIwMCcsICctbWV0YWxfYmluZGluZycsICctaW1hZScsICc8aW5maWxlLm1hZT4nLCAnLW9tYWUnLCAnPG91dGZpbGUubWFlPic=

> <r_lp_tautomer_probability>
1

> <r_epik_Ionization_Penalty>
2.40143e-06

> <r_epik_Ionization_Penalty_Charging>
2.1343e-09

> <r_epik_Ionization_Penalty_Neutral>
2.3993e-06

> <r_epik_State_Penalty>
-0

> <r_epik_Charging_Adjusted_Penalty>
2.1343e-09

> <i_epik_Tot_Q>
0

> <i_epik_Tot_abs_Q>
0

> <r_epik_Metal_State_Penalty>
-0

> <b_epik_Metal_Only>
0

> <s_lp_Force_Field>
OPLS_2005

> <r_lp_Energy>
51.4738

> <b_lp_Chiralities_Consistent>
1

> <s_lp_Variant>
AV-unprocessed.smi:1051-2

> <Gold.Version>
5.8.1

> <Gold.Id.Protein>
6NUR|6NUR_protein|mol2

> <Gold.PLP.Fitness>
55.8086

> <Gold.PLP.PLP>
-51.4226

> <Gold.PLP.part.hbond>
-3.0000

> <Gold.PLP.part.metal>
0.0000

> <Gold.PLP.part.buried>
-6.5296

> <Gold.PLP.part.nonpolar>
-41.8347

> <Gold.PLP.part.repulsive>
0.0000

> <Gold.PLP.ligand.clash>
0.0000

> <Gold.PLP.ligand.torsion>
1.5622

> <Gold.PLP.Chemscore.Hbond>
2.4517

> <Gold.PLP.Chemscore.CHOScore>
0.0000

> <Gold.PLP.Chemscore.Metal>
0.0000

> <Gold.Chemscore.Hbonds>
donor molecule, donor type, donor heavy atom, donor atom, acceptor molecule, acceptor atom, score
      P1  H  6931  6943       L1     3  0.98
      P1  H  6934  6947       L1     3  0.32
      P1  H  7997  8008       L1    16  1.00

> <Gold.PLP.Chemscore.Internal.Correction>
0.1551

> <Gold.Rescore>
     Score         DG    S(hbond)    S(metal)    S(lipo)     H(rot)  DE(clash)    DE(int)     intcor
     20.27     -21.75       2.54        0.00     116.95       2.30       0.03       1.45       ----

> <Gold.Chemscore.Fitness>
20.2708

> <Gold.Chemscore.DG>
-21.7544

> <Gold.Chemscore.ZeroCoef>
-5.4800

> <Gold.Chemscore.Hbond>
2.5376

> <Gold.Chemscore.Metal>
0.0000

> <Gold.Chemscore.Lipo>
116.9457

> <Gold.Chemscore.Internal_Hbond>
0.0000

> <Gold.Chemscore.DEClash>
0.0330

> <Gold.Chemscore.DEInternal>
1.4505

> <Gold.Chemscore.Rot>
2.2984

> <Gold.Chemscore.Internal.Correction>
   9.000000E+99

> <Gold.Chemscore.Hbonds>
donor molecule, donor type, donor heavy atom, donor atom, acceptor molecule, acceptor atom, score
      P1  H  6931  6943       L1     3  0.76
      P1  H  6934  6947       L1     3  0.33
      P1  H  7997  8008       L1    16  0.72

> <Gold.Chemscore.Hbond.Weighted>
-8.4756

> <Gold.Chemscore.Metal.Weighted>
-0.0000

> <Gold.Chemscore.Lipo.Weighted>
-13.6826

> <Gold.Chemscore.Internal_Hbond.Weighted>
0.0000

> <Gold.Chemscore.DEClash.Weighted>
0.0330

> <Gold.Chemscore.DEInternal.Weighted>
1.4505

> <Gold.Chemscore.Rot.Weighted>
5.8839

> <Gold.Chemscore.Internal.Correction.Weighted>
   9.000000E+99

> <Gold.Protein.RotatedTorsions>
[ 6907 6896 6895 6894 ] final  -54.77 input  -60.11 | X-H torsion
[ 7974 7965 7964 7962 ] final  179.55 input  175.53 | X-H torsion
[ 8008 7997 7996 7995 ] final -101.96 input   59.86 | X-H torsion
[ 10167 10162 10161 10158 ] final -145.07 input  -65.29 | X-H torsion
[ 10718 10713 10712 10709 ] final  100.98 input   66.30 | X-H torsion
[ 10763 10752 10751 10750 ] final  -43.28 input  -60.55 | X-H torsion
[ 11005 11000 10999 10996 ] final    9.04 input  -57.11 | X-H torsion

> <Gold.Protein.ActiveResidues>
 VAL166  LYS551  ARG553  GLY616  TRP617  ASP618  TYR619  PRO620  LYS621  CYS622 
 ASP623  PHE694  ASN695  SER759  ASP760  ASP761  ALA762  ILE779  LEU786  VAL792 
 PHE793  MET794  SER795  GLU796  ALA797  LYS798  CYS799  TRP800  GLU811  SER814 

> <Gold.Protein.RotatedAtoms>
  150.8309  134.7562  159.6852 H   0  0  0  0  0  0  0  0  0  0  0  0  # atno 6907 bound_to 6896
  152.4414  134.5580  159.9896 H   0  0  0  0  0  0  0  0  0  0  0  0  # atno 6908 bound_to 6896
  151.5741  133.3348  159.3031 H   0  0  0  0  0  0  0  0  0  0  0  0  # atno 6909 bound_to 6896
  144.7144  140.0565  143.6434 H   0  0  0  0  0  0  0  0  0  0  0  0  # atno 7974 bound_to 7965
  154.8499  140.0431  157.1597 H   0  0  0  0  0  0  0  0  0  0  0  0  # atno 8008 bound_to 7997
  154.8954  140.2992  155.5327 H   0  0  0  0  0  0  0  0  0  0  0  0  # atno 8009 bound_to 7997
  156.2995  140.2385  156.3975 H   0  0  0  0  0  0  0  0  0  0  0  0  # atno 8010 bound_to 7997
  139.7840  143.8060  152.2642 H   0  0  0  0  0  0  0  0  0  0  0  0  # atno 10167 bound_to 10162
  157.6841  131.0713  150.5183 H   0  0  0  0  0  0  0  0  0  0  0  0  # atno 10718 bound_to 10713
  153.9929  135.6703  153.4755 H   0  0  0  0  0  0  0  0  0  0  0  0  # atno 10763 bound_to 10752
  153.0697  135.4981  154.8274 H   0  0  0  0  0  0  0  0  0  0  0  0  # atno 10764 bound_to 10752
  154.7098  135.3095  154.9176 H   0  0  0  0  0  0  0  0  0  0  0  0  # atno 10765 bound_to 10752
  140.5302  134.0474  155.7871 H   0  0  0  0  0  0  0  0  0  0  0  0  # atno 11005 bound_to 11000
  145.9900  139.3007  143.0990 LP  0  0  0  0  0  0  0  0  0  0  0  0  # atno 17320 bound_to 7965
  145.8913  140.9301  143.0550 LP  0  0  0  0  0  0  0  0  0  0  0  0  # atno 17321 bound_to 7965
  139.8132  144.7327  150.9670 LP  0  0  0  0  0  0  0  0  0  0  0  0  # atno 17342 bound_to 10162
  140.7819  143.4231  151.0811 LP  0  0  0  0  0  0  0  0  0  0  0  0  # atno 17343 bound_to 10162
  156.5497  130.4228  149.6113 LP  0  0  0  0  0  0  0  0  0  0  0  0  # atno 17370 bound_to 10713
  156.2913  130.7126  151.1975 LP  0  0  0  0  0  0  0  0  0  0  0  0  # atno 17371 bound_to 10713
  141.1285  133.9341  157.2584 LP  0  0  0  0  0  0  0  0  0  0  0  0  # atno 17394 bound_to 11000
  139.9558  135.0166  156.9124 LP  0  0  0  0  0  0  0  0  0  0  0  0  # atno 17395 bound_to 11000

$$$$
