AV-unprocessed.smi:1825|AV-procd|sdf|7413|dock2
  -GOLD-   22720 9 93D 1   1.00000     0.00000
 Structure written by MMmdl.
 34 35  0  0  0  0  0  0  0  0  1 V2000
  145.3775  137.8482  154.0669 O   0  0  0  0  0  0  0  0  0  0  0  0
  146.4129  137.4753  153.5146 C   0  0  0  0  0  0  0  0  0  0  0  0
  147.5983  138.0806  153.6738 N   0  0  0  0  0  0  0  0  0  0  0  0
  147.8301  139.2819  154.4724 C   0  0  0  0  0  0  0  0  0  0  0  0
  149.3231  139.6930  154.5427 C   0  0  0  0  0  0  0  0  0  0  0  0
  149.5627  140.5726  153.4591 O   0  0  0  0  0  0  0  0  0  0  0  0
  149.5786  140.4941  155.8423 C   0  0  0  0  0  0  0  0  0  0  0  0
  151.0569  140.8758  156.0382 C   0  0  0  0  0  0  0  0  0  0  0  0
  151.9637  139.6392  155.9789 C   0  0  0  0  0  0  0  0  0  0  0  0
  151.7659  138.8782  154.6608 C   0  0  0  0  0  0  0  0  0  0  0  0
  150.2922  138.4860  154.4499 C   0  0  0  0  0  0  0  0  0  0  0  0
  146.5131  136.4280  152.6776 N   0  0  0  0  0  0  0  0  0  0  0  0
  145.4896  135.5396  152.2564 C   0  0  0  0  0  0  0  0  0  0  0  0
  144.8194  134.7178  153.0728 N   0  0  0  0  0  0  0  0  0  0  0  0
  143.8707  133.9557  152.3866 C   0  0  0  0  0  0  0  0  0  0  0  0
  143.8322  134.2113  151.0385 C   0  0  0  0  0  0  0  0  0  0  0  0
  144.9936  135.4258  150.5742 S   0  0  0  0  0  0  0  0  0  0  0  0
  148.3951  137.7032  153.1828 H   0  0  0  0  0  0  0  0  0  0  0  0
  147.2098  140.1126  154.1304 H   0  0  0  0  0  0  0  0  0  0  0  0
  147.4758  139.0453  155.4762 H   0  0  0  0  0  0  0  0  0  0  0  0
  149.4336  140.0968  152.6532 H   0  0  0  0  0  0  0  0  0  0  0  0
  148.9620  141.3940  155.8593 H   0  0  0  0  0  0  0  0  0  0  0  0
  149.2622  139.8983  156.6998 H   0  0  0  0  0  0  0  0  0  0  0  0
  151.3606  141.5913  155.2730 H   0  0  0  0  0  0  0  0  0  0  0  0
  151.1832  141.3814  156.9958 H   0  0  0  0  0  0  0  0  0  0  0  0
  153.0073  139.9373  156.0836 H   0  0  0  0  0  0  0  0  0  0  0  0
  151.7428  138.9807  156.8200 H   0  0  0  0  0  0  0  0  0  0  0  0
  152.1059  139.4947  153.8278 H   0  0  0  0  0  0  0  0  0  0  0  0
  152.3897  137.9840  154.6532 H   0  0  0  0  0  0  0  0  0  0  0  0
  150.0153  137.7475  155.2036 H   0  0  0  0  0  0  0  0  0  0  0  0
  150.1955  137.9860  153.4855 H   0  0  0  0  0  0  0  0  0  0  0  0
  147.4279  136.2495  152.2903 H   0  0  0  0  0  0  0  0  0  0  0  0
  143.2636  133.2528  152.9378 H   0  0  0  0  0  0  0  0  0  0  0  0
  143.1939  133.7602  150.2936 H   0  0  0  0  0  0  0  0  0  0  0  0
  1  2  2  0  0  0  0
  2  3  1  0  0  0  0
  2 12  1  0  0  0  0
  3  4  1  0  0  0  0
  3 18  1  0  0  0  0
  4  5  1  0  0  0  0
  4 19  1  0  0  0  0
  4 20  1  0  0  0  0
  5 11  1  0  0  0  0
  5  6  1  0  0  0  0
  5  7  1  0  0  0  0
  6 21  1  0  0  0  0
  7  8  1  0  0  0  0
  7 22  1  0  0  0  0
  7 23  1  0  0  0  0
  8  9  1  0  0  0  0
  8 24  1  0  0  0  0
  8 25  1  0  0  0  0
  9 10  1  0  0  0  0
  9 26  1  0  0  0  0
  9 27  1  0  0  0  0
 10 11  1  0  0  0  0
 10 28  1  0  0  0  0
 10 29  1  0  0  0  0
 11 30  1  0  0  0  0
 11 31  1  0  0  0  0
 12 13  1  0  0  0  0
 12 32  1  0  0  0  0
 13 17  1  0  0  0  0
 13 14  2  0  0  0  0
 14 15  1  0  0  0  0
 15 16  2  0  0  0  0
 15 33  1  0  0  0  0
 16 17  1  0  0  0  0
 16 34  1  0  0  0  0
M  END
> <s_m_source_file>
AV-unprocessed.smi

> <i_m_source_file_index>
1825

> <i_lp_mmshare_version>
43012

> <i_f3d_flags>
0

> <s_epik_input>
czFbY0hdW2NIXW5jMVtOSF1DKD1PKVtOSF1bQ0gyXUMyKFtPSF0pW0NIMl1bQ0gyXVtDSDJdW0NIMl1bQ0gyXTI=

> <s_epik_cmdline>
J2VwaWtfcHl0aG9uJywgJy1waCcsICc3LjAnLCAnLXRuJywgJzgnLCAnLW1hJywgJzIwMCcsICctbWV0YWxfYmluZGluZycsICctaW1hZScsICc8aW5maWxlLm1hZT4nLCAnLW9tYWUnLCAnPG91dGZpbGUubWFlPic=

> <r_lp_tautomer_probability>
0.999

> <r_epik_Ionization_Penalty>
0.000358719

> <r_epik_Ionization_Penalty_Charging>
0

> <r_epik_Ionization_Penalty_Neutral>
0.000358719

> <r_epik_State_Penalty>
0.000177984

> <r_epik_Charging_Adjusted_Penalty>
0.000177984

> <i_epik_Tot_Q>
0

> <i_epik_Tot_abs_Q>
0

> <r_epik_Metal_State_Penalty>
0.00708714

> <b_epik_Metal_Only>
0

> <s_lp_Force_Field>
OPLS_2005

> <r_lp_Energy>
11.7205

> <b_lp_Chiralities_Consistent>
1

> <s_lp_Variant>
AV-unprocessed.smi:1825-1

> <Gold.Version>
5.8.1

> <Gold.Id.Protein>
6NUR|6NUR_protein|mol2

> <Gold.PLP.Fitness>
42.4952

> <Gold.PLP.PLP>
-28.3058

> <Gold.PLP.part.hbond>
-4.0562

> <Gold.PLP.part.metal>
0.0000

> <Gold.PLP.part.buried>
-3.0864

> <Gold.PLP.part.nonpolar>
-23.1821

> <Gold.PLP.part.repulsive>
0.2383

> <Gold.PLP.ligand.clash>
0.0000

> <Gold.PLP.ligand.torsion>
1.1311

> <Gold.PLP.Chemscore.Hbond>
3.4936

> <Gold.PLP.Chemscore.CHOScore>
1.9864

> <Gold.PLP.Chemscore.Metal>
0.0000

> <Gold.Chemscore.Hbonds>
donor molecule, donor type, donor heavy atom, donor atom, acceptor molecule, acceptor atom, score
      L1  H     3    18       P1  7948  0.84
      L1  H     6    21       P1  7957  0.89
      L1  H    12    32       P1  7948  1.00
      P1  H  7989  7998       L1     6  0.39
      P1  H  8011  8017       L1     6  0.32
      L1  C    15    33       P1 10957  1.00
      L1  C    16    34       P1 10186  0.98

> <Gold.PLP.Chemscore.Internal.Correction>
0.0117

> <Gold.Rescore>
     Score         DG    S(hbond)    S(metal)    S(lipo)     H(rot)  DE(clash)    DE(int)     intcor
     17.90     -19.27       3.37        0.00      62.20       1.86       0.30       1.07       ----

> <Gold.Chemscore.Fitness>
17.8953

> <Gold.Chemscore.DG>
-19.2678

> <Gold.Chemscore.ZeroCoef>
-5.4800

> <Gold.Chemscore.Hbond>
3.3729

> <Gold.Chemscore.Metal>
0.0000

> <Gold.Chemscore.Lipo>
62.1950

> <Gold.Chemscore.Internal_Hbond>
0.0000

> <Gold.Chemscore.DEClash>
0.2988

> <Gold.Chemscore.DEInternal>
1.0737

> <Gold.Chemscore.Rot>
1.8572

> <Gold.Chemscore.Internal.Correction>
   9.000000E+99

> <Gold.Chemscore.Hbonds>
donor molecule, donor type, donor heavy atom, donor atom, acceptor molecule, acceptor atom, score
      L1  H     3    18       P1  7948  0.79
      L1  H     6    21       P1  7957  0.82
      L1  H    12    32       P1  7948  0.97
      P1  H  7989  7998       L1     6  0.07
      P1  H  8011  8017       L1     6  0.01

> <Gold.Chemscore.Hbond.Weighted>
-11.2655

> <Gold.Chemscore.Metal.Weighted>
-0.0000

> <Gold.Chemscore.Lipo.Weighted>
-7.2768

> <Gold.Chemscore.Internal_Hbond.Weighted>
0.0000

> <Gold.Chemscore.DEClash.Weighted>
0.2988

> <Gold.Chemscore.DEInternal.Weighted>
1.0737

> <Gold.Chemscore.Rot.Weighted>
4.7545

> <Gold.Chemscore.Internal.Correction.Weighted>
   9.000000E+99

> <Gold.Protein.RotatedTorsions>
[ 6907 6896 6895 6894 ] final  139.02 input  -60.11 | X-H torsion
[ 7974 7965 7964 7962 ] final   20.71 input  175.53 | X-H torsion
[ 8008 7997 7996 7995 ] final  -46.25 input   59.86 | X-H torsion
[ 10167 10162 10161 10158 ] final  -60.18 input  -65.29 | X-H torsion
[ 10718 10713 10712 10709 ] final -110.24 input   66.30 | X-H torsion
[ 10763 10752 10751 10750 ] final  129.00 input  -60.55 | X-H torsion
[ 11005 11000 10999 10996 ] final -104.35 input  -57.11 | X-H torsion

> <Gold.Protein.ActiveResidues>
 VAL166  LYS551  ARG553  GLY616  TRP617  ASP618  TYR619  PRO620  LYS621  CYS622 
 ASP623  PHE694  ASN695  SER759  ASP760  ASP761  ALA762  ILE779  LEU786  VAL792 
 PHE793  MET794  SER795  GLU796  ALA797  LYS798  CYS799  TRP800  GLU811  SER814 

> <Gold.Protein.RotatedAtoms>
  152.2598  133.5287  159.5374 H   0  0  0  0  0  0  0  0  0  0  0  0  # atno 6907 bound_to 6896
  150.7121  134.0846  159.3919 H   0  0  0  0  0  0  0  0  0  0  0  0  # atno 6908 bound_to 6896
  151.8764  135.0470  160.0535 H   0  0  0  0  0  0  0  0  0  0  0  0  # atno 6909 bound_to 6896
  146.2101  139.8131  142.8696 H   0  0  0  0  0  0  0  0  0  0  0  0  # atno 7974 bound_to 7965
  154.4006  140.1376  156.3980 H   0  0  0  0  0  0  0  0  0  0  0  0  # atno 8008 bound_to 7997
  155.7851  140.3480  155.5298 H   0  0  0  0  0  0  0  0  0  0  0  0  # atno 8009 bound_to 7997
  155.8635  140.0960  157.1588 H   0  0  0  0  0  0  0  0  0  0  0  0  # atno 8010 bound_to 7997
  140.6087  143.2381  151.5759 H   0  0  0  0  0  0  0  0  0  0  0  0  # atno 10167 bound_to 10162
  156.0580  130.5805  150.8210 H   0  0  0  0  0  0  0  0  0  0  0  0  # atno 10718 bound_to 10713
  153.7347  135.3233  155.3292 H   0  0  0  0  0  0  0  0  0  0  0  0  # atno 10763 bound_to 10752
  154.8314  135.4530  154.1087 H   0  0  0  0  0  0  0  0  0  0  0  0  # atno 10764 bound_to 10752
  153.2244  135.6952  153.8043 H   0  0  0  0  0  0  0  0  0  0  0  0  # atno 10765 bound_to 10752
  141.1104  133.8716  157.1600 H   0  0  0  0  0  0  0  0  0  0  0  0  # atno 11005 bound_to 11000
  145.3175  141.0235  143.3519 LP  0  0  0  0  0  0  0  0  0  0  0  0  # atno 17320 bound_to 7965
  144.8891  139.4799  143.6686 LP  0  0  0  0  0  0  0  0  0  0  0  0  # atno 17321 bound_to 7965
  139.5345  144.2821  152.1221 LP  0  0  0  0  0  0  0  0  0  0  0  0  # atno 17342 bound_to 10162
  140.2016  144.4652  150.6429 LP  0  0  0  0  0  0  0  0  0  0  0  0  # atno 17343 bound_to 10162
  157.5566  131.0945  150.9619 LP  0  0  0  0  0  0  0  0  0  0  0  0  # atno 17370 bound_to 10713
  156.9867  130.5547  149.5300 LP  0  0  0  0  0  0  0  0  0  0  0  0  # atno 17371 bound_to 10713
  139.9995  135.0033  157.0159 LP  0  0  0  0  0  0  0  0  0  0  0  0  # atno 17394 bound_to 11000
  140.4789  134.1309  155.7214 LP  0  0  0  0  0  0  0  0  0  0  0  0  # atno 17395 bound_to 11000

$$$$
