AV-unprocessed.smi:257|AV-procd|sdf|1964|dock5
  -GOLD-   2262021113D 1   1.00000     0.00000
 Structure written by MMmdl.
 50 53  0  0  0  0  0  0  0  0  1 V2000
  154.7746  140.6377  161.6549 C   0  0  0  0  0  0  0  0  0  0  0  0
  153.7014  141.4531  161.1079 N   0  0  0  0  0  0  0  0  0  0  0  0
  153.2912  141.4022  159.8327 C   0  0  0  0  0  0  0  0  0  0  0  0
  153.7980  140.6585  158.9916 O   0  0  0  0  0  0  0  0  0  0  0  0
  152.1434  142.3483  159.4517 C   0  0  1  0  0  0  0  0  0  0  0  0
  152.4646  143.8100  159.7907 C   0  0  0  0  0  0  0  0  0  0  0  0
  151.5760  144.5873  158.8282 C   0  0  0  0  0  0  0  0  0  0  0  0
  151.6034  143.7244  157.5671 C   0  0  0  0  0  0  0  0  0  0  0  0
  151.8926  142.3627  158.0084 N   0  0  0  0  0  0  0  0  0  0  0  0
  151.0507  141.4041  157.5625 C   0  0  0  0  0  0  0  0  0  0  0  0
  149.7669  141.4556  157.9929 N   0  0  0  0  0  0  0  0  0  0  0  0
  148.8859  140.5422  157.5735 C   0  0  0  0  0  0  0  0  0  0  0  0
  149.0773  139.5183  156.7383 N   0  0  0  0  0  0  0  0  0  0  0  0
  150.3687  139.4685  156.3018 C   0  0  0  0  0  0  0  0  0  0  0  0
  151.4140  140.3633  156.6626 C   0  0  0  0  0  0  0  0  0  0  0  0
  152.5926  140.0020  156.0211 N   0  0  0  0  0  0  0  0  0  0  0  0
  152.2627  138.9510  155.3212 C   0  0  0  0  0  0  0  0  0  0  0  0
  150.9437  138.5687  155.4213 N   0  0  0  0  0  0  0  0  0  0  0  0
  150.3079  137.4484  154.7452 C   0  0  0  0  0  0  0  0  0  0  0  0
  150.3852  136.1162  155.5316 C   0  0  0  0  0  0  0  0  0  0  0  0
  151.7129  135.9719  156.0071 O   0  0  0  0  0  0  0  0  0  0  0  0
  149.4359  136.1529  156.7460 C   0  0  0  0  0  0  0  0  0  0  0  0
  149.3539  134.7918  157.4597 C   0  0  0  0  0  0  0  0  0  0  0  0
  148.9696  133.7806  156.5359 O   0  0  0  0  0  0  0  0  0  0  0  0
  149.9208  133.6000  155.4939 C   0  0  0  0  0  0  0  0  0  0  0  0
  150.0429  134.8877  154.6599 C   0  0  0  0  0  0  0  0  0  0  0  0
  154.9022  140.8536  162.7155 H   0  0  0  0  0  0  0  0  0  0  0  0
  155.7177  140.8466  161.1483 H   0  0  0  0  0  0  0  0  0  0  0  0
  154.5494  139.5757  161.5477 H   0  0  0  0  0  0  0  0  0  0  0  0
  153.2395  142.0936  161.7372 H   0  0  0  0  0  0  0  0  0  0  0  0
  151.2374  142.0520  159.9849 H   0  0  0  0  0  0  0  0  0  0  0  0
  152.2613  144.0534  160.8340 H   0  0  0  0  0  0  0  0  0  0  0  0
  153.5125  144.0409  159.5891 H   0  0  0  0  0  0  0  0  0  0  0  0
  150.5603  144.6347  159.2231 H   0  0  0  0  0  0  0  0  0  0  0  0
  151.9202  145.6070  158.6545 H   0  0  0  0  0  0  0  0  0  0  0  0
  150.6775  143.8186  156.9970 H   0  0  0  0  0  0  0  0  0  0  0  0
  152.4172  144.0409  156.9141 H   0  0  0  0  0  0  0  0  0  0  0  0
  147.8833  140.6490  157.9607 H   0  0  0  0  0  0  0  0  0  0  0  0
  152.9756  138.4262  154.7016 H   0  0  0  0  0  0  0  0  0  0  0  0
  149.2675  137.7139  154.5514 H   0  0  0  0  0  0  0  0  0  0  0  0
  150.7771  137.3329  153.7673 H   0  0  0  0  0  0  0  0  0  0  0  0
  151.6832  135.5574  156.8558 H   0  0  0  0  0  0  0  0  0  0  0  0
  149.7445  136.9264  157.4506 H   0  0  0  0  0  0  0  0  0  0  0  0
  148.4341  136.4269  156.4124 H   0  0  0  0  0  0  0  0  0  0  0  0
  150.3056  134.5327  157.9258 H   0  0  0  0  0  0  0  0  0  0  0  0
  148.6139  134.8349  158.2589 H   0  0  0  0  0  0  0  0  0  0  0  0
  150.8855  133.3094  155.9125 H   0  0  0  0  0  0  0  0  0  0  0  0
  149.5925  132.7764  154.8596 H   0  0  0  0  0  0  0  0  0  0  0  0
  149.0929  135.0617  154.1527 H   0  0  0  0  0  0  0  0  0  0  0  0
  150.7873  134.7451  153.8758 H   0  0  0  0  0  0  0  0  0  0  0  0
  1  2  1  0  0  0  0
  1 27  1  0  0  0  0
  1 28  1  0  0  0  0
  1 29  1  0  0  0  0
  2  3  1  0  0  0  0
  2 30  1  0  0  0  0
  3  4  2  0  0  0  0
  3  5  1  0  0  0  0
  5  9  1  0  0  0  0
  5  6  1  0  0  0  0
  5 31  1  0  0  0  0
  6  7  1  0  0  0  0
  6 32  1  0  0  0  0
  6 33  1  0  0  0  0
  7  8  1  0  0  0  0
  7 34  1  0  0  0  0
  7 35  1  0  0  0  0
  8  9  1  0  0  0  0
  8 36  1  0  0  0  0
  8 37  1  0  0  0  0
  9 10  1  0  0  0  0
 10 15  1  0  0  0  0
 10 11  2  0  0  0  0
 11 12  1  0  0  0  0
 12 13  2  0  0  0  0
 12 38  1  0  0  0  0
 13 14  1  0  0  0  0
 14 18  1  0  0  0  0
 14 15  2  0  0  0  0
 15 16  1  0  0  0  0
 16 17  2  0  0  0  0
 17 18  1  0  0  0  0
 17 39  1  0  0  0  0
 18 19  1  0  0  0  0
 19 20  1  0  0  0  0
 19 40  1  0  0  0  0
 19 41  1  0  0  0  0
 20 26  1  0  0  0  0
 20 21  1  0  0  0  0
 20 22  1  0  0  0  0
 21 42  1  0  0  0  0
 22 23  1  0  0  0  0
 22 43  1  0  0  0  0
 22 44  1  0  0  0  0
 23 24  1  0  0  0  0
 23 45  1  0  0  0  0
 23 46  1  0  0  0  0
 24 25  1  0  0  0  0
 25 26  1  0  0  0  0
 25 47  1  0  0  0  0
 25 48  1  0  0  0  0
 26 49  1  0  0  0  0
 26 50  1  0  0  0  0
M  END
> <s_m_source_file>
AV-unprocessed.smi

> <i_m_source_file_index>
257

> <i_lp_mmshare_version>
43012

> <i_f3d_flags>
0

> <s_epik_input>
W0NIM11bTkhdQyg9TylbQ0BASF0xW0NIMl1bQ0gyXVtDSDJdTjFjKG5bY0hdbjIpYyhjMjMpbltjSF1uM1tDSDJdQzQoW09IXSlbQ0gyXVtDSDJdT1tDSDJdW0NIMl00

> <s_epik_cmdline>
J2VwaWtfcHl0aG9uJywgJy1waCcsICc3LjAnLCAnLXRuJywgJzgnLCAnLW1hJywgJzIwMCcsICctbWV0YWxfYmluZGluZycsICctaW1hZScsICc8aW5maWxlLm1hZT4nLCAnLW9tYWUnLCAnPG91dGZpbGUubWFlPic=

> <r_lp_tautomer_probability>
1

> <r_epik_Ionization_Penalty>
0.000951012

> <r_epik_Ionization_Penalty_Charging>
0

> <r_epik_Ionization_Penalty_Neutral>
0.000951012

> <r_epik_State_Penalty>
0.000495984

> <r_epik_Charging_Adjusted_Penalty>
0.000495984

> <i_epik_Tot_Q>
0

> <i_epik_Tot_abs_Q>
0

> <r_epik_Metal_State_Penalty>
-0

> <b_epik_Metal_Only>
0

> <s_lp_Force_Field>
OPLS_2005

> <r_lp_Energy>
37.7708

> <b_lp_Chiralities_Consistent>
1

> <s_lp_Variant>
AV-unprocessed.smi:257-2

> <Gold.Version>
5.8.1

> <Gold.Id.Protein>
6NUR|6NUR_protein|mol2

> <Gold.PLP.Fitness>
46.1813

> <Gold.PLP.PLP>
-41.3429

> <Gold.PLP.part.hbond>
-2.9352

> <Gold.PLP.part.metal>
0.0000

> <Gold.PLP.part.buried>
-3.0188

> <Gold.PLP.part.nonpolar>
-35.6989

> <Gold.PLP.part.repulsive>
0.1255

> <Gold.PLP.ligand.clash>
0.0000

> <Gold.PLP.ligand.torsion>
0.6533

> <Gold.PLP.Chemscore.Hbond>
2.0000

> <Gold.PLP.Chemscore.CHOScore>
0.0000

> <Gold.PLP.Chemscore.Metal>
0.0000

> <Gold.Chemscore.Hbonds>
donor molecule, donor type, donor heavy atom, donor atom, acceptor molecule, acceptor atom, score
      P1  H  7997  8010       L1    16  1.00
      P1  H 10752 10764       L1    21  1.00

> <Gold.PLP.Chemscore.Internal.Correction>
0.1450

> <Gold.Rescore>
     Score         DG    S(hbond)    S(metal)    S(lipo)     H(rot)  DE(clash)    DE(int)     intcor
     14.68     -15.46       1.96        0.00      87.38       2.65       0.01       0.77       ----

> <Gold.Chemscore.Fitness>
14.6844

> <Gold.Chemscore.DG>
-15.4612

> <Gold.Chemscore.ZeroCoef>
-5.4800

> <Gold.Chemscore.Hbond>
1.9574

> <Gold.Chemscore.Metal>
0.0000

> <Gold.Chemscore.Lipo>
87.3758

> <Gold.Chemscore.Internal_Hbond>
0.0000

> <Gold.Chemscore.DEClash>
0.0098

> <Gold.Chemscore.DEInternal>
0.7671

> <Gold.Chemscore.Rot>
2.6482

> <Gold.Chemscore.Internal.Correction>
   9.000000E+99

> <Gold.Chemscore.Hbonds>
donor molecule, donor type, donor heavy atom, donor atom, acceptor molecule, acceptor atom, score
      P1  H  7997  8010       L1    16  0.88
      P1  H 10752 10764       L1    21  0.85

> <Gold.Chemscore.Hbond.Weighted>
-6.5376

> <Gold.Chemscore.Metal.Weighted>
-0.0000

> <Gold.Chemscore.Lipo.Weighted>
-10.2230

> <Gold.Chemscore.Internal_Hbond.Weighted>
0.0000

> <Gold.Chemscore.DEClash.Weighted>
0.0098

> <Gold.Chemscore.DEInternal.Weighted>
0.7671

> <Gold.Chemscore.Rot.Weighted>
6.7793

> <Gold.Chemscore.Internal.Correction.Weighted>
   9.000000E+99

> <Gold.Protein.RotatedTorsions>
[ 6907 6896 6895 6894 ] final  -38.32 input  -60.11 | X-H torsion
[ 7974 7965 7964 7962 ] final -136.48 input  175.53 | X-H torsion
[ 8008 7997 7996 7995 ] final   66.23 input   59.86 | X-H torsion
[ 10167 10162 10161 10158 ] final  159.02 input  -65.29 | X-H torsion
[ 10718 10713 10712 10709 ] final  -76.22 input   66.30 | X-H torsion
[ 10763 10752 10751 10750 ] final  -31.54 input  -60.55 | X-H torsion
[ 11005 11000 10999 10996 ] final   77.52 input  -57.11 | X-H torsion

> <Gold.Protein.ActiveResidues>
 VAL166  LYS551  ARG553  GLY616  TRP617  ASP618  TYR619  PRO620  LYS621  CYS622 
 ASP623  PHE694  ASN695  SER759  ASP760  ASP761  ALA762  ILE779  LEU786  VAL792 
 PHE793  MET794  SER795  GLU796  ALA797  LYS798  CYS799  TRP800  GLU811  SER814 

> <Gold.Protein.RotatedAtoms>
  151.0038  134.9343  159.7968 H   0  0  0  0  0  0  0  0  0  0  0  0  # atno 6907 bound_to 6896
  152.5285  134.3118  159.9126 H   0  0  0  0  0  0  0  0  0  0  0  0  # atno 6908 bound_to 6896
  151.3124  133.4033  159.2682 H   0  0  0  0  0  0  0  0  0  0  0  0  # atno 6909 bound_to 6896
  144.8923  140.6659  143.5137 H   0  0  0  0  0  0  0  0  0  0  0  0  # atno 7974 bound_to 7965
  155.6741  140.3497  155.4830 H   0  0  0  0  0  0  0  0  0  0  0  0  # atno 8008 bound_to 7997
  155.9663  140.1147  157.0874 H   0  0  0  0  0  0  0  0  0  0  0  0  # atno 8009 bound_to 7997
  154.4155  140.1166  156.5232 H   0  0  0  0  0  0  0  0  0  0  0  0  # atno 8010 bound_to 7997
  139.4830  144.4770  151.8498 H   0  0  0  0  0  0  0  0  0  0  0  0  # atno 10167 bound_to 10162
  156.0182  130.4460  150.3161 H   0  0  0  0  0  0  0  0  0  0  0  0  # atno 10718 bound_to 10713
  153.7991  135.6891  153.4858 H   0  0  0  0  0  0  0  0  0  0  0  0  # atno 10763 bound_to 10752
  153.1700  135.4546  154.9888 H   0  0  0  0  0  0  0  0  0  0  0  0  # atno 10764 bound_to 10752
  154.8014  135.3339  154.7481 H   0  0  0  0  0  0  0  0  0  0  0  0  # atno 10765 bound_to 10752
  139.9251  134.7690  156.1533 H   0  0  0  0  0  0  0  0  0  0  0  0  # atno 11005 bound_to 11000
  145.3761  139.1647  143.4306 LP  0  0  0  0  0  0  0  0  0  0  0  0  # atno 17320 bound_to 7965
  146.3061  140.3838  142.8687 LP  0  0  0  0  0  0  0  0  0  0  0  0  # atno 17321 bound_to 7965
  140.4243  144.2202  150.5887 LP  0  0  0  0  0  0  0  0  0  0  0  0  # atno 17342 bound_to 10162
  140.4843  143.2368  151.8910 LP  0  0  0  0  0  0  0  0  0  0  0  0  # atno 17343 bound_to 10162
  157.1262  131.0259  151.2989 LP  0  0  0  0  0  0  0  0  0  0  0  0  # atno 17370 bound_to 10713
  157.4588  130.7641  149.7217 LP  0  0  0  0  0  0  0  0  0  0  0  0  # atno 17371 bound_to 10713
  141.0802  133.6758  156.2320 LP  0  0  0  0  0  0  0  0  0  0  0  0  # atno 17394 bound_to 11000
  140.6361  134.5214  157.5565 LP  0  0  0  0  0  0  0  0  0  0  0  0  # atno 17395 bound_to 11000

$$$$
