AV-unprocessed.smi:2221|AV-procd|sdf|8982|dock6
  -GOLD-   2272012193D 1   1.00000     0.00000
 Structure written by MMmdl.
 53 54  0  0  0  0  0  0  0  0  2 V2000
  151.9729  146.1959  159.7353 C   0  0  0  0  0  0  0  0  0  0  0  0
  151.9878  144.7232  159.3832 C   0  0  0  0  0  0  0  0  0  0  0  0
  152.6307  143.7934  160.2222 C   0  0  0  0  0  0  0  0  0  0  0  0
  152.6165  142.4365  159.8451 C   0  0  0  0  0  0  0  0  0  0  0  0
  153.2843  141.3843  160.7051 C   0  0  0  0  0  0  0  0  0  0  0  0
  152.0157  141.9906  158.7214 N   0  0  0  0  0  0  0  0  0  0  0  0
  151.3948  142.8770  157.9042 C   0  0  0  0  0  0  0  0  0  0  0  0
  150.7371  142.5109  156.6998 N   0  0  0  0  0  0  0  0  0  0  0  0
  150.5849  141.2811  156.1772 C   0  0  0  0  0  0  0  0  0  0  0  0
  151.0047  140.2366  156.6767 O   0  0  0  0  0  0  0  0  0  0  0  0
  149.9093  141.3254  155.0197 N   0  0  0  0  0  0  0  0  0  0  0  0
  149.5818  140.1660  154.1993 C   0  0  0  0  0  0  0  0  0  0  0  0
  148.6077  139.2228  154.9324 C   0  0  0  0  0  0  0  0  0  0  0  0
  147.8358  138.3957  154.0052 N   0  0  0  0  0  0  0  0  0  0  0  0
  147.2608  139.2606  152.9711 C   0  0  0  0  0  0  0  0  0  0  0  0
  146.5247  138.4197  151.9138 C   0  0  0  0  0  0  0  0  0  0  0  0
  145.4020  137.5919  152.5702 C   0  0  0  0  0  0  0  0  0  0  0  0
  144.6259  136.7448  151.6183 N   0  3  0  0  0  0  0  0  0  0  0  0
  143.3986  136.1225  152.1720 C   0  0  0  0  0  0  0  0  0  0  0  0
  145.4679  135.7570  150.9054 C   0  0  0  0  0  0  0  0  0  0  0  0
  145.9967  136.7715  153.7277 C   0  0  0  0  0  0  0  0  0  0  0  0
  146.7612  137.6823  154.7048 C   0  0  0  0  0  0  0  0  0  0  0  0
  151.3631  144.2567  158.2085 C   0  0  0  0  0  0  0  0  0  0  0  0
  151.8922  146.3331  160.8141 H   0  0  0  0  0  0  0  0  0  0  0  0
  151.1286  146.7012  159.2659 H   0  0  0  0  0  0  0  0  0  0  0  0
  152.8919  146.6735  159.3957 H   0  0  0  0  0  0  0  0  0  0  0  0
  153.1206  144.1123  161.1305 H   0  0  0  0  0  0  0  0  0  0  0  0
  154.0304  141.8317  161.3625 H   0  0  0  0  0  0  0  0  0  0  0  0
  153.7841  140.6387  160.0855 H   0  0  0  0  0  0  0  0  0  0  0  0
  152.5426  140.8770  161.3223 H   0  0  0  0  0  0  0  0  0  0  0  0
  150.3384  143.2744  156.1742 H   0  0  0  0  0  0  0  0  0  0  0  0
  149.5999  142.2248  154.6813 H   0  0  0  0  0  0  0  0  0  0  0  0
  149.1587  140.4907  153.2469 H   0  0  0  0  0  0  0  0  0  0  0  0
  150.5197  139.6628  153.9690 H   0  0  0  0  0  0  0  0  0  0  0  0
  149.1389  138.5957  155.6504 H   0  0  0  0  0  0  0  0  0  0  0  0
  147.9154  139.8374  155.5101 H   0  0  0  0  0  0  0  0  0  0  0  0
  146.5827  139.9874  153.4216 H   0  0  0  0  0  0  0  0  0  0  0  0
  148.0552  139.8259  152.4820 H   0  0  0  0  0  0  0  0  0  0  0  0
  146.1169  139.0780  151.1466 H   0  0  0  0  0  0  0  0  0  0  0  0
  147.2491  137.7723  151.4189 H   0  0  0  0  0  0  0  0  0  0  0  0
  144.6956  138.2902  153.0225 H   0  0  0  0  0  0  0  0  0  0  0  0
  143.6370  135.3438  152.8973 H   0  0  0  0  0  0  0  0  0  0  0  0
  142.8197  135.6601  151.3720 H   0  0  0  0  0  0  0  0  0  0  0  0
  142.7528  136.8561  152.6532 H   0  0  0  0  0  0  0  0  0  0  0  0
  145.8638  135.0060  151.5900 H   0  0  0  0  0  0  0  0  0  0  0  0
  146.3069  136.2446  150.4076 H   0  0  0  0  0  0  0  0  0  0  0  0
  144.8877  135.2427  150.1385 H   0  0  0  0  0  0  0  0  0  0  0  0
  145.2030  136.2480  154.2613 H   0  0  0  0  0  0  0  0  0  0  0  0
  146.6778  136.0065  153.3556 H   0  0  0  0  0  0  0  0  0  0  0  0
  147.1706  137.0636  155.5019 H   0  0  0  0  0  0  0  0  0  0  0  0
  146.0797  138.3946  155.1728 H   0  0  0  0  0  0  0  0  0  0  0  0
  150.8648  144.9519  157.5481 H   0  0  0  0  0  0  0  0  0  0  0  0
  144.3082  137.3818  150.9016 H   0  0  0  0  0  0  0  0  0  0  0  0
  1  2  1  0  0  0  0
  1 24  1  0  0  0  0
  1 25  1  0  0  0  0
  1 26  1  0  0  0  0
  2 23  1  0  0  0  0
  2  3  2  0  0  0  0
  3  4  1  0  0  0  0
  3 27  1  0  0  0  0
  4  5  1  0  0  0  0
  4  6  2  0  0  0  0
  5 28  1  0  0  0  0
  5 29  1  0  0  0  0
  5 30  1  0  0  0  0
  6  7  1  0  0  0  0
  7  8  1  0  0  0  0
  7 23  2  0  0  0  0
  8  9  1  0  0  0  0
  8 31  1  0  0  0  0
  9 10  2  0  0  0  0
  9 11  1  0  0  0  0
 11 12  1  0  0  0  0
 11 32  1  0  0  0  0
 12 13  1  0  0  0  0
 12 33  1  0  0  0  0
 12 34  1  0  0  0  0
 13 14  1  0  0  0  0
 13 35  1  0  0  0  0
 13 36  1  0  0  0  0
 14 22  1  0  0  0  0
 14 15  1  0  0  0  0
 15 16  1  0  0  0  0
 15 37  1  0  0  0  0
 15 38  1  0  0  0  0
 16 17  1  0  0  0  0
 16 39  1  0  0  0  0
 16 40  1  0  0  0  0
 17 18  1  0  0  0  0
 17 21  1  0  0  0  0
 17 41  1  0  0  0  0
 18 19  1  0  0  0  0
 18 20  1  0  0  0  0
 18 53  1  0  0  0  0
 19 42  1  0  0  0  0
 19 43  1  0  0  0  0
 19 44  1  0  0  0  0
 20 45  1  0  0  0  0
 20 46  1  0  0  0  0
 20 47  1  0  0  0  0
 21 22  1  0  0  0  0
 21 48  1  0  0  0  0
 21 49  1  0  0  0  0
 22 50  1  0  0  0  0
 22 51  1  0  0  0  0
 23 52  1  0  0  0  0
M  CHG  1  18   1
M  END
> <s_m_source_file>
AV-unprocessed.smi

> <i_m_source_file_index>
2221

> <i_lp_mmshare_version>
43012

> <i_f3d_flags>
0

> <s_epik_input>
W0NIM11jMVtjSF1jKFtDSDNdKW5jKFtjSF0xKVtOSF1DKD1PKVtOSF1bQ0gyXVtDSDJdTjJbQ0gyXVtDSDJdW0NIXShOKFtDSDNdKVtDSDNdKVtDSDJdW0NIMl0y

> <s_epik_cmdline>
J2VwaWtfcHl0aG9uJywgJy1waCcsICc3LjAnLCAnLXRuJywgJzgnLCAnLW1hJywgJzIwMCcsICctbWV0YWxfYmluZGluZycsICctaW1hZScsICc8aW5maWxlLm1hZT4nLCAnLW9tYWUnLCAnPG91dGZpbGUubWFlPic=

> <r_epik_Ionization_Penalty>
0.929621

> <r_epik_Ionization_Penalty_Charging>
0.000679816

> <r_epik_Ionization_Penalty_Neutral>
0.928941

> <r_epik_State_Penalty>
1.01912

> <r_epik_Charging_Adjusted_Penalty>
1.0198

> <i_epik_Tot_Q>
1

> <i_epik_Tot_abs_Q>
1

> <r_epik_Metal_State_Penalty>
1.01908

> <b_epik_Metal_Only>
0

> <s_lp_Force_Field>
OPLS_2005

> <r_lp_Energy>
22.8604

> <b_lp_Chiralities_Consistent>
1

> <s_lp_Variant>
AV-unprocessed.smi:2221-3

> <Gold.Version>
5.8.1

> <Gold.Id.Protein>
6NUR|6NUR_protein|mol2

> <Gold.PLP.Fitness>
52.0941

> <Gold.PLP.PLP>
-46.6483

> <Gold.PLP.part.hbond>
-1.9102

> <Gold.PLP.part.metal>
0.0000

> <Gold.PLP.part.buried>
-2.8372

> <Gold.PLP.part.nonpolar>
-42.7183

> <Gold.PLP.part.repulsive>
0.4602

> <Gold.PLP.ligand.clash>
0.0000

> <Gold.PLP.ligand.torsion>
0.2349

> <Gold.PLP.Chemscore.Hbond>
1.9425

> <Gold.PLP.Chemscore.CHOScore>
0.0000

> <Gold.PLP.Chemscore.Metal>
0.0000

> <Gold.Chemscore.Hbonds>
donor molecule, donor type, donor heavy atom, donor atom, acceptor molecule, acceptor atom, score
      L1  H     8    31       P1  8028  0.81
      L1  H    18    53       P1 10171  1.00

> <Gold.PLP.Chemscore.Internal.Correction>
0.0880

> <Gold.Rescore>
     Score         DG    S(hbond)    S(metal)    S(lipo)     H(rot)  DE(clash)    DE(int)     intcor
     18.77     -20.94       1.89        0.00     114.18       1.64       0.54       1.63       ----

> <Gold.Chemscore.Fitness>
18.7745

> <Gold.Chemscore.DG>
-20.9432

> <Gold.Chemscore.ZeroCoef>
-5.4800

> <Gold.Chemscore.Hbond>
1.8857

> <Gold.Chemscore.Metal>
0.0000

> <Gold.Chemscore.Lipo>
114.1826

> <Gold.Chemscore.Internal_Hbond>
0.0000

> <Gold.Chemscore.DEClash>
0.5429

> <Gold.Chemscore.DEInternal>
1.6258

> <Gold.Chemscore.Rot>
1.6385

> <Gold.Chemscore.Internal.Correction>
   9.000000E+99

> <Gold.Chemscore.Hbonds>
donor molecule, donor type, donor heavy atom, donor atom, acceptor molecule, acceptor atom, score
      L1  H     8    31       P1  8028  0.80
      L1  H    18    53       P1 10171  1.00

> <Gold.Chemscore.Hbond.Weighted>
-6.2983

> <Gold.Chemscore.Metal.Weighted>
-0.0000

> <Gold.Chemscore.Lipo.Weighted>
-13.3594

> <Gold.Chemscore.Internal_Hbond.Weighted>
0.0000

> <Gold.Chemscore.DEClash.Weighted>
0.5429

> <Gold.Chemscore.DEInternal.Weighted>
1.6258

> <Gold.Chemscore.Rot.Weighted>
4.1945

> <Gold.Chemscore.Internal.Correction.Weighted>
   9.000000E+99

> <Gold.Protein.RotatedTorsions>
[ 6907 6896 6895 6894 ] final   79.71 input  -60.11 | X-H torsion
[ 7974 7965 7964 7962 ] final   30.88 input  175.53 | X-H torsion
[ 8008 7997 7996 7995 ] final   52.96 input   59.86 | X-H torsion
[ 10167 10162 10161 10158 ] final  -86.14 input  -65.29 | X-H torsion
[ 10718 10713 10712 10709 ] final   76.20 input   66.30 | X-H torsion
[ 10763 10752 10751 10750 ] final -142.02 input  -60.55 | X-H torsion
[ 11005 11000 10999 10996 ] final   91.62 input  -57.11 | X-H torsion

> <Gold.Protein.ActiveResidues>
 VAL166  LYS551  ARG553  GLY616  TRP617  ASP618  TYR619  PRO620  LYS621  CYS622 
 ASP623  PHE694  ASN695  SER759  ASP760  ASP761  ALA762  ILE779  LEU786  VAL792 
 PHE793  MET794  SER795  GLU796  ALA797  LYS798  CYS799  TRP800  GLU811  SER814 

> <Gold.Protein.RotatedAtoms>
  152.5208  134.3470  159.9237 H   0  0  0  0  0  0  0  0  0  0  0  0  # atno 6907 bound_to 6896
  151.3420  133.3952  159.2680 H   0  0  0  0  0  0  0  0  0  0  0  0  # atno 6908 bound_to 6896
  150.9796  134.9172  159.7894 H   0  0  0  0  0  0  0  0  0  0  0  0  # atno 6909 bound_to 6896
  146.1584  139.6730  142.9050 H   0  0  0  0  0  0  0  0  0  0  0  0  # atno 7974 bound_to 7965
  155.4604  140.3461  155.4312 H   0  0  0  0  0  0  0  0  0  0  0  0  # atno 8008 bound_to 7997
  156.1164  140.1475  156.9295 H   0  0  0  0  0  0  0  0  0  0  0  0  # atno 8009 bound_to 7997
  154.4792  140.0875  156.7316 H   0  0  0  0  0  0  0  0  0  0  0  0  # atno 8010 bound_to 7997
  140.3970  143.2679  151.9191 H   0  0  0  0  0  0  0  0  0  0  0  0  # atno 10167 bound_to 10162
  157.6664  130.9763  150.1462 H   0  0  0  0  0  0  0  0  0  0  0  0  # atno 10718 bound_to 10713
  154.8524  135.3507  154.5962 H   0  0  0  0  0  0  0  0  0  0  0  0  # atno 10763 bound_to 10752
  153.6571  135.6991  153.5194 H   0  0  0  0  0  0  0  0  0  0  0  0  # atno 10764 bound_to 10752
  153.2847  135.4252  155.1069 H   0  0  0  0  0  0  0  0  0  0  0  0  # atno 10765 bound_to 10752
  139.8836  134.8685  156.3454 H   0  0  0  0  0  0  0  0  0  0  0  0  # atno 11005 bound_to 11000
  145.4649  141.0434  143.2730 LP  0  0  0  0  0  0  0  0  0  0  0  0  # atno 17320 bound_to 7965
  144.7994  139.6170  143.7078 LP  0  0  0  0  0  0  0  0  0  0  0  0  # atno 17321 bound_to 7965
  139.4786  144.5671  151.8148 LP  0  0  0  0  0  0  0  0  0  0  0  0  # atno 17342 bound_to 10162
  140.4779  144.1492  150.5928 LP  0  0  0  0  0  0  0  0  0  0  0  0  # atno 17343 bound_to 10162
  156.2272  130.3679  149.8486 LP  0  0  0  0  0  0  0  0  0  0  0  0  # atno 17370 bound_to 10713
  156.6323  130.8671  151.3497 LP  0  0  0  0  0  0  0  0  0  0  0  0  # atno 17371 bound_to 10713
  140.9630  133.7376  156.0428 LP  0  0  0  0  0  0  0  0  0  0  0  0  # atno 17394 bound_to 11000
  140.7966  134.3557  157.5451 LP  0  0  0  0  0  0  0  0  0  0  0  0  # atno 17395 bound_to 11000

$$$$
