AV-unprocessed.smi:1792|AV-procd|sdf|7223|dock7
  -GOLD-   22720 8463D 1   1.00000     0.00000
 Structure written by MMmdl.
 43 44  0  0  0  0  0  0  0  0  2 V2000
  148.5347  139.8059  153.7399 C   0  0  0  0  0  0  0  0  0  0  0  0
  147.0631  139.7328  153.2626 C   0  0  0  0  0  0  0  0  0  0  0  0
  147.0747  139.6196  151.7206 C   0  0  0  0  0  0  0  0  0  0  0  0
  146.4396  138.4283  153.8445 C   0  0  0  0  0  0  0  0  0  0  0  0
  146.7089  137.2330  153.0433 N   0  0  0  0  0  0  0  0  0  0  0  0
  145.7841  136.3747  152.5891 C   0  0  0  0  0  0  0  0  0  0  0  0
  144.5765  136.5163  152.7811 O   0  0  0  0  0  0  0  0  0  0  0  0
  146.3506  135.3628  151.9082 N   0  0  0  0  0  0  0  0  0  0  0  0
  145.7086  134.2679  151.2702 C   0  0  0  0  0  0  0  0  0  0  0  0
  146.5797  133.3073  150.7081 C   0  0  0  0  0  0  0  0  0  0  0  0
  146.0411  132.1816  150.0551 C   0  0  0  0  0  0  0  0  0  0  0  0
  144.6434  132.0463  149.9795 C   0  0  0  0  0  0  0  0  0  0  0  0
  143.8475  133.0496  150.5621 C   0  0  0  0  0  0  0  0  0  0  0  0
  144.3616  134.1291  151.1885 N   0  0  0  0  0  0  0  0  0  0  0  0
  146.2990  140.9470  153.7270 N   0  3  0  0  0  0  0  0  0  0  0  0
  145.9363  140.9773  155.1722 C   0  0  0  0  0  0  0  0  0  0  0  0
  145.0204  142.1755  155.4759 C   0  0  0  0  0  0  0  0  0  0  0  0
  145.6572  143.3834  155.0842 O   0  0  0  0  0  0  0  0  0  0  0  0
  145.9270  143.4063  153.6900 C   0  0  0  0  0  0  0  0  0  0  0  0
  146.8862  142.2590  153.3344 C   0  0  0  0  0  0  0  0  0  0  0  0
  149.0494  138.8568  153.5861 H   0  0  0  0  0  0  0  0  0  0  0  0
  148.6057  140.0464  154.8010 H   0  0  0  0  0  0  0  0  0  0  0  0
  149.1106  140.5519  153.1924 H   0  0  0  0  0  0  0  0  0  0  0  0
  147.6570  138.7549  151.4002 H   0  0  0  0  0  0  0  0  0  0  0  0
  147.5212  140.4940  151.2472 H   0  0  0  0  0  0  0  0  0  0  0  0
  146.0743  139.4931  151.3075 H   0  0  0  0  0  0  0  0  0  0  0  0
  146.8285  138.2348  154.8441 H   0  0  0  0  0  0  0  0  0  0  0  0
  145.3651  138.5516  153.9927 H   0  0  0  0  0  0  0  0  0  0  0  0
  147.6778  137.0270  152.8488 H   0  0  0  0  0  0  0  0  0  0  0  0
  147.3576  135.3708  151.8428 H   0  0  0  0  0  0  0  0  0  0  0  0
  147.6514  133.4254  150.7761 H   0  0  0  0  0  0  0  0  0  0  0  0
  146.6896  131.4353  149.6205 H   0  0  0  0  0  0  0  0  0  0  0  0
  144.1935  131.1964  149.4880 H   0  0  0  0  0  0  0  0  0  0  0  0
  142.7701  132.9844  150.5244 H   0  0  0  0  0  0  0  0  0  0  0  0
  145.4046  140.0762  155.4718 H   0  0  0  0  0  0  0  0  0  0  0  0
  146.8361  141.0409  155.7846 H   0  0  0  0  0  0  0  0  0  0  0  0
  144.0620  142.0722  154.9643 H   0  0  0  0  0  0  0  0  0  0  0  0
  144.8060  142.2216  156.5437 H   0  0  0  0  0  0  0  0  0  0  0  0
  144.9983  143.3300  153.1219 H   0  0  0  0  0  0  0  0  0  0  0  0
  146.3782  144.3654  153.4346 H   0  0  0  0  0  0  0  0  0  0  0  0
  147.8364  142.4149  153.8460 H   0  0  0  0  0  0  0  0  0  0  0  0
  147.0864  142.3037  152.2656 H   0  0  0  0  0  0  0  0  0  0  0  0
  145.4172  140.8915  153.2379 H   0  0  0  0  0  0  0  0  0  0  0  0
  1  2  1  0  0  0  0
  1 21  1  0  0  0  0
  1 22  1  0  0  0  0
  1 23  1  0  0  0  0
  2  3  1  0  0  0  0
  2  4  1  0  0  0  0
  2 15  1  0  0  0  0
  3 24  1  0  0  0  0
  3 25  1  0  0  0  0
  3 26  1  0  0  0  0
  4  5  1  0  0  0  0
  4 27  1  0  0  0  0
  4 28  1  0  0  0  0
  5  6  1  0  0  0  0
  5 29  1  0  0  0  0
  6  7  2  0  0  0  0
  6  8  1  0  0  0  0
  8  9  1  0  0  0  0
  8 30  1  0  0  0  0
  9 14  1  0  0  0  0
  9 10  2  0  0  0  0
 10 11  1  0  0  0  0
 10 31  1  0  0  0  0
 11 12  2  0  0  0  0
 11 32  1  0  0  0  0
 12 13  1  0  0  0  0
 12 33  1  0  0  0  0
 13 14  2  0  0  0  0
 13 34  1  0  0  0  0
 15 20  1  0  0  0  0
 15 16  1  0  0  0  0
 15 43  1  0  0  0  0
 16 17  1  0  0  0  0
 16 35  1  0  0  0  0
 16 36  1  0  0  0  0
 17 18  1  0  0  0  0
 17 37  1  0  0  0  0
 17 38  1  0  0  0  0
 18 19  1  0  0  0  0
 19 20  1  0  0  0  0
 19 39  1  0  0  0  0
 19 40  1  0  0  0  0
 20 41  1  0  0  0  0
 20 42  1  0  0  0  0
M  CHG  1  15   1
M  END
> <s_m_source_file>
AV-unprocessed.smi

> <i_m_source_file_index>
1792

> <i_lp_mmshare_version>
43012

> <i_f3d_flags>
0

> <s_epik_input>
W0NIMl0xW0NIMl1PW0NIMl1bQ0gyXU4xQyhbQ0gzXSkoW0NIM10pW0NIMl1bTkhdQyg9TylbTkhdYzJbY0hdW2NIXVtjSF1bY0hdbjI=

> <s_epik_cmdline>
J2VwaWtfcHl0aG9uJywgJy1waCcsICc3LjAnLCAnLXRuJywgJzgnLCAnLW1hJywgJzIwMCcsICctbWV0YWxfYmluZGluZycsICctaW1hZScsICc8aW5maWxlLm1hZT4nLCAnLW9tYWUnLCAnPG91dGZpbGUubWFlPic=

> <r_epik_Ionization_Penalty>
0.602565

> <r_epik_Ionization_Penalty_Charging>
0.602531

> <r_epik_Ionization_Penalty_Neutral>
3.47415e-05

> <r_epik_State_Penalty>
0.617039

> <r_epik_Charging_Adjusted_Penalty>
1.21957

> <i_epik_Tot_Q>
1

> <i_epik_Tot_abs_Q>
1

> <r_epik_Metal_State_Penalty>
0.617041

> <b_epik_Metal_Only>
0

> <s_lp_Force_Field>
OPLS_2005

> <r_lp_Energy>
32.7628

> <b_lp_Chiralities_Consistent>
1

> <s_lp_Variant>
AV-unprocessed.smi:1792-2

> <Gold.Version>
5.8.1

> <Gold.Id.Protein>
6NUR|6NUR_protein|mol2

> <Gold.PLP.Fitness>
47.2890

> <Gold.PLP.PLP>
-33.5194

> <Gold.PLP.part.hbond>
-3.0000

> <Gold.PLP.part.metal>
0.0000

> <Gold.PLP.part.buried>
-2.5760

> <Gold.PLP.part.nonpolar>
-29.2035

> <Gold.PLP.part.repulsive>
0.4983

> <Gold.PLP.ligand.clash>
0.0000

> <Gold.PLP.ligand.torsion>
0.6496

> <Gold.PLP.Chemscore.Hbond>
4.0000

> <Gold.PLP.Chemscore.CHOScore>
0.9934

> <Gold.PLP.Chemscore.Metal>
0.0000

> <Gold.Chemscore.Hbonds>
donor molecule, donor type, donor heavy atom, donor atom, acceptor molecule, acceptor atom, score
      L1  H     5    29       P1  7948  1.00
      L1  H     8    30       P1  7948  1.00
      L1  H    15    43       P1 10175  2.00
      L1  C    13    34       P1 10186  1.00

> <Gold.PLP.Chemscore.Internal.Correction>
0.0886

> <Gold.Rescore>
     Score         DG    S(hbond)    S(metal)    S(lipo)     H(rot)  DE(clash)    DE(int)     intcor
     17.63     -20.76       2.89        0.00      82.06       1.55       1.22       1.90       ----

> <Gold.Chemscore.Fitness>
17.6315

> <Gold.Chemscore.DG>
-20.7570

> <Gold.Chemscore.ZeroCoef>
-5.4800

> <Gold.Chemscore.Hbond>
2.8855

> <Gold.Chemscore.Metal>
0.0000

> <Gold.Chemscore.Lipo>
82.0633

> <Gold.Chemscore.Internal_Hbond>
0.0000

> <Gold.Chemscore.DEClash>
1.2248

> <Gold.Chemscore.DEInternal>
1.9007

> <Gold.Chemscore.Rot>
1.5476

> <Gold.Chemscore.Internal.Correction>
   9.000000E+99

> <Gold.Chemscore.Hbonds>
donor molecule, donor type, donor heavy atom, donor atom, acceptor molecule, acceptor atom, score
      L1  H     5    29       P1  7948  0.95
      L1  H     8    30       P1  7948  0.96
      L1  H    15    43       P1 10175  0.60

> <Gold.Chemscore.Hbond.Weighted>
-9.6375

> <Gold.Chemscore.Metal.Weighted>
-0.0000

> <Gold.Chemscore.Lipo.Weighted>
-9.6014

> <Gold.Chemscore.Internal_Hbond.Weighted>
0.0000

> <Gold.Chemscore.DEClash.Weighted>
1.2248

> <Gold.Chemscore.DEInternal.Weighted>
1.9007

> <Gold.Chemscore.Rot.Weighted>
3.9619

> <Gold.Chemscore.Internal.Correction.Weighted>
   9.000000E+99

> <Gold.Protein.RotatedTorsions>
[ 6907 6896 6895 6894 ] final  -18.91 input  -60.11 | X-H torsion
[ 7974 7965 7964 7962 ] final -161.97 input  175.53 | X-H torsion
[ 8008 7997 7996 7995 ] final  139.01 input   59.86 | X-H torsion
[ 10167 10162 10161 10158 ] final   55.44 input  -65.29 | X-H torsion
[ 10718 10713 10712 10709 ] final   97.65 input   66.30 | X-H torsion
[ 10763 10752 10751 10750 ] final  -44.07 input  -60.55 | X-H torsion
[ 11005 11000 10999 10996 ] final -108.09 input  -57.11 | X-H torsion

> <Gold.Protein.ActiveResidues>
 VAL166  LYS551  ARG553  GLY616  TRP617  ASP618  TYR619  PRO620  LYS621  CYS622 
 ASP623  PHE694  ASN695  SER759  ASP760  ASP761  ALA762  ILE779  LEU786  VAL792 
 PHE793  MET794  SER795  GLU796  ALA797  LYS798  CYS799  TRP800  GLU811  SER814 

> <Gold.Protein.RotatedAtoms>
  151.2710  135.0684  159.9133 H   0  0  0  0  0  0  0  0  0  0  0  0  # atno 6907 bound_to 6896
  152.5350  134.0131  159.7957 H   0  0  0  0  0  0  0  0  0  0  0  0  # atno 6908 bound_to 6896
  151.0369  133.5690  159.2686 H   0  0  0  0  0  0  0  0  0  0  0  0  # atno 6909 bound_to 6896
  144.7373  140.3320  143.6151 H   0  0  0  0  0  0  0  0  0  0  0  0  # atno 7974 bound_to 7965
  156.2993  140.2378  156.4167 H   0  0  0  0  0  0  0  0  0  0  0  0  # atno 8008 bound_to 7997
  154.8392  140.0429  157.1550 H   0  0  0  0  0  0  0  0  0  0  0  0  # atno 8009 bound_to 7997
  154.9122  140.2992  155.5264 H   0  0  0  0  0  0  0  0  0  0  0  0  # atno 8010 bound_to 7997
  140.2194  144.3804  150.6456 H   0  0  0  0  0  0  0  0  0  0  0  0  # atno 10167 bound_to 10162
  157.6909  131.0616  150.4677 H   0  0  0  0  0  0  0  0  0  0  0  0  # atno 10718 bound_to 10713
  154.0060  135.6687  153.4762 H   0  0  0  0  0  0  0  0  0  0  0  0  # atno 10763 bound_to 10752
  153.0642  135.5010  154.8157 H   0  0  0  0  0  0  0  0  0  0  0  0  # atno 10764 bound_to 10752
  154.7024  135.3081  154.9284 H   0  0  0  0  0  0  0  0  0  0  0  0  # atno 10765 bound_to 10752
  141.0920  133.9038  157.2053 H   0  0  0  0  0  0  0  0  0  0  0  0  # atno 11005 bound_to 11000
  145.7462  139.1779  143.2347 LP  0  0  0  0  0  0  0  0  0  0  0  0  # atno 17320 bound_to 7965
  146.1096  140.7445  142.9510 LP  0  0  0  0  0  0  0  0  0  0  0  0  # atno 17321 bound_to 7965
  140.6266  143.2182  151.6584 LP  0  0  0  0  0  0  0  0  0  0  0  0  # atno 17342 bound_to 10162
  139.5150  144.3393  152.0754 LP  0  0  0  0  0  0  0  0  0  0  0  0  # atno 17343 bound_to 10162
  156.5017  130.4118  149.6350 LP  0  0  0  0  0  0  0  0  0  0  0  0  # atno 17370 bound_to 10713
  156.3322  130.7338  151.2269 LP  0  0  0  0  0  0  0  0  0  0  0  0  # atno 17371 bound_to 10713
  139.9748  135.0117  156.9603 LP  0  0  0  0  0  0  0  0  0  0  0  0  # atno 17394 bound_to 11000
  140.5230  134.0889  155.7296 LP  0  0  0  0  0  0  0  0  0  0  0  0  # atno 17395 bound_to 11000

$$$$
