AV-unprocessed.smi:1524|AV-procd|sdf|6139|dock2
  -GOLD-   22720 6283D 1   1.00000     0.00000
 Structure written by MMmdl.
 35 36  0  0  0  0  0  0  0  0  1 V2000
  148.9469  135.2571  156.1267 O   0  0  0  0  0  0  0  0  0  0  0  0
  148.9334  135.4728  154.9167 C   0  0  0  0  0  0  0  0  0  0  0  0
  148.4283  134.6393  153.9840 N   0  0  0  0  0  0  0  0  0  0  0  0
  147.7977  133.3956  154.1473 C   0  0  0  0  0  0  0  0  0  0  0  0
  148.4343  132.1954  154.1397 C   0  0  0  0  0  0  0  0  0  0  0  0
  147.7201  130.9431  154.3242 C   0  0  0  0  0  0  0  0  0  0  0  0
  148.4295  129.6010  154.2327 C   0  0  0  0  0  0  0  0  0  0  0  0
  147.9860  128.8890  153.1958 F   0  0  0  0  0  0  0  0  0  0  0  0
  149.7458  129.7632  154.0968 F   0  0  0  0  0  0  0  0  0  0  0  0
  148.2111  128.8975  155.3429 F   0  0  0  0  0  0  0  0  0  0  0  0
  146.3878  131.0315  154.4951 C   0  0  0  0  0  0  0  0  0  0  0  0
  145.7299  132.2631  154.5280 N   0  0  0  0  0  0  0  0  0  0  0  0
  146.3440  133.4571  154.3698 C   0  0  0  0  0  0  0  0  0  0  0  0
  145.6943  134.5014  154.4147 O   0  0  0  0  0  0  0  0  0  0  0  0
  149.4768  136.5944  154.4094 N   0  0  0  0  0  0  0  0  0  0  0  0
  150.1091  137.7047  155.1262 C   0  0  0  0  0  0  0  0  0  0  0  0
  149.4303  139.0440  154.7846 C   0  0  0  0  0  0  0  0  0  0  0  0
  150.2069  140.2203  155.3987 C   0  0  0  0  0  0  0  0  0  0  0  0
  151.5597  140.1962  154.9564 O   0  0  0  0  0  0  0  0  0  0  0  0
  152.2549  139.0233  155.3653 C   0  0  0  0  0  0  0  0  0  0  0  0
  151.5957  137.7798  154.7471 C   0  0  0  0  0  0  0  0  0  0  0  0
  144.7316  132.2464  154.6796 H   0  0  0  0  0  0  0  0  0  0  0  0
  148.5577  134.9192  153.0226 H   0  0  0  0  0  0  0  0  0  0  0  0
  149.5033  132.1363  154.0163 H   0  0  0  0  0  0  0  0  0  0  0  0
  145.7319  130.1816  154.6132 H   0  0  0  0  0  0  0  0  0  0  0  0
  149.4721  136.6750  153.4027 H   0  0  0  0  0  0  0  0  0  0  0  0
  150.0476  137.5337  156.2027 H   0  0  0  0  0  0  0  0  0  0  0  0
  149.3857  139.1718  153.7021 H   0  0  0  0  0  0  0  0  0  0  0  0
  148.4001  139.0569  155.1423 H   0  0  0  0  0  0  0  0  0  0  0  0
  149.7551  141.1653  155.0970 H   0  0  0  0  0  0  0  0  0  0  0  0
  150.1696  140.1834  156.4886 H   0  0  0  0  0  0  0  0  0  0  0  0
  153.2923  139.0978  155.0390 H   0  0  0  0  0  0  0  0  0  0  0  0
  152.2679  138.9562  156.4542 H   0  0  0  0  0  0  0  0  0  0  0  0
  152.1159  136.8796  155.0768 H   0  0  0  0  0  0  0  0  0  0  0  0
  151.7015  137.8223  153.6620 H   0  0  0  0  0  0  0  0  0  0  0  0
  1  2  2  0  0  0  0
  2  3  1  0  0  0  0
  2 15  1  0  0  0  0
  3  4  1  0  0  0  0
  3 23  1  0  0  0  0
  4 13  1  0  0  0  0
  4  5  2  0  0  0  0
  5  6  1  0  0  0  0
  5 24  1  0  0  0  0
  6  7  1  0  0  0  0
  6 11  2  0  0  0  0
  7  8  1  0  0  0  0
  7  9  1  0  0  0  0
  7 10  1  0  0  0  0
 11 12  1  0  0  0  0
 11 25  1  0  0  0  0
 12 22  1  0  0  0  0
 12 13  1  0  0  0  0
 13 14  2  0  0  0  0
 15 16  1  0  0  0  0
 15 26  1  0  0  0  0
 16 21  1  0  0  0  0
 16 17  1  0  0  0  0
 16 27  1  0  0  0  0
 17 18  1  0  0  0  0
 17 28  1  0  0  0  0
 17 29  1  0  0  0  0
 18 19  1  0  0  0  0
 18 30  1  0  0  0  0
 18 31  1  0  0  0  0
 19 20  1  0  0  0  0
 20 21  1  0  0  0  0
 20 32  1  0  0  0  0
 20 33  1  0  0  0  0
 21 34  1  0  0  0  0
 21 35  1  0  0  0  0
M  END
> <s_m_source_file>
AV-unprocessed.smi

> <i_m_source_file_index>
1524

> <i_lp_mmshare_version>
43012

> <i_f3d_flags>
0

> <s_epik_input>
W0NIMl0xW0NIMl1PW0NIMl1bQ0gyXVtDSF0xW05IXUMoPU8pW05IXWMyW2NIXWMoQyhGKShGKUYpW2NIXVtuSF1jMj1P

> <s_epik_cmdline>
J2VwaWtfcHl0aG9uJywgJy1waCcsICc3LjAnLCAnLXRuJywgJzgnLCAnLW1hJywgJzIwMCcsICctbWV0YWxfYmluZGluZycsICctaW1hZScsICc8aW5maWxlLm1hZT4nLCAnLW9tYWUnLCAnPG91dGZpbGUubWFlPic=

> <r_lp_tautomer_probability>
1

> <r_epik_Ionization_Penalty>
0.00380781

> <r_epik_Ionization_Penalty_Charging>
0.00378827

> <r_epik_Ionization_Penalty_Neutral>
1.95401e-05

> <r_epik_State_Penalty>
-0

> <r_epik_Charging_Adjusted_Penalty>
0.00378827

> <i_epik_Tot_Q>
0

> <i_epik_Tot_abs_Q>
0

> <r_epik_Metal_State_Penalty>
0.371078

> <b_epik_Metal_Only>
0

> <s_lp_Force_Field>
OPLS_2005

> <r_lp_Energy>
30.03

> <b_lp_Chiralities_Consistent>
1

> <s_lp_Variant>
AV-unprocessed.smi:1524-1

> <Gold.Version>
5.8.1

> <Gold.Id.Protein>
6NUR|6NUR_protein|mol2

> <Gold.PLP.Fitness>
39.4379

> <Gold.PLP.PLP>
-26.5987

> <Gold.PLP.part.hbond>
-3.7873

> <Gold.PLP.part.metal>
0.0000

> <Gold.PLP.part.buried>
-3.9019

> <Gold.PLP.part.nonpolar>
-20.7889

> <Gold.PLP.part.repulsive>
0.1769

> <Gold.PLP.ligand.clash>
0.0000

> <Gold.PLP.ligand.torsion>
0.8117

> <Gold.PLP.Chemscore.Hbond>
3.8208

> <Gold.PLP.Chemscore.CHOScore>
0.9877

> <Gold.PLP.Chemscore.Metal>
0.0000

> <Gold.Chemscore.Hbonds>
donor molecule, donor type, donor heavy atom, donor atom, acceptor molecule, acceptor atom, score
      L1  H     3    23       P1  7948  0.98
      L1  H    12    22       P1 10957  0.83
      L1  H    15    26       P1  7948  1.00
      P1  H  7989  7998       L1    19  1.00
      L1  C    11    25       P1 10956  0.99

> <Gold.PLP.Chemscore.Internal.Correction>
0.0374

> <Gold.Rescore>
     Score         DG    S(hbond)    S(metal)    S(lipo)     H(rot)  DE(clash)    DE(int)     intcor
     18.51     -19.42       3.25        0.00      48.13       1.00       0.01       0.90       ----

> <Gold.Chemscore.Fitness>
18.5070

> <Gold.Chemscore.DG>
-19.4212

> <Gold.Chemscore.ZeroCoef>
-5.4800

> <Gold.Chemscore.Hbond>
3.2546

> <Gold.Chemscore.Metal>
0.0000

> <Gold.Chemscore.Lipo>
48.1282

> <Gold.Chemscore.Internal_Hbond>
0.0000

> <Gold.Chemscore.DEClash>
0.0106

> <Gold.Chemscore.DEInternal>
0.9036

> <Gold.Chemscore.Rot>
1.0000

> <Gold.Chemscore.Internal.Correction>
   9.000000E+99

> <Gold.Chemscore.Hbonds>
donor molecule, donor type, donor heavy atom, donor atom, acceptor molecule, acceptor atom, score
      L1  H     3    23       P1  7948  0.52
      L1  H    12    22       P1 10957  0.44
      L1  H    15    26       P1  7948  0.76
      P1  H  7989  7998       L1    19  0.66

> <Gold.Chemscore.Hbond.Weighted>
-10.8702

> <Gold.Chemscore.Metal.Weighted>
-0.0000

> <Gold.Chemscore.Lipo.Weighted>
-5.6310

> <Gold.Chemscore.Internal_Hbond.Weighted>
0.0000

> <Gold.Chemscore.DEClash.Weighted>
0.0106

> <Gold.Chemscore.DEInternal.Weighted>
0.9036

> <Gold.Chemscore.Rot.Weighted>
2.5600

> <Gold.Chemscore.Internal.Correction.Weighted>
   9.000000E+99

> <Gold.Protein.RotatedTorsions>
[ 6907 6896 6895 6894 ] final  116.12 input  -60.11 | X-H torsion
[ 7974 7965 7964 7962 ] final  115.88 input  175.53 | X-H torsion
[ 8008 7997 7996 7995 ] final  143.06 input   59.86 | X-H torsion
[ 10167 10162 10161 10158 ] final  133.18 input  -65.29 | X-H torsion
[ 10718 10713 10712 10709 ] final  172.96 input   66.30 | X-H torsion
[ 10763 10752 10751 10750 ] final  -17.39 input  -60.55 | X-H torsion
[ 11005 11000 10999 10996 ] final  146.98 input  -57.11 | X-H torsion

> <Gold.Protein.ActiveResidues>
 VAL166  LYS551  ARG553  GLY616  TRP617  ASP618  TYR619  PRO620  LYS621  CYS622 
 ASP623  PHE694  ASN695  SER759  ASP760  ASP761  ALA762  ILE779  LEU786  VAL792 
 PHE793  MET794  SER795  GLU796  ALA797  LYS798  CYS799  TRP800  GLU811  SER814 

> <Gold.Protein.RotatedAtoms>
  152.4698  133.8005  159.6949 H   0  0  0  0  0  0  0  0  0  0  0  0  # atno 6907 bound_to 6896
  150.8682  133.7535  159.2976 H   0  0  0  0  0  0  0  0  0  0  0  0  # atno 6908 bound_to 6896
  151.5078  135.1067  159.9898 H   0  0  0  0  0  0  0  0  0  0  0  0  # atno 6909 bound_to 6896
  145.1865  139.3022  143.4391 H   0  0  0  0  0  0  0  0  0  0  0  0  # atno 7974 bound_to 7965
  156.2937  140.2272  156.4830 H   0  0  0  0  0  0  0  0  0  0  0  0  # atno 8008 bound_to 7997
  154.7837  140.0458  157.1168 H   0  0  0  0  0  0  0  0  0  0  0  0  # atno 8009 bound_to 7997
  154.9728  140.3068  155.4983 H   0  0  0  0  0  0  0  0  0  0  0  0  # atno 8010 bound_to 7997
  139.5308  144.6628  151.4959 H   0  0  0  0  0  0  0  0  0  0  0  0  # atno 10167 bound_to 10162
  156.9713  131.0091  151.2904 H   0  0  0  0  0  0  0  0  0  0  0  0  # atno 10718 bound_to 10713
  153.5731  135.7007  153.5496 H   0  0  0  0  0  0  0  0  0  0  0  0  # atno 10763 bound_to 10752
  153.3327  135.4043  155.1508 H   0  0  0  0  0  0  0  0  0  0  0  0  # atno 10764 bound_to 10752
  154.8630  135.3723  154.5255 H   0  0  0  0  0  0  0  0  0  0  0  0  # atno 10765 bound_to 10752
  140.0838  134.9081  157.1543 H   0  0  0  0  0  0  0  0  0  0  0  0  # atno 11005 bound_to 11000
  146.3444  140.2062  142.8589 LP  0  0  0  0  0  0  0  0  0  0  0  0  # atno 17320 bound_to 7965
  145.0084  140.8693  143.5239 LP  0  0  0  0  0  0  0  0  0  0  0  0  # atno 17321 bound_to 7965
  140.6484  143.8747  150.6761 LP  0  0  0  0  0  0  0  0  0  0  0  0  # atno 17342 bound_to 10162
  140.2103  143.3888  152.1723 LP  0  0  0  0  0  0  0  0  0  0  0  0  # atno 17343 bound_to 10162
  157.5590  130.8233  149.8241 LP  0  0  0  0  0  0  0  0  0  0  0  0  # atno 17370 bound_to 10713
  156.0281  130.3773  150.1764 LP  0  0  0  0  0  0  0  0  0  0  0  0  # atno 17371 bound_to 10713
  140.3449  134.2662  155.7206 LP  0  0  0  0  0  0  0  0  0  0  0  0  # atno 17394 bound_to 11000
  141.2056  133.7856  157.0225 LP  0  0  0  0  0  0  0  0  0  0  0  0  # atno 17395 bound_to 11000

$$$$
