AV-unprocessed.smi:2772|AV-procd|sdf|10666|dock2
  -GOLD-   2272015113D 1   1.00000     0.00000
 Structure written by MMmdl.
 55 57  0  0  0  0  0  0  0  0  3 V2000
  152.9027  142.5563  160.2780 C   0  0  0  0  0  0  0  0  0  0  0  0
  152.1300  142.1828  159.0301 C   0  0  0  0  0  0  0  0  0  0  0  0
  151.6785  140.8631  158.8234 C   0  0  0  0  0  0  0  0  0  0  0  0
  150.9604  140.5771  157.6464 C   0  0  0  0  0  0  0  0  0  0  0  0
  150.7274  141.6097  156.7150 C   0  0  0  0  0  0  0  0  0  0  0  0
  149.9769  141.3051  155.5472 N   0  0  0  0  0  0  0  0  0  0  0  0
  148.8899  140.5215  155.4416 C   0  0  0  0  0  0  0  0  0  0  0  0
  148.3029  139.9950  156.3866 O   0  0  0  0  0  0  0  0  0  0  0  0
  148.4992  140.3997  154.1641 N   0  0  0  0  0  0  0  0  0  0  0  0
  147.3498  139.6262  153.6989 C   0  0  2  0  0  0  0  0  0  0  0  0
  147.2345  138.3164  154.4834 C   0  0  0  0  0  0  0  0  0  0  0  0
  146.0618  137.4649  153.9689 C   0  0  0  0  0  0  0  0  0  0  0  0
  146.1663  137.1669  152.5082 N   0  3  1  0  0  0  0  0  0  0  0  0
  145.0581  136.2838  152.0013 C   0  0  2  0  0  0  0  0  0  0  0  0
  144.5075  135.2942  153.0593 C   0  0  0  0  0  0  0  0  0  0  0  0
  145.5414  134.2142  153.4284 C   0  0  0  0  0  0  0  0  0  0  0  0
  145.9666  133.4533  152.2267 N   0  3  2  0  0  0  0  0  0  0  0  0
  146.8973  132.3519  152.5543 C   0  0  0  0  0  0  0  0  0  0  0  0
  146.4881  134.3374  151.1543 C   0  0  0  0  0  0  0  0  0  0  0  0
  145.4562  135.4174  150.7798 C   0  0  0  0  0  0  0  0  0  0  0  0
  146.3182  138.4292  151.7225 C   0  0  0  0  0  0  0  0  0  0  0  0
  147.4938  139.2916  152.2116 C   0  0  0  0  0  0  0  0  0  0  0  0
  151.2170  142.9024  157.0260 C   0  0  0  0  0  0  0  0  0  0  0  0
  151.9040  143.1848  158.1537 N   0  0  0  0  0  0  0  0  0  0  0  0
  153.0223  141.6994  160.9413 H   0  0  0  0  0  0  0  0  0  0  0  0
  152.3796  143.3402  160.8266 H   0  0  0  0  0  0  0  0  0  0  0  0
  153.8946  142.9239  160.0139 H   0  0  0  0  0  0  0  0  0  0  0  0
  151.8729  140.0869  159.5490 H   0  0  0  0  0  0  0  0  0  0  0  0
  150.5976  139.5762  157.4633 H   0  0  0  0  0  0  0  0  0  0  0  0
  150.2858  141.7619  154.7016 H   0  0  0  0  0  0  0  0  0  0  0  0
  149.0436  140.8757  153.4592 H   0  0  0  0  0  0  0  0  0  0  0  0
  146.4267  140.1916  153.8404 H   0  0  0  0  0  0  0  0  0  0  0  0
  148.1618  137.7469  154.4023 H   0  0  0  0  0  0  0  0  0  0  0  0
  147.0942  138.5292  155.5440 H   0  0  0  0  0  0  0  0  0  0  0  0
  146.0689  136.5501  154.5566 H   0  0  0  0  0  0  0  0  0  0  0  0
  145.1154  137.9695  154.1708 H   0  0  0  0  0  0  0  0  0  0  0  0
  144.2425  136.9423  151.6982 H   0  0  0  0  0  0  0  0  0  0  0  0
  144.1315  135.7935  153.9501 H   0  0  0  0  0  0  0  0  0  0  0  0
  143.6287  134.7969  152.6456 H   0  0  0  0  0  0  0  0  0  0  0  0
  146.4111  134.6673  153.9068 H   0  0  0  0  0  0  0  0  0  0  0  0
  145.1046  133.5263  154.1535 H   0  0  0  0  0  0  0  0  0  0  0  0
  147.8335  132.7368  152.9605 H   0  0  0  0  0  0  0  0  0  0  0  0
  147.1257  131.7640  151.6646 H   0  0  0  0  0  0  0  0  0  0  0  0
  146.4549  131.6798  153.2903 H   0  0  0  0  0  0  0  0  0  0  0  0
  147.4224  134.7995  151.4771 H   0  0  0  0  0  0  0  0  0  0  0  0
  146.7204  133.7364  150.2742 H   0  0  0  0  0  0  0  0  0  0  0  0
  144.5627  134.9180  150.4018 H   0  0  0  0  0  0  0  0  0  0  0  0
  145.8036  136.0097  149.9359 H   0  0  0  0  0  0  0  0  0  0  0  0
  146.5102  138.2171  150.6734 H   0  0  0  0  0  0  0  0  0  0  0  0
  145.3899  139.0011  151.7693 H   0  0  0  0  0  0  0  0  0  0  0  0
  147.5422  140.2107  151.6259 H   0  0  0  0  0  0  0  0  0  0  0  0
  148.4319  138.7629  152.0349 H   0  0  0  0  0  0  0  0  0  0  0  0
  151.0423  143.7488  156.3802 H   0  0  0  0  0  0  0  0  0  0  0  0
  147.0270  136.6529  152.3864 H   0  0  0  0  0  0  0  0  0  0  0  0
  145.1337  133.0170  151.8564 H   0  0  0  0  0  0  0  0  0  0  0  0
  1  2  1  0  0  0  0
  1 25  1  0  0  0  0
  1 26  1  0  0  0  0
  1 27  1  0  0  0  0
  2 24  1  0  0  0  0
  2  3  2  0  0  0  0
  3  4  1  0  0  0  0
  3 28  1  0  0  0  0
  4  5  2  0  0  0  0
  4 29  1  0  0  0  0
  5  6  1  0  0  0  0
  5 23  1  0  0  0  0
  6  7  1  0  0  0  0
  6 30  1  0  0  0  0
  7  8  2  0  0  0  0
  7  9  1  0  0  0  0
  9 10  1  0  0  0  0
  9 31  1  0  0  0  0
 10 22  1  0  0  0  0
 10 11  1  0  0  0  0
 10 32  1  0  0  0  0
 11 12  1  0  0  0  0
 11 33  1  0  0  0  0
 11 34  1  0  0  0  0
 12 13  1  0  0  0  0
 12 35  1  0  0  0  0
 12 36  1  0  0  0  0
 13 14  1  0  0  0  0
 13 21  1  0  0  0  0
 13 54  1  0  0  0  0
 14 20  1  0  0  0  0
 14 15  1  0  0  0  0
 14 37  1  0  0  0  0
 15 16  1  0  0  0  0
 15 38  1  0  0  0  0
 15 39  1  0  0  0  0
 16 17  1  0  0  0  0
 16 40  1  0  0  0  0
 16 41  1  0  0  0  0
 17 18  1  0  0  0  0
 17 19  1  0  0  0  0
 17 55  1  0  0  0  0
 18 42  1  0  0  0  0
 18 43  1  0  0  0  0
 18 44  1  0  0  0  0
 19 20  1  0  0  0  0
 19 45  1  0  0  0  0
 19 46  1  0  0  0  0
 20 47  1  0  0  0  0
 20 48  1  0  0  0  0
 21 22  1  0  0  0  0
 21 49  1  0  0  0  0
 21 50  1  0  0  0  0
 22 51  1  0  0  0  0
 22 52  1  0  0  0  0
 23 24  2  0  0  0  0
 23 53  1  0  0  0  0
M  CHG  1  13   1
M  CHG  1  17   1
M  END
> <s_m_source_file>
AV-unprocessed.smi

> <i_m_source_file_index>
2772

> <i_lp_mmshare_version>
43012

> <i_f3d_flags>
0

> <s_epik_input>
W0NIM11jMVtjSF1bY0hdYyhbY0hdbjEpW05IXUMoPU8pW05IXVtDSF0yW0NIMl1bQ0gyXU4oW0NIMl1bQ0gyXTIpW0NIXTNbQ0gyXVtDSDJdTihbQ0gzXSlbQ0gyXVtDSDJdMw==

> <s_epik_cmdline>
J2VwaWtfcHl0aG9uJywgJy1waCcsICc3LjAnLCAnLXRuJywgJzgnLCAnLW1hJywgJzIwMCcsICctbWV0YWxfYmluZGluZycsICctaW1hZScsICc8aW5maWxlLm1hZT4nLCAnLW9tYWUnLCAnPG91dGZpbGUubWFlPic=

> <r_epik_Ionization_Penalty>
0.196786

> <r_epik_Ionization_Penalty_Charging>
0.180787

> <r_epik_Ionization_Penalty_Neutral>
0.0159988

> <r_epik_State_Penalty>
0.163322

> <r_epik_Charging_Adjusted_Penalty>
0.344109

> <i_epik_Tot_Q>
2

> <i_epik_Tot_abs_Q>
2

> <r_epik_Metal_State_Penalty>
0.163596

> <b_epik_Metal_Only>
0

> <s_lp_Force_Field>
OPLS_2005

> <r_lp_Energy>
49.2909

> <b_lp_Chiralities_Consistent>
1

> <s_lp_Variant>
AV-unprocessed.smi:2772-3

> <Gold.Version>
5.8.1

> <Gold.Id.Protein>
6NUR|6NUR_protein|mol2

> <Gold.PLP.Fitness>
40.0998

> <Gold.PLP.PLP>
-33.4933

> <Gold.PLP.part.hbond>
-1.3637

> <Gold.PLP.part.metal>
0.0000

> <Gold.PLP.part.buried>
-0.2510

> <Gold.PLP.part.nonpolar>
-32.2309

> <Gold.PLP.part.repulsive>
0.3278

> <Gold.PLP.ligand.clash>
0.0000

> <Gold.PLP.ligand.torsion>
1.1912

> <Gold.PLP.Chemscore.Hbond>
2.0000

> <Gold.PLP.Chemscore.CHOScore>
0.9868

> <Gold.PLP.Chemscore.Metal>
0.0000

> <Gold.Chemscore.Hbonds>
donor molecule, donor type, donor heavy atom, donor atom, acceptor molecule, acceptor atom, score
      L1  H    13    54       P1  7948  2.00
      L1  C    23    53       P1  8028  0.99

> <Gold.PLP.Chemscore.Internal.Correction>
0.0285

> <Gold.Rescore>
     Score         DG    S(hbond)    S(metal)    S(lipo)     H(rot)  DE(clash)    DE(int)     intcor
     12.60     -18.24       1.02        0.00     106.28       1.21       2.08       3.56       ----

> <Gold.Chemscore.Fitness>
12.6015

> <Gold.Chemscore.DG>
-18.2389

> <Gold.Chemscore.ZeroCoef>
-5.4800

> <Gold.Chemscore.Hbond>
1.0240

> <Gold.Chemscore.Metal>
0.0000

> <Gold.Chemscore.Lipo>
106.2753

> <Gold.Chemscore.Internal_Hbond>
0.0000

> <Gold.Chemscore.DEClash>
2.0752

> <Gold.Chemscore.DEInternal>
3.5622

> <Gold.Chemscore.Rot>
1.2092

> <Gold.Chemscore.Internal.Correction>
   9.000000E+99

> <Gold.Chemscore.Hbonds>
donor molecule, donor type, donor heavy atom, donor atom, acceptor molecule, acceptor atom, score
      L1  H     9    31       P1  7957  0.01
      L1  H    13    54       P1  7948  0.93

> <Gold.Chemscore.Hbond.Weighted>
-3.4201

> <Gold.Chemscore.Metal.Weighted>
-0.0000

> <Gold.Chemscore.Lipo.Weighted>
-12.4342

> <Gold.Chemscore.Internal_Hbond.Weighted>
0.0000

> <Gold.Chemscore.DEClash.Weighted>
2.0752

> <Gold.Chemscore.DEInternal.Weighted>
3.5622

> <Gold.Chemscore.Rot.Weighted>
3.0955

> <Gold.Chemscore.Internal.Correction.Weighted>
   9.000000E+99

> <Gold.Protein.RotatedTorsions>
[ 6907 6896 6895 6894 ] final  178.27 input  -60.11 | X-H torsion
[ 7974 7965 7964 7962 ] final   51.78 input  175.53 | X-H torsion
[ 8008 7997 7996 7995 ] final   71.96 input   59.86 | X-H torsion
[ 10167 10162 10161 10158 ] final   87.61 input  -65.29 | X-H torsion
[ 10718 10713 10712 10709 ] final -177.11 input   66.30 | X-H torsion
[ 10763 10752 10751 10750 ] final    0.78 input  -60.55 | X-H torsion
[ 11005 11000 10999 10996 ] final   75.29 input  -57.11 | X-H torsion

> <Gold.Protein.ActiveResidues>
 VAL166  LYS551  ARG553  GLY616  TRP617  ASP618  TYR619  PRO620  LYS621  CYS622 
 ASP623  PHE694  ASN695  SER759  ASP760  ASP761  ALA762  ILE779  LEU786  VAL792 
 PHE793  MET794  SER795  GLU796  ALA797  LYS798  CYS799  TRP800  GLU811  SER814 

> <Gold.Protein.RotatedAtoms>
  151.6905  133.3311  159.3241 H   0  0  0  0  0  0  0  0  0  0  0  0  # atno 6907 bound_to 6896
  150.7781  134.6702  159.6397 H   0  0  0  0  0  0  0  0  0  0  0  0  # atno 6908 bound_to 6896
  152.3830  134.6565  160.0188 H   0  0  0  0  0  0  0  0  0  0  0  0  # atno 6909 bound_to 6896
  145.9879  139.4308  143.0092 H   0  0  0  0  0  0  0  0  0  0  0  0  # atno 7974 bound_to 7965
  155.7617  140.3486  155.5201 H   0  0  0  0  0  0  0  0  0  0  0  0  # atno 8008 bound_to 7997
  155.8908  140.1017  157.1441 H   0  0  0  0  0  0  0  0  0  0  0  0  # atno 8009 bound_to 7997
  154.4033  140.1305  156.4300 H   0  0  0  0  0  0  0  0  0  0  0  0  # atno 8010 bound_to 7997
  139.8756  144.6468  150.8900 H   0  0  0  0  0  0  0  0  0  0  0  0  # atno 10167 bound_to 10162
  156.8246  130.9632  151.3110 H   0  0  0  0  0  0  0  0  0  0  0  0  # atno 10718 bound_to 10713
  153.3163  135.6966  153.7070 H   0  0  0  0  0  0  0  0  0  0  0  0  # atno 10763 bound_to 10752
  153.5928  135.3476  155.2918 H   0  0  0  0  0  0  0  0  0  0  0  0  # atno 10764 bound_to 10752
  154.8587  135.4322  154.2315 H   0  0  0  0  0  0  0  0  0  0  0  0  # atno 10765 bound_to 10752
  139.9350  134.7505  156.1253 H   0  0  0  0  0  0  0  0  0  0  0  0  # atno 11005 bound_to 11000
  145.7674  140.9911  143.1168 LP  0  0  0  0  0  0  0  0  0  0  0  0  # atno 17320 bound_to 7965
  144.6880  139.9404  143.7475 LP  0  0  0  0  0  0  0  0  0  0  0  0  # atno 17321 bound_to 7965
  140.7753  143.3627  151.1797 LP  0  0  0  0  0  0  0  0  0  0  0  0  # atno 17342 bound_to 10162
  139.7243  143.9173  152.2997 LP  0  0  0  0  0  0  0  0  0  0  0  0  # atno 17343 bound_to 10162
  157.6439  130.8828  149.9500 LP  0  0  0  0  0  0  0  0  0  0  0  0  # atno 17370 bound_to 10713
  156.0969  130.3658  150.0290 LP  0  0  0  0  0  0  0  0  0  0  0  0  # atno 17371 bound_to 10713
  141.0960  133.6695  156.2645 LP  0  0  0  0  0  0  0  0  0  0  0  0  # atno 17394 bound_to 11000
  140.6099  134.5469  157.5532 LP  0  0  0  0  0  0  0  0  0  0  0  0  # atno 17395 bound_to 11000

$$$$
