AV-unprocessed.smi:604|AV-procd|sdf|3037|dock7
  -GOLD-   2262023553D 1   1.00000     0.00000
 Structure written by MMmdl.
 49 51  0  0  0  0  0  0  0  0  2 V2000
  150.0977  134.5936  155.7273 O   0  0  0  0  0  0  0  0  0  0  0  0
  149.7725  135.1269  154.6670 C   0  0  0  0  0  0  0  0  0  0  0  0
  150.1473  136.3535  154.2652 N   0  0  0  0  0  0  0  0  0  0  0  0
  150.9792  137.2871  154.9403 C   0  0  0  0  0  0  0  0  0  0  0  0
  151.0899  138.5852  154.4008 C   0  0  0  0  0  0  0  0  0  0  0  0
  151.9191  139.5262  155.0398 C   0  0  0  0  0  0  0  0  0  0  0  0
  152.6173  139.1269  156.1956 C   0  0  0  0  0  0  0  0  0  0  0  0
  152.5368  137.8844  156.7166 N   0  0  0  0  0  0  0  0  0  0  0  0
  151.7379  136.9871  156.0993 C   0  0  0  0  0  0  0  0  0  0  0  0
  148.9674  134.5455  153.7659 N   0  0  0  0  0  0  0  0  0  0  0  0
  148.3521  133.2298  153.9158 C   0  0  2  0  0  0  0  0  0  0  0  0
  149.4175  132.1184  153.9387 C   0  0  0  0  0  0  0  0  0  0  0  0
  148.7671  130.7255  153.9974 C   0  0  0  0  0  0  0  0  0  0  0  0
  147.8211  130.5249  152.8691 N   0  3  1  0  0  0  0  0  0  0  0  0
  147.2764  129.1436  152.8087 C   0  0  0  0  0  0  0  0  0  0  0  0
  148.3016  128.1457  152.2373 C   0  0  0  0  0  0  0  0  0  0  0  0
  147.9256  127.5234  150.8890 C   0  0  0  0  0  0  0  0  0  0  0  0
  148.7822  126.2579  150.7811 C   0  0  0  0  0  0  0  0  0  0  0  0
  149.1418  125.8600  152.2200 C   0  0  0  0  0  0  0  0  0  0  0  0
  148.5076  126.9182  153.1292 C   0  0  0  0  0  0  0  0  0  0  0  0
  146.7618  131.5678  152.8532 C   0  0  0  0  0  0  0  0  0  0  0  0
  147.3718  132.9759  152.7598 C   0  0  0  0  0  0  0  0  0  0  0  0
  149.7340  136.6861  153.4065 H   0  0  0  0  0  0  0  0  0  0  0  0
  150.5428  138.8613  153.5109 H   0  0  0  0  0  0  0  0  0  0  0  0
  152.0184  140.5295  154.6530 H   0  0  0  0  0  0  0  0  0  0  0  0
  153.2625  139.8224  156.7120 H   0  0  0  0  0  0  0  0  0  0  0  0
  151.7349  136.0054  156.5463 H   0  0  0  0  0  0  0  0  0  0  0  0
  148.7509  135.0576  152.9232 H   0  0  0  0  0  0  0  0  0  0  0  0
  147.7904  133.2047  154.8520 H   0  0  0  0  0  0  0  0  0  0  0  0
  150.0458  132.1876  153.0492 H   0  0  0  0  0  0  0  0  0  0  0  0
  150.0805  132.2472  154.7952 H   0  0  0  0  0  0  0  0  0  0  0  0
  149.5496  129.9664  153.9600 H   0  0  0  0  0  0  0  0  0  0  0  0
  148.2401  130.5942  154.9439 H   0  0  0  0  0  0  0  0  0  0  0  0
  147.0170  128.8098  153.8146 H   0  0  0  0  0  0  0  0  0  0  0  0
  146.3434  129.1178  152.2430 H   0  0  0  0  0  0  0  0  0  0  0  0
  149.2655  128.6466  152.1311 H   0  0  0  0  0  0  0  0  0  0  0  0
  146.8708  127.2447  150.8885 H   0  0  0  0  0  0  0  0  0  0  0  0
  148.0911  128.2023  150.0519 H   0  0  0  0  0  0  0  0  0  0  0  0
  148.2537  125.4619  150.2556 H   0  0  0  0  0  0  0  0  0  0  0  0
  149.6937  126.4690  150.2206 H   0  0  0  0  0  0  0  0  0  0  0  0
  148.7850  124.8596  152.4674 H   0  0  0  0  0  0  0  0  0  0  0  0
  150.2256  125.8583  152.3424 H   0  0  0  0  0  0  0  0  0  0  0  0
  149.1226  127.1350  154.0032 H   0  0  0  0  0  0  0  0  0  0  0  0
  147.5437  126.5541  153.4886 H   0  0  0  0  0  0  0  0  0  0  0  0
  146.0915  131.4109  152.0089 H   0  0  0  0  0  0  0  0  0  0  0  0
  146.1536  131.4841  153.7555 H   0  0  0  0  0  0  0  0  0  0  0  0
  146.5767  133.7224  152.7727 H   0  0  0  0  0  0  0  0  0  0  0  0
  147.8850  133.0860  151.8030 H   0  0  0  0  0  0  0  0  0  0  0  0
  148.3655  130.6468  152.0270 H   0  0  0  0  0  0  0  0  0  0  0  0
  1  2  2  0  0  0  0
  2  3  1  0  0  0  0
  2 10  1  0  0  0  0
  3  4  1  0  0  0  0
  3 23  1  0  0  0  0
  4  9  1  0  0  0  0
  4  5  2  0  0  0  0
  5  6  1  0  0  0  0
  5 24  1  0  0  0  0
  6  7  2  0  0  0  0
  6 25  1  0  0  0  0
  7  8  1  0  0  0  0
  7 26  1  0  0  0  0
  8  9  2  0  0  0  0
  9 27  1  0  0  0  0
 10 11  1  0  0  0  0
 10 28  1  0  0  0  0
 11 22  1  0  0  0  0
 11 12  1  0  0  0  0
 11 29  1  0  0  0  0
 12 13  1  0  0  0  0
 12 30  1  0  0  0  0
 12 31  1  0  0  0  0
 13 14  1  0  0  0  0
 13 32  1  0  0  0  0
 13 33  1  0  0  0  0
 14 15  1  0  0  0  0
 14 21  1  0  0  0  0
 14 49  1  0  0  0  0
 15 16  1  0  0  0  0
 15 34  1  0  0  0  0
 15 35  1  0  0  0  0
 16 20  1  0  0  0  0
 16 17  1  0  0  0  0
 16 36  1  0  0  0  0
 17 18  1  0  0  0  0
 17 37  1  0  0  0  0
 17 38  1  0  0  0  0
 18 19  1  0  0  0  0
 18 39  1  0  0  0  0
 18 40  1  0  0  0  0
 19 20  1  0  0  0  0
 19 41  1  0  0  0  0
 19 42  1  0  0  0  0
 20 43  1  0  0  0  0
 20 44  1  0  0  0  0
 21 22  1  0  0  0  0
 21 45  1  0  0  0  0
 21 46  1  0  0  0  0
 22 47  1  0  0  0  0
 22 48  1  0  0  0  0
M  CHG  1  14   1
M  END
> <s_m_source_file>
AV-unprocessed.smi

> <i_m_source_file_index>
604

> <i_lp_mmshare_version>
43012

> <i_f3d_flags>
0

> <s_epik_input>
W2NIXTFuW2NIXVtjSF1bY0hdYzFbTkhdQyg9TylbTkhdW0NIXTJbQ0gyXVtDSDJdTihbQ0gyXVtDSDJdMilbQ0gyXVtDSF0zW0NIMl1bQ0gyXVtDSDJdW0NIMl0z

> <s_epik_cmdline>
J2VwaWtfcHl0aG9uJywgJy1waCcsICc3LjAnLCAnLXRuJywgJzgnLCAnLW1hJywgJzIwMCcsICctbWV0YWxfYmluZGluZycsICctaW1hZScsICc8aW5maWxlLm1hZT4nLCAnLW9tYWUnLCAnPG91dGZpbGUubWFlPic=

> <r_lp_tautomer_probability>
1

> <r_epik_Ionization_Penalty>
0.00608112

> <r_epik_Ionization_Penalty_Charging>
0.00207989

> <r_epik_Ionization_Penalty_Neutral>
0.00400122

> <r_epik_State_Penalty>
-0

> <r_epik_Charging_Adjusted_Penalty>
0.00207989

> <i_epik_Tot_Q>
1

> <i_epik_Tot_abs_Q>
1

> <r_epik_Metal_State_Penalty>
-0

> <b_epik_Metal_Only>
0

> <s_lp_Force_Field>
OPLS_2005

> <r_lp_Energy>
41.6956

> <b_lp_Chiralities_Consistent>
1

> <s_lp_Variant>
AV-unprocessed.smi:604-1

> <Gold.Version>
5.8.1

> <Gold.Id.Protein>
6NUR|6NUR_protein|mol2

> <Gold.PLP.Fitness>
48.5278

> <Gold.PLP.PLP>
-41.7718

> <Gold.PLP.part.hbond>
-3.6555

> <Gold.PLP.part.metal>
0.0000

> <Gold.PLP.part.buried>
-2.0375

> <Gold.PLP.part.nonpolar>
-35.7573

> <Gold.PLP.part.repulsive>
0.1060

> <Gold.PLP.ligand.clash>
0.0000

> <Gold.PLP.ligand.torsion>
0.9772

> <Gold.PLP.Chemscore.Hbond>
2.8960

> <Gold.PLP.Chemscore.CHOScore>
0.0000

> <Gold.PLP.Chemscore.Metal>
0.0000

> <Gold.Chemscore.Hbonds>
donor molecule, donor type, donor heavy atom, donor atom, acceptor molecule, acceptor atom, score
      L1  H     3    23       P1  7948  0.91
      L1  H    10    28       P1  7948  1.00
      L1  H    14    49       P1 10747  1.00

> <Gold.PLP.Chemscore.Internal.Correction>
0.0224

> <Gold.Rescore>
     Score         DG    S(hbond)    S(metal)    S(lipo)     H(rot)  DE(clash)    DE(int)     intcor
     19.93     -22.09       2.60        0.00      97.08       1.35       0.04       2.12       ----

> <Gold.Chemscore.Fitness>
19.9314

> <Gold.Chemscore.DG>
-22.0905

> <Gold.Chemscore.ZeroCoef>
-5.4800

> <Gold.Chemscore.Hbond>
2.6038

> <Gold.Chemscore.Metal>
0.0000

> <Gold.Chemscore.Lipo>
97.0791

> <Gold.Chemscore.Internal_Hbond>
0.0000

> <Gold.Chemscore.DEClash>
0.0420

> <Gold.Chemscore.DEInternal>
2.1171

> <Gold.Chemscore.Rot>
1.3455

> <Gold.Chemscore.Internal.Correction>
   9.000000E+99

> <Gold.Chemscore.Hbonds>
donor molecule, donor type, donor heavy atom, donor atom, acceptor molecule, acceptor atom, score
      L1  H     3    23       P1  7948  0.40
      L1  H    10    28       P1  7948  0.33
      L1  H    14    49       P1 10747  0.96

> <Gold.Chemscore.Hbond.Weighted>
-8.6967

> <Gold.Chemscore.Metal.Weighted>
-0.0000

> <Gold.Chemscore.Lipo.Weighted>
-11.3583

> <Gold.Chemscore.Internal_Hbond.Weighted>
0.0000

> <Gold.Chemscore.DEClash.Weighted>
0.0420

> <Gold.Chemscore.DEInternal.Weighted>
2.1171

> <Gold.Chemscore.Rot.Weighted>
3.4445

> <Gold.Chemscore.Internal.Correction.Weighted>
   9.000000E+99

> <Gold.Protein.RotatedTorsions>
[ 6907 6896 6895 6894 ] final   54.63 input  -60.11 | X-H torsion
[ 7974 7965 7964 7962 ] final  166.08 input  175.53 | X-H torsion
[ 8008 7997 7996 7995 ] final  124.80 input   59.86 | X-H torsion
[ 10167 10162 10161 10158 ] final  -55.35 input  -65.29 | X-H torsion
[ 10718 10713 10712 10709 ] final  -38.42 input   66.30 | X-H torsion
[ 10763 10752 10751 10750 ] final  117.04 input  -60.55 | X-H torsion
[ 11005 11000 10999 10996 ] final  157.07 input  -57.11 | X-H torsion

> <Gold.Protein.ActiveResidues>
 VAL166  LYS551  ARG553  GLY616  TRP617  ASP618  TYR619  PRO620  LYS621  CYS622 
 ASP623  PHE694  ASN695  SER759  ASP760  ASP761  ALA762  ILE779  LEU786  VAL792 
 PHE793  MET794  SER795  GLU796  ALA797  LYS798  CYS799  TRP800  GLU811  SER814 

> <Gold.Protein.RotatedAtoms>
  152.3458  134.7073  160.0250 H   0  0  0  0  0  0  0  0  0  0  0  0  # atno 6907 bound_to 6896
  151.7443  133.3318  159.3382 H   0  0  0  0  0  0  0  0  0  0  0  0  # atno 6908 bound_to 6896
  150.7508  134.6182  159.6167 H   0  0  0  0  0  0  0  0  0  0  0  0  # atno 6909 bound_to 6896
  144.7476  139.8564  143.6377 H   0  0  0  0  0  0  0  0  0  0  0  0  # atno 7974 bound_to 7965
  156.2813  140.2731  156.1846 H   0  0  0  0  0  0  0  0  0  0  0  0  # atno 8008 bound_to 7997
  155.0521  140.0386  157.2565 H   0  0  0  0  0  0  0  0  0  0  0  0  # atno 8009 bound_to 7997
  154.7186  140.2683  155.6567 H   0  0  0  0  0  0  0  0  0  0  0  0  # atno 8010 bound_to 7997
  140.6380  143.2492  151.5067 H   0  0  0  0  0  0  0  0  0  0  0  0  # atno 10167 bound_to 10162
  156.3039  130.4243  149.8115 H   0  0  0  0  0  0  0  0  0  0  0  0  # atno 10718 bound_to 10713
  153.5463  135.3548  155.2740 H   0  0  0  0  0  0  0  0  0  0  0  0  # atno 10763 bound_to 10752
  154.8712  135.4103  154.2987 H   0  0  0  0  0  0  0  0  0  0  0  0  # atno 10764 bound_to 10752
  153.3704  135.7064  153.6710 H   0  0  0  0  0  0  0  0  0  0  0  0  # atno 10765 bound_to 10752
  140.1734  134.8527  157.2718 H   0  0  0  0  0  0  0  0  0  0  0  0  # atno 11005 bound_to 11000
  146.1379  139.4429  143.0127 LP  0  0  0  0  0  0  0  0  0  0  0  0  # atno 17320 bound_to 7965
  145.7063  141.0120  143.1477 LP  0  0  0  0  0  0  0  0  0  0  0  0  # atno 17321 bound_to 7965
  139.5589  144.2205  152.1659 LP  0  0  0  0  0  0  0  0  0  0  0  0  # atno 17342 bound_to 10162
  140.1467  144.5152  150.6711 LP  0  0  0  0  0  0  0  0  0  0  0  0  # atno 17343 bound_to 10162
  156.5483  130.8331  151.3291 LP  0  0  0  0  0  0  0  0  0  0  0  0  # atno 17370 bound_to 10713
  157.7375  130.9796  150.2196 LP  0  0  0  0  0  0  0  0  0  0  0  0  # atno 17371 bound_to 10713
  140.2350  134.3863  155.7505 LP  0  0  0  0  0  0  0  0  0  0  0  0  # atno 17394 bound_to 11000
  141.2219  133.7235  156.8700 LP  0  0  0  0  0  0  0  0  0  0  0  0  # atno 17395 bound_to 11000

$$$$
