AV-unprocessed.smi:2850|AV-procd|sdf|10966|dock7
  -GOLD-   2272015423D 1   1.00000     0.00000
 Structure written by MMmdl.
 45 46  0  0  0  0  0  0  0  0  2 V2000
  144.8424  131.6513  151.8205 C   0  0  0  0  0  0  0  0  0  0  0  0
  146.2013  132.7079  151.2478 S   0  0  0  0  0  0  0  0  0  0  0  0
  145.8586  134.3499  151.8032 C   0  0  0  0  0  0  0  0  0  0  0  0
  145.6140  135.3818  150.8796 C   0  0  0  0  0  0  0  0  0  0  0  0
  145.3454  136.6578  151.4043 C   0  0  0  0  0  0  0  0  0  0  0  0
  145.3412  136.8032  152.8063 C   0  0  0  0  0  0  0  0  0  0  0  0
  145.0715  138.0658  153.3537 N   0  0  0  0  0  0  0  0  0  0  0  0
  145.4258  138.3967  154.7288 C   0  0  0  0  0  0  0  0  0  0  0  0
  146.5013  139.4934  154.8130 C   0  0  1  0  0  0  0  0  0  0  0  0
  147.5543  139.3437  153.6961 C   0  0  0  0  0  0  0  0  0  0  0  0
  148.5467  140.4457  153.7393 N   0  3  2  0  0  0  0  0  0  0  0  0
  149.5655  140.2887  154.8130 C   0  0  0  0  0  0  0  0  0  0  0  0
  150.5819  139.1648  154.5184 C   0  0  0  0  0  0  0  0  0  0  0  0
  149.9893  137.7702  154.7811 C   0  0  0  0  0  0  0  0  0  0  0  0
  151.8608  139.3666  155.3445 C   0  0  0  0  0  0  0  0  0  0  0  0
  147.8603  141.7627  153.7209 C   0  0  0  0  0  0  0  0  0  0  0  0
  146.7660  141.8451  154.8024 C   0  0  0  0  0  0  0  0  0  0  0  0
  145.8625  140.7566  154.6555 O   0  0  0  0  0  0  0  0  0  0  0  0
  145.5889  135.7576  153.6363 N   0  0  0  0  0  0  0  0  0  0  0  0
  145.8437  134.5411  153.1422 N   0  0  0  0  0  0  0  0  0  0  0  0
  145.0108  130.6217  151.5052 H   0  0  0  0  0  0  0  0  0  0  0  0
  143.8927  131.9876  151.4043 H   0  0  0  0  0  0  0  0  0  0  0  0
  144.7755  131.6719  152.9084 H   0  0  0  0  0  0  0  0  0  0  0  0
  145.6316  135.2037  149.8144 H   0  0  0  0  0  0  0  0  0  0  0  0
  145.1485  137.4945  150.7500 H   0  0  0  0  0  0  0  0  0  0  0  0
  144.5369  138.7352  152.8186 H   0  0  0  0  0  0  0  0  0  0  0  0
  144.5283  138.7029  155.2679 H   0  0  0  0  0  0  0  0  0  0  0  0
  145.7806  137.4908  155.2211 H   0  0  0  0  0  0  0  0  0  0  0  0
  146.9927  139.4485  155.7862 H   0  0  0  0  0  0  0  0  0  0  0  0
  148.0561  138.3774  153.7596 H   0  0  0  0  0  0  0  0  0  0  0  0
  147.0601  139.3661  152.7237 H   0  0  0  0  0  0  0  0  0  0  0  0
  150.0823  141.2345  154.9765 H   0  0  0  0  0  0  0  0  0  0  0  0
  149.0675  140.0553  155.7553 H   0  0  0  0  0  0  0  0  0  0  0  0
  150.8748  139.2114  153.4698 H   0  0  0  0  0  0  0  0  0  0  0  0
  149.6796  137.6600  155.8209 H   0  0  0  0  0  0  0  0  0  0  0  0
  150.7191  136.9883  154.5686 H   0  0  0  0  0  0  0  0  0  0  0  0
  149.1196  137.5798  154.1520 H   0  0  0  0  0  0  0  0  0  0  0  0
  151.6530  139.3271  156.4143 H   0  0  0  0  0  0  0  0  0  0  0  0
  152.3198  140.3322  155.1302 H   0  0  0  0  0  0  0  0  0  0  0  0
  152.5997  138.5966  155.1207 H   0  0  0  0  0  0  0  0  0  0  0  0
  148.5690  142.5826  153.8295 H   0  0  0  0  0  0  0  0  0  0  0  0
  147.3997  141.8887  152.7400 H   0  0  0  0  0  0  0  0  0  0  0  0
  147.1930  141.8468  155.8060 H   0  0  0  0  0  0  0  0  0  0  0  0
  146.2102  142.7770  154.6987 H   0  0  0  0  0  0  0  0  0  0  0  0
  149.0671  140.3789  152.8761 H   0  0  0  0  0  0  0  0  0  0  0  0
  1  2  1  0  0  0  0
  1 21  1  0  0  0  0
  1 22  1  0  0  0  0
  1 23  1  0  0  0  0
  2  3  1  0  0  0  0
  3 20  1  0  0  0  0
  3  4  2  0  0  0  0
  4  5  1  0  0  0  0
  4 24  1  0  0  0  0
  5  6  2  0  0  0  0
  5 25  1  0  0  0  0
  6  7  1  0  0  0  0
  6 19  1  0  0  0  0
  7  8  1  0  0  0  0
  7 26  1  0  0  0  0
  8  9  1  0  0  0  0
  8 27  1  0  0  0  0
  8 28  1  0  0  0  0
  9 18  1  0  0  0  0
  9 10  1  0  0  0  0
  9 29  1  0  0  0  0
 10 11  1  0  0  0  0
 10 30  1  0  0  0  0
 10 31  1  0  0  0  0
 11 12  1  0  0  0  0
 11 16  1  0  0  0  0
 11 45  1  0  0  0  0
 12 13  1  0  0  0  0
 12 32  1  0  0  0  0
 12 33  1  0  0  0  0
 13 14  1  0  0  0  0
 13 15  1  0  0  0  0
 13 34  1  0  0  0  0
 14 35  1  0  0  0  0
 14 36  1  0  0  0  0
 14 37  1  0  0  0  0
 15 38  1  0  0  0  0
 15 39  1  0  0  0  0
 15 40  1  0  0  0  0
 16 17  1  0  0  0  0
 16 41  1  0  0  0  0
 16 42  1  0  0  0  0
 17 18  1  0  0  0  0
 17 43  1  0  0  0  0
 17 44  1  0  0  0  0
 19 20  2  0  0  0  0
M  CHG  1  11   1
M  END
> <s_m_source_file>
AV-unprocessed.smi

> <i_m_source_file_index>
2850

> <i_lp_mmshare_version>
43012

> <i_f3d_flags>
0

> <s_epik_input>
W0NIM11TYzFbY0hdW2NIXWMobm4xKVtOSF1bQ0gyXVtDQEBIXTJbQ0gyXU4oW0NIMl1bQ0gyXU8yKVtDSDJdW0NIXShbQ0gzXSlbQ0gzXQ==

> <s_epik_cmdline>
J2VwaWtfcHl0aG9uJywgJy1waCcsICc3LjAnLCAnLXRuJywgJzgnLCAnLW1hJywgJzIwMCcsICctbWV0YWxfYmluZGluZycsICctaW1hZScsICc8aW5maWxlLm1hZT4nLCAnLW9tYWUnLCAnPG91dGZpbGUubWFlPic=

> <r_lp_tautomer_probability>
0.999978

> <r_epik_Ionization_Penalty>
0.0874875

> <r_epik_Ionization_Penalty_Charging>
0.0831532

> <r_epik_Ionization_Penalty_Neutral>
0.00433433

> <r_epik_State_Penalty>
0.0738301

> <r_epik_Charging_Adjusted_Penalty>
0.156983

> <i_epik_Tot_Q>
1

> <i_epik_Tot_abs_Q>
1

> <r_epik_Metal_State_Penalty>
0.073888

> <b_epik_Metal_Only>
0

> <s_lp_Force_Field>
OPLS_2005

> <r_lp_Energy>
26.339

> <b_lp_Chiralities_Consistent>
1

> <s_lp_Variant>
AV-unprocessed.smi:2850-2

> <Gold.Version>
5.8.1

> <Gold.Id.Protein>
6NUR|6NUR_protein|mol2

> <Gold.PLP.Fitness>
37.2870

> <Gold.PLP.PLP>
-32.4291

> <Gold.PLP.part.hbond>
-2.0000

> <Gold.PLP.part.metal>
0.0000

> <Gold.PLP.part.buried>
-2.4559

> <Gold.PLP.part.nonpolar>
-28.1850

> <Gold.PLP.part.repulsive>
0.4075

> <Gold.PLP.ligand.clash>
0.0000

> <Gold.PLP.ligand.torsion>
0.6308

> <Gold.PLP.Chemscore.Hbond>
2.0000

> <Gold.PLP.Chemscore.CHOScore>
0.0000

> <Gold.PLP.Chemscore.Metal>
0.0000

> <Gold.Chemscore.Hbonds>
donor molecule, donor type, donor heavy atom, donor atom, acceptor molecule, acceptor atom, score
      L1  H     7    26       P1 10175  1.00
      L1  H    11    45       P1  7957  1.00

> <Gold.PLP.Chemscore.Internal.Correction>
0.1194

> <Gold.Rescore>
     Score         DG    S(hbond)    S(metal)    S(lipo)     H(rot)  DE(clash)    DE(int)     intcor
     16.04     -18.34       2.00        0.00      87.96       1.60       1.73       0.57       ----

> <Gold.Chemscore.Fitness>
16.0401

> <Gold.Chemscore.DG>
-18.3388

> <Gold.Chemscore.ZeroCoef>
-5.4800

> <Gold.Chemscore.Hbond>
1.9952

> <Gold.Chemscore.Metal>
0.0000

> <Gold.Chemscore.Lipo>
87.9630

> <Gold.Chemscore.Internal_Hbond>
0.0000

> <Gold.Chemscore.DEClash>
1.7288

> <Gold.Chemscore.DEInternal>
0.5699

> <Gold.Chemscore.Rot>
1.6003

> <Gold.Chemscore.Internal.Correction>
   9.000000E+99

> <Gold.Chemscore.Hbonds>
donor molecule, donor type, donor heavy atom, donor atom, acceptor molecule, acceptor atom, score
      L1  H     7    26       P1 10175  0.97
      L1  H    11    45       P1  7957  1.00

> <Gold.Chemscore.Hbond.Weighted>
-6.6639

> <Gold.Chemscore.Metal.Weighted>
-0.0000

> <Gold.Chemscore.Lipo.Weighted>
-10.2917

> <Gold.Chemscore.Internal_Hbond.Weighted>
0.0000

> <Gold.Chemscore.DEClash.Weighted>
1.7288

> <Gold.Chemscore.DEInternal.Weighted>
0.5699

> <Gold.Chemscore.Rot.Weighted>
4.0968

> <Gold.Chemscore.Internal.Correction.Weighted>
   9.000000E+99

> <Gold.Protein.RotatedTorsions>
[ 6907 6896 6895 6894 ] final -132.10 input  -60.11 | X-H torsion
[ 7974 7965 7964 7962 ] final   34.81 input  175.53 | X-H torsion
[ 8008 7997 7996 7995 ] final   47.87 input   59.86 | X-H torsion
[ 10167 10162 10161 10158 ] final  -75.33 input  -65.29 | X-H torsion
[ 10718 10713 10712 10709 ] final -168.28 input   66.30 | X-H torsion
[ 10763 10752 10751 10750 ] final  141.46 input  -60.55 | X-H torsion
[ 11005 11000 10999 10996 ] final  -99.67 input  -57.11 | X-H torsion

> <Gold.Protein.ActiveResidues>
 VAL166  LYS551  ARG553  GLY616  TRP617  ASP618  TYR619  PRO620  LYS621  CYS622 
 ASP623  PHE694  ASN695  SER759  ASP760  ASP761  ALA762  ILE779  LEU786  VAL792 
 PHE793  MET794  SER795  GLU796  ALA797  LYS798  CYS799  TRP800  GLU811  SER814 

> <Gold.Protein.RotatedAtoms>
  150.9585  133.6470  159.2758 H   0  0  0  0  0  0  0  0  0  0  0  0  # atno 6907 bound_to 6896
  151.3801  135.0937  159.9503 H   0  0  0  0  0  0  0  0  0  0  0  0  # atno 6908 bound_to 6896
  152.5138  133.9122  159.7548 H   0  0  0  0  0  0  0  0  0  0  0  0  # atno 6909 bound_to 6896
  146.1327  139.6222  142.9216 H   0  0  0  0  0  0  0  0  0  0  0  0  # atno 7974 bound_to 7965
  155.3762  140.3426  155.4245 H   0  0  0  0  0  0  0  0  0  0  0  0  # atno 8008 bound_to 7997
  156.1635  140.1608  156.8604 H   0  0  0  0  0  0  0  0  0  0  0  0  # atno 8009 bound_to 7997
  154.5163  140.0778  156.8069 H   0  0  0  0  0  0  0  0  0  0  0  0  # atno 8010 bound_to 7997
  140.4952  143.2372  151.7843 H   0  0  0  0  0  0  0  0  0  0  0  0  # atno 10167 bound_to 10162
  156.6947  130.9173  151.3073 H   0  0  0  0  0  0  0  0  0  0  0  0  # atno 10718 bound_to 10713
  153.9396  135.2981  155.3443 H   0  0  0  0  0  0  0  0  0  0  0  0  # atno 10763 bound_to 10752
  154.7484  135.4992  153.9247 H   0  0  0  0  0  0  0  0  0  0  0  0  # atno 10764 bound_to 10752
  153.1049  135.6744  153.9711 H   0  0  0  0  0  0  0  0  0  0  0  0  # atno 10765 bound_to 10752
  141.1300  133.8339  157.1002 H   0  0  0  0  0  0  0  0  0  0  0  0  # atno 11005 bound_to 11000
  145.5225  141.0431  143.2427 LP  0  0  0  0  0  0  0  0  0  0  0  0  # atno 17320 bound_to 7965
  144.7707  139.6741  143.7196 LP  0  0  0  0  0  0  0  0  0  0  0  0  # atno 17321 bound_to 7965
  139.4859  144.4597  151.9556 LP  0  0  0  0  0  0  0  0  0  0  0  0  # atno 17342 bound_to 10162
  140.3684  144.2886  150.5923 LP  0  0  0  0  0  0  0  0  0  0  0  0  # atno 17343 bound_to 10162
  157.6996  130.9318  150.0745 LP  0  0  0  0  0  0  0  0  0  0  0  0  # atno 17370 bound_to 10713
  156.1772  130.3648  149.9084 LP  0  0  0  0  0  0  0  0  0  0  0  0  # atno 17371 bound_to 10713
  140.0338  134.9888  157.0832 LP  0  0  0  0  0  0  0  0  0  0  0  0  # atno 17394 bound_to 11000
  140.4243  134.1848  155.7165 LP  0  0  0  0  0  0  0  0  0  0  0  0  # atno 17395 bound_to 11000

$$$$
