AV-unprocessed.smi:1127|AV-procd|sdf|4841|dock4
  -GOLD-   22720 3403D 1   1.00000     0.00000
 Structure written by MMmdl.
 42 43  0  0  0  0  0  0  0  0  1 V2000
  148.0718  123.8243  154.0089 C   0  0  0  0  0  0  0  0  0  0  0  0
  147.8410  125.6640  153.9708 S   0  0  1  0  0  0  0  0  0  0  0  0
  149.0931  126.2882  154.5896 O   0  0  0  0  0  0  0  0  0  0  0  0
  148.1055  125.8081  152.1690 C   0  0  0  0  0  0  0  0  0  0  0  0
  148.0456  124.7754  151.3228 N   0  0  0  0  0  0  0  0  0  0  0  0
  148.2912  125.3215  150.0772 N   0  0  0  0  0  0  0  0  0  0  0  0
  148.4728  126.6237  150.3072 C   0  0  0  0  0  0  0  0  0  0  0  0
  148.3709  126.9959  151.5930 N   0  0  0  0  0  0  0  0  0  0  0  0
  148.5113  128.3218  152.1716 C   0  0  0  0  0  0  0  0  0  0  0  0
  147.1523  128.9380  152.5152 C   0  0  0  0  0  0  0  0  0  0  0  0
  146.3969  128.3755  153.3081 O   0  0  0  0  0  0  0  0  0  0  0  0
  146.8663  130.1072  151.9222 N   0  0  0  0  0  0  0  0  0  0  0  0
  145.6621  130.9041  152.1443 C   0  0  0  0  0  0  0  0  0  0  0  0
  144.9708  131.1685  150.7893 C   0  0  0  0  0  0  0  0  0  0  0  0
  143.8176  132.1917  150.8205 C   0  0  0  0  0  0  0  0  0  0  0  0
  144.1822  133.5856  150.2693 C   0  0  0  0  0  0  0  0  0  0  0  0
  145.1583  134.4351  151.1094 C   0  0  0  0  0  0  0  0  0  0  0  0
  146.6061  133.9053  151.1495 C   0  0  0  0  0  0  0  0  0  0  0  0
  147.0026  133.1576  152.4370 C   0  0  0  0  0  0  0  0  0  0  0  0
  145.9819  132.1498  153.0027 C   0  0  0  0  0  0  0  0  0  0  0  0
  147.6266  123.3582  153.1294 H   0  0  0  0  0  0  0  0  0  0  0  0
  147.5983  123.4054  154.8961 H   0  0  0  0  0  0  0  0  0  0  0  0
  149.1330  123.5770  154.0343 H   0  0  0  0  0  0  0  0  0  0  0  0
  148.6850  127.3251  149.5136 H   0  0  0  0  0  0  0  0  0  0  0  0
  149.1427  128.2505  153.0586 H   0  0  0  0  0  0  0  0  0  0  0  0
  149.0266  128.9673  151.4594 H   0  0  0  0  0  0  0  0  0  0  0  0
  147.5490  130.4909  151.2846 H   0  0  0  0  0  0  0  0  0  0  0  0
  144.9574  130.3067  152.7258 H   0  0  0  0  0  0  0  0  0  0  0  0
  145.6947  131.4391  150.0218 H   0  0  0  0  0  0  0  0  0  0  0  0
  144.5644  130.2155  150.4474 H   0  0  0  0  0  0  0  0  0  0  0  0
  143.0186  131.8027  150.1880 H   0  0  0  0  0  0  0  0  0  0  0  0
  143.3750  132.2654  151.8137 H   0  0  0  0  0  0  0  0  0  0  0  0
  144.5692  133.4852  149.2547 H   0  0  0  0  0  0  0  0  0  0  0  0
  143.2560  134.1524  150.1680 H   0  0  0  0  0  0  0  0  0  0  0  0
  145.1861  135.4252  150.6527 H   0  0  0  0  0  0  0  0  0  0  0  0
  144.7683  134.6027  152.1134 H   0  0  0  0  0  0  0  0  0  0  0  0
  146.8161  133.2980  150.2707 H   0  0  0  0  0  0  0  0  0  0  0  0
  147.2831  134.7549  151.0537 H   0  0  0  0  0  0  0  0  0  0  0  0
  147.9627  132.6660  152.2808 H   0  0  0  0  0  0  0  0  0  0  0  0
  147.1833  133.9034  153.2119 H   0  0  0  0  0  0  0  0  0  0  0  0
  145.0614  132.6648  153.2717 H   0  0  0  0  0  0  0  0  0  0  0  0
  146.3715  131.7989  153.9591 H   0  0  0  0  0  0  0  0  0  0  0  0
  1  2  1  0  0  0  0
  1 21  1  0  0  0  0
  1 22  1  0  0  0  0
  1 23  1  0  0  0  0
  2  3  2  0  0  0  0
  2  4  1  0  0  0  0
  4  8  1  0  0  0  0
  4  5  2  0  0  0  0
  5  6  1  0  0  0  0
  6  7  2  0  0  0  0
  7  8  1  0  0  0  0
  7 24  1  0  0  0  0
  8  9  1  0  0  0  0
  9 10  1  0  0  0  0
  9 25  1  0  0  0  0
  9 26  1  0  0  0  0
 10 11  2  0  0  0  0
 10 12  1  0  0  0  0
 12 13  1  0  0  0  0
 12 27  1  0  0  0  0
 13 20  1  0  0  0  0
 13 14  1  0  0  0  0
 13 28  1  0  0  0  0
 14 15  1  0  0  0  0
 14 29  1  0  0  0  0
 14 30  1  0  0  0  0
 15 16  1  0  0  0  0
 15 31  1  0  0  0  0
 15 32  1  0  0  0  0
 16 17  1  0  0  0  0
 16 33  1  0  0  0  0
 16 34  1  0  0  0  0
 17 18  1  0  0  0  0
 17 35  1  0  0  0  0
 17 36  1  0  0  0  0
 18 19  1  0  0  0  0
 18 37  1  0  0  0  0
 18 38  1  0  0  0  0
 19 20  1  0  0  0  0
 19 39  1  0  0  0  0
 19 40  1  0  0  0  0
 20 41  1  0  0  0  0
 20 42  1  0  0  0  0
M  END
> <s_m_source_file>
AV-unprocessed.smi

> <i_m_source_file_index>
1127

> <i_lp_mmshare_version>
43012

> <i_f3d_flags>
0

> <s_epik_input>
W0NIM11bU0BdKD1PKWMxbm5bY0hdbjFbQ0gyXUMoPU8pW05IXVtDSF0yW0NIMl1bQ0gyXVtDSDJdW0NIMl1bQ0gyXVtDSDJdW0NIMl0y

> <s_epik_cmdline>
J2VwaWtfcHl0aG9uJywgJy1waCcsICc3LjAnLCAnLXRuJywgJzgnLCAnLW1hJywgJzIwMCcsICctbWV0YWxfYmluZGluZycsICctaW1hZScsICc8aW5maWxlLm1hZT4nLCAnLW9tYWUnLCAnPG91dGZpbGUubWFlPic=

> <r_lp_tautomer_probability>
1

> <r_epik_Ionization_Penalty>
7.34999e-08

> <r_epik_Ionization_Penalty_Charging>
0

> <r_epik_Ionization_Penalty_Neutral>
7.34999e-08

> <r_epik_State_Penalty>
-0

> <r_epik_Charging_Adjusted_Penalty>
0

> <i_epik_Tot_Q>
0

> <i_epik_Tot_abs_Q>
0

> <r_epik_Metal_State_Penalty>
-0

> <b_epik_Metal_Only>
0

> <s_lp_Force_Field>
OPLS_2005

> <r_lp_Energy>
17.4242

> <b_lp_Chiralities_Consistent>
1

> <s_lp_Variant>
AV-unprocessed.smi:1127-2

> <Gold.Version>
5.8.1

> <Gold.Id.Protein>
6NUR|6NUR_protein|mol2

> <Gold.PLP.Fitness>
37.7861

> <Gold.PLP.PLP>
-35.4978

> <Gold.PLP.part.hbond>
-1.1893

> <Gold.PLP.part.metal>
0.0000

> <Gold.PLP.part.buried>
-6.7405

> <Gold.PLP.part.nonpolar>
-27.4136

> <Gold.PLP.part.repulsive>
0.2209

> <Gold.PLP.ligand.clash>
0.0000

> <Gold.PLP.ligand.torsion>
0.8859

> <Gold.PLP.Chemscore.Hbond>
1.0000

> <Gold.PLP.Chemscore.CHOScore>
0.0000

> <Gold.PLP.Chemscore.Metal>
0.0000

> <Gold.Chemscore.Hbonds>
donor molecule, donor type, donor heavy atom, donor atom, acceptor molecule, acceptor atom, score
      L1  H    12    27       P1 10747  1.00

> <Gold.PLP.Chemscore.Internal.Correction>
1.0601

> <Gold.Rescore>
     Score         DG    S(hbond)    S(metal)    S(lipo)     H(rot)  DE(clash)    DE(int)     intcor
     11.21     -12.28       1.00        0.00      66.83       1.70       0.02       1.05       ----

> <Gold.Chemscore.Fitness>
11.2050

> <Gold.Chemscore.DG>
-12.2758

> <Gold.Chemscore.ZeroCoef>
-5.4800

> <Gold.Chemscore.Hbond>
1.0000

> <Gold.Chemscore.Metal>
0.0000

> <Gold.Chemscore.Lipo>
66.8288

> <Gold.Chemscore.Internal_Hbond>
0.0000

> <Gold.Chemscore.DEClash>
0.0202

> <Gold.Chemscore.DEInternal>
1.0505

> <Gold.Chemscore.Rot>
1.7044

> <Gold.Chemscore.Internal.Correction>
   9.000000E+99

> <Gold.Chemscore.Hbonds>
donor molecule, donor type, donor heavy atom, donor atom, acceptor molecule, acceptor atom, score
      L1  H    12    27       P1 10747  1.00

> <Gold.Chemscore.Hbond.Weighted>
-3.3399

> <Gold.Chemscore.Metal.Weighted>
-0.0000

> <Gold.Chemscore.Lipo.Weighted>
-7.8190

> <Gold.Chemscore.Internal_Hbond.Weighted>
0.0000

> <Gold.Chemscore.DEClash.Weighted>
0.0202

> <Gold.Chemscore.DEInternal.Weighted>
1.0505

> <Gold.Chemscore.Rot.Weighted>
4.3631

> <Gold.Chemscore.Internal.Correction.Weighted>
   9.000000E+99

> <Gold.Protein.RotatedTorsions>
[ 6907 6896 6895 6894 ] final   88.50 input  -60.11 | X-H torsion
[ 7974 7965 7964 7962 ] final -101.84 input  175.53 | X-H torsion
[ 8008 7997 7996 7995 ] final -178.55 input   59.86 | X-H torsion
[ 10167 10162 10161 10158 ] final -166.23 input  -65.29 | X-H torsion
[ 10718 10713 10712 10709 ] final -146.05 input   66.30 | X-H torsion
[ 10763 10752 10751 10750 ] final  -60.54 input  -60.55 | X-H torsion
[ 11005 11000 10999 10996 ] final -106.21 input  -57.11 | X-H torsion

> <Gold.Protein.ActiveResidues>
 VAL166  LYS551  ARG553  GLY616  TRP617  ASP618  TYR619  PRO620  LYS621  CYS622 
 ASP623  PHE694  ASN695  SER759  ASP760  ASP761  ALA762  ILE779  LEU786  VAL792 
 PHE793  MET794  SER795  GLU796  ALA797  LYS798  CYS799  TRP800  GLU811  SER814 

> <Gold.Protein.RotatedAtoms>
  152.5426  134.2111  159.8750 H   0  0  0  0  0  0  0  0  0  0  0  0  # atno 6907 bound_to 6896
  151.2094  133.4558  159.2605 H   0  0  0  0  0  0  0  0  0  0  0  0  # atno 6908 bound_to 6896
  151.0911  134.9929  159.8459 H   0  0  0  0  0  0  0  0  0  0  0  0  # atno 6909 bound_to 6896
  145.2764  140.9314  143.2957 H   0  0  0  0  0  0  0  0  0  0  0  0  # atno 7974 bound_to 7965
  156.0202  140.1259  157.0365 H   0  0  0  0  0  0  0  0  0  0  0  0  # atno 8008 bound_to 7997
  154.4308  140.1070  156.6022 H   0  0  0  0  0  0  0  0  0  0  0  0  # atno 8009 bound_to 7997
  155.5956  140.3470  155.4581 H   0  0  0  0  0  0  0  0  0  0  0  0  # atno 8010 bound_to 7997
  139.6128  144.0779  152.1859 H   0  0  0  0  0  0  0  0  0  0  0  0  # atno 10167 bound_to 10162
  156.3901  130.7881  151.2082 H   0  0  0  0  0  0  0  0  0  0  0  0  # atno 10718 bound_to 10713
  154.2708  135.6290  153.5309 H   0  0  0  0  0  0  0  0  0  0  0  0  # atno 10763 bound_to 10752
  152.9880  135.5610  154.5602 H   0  0  0  0  0  0  0  0  0  0  0  0  # atno 10764 bound_to 10752
  154.5171  135.2880  155.1269 H   0  0  0  0  0  0  0  0  0  0  0  0  # atno 10765 bound_to 10752
  141.1016  133.8874  157.1828 H   0  0  0  0  0  0  0  0  0  0  0  0  # atno 11005 bound_to 11000
  144.9291  139.4320  143.6504 LP  0  0  0  0  0  0  0  0  0  0  0  0  # atno 17320 bound_to 7965
  146.3230  139.8192  142.8930 LP  0  0  0  0  0  0  0  0  0  0  0  0  # atno 17321 bound_to 7965
  140.0402  144.6013  150.7417 LP  0  0  0  0  0  0  0  0  0  0  0  0  # atno 17342 bound_to 10162
  140.7331  143.2713  151.3879 LP  0  0  0  0  0  0  0  0  0  0  0  0  # atno 17343 bound_to 10162
  157.7498  131.0318  150.4198 LP  0  0  0  0  0  0  0  0  0  0  0  0  # atno 17370 bound_to 10713
  156.4458  130.4001  149.6667 LP  0  0  0  0  0  0  0  0  0  0  0  0  # atno 17371 bound_to 10713
  139.9869  135.0078  156.9885 LP  0  0  0  0  0  0  0  0  0  0  0  0  # atno 17394 bound_to 11000
  140.5008  134.1099  155.7250 LP  0  0  0  0  0  0  0  0  0  0  0  0  # atno 17395 bound_to 11000

$$$$
