AV-unprocessed.smi:1117|AV-procd|sdf|4813|dock2
  -GOLD-   22720 3363D 1   1.00000     0.00000
 Structure written by MMmdl.
 40 41  0  0  0  0  0  0  0  0  1 V2000
  148.2711  134.4324  154.3591 C   0  0  0  0  0  0  0  0  0  0  0  0
  149.5376  134.8340  155.1350 C   0  0  0  0  0  0  0  0  0  0  0  0
  149.1600  135.0920  156.6091 C   0  0  0  0  0  0  0  0  0  0  0  0
  150.5746  133.6966  155.0298 C   0  0  0  0  0  0  0  0  0  0  0  0
  150.0491  136.0581  154.5085 N   0  0  0  0  0  0  0  0  0  0  0  0
  151.1264  136.7893  154.8496 C   0  0  0  0  0  0  0  0  0  0  0  0
  151.8872  136.5051  155.7741 O   0  0  0  0  0  0  0  0  0  0  0  0
  151.3893  138.0399  154.0081 C   0  0  0  0  0  0  0  0  0  0  0  0
  150.8881  139.2642  154.7190 C   0  0  0  0  0  0  0  0  0  0  0  0
  149.7964  140.0262  154.3791 C   0  0  0  0  0  0  0  0  0  0  0  0
  149.5792  141.3774  155.4577 S   0  0  0  0  0  0  0  0  0  0  0  0
  150.9952  140.8343  156.3622 C   0  0  0  0  0  0  0  0  0  0  0  0
  151.5548  141.4897  157.5000 N   0  0  0  0  0  0  0  0  0  0  0  0
  151.0894  142.8621  157.7744 C   0  0  0  0  0  0  0  0  0  0  0  0
  151.0885  143.1744  159.2724 C   0  0  0  0  0  0  0  0  0  0  0  0
  152.4490  142.8107  159.8604 C   0  0  0  0  0  0  0  0  0  0  0  0
  152.8777  141.4982  159.3917 N   0  0  0  0  0  0  0  0  0  0  0  0
  152.5469  140.9010  158.2283 C   0  0  0  0  0  0  0  0  0  0  0  0
  153.1041  139.8537  157.9015 O   0  0  0  0  0  0  0  0  0  0  0  0
  151.5620  139.7365  155.8507 N   0  0  0  0  0  0  0  0  0  0  0  0
  147.8264  133.5244  154.7678 H   0  0  0  0  0  0  0  0  0  0  0  0
  148.4907  134.2441  153.3073 H   0  0  0  0  0  0  0  0  0  0  0  0
  147.5133  135.2161  154.4007 H   0  0  0  0  0  0  0  0  0  0  0  0
  148.4581  135.9216  156.7002 H   0  0  0  0  0  0  0  0  0  0  0  0
  150.0305  135.3280  157.2209 H   0  0  0  0  0  0  0  0  0  0  0  0
  148.6888  134.2140  157.0523 H   0  0  0  0  0  0  0  0  0  0  0  0
  150.1690  132.7596  155.4130 H   0  0  0  0  0  0  0  0  0  0  0  0
  151.4772  133.9109  155.6021 H   0  0  0  0  0  0  0  0  0  0  0  0
  150.8732  133.5257  153.9950 H   0  0  0  0  0  0  0  0  0  0  0  0
  149.5083  136.4009  153.7274 H   0  0  0  0  0  0  0  0  0  0  0  0
  152.4585  138.1253  153.8093 H   0  0  0  0  0  0  0  0  0  0  0  0
  150.9045  137.9238  153.0380 H   0  0  0  0  0  0  0  0  0  0  0  0
  149.1148  139.8798  153.5544 H   0  0  0  0  0  0  0  0  0  0  0  0
  151.7420  143.5599  157.2477 H   0  0  0  0  0  0  0  0  0  0  0  0
  150.0821  143.0162  157.3839 H   0  0  0  0  0  0  0  0  0  0  0  0
  150.8563  144.2246  159.4522 H   0  0  0  0  0  0  0  0  0  0  0  0
  150.3096  142.5897  159.7640 H   0  0  0  0  0  0  0  0  0  0  0  0
  153.1981  143.5431  159.5574 H   0  0  0  0  0  0  0  0  0  0  0  0
  152.4129  142.8184  160.9500 H   0  0  0  0  0  0  0  0  0  0  0  0
  153.5743  141.0344  159.9569 H   0  0  0  0  0  0  0  0  0  0  0  0
  1  2  1  0  0  0  0
  1 21  1  0  0  0  0
  1 22  1  0  0  0  0
  1 23  1  0  0  0  0
  2  3  1  0  0  0  0
  2  4  1  0  0  0  0
  2  5  1  0  0  0  0
  3 24  1  0  0  0  0
  3 25  1  0  0  0  0
  3 26  1  0  0  0  0
  4 27  1  0  0  0  0
  4 28  1  0  0  0  0
  4 29  1  0  0  0  0
  5  6  1  0  0  0  0
  5 30  1  0  0  0  0
  6  7  2  0  0  0  0
  6  8  1  0  0  0  0
  8  9  1  0  0  0  0
  8 31  1  0  0  0  0
  8 32  1  0  0  0  0
  9 20  1  0  0  0  0
  9 10  2  0  0  0  0
 10 11  1  0  0  0  0
 10 33  1  0  0  0  0
 11 12  1  0  0  0  0
 12 13  1  0  0  0  0
 12 20  2  0  0  0  0
 13 18  1  0  0  0  0
 13 14  1  0  0  0  0
 14 15  1  0  0  0  0
 14 34  1  0  0  0  0
 14 35  1  0  0  0  0
 15 16  1  0  0  0  0
 15 36  1  0  0  0  0
 15 37  1  0  0  0  0
 16 17  1  0  0  0  0
 16 38  1  0  0  0  0
 16 39  1  0  0  0  0
 17 18  1  0  0  0  0
 17 40  1  0  0  0  0
 18 19  2  0  0  0  0
M  END
> <s_m_source_file>
AV-unprocessed.smi

> <i_m_source_file_index>
1117

> <i_lp_mmshare_version>
43012

> <i_f3d_flags>
0

> <s_epik_input>
W0NIM11DKFtDSDNdKShbQ0gzXSlbTkhdQyg9TylbQ0gyXWMxW2NIXXNjKG4xKU4yW0NIMl1bQ0gyXVtDSDJdW05IXUMyPU8=

> <s_epik_cmdline>
J2VwaWtfcHl0aG9uJywgJy1waCcsICc3LjAnLCAnLXRuJywgJzgnLCAnLW1hJywgJzIwMCcsICctbWV0YWxfYmluZGluZycsICctaW1hZScsICc8aW5maWxlLm1hZT4nLCAnLW9tYWUnLCAnPG91dGZpbGUubWFlPic=

> <r_lp_tautomer_probability>
1

> <r_epik_Ionization_Penalty>
0.000135599

> <r_epik_Ionization_Penalty_Charging>
0

> <r_epik_Ionization_Penalty_Neutral>
0.000135599

> <r_epik_State_Penalty>
-0

> <r_epik_Charging_Adjusted_Penalty>
0

> <i_epik_Tot_Q>
0

> <i_epik_Tot_abs_Q>
0

> <r_epik_Metal_State_Penalty>
-0

> <b_epik_Metal_Only>
0

> <s_lp_Force_Field>
OPLS_2005

> <r_lp_Energy>
32.4347

> <b_lp_Chiralities_Consistent>
1

> <s_lp_Variant>
AV-unprocessed.smi:1117-1

> <Gold.Version>
5.8.1

> <Gold.Id.Protein>
6NUR|6NUR_protein|mol2

> <Gold.PLP.Fitness>
46.8987

> <Gold.PLP.PLP>
-35.8546

> <Gold.PLP.part.hbond>
-3.0000

> <Gold.PLP.part.metal>
0.0000

> <Gold.PLP.part.buried>
-3.3609

> <Gold.PLP.part.nonpolar>
-29.4483

> <Gold.PLP.part.repulsive>
0.1696

> <Gold.PLP.ligand.clash>
0.0000

> <Gold.PLP.ligand.torsion>
0.4747

> <Gold.PLP.Chemscore.Hbond>
2.9920

> <Gold.PLP.Chemscore.CHOScore>
1.0000

> <Gold.PLP.Chemscore.Metal>
0.0000

> <Gold.Chemscore.Hbonds>
donor molecule, donor type, donor heavy atom, donor atom, acceptor molecule, acceptor atom, score
      L1  H     5    30       P1  7948  0.96
      P1  H  7997  8009       L1    19  1.00
      P1  H 10752 10763       L1     7  1.00
      L1  C    10    33       P1  7957  0.95

> <Gold.PLP.Chemscore.Internal.Correction>
0.0174

> <Gold.Rescore>
     Score         DG    S(hbond)    S(metal)    S(lipo)     H(rot)  DE(clash)    DE(int)     intcor
     16.70     -18.93       2.51        0.00      76.05       1.50       0.05       2.19       ----

> <Gold.Chemscore.Fitness>
16.6969

> <Gold.Chemscore.DG>
-18.9305

> <Gold.Chemscore.ZeroCoef>
-5.4800

> <Gold.Chemscore.Hbond>
2.5121

> <Gold.Chemscore.Metal>
0.0000

> <Gold.Chemscore.Lipo>
76.0472

> <Gold.Chemscore.Internal_Hbond>
0.0000

> <Gold.Chemscore.DEClash>
0.0465

> <Gold.Chemscore.DEInternal>
2.1871

> <Gold.Chemscore.Rot>
1.4990

> <Gold.Chemscore.Internal.Correction>
   9.000000E+99

> <Gold.Chemscore.Hbonds>
donor molecule, donor type, donor heavy atom, donor atom, acceptor molecule, acceptor atom, score
      L1  H     5    30       P1  7948  0.64
      P1  H  7997  8009       L1    19  0.89
      P1  H 10752 10763       L1     7  0.59

> <Gold.Chemscore.Hbond.Weighted>
-8.3904

> <Gold.Chemscore.Metal.Weighted>
-0.0000

> <Gold.Chemscore.Lipo.Weighted>
-8.8975

> <Gold.Chemscore.Internal_Hbond.Weighted>
0.0000

> <Gold.Chemscore.DEClash.Weighted>
0.0465

> <Gold.Chemscore.DEInternal.Weighted>
2.1871

> <Gold.Chemscore.Rot.Weighted>
3.8375

> <Gold.Chemscore.Internal.Correction.Weighted>
   9.000000E+99

> <Gold.Protein.RotatedTorsions>
[ 6907 6896 6895 6894 ] final  -34.94 input  -60.11 | X-H torsion
[ 7974 7965 7964 7962 ] final   26.79 input  175.53 | X-H torsion
[ 8008 7997 7996 7995 ] final  152.49 input   59.86 | X-H torsion
[ 10167 10162 10161 10158 ] final  -60.50 input  -65.29 | X-H torsion
[ 10718 10713 10712 10709 ] final   17.09 input   66.30 | X-H torsion
[ 10763 10752 10751 10750 ] final   93.19 input  -60.55 | X-H torsion
[ 11005 11000 10999 10996 ] final  159.46 input  -57.11 | X-H torsion

> <Gold.Protein.ActiveResidues>
 VAL166  LYS551  ARG553  GLY616  TRP617  ASP618  TYR619  PRO620  LYS621  CYS622 
 ASP623  PHE694  ASN695  SER759  ASP760  ASP761  ALA762  ILE779  LEU786  VAL792 
 PHE793  MET794  SER795  GLU796  ALA797  LYS798  CYS799  TRP800  GLU811  SER814 

> <Gold.Protein.RotatedAtoms>
  151.0462  134.9641  159.8187 H   0  0  0  0  0  0  0  0  0  0  0  0  # atno 6907 bound_to 6896
  152.5373  134.2596  159.8940 H   0  0  0  0  0  0  0  0  0  0  0  0  # atno 6908 bound_to 6896
  151.2610  133.4259  159.2650 H   0  0  0  0  0  0  0  0  0  0  0  0  # atno 6909 bound_to 6896
  146.1819  139.7280  142.8894 H   0  0  0  0  0  0  0  0  0  0  0  0  # atno 7974 bound_to 7965
  156.2626  140.2019  156.6341 H   0  0  0  0  0  0  0  0  0  0  0  0  # atno 8008 bound_to 7997
  154.6660  140.0555  157.0138 H   0  0  0  0  0  0  0  0  0  0  0  0  # atno 8009 bound_to 7997
  155.1206  140.3224  155.4501 H   0  0  0  0  0  0  0  0  0  0  0  0  # atno 8010 bound_to 7997
  140.6067  143.2375  151.5804 H   0  0  0  0  0  0  0  0  0  0  0  0  # atno 10167 bound_to 10162
  157.0772  130.6373  149.5818 H   0  0  0  0  0  0  0  0  0  0  0  0  # atno 10718 bound_to 10713
  153.2275  135.4334  155.0558 H   0  0  0  0  0  0  0  0  0  0  0  0  # atno 10763 bound_to 10752
  154.8280  135.3371  154.6836 H   0  0  0  0  0  0  0  0  0  0  0  0  # atno 10764 bound_to 10752
  153.7265  135.7013  153.5056 H   0  0  0  0  0  0  0  0  0  0  0  0  # atno 10765 bound_to 10752
  140.1964  134.8370  157.2969 H   0  0  0  0  0  0  0  0  0  0  0  0  # atno 11005 bound_to 11000
  145.4052  141.0390  143.3048 LP  0  0  0  0  0  0  0  0  0  0  0  0  # atno 17320 bound_to 7965
  144.8329  139.5598  143.6935 LP  0  0  0  0  0  0  0  0  0  0  0  0  # atno 17321 bound_to 7965
  139.5330  144.2860  152.1190 LP  0  0  0  0  0  0  0  0  0  0  0  0  # atno 17342 bound_to 10162
  140.2051  144.4618  150.6412 LP  0  0  0  0  0  0  0  0  0  0  0  0  # atno 17343 bound_to 10162
  155.9933  130.4994  150.7377 LP  0  0  0  0  0  0  0  0  0  0  0  0  # atno 17370 bound_to 10713
  157.4830  131.0904  151.0515 LP  0  0  0  0  0  0  0  0  0  0  0  0  # atno 17371 bound_to 10713
  140.2102  134.4147  155.7616 LP  0  0  0  0  0  0  0  0  0  0  0  0  # atno 17394 bound_to 11000
  141.2227  133.7115  156.8326 LP  0  0  0  0  0  0  0  0  0  0  0  0  # atno 17395 bound_to 11000

$$$$
