AV-unprocessed.smi:1812|AV-procd|sdf|7339|dock9
  -GOLD-   22720 9 03D 1   1.00000     0.00000
 Structure written by MMmdl.
 33 35  0  0  0  0  0  0  0  0  2 V2000
  151.8420  139.6608  160.1166 O   0  0  0  0  0  0  0  0  0  0  0  0
  152.4957  140.0920  159.1641 C   0  0  0  0  0  0  0  0  0  0  0  0
  153.3400  141.1185  159.3364 N   0  0  0  0  0  0  0  0  0  0  0  0
  153.5816  141.8406  160.5808 C   0  0  0  0  0  0  0  0  0  0  0  0
  152.9429  143.2348  160.5197 C   0  0  1  0  0  0  0  0  0  0  0  0
  152.8609  143.8193  159.1107 C   0  0  0  0  0  0  0  0  0  0  0  0
  151.6899  144.7875  159.1919 C   0  0  0  0  0  0  0  0  0  0  0  0
  150.9903  144.4205  160.5042 C   0  0  0  0  0  0  0  0  0  0  0  0
  151.5779  143.1912  160.9046 O   0  0  0  0  0  0  0  0  0  0  0  0
  152.4586  139.6293  157.8938 N   0  5  0  0  0  0  0  0  0  0  0  0
  151.4160  139.9244  157.1000 C   0  0  0  0  0  0  0  0  0  0  0  0
  151.2002  139.3008  155.9331 N   0  0  0  0  0  0  0  0  0  0  0  0
  150.0746  139.7649  155.2679 N   0  0  0  0  0  0  0  0  0  0  0  0
  149.4589  140.7405  155.9399 C   0  0  0  0  0  0  0  0  0  0  0  0
  148.2255  141.4075  155.4300 C   0  0  0  0  0  0  0  0  0  0  0  0
  146.9329  141.3894  156.2168 C   0  0  0  0  0  0  0  0  0  0  0  0
  147.0499  140.5922  154.9427 C   0  0  0  0  0  0  0  0  0  0  0  0
  150.2247  141.1734  157.4601 S   0  0  0  0  0  0  0  0  0  0  0  0
  153.8560  141.4309  158.5269 H   0  0  0  0  0  0  0  0  0  0  0  0
  153.1694  141.2990  161.4336 H   0  0  0  0  0  0  0  0  0  0  0  0
  154.6575  141.9174  160.7423 H   0  0  0  0  0  0  0  0  0  0  0  0
  153.4768  143.9264  161.1747 H   0  0  0  0  0  0  0  0  0  0  0  0
  153.7896  144.3003  158.8025 H   0  0  0  0  0  0  0  0  0  0  0  0
  152.6337  143.0334  158.3891 H   0  0  0  0  0  0  0  0  0  0  0  0
  152.0264  145.8246  159.2113 H   0  0  0  0  0  0  0  0  0  0  0  0
  151.0267  144.6655  158.3351 H   0  0  0  0  0  0  0  0  0  0  0  0
  151.1860  145.1757  161.2670 H   0  0  0  0  0  0  0  0  0  0  0  0
  149.9104  144.3224  160.3915 H   0  0  0  0  0  0  0  0  0  0  0  0
  148.4772  142.3168  154.8876 H   0  0  0  0  0  0  0  0  0  0  0  0
  146.9051  140.8311  157.1506 H   0  0  0  0  0  0  0  0  0  0  0  0
  146.3200  142.2880  156.1933 H   0  0  0  0  0  0  0  0  0  0  0  0
  146.5148  140.9577  154.0686 H   0  0  0  0  0  0  0  0  0  0  0  0
  147.1139  139.5095  155.0324 H   0  0  0  0  0  0  0  0  0  0  0  0
  1  2  2  0  0  0  0
  2  3  1  0  0  0  0
  2 10  1  0  0  0  0
  3  4  1  0  0  0  0
  3 19  1  0  0  0  0
  4  5  1  0  0  0  0
  4 20  1  0  0  0  0
  4 21  1  0  0  0  0
  5  9  1  0  0  0  0
  5  6  1  0  0  0  0
  5 22  1  0  0  0  0
  6  7  1  0  0  0  0
  6 23  1  0  0  0  0
  6 24  1  0  0  0  0
  7  8  1  0  0  0  0
  7 25  1  0  0  0  0
  7 26  1  0  0  0  0
  8  9  1  0  0  0  0
  8 27  1  0  0  0  0
  8 28  1  0  0  0  0
 10 11  1  0  0  0  0
 11 18  1  0  0  0  0
 11 12  2  0  0  0  0
 12 13  1  0  0  0  0
 13 14  2  0  0  0  0
 14 15  1  0  0  0  0
 14 18  1  0  0  0  0
 15 17  1  0  0  0  0
 15 16  1  0  0  0  0
 15 29  1  0  0  0  0
 16 17  1  0  0  0  0
 16 30  1  0  0  0  0
 16 31  1  0  0  0  0
 17 32  1  0  0  0  0
 17 33  1  0  0  0  0
M  CHG  1  10  -1
M  END
> <s_m_source_file>
AV-unprocessed.smi

> <i_m_source_file_index>
1812

> <i_lp_mmshare_version>
43012

> <i_f3d_flags>
0

> <s_epik_input>
TzFbQ0gyXVtDSDJdW0NIMl1bQ0BIXTFbQ0gyXVtOSF1DKD1PKVtOSF1jMm5uYyhzMilbQ0hdM1tDSDJdW0NIMl0z

> <s_epik_cmdline>
J2VwaWtfcHl0aG9uJywgJy1waCcsICc3LjAnLCAnLXRuJywgJzgnLCAnLW1hJywgJzIwMCcsICctbWV0YWxfYmluZGluZycsICctaW1hZScsICc8aW5maWxlLm1hZT4nLCAnLW9tYWUnLCAnPG91dGZpbGUubWFlPic=

> <r_lp_tautomer_probability>
1

> <r_epik_Ionization_Penalty>
4.72991

> <r_epik_Ionization_Penalty_Charging>
4.58249

> <r_epik_Ionization_Penalty_Neutral>
0.147417

> <r_epik_State_Penalty>
4.58223

> <r_epik_Charging_Adjusted_Penalty>
9.16473

> <i_epik_Tot_Q>
-1

> <i_epik_Tot_abs_Q>
1

> <r_epik_Metal_State_Penalty>
0.861876

> <b_epik_Metal_Only>
1

> <s_lp_Force_Field>
OPLS_2005

> <r_lp_Energy>
14.1682

> <b_lp_Chiralities_Consistent>
1

> <s_lp_Variant>
AV-unprocessed.smi:1812-4

> <Gold.Version>
5.8.1

> <Gold.Id.Protein>
6NUR|6NUR_protein|mol2

> <Gold.PLP.Fitness>
45.9711

> <Gold.PLP.PLP>
-39.3172

> <Gold.PLP.part.hbond>
-3.1688

> <Gold.PLP.part.metal>
0.0000

> <Gold.PLP.part.buried>
-1.2530

> <Gold.PLP.part.nonpolar>
-34.9256

> <Gold.PLP.part.repulsive>
0.2647

> <Gold.PLP.ligand.clash>
0.0000

> <Gold.PLP.ligand.torsion>
1.2611

> <Gold.PLP.Chemscore.Hbond>
3.0000

> <Gold.PLP.Chemscore.CHOScore>
0.0000

> <Gold.PLP.Chemscore.Metal>
0.0000

> <Gold.Chemscore.Hbonds>
donor molecule, donor type, donor heavy atom, donor atom, acceptor molecule, acceptor atom, score
      P1  H  7997  8009       L1    10  0.39

> <Gold.PLP.Chemscore.Internal.Correction>
0.1760

> <Gold.Rescore>
     Score         DG    S(hbond)    S(metal)    S(lipo)     H(rot)  DE(clash)    DE(int)     intcor
     12.74     -15.50       0.85        0.00      93.06       1.45       1.63       1.13       ----

> <Gold.Chemscore.Fitness>
12.7389

> <Gold.Chemscore.DG>
-15.4963

> <Gold.Chemscore.ZeroCoef>
-5.4800

> <Gold.Chemscore.Hbond>
0.8467

> <Gold.Chemscore.Metal>
0.0000

> <Gold.Chemscore.Lipo>
93.0602

> <Gold.Chemscore.Internal_Hbond>
0.0000

> <Gold.Chemscore.DEClash>
1.6286

> <Gold.Chemscore.DEInternal>
1.1288

> <Gold.Chemscore.Rot>
1.4451

> <Gold.Chemscore.Internal.Correction>
   9.000000E+99

> <Gold.Chemscore.Hbonds>
donor molecule, donor type, donor heavy atom, donor atom, acceptor molecule, acceptor atom, score
      P1  H  6933  6945       L1     9  0.01
      P1  H  7997  8009       L1    10  0.09

> <Gold.Chemscore.Hbond.Weighted>
-2.8278

> <Gold.Chemscore.Metal.Weighted>
-0.0000

> <Gold.Chemscore.Lipo.Weighted>
-10.8880

> <Gold.Chemscore.Internal_Hbond.Weighted>
0.0000

> <Gold.Chemscore.DEClash.Weighted>
1.6286

> <Gold.Chemscore.DEInternal.Weighted>
1.1288

> <Gold.Chemscore.Rot.Weighted>
3.6995

> <Gold.Chemscore.Internal.Correction.Weighted>
   9.000000E+99

> <Gold.Protein.RotatedTorsions>
[ 6907 6896 6895 6894 ] final   82.93 input  -60.11 | X-H torsion
[ 7974 7965 7964 7962 ] final   57.18 input  175.53 | X-H torsion
[ 8008 7997 7996 7995 ] final -175.76 input   59.86 | X-H torsion
[ 10167 10162 10161 10158 ] final  -67.46 input  -65.29 | X-H torsion
[ 10718 10713 10712 10709 ] final  145.72 input   66.30 | X-H torsion
[ 10763 10752 10751 10750 ] final   49.99 input  -60.55 | X-H torsion
[ 11005 11000 10999 10996 ] final -101.21 input  -57.11 | X-H torsion

> <Gold.Protein.ActiveResidues>
 VAL166  LYS551  ARG553  GLY616  TRP617  ASP618  TYR619  PRO620  LYS621  CYS622 
 ASP623  PHE694  ASN695  SER759  ASP760  ASP761  ALA762  ILE779  LEU786  VAL792 
 PHE793  MET794  SER795  GLU796  ALA797  LYS798  CYS799  TRP800  GLU811  SER814 

> <Gold.Protein.RotatedAtoms>
  152.5313  134.2973  159.9065 H   0  0  0  0  0  0  0  0  0  0  0  0  # atno 6907 bound_to 6896
  151.2924  133.4153  159.2641 H   0  0  0  0  0  0  0  0  0  0  0  0  # atno 6908 bound_to 6896
  151.0189  134.9470  159.8105 H   0  0  0  0  0  0  0  0  0  0  0  0  # atno 6909 bound_to 6896
  145.9318  139.3814  143.0416 H   0  0  0  0  0  0  0  0  0  0  0  0  # atno 7974 bound_to 7965
  155.9866  140.1192  157.0678 H   0  0  0  0  0  0  0  0  0  0  0  0  # atno 8008 bound_to 7997
  154.4198  140.1134  156.5576 H   0  0  0  0  0  0  0  0  0  0  0  0  # atno 8009 bound_to 7997
  155.6400  140.3473  155.4714 H   0  0  0  0  0  0  0  0  0  0  0  0  # atno 8010 bound_to 7997
  140.5581  143.2312  151.6782 H   0  0  0  0  0  0  0  0  0  0  0  0  # atno 10167 bound_to 10162
  157.3419  131.0937  151.1075 H   0  0  0  0  0  0  0  0  0  0  0  0  # atno 10718 bound_to 10713
  152.9785  135.5893  154.4179 H   0  0  0  0  0  0  0  0  0  0  0  0  # atno 10763 bound_to 10752
  154.3807  135.2767  155.2215 H   0  0  0  0  0  0  0  0  0  0  0  0  # atno 10764 bound_to 10752
  154.4130  135.6077  153.6018 H   0  0  0  0  0  0  0  0  0  0  0  0  # atno 10765 bound_to 10752
  141.1240  133.8460  157.1202 H   0  0  0  0  0  0  0  0  0  0  0  0  # atno 11005 bound_to 11000
  145.8416  140.9577  143.0796 LP  0  0  0  0  0  0  0  0  0  0  0  0  # atno 17320 bound_to 7965
  144.6766  140.0291  143.7483 LP  0  0  0  0  0  0  0  0  0  0  0  0  # atno 17321 bound_to 7965
  139.5057  144.3708  152.0472 LP  0  0  0  0  0  0  0  0  0  0  0  0  # atno 17342 bound_to 10162
  140.2831  144.3837  150.6112 LP  0  0  0  0  0  0  0  0  0  0  0  0  # atno 17343 bound_to 10162
  157.2284  130.6514  149.5839 LP  0  0  0  0  0  0  0  0  0  0  0  0  # atno 17370 bound_to 10713
  155.9709  130.4606  150.6081 LP  0  0  0  0  0  0  0  0  0  0  0  0  # atno 17371 bound_to 10713
  140.0222  134.9941  157.0614 LP  0  0  0  0  0  0  0  0  0  0  0  0  # atno 17394 bound_to 11000
  140.4422  134.1669  155.7174 LP  0  0  0  0  0  0  0  0  0  0  0  0  # atno 17395 bound_to 11000

$$$$
