AV-unprocessed.smi:720|AV-procd|sdf|3497|dock2
  -GOLD-   22720 0493D 1   1.00000     0.00000
 Structure written by MMmdl.
 47 49  0  0  0  0  0  0  0  0  2 V2000
  145.8092  135.4787  153.3969 C   0  0  0  0  0  0  0  0  0  0  0  0
  146.1409  136.4312  152.3123 N   0  3  0  0  0  0  0  0  0  0  0  0
  145.3434  136.1653  151.0945 C   0  0  0  0  0  0  0  0  0  0  0  0
  146.0619  137.8535  152.7291 C   0  0  0  0  0  0  0  0  0  0  0  0
  146.9101  138.1551  153.9790 C   0  0  0  0  0  0  0  0  0  0  0  0
  147.1633  139.5752  154.1244 N   0  0  0  0  0  0  0  0  0  0  0  0
  146.7014  140.6185  153.3465 C   0  0  0  0  0  0  0  0  0  0  0  0
  147.1993  141.7761  153.8749 C   0  0  0  0  0  0  0  0  0  0  0  0
  147.9613  141.3264  154.9881 C   0  0  0  0  0  0  0  0  0  0  0  0
  148.6487  142.2488  155.8168 N   0  0  0  0  0  0  0  0  0  0  0  0
  149.2073  142.0173  157.0213 C   0  0  0  0  0  0  0  0  0  0  0  0
  149.2271  140.9231  157.5826 O   0  0  0  0  0  0  0  0  0  0  0  0
  149.7729  143.1003  157.5841 N   0  0  0  0  0  0  0  0  0  0  0  0
  150.4583  143.1909  158.8754 C   0  0  2  0  0  0  0  0  0  0  0  0
  150.0285  144.4247  159.7041 C   0  0  0  0  0  0  0  0  0  0  0  0
  151.3578  145.1707  159.9234 C   0  0  1  0  0  0  0  0  0  0  0  0
  152.2529  144.3606  160.8808 C   0  0  0  0  0  0  0  0  0  0  0  0
  152.6944  143.1679  160.0096 C   0  0  0  0  0  0  0  0  0  0  0  0
  151.9695  143.4388  158.6780 C   0  0  2  0  0  0  0  0  0  0  0  0
  152.0556  144.9597  158.5869 C   0  0  0  0  0  0  0  0  0  0  0  0
  147.9392  140.0098  155.1398 N   0  0  0  0  0  0  0  0  0  0  0  0
  144.7919  135.6352  153.7580 H   0  0  0  0  0  0  0  0  0  0  0  0
  146.4928  135.5789  154.2392 H   0  0  0  0  0  0  0  0  0  0  0  0
  145.8877  134.4509  153.0408 H   0  0  0  0  0  0  0  0  0  0  0  0
  144.2809  136.3287  151.2796 H   0  0  0  0  0  0  0  0  0  0  0  0
  145.4781  135.1354  150.7622 H   0  0  0  0  0  0  0  0  0  0  0  0
  145.6525  136.8168  150.2762 H   0  0  0  0  0  0  0  0  0  0  0  0
  146.4251  138.4726  151.9069 H   0  0  0  0  0  0  0  0  0  0  0  0
  145.0213  138.1376  152.8931 H   0  0  0  0  0  0  0  0  0  0  0  0
  146.4146  137.8042  154.8844 H   0  0  0  0  0  0  0  0  0  0  0  0
  147.8708  137.6407  153.9221 H   0  0  0  0  0  0  0  0  0  0  0  0
  146.0631  140.4533  152.4911 H   0  0  0  0  0  0  0  0  0  0  0  0
  147.0409  142.7842  153.5210 H   0  0  0  0  0  0  0  0  0  0  0  0
  148.7200  143.1908  155.4615 H   0  0  0  0  0  0  0  0  0  0  0  0
  149.7358  143.9559  157.0487 H   0  0  0  0  0  0  0  0  0  0  0  0
  150.3018  142.2642  159.4307 H   0  0  0  0  0  0  0  0  0  0  0  0
  149.3272  145.0544  159.1543 H   0  0  0  0  0  0  0  0  0  0  0  0
  149.5523  144.1442  160.6444 H   0  0  0  0  0  0  0  0  0  0  0  0
  151.2310  146.2127  160.2181 H   0  0  0  0  0  0  0  0  0  0  0  0
  153.1180  144.9467  161.1932 H   0  0  0  0  0  0  0  0  0  0  0  0
  151.7195  144.0461  161.7786 H   0  0  0  0  0  0  0  0  0  0  0  0
  153.7762  143.1760  159.8701 H   0  0  0  0  0  0  0  0  0  0  0  0
  152.4217  142.2068  160.4469 H   0  0  0  0  0  0  0  0  0  0  0  0
  152.4028  142.8995  157.8347 H   0  0  0  0  0  0  0  0  0  0  0  0
  151.5069  145.3771  157.7407 H   0  0  0  0  0  0  0  0  0  0  0  0
  153.0803  145.3352  158.5684 H   0  0  0  0  0  0  0  0  0  0  0  0
  147.1036  136.2608  152.0571 H   0  0  0  0  0  0  0  0  0  0  0  0
  1  2  1  0  0  0  0
  1 22  1  0  0  0  0
  1 23  1  0  0  0  0
  1 24  1  0  0  0  0
  2  3  1  0  0  0  0
  2  4  1  0  0  0  0
  2 47  1  0  0  0  0
  3 25  1  0  0  0  0
  3 26  1  0  0  0  0
  3 27  1  0  0  0  0
  4  5  1  0  0  0  0
  4 28  1  0  0  0  0
  4 29  1  0  0  0  0
  5  6  1  0  0  0  0
  5 30  1  0  0  0  0
  5 31  1  0  0  0  0
  6 21  1  0  0  0  0
  6  7  1  0  0  0  0
  7  8  2  0  0  0  0
  7 32  1  0  0  0  0
  8  9  1  0  0  0  0
  8 33  1  0  0  0  0
  9 10  1  0  0  0  0
  9 21  2  0  0  0  0
 10 11  1  0  0  0  0
 10 34  1  0  0  0  0
 11 12  2  0  0  0  0
 11 13  1  0  0  0  0
 13 14  1  0  0  0  0
 13 35  1  0  0  0  0
 14 19  1  0  0  0  0
 14 15  1  0  0  0  0
 14 36  1  0  0  0  0
 15 16  1  0  0  0  0
 15 37  1  0  0  0  0
 15 38  1  0  0  0  0
 16 20  1  0  0  0  0
 16 17  1  0  0  0  0
 16 39  1  0  0  0  0
 17 18  1  0  0  0  0
 17 40  1  0  0  0  0
 17 41  1  0  0  0  0
 18 19  1  0  0  0  0
 18 42  1  0  0  0  0
 18 43  1  0  0  0  0
 19 20  1  0  0  0  0
 19 44  1  0  0  0  0
 20 45  1  0  0  0  0
 20 46  1  0  0  0  0
M  CHG  1   2   1
M  END
> <s_m_source_file>
AV-unprocessed.smi

> <i_m_source_file_index>
720

> <i_lp_mmshare_version>
43012

> <i_f3d_flags>
0

> <s_epik_input>
W0NIM11OKFtDSDNdKVtDSDJdW0NIMl1uMVtjSF1bY0hdYyhuMSlbTkhdQyg9TylbTkhdW0NASF0oW0NIMl1bQ0BIXTIzKVtDQEhdKFtDSDJdMylbQ0gyXVtDSDJdMg==

> <s_epik_cmdline>
J2VwaWtfcHl0aG9uJywgJy1waCcsICc3LjAnLCAnLXRuJywgJzgnLCAnLW1hJywgJzIwMCcsICctbWV0YWxfYmluZGluZycsICctaW1hZScsICc8aW5maWxlLm1hZT4nLCAnLW9tYWUnLCAnPG91dGZpbGUubWFlPic=

> <r_lp_tautomer_probability>
1

> <r_epik_Ionization_Penalty>
0.0272832

> <r_epik_Ionization_Penalty_Charging>
0.027243

> <r_epik_Ionization_Penalty_Neutral>
4.01867e-05

> <r_epik_State_Penalty>
0.0222865

> <r_epik_Charging_Adjusted_Penalty>
0.0495295

> <i_epik_Tot_Q>
1

> <i_epik_Tot_abs_Q>
1

> <r_epik_Metal_State_Penalty>
0.0222866

> <b_epik_Metal_Only>
0

> <s_lp_Force_Field>
OPLS_2005

> <r_lp_Energy>
59.8817

> <b_lp_Chiralities_Consistent>
1

> <s_lp_Variant>
AV-unprocessed.smi:720-3

> <Gold.Version>
5.8.1

> <Gold.Id.Protein>
6NUR|6NUR_protein|mol2

> <Gold.PLP.Fitness>
56.1021

> <Gold.PLP.PLP>
-42.3429

> <Gold.PLP.part.hbond>
-2.8787

> <Gold.PLP.part.metal>
0.0000

> <Gold.PLP.part.buried>
-5.0121

> <Gold.PLP.part.nonpolar>
-35.3888

> <Gold.PLP.part.repulsive>
0.2559

> <Gold.PLP.ligand.clash>
0.0000

> <Gold.PLP.ligand.torsion>
0.2582

> <Gold.PLP.Chemscore.Hbond>
3.8640

> <Gold.PLP.Chemscore.CHOScore>
0.8627

> <Gold.PLP.Chemscore.Metal>
0.0000

> <Gold.Chemscore.Hbonds>
donor molecule, donor type, donor heavy atom, donor atom, acceptor molecule, acceptor atom, score
      L1  H     2    47       P1  7948  2.00
      L1  H    10    34       P1  8028  1.00
      L1  H    13    35       P1  8028  0.86
      L1  C     7    32       P1 10175  0.94

> <Gold.PLP.Chemscore.Internal.Correction>
0.0953

> <Gold.Rescore>
     Score         DG    S(hbond)    S(metal)    S(lipo)     H(rot)  DE(clash)    DE(int)     intcor
     22.11     -23.76       2.85        0.00     110.42       1.62       0.03       1.62       ----

> <Gold.Chemscore.Fitness>
22.1058

> <Gold.Chemscore.DG>
-23.7557

> <Gold.Chemscore.ZeroCoef>
-5.4800

> <Gold.Chemscore.Hbond>
2.8463

> <Gold.Chemscore.Metal>
0.0000

> <Gold.Chemscore.Lipo>
110.4199

> <Gold.Chemscore.Internal_Hbond>
0.0000

> <Gold.Chemscore.DEClash>
0.0347

> <Gold.Chemscore.DEInternal>
1.6151

> <Gold.Chemscore.Rot>
1.6212

> <Gold.Chemscore.Internal.Correction>
   9.000000E+99

> <Gold.Chemscore.Hbonds>
donor molecule, donor type, donor heavy atom, donor atom, acceptor molecule, acceptor atom, score
      L1  H     2    47       P1  7948  1.00
      L1  H    10    34       P1  8028  0.92
      L1  H    13    35       P1  8028  0.70

> <Gold.Chemscore.Hbond.Weighted>
-9.5067

> <Gold.Chemscore.Metal.Weighted>
-0.0000

> <Gold.Chemscore.Lipo.Weighted>
-12.9191

> <Gold.Chemscore.Internal_Hbond.Weighted>
0.0000

> <Gold.Chemscore.DEClash.Weighted>
0.0347

> <Gold.Chemscore.DEInternal.Weighted>
1.6151

> <Gold.Chemscore.Rot.Weighted>
4.1502

> <Gold.Chemscore.Internal.Correction.Weighted>
   9.000000E+99

> <Gold.Protein.RotatedTorsions>
[ 6907 6896 6895 6894 ] final   44.80 input  -60.11 | X-H torsion
[ 7974 7965 7964 7962 ] final   32.80 input  175.53 | X-H torsion
[ 8008 7997 7996 7995 ] final -165.37 input   59.86 | X-H torsion
[ 10167 10162 10161 10158 ] final   12.99 input  -65.29 | X-H torsion
[ 10718 10713 10712 10709 ] final   31.23 input   66.30 | X-H torsion
[ 10763 10752 10751 10750 ] final  130.67 input  -60.55 | X-H torsion
[ 11005 11000 10999 10996 ] final  -85.06 input  -57.11 | X-H torsion

> <Gold.Protein.ActiveResidues>
 VAL166  LYS551  ARG553  GLY616  TRP617  ASP618  TYR619  PRO620  LYS621  CYS622 
 ASP623  PHE694  ASN695  SER759  ASP760  ASP761  ALA762  ILE779  LEU786  VAL792 
 PHE793  MET794  SER795  GLU796  ALA797  LYS798  CYS799  TRP800  GLU811  SER814 

> <Gold.Protein.RotatedAtoms>
  152.2369  134.8267  160.0465 H   0  0  0  0  0  0  0  0  0  0  0  0  # atno 6907 bound_to 6896
  151.8996  133.3530  159.3834 H   0  0  0  0  0  0  0  0  0  0  0  0  # atno 6908 bound_to 6896
  150.7042  134.4768  159.5495 H   0  0  0  0  0  0  0  0  0  0  0  0  # atno 6909 bound_to 6896
  146.1462  139.6479  142.9129 H   0  0  0  0  0  0  0  0  0  0  0  0  # atno 7974 bound_to 7965
  155.8488  140.0960  157.1688 H   0  0  0  0  0  0  0  0  0  0  0  0  # atno 8008 bound_to 7997
  154.3984  140.1387  156.3881 H   0  0  0  0  0  0  0  0  0  0  0  0  # atno 8009 bound_to 7997
  155.7984  140.3453  155.5391 H   0  0  0  0  0  0  0  0  0  0  0  0  # atno 8010 bound_to 7997
  140.6032  143.8562  150.6986 H   0  0  0  0  0  0  0  0  0  0  0  0  # atno 10167 bound_to 10162
  157.2698  130.7202  149.6498 H   0  0  0  0  0  0  0  0  0  0  0  0  # atno 10718 bound_to 10713
  153.7618  135.3195  155.3338 H   0  0  0  0  0  0  0  0  0  0  0  0  # atno 10763 bound_to 10752
  154.8227  135.4591  154.0831 H   0  0  0  0  0  0  0  0  0  0  0  0  # atno 10764 bound_to 10752
  153.2064  135.6929  153.8251 H   0  0  0  0  0  0  0  0  0  0  0  0  # atno 10765 bound_to 10752
  141.1645  133.7379  156.8960 H   0  0  0  0  0  0  0  0  0  0  0  0  # atno 11005 bound_to 11000
  145.4931  141.0438  143.2582 LP  0  0  0  0  0  0  0  0  0  0  0  0  # atno 17320 bound_to 7965
  144.7849  139.6447  143.7138 LP  0  0  0  0  0  0  0  0  0  0  0  0  # atno 17321 bound_to 7965
  140.2113  143.3881  152.1716 LP  0  0  0  0  0  0  0  0  0  0  0  0  # atno 17342 bound_to 10162
  139.5306  144.7154  151.5071 LP  0  0  0  0  0  0  0  0  0  0  0  0  # atno 17343 bound_to 10162
  155.9663  130.4371  150.5162 LP  0  0  0  0  0  0  0  0  0  0  0  0  # atno 17370 bound_to 10713
  157.3084  131.0659  151.2019 LP  0  0  0  0  0  0  0  0  0  0  0  0  # atno 17371 bound_to 10713
  140.1616  134.9162  157.2721 LP  0  0  0  0  0  0  0  0  0  0  0  0  # atno 17394 bound_to 11000
  140.2605  134.3577  155.7408 LP  0  0  0  0  0  0  0  0  0  0  0  0  # atno 17395 bound_to 11000

$$$$
