AV-unprocessed.smi:2135|AV-procd|sdf|8701|dock3
  -GOLD-   2272011463D 1   1.00000     0.00000
 Structure written by MMmdl.
 43 44  0  0  0  0  0  0  0  0  2 V2000
  156.9121  134.5825  161.4509 C   0  0  0  0  0  0  0  0  0  0  0  0
  155.0739  134.5827  161.5195 S   0  0  0  0  0  0  0  0  0  0  0  0
  154.5641  134.5535  160.1400 O   0  0  0  0  0  0  0  0  0  0  0  0
  154.6517  133.5472  162.4750 O   0  0  0  0  0  0  0  0  0  0  0  0
  154.6718  136.1316  162.2037 N   0  0  0  0  0  0  0  0  0  0  0  0
  155.1494  136.4890  163.5550 C   0  0  0  0  0  0  0  0  0  0  0  0
  156.3607  137.4364  163.4972 C   0  0  0  0  0  0  0  0  0  0  0  0
  156.0607  138.6699  162.6377 C   0  0  0  0  0  0  0  0  0  0  0  0
  155.6255  138.2285  161.2288 C   0  0  2  0  0  0  0  0  0  0  0  0
  155.3061  139.4379  160.3403 C   0  0  0  0  0  0  0  0  0  0  0  0
  155.8568  139.5697  159.2466 O   0  0  0  0  0  0  0  0  0  0  0  0
  154.4166  140.3191  160.8240 N   0  0  0  0  0  0  0  0  0  0  0  0
  153.9910  141.5354  160.1425 C   0  0  0  0  0  0  0  0  0  0  0  0
  152.4928  141.4966  159.7985 C   0  0  0  0  0  0  0  0  0  0  0  0
  151.9912  142.8323  159.2868 C   0  0  0  0  0  0  0  0  0  0  0  0
  152.2255  144.0186  160.0166 C   0  0  0  0  0  0  0  0  0  0  0  0
  151.7412  145.2452  159.5158 C   0  0  0  0  0  0  0  0  0  0  0  0
  151.0325  145.2573  158.2969 C   0  0  0  0  0  0  0  0  0  0  0  0
  150.8277  144.1020  157.6267 N   0  3  0  0  0  0  0  0  0  0  0  0
  151.2757  142.9077  158.0722 C   0  0  0  0  0  0  0  0  0  0  0  0
  154.4061  137.2845  161.3192 C   0  0  0  0  0  0  0  0  0  0  0  0
  157.2519  133.6288  161.0479 H   0  0  0  0  0  0  0  0  0  0  0  0
  157.3203  134.7079  162.4522 H   0  0  0  0  0  0  0  0  0  0  0  0
  157.2602  135.3833  160.8013 H   0  0  0  0  0  0  0  0  0  0  0  0
  154.3328  136.9751  164.0899 H   0  0  0  0  0  0  0  0  0  0  0  0
  155.3961  135.5914  164.1212 H   0  0  0  0  0  0  0  0  0  0  0  0
  156.6315  137.7469  164.5067 H   0  0  0  0  0  0  0  0  0  0  0  0
  157.2290  136.9141  163.0977 H   0  0  0  0  0  0  0  0  0  0  0  0
  155.2773  139.2621  163.1137 H   0  0  0  0  0  0  0  0  0  0  0  0
  156.9453  139.3056  162.5827 H   0  0  0  0  0  0  0  0  0  0  0  0
  156.4557  137.6879  160.7745 H   0  0  0  0  0  0  0  0  0  0  0  0
  154.0099  140.1350  161.7298 H   0  0  0  0  0  0  0  0  0  0  0  0
  154.2208  142.4061  160.7593 H   0  0  0  0  0  0  0  0  0  0  0  0
  154.5797  141.6372  159.2304 H   0  0  0  0  0  0  0  0  0  0  0  0
  152.3001  140.7277  159.0488 H   0  0  0  0  0  0  0  0  0  0  0  0
  151.9082  141.2206  160.6772 H   0  0  0  0  0  0  0  0  0  0  0  0
  152.7691  143.9911  160.9499 H   0  0  0  0  0  0  0  0  0  0  0  0
  151.9104  146.1634  160.0592 H   0  0  0  0  0  0  0  0  0  0  0  0
  150.6266  146.1490  157.8413 H   0  0  0  0  0  0  0  0  0  0  0  0
  151.0482  142.0547  157.4491 H   0  0  0  0  0  0  0  0  0  0  0  0
  154.1173  136.9364  160.3274 H   0  0  0  0  0  0  0  0  0  0  0  0
  153.5439  137.8226  161.7156 H   0  0  0  0  0  0  0  0  0  0  0  0
  150.3123  144.1325  156.7465 H   0  0  0  0  0  0  0  0  0  0  0  0
  1  2  1  0  0  0  0
  1 22  1  0  0  0  0
  1 23  1  0  0  0  0
  1 24  1  0  0  0  0
  2  3  2  0  0  0  0
  2  4  2  0  0  0  0
  2  5  1  0  0  0  0
  5 21  1  0  0  0  0
  5  6  1  0  0  0  0
  6  7  1  0  0  0  0
  6 25  1  0  0  0  0
  6 26  1  0  0  0  0
  7  8  1  0  0  0  0
  7 27  1  0  0  0  0
  7 28  1  0  0  0  0
  8  9  1  0  0  0  0
  8 29  1  0  0  0  0
  8 30  1  0  0  0  0
  9 10  1  0  0  0  0
  9 21  1  0  0  0  0
  9 31  1  0  0  0  0
 10 11  2  0  0  0  0
 10 12  1  0  0  0  0
 12 13  1  0  0  0  0
 12 32  1  0  0  0  0
 13 14  1  0  0  0  0
 13 33  1  0  0  0  0
 13 34  1  0  0  0  0
 14 15  1  0  0  0  0
 14 35  1  0  0  0  0
 14 36  1  0  0  0  0
 15 20  1  0  0  0  0
 15 16  2  0  0  0  0
 16 17  1  0  0  0  0
 16 37  1  0  0  0  0
 17 18  2  0  0  0  0
 17 38  1  0  0  0  0
 18 19  1  0  0  0  0
 18 39  1  0  0  0  0
 19 20  2  0  0  0  0
 19 43  1  0  0  0  0
 20 40  1  0  0  0  0
 21 41  1  0  0  0  0
 21 42  1  0  0  0  0
M  CHG  1  19   1
M  END
> <s_m_source_file>
AV-unprocessed.smi

> <i_m_source_file_index>
2135

> <i_lp_mmshare_version>
43012

> <i_f3d_flags>
0

> <s_epik_input>
W0NIM11TKD1PKSg9TylOMVtDSDJdW0NIMl1bQ0gyXVtDQEhdKFtDSDJdMSlDKD1PKVtOSF1bQ0gyXVtDSDJdYzJbY0hdW2NIXVtjSF1uW2NIXTI=

> <s_epik_cmdline>
J2VwaWtfcHl0aG9uJywgJy1waCcsICc3LjAnLCAnLXRuJywgJzgnLCAnLW1hJywgJzIwMCcsICctbWV0YWxfYmluZGluZycsICctaW1hZScsICc8aW5maWxlLm1hZT4nLCAnLW9tYWUnLCAnPG91dGZpbGUubWFlPic=

> <r_epik_Ionization_Penalty>
2.24912

> <r_epik_Ionization_Penalty_Charging>
2.24912

> <r_epik_Ionization_Penalty_Neutral>
2.62834e-08

> <r_epik_State_Penalty>
2.39611

> <r_epik_Charging_Adjusted_Penalty>
4.64523

> <i_epik_Tot_Q>
1

> <i_epik_Tot_abs_Q>
1

> <r_epik_Metal_State_Penalty>
2.40934

> <b_epik_Metal_Only>
0

> <s_lp_Force_Field>
OPLS_2005

> <r_lp_Energy>
6.9467

> <b_lp_Chiralities_Consistent>
1

> <s_lp_Variant>
AV-unprocessed.smi:2135-4

> <Gold.Version>
5.8.1

> <Gold.Id.Protein>
6NUR|6NUR_protein|mol2

> <Gold.PLP.Fitness>
48.0194

> <Gold.PLP.PLP>
-36.4611

> <Gold.PLP.part.hbond>
-3.0000

> <Gold.PLP.part.metal>
0.0000

> <Gold.PLP.part.buried>
-4.9211

> <Gold.PLP.part.nonpolar>
-27.9512

> <Gold.PLP.part.repulsive>
0.0641

> <Gold.PLP.ligand.clash>
0.0000

> <Gold.PLP.ligand.torsion>
1.2437

> <Gold.PLP.Chemscore.Hbond>
3.9913

> <Gold.PLP.Chemscore.CHOScore>
0.0000

> <Gold.PLP.Chemscore.Metal>
0.0000

> <Gold.Chemscore.Hbonds>
donor molecule, donor type, donor heavy atom, donor atom, acceptor molecule, acceptor atom, score
      L1  H    19    43       P1  8028  2.00
      P1  H  6896  6907       L1     3  1.00
      P1  H  7997  8009       L1    11  1.00

> <Gold.PLP.Chemscore.Internal.Correction>
2.0719

> <Gold.Rescore>
     Score         DG    S(hbond)    S(metal)    S(lipo)     H(rot)  DE(clash)    DE(int)     intcor
     21.38     -22.66       2.95        0.00      98.69       1.65       0.07       1.21       ----

> <Gold.Chemscore.Fitness>
21.3837

> <Gold.Chemscore.DG>
-22.6560

> <Gold.Chemscore.ZeroCoef>
-5.4800

> <Gold.Chemscore.Hbond>
2.9531

> <Gold.Chemscore.Metal>
0.0000

> <Gold.Chemscore.Lipo>
98.6871

> <Gold.Chemscore.Internal_Hbond>
0.0000

> <Gold.Chemscore.DEClash>
0.0650

> <Gold.Chemscore.DEInternal>
1.2072

> <Gold.Chemscore.Rot>
1.6538

> <Gold.Chemscore.Internal.Correction>
   9.000000E+99

> <Gold.Chemscore.Hbonds>
donor molecule, donor type, donor heavy atom, donor atom, acceptor molecule, acceptor atom, score
      L1  H    19    43       P1  8028  0.95
      P1  H  6896  6907       L1     3  0.89
      P1  H  7997  8009       L1    11  0.96

> <Gold.Chemscore.Hbond.Weighted>
-9.8633

> <Gold.Chemscore.Metal.Weighted>
-0.0000

> <Gold.Chemscore.Lipo.Weighted>
-11.5464

> <Gold.Chemscore.Internal_Hbond.Weighted>
0.0000

> <Gold.Chemscore.DEClash.Weighted>
0.0650

> <Gold.Chemscore.DEInternal.Weighted>
1.2072

> <Gold.Chemscore.Rot.Weighted>
4.2337

> <Gold.Chemscore.Internal.Correction.Weighted>
   9.000000E+99

> <Gold.Protein.RotatedTorsions>
[ 6907 6896 6895 6894 ] final   78.07 input  -60.11 | X-H torsion
[ 7974 7965 7964 7962 ] final   30.21 input  175.53 | X-H torsion
[ 8008 7997 7996 7995 ] final   87.15 input   59.86 | X-H torsion
[ 10167 10162 10161 10158 ] final   29.13 input  -65.29 | X-H torsion
[ 10718 10713 10712 10709 ] final  -77.57 input   66.30 | X-H torsion
[ 10763 10752 10751 10750 ] final  -99.00 input  -60.55 | X-H torsion
[ 11005 11000 10999 10996 ] final   96.24 input  -57.11 | X-H torsion

> <Gold.Protein.ActiveResidues>
 VAL166  LYS551  ARG553  GLY616  TRP617  ASP618  TYR619  PRO620  LYS621  CYS622 
 ASP623  PHE694  ASN695  SER759  ASP760  ASP761  ALA762  ILE779  LEU786  VAL792 
 PHE793  MET794  SER795  GLU796  ALA797  LYS798  CYS799  TRP800  GLU811  SER814 

> <Gold.Protein.RotatedAtoms>
  152.5144  134.3720  159.9321 H   0  0  0  0  0  0  0  0  0  0  0  0  # atno 6907 bound_to 6896
  151.3674  133.3861  159.2704 H   0  0  0  0  0  0  0  0  0  0  0  0  # atno 6908 bound_to 6896
  150.9604  134.9012  159.7785 H   0  0  0  0  0  0  0  0  0  0  0  0  # atno 6909 bound_to 6896
  146.1625  139.6819  142.9023 H   0  0  0  0  0  0  0  0  0  0  0  0  # atno 7974 bound_to 7965
  155.9718  140.3385  155.6582 H   0  0  0  0  0  0  0  0  0  0  0  0  # atno 8008 bound_to 7997
  155.6665  140.0722  157.2554 H   0  0  0  0  0  0  0  0  0  0  0  0  # atno 8009 bound_to 7997
  154.4168  140.1699  156.1820 H   0  0  0  0  0  0  0  0  0  0  0  0  # atno 8010 bound_to 7997
  140.4792  144.0642  150.6260 H   0  0  0  0  0  0  0  0  0  0  0  0  # atno 10167 bound_to 10162
  156.0141  130.4495  150.3364 H   0  0  0  0  0  0  0  0  0  0  0  0  # atno 10718 bound_to 10713
  154.7461  135.4988  153.9207 H   0  0  0  0  0  0  0  0  0  0  0  0  # atno 10763 bound_to 10752
  153.1094  135.6705  153.9536 H   0  0  0  0  0  0  0  0  0  0  0  0  # atno 10764 bound_to 10752
  153.9300  135.3079  155.3425 H   0  0  0  0  0  0  0  0  0  0  0  0  # atno 10765 bound_to 10752
  139.8783  134.8941  156.4130 H   0  0  0  0  0  0  0  0  0  0  0  0  # atno 11005 bound_to 11000
  145.4551  141.0430  143.2783 LP  0  0  0  0  0  0  0  0  0  0  0  0  # atno 17320 bound_to 7965
  144.8047  139.6074  143.7056 LP  0  0  0  0  0  0  0  0  0  0  0  0  # atno 17321 bound_to 7965
  140.3879  143.2768  152.0094 LP  0  0  0  0  0  0  0  0  0  0  0  0  # atno 17342 bound_to 10162
  139.4830  144.6101  151.7449 LP  0  0  0  0  0  0  0  0  0  0  0  0  # atno 17343 bound_to 10162
  157.1461  131.0309  151.2906 LP  0  0  0  0  0  0  0  0  0  0  0  0  # atno 17370 bound_to 10713
  157.4431  130.7555  149.7086 LP  0  0  0  0  0  0  0  0  0  0  0  0  # atno 17371 bound_to 10713
  140.9187  133.7660  155.9880 LP  0  0  0  0  0  0  0  0  0  0  0  0  # atno 17394 bound_to 11000
  140.8464  134.3005  157.5293 LP  0  0  0  0  0  0  0  0  0  0  0  0  # atno 17395 bound_to 11000

$$$$
