AV-unprocessed.smi:1684|AV-procd|sdf|6753|dock10
  -GOLD-   22720 7513D 1   1.00000     0.00000
 Structure written by MMmdl.
 42 43  0  0  0  0  0  0  0  0  1 V2000
  147.6410  132.9982  152.5370 C   0  0  0  0  0  0  0  0  0  0  0  0
  146.3037  132.9683  151.8150 C   0  0  0  0  0  0  0  0  0  0  0  0
  145.6796  131.7270  151.5684 C   0  0  0  0  0  0  0  0  0  0  0  0
  144.4425  131.7015  150.9021 C   0  0  0  0  0  0  0  0  0  0  0  0
  143.8787  132.9267  150.5072 C   0  0  0  0  0  0  0  0  0  0  0  0
  144.4688  134.1171  150.7372 N   0  0  0  0  0  0  0  0  0  0  0  0
  145.6633  134.1595  151.3796 C   0  0  0  0  0  0  0  0  0  0  0  0
  146.3427  135.3789  151.6594 N   0  0  0  0  0  0  0  0  0  0  0  0
  145.8180  136.5898  151.9166 C   0  0  0  0  0  0  0  0  0  0  0  0
  144.6159  136.8562  151.9314 O   0  0  0  0  0  0  0  0  0  0  0  0
  146.7824  137.4907  152.1578 N   0  0  0  0  0  0  0  0  0  0  0  0
  146.5746  138.9010  152.4820 C   0  0  2  0  0  0  0  0  0  0  0  0
  146.8968  139.7476  151.2431 C   0  0  0  0  0  0  0  0  0  0  0  0
  147.4574  139.3148  153.6798 C   0  0  0  0  0  0  0  0  0  0  0  0
  147.0059  140.4880  154.4292 N   0  0  0  0  0  0  0  0  0  0  0  0
  146.8881  141.6532  153.5599 C   0  0  0  0  0  0  0  0  0  0  0  0
  146.4209  142.9007  154.3300 C   0  0  0  0  0  0  0  0  0  0  0  0
  145.1837  142.6261  154.9787 O   0  0  0  0  0  0  0  0  0  0  0  0
  145.2667  141.5201  155.8715 C   0  0  0  0  0  0  0  0  0  0  0  0
  145.7269  140.2700  155.1024 C   0  0  0  0  0  0  0  0  0  0  0  0
  147.9727  131.9935  152.8010 H   0  0  0  0  0  0  0  0  0  0  0  0
  147.5654  133.5783  153.4572 H   0  0  0  0  0  0  0  0  0  0  0  0
  148.4063  133.4489  151.9041 H   0  0  0  0  0  0  0  0  0  0  0  0
  146.1409  130.8032  151.8855 H   0  0  0  0  0  0  0  0  0  0  0  0
  143.9392  130.7679  150.6993 H   0  0  0  0  0  0  0  0  0  0  0  0
  142.9292  132.9524  149.9933 H   0  0  0  0  0  0  0  0  0  0  0  0
  147.3498  135.3180  151.6697 H   0  0  0  0  0  0  0  0  0  0  0  0
  147.7404  137.1749  152.1244 H   0  0  0  0  0  0  0  0  0  0  0  0
  145.5251  139.0814  152.7161 H   0  0  0  0  0  0  0  0  0  0  0  0
  146.7245  140.8065  151.4378 H   0  0  0  0  0  0  0  0  0  0  0  0
  146.2689  139.4630  150.3982 H   0  0  0  0  0  0  0  0  0  0  0  0
  147.9378  139.6306  150.9393 H   0  0  0  0  0  0  0  0  0  0  0  0
  147.5131  138.4630  154.3590 H   0  0  0  0  0  0  0  0  0  0  0  0
  148.4785  139.4819  153.3340 H   0  0  0  0  0  0  0  0  0  0  0  0
  147.8494  141.8625  153.0892 H   0  0  0  0  0  0  0  0  0  0  0  0
  146.1844  141.4430  152.7530 H   0  0  0  0  0  0  0  0  0  0  0  0
  147.1668  143.2019  155.0671 H   0  0  0  0  0  0  0  0  0  0  0  0
  146.2874  143.7398  153.6473 H   0  0  0  0  0  0  0  0  0  0  0  0
  145.9581  141.7487  156.6842 H   0  0  0  0  0  0  0  0  0  0  0  0
  144.2883  141.3503  156.3209 H   0  0  0  0  0  0  0  0  0  0  0  0
  144.9651  139.9950  154.3716 H   0  0  0  0  0  0  0  0  0  0  0  0
  145.7997  139.4401  155.8033 H   0  0  0  0  0  0  0  0  0  0  0  0
  1  2  1  0  0  0  0
  1 21  1  0  0  0  0
  1 22  1  0  0  0  0
  1 23  1  0  0  0  0
  2  7  1  0  0  0  0
  2  3  2  0  0  0  0
  3  4  1  0  0  0  0
  3 24  1  0  0  0  0
  4  5  2  0  0  0  0
  4 25  1  0  0  0  0
  5  6  1  0  0  0  0
  5 26  1  0  0  0  0
  6  7  2  0  0  0  0
  7  8  1  0  0  0  0
  8  9  1  0  0  0  0
  8 27  1  0  0  0  0
  9 10  2  0  0  0  0
  9 11  1  0  0  0  0
 11 12  1  0  0  0  0
 11 28  1  0  0  0  0
 12 13  1  0  0  0  0
 12 14  1  0  0  0  0
 12 29  1  0  0  0  0
 13 30  1  0  0  0  0
 13 31  1  0  0  0  0
 13 32  1  0  0  0  0
 14 15  1  0  0  0  0
 14 33  1  0  0  0  0
 14 34  1  0  0  0  0
 15 20  1  0  0  0  0
 15 16  1  0  0  0  0
 16 17  1  0  0  0  0
 16 35  1  0  0  0  0
 16 36  1  0  0  0  0
 17 18  1  0  0  0  0
 17 37  1  0  0  0  0
 17 38  1  0  0  0  0
 18 19  1  0  0  0  0
 19 20  1  0  0  0  0
 19 39  1  0  0  0  0
 19 40  1  0  0  0  0
 20 41  1  0  0  0  0
 20 42  1  0  0  0  0
M  END
> <s_m_source_file>
AV-unprocessed.smi

> <i_m_source_file_index>
1684

> <i_lp_mmshare_version>
43012

> <i_f3d_flags>
0

> <s_epik_input>
W0NIM11jMVtjSF1bY0hdW2NIXW5jMVtOSF1DKD1PKVtOSF1bQ0BIXShbQ0gzXSlbQ0gyXU4yW0NIMl1bQ0gyXU9bQ0gyXVtDSDJdMg==

> <s_epik_cmdline>
J2VwaWtfcHl0aG9uJywgJy1waCcsICc3LjAnLCAnLXRuJywgJzgnLCAnLW1hJywgJzIwMCcsICctbWV0YWxfYmluZGluZycsICctaW1hZScsICc8aW5maWxlLm1hZT4nLCAnLW9tYWUnLCAnPG91dGZpbGUubWFlPic=

> <r_epik_Ionization_Penalty>
0.26605

> <r_epik_Ionization_Penalty_Charging>
0

> <r_epik_Ionization_Penalty_Neutral>
0.26605

> <r_epik_State_Penalty>
0.257924

> <r_epik_Charging_Adjusted_Penalty>
0.257924

> <i_epik_Tot_Q>
0

> <i_epik_Tot_abs_Q>
0

> <r_epik_Metal_State_Penalty>
0.257922

> <b_epik_Metal_Only>
0

> <s_lp_Force_Field>
OPLS_2005

> <r_lp_Energy>
27.9157

> <b_lp_Chiralities_Consistent>
1

> <s_lp_Variant>
AV-unprocessed.smi:1684-1

> <Gold.Version>
5.8.1

> <Gold.Id.Protein>
6NUR|6NUR_protein|mol2

> <Gold.PLP.Fitness>
40.5666

> <Gold.PLP.PLP>
-32.9199

> <Gold.PLP.part.hbond>
-1.8990

> <Gold.PLP.part.metal>
0.0000

> <Gold.PLP.part.buried>
-2.9250

> <Gold.PLP.part.nonpolar>
-29.2301

> <Gold.PLP.part.repulsive>
1.5654

> <Gold.PLP.ligand.clash>
0.0057

> <Gold.PLP.ligand.torsion>
0.6247

> <Gold.PLP.Chemscore.Hbond>
1.9600

> <Gold.PLP.Chemscore.CHOScore>
1.0000

> <Gold.PLP.Chemscore.Metal>
0.0000

> <Gold.Chemscore.Hbonds>
donor molecule, donor type, donor heavy atom, donor atom, acceptor molecule, acceptor atom, score
      L1  H     8    27       P1  7948  0.96
      L1  H    11    28       P1  7948  1.00
      L1  C     5    26       P1 10186  1.00

> <Gold.PLP.Chemscore.Internal.Correction>
0.0218

> <Gold.Rescore>
     Score         DG    S(hbond)    S(metal)    S(lipo)     H(rot)  DE(clash)    DE(int)     intcor
     14.40     -16.99       1.87        0.00      77.00       1.46       0.88       1.71       ----

> <Gold.Chemscore.Fitness>
14.3952

> <Gold.Chemscore.DG>
-16.9909

> <Gold.Chemscore.ZeroCoef>
-5.4800

> <Gold.Chemscore.Hbond>
1.8668

> <Gold.Chemscore.Metal>
0.0000

> <Gold.Chemscore.Lipo>
76.9962

> <Gold.Chemscore.Internal_Hbond>
0.0000

> <Gold.Chemscore.DEClash>
0.8844

> <Gold.Chemscore.DEInternal>
1.7113

> <Gold.Chemscore.Rot>
1.4581

> <Gold.Chemscore.Internal.Correction>
   9.000000E+99

> <Gold.Chemscore.Hbonds>
donor molecule, donor type, donor heavy atom, donor atom, acceptor molecule, acceptor atom, score
      L1  H     8    27       P1  7948  0.88
      L1  H    11    28       P1  7948  0.94

> <Gold.Chemscore.Hbond.Weighted>
-6.2351

> <Gold.Chemscore.Metal.Weighted>
-0.0000

> <Gold.Chemscore.Lipo.Weighted>
-9.0086

> <Gold.Chemscore.Internal_Hbond.Weighted>
0.0000

> <Gold.Chemscore.DEClash.Weighted>
0.8844

> <Gold.Chemscore.DEInternal.Weighted>
1.7113

> <Gold.Chemscore.Rot.Weighted>
3.7327

> <Gold.Chemscore.Internal.Correction.Weighted>
   9.000000E+99

> <Gold.Protein.RotatedTorsions>
[ 6907 6896 6895 6894 ] final -177.84 input  -60.11 | X-H torsion
[ 7974 7965 7964 7962 ] final  128.29 input  175.53 | X-H torsion
[ 8008 7997 7996 7995 ] final   66.20 input   59.86 | X-H torsion
[ 10167 10162 10161 10158 ] final -115.49 input  -65.29 | X-H torsion
[ 10718 10713 10712 10709 ] final  137.30 input   66.30 | X-H torsion
[ 10763 10752 10751 10750 ] final  -14.86 input  -60.55 | X-H torsion
[ 11005 11000 10999 10996 ] final -141.74 input  -57.11 | X-H torsion

> <Gold.Protein.ActiveResidues>
 VAL166  LYS551  ARG553  GLY616  TRP617  ASP618  TYR619  PRO620  LYS621  CYS622 
 ASP623  PHE694  ASN695  SER759  ASP760  ASP761  ALA762  ILE779  LEU786  VAL792 
 PHE793  MET794  SER795  GLU796  ALA797  LYS798  CYS799  TRP800  GLU811  SER814 

> <Gold.Protein.RotatedAtoms>
  151.6275  133.3334  159.3101 H   0  0  0  0  0  0  0  0  0  0  0  0  # atno 6907 bound_to 6896
  150.8074  134.7211  159.6668 H   0  0  0  0  0  0  0  0  0  0  0  0  # atno 6908 bound_to 6896
  152.4170  134.6029  160.0056 H   0  0  0  0  0  0  0  0  0  0  0  0  # atno 6909 bound_to 6896
  145.0412  139.3962  143.5101 H   0  0  0  0  0  0  0  0  0  0  0  0  # atno 7974 bound_to 7965
  155.6736  140.3497  155.4828 H   0  0  0  0  0  0  0  0  0  0  0  0  # atno 8008 bound_to 7997
  155.9667  140.1148  157.0871 H   0  0  0  0  0  0  0  0  0  0  0  0  # atno 8009 bound_to 7997
  154.4156  140.1165  156.5237 H   0  0  0  0  0  0  0  0  0  0  0  0  # atno 8010 bound_to 7997
  140.0895  143.4713  152.1878 H   0  0  0  0  0  0  0  0  0  0  0  0  # atno 10167 bound_to 10162
  157.4375  131.1054  151.0181 H   0  0  0  0  0  0  0  0  0  0  0  0  # atno 10718 bound_to 10713
  153.5346  135.7014  153.5666 H   0  0  0  0  0  0  0  0  0  0  0  0  # atno 10763 bound_to 10752
  153.3659  135.3957  155.1753 H   0  0  0  0  0  0  0  0  0  0  0  0  # atno 10764 bound_to 10752
  154.8681  135.3800  154.4845 H   0  0  0  0  0  0  0  0  0  0  0  0  # atno 10765 bound_to 10752
  140.8295  134.2535  157.4863 H   0  0  0  0  0  0  0  0  0  0  0  0  # atno 11005 bound_to 11000
  146.3509  140.0014  142.8676 LP  0  0  0  0  0  0  0  0  0  0  0  0  # atno 17320 bound_to 7965
  145.1645  140.9690  143.4357 LP  0  0  0  0  0  0  0  0  0  0  0  0  # atno 17321 bound_to 7965
  139.5733  144.7474  151.3833 LP  0  0  0  0  0  0  0  0  0  0  0  0  # atno 17342 bound_to 10162
  140.7036  143.7570  150.7444 LP  0  0  0  0  0  0  0  0  0  0  0  0  # atno 17343 bound_to 10162
  157.1056  130.6000  149.5470 LP  0  0  0  0  0  0  0  0  0  0  0  0  # atno 17370 bound_to 10713
  155.9936  130.4997  150.7386 LP  0  0  0  0  0  0  0  0  0  0  0  0  # atno 17371 bound_to 10713
  139.8705  134.9578  156.4281 LP  0  0  0  0  0  0  0  0  0  0  0  0  # atno 17394 bound_to 11000
  140.9014  133.7777  155.9684 LP  0  0  0  0  0  0  0  0  0  0  0  0  # atno 17395 bound_to 11000

$$$$
