AV-unprocessed.smi:1940|AV-procd|sdf|7841|dock2
  -GOLD-   22720 9583D 1   1.00000     0.00000
 Structure written by MMmdl.
 50 52  0  0  0  0  0  0  0  0  2 V2000
  147.7351  133.2305  155.5222 C   0  0  0  0  0  0  0  0  0  0  0  0
  148.7020  133.3881  154.3387 C   0  0  2  0  0  0  0  0  0  0  0  0
  149.0228  134.8053  154.1843 N   0  0  0  0  0  0  0  0  0  0  0  0
  149.5358  135.6033  155.1319 C   0  0  0  0  0  0  0  0  0  0  0  0
  149.7876  135.2319  156.2779 O   0  0  0  0  0  0  0  0  0  0  0  0
  149.7533  136.8402  154.6535 N   0  0  0  0  0  0  0  0  0  0  0  0
  150.2384  137.9834  155.3433 C   0  0  0  0  0  0  0  0  0  0  0  0
  150.4069  137.8843  156.7412 C   0  0  0  0  0  0  0  0  0  0  0  0
  150.9106  138.9836  157.4655 C   0  0  0  0  0  0  0  0  0  0  0  0
  151.2510  140.1692  156.7753 C   0  0  0  0  0  0  0  0  0  0  0  0
  151.7681  141.3070  157.4083 N   0  0  0  0  0  0  0  0  0  0  0  0
  150.9927  142.5106  157.1188 C   0  0  0  0  0  0  0  0  0  0  0  0
  151.6904  143.7610  157.6813 C   0  0  0  0  0  0  0  0  0  0  0  0
  151.9832  143.5983  159.1815 C   0  0  0  0  0  0  0  0  0  0  0  0
  152.7791  142.3069  159.4290 C   0  0  0  0  0  0  0  0  0  0  0  0
  152.0538  141.0922  158.8253 C   0  0  0  0  0  0  0  0  0  0  0  0
  151.0811  140.2250  155.4365 N   0  3  0  0  0  0  0  0  0  0  0  0
  150.5996  139.1957  154.7058 C   0  0  0  0  0  0  0  0  0  0  0  0
  148.1122  132.8492  153.0202 C   0  0  2  0  0  0  0  0  0  0  0  0
  146.9157  133.6377  152.4857 C   0  0  0  0  0  0  0  0  0  0  0  0
  146.2303  132.6044  151.6222 C   0  0  0  0  0  0  0  0  0  0  0  0
  146.4131  131.3371  152.4511 C   0  0  0  0  0  0  0  0  0  0  0  0
  147.6129  131.5244  153.1975 O   0  0  0  0  0  0  0  0  0  0  0  0
  147.5056  132.1821  155.7126 H   0  0  0  0  0  0  0  0  0  0  0  0
  146.7940  133.7496  155.3383 H   0  0  0  0  0  0  0  0  0  0  0  0
  148.1675  133.6377  156.4368 H   0  0  0  0  0  0  0  0  0  0  0  0
  149.6050  132.8205  154.5706 H   0  0  0  0  0  0  0  0  0  0  0  0
  148.8555  135.2039  153.2722 H   0  0  0  0  0  0  0  0  0  0  0  0
  149.5829  136.9684  153.6668 H   0  0  0  0  0  0  0  0  0  0  0  0
  150.1500  136.9723  157.2601 H   0  0  0  0  0  0  0  0  0  0  0  0
  151.0343  138.9115  158.5361 H   0  0  0  0  0  0  0  0  0  0  0  0
  150.8616  142.6136  156.0408 H   0  0  0  0  0  0  0  0  0  0  0  0
  149.9969  142.4160  157.5541 H   0  0  0  0  0  0  0  0  0  0  0  0
  152.6245  143.9310  157.1438 H   0  0  0  0  0  0  0  0  0  0  0  0
  151.0708  144.6422  157.5129 H   0  0  0  0  0  0  0  0  0  0  0  0
  152.5366  144.4605  159.5544 H   0  0  0  0  0  0  0  0  0  0  0  0
  151.0454  143.5644  159.7374 H   0  0  0  0  0  0  0  0  0  0  0  0
  153.7712  142.3985  158.9848 H   0  0  0  0  0  0  0  0  0  0  0  0
  152.9305  142.1583  160.4985 H   0  0  0  0  0  0  0  0  0  0  0  0
  151.1230  140.9155  159.3661 H   0  0  0  0  0  0  0  0  0  0  0  0
  152.6677  140.1983  158.9444 H   0  0  0  0  0  0  0  0  0  0  0  0
  150.5408  139.3827  153.6443 H   0  0  0  0  0  0  0  0  0  0  0  0
  148.8842  132.8094  152.2498 H   0  0  0  0  0  0  0  0  0  0  0  0
  146.2557  133.9393  153.3003 H   0  0  0  0  0  0  0  0  0  0  0  0
  147.2061  134.5301  151.9306 H   0  0  0  0  0  0  0  0  0  0  0  0
  145.1841  132.8355  151.4200 H   0  0  0  0  0  0  0  0  0  0  0  0
  146.7510  132.5093  150.6684 H   0  0  0  0  0  0  0  0  0  0  0  0
  145.5863  131.2171  153.1521 H   0  0  0  0  0  0  0  0  0  0  0  0
  146.4651  130.4413  151.8322 H   0  0  0  0  0  0  0  0  0  0  0  0
  151.3352  141.0856  154.9507 H   0  0  0  0  0  0  0  0  0  0  0  0
  1  2  1  0  0  0  0
  1 24  1  0  0  0  0
  1 25  1  0  0  0  0
  1 26  1  0  0  0  0
  2  3  1  0  0  0  0
  2 19  1  0  0  0  0
  2 27  1  0  0  0  0
  3  4  1  0  0  0  0
  3 28  1  0  0  0  0
  4  5  2  0  0  0  0
  4  6  1  0  0  0  0
  6  7  1  0  0  0  0
  6 29  1  0  0  0  0
  7 18  1  0  0  0  0
  7  8  2  0  0  0  0
  8  9  1  0  0  0  0
  8 30  1  0  0  0  0
  9 10  2  0  0  0  0
  9 31  1  0  0  0  0
 10 11  1  0  0  0  0
 10 17  1  0  0  0  0
 11 16  1  0  0  0  0
 11 12  1  0  0  0  0
 12 13  1  0  0  0  0
 12 32  1  0  0  0  0
 12 33  1  0  0  0  0
 13 14  1  0  0  0  0
 13 34  1  0  0  0  0
 13 35  1  0  0  0  0
 14 15  1  0  0  0  0
 14 36  1  0  0  0  0
 14 37  1  0  0  0  0
 15 16  1  0  0  0  0
 15 38  1  0  0  0  0
 15 39  1  0  0  0  0
 16 40  1  0  0  0  0
 16 41  1  0  0  0  0
 17 18  2  0  0  0  0
 17 50  1  0  0  0  0
 18 42  1  0  0  0  0
 19 23  1  0  0  0  0
 19 20  1  0  0  0  0
 19 43  1  0  0  0  0
 20 21  1  0  0  0  0
 20 44  1  0  0  0  0
 20 45  1  0  0  0  0
 21 22  1  0  0  0  0
 21 46  1  0  0  0  0
 21 47  1  0  0  0  0
 22 23  1  0  0  0  0
 22 48  1  0  0  0  0
 22 49  1  0  0  0  0
M  CHG  1  17   1
M  END
> <s_m_source_file>
AV-unprocessed.smi

> <i_m_source_file_index>
1940

> <i_lp_mmshare_version>
43012

> <i_f3d_flags>
0

> <s_epik_input>
TzFbQ0gyXVtDSDJdW0NIMl1bQ0BIXTFbQ0BIXShbQ0gzXSlbTkhdQyg9TylbTkhdYzJbY0hdW2NIXWMobltjSF0yKU4zW0NIMl1bQ0gyXVtDSDJdW0NIMl1bQ0gyXTM=

> <s_epik_cmdline>
J2VwaWtfcHl0aG9uJywgJy1waCcsICc3LjAnLCAnLXRuJywgJzgnLCAnLW1hJywgJzIwMCcsICctbWV0YWxfYmluZGluZycsICctaW1hZScsICc8aW5maWxlLm1hZT4nLCAnLW9tYWUnLCAnPG91dGZpbGUubWFlPic=

> <r_lp_tautomer_probability>
0.999994

> <r_epik_Ionization_Penalty>
1.10603

> <r_epik_Ionization_Penalty_Charging>
1.10601

> <r_epik_Ionization_Penalty_Neutral>
1.929e-05

> <r_epik_State_Penalty>
1.16358

> <r_epik_Charging_Adjusted_Penalty>
2.26959

> <i_epik_Tot_Q>
1

> <i_epik_Tot_abs_Q>
1

> <r_epik_Metal_State_Penalty>
1.25013

> <b_epik_Metal_Only>
0

> <s_lp_Force_Field>
OPLS_2005

> <r_lp_Energy>
41.0283

> <b_lp_Chiralities_Consistent>
1

> <s_lp_Variant>
AV-unprocessed.smi:1940-5

> <Gold.Version>
5.8.1

> <Gold.Id.Protein>
6NUR|6NUR_protein|mol2

> <Gold.PLP.Fitness>
43.8912

> <Gold.PLP.PLP>
-38.0657

> <Gold.PLP.part.hbond>
-2.0000

> <Gold.PLP.part.metal>
0.0000

> <Gold.PLP.part.buried>
-4.3219

> <Gold.PLP.part.nonpolar>
-32.4223

> <Gold.PLP.part.repulsive>
0.9519

> <Gold.PLP.ligand.clash>
0.0000

> <Gold.PLP.ligand.torsion>
0.1515

> <Gold.PLP.Chemscore.Hbond>
1.9920

> <Gold.PLP.Chemscore.CHOScore>
0.0000

> <Gold.PLP.Chemscore.Metal>
0.0000

> <Gold.Chemscore.Hbonds>
donor molecule, donor type, donor heavy atom, donor atom, acceptor molecule, acceptor atom, score
      L1  H     3    28       P1  7948  1.00
      L1  H     6    29       P1  7948  1.00

> <Gold.PLP.Chemscore.Internal.Correction>
0.1524

> <Gold.Rescore>
     Score         DG    S(hbond)    S(metal)    S(lipo)     H(rot)  DE(clash)    DE(int)     intcor
     16.50     -19.35       1.72        0.00      99.02       1.36       0.10       2.74       ----

> <Gold.Chemscore.Fitness>
16.5003

> <Gold.Chemscore.DG>
-19.3467

> <Gold.Chemscore.ZeroCoef>
-5.4800

> <Gold.Chemscore.Hbond>
1.7232

> <Gold.Chemscore.Metal>
0.0000

> <Gold.Chemscore.Lipo>
99.0182

> <Gold.Chemscore.Internal_Hbond>
0.0000

> <Gold.Chemscore.DEClash>
0.1022

> <Gold.Chemscore.DEInternal>
2.7442

> <Gold.Chemscore.Rot>
1.3571

> <Gold.Chemscore.Internal.Correction>
   9.000000E+99

> <Gold.Chemscore.Hbonds>
donor molecule, donor type, donor heavy atom, donor atom, acceptor molecule, acceptor atom, score
      L1  H     3    28       P1  7948  0.55
      L1  H     6    29       P1  7948  0.74

> <Gold.Chemscore.Hbond.Weighted>
-5.7556

> <Gold.Chemscore.Metal.Weighted>
-0.0000

> <Gold.Chemscore.Lipo.Weighted>
-11.5851

> <Gold.Chemscore.Internal_Hbond.Weighted>
0.0000

> <Gold.Chemscore.DEClash.Weighted>
0.1022

> <Gold.Chemscore.DEInternal.Weighted>
2.7442

> <Gold.Chemscore.Rot.Weighted>
3.4741

> <Gold.Chemscore.Internal.Correction.Weighted>
   9.000000E+99

> <Gold.Protein.RotatedTorsions>
[ 6907 6896 6895 6894 ] final -116.96 input  -60.11 | X-H torsion
[ 7974 7965 7964 7962 ] final -100.36 input  175.53 | X-H torsion
[ 8008 7997 7996 7995 ] final  118.11 input   59.86 | X-H torsion
[ 10167 10162 10161 10158 ] final  116.33 input  -65.29 | X-H torsion
[ 10718 10713 10712 10709 ] final    7.39 input   66.30 | X-H torsion
[ 10763 10752 10751 10750 ] final   94.05 input  -60.55 | X-H torsion
[ 11005 11000 10999 10996 ] final  163.74 input  -57.11 | X-H torsion

> <Gold.Protein.ActiveResidues>
 VAL166  LYS551  ARG553  GLY616  TRP617  ASP618  TYR619  PRO620  LYS621  CYS622 
 ASP623  PHE694  ASN695  SER759  ASP760  ASP761  ALA762  ILE779  LEU786  VAL792 
 PHE793  MET794  SER795  GLU796  ALA797  LYS798  CYS799  TRP800  GLU811  SER814 

> <Gold.Protein.RotatedAtoms>
  150.8098  133.8443  159.3187 H   0  0  0  0  0  0  0  0  0  0  0  0  # atno 6907 bound_to 6896
  151.6231  135.1028  160.0115 H   0  0  0  0  0  0  0  0  0  0  0  0  # atno 6908 bound_to 6896
  152.4190  133.7044  159.6499 H   0  0  0  0  0  0  0  0  0  0  0  0  # atno 6909 bound_to 6896
  145.2955  140.9364  143.2853 H   0  0  0  0  0  0  0  0  0  0  0  0  # atno 7974 bound_to 7965
  156.2529  140.2882  156.0784 H   0  0  0  0  0  0  0  0  0  0  0  0  # atno 8008 bound_to 7997
  155.1594  140.0399  157.2856 H   0  0  0  0  0  0  0  0  0  0  0  0  # atno 8009 bound_to 7997
  154.6404  140.2521  155.7336 H   0  0  0  0  0  0  0  0  0  0  0  0  # atno 8010 bound_to 7997
  139.6255  144.7107  151.2543 H   0  0  0  0  0  0  0  0  0  0  0  0  # atno 10167 bound_to 10162
  156.9362  130.5844  149.5651 H   0  0  0  0  0  0  0  0  0  0  0  0  # atno 10718 bound_to 10713
  153.2372  135.4303  155.0659 H   0  0  0  0  0  0  0  0  0  0  0  0  # atno 10763 bound_to 10752
  154.8324  135.3394  154.6702 H   0  0  0  0  0  0  0  0  0  0  0  0  # atno 10764 bound_to 10752
  153.7127  135.7022  153.5089 H   0  0  0  0  0  0  0  0  0  0  0  0  # atno 10765 bound_to 10752
  140.2389  134.8066  157.3391 H   0  0  0  0  0  0  0  0  0  0  0  0  # atno 11005 bound_to 11000
  144.9137  139.4497  143.6575 LP  0  0  0  0  0  0  0  0  0  0  0  0  # atno 17320 bound_to 7965
  146.3170  139.7959  142.8976 LP  0  0  0  0  0  0  0  0  0  0  0  0  # atno 17321 bound_to 7965
  140.7408  143.6576  150.8192 LP  0  0  0  0  0  0  0  0  0  0  0  0  # atno 17342 bound_to 10162
  140.0194  143.5559  152.2807 LP  0  0  0  0  0  0  0  0  0  0  0  0  # atno 17343 bound_to 10162
  156.0425  130.5506  150.8804 LP  0  0  0  0  0  0  0  0  0  0  0  0  # atno 17370 bound_to 10713
  157.5815  131.0946  150.9263 LP  0  0  0  0  0  0  0  0  0  0  0  0  # atno 17371 bound_to 10713
  140.1674  134.4652  155.7854 LP  0  0  0  0  0  0  0  0  0  0  0  0  # atno 17394 bound_to 11000
  141.2212  133.6927  156.7648 LP  0  0  0  0  0  0  0  0  0  0  0  0  # atno 17395 bound_to 11000

$$$$
