AV-unprocessed.smi:2346|AV-procd|sdf|9365|dock10
  -GOLD-   2272012593D 1   1.00000     0.00000
 Structure written by MMmdl.
 44 46  0  0  0  0  0  0  0  0  1 V2000
  145.7244  143.6521  153.4286 C   0  0  0  0  0  0  0  0  0  0  0  0
  146.6395  143.0941  154.3604 O   0  0  0  0  0  0  0  0  0  0  0  0
  147.0769  141.8012  154.1567 C   0  0  0  0  0  0  0  0  0  0  0  0
  146.6998  141.0121  153.0401 C   0  0  0  0  0  0  0  0  0  0  0  0
  147.1862  139.6984  152.8945 C   0  0  0  0  0  0  0  0  0  0  0  0
  146.7938  138.8986  151.7462 C   0  0  0  0  0  0  0  0  0  0  0  0
  146.4816  138.2618  150.8320 N   0  0  0  0  0  0  0  0  0  0  0  0
  148.0529  139.1616  153.8637 C   0  0  0  0  0  0  0  0  0  0  0  0
  148.4320  139.9358  154.9748 C   0  0  0  0  0  0  0  0  0  0  0  0
  147.9483  141.2597  155.1303 C   0  0  0  0  0  0  0  0  0  0  0  0
  148.2790  142.0745  156.1938 O   0  0  0  0  0  0  0  0  0  0  0  0
  149.0736  141.5340  157.2396 C   0  0  0  0  0  0  0  0  0  0  0  0
  150.5479  141.8156  156.9264 C   0  0  0  0  0  0  0  0  0  0  0  0
  151.3906  141.6767  158.1056 N   0  0  0  0  0  0  0  0  0  0  0  0
  152.1337  140.6090  158.5021 C   0  0  0  0  0  0  0  0  0  0  0  0
  152.1856  139.3141  157.7360 C   0  0  2  0  0  0  0  0  0  0  0  0
  152.9954  138.2403  158.4764 C   0  0  0  0  0  0  0  0  0  0  0  0
  152.7457  139.4820  156.4497 O   0  0  0  0  0  0  0  0  0  0  0  0
  152.8231  140.7773  159.6330 N   0  0  0  0  0  0  0  0  0  0  0  0
  152.4902  142.0624  160.0098 C   0  0  0  0  0  0  0  0  0  0  0  0
  152.8951  142.8240  161.1293 C   0  0  0  0  0  0  0  0  0  0  0  0
  152.4147  144.1374  161.3105 C   0  0  0  0  0  0  0  0  0  0  0  0
  151.5239  144.7060  160.3774 C   0  0  0  0  0  0  0  0  0  0  0  0
  151.1089  143.9640  159.2547 C   0  0  0  0  0  0  0  0  0  0  0  0
  151.5927  142.6534  159.0772 C   0  0  0  0  0  0  0  0  0  0  0  0
  145.4785  144.6695  153.7321 H   0  0  0  0  0  0  0  0  0  0  0  0
  144.7934  143.0845  153.3958 H   0  0  0  0  0  0  0  0  0  0  0  0
  146.1540  143.7026  152.4272 H   0  0  0  0  0  0  0  0  0  0  0  0
  146.0360  141.3994  152.2814 H   0  0  0  0  0  0  0  0  0  0  0  0
  148.4321  138.1548  153.7615 H   0  0  0  0  0  0  0  0  0  0  0  0
  149.0980  139.4878  155.6962 H   0  0  0  0  0  0  0  0  0  0  0  0
  148.8053  141.9930  158.1926 H   0  0  0  0  0  0  0  0  0  0  0  0
  148.9077  140.4595  157.3172 H   0  0  0  0  0  0  0  0  0  0  0  0
  150.9149  141.1606  156.1368 H   0  0  0  0  0  0  0  0  0  0  0  0
  150.6529  142.8298  156.5403 H   0  0  0  0  0  0  0  0  0  0  0  0
  151.1794  138.9305  157.5806 H   0  0  0  0  0  0  0  0  0  0  0  0
  152.5808  138.0437  159.4649 H   0  0  0  0  0  0  0  0  0  0  0  0
  154.0334  138.5473  158.6095 H   0  0  0  0  0  0  0  0  0  0  0  0
  152.9959  137.2990  157.9259 H   0  0  0  0  0  0  0  0  0  0  0  0
  152.3333  138.8677  155.8619 H   0  0  0  0  0  0  0  0  0  0  0  0
  153.5760  142.3965  161.8502 H   0  0  0  0  0  0  0  0  0  0  0  0
  152.7307  144.7111  162.1695 H   0  0  0  0  0  0  0  0  0  0  0  0
  151.1595  145.7122  160.5241 H   0  0  0  0  0  0  0  0  0  0  0  0
  150.4264  144.3993  158.5402 H   0  0  0  0  0  0  0  0  0  0  0  0
  1  2  1  0  0  0  0
  1 26  1  0  0  0  0
  1 27  1  0  0  0  0
  1 28  1  0  0  0  0
  2  3  1  0  0  0  0
  3 10  1  0  0  0  0
  3  4  2  0  0  0  0
  4  5  1  0  0  0  0
  4 29  1  0  0  0  0
  5  6  1  0  0  0  0
  5  8  2  0  0  0  0
  6  7  3  0  0  0  0
  8  9  1  0  0  0  0
  8 30  1  0  0  0  0
  9 10  2  0  0  0  0
  9 31  1  0  0  0  0
 10 11  1  0  0  0  0
 11 12  1  0  0  0  0
 12 13  1  0  0  0  0
 12 32  1  0  0  0  0
 12 33  1  0  0  0  0
 13 14  1  0  0  0  0
 13 34  1  0  0  0  0
 13 35  1  0  0  0  0
 14 25  1  0  0  0  0
 14 15  1  0  0  0  0
 15 16  1  0  0  0  0
 15 19  2  0  0  0  0
 16 17  1  0  0  0  0
 16 18  1  0  0  0  0
 16 36  1  0  0  0  0
 17 37  1  0  0  0  0
 17 38  1  0  0  0  0
 17 39  1  0  0  0  0
 18 40  1  0  0  0  0
 19 20  1  0  0  0  0
 20 25  2  0  0  0  0
 20 21  1  0  0  0  0
 21 22  2  0  0  0  0
 21 41  1  0  0  0  0
 22 23  1  0  0  0  0
 22 42  1  0  0  0  0
 23 24  2  0  0  0  0
 23 43  1  0  0  0  0
 24 25  1  0  0  0  0
 24 44  1  0  0  0  0
M  END
> <s_m_source_file>
AV-unprocessed.smi

> <i_m_source_file_index>
2346

> <i_lp_mmshare_version>
43012

> <i_f3d_flags>
0

> <s_epik_input>
W0NIM11PYzFbY0hdYyhDI04pW2NIXVtjSF1jMU9bQ0gyXVtDSDJdbihjKG4yKVtDQEhdKFtDSDNdKVtPSF0pYyhjMjMpW2NIXVtjSF1bY0hdW2NIXTM=

> <s_epik_cmdline>
J2VwaWtfcHl0aG9uJywgJy1waCcsICc3LjAnLCAnLXRuJywgJzgnLCAnLW1hJywgJzIwMCcsICctbWV0YWxfYmluZGluZycsICctaW1hZScsICc8aW5maWxlLm1hZT4nLCAnLW9tYWUnLCAnPG91dGZpbGUubWFlPic=

> <r_epik_Ionization_Penalty>
0.0419826

> <r_epik_Ionization_Penalty_Charging>
0

> <r_epik_Ionization_Penalty_Neutral>
0.0419826

> <r_epik_State_Penalty>
0.0354317

> <r_epik_Charging_Adjusted_Penalty>
0.0354317

> <i_epik_Tot_Q>
0

> <i_epik_Tot_abs_Q>
0

> <r_epik_Metal_State_Penalty>
3.65115e-05

> <b_epik_Metal_Only>
0

> <s_lp_Force_Field>
OPLS_2005

> <r_lp_Energy>
19.3722

> <b_lp_Chiralities_Consistent>
1

> <s_lp_Variant>
AV-unprocessed.smi:2346-1

> <Gold.Version>
5.8.1

> <Gold.Id.Protein>
6NUR|6NUR_protein|mol2

> <Gold.PLP.Fitness>
50.9098

> <Gold.PLP.PLP>
-46.1602

> <Gold.PLP.part.hbond>
-2.0000

> <Gold.PLP.part.metal>
0.0000

> <Gold.PLP.part.buried>
-6.1038

> <Gold.PLP.part.nonpolar>
-43.4941

> <Gold.PLP.part.repulsive>
4.3772

> <Gold.PLP.ligand.clash>
0.0000

> <Gold.PLP.ligand.torsion>
0.6749

> <Gold.PLP.Chemscore.Hbond>
2.0000

> <Gold.PLP.Chemscore.CHOScore>
0.0000

> <Gold.PLP.Chemscore.Metal>
0.0000

> <Gold.Chemscore.Hbonds>
donor molecule, donor type, donor heavy atom, donor atom, acceptor molecule, acceptor atom, score
      P1  H  7954  7966       L1     7  1.00
      P1  H  7997  8010       L1    18  1.00

> <Gold.PLP.Chemscore.Internal.Correction>
0.0994

> <Gold.Rescore>
     Score         DG    S(hbond)    S(metal)    S(lipo)     H(rot)  DE(clash)    DE(int)     intcor
     16.67     -19.39       1.74        0.00     125.33       2.57       1.97       0.76       ----

> <Gold.Chemscore.Fitness>
16.6681

> <Gold.Chemscore.DG>
-19.3940

> <Gold.Chemscore.ZeroCoef>
-5.4800

> <Gold.Chemscore.Hbond>
1.7438

> <Gold.Chemscore.Metal>
0.0000

> <Gold.Chemscore.Lipo>
125.3348

> <Gold.Chemscore.Internal_Hbond>
0.0000

> <Gold.Chemscore.DEClash>
1.9693

> <Gold.Chemscore.DEInternal>
0.7567

> <Gold.Chemscore.Rot>
2.5681

> <Gold.Chemscore.Internal.Correction>
   9.000000E+99

> <Gold.Chemscore.Hbonds>
donor molecule, donor type, donor heavy atom, donor atom, acceptor molecule, acceptor atom, score
      P1  H  7954  7966       L1     7  0.47
      P1  H  7997  8010       L1    18  0.60

> <Gold.Chemscore.Hbond.Weighted>
-5.8242

> <Gold.Chemscore.Metal.Weighted>
-0.0000

> <Gold.Chemscore.Lipo.Weighted>
-14.6642

> <Gold.Chemscore.Internal_Hbond.Weighted>
0.0000

> <Gold.Chemscore.DEClash.Weighted>
1.9693

> <Gold.Chemscore.DEInternal.Weighted>
0.7567

> <Gold.Chemscore.Rot.Weighted>
6.5743

> <Gold.Chemscore.Internal.Correction.Weighted>
   9.000000E+99

> <Gold.Protein.RotatedTorsions>
[ 6907 6896 6895 6894 ] final -127.53 input  -60.11 | X-H torsion
[ 7974 7965 7964 7962 ] final   89.59 input  175.53 | X-H torsion
[ 8008 7997 7996 7995 ] final   56.46 input   59.86 | X-H torsion
[ 10167 10162 10161 10158 ] final  -70.30 input  -65.29 | X-H torsion
[ 10718 10713 10712 10709 ] final  159.81 input   66.30 | X-H torsion
[ 10763 10752 10751 10750 ] final  139.75 input  -60.55 | X-H torsion
[ 11005 11000 10999 10996 ] final -169.18 input  -57.11 | X-H torsion

> <Gold.Protein.ActiveResidues>
 VAL166  LYS551  ARG553  GLY616  TRP617  ASP618  TYR619  PRO620  LYS621  CYS622 
 ASP623  PHE694  ASN695  SER759  ASP760  ASP761  ALA762  ILE779  LEU786  VAL792 
 PHE793  MET794  SER795  GLU796  ALA797  LYS798  CYS799  TRP800  GLU811  SER814 

> <Gold.Protein.RotatedAtoms>
  150.9083  133.7030  159.2861 H   0  0  0  0  0  0  0  0  0  0  0  0  # atno 6907 bound_to 6896
  151.4525  135.1030  159.9711 H   0  0  0  0  0  0  0  0  0  0  0  0  # atno 6908 bound_to 6896
  152.4916  133.8465  159.7235 H   0  0  0  0  0  0  0  0  0  0  0  0  # atno 6909 bound_to 6896
  145.5304  139.2283  143.2622 H   0  0  0  0  0  0  0  0  0  0  0  0  # atno 7974 bound_to 7965
  155.5178  140.3479  155.4401 H   0  0  0  0  0  0  0  0  0  0  0  0  # atno 8008 bound_to 7997
  156.0805  140.1385  156.9745 H   0  0  0  0  0  0  0  0  0  0  0  0  # atno 8009 bound_to 7997
  154.4577  140.0947  156.6781 H   0  0  0  0  0  0  0  0  0  0  0  0  # atno 8010 bound_to 7997
  140.5363  143.2317  151.7170 H   0  0  0  0  0  0  0  0  0  0  0  0  # atno 10167 bound_to 10162
  157.1591  131.0583  151.2241 H   0  0  0  0  0  0  0  0  0  0  0  0  # atno 10718 bound_to 10713
  153.9112  135.3011  155.3448 H   0  0  0  0  0  0  0  0  0  0  0  0  # atno 10763 bound_to 10752
  154.7622  135.4928  153.9489 H   0  0  0  0  0  0  0  0  0  0  0  0  # atno 10764 bound_to 10752
  153.1191  135.6778  153.9467 H   0  0  0  0  0  0  0  0  0  0  0  0  # atno 10765 bound_to 10752
  140.5337  134.5591  157.5081 H   0  0  0  0  0  0  0  0  0  0  0  0  # atno 11005 bound_to 11000
  146.2048  140.6120  142.9086 LP  0  0  0  0  0  0  0  0  0  0  0  0  # atno 17320 bound_to 7965
  144.7629  140.5463  143.6723 LP  0  0  0  0  0  0  0  0  0  0  0  0  # atno 17321 bound_to 7965
  139.4972  144.4037  152.0154 LP  0  0  0  0  0  0  0  0  0  0  0  0  # atno 17342 bound_to 10162
  140.3143  144.3502  150.6026 LP  0  0  0  0  0  0  0  0  0  0  0  0  # atno 17343 bound_to 10162
  157.4149  130.7405  149.6868 LP  0  0  0  0  0  0  0  0  0  0  0  0  # atno 17370 bound_to 10713
  155.9757  130.4085  150.3832 LP  0  0  0  0  0  0  0  0  0  0  0  0  # atno 17371 bound_to 10713
  139.9541  134.7566  156.0382 LP  0  0  0  0  0  0  0  0  0  0  0  0  # atno 17394 bound_to 11000
  141.1267  133.6597  156.3355 LP  0  0  0  0  0  0  0  0  0  0  0  0  # atno 17395 bound_to 11000

$$$$
