AV-unprocessed.smi:2489|AV-procd|sdf|9806|dock8
  -GOLD-   2272013443D 1   1.00000     0.00000
 Structure written by MMmdl.
 34 35  0  0  0  0  0  0  0  0  2 V2000
  153.1620  142.4394  161.6902 C   0  0  0  0  0  0  0  0  0  0  0  0
  153.1300  142.0540  160.3237 O   0  0  0  0  0  0  0  0  0  0  0  0
  152.3854  142.8197  159.4529 C   0  0  0  0  0  0  0  0  0  0  0  0
  152.1479  144.2086  159.6109 C   0  0  0  0  0  0  0  0  0  0  0  0
  151.3597  144.8850  158.6603 C   0  0  0  0  0  0  0  0  0  0  0  0
  150.8454  144.2130  157.6088 N   0  3  0  0  0  0  0  0  0  0  0  0
  151.0494  142.8936  157.3951 C   0  0  0  0  0  0  0  0  0  0  0  0
  150.4327  142.3182  156.2518 N   0  0  0  0  0  0  0  0  0  0  0  0
  150.6525  141.1096  155.7019 C   0  0  0  0  0  0  0  0  0  0  0  0
  151.4616  140.2868  156.1320 O   0  0  0  0  0  0  0  0  0  0  0  0
  149.8102  140.7909  154.4555 C   0  0  1  0  0  0  0  0  0  0  0  0
  148.8473  139.5970  154.6230 C   0  0  0  0  0  0  0  0  0  0  0  0
  147.4657  140.1959  154.4180 C   0  0  0  0  0  0  0  0  0  0  0  0
  147.6822  141.6763  154.7127 C   0  0  2  0  0  0  0  0  0  0  0  0
  146.6483  142.6037  154.0659 C   0  0  0  0  0  0  0  0  0  0  0  0
  148.9747  141.9114  154.1724 O   0  0  0  0  0  0  0  0  0  0  0  0
  151.8228  142.1669  158.3349 C   0  0  0  0  0  0  0  0  0  0  0  0
  153.7892  141.7422  162.2455 H   0  0  0  0  0  0  0  0  0  0  0  0
  152.1664  142.4134  162.1350 H   0  0  0  0  0  0  0  0  0  0  0  0
  153.5879  143.4361  161.8141 H   0  0  0  0  0  0  0  0  0  0  0  0
  152.5493  144.7669  160.4431 H   0  0  0  0  0  0  0  0  0  0  0  0
  151.1264  145.9388  158.7098 H   0  0  0  0  0  0  0  0  0  0  0  0
  149.7956  142.9201  155.7503 H   0  0  0  0  0  0  0  0  0  0  0  0
  150.4672  140.6269  153.5997 H   0  0  0  0  0  0  0  0  0  0  0  0
  149.0460  138.8135  153.8910 H   0  0  0  0  0  0  0  0  0  0  0  0
  148.9168  139.1356  155.6089 H   0  0  0  0  0  0  0  0  0  0  0  0
  147.1595  140.0592  153.3799 H   0  0  0  0  0  0  0  0  0  0  0  0
  146.7061  139.7435  155.0561 H   0  0  0  0  0  0  0  0  0  0  0  0
  147.7094  141.8419  155.7910 H   0  0  0  0  0  0  0  0  0  0  0  0
  145.6483  142.4024  154.4504 H   0  0  0  0  0  0  0  0  0  0  0  0
  146.6239  142.4762  152.9832 H   0  0  0  0  0  0  0  0  0  0  0  0
  146.8804  143.6486  154.2726 H   0  0  0  0  0  0  0  0  0  0  0  0
  151.9875  141.1057  158.2256 H   0  0  0  0  0  0  0  0  0  0  0  0
  150.2786  144.7329  156.9383 H   0  0  0  0  0  0  0  0  0  0  0  0
  1  2  1  0  0  0  0
  1 18  1  0  0  0  0
  1 19  1  0  0  0  0
  1 20  1  0  0  0  0
  2  3  1  0  0  0  0
  3 17  1  0  0  0  0
  3  4  2  0  0  0  0
  4  5  1  0  0  0  0
  4 21  1  0  0  0  0
  5  6  2  0  0  0  0
  5 22  1  0  0  0  0
  6  7  1  0  0  0  0
  6 34  1  0  0  0  0
  7  8  1  0  0  0  0
  7 17  2  0  0  0  0
  8  9  1  0  0  0  0
  8 23  1  0  0  0  0
  9 10  2  0  0  0  0
  9 11  1  0  0  0  0
 11 16  1  0  0  0  0
 11 12  1  0  0  0  0
 11 24  1  0  0  0  0
 12 13  1  0  0  0  0
 12 25  1  0  0  0  0
 12 26  1  0  0  0  0
 13 14  1  0  0  0  0
 13 27  1  0  0  0  0
 13 28  1  0  0  0  0
 14 15  1  0  0  0  0
 14 16  1  0  0  0  0
 14 29  1  0  0  0  0
 15 30  1  0  0  0  0
 15 31  1  0  0  0  0
 15 32  1  0  0  0  0
 17 33  1  0  0  0  0
M  CHG  1   6   1
M  END
> <s_m_source_file>
AV-unprocessed.smi

> <i_m_source_file_index>
2489

> <i_lp_mmshare_version>
43012

> <i_f3d_flags>
0

> <s_epik_input>
W0NIM11PYzFbY0hdW2NIXW5jKFtjSF0xKVtOSF1DKD1PKVtDQEBIXTJbQ0gyXVtDSDJdW0NASF0oTzIpW0NIM10=

> <s_epik_cmdline>
J2VwaWtfcHl0aG9uJywgJy1waCcsICc3LjAnLCAnLXRuJywgJzgnLCAnLW1hJywgJzIwMCcsICctbWV0YWxfYmluZGluZycsICctaW1hZScsICc8aW5maWxlLm1hZT4nLCAnLW9tYWUnLCAnPG91dGZpbGUubWFlPic=

> <r_epik_Ionization_Penalty>
1.58956

> <r_epik_Ionization_Penalty_Charging>
1.1784

> <r_epik_Ionization_Penalty_Neutral>
0.411158

> <r_epik_State_Penalty>
1.31089

> <r_epik_Charging_Adjusted_Penalty>
2.48928

> <i_epik_Tot_Q>
1

> <i_epik_Tot_abs_Q>
1

> <r_epik_Metal_State_Penalty>
5.00213

> <b_epik_Metal_Only>
0

> <s_lp_Force_Field>
OPLS_2005

> <r_lp_Energy>
33.2408

> <b_lp_Chiralities_Consistent>
1

> <s_lp_Variant>
AV-unprocessed.smi:2489-12

> <Gold.Version>
5.8.1

> <Gold.Id.Protein>
6NUR|6NUR_protein|mol2

> <Gold.PLP.Fitness>
49.4261

> <Gold.PLP.PLP>
-40.2342

> <Gold.PLP.part.hbond>
-3.0419

> <Gold.PLP.part.metal>
0.0000

> <Gold.PLP.part.buried>
-5.3105

> <Gold.PLP.part.nonpolar>
-32.4559

> <Gold.PLP.part.repulsive>
0.3277

> <Gold.PLP.ligand.clash>
0.0000

> <Gold.PLP.ligand.torsion>
0.4230

> <Gold.PLP.Chemscore.Hbond>
3.3430

> <Gold.PLP.Chemscore.CHOScore>
0.0000

> <Gold.PLP.Chemscore.Metal>
0.0000

> <Gold.Chemscore.Hbonds>
donor molecule, donor type, donor heavy atom, donor atom, acceptor molecule, acceptor atom, score
      L1  H     6    34       P1  8028  2.00
      L1  H     8    23       P1  8028  0.94
      P1  H  8011  8017       L1    16  0.37

> <Gold.PLP.Chemscore.Internal.Correction>
0.0091

> <Gold.Rescore>
     Score         DG    S(hbond)    S(metal)    S(lipo)     H(rot)  DE(clash)    DE(int)     intcor
     17.01     -18.86       1.83        0.00      89.15       1.24       0.10       1.75       ----

> <Gold.Chemscore.Fitness>
17.0105

> <Gold.Chemscore.DG>
-18.8577

> <Gold.Chemscore.ZeroCoef>
-5.4800

> <Gold.Chemscore.Hbond>
1.8334

> <Gold.Chemscore.Metal>
0.0000

> <Gold.Chemscore.Lipo>
89.1523

> <Gold.Chemscore.Internal_Hbond>
0.0000

> <Gold.Chemscore.DEClash>
0.0992

> <Gold.Chemscore.DEInternal>
1.7480

> <Gold.Chemscore.Rot>
1.2409

> <Gold.Chemscore.Internal.Correction>
   9.000000E+99

> <Gold.Chemscore.Hbonds>
donor molecule, donor type, donor heavy atom, donor atom, acceptor molecule, acceptor atom, score
      L1  H     6    34       P1  8028  0.52
      L1  H     8    23       P1  8028  0.86
      P1  H  8011  8017       L1    16  0.07

> <Gold.Chemscore.Hbond.Weighted>
-6.1236

> <Gold.Chemscore.Metal.Weighted>
-0.0000

> <Gold.Chemscore.Lipo.Weighted>
-10.4308

> <Gold.Chemscore.Internal_Hbond.Weighted>
0.0000

> <Gold.Chemscore.DEClash.Weighted>
0.0992

> <Gold.Chemscore.DEInternal.Weighted>
1.7480

> <Gold.Chemscore.Rot.Weighted>
3.1767

> <Gold.Chemscore.Internal.Correction.Weighted>
   9.000000E+99

> <Gold.Protein.RotatedTorsions>
[ 6907 6896 6895 6894 ] final -114.15 input  -60.11 | X-H torsion
[ 7974 7965 7964 7962 ] final  127.00 input  175.53 | X-H torsion
[ 8008 7997 7996 7995 ] final   63.74 input   59.86 | X-H torsion
[ 10167 10162 10161 10158 ] final  -83.10 input  -65.29 | X-H torsion
[ 10718 10713 10712 10709 ] final   85.11 input   66.30 | X-H torsion
[ 10763 10752 10751 10750 ] final   26.37 input  -60.55 | X-H torsion
[ 11005 11000 10999 10996 ] final  -76.48 input  -57.11 | X-H torsion

> <Gold.Protein.ActiveResidues>
 VAL166  LYS551  ARG553  GLY616  TRP617  ASP618  TYR619  PRO620  LYS621  CYS622 
 ASP623  PHE694  ASN695  SER759  ASP760  ASP761  ALA762  ILE779  LEU786  VAL792 
 PHE793  MET794  SER795  GLU796  ALA797  LYS798  CYS799  TRP800  GLU811  SER814 

> <Gold.Protein.RotatedAtoms>
  150.7881  133.8842  159.3294 H   0  0  0  0  0  0  0  0  0  0  0  0  # atno 6907 bound_to 6896
  151.6687  135.0977  160.0203 H   0  0  0  0  0  0  0  0  0  0  0  0  # atno 6908 bound_to 6896
  152.3950  133.6694  159.6304 H   0  0  0  0  0  0  0  0  0  0  0  0  # atno 6909 bound_to 6896
  145.0554  139.3848  143.5033 H   0  0  0  0  0  0  0  0  0  0  0  0  # atno 7974 bound_to 7965
  155.6351  140.3496  155.4696 H   0  0  0  0  0  0  0  0  0  0  0  0  # atno 8008 bound_to 7997
  155.9972  140.1205  157.0606 H   0  0  0  0  0  0  0  0  0  0  0  0  # atno 8009 bound_to 7997
  154.4237  140.1108  156.5632 H   0  0  0  0  0  0  0  0  0  0  0  0  # atno 8010 bound_to 7997
  140.4258  143.2567  151.8828 H   0  0  0  0  0  0  0  0  0  0  0  0  # atno 10167 bound_to 10162
  157.6909  131.0161  150.2773 H   0  0  0  0  0  0  0  0  0  0  0  0  # atno 10718 bound_to 10713
  153.0627  135.6562  154.0425 H   0  0  0  0  0  0  0  0  0  0  0  0  # atno 10763 bound_to 10752
  154.0089  135.2930  155.3396 H   0  0  0  0  0  0  0  0  0  0  0  0  # atno 10764 bound_to 10752
  154.6973  135.5259  153.8544 H   0  0  0  0  0  0  0  0  0  0  0  0  # atno 10765 bound_to 10752
  141.1654  133.6985  156.7676 H   0  0  0  0  0  0  0  0  0  0  0  0  # atno 11005 bound_to 11000
  146.3521  140.0225  142.8657 LP  0  0  0  0  0  0  0  0  0  0  0  0  # atno 17320 bound_to 7965
  145.1475  140.9605  143.4452 LP  0  0  0  0  0  0  0  0  0  0  0  0  # atno 17321 bound_to 7965
  139.4783  144.5388  151.8558 LP  0  0  0  0  0  0  0  0  0  0  0  0  # atno 17342 bound_to 10162
  140.4483  144.1891  150.5895 LP  0  0  0  0  0  0  0  0  0  0  0  0  # atno 17343 bound_to 10162
  156.3326  130.3802  149.7478 LP  0  0  0  0  0  0  0  0  0  0  0  0  # atno 17370 bound_to 10713
  156.5013  130.8130  151.3133 LP  0  0  0  0  0  0  0  0  0  0  0  0  # atno 17371 bound_to 10713
  140.2488  134.8557  157.3646 LP  0  0  0  0  0  0  0  0  0  0  0  0  # atno 17394 bound_to 11000
  140.1723  134.4593  155.7824 LP  0  0  0  0  0  0  0  0  0  0  0  0  # atno 17395 bound_to 11000

$$$$
