AV-unprocessed.smi:1513|AV-procd|sdf|6110|dock2
  -GOLD-   22720 6243D 1   1.00000     0.00000
 Structure written by MMmdl.
 34 35  0  0  0  0  0  0  0  0  3 V2000
  153.7127  138.9869  155.0058 N   0  0  0  0  0  0  0  0  0  0  0  0
  152.5218  138.3670  156.0768 S   0  0  0  0  0  0  0  0  0  0  0  0
  151.2275  138.5607  155.4042 O   0  0  0  0  0  0  0  0  0  0  0  0
  152.9472  136.9968  156.4055 O   0  0  0  0  0  0  0  0  0  0  0  0
  152.7932  139.4281  157.2679 N   0  5  0  0  0  0  0  0  0  0  0  0
  151.6595  139.9729  157.9937 C   0  0  0  0  0  0  0  0  0  0  0  0
  151.7180  141.5043  158.0639 C   0  0  0  0  0  0  0  0  0  0  0  0
  152.7403  142.1054  158.8412 C   0  0  0  0  0  0  0  0  0  0  0  0
  152.8364  143.5086  158.9213 C   0  0  0  0  0  0  0  0  0  0  0  0
  151.9075  144.2982  158.2221 C   0  0  0  0  0  0  0  0  0  0  0  0
  150.9420  143.7048  157.4914 N   0  3  0  0  0  0  0  0  0  0  0  0
  150.7977  142.3599  157.3771 C   0  0  0  0  0  0  0  0  0  0  0  0
  149.7205  141.9015  156.5907 N   0  0  0  0  0  0  0  0  0  0  0  0
  150.1389  141.1693  155.4024 C   0  0  0  0  0  0  0  0  0  0  0  0
  148.9190  140.8614  154.5176 C   0  0  0  0  0  0  0  0  0  0  0  0
  147.9347  140.1698  155.2818 O   0  0  0  0  0  0  0  0  0  0  0  0
  147.4778  140.9409  156.3896 C   0  0  0  0  0  0  0  0  0  0  0  0
  148.6583  141.2339  157.3306 C   0  0  0  0  0  0  0  0  0  0  0  0
  153.3013  139.5120  154.2349 H   0  0  0  0  0  0  0  0  0  0  0  0
  154.3742  138.2711  154.7072 H   0  0  0  0  0  0  0  0  0  0  0  0
  150.7141  139.6656  157.5457 H   0  0  0  0  0  0  0  0  0  0  0  0
  151.6212  139.6129  159.0224 H   0  0  0  0  0  0  0  0  0  0  0  0
  153.4617  141.5098  159.3846 H   0  0  0  0  0  0  0  0  0  0  0  0
  153.6131  143.9708  159.5128 H   0  0  0  0  0  0  0  0  0  0  0  0
  151.9040  145.3784  158.2277 H   0  0  0  0  0  0  0  0  0  0  0  0
  150.8676  141.7570  154.8426 H   0  0  0  0  0  0  0  0  0  0  0  0
  150.6287  140.2403  155.6972 H   0  0  0  0  0  0  0  0  0  0  0  0
  148.4956  141.7779  154.1049 H   0  0  0  0  0  0  0  0  0  0  0  0
  149.2153  140.2406  153.6722 H   0  0  0  0  0  0  0  0  0  0  0  0
  147.0207  141.8677  156.0380 H   0  0  0  0  0  0  0  0  0  0  0  0
  146.7045  140.3830  156.9175 H   0  0  0  0  0  0  0  0  0  0  0  0
  149.0315  140.3026  157.7586 H   0  0  0  0  0  0  0  0  0  0  0  0
  148.3320  141.8655  158.1578 H   0  0  0  0  0  0  0  0  0  0  0  0
  150.2767  144.3019  157.0001 H   0  0  0  0  0  0  0  0  0  0  0  0
  1  2  1  0  0  0  0
  1 19  1  0  0  0  0
  1 20  1  0  0  0  0
  2  3  2  0  0  0  0
  2  4  2  0  0  0  0
  2  5  1  0  0  0  0
  5  6  1  0  0  0  0
  6  7  1  0  0  0  0
  6 21  1  0  0  0  0
  6 22  1  0  0  0  0
  7 12  1  0  0  0  0
  7  8  2  0  0  0  0
  8  9  1  0  0  0  0
  8 23  1  0  0  0  0
  9 10  2  0  0  0  0
  9 24  1  0  0  0  0
 10 11  1  0  0  0  0
 10 25  1  0  0  0  0
 11 12  2  0  0  0  0
 11 34  1  0  0  0  0
 12 13  1  0  0  0  0
 13 18  1  0  0  0  0
 13 14  1  0  0  0  0
 14 15  1  0  0  0  0
 14 26  1  0  0  0  0
 14 27  1  0  0  0  0
 15 16  1  0  0  0  0
 15 28  1  0  0  0  0
 15 29  1  0  0  0  0
 16 17  1  0  0  0  0
 17 18  1  0  0  0  0
 17 30  1  0  0  0  0
 17 31  1  0  0  0  0
 18 32  1  0  0  0  0
 18 33  1  0  0  0  0
M  CHG  1   5  -1
M  CHG  1  11   1
M  END
> <s_m_source_file>
AV-unprocessed.smi

> <i_m_source_file_index>
1513

> <i_lp_mmshare_version>
43012

> <i_f3d_flags>
0

> <s_epik_input>
W05IMl1TKD1PKSg9TylbTkhdW0NIMl1jMVtjSF1bY0hdW2NIXW5jMU4yW0NIMl1bQ0gyXU9bQ0gyXVtDSDJdMg==

> <s_epik_cmdline>
J2VwaWtfcHl0aG9uJywgJy1waCcsICc3LjAnLCAnLXRuJywgJzgnLCAnLW1hJywgJzIwMCcsICctbWV0YWxfYmluZGluZycsICctaW1hZScsICc8aW5maWxlLm1hZT4nLCAnLW9tYWUnLCAnPG91dGZpbGUubWFlPic=

> <r_epik_Ionization_Penalty>
1.53449

> <r_epik_Ionization_Penalty_Charging>
1.53276

> <r_epik_Ionization_Penalty_Neutral>
0.00173209

> <r_epik_State_Penalty>
2.14469

> <r_epik_Charging_Adjusted_Penalty>
3.67745

> <i_epik_Tot_Q>
0

> <i_epik_Tot_abs_Q>
2

> <r_epik_Metal_State_Penalty>
2.50812

> <b_epik_Metal_Only>
0

> <s_lp_Force_Field>
OPLS_2005

> <r_lp_Energy>
20.3057

> <b_lp_Chiralities_Consistent>
1

> <s_lp_Variant>
AV-unprocessed.smi:1513-3

> <Gold.Version>
5.8.1

> <Gold.Id.Protein>
6NUR|6NUR_protein|mol2

> <Gold.PLP.Fitness>
46.8355

> <Gold.PLP.PLP>
-32.2002

> <Gold.PLP.part.hbond>
-4.0000

> <Gold.PLP.part.metal>
0.0000

> <Gold.PLP.part.buried>
-5.4889

> <Gold.PLP.part.nonpolar>
-23.8630

> <Gold.PLP.part.repulsive>
0.5248

> <Gold.PLP.ligand.clash>
0.0000

> <Gold.PLP.ligand.torsion>
0.7676

> <Gold.PLP.Chemscore.Hbond>
5.0190

> <Gold.PLP.Chemscore.CHOScore>
0.0000

> <Gold.PLP.Chemscore.Metal>
0.0000

> <Gold.Chemscore.Hbonds>
donor molecule, donor type, donor heavy atom, donor atom, acceptor molecule, acceptor atom, score
      L1  H    11    34       P1  8028  2.00
      P1  H  7997  8008       L1     1  0.20
      P1  H  7997  8010       L1     5  2.00
      P1  H 10752 10764       L1     4  0.82

> <Gold.PLP.Chemscore.Internal.Correction>
1.1137

> <Gold.Rescore>
     Score         DG    S(hbond)    S(metal)    S(lipo)     H(rot)  DE(clash)    DE(int)     intcor
     16.45     -17.33       2.65        0.00      67.52       1.91       0.05       0.82       ----

> <Gold.Chemscore.Fitness>
16.4548

> <Gold.Chemscore.DG>
-17.3297

> <Gold.Chemscore.ZeroCoef>
-5.4800

> <Gold.Chemscore.Hbond>
2.6481

> <Gold.Chemscore.Metal>
0.0000

> <Gold.Chemscore.Lipo>
67.5227

> <Gold.Chemscore.Internal_Hbond>
0.0000

> <Gold.Chemscore.DEClash>
0.0516

> <Gold.Chemscore.DEInternal>
0.8233

> <Gold.Chemscore.Rot>
1.9121

> <Gold.Chemscore.Internal.Correction>
   9.000000E+99

> <Gold.Chemscore.Hbonds>
donor molecule, donor type, donor heavy atom, donor atom, acceptor molecule, acceptor atom, score
      L1  H    11    34       P1  8028  0.86
      P1  H  7997  8010       L1     5  0.48
      P1  H 10752 10764       L1     4  0.79

> <Gold.Chemscore.Hbond.Weighted>
-8.8445

> <Gold.Chemscore.Metal.Weighted>
-0.0000

> <Gold.Chemscore.Lipo.Weighted>
-7.9002

> <Gold.Chemscore.Internal_Hbond.Weighted>
0.0000

> <Gold.Chemscore.DEClash.Weighted>
0.0516

> <Gold.Chemscore.DEInternal.Weighted>
0.8233

> <Gold.Chemscore.Rot.Weighted>
4.8950

> <Gold.Chemscore.Internal.Correction.Weighted>
   9.000000E+99

> <Gold.Protein.RotatedTorsions>
[ 6907 6896 6895 6894 ] final  160.12 input  -60.11 | X-H torsion
[ 7974 7965 7964 7962 ] final   -7.90 input  175.53 | X-H torsion
[ 8008 7997 7996 7995 ] final   34.82 input   59.86 | X-H torsion
[ 10167 10162 10161 10158 ] final -165.16 input  -65.29 | X-H torsion
[ 10718 10713 10712 10709 ] final   69.45 input   66.30 | X-H torsion
[ 10763 10752 10751 10750 ] final   -9.95 input  -60.55 | X-H torsion
[ 11005 11000 10999 10996 ] final  -18.19 input  -57.11 | X-H torsion

> <Gold.Protein.ActiveResidues>
 VAL166  LYS551  ARG553  GLY616  TRP617  ASP618  TYR619  PRO620  LYS621  CYS622 
 ASP623  PHE694  ASN695  SER759  ASP760  ASP761  ALA762  ILE779  LEU786  VAL792 
 PHE793  MET794  SER795  GLU796  ALA797  LYS798  CYS799  TRP800  GLU811  SER814 

> <Gold.Protein.RotatedAtoms>
  151.9754  133.3740  159.4086 H   0  0  0  0  0  0  0  0  0  0  0  0  # atno 6907 bound_to 6896
  150.6942  134.4095  159.5164 H   0  0  0  0  0  0  0  0  0  0  0  0  # atno 6908 bound_to 6896
  152.1806  134.8757  160.0577 H   0  0  0  0  0  0  0  0  0  0  0  0  # atno 6909 bound_to 6896
  146.2295  140.2388  142.8343 H   0  0  0  0  0  0  0  0  0  0  0  0  # atno 7974 bound_to 7965
  155.1610  140.3283  155.4411 H   0  0  0  0  0  0  0  0  0  0  0  0  # atno 8008 bound_to 7997
  156.2543  140.1960  156.6668 H   0  0  0  0  0  0  0  0  0  0  0  0  # atno 8009 bound_to 7997
  154.6405  140.0571  156.9826 H   0  0  0  0  0  0  0  0  0  0  0  0  # atno 8010 bound_to 7997
  139.6201  144.0642  152.1924 H   0  0  0  0  0  0  0  0  0  0  0  0  # atno 10167 bound_to 10162
  157.6346  130.9426  150.0516 H   0  0  0  0  0  0  0  0  0  0  0  0  # atno 10718 bound_to 10713
  153.4622  135.7016  153.6043 H   0  0  0  0  0  0  0  0  0  0  0  0  # atno 10763 bound_to 10752
  153.4333  135.3797  155.2184 H   0  0  0  0  0  0  0  0  0  0  0  0  # atno 10764 bound_to 10752
  154.8727  135.3956  154.4049 H   0  0  0  0  0  0  0  0  0  0  0  0  # atno 10765 bound_to 10752
  140.8244  133.8044  155.9692 H   0  0  0  0  0  0  0  0  0  0  0  0  # atno 11005 bound_to 11000
  144.9500  140.8169  143.5577 LP  0  0  0  0  0  0  0  0  0  0  0  0  # atno 17320 bound_to 7965
  145.2348  139.2099  143.5024 LP  0  0  0  0  0  0  0  0  0  0  0  0  # atno 17321 bound_to 7965
  140.0281  144.6102  150.7510 LP  0  0  0  0  0  0  0  0  0  0  0  0  # atno 17342 bound_to 10162
  140.7376  143.2768  151.3718 LP  0  0  0  0  0  0  0  0  0  0  0  0  # atno 17343 bound_to 10162
  156.1576  130.3643  149.9346 LP  0  0  0  0  0  0  0  0  0  0  0  0  # atno 17370 bound_to 10713
  156.7352  130.9058  151.3628 LP  0  0  0  0  0  0  0  0  0  0  0  0  # atno 17371 bound_to 10713
  140.9065  134.2314  157.5011 LP  0  0  0  0  0  0  0  0  0  0  0  0  # atno 17394 bound_to 11000
  139.8707  134.9730  156.4795 LP  0  0  0  0  0  0  0  0  0  0  0  0  # atno 17395 bound_to 11000

$$$$
