AV-unprocessed.smi:1024|AV-procd|sdf|4464|dock8
  -GOLD-   22720 2443D 1   1.00000     0.00000
 Structure written by MMmdl.
 48 50  0  0  0  0  0  0  0  0  2 V2000
  145.8607  139.4163  154.4635 O   0  0  0  0  0  0  0  0  0  0  0  0
  146.8583  139.7289  153.8113 C   0  0  0  0  0  0  0  0  0  0  0  0
  147.0656  139.2666  152.5663 N   0  0  0  0  0  0  0  0  0  0  0  0
  146.1823  138.3498  151.8563 C   0  0  0  0  0  0  0  0  0  0  0  0
  146.0563  137.0061  152.5934 C   0  0  0  0  0  0  0  0  0  0  0  0
  145.3341  136.0173  151.7926 N   0  0  0  0  0  0  0  0  0  0  0  0
  145.8280  134.8563  151.2556 C   0  0  0  0  0  0  0  0  0  0  0  0
  144.7884  134.2635  150.5859 C   0  0  0  0  0  0  0  0  0  0  0  0
  143.7057  135.0873  150.7426 N   0  3  0  0  0  0  0  0  0  0  0  0
  144.0401  136.1539  151.4761 C   0  0  0  0  0  0  0  0  0  0  0  0
  147.8156  140.5729  154.2730 N   0  0  0  0  0  0  0  0  0  0  0  0
  149.1949  140.6835  153.7737 C   0  0  0  0  0  0  0  0  0  0  0  0
  150.1417  140.0170  154.7904 C   0  0  0  0  0  0  0  0  0  0  0  0
  150.0316  140.6245  156.2174 C   0  0  0  0  0  0  0  0  0  0  0  0
  150.7942  139.6962  157.1987 C   0  0  0  0  0  0  0  0  0  0  0  0
  150.9250  140.2769  158.6178 C   0  0  0  0  0  0  0  0  0  0  0  0
  151.6039  141.6525  158.5928 C   0  0  0  0  0  0  0  0  0  0  0  0
  150.8620  142.6164  157.6575 C   0  0  0  0  0  0  0  0  0  0  0  0
  150.7118  142.0240  156.2439 C   0  0  0  0  0  0  0  0  0  0  0  0
  148.5259  140.7030  156.6105 C   0  0  0  0  0  0  0  0  0  0  0  0
  147.6459  141.3346  155.5142 C   0  0  0  0  0  0  0  0  0  0  0  0
  147.8973  139.5716  152.0817 H   0  0  0  0  0  0  0  0  0  0  0  0
  145.2012  138.8095  151.7238 H   0  0  0  0  0  0  0  0  0  0  0  0
  146.5872  138.1898  150.8566 H   0  0  0  0  0  0  0  0  0  0  0  0
  147.0411  136.5986  152.8262 H   0  0  0  0  0  0  0  0  0  0  0  0
  145.5263  137.1234  153.5399 H   0  0  0  0  0  0  0  0  0  0  0  0
  146.8551  134.5471  151.3853 H   0  0  0  0  0  0  0  0  0  0  0  0
  144.7396  133.3420  150.0242 H   0  0  0  0  0  0  0  0  0  0  0  0
  143.3933  136.9667  151.7557 H   0  0  0  0  0  0  0  0  0  0  0  0
  149.3451  140.2377  152.7908 H   0  0  0  0  0  0  0  0  0  0  0  0
  149.4489  141.7360  153.6462 H   0  0  0  0  0  0  0  0  0  0  0  0
  149.9043  138.9527  154.8291 H   0  0  0  0  0  0  0  0  0  0  0  0
  151.1694  140.0771  154.4302 H   0  0  0  0  0  0  0  0  0  0  0  0
  150.3086  138.7210  157.2504 H   0  0  0  0  0  0  0  0  0  0  0  0
  151.7966  139.5074  156.8114 H   0  0  0  0  0  0  0  0  0  0  0  0
  149.9431  140.3561  159.0845 H   0  0  0  0  0  0  0  0  0  0  0  0
  151.5025  139.5946  159.2417 H   0  0  0  0  0  0  0  0  0  0  0  0
  151.6459  142.0666  159.6006 H   0  0  0  0  0  0  0  0  0  0  0  0
  152.6364  141.5432  158.2592 H   0  0  0  0  0  0  0  0  0  0  0  0
  149.8839  142.8570  158.0733 H   0  0  0  0  0  0  0  0  0  0  0  0
  151.4041  143.5609  157.6026 H   0  0  0  0  0  0  0  0  0  0  0  0
  151.7076  141.9452  155.8055 H   0  0  0  0  0  0  0  0  0  0  0  0
  150.1743  142.7345  155.6174 H   0  0  0  0  0  0  0  0  0  0  0  0
  148.1528  139.6965  156.8055 H   0  0  0  0  0  0  0  0  0  0  0  0
  148.3862  141.2486  157.5424 H   0  0  0  0  0  0  0  0  0  0  0  0
  147.9220  142.3757  155.3461 H   0  0  0  0  0  0  0  0  0  0  0  0
  146.6082  141.3640  155.8485 H   0  0  0  0  0  0  0  0  0  0  0  0
  142.7842  134.9171  150.3594 H   0  0  0  0  0  0  0  0  0  0  0  0
  1  2  2  0  0  0  0
  2  3  1  0  0  0  0
  2 11  1  0  0  0  0
  3  4  1  0  0  0  0
  3 22  1  0  0  0  0
  4  5  1  0  0  0  0
  4 23  1  0  0  0  0
  4 24  1  0  0  0  0
  5  6  1  0  0  0  0
  5 25  1  0  0  0  0
  5 26  1  0  0  0  0
  6 10  1  0  0  0  0
  6  7  1  0  0  0  0
  7  8  2  0  0  0  0
  7 27  1  0  0  0  0
  8  9  1  0  0  0  0
  8 28  1  0  0  0  0
  9 10  2  0  0  0  0
  9 48  1  0  0  0  0
 10 29  1  0  0  0  0
 11 21  1  0  0  0  0
 11 12  1  0  0  0  0
 12 13  1  0  0  0  0
 12 30  1  0  0  0  0
 12 31  1  0  0  0  0
 13 14  1  0  0  0  0
 13 32  1  0  0  0  0
 13 33  1  0  0  0  0
 14 19  1  0  0  0  0
 14 15  1  0  0  0  0
 14 20  1  0  0  0  0
 15 16  1  0  0  0  0
 15 34  1  0  0  0  0
 15 35  1  0  0  0  0
 16 17  1  0  0  0  0
 16 36  1  0  0  0  0
 16 37  1  0  0  0  0
 17 18  1  0  0  0  0
 17 38  1  0  0  0  0
 17 39  1  0  0  0  0
 18 19  1  0  0  0  0
 18 40  1  0  0  0  0
 18 41  1  0  0  0  0
 19 42  1  0  0  0  0
 19 43  1  0  0  0  0
 20 21  1  0  0  0  0
 20 44  1  0  0  0  0
 20 45  1  0  0  0  0
 21 46  1  0  0  0  0
 21 47  1  0  0  0  0
M  CHG  1   9   1
M  END
> <s_m_source_file>
AV-unprocessed.smi

> <i_m_source_file_index>
1024

> <i_lp_mmshare_version>
43012

> <i_f3d_flags>
0

> <s_epik_input>
W2NIXTFuW2NIXVtjSF1uMVtDSDJdW0NIMl1bTkhdQyg9TylOKFtDSDJdW0NIMl0yKVtDSDJdW0NIMl1DMjNbQ0gyXVtDSDJdW0NIMl1bQ0gyXVtDSDJdMw==

> <s_epik_cmdline>
J2VwaWtfcHl0aG9uJywgJy1waCcsICc3LjAnLCAnLXRuJywgJzgnLCAnLW1hJywgJzIwMCcsICctbWV0YWxfYmluZGluZycsICctaW1hZScsICc8aW5maWxlLm1hZT4nLCAnLW9tYWUnLCAnPG91dGZpbGUubWFlPic=

> <r_lp_tautomer_probability>
1

> <r_epik_Ionization_Penalty>
0.249817

> <r_epik_Ionization_Penalty_Charging>
0

> <r_epik_Ionization_Penalty_Neutral>
0.249817

> <r_epik_State_Penalty>
0.241048

> <r_epik_Charging_Adjusted_Penalty>
0.241048

> <i_epik_Tot_Q>
1

> <i_epik_Tot_abs_Q>
1

> <r_epik_Metal_State_Penalty>
0.532587

> <b_epik_Metal_Only>
0

> <s_lp_Force_Field>
OPLS_2005

> <r_lp_Energy>
44.4362

> <b_lp_Chiralities_Consistent>
1

> <s_lp_Variant>
AV-unprocessed.smi:1024-1

> <Gold.Version>
5.8.1

> <Gold.Id.Protein>
6NUR|6NUR_protein|mol2

> <Gold.PLP.Fitness>
42.7968

> <Gold.PLP.PLP>
-30.7867

> <Gold.PLP.part.hbond>
-1.9387

> <Gold.PLP.part.metal>
0.0000

> <Gold.PLP.part.buried>
5.4460

> <Gold.PLP.part.nonpolar>
-33.9086

> <Gold.PLP.part.repulsive>
0.1893

> <Gold.PLP.ligand.clash>
0.0000

> <Gold.PLP.ligand.torsion>
0.1661

> <Gold.PLP.Chemscore.Hbond>
2.9825

> <Gold.PLP.Chemscore.CHOScore>
1.1200

> <Gold.PLP.Chemscore.Metal>
0.0000

> <Gold.Chemscore.Hbonds>
donor molecule, donor type, donor heavy atom, donor atom, acceptor molecule, acceptor atom, score
      L1  H     3    22       P1  7957  1.00
      L1  H     9    48       P1 10186  1.80
      L1  C     7    27       P1  7948  0.58
      L1  C    10    29       P1 10171  0.37

> <Gold.PLP.Chemscore.Internal.Correction>
0.0348

> <Gold.Rescore>
     Score         DG    S(hbond)    S(metal)    S(lipo)     H(rot)  DE(clash)    DE(int)     intcor
     12.98     -14.58       0.98        0.00      84.14       1.57       0.76       0.85       ----

> <Gold.Chemscore.Fitness>
12.9758

> <Gold.Chemscore.DG>
-14.5824

> <Gold.Chemscore.ZeroCoef>
-5.4800

> <Gold.Chemscore.Hbond>
0.9847

> <Gold.Chemscore.Metal>
0.0000

> <Gold.Chemscore.Lipo>
84.1439

> <Gold.Chemscore.Internal_Hbond>
0.0000

> <Gold.Chemscore.DEClash>
0.7560

> <Gold.Chemscore.DEInternal>
0.8506

> <Gold.Chemscore.Rot>
1.5747

> <Gold.Chemscore.Internal.Correction>
   9.000000E+99

> <Gold.Chemscore.Hbonds>
donor molecule, donor type, donor heavy atom, donor atom, acceptor molecule, acceptor atom, score
      L1  H     3    22       P1  7957  0.98
      L1  H     9    48       P1 10186  0.17

> <Gold.Chemscore.Hbond.Weighted>
-3.2889

> <Gold.Chemscore.Metal.Weighted>
-0.0000

> <Gold.Chemscore.Lipo.Weighted>
-9.8448

> <Gold.Chemscore.Internal_Hbond.Weighted>
0.0000

> <Gold.Chemscore.DEClash.Weighted>
0.7560

> <Gold.Chemscore.DEInternal.Weighted>
0.8506

> <Gold.Chemscore.Rot.Weighted>
4.0313

> <Gold.Chemscore.Internal.Correction.Weighted>
   9.000000E+99

> <Gold.Protein.RotatedTorsions>
[ 6907 6896 6895 6894 ] final   50.62 input  -60.11 | X-H torsion
[ 7974 7965 7964 7962 ] final  -70.57 input  175.53 | X-H torsion
[ 8008 7997 7996 7995 ] final  -14.03 input   59.86 | X-H torsion
[ 10167 10162 10161 10158 ] final   -9.62 input  -65.29 | X-H torsion
[ 10718 10713 10712 10709 ] final  109.23 input   66.30 | X-H torsion
[ 10763 10752 10751 10750 ] final  -62.27 input  -60.55 | X-H torsion
[ 11005 11000 10999 10996 ] final  -43.53 input  -57.11 | X-H torsion

> <Gold.Protein.ActiveResidues>
 VAL166  LYS551  ARG553  GLY616  TRP617  ASP618  TYR619  PRO620  LYS621  CYS622 
 ASP623  PHE694  ASN695  SER759  ASP760  ASP761  ALA762  ILE779  LEU786  VAL792 
 PHE793  MET794  SER795  GLU796  ALA797  LYS798  CYS799  TRP800  GLU811  SER814 

> <Gold.Protein.RotatedAtoms>
  152.3038  134.7579  160.0351 H   0  0  0  0  0  0  0  0  0  0  0  0  # atno 6907 bound_to 6896
  151.8083  133.3373  159.3556 H   0  0  0  0  0  0  0  0  0  0  0  0  # atno 6908 bound_to 6896
  150.7286  134.5618  159.5890 H   0  0  0  0  0  0  0  0  0  0  0  0  # atno 6909 bound_to 6896
  145.6893  140.9159  143.0790 H   0  0  0  0  0  0  0  0  0  0  0  0  # atno 7974 bound_to 7965
  154.5243  140.2234  155.8918 H   0  0  0  0  0  0  0  0  0  0  0  0  # atno 8008 bound_to 7997
  156.1696  140.3124  155.8915 H   0  0  0  0  0  0  0  0  0  0  0  0  # atno 8009 bound_to 7997
  155.3585  140.0459  157.3037 H   0  0  0  0  0  0  0  0  0  0  0  0  # atno 8010 bound_to 7997
  140.7092  143.5837  150.8965 H   0  0  0  0  0  0  0  0  0  0  0  0  # atno 10167 bound_to 10162
  157.6551  131.0909  150.6423 H   0  0  0  0  0  0  0  0  0  0  0  0  # atno 10718 bound_to 10713
  154.2974  135.6241  153.5410 H   0  0  0  0  0  0  0  0  0  0  0  0  # atno 10763 bound_to 10752
  152.9845  135.5670  154.5322 H   0  0  0  0  0  0  0  0  0  0  0  0  # atno 10764 bound_to 10752
  154.4946  135.2869  155.1446 H   0  0  0  0  0  0  0  0  0  0  0  0  # atno 10765 bound_to 10752
  141.0390  133.6788  156.2746 H   0  0  0  0  0  0  0  0  0  0  0  0  # atno 11005 bound_to 11000
  144.7002  139.8800  143.7446 LP  0  0  0  0  0  0  0  0  0  0  0  0  # atno 17320 bound_to 7965
  146.0896  139.3885  143.0414 LP  0  0  0  0  0  0  0  0  0  0  0  0  # atno 17321 bound_to 7965
  139.9563  143.6214  152.3015 LP  0  0  0  0  0  0  0  0  0  0  0  0  # atno 17342 bound_to 10162
  139.6751  144.7659  151.1711 LP  0  0  0  0  0  0  0  0  0  0  0  0  # atno 17343 bound_to 10162
  156.6730  130.4545  149.5651 LP  0  0  0  0  0  0  0  0  0  0  0  0  # atno 17370 bound_to 10713
  156.1984  130.6604  151.1139 LP  0  0  0  0  0  0  0  0  0  0  0  0  # atno 17371 bound_to 10713
  140.6269  134.5304  157.5555 LP  0  0  0  0  0  0  0  0  0  0  0  0  # atno 17394 bound_to 11000
  139.9262  134.8052  156.1063 LP  0  0  0  0  0  0  0  0  0  0  0  0  # atno 17395 bound_to 11000

$$$$
