AV-unprocessed.smi:2999|AV-procd|sdf|11418|dock4
  -GOLD-   2272016343D 1   1.00000     0.00000
 Structure written by MMmdl.
 37 39  0  0  0  0  0  0  0  0  1 V2000
  144.7458  137.5080  152.3825 O   0  0  0  0  0  0  0  0  0  0  0  0
  145.9219  137.1893  152.2045 C   0  0  0  0  0  0  0  0  0  0  0  0
  146.9542  138.0183  152.4156 N   0  0  0  0  0  0  0  0  0  0  0  0
  146.8527  139.3914  152.9015 C   0  0  0  0  0  0  0  0  0  0  0  0
  147.7844  139.6551  154.0974 C   0  0  1  0  0  0  0  0  0  0  0  0
  148.9924  138.6948  154.1636 C   0  0  0  0  0  0  0  0  0  0  0  0
  149.8952  139.0285  155.2587 N   0  0  0  0  0  0  0  0  0  0  0  0
  151.0360  138.1253  155.2877 C   0  0  0  0  0  0  0  0  0  0  0  0
  152.3319  138.5901  155.9001 C   0  0  0  0  0  0  0  0  0  0  0  0
  152.2208  138.4006  154.3984 C   0  0  0  0  0  0  0  0  0  0  0  0
  150.3263  140.4120  155.1073 C   0  0  0  0  0  0  0  0  0  0  0  0
  149.1294  141.3747  155.0472 C   0  0  0  0  0  0  0  0  0  0  0  0
  148.2671  140.9919  153.9804 O   0  0  0  0  0  0  0  0  0  0  0  0
  146.3457  135.9876  151.7759 N   0  0  0  0  0  0  0  0  0  0  0  0
  145.5699  134.8359  151.4815 C   0  0  0  0  0  0  0  0  0  0  0  0
  144.2319  134.8067  151.4784 N   0  0  0  0  0  0  0  0  0  0  0  0
  143.7359  133.5394  151.1622 C   0  0  0  0  0  0  0  0  0  0  0  0
  144.7173  132.6089  150.9255 C   0  0  0  0  0  0  0  0  0  0  0  0
  146.3128  133.2923  151.0889 S   0  0  0  0  0  0  0  0  0  0  0  0
  147.8852  137.6706  152.2377 H   0  0  0  0  0  0  0  0  0  0  0  0
  147.0432  140.1104  152.1030 H   0  0  0  0  0  0  0  0  0  0  0  0
  145.8187  139.5489  153.2092 H   0  0  0  0  0  0  0  0  0  0  0  0
  147.2056  139.5771  155.0197 H   0  0  0  0  0  0  0  0  0  0  0  0
  148.6408  137.6703  154.2877 H   0  0  0  0  0  0  0  0  0  0  0  0
  149.5320  138.7249  153.2155 H   0  0  0  0  0  0  0  0  0  0  0  0
  150.7407  137.0882  155.4405 H   0  0  0  0  0  0  0  0  0  0  0  0
  152.3807  139.6109  156.2750 H   0  0  0  0  0  0  0  0  0  0  0  0
  152.9141  137.8593  156.4576 H   0  0  0  0  0  0  0  0  0  0  0  0
  152.7277  137.5437  153.9596 H   0  0  0  0  0  0  0  0  0  0  0  0
  152.1960  139.2962  153.7804 H   0  0  0  0  0  0  0  0  0  0  0  0
  150.9747  140.6899  155.9393 H   0  0  0  0  0  0  0  0  0  0  0  0
  150.9210  140.5195  154.1988 H   0  0  0  0  0  0  0  0  0  0  0  0
  148.5796  141.3692  155.9896 H   0  0  0  0  0  0  0  0  0  0  0  0
  149.4714  142.3960  154.8806 H   0  0  0  0  0  0  0  0  0  0  0  0
  147.3429  135.8774  151.6648 H   0  0  0  0  0  0  0  0  0  0  0  0
  142.6674  133.3872  151.1288 H   0  0  0  0  0  0  0  0  0  0  0  0
  144.5987  131.5674  150.6657 H   0  0  0  0  0  0  0  0  0  0  0  0
  1  2  2  0  0  0  0
  2  3  1  0  0  0  0
  2 14  1  0  0  0  0
  3  4  1  0  0  0  0
  3 20  1  0  0  0  0
  4  5  1  0  0  0  0
  4 21  1  0  0  0  0
  4 22  1  0  0  0  0
  5 13  1  0  0  0  0
  5  6  1  0  0  0  0
  5 23  1  0  0  0  0
  6  7  1  0  0  0  0
  6 24  1  0  0  0  0
  6 25  1  0  0  0  0
  7  8  1  0  0  0  0
  7 11  1  0  0  0  0
  8 10  1  0  0  0  0
  8  9  1  0  0  0  0
  8 26  1  0  0  0  0
  9 10  1  0  0  0  0
  9 27  1  0  0  0  0
  9 28  1  0  0  0  0
 10 29  1  0  0  0  0
 10 30  1  0  0  0  0
 11 12  1  0  0  0  0
 11 31  1  0  0  0  0
 11 32  1  0  0  0  0
 12 13  1  0  0  0  0
 12 33  1  0  0  0  0
 12 34  1  0  0  0  0
 14 15  1  0  0  0  0
 14 35  1  0  0  0  0
 15 19  1  0  0  0  0
 15 16  2  0  0  0  0
 16 17  1  0  0  0  0
 17 18  2  0  0  0  0
 17 36  1  0  0  0  0
 18 19  1  0  0  0  0
 18 37  1  0  0  0  0
M  END
> <s_m_source_file>
AV-unprocessed.smi

> <i_m_source_file_index>
2999

> <i_lp_mmshare_version>
43012

> <i_f3d_flags>
0

> <s_epik_input>
czFbY0hdW2NIXW5jMVtOSF1DKD1PKVtOSF1bQ0gyXVtDQEBIXTJbQ0gyXU4oW0NIMl1bQ0gyXU8yKVtDSF0zW0NIMl1bQ0gyXTM=

> <s_epik_cmdline>
J2VwaWtfcHl0aG9uJywgJy1waCcsICc3LjAnLCAnLXRuJywgJzgnLCAnLW1hJywgJzIwMCcsICctbWV0YWxfYmluZGluZycsICctaW1hZScsICc8aW5maWxlLm1hZT4nLCAnLW9tYWUnLCAnPG91dGZpbGUubWFlPic=

> <r_lp_tautomer_probability>
0.999

> <r_epik_Ionization_Penalty>
0.0449352

> <r_epik_Ionization_Penalty_Charging>
0

> <r_epik_Ionization_Penalty_Neutral>
0.0449352

> <r_epik_State_Penalty>
0.0379856

> <r_epik_Charging_Adjusted_Penalty>
0.0379856

> <i_epik_Tot_Q>
0

> <i_epik_Tot_abs_Q>
0

> <r_epik_Metal_State_Penalty>
0.0775629

> <b_epik_Metal_Only>
0

> <s_lp_Force_Field>
OPLS_2005

> <r_lp_Energy>
30.84

> <b_lp_Chiralities_Consistent>
1

> <s_lp_Variant>
AV-unprocessed.smi:2999-2

> <Gold.Version>
5.8.1

> <Gold.Id.Protein>
6NUR|6NUR_protein|mol2

> <Gold.PLP.Fitness>
39.4059

> <Gold.PLP.PLP>
-31.6510

> <Gold.PLP.part.hbond>
-2.0000

> <Gold.PLP.part.metal>
0.0000

> <Gold.PLP.part.buried>
-5.7240

> <Gold.PLP.part.nonpolar>
-26.7129

> <Gold.PLP.part.repulsive>
2.0881

> <Gold.PLP.ligand.clash>
0.0000

> <Gold.PLP.ligand.torsion>
1.0812

> <Gold.PLP.Chemscore.Hbond>
1.9440

> <Gold.PLP.Chemscore.CHOScore>
0.9958

> <Gold.PLP.Chemscore.Metal>
0.0000

> <Gold.Chemscore.Hbonds>
donor molecule, donor type, donor heavy atom, donor atom, acceptor molecule, acceptor atom, score
      L1  H     3    20       P1  7948  0.96
      L1  H    14    35       P1  7948  1.00
      L1  C    17    36       P1 10186  0.97

> <Gold.PLP.Chemscore.Internal.Correction>
1.0979

> <Gold.Rescore>
     Score         DG    S(hbond)    S(metal)    S(lipo)     H(rot)  DE(clash)    DE(int)     intcor
     14.46     -16.79       1.95        0.00      74.78       1.55       0.09       2.24       ----

> <Gold.Chemscore.Fitness>
14.4577

> <Gold.Chemscore.DG>
-16.7857

> <Gold.Chemscore.ZeroCoef>
-5.4800

> <Gold.Chemscore.Hbond>
1.9506

> <Gold.Chemscore.Metal>
0.0000

> <Gold.Chemscore.Lipo>
74.7772

> <Gold.Chemscore.Internal_Hbond>
0.0000

> <Gold.Chemscore.DEClash>
0.0856

> <Gold.Chemscore.DEInternal>
2.2424

> <Gold.Chemscore.Rot>
1.5463

> <Gold.Chemscore.Internal.Correction>
   9.000000E+99

> <Gold.Chemscore.Hbonds>
donor molecule, donor type, donor heavy atom, donor atom, acceptor molecule, acceptor atom, score
      L1  H     3    20       P1  7948  0.92
      L1  H    14    35       P1  7948  0.99

> <Gold.Chemscore.Hbond.Weighted>
-6.5152

> <Gold.Chemscore.Metal.Weighted>
-0.0000

> <Gold.Chemscore.Lipo.Weighted>
-8.7489

> <Gold.Chemscore.Internal_Hbond.Weighted>
0.0000

> <Gold.Chemscore.DEClash.Weighted>
0.0856

> <Gold.Chemscore.DEInternal.Weighted>
2.2424

> <Gold.Chemscore.Rot.Weighted>
3.9584

> <Gold.Chemscore.Internal.Correction.Weighted>
   9.000000E+99

> <Gold.Protein.RotatedTorsions>
[ 6907 6896 6895 6894 ] final  -93.56 input  -60.11 | X-H torsion
[ 7974 7965 7964 7962 ] final  177.54 input  175.53 | X-H torsion
[ 8008 7997 7996 7995 ] final  148.67 input   59.86 | X-H torsion
[ 10167 10162 10161 10158 ] final   60.94 input  -65.29 | X-H torsion
[ 10718 10713 10712 10709 ] final   83.23 input   66.30 | X-H torsion
[ 10763 10752 10751 10750 ] final -166.90 input  -60.55 | X-H torsion
[ 11005 11000 10999 10996 ] final  -43.52 input  -57.11 | X-H torsion

> <Gold.Protein.ActiveResidues>
 VAL166  LYS551  ARG553  GLY616  TRP617  ASP618  TYR619  PRO620  LYS621  CYS622 
 ASP623  PHE694  ASN695  SER759  ASP760  ASP761  ALA762  ILE779  LEU786  VAL792 
 PHE793  MET794  SER795  GLU796  ALA797  LYS798  CYS799  TRP800  GLU811  SER814 

> <Gold.Protein.RotatedAtoms>
  150.6925  134.1948  159.4299 H   0  0  0  0  0  0  0  0  0  0  0  0  # atno 6907 bound_to 6896
  151.9917  134.9973  160.0571 H   0  0  0  0  0  0  0  0  0  0  0  0  # atno 6908 bound_to 6896
  152.1661  133.4578  159.4922 H   0  0  0  0  0  0  0  0  0  0  0  0  # atno 6909 bound_to 6896
  144.7167  140.0263  143.6439 H   0  0  0  0  0  0  0  0  0  0  0  0  # atno 7974 bound_to 7965
  156.2783  140.2122  156.5735 H   0  0  0  0  0  0  0  0  0  0  0  0  # atno 8008 bound_to 7997
  154.7116  140.0511  157.0579 H   0  0  0  0  0  0  0  0  0  0  0  0  # atno 8009 bound_to 7997
  155.0597  140.3165  155.4667 H   0  0  0  0  0  0  0  0  0  0  0  0  # atno 8010 bound_to 7997
  140.1602  144.4378  150.6713 H   0  0  0  0  0  0  0  0  0  0  0  0  # atno 10167 bound_to 10162
  157.6874  131.0082  150.2493 H   0  0  0  0  0  0  0  0  0  0  0  0  # atno 10718 bound_to 10713
  154.6786  135.2951  154.9644 H   0  0  0  0  0  0  0  0  0  0  0  0  # atno 10763 bound_to 10752
  154.0647  135.6626  153.4820 H   0  0  0  0  0  0  0  0  0  0  0  0  # atno 10764 bound_to 10752
  153.0532  135.5160  154.7818 H   0  0  0  0  0  0  0  0  0  0  0  0  # atno 10765 bound_to 10752
  141.0389  133.6788  156.2744 H   0  0  0  0  0  0  0  0  0  0  0  0  # atno 11005 bound_to 11000
  146.0139  139.3193  143.0853 LP  0  0  0  0  0  0  0  0  0  0  0  0  # atno 17320 bound_to 7965
  145.8649  140.9454  143.0681 LP  0  0  0  0  0  0  0  0  0  0  0  0  # atno 17321 bound_to 7965
  140.6648  143.2264  151.5769 LP  0  0  0  0  0  0  0  0  0  0  0  0  # atno 17342 bound_to 10162
  139.5385  144.2714  152.1301 LP  0  0  0  0  0  0  0  0  0  0  0  0  # atno 17343 bound_to 10162
  156.3092  130.3769  149.7677 LP  0  0  0  0  0  0  0  0  0  0  0  0  # atno 17370 bound_to 10713
  156.5283  130.8246  151.3228 LP  0  0  0  0  0  0  0  0  0  0  0  0  # atno 17371 bound_to 10713
  140.6271  134.5302  157.5555 LP  0  0  0  0  0  0  0  0  0  0  0  0  # atno 17394 bound_to 11000
  139.9261  134.8053  156.1065 LP  0  0  0  0  0  0  0  0  0  0  0  0  # atno 17395 bound_to 11000

$$$$
