AV-unprocessed.smi:440|AV-procd|sdf|2581|dock9
  -GOLD-   2262022573D 1   1.00000     0.00000
 Structure written by MMmdl.
 41 42  0  0  0  0  0  0  0  0  1 V2000
  149.8661  139.3074  157.7872 C   0  0  0  0  0  0  0  0  0  0  0  0
  150.1764  140.7125  158.2184 C   0  0  0  0  0  0  0  0  0  0  0  0
  151.3032  140.9576  158.8644 N   0  0  0  0  0  0  0  0  0  0  0  0
  151.2837  142.2846  159.1067 N   0  0  0  0  0  0  0  0  0  0  0  0
  152.3978  142.8897  159.8215 C   0  0  0  0  0  0  0  0  0  0  0  0
  152.6915  142.2144  161.1789 C   0  0  0  0  0  0  0  0  0  0  0  0
  152.7834  143.2634  162.2966 C   0  0  0  0  0  0  0  0  0  0  0  0
  153.9517  141.3317  161.1521 C   0  0  0  0  0  0  0  0  0  0  0  0
  150.1428  142.8804  158.6002 C   0  0  0  0  0  0  0  0  0  0  0  0
  149.8776  144.3471  158.7220 C   0  0  0  0  0  0  0  0  0  0  0  0
  149.3974  141.8897  158.0183 C   0  0  0  0  0  0  0  0  0  0  0  0
  148.0650  142.0005  157.3209 C   0  0  0  0  0  0  0  0  0  0  0  0
  146.9933  142.4325  158.3220 C   0  0  0  0  0  0  0  0  0  0  0  0
  146.2453  141.5928  158.8227 O   0  0  0  0  0  0  0  0  0  0  0  0
  146.9370  143.7425  158.6044 N   0  0  0  0  0  0  0  0  0  0  0  0
  146.0394  144.3564  159.5274 C   0  0  0  0  0  0  0  0  0  0  0  0
  146.1887  145.8422  159.7725 C   0  0  0  0  0  0  0  0  0  0  0  0
  146.6186  144.8635  160.8304 C   0  0  0  0  0  0  0  0  0  0  0  0
  148.8727  139.0074  158.1211 H   0  0  0  0  0  0  0  0  0  0  0  0
  150.5805  138.5915  158.1956 H   0  0  0  0  0  0  0  0  0  0  0  0
  149.8932  139.2187  156.7012 H   0  0  0  0  0  0  0  0  0  0  0  0
  153.2841  142.8493  159.1861 H   0  0  0  0  0  0  0  0  0  0  0  0
  152.1783  143.9479  159.9658 H   0  0  0  0  0  0  0  0  0  0  0  0
  151.8491  141.5652  161.4183 H   0  0  0  0  0  0  0  0  0  0  0  0
  153.6112  143.9524  162.1260 H   0  0  0  0  0  0  0  0  0  0  0  0
  152.9372  142.7923  163.2678 H   0  0  0  0  0  0  0  0  0  0  0  0
  151.8677  143.8521  162.3595 H   0  0  0  0  0  0  0  0  0  0  0  0
  154.8320  141.9091  160.8680 H   0  0  0  0  0  0  0  0  0  0  0  0
  153.8510  140.5072  160.4461 H   0  0  0  0  0  0  0  0  0  0  0  0
  154.1438  140.8932  162.1316 H   0  0  0  0  0  0  0  0  0  0  0  0
  149.0117  144.6418  158.1293 H   0  0  0  0  0  0  0  0  0  0  0  0
  150.7289  144.9299  158.3703 H   0  0  0  0  0  0  0  0  0  0  0  0
  149.6804  144.6215  159.7579 H   0  0  0  0  0  0  0  0  0  0  0  0
  148.1001  142.7203  156.5023 H   0  0  0  0  0  0  0  0  0  0  0  0
  147.7713  141.0517  156.8708 H   0  0  0  0  0  0  0  0  0  0  0  0
  147.5967  144.3511  158.1422 H   0  0  0  0  0  0  0  0  0  0  0  0
  145.0255  143.9616  159.5778 H   0  0  0  0  0  0  0  0  0  0  0  0
  146.9701  146.3719  159.2305 H   0  0  0  0  0  0  0  0  0  0  0  0
  145.2811  146.4134  159.9564 H   0  0  0  0  0  0  0  0  0  0  0  0
  145.9981  144.7806  161.7205 H   0  0  0  0  0  0  0  0  0  0  0  0
  147.6878  144.7404  160.9951 H   0  0  0  0  0  0  0  0  0  0  0  0
  1  2  1  0  0  0  0
  1 19  1  0  0  0  0
  1 20  1  0  0  0  0
  1 21  1  0  0  0  0
  2 11  1  0  0  0  0
  2  3  2  0  0  0  0
  3  4  1  0  0  0  0
  4  5  1  0  0  0  0
  4  9  1  0  0  0  0
  5  6  1  0  0  0  0
  5 22  1  0  0  0  0
  5 23  1  0  0  0  0
  6  7  1  0  0  0  0
  6  8  1  0  0  0  0
  6 24  1  0  0  0  0
  7 25  1  0  0  0  0
  7 26  1  0  0  0  0
  7 27  1  0  0  0  0
  8 28  1  0  0  0  0
  8 29  1  0  0  0  0
  8 30  1  0  0  0  0
  9 10  1  0  0  0  0
  9 11  2  0  0  0  0
 10 31  1  0  0  0  0
 10 32  1  0  0  0  0
 10 33  1  0  0  0  0
 11 12  1  0  0  0  0
 12 13  1  0  0  0  0
 12 34  1  0  0  0  0
 12 35  1  0  0  0  0
 13 14  2  0  0  0  0
 13 15  1  0  0  0  0
 15 16  1  0  0  0  0
 15 36  1  0  0  0  0
 16 18  1  0  0  0  0
 16 17  1  0  0  0  0
 16 37  1  0  0  0  0
 17 18  1  0  0  0  0
 17 38  1  0  0  0  0
 17 39  1  0  0  0  0
 18 40  1  0  0  0  0
 18 41  1  0  0  0  0
M  END
> <s_m_source_file>
AV-unprocessed.smi

> <i_m_source_file_index>
440

> <i_lp_mmshare_version>
43012

> <i_f3d_flags>
0

> <s_epik_input>
W0NIM11jMW5uKFtDSDJdW0NIXShbQ0gzXSlbQ0gzXSljKFtDSDNdKWMxW0NIMl1DKD1PKVtOSF1bQ0hdMltDSDJdW0NIMl0y

> <s_epik_cmdline>
J2VwaWtfcHl0aG9uJywgJy1waCcsICc3LjAnLCAnLXRuJywgJzgnLCAnLW1hJywgJzIwMCcsICctbWV0YWxfYmluZGluZycsICctaW1hZScsICc8aW5maWxlLm1hZT4nLCAnLW9tYWUnLCAnPG91dGZpbGUubWFlPic=

> <r_lp_tautomer_probability>
1

> <r_epik_Ionization_Penalty>
0.00313774

> <r_epik_Ionization_Penalty_Charging>
0

> <r_epik_Ionization_Penalty_Neutral>
0.00313774

> <r_epik_State_Penalty>
0.00220979

> <r_epik_Charging_Adjusted_Penalty>
0.00220979

> <i_epik_Tot_Q>
0

> <i_epik_Tot_abs_Q>
0

> <r_epik_Metal_State_Penalty>
-0

> <b_epik_Metal_Only>
0

> <s_lp_Force_Field>
OPLS_2005

> <r_lp_Energy>
13.2521

> <b_lp_Chiralities_Consistent>
1

> <s_lp_Variant>
AV-unprocessed.smi:440-1

> <Gold.Version>
5.8.1

> <Gold.Id.Protein>
6NUR|6NUR_protein|mol2

> <Gold.PLP.Fitness>
38.7983

> <Gold.PLP.PLP>
-36.6970

> <Gold.PLP.part.hbond>
-2.0000

> <Gold.PLP.part.metal>
0.0000

> <Gold.PLP.part.buried>
-5.5216

> <Gold.PLP.part.nonpolar>
-29.0991

> <Gold.PLP.part.repulsive>
0.0992

> <Gold.PLP.ligand.clash>
0.0000

> <Gold.PLP.ligand.torsion>
1.0936

> <Gold.PLP.Chemscore.Hbond>
1.4080

> <Gold.PLP.Chemscore.CHOScore>
0.0000

> <Gold.PLP.Chemscore.Metal>
0.0000

> <Gold.Chemscore.Hbonds>
donor molecule, donor type, donor heavy atom, donor atom, acceptor molecule, acceptor atom, score
      L1  H    15    36       P1  8029  0.94
      P1  H  6934  6946       L1    14  0.59

> <Gold.PLP.Chemscore.Internal.Correction>
0.0644

> <Gold.Rescore>
     Score         DG    S(hbond)    S(metal)    S(lipo)     H(rot)  DE(clash)    DE(int)     intcor
     17.16     -18.28       1.88        0.00      89.44       1.53       0.13       0.99       ----

> <Gold.Chemscore.Fitness>
17.1616

> <Gold.Chemscore.DG>
-18.2843

> <Gold.Chemscore.ZeroCoef>
-5.4800

> <Gold.Chemscore.Hbond>
1.8765

> <Gold.Chemscore.Metal>
0.0000

> <Gold.Chemscore.Lipo>
89.4397

> <Gold.Chemscore.Internal_Hbond>
0.0000

> <Gold.Chemscore.DEClash>
0.1333

> <Gold.Chemscore.DEInternal>
0.9895

> <Gold.Chemscore.Rot>
1.5342

> <Gold.Chemscore.Internal.Correction>
   9.000000E+99

> <Gold.Chemscore.Hbonds>
donor molecule, donor type, donor heavy atom, donor atom, acceptor molecule, acceptor atom, score
      L1  H    15    36       P1  8029  0.45
      P1  H  6934  6946       L1    14  0.50

> <Gold.Chemscore.Hbond.Weighted>
-6.2675

> <Gold.Chemscore.Metal.Weighted>
-0.0000

> <Gold.Chemscore.Lipo.Weighted>
-10.4645

> <Gold.Chemscore.Internal_Hbond.Weighted>
0.0000

> <Gold.Chemscore.DEClash.Weighted>
0.1333

> <Gold.Chemscore.DEInternal.Weighted>
0.9895

> <Gold.Chemscore.Rot.Weighted>
3.9276

> <Gold.Chemscore.Internal.Correction.Weighted>
   9.000000E+99

> <Gold.Protein.RotatedTorsions>
[ 6907 6896 6895 6894 ] final  -32.60 input  -60.11 | X-H torsion
[ 7974 7965 7964 7962 ] final  168.57 input  175.53 | X-H torsion
[ 8008 7997 7996 7995 ] final -177.72 input   59.86 | X-H torsion
[ 10167 10162 10161 10158 ] final  154.77 input  -65.29 | X-H torsion
[ 10718 10713 10712 10709 ] final  176.46 input   66.30 | X-H torsion
[ 10763 10752 10751 10750 ] final -101.85 input  -60.55 | X-H torsion
[ 11005 11000 10999 10996 ] final  -74.15 input  -57.11 | X-H torsion

> <Gold.Protein.ActiveResidues>
 VAL166  LYS551  ARG553  GLY616  TRP617  ASP618  TYR619  PRO620  LYS621  CYS622 
 ASP623  PHE694  ASN695  SER759  ASP760  ASP761  ALA762  ILE779  LEU786  VAL792 
 PHE793  MET794  SER795  GLU796  ALA797  LYS798  CYS799  TRP800  GLU811  SER814 

> <Gold.Protein.RotatedAtoms>
  151.0766  134.9832  159.8334 H   0  0  0  0  0  0  0  0  0  0  0  0  # atno 6907 bound_to 6896
  152.5415  134.2233  159.8806 H   0  0  0  0  0  0  0  0  0  0  0  0  # atno 6908 bound_to 6896
  151.2261  133.4432  159.2636 H   0  0  0  0  0  0  0  0  0  0  0  0  # atno 6909 bound_to 6896
  144.7384  139.8927  143.6404 H   0  0  0  0  0  0  0  0  0  0  0  0  # atno 7974 bound_to 7965
  156.0103  140.1239  157.0460 H   0  0  0  0  0  0  0  0  0  0  0  0  # atno 8008 bound_to 7997
  154.4273  140.1089  156.5890 H   0  0  0  0  0  0  0  0  0  0  0  0  # atno 8009 bound_to 7997
  155.6088  140.3471  155.4618 H   0  0  0  0  0  0  0  0  0  0  0  0  # atno 8010 bound_to 7997
  139.4822  144.5157  151.7955 H   0  0  0  0  0  0  0  0  0  0  0  0  # atno 10167 bound_to 10162
  156.9198  130.9937  151.3006 H   0  0  0  0  0  0  0  0  0  0  0  0  # atno 10718 bound_to 10713
  154.7689  135.4882  153.9609 H   0  0  0  0  0  0  0  0  0  0  0  0  # atno 10763 bound_to 10752
  153.1343  135.6759  153.9136 H   0  0  0  0  0  0  0  0  0  0  0  0  # atno 10764 bound_to 10752
  153.8830  135.3130  155.3424 H   0  0  0  0  0  0  0  0  0  0  0  0  # atno 10765 bound_to 10752
  141.1631  133.6902  156.7320 H   0  0  0  0  0  0  0  0  0  0  0  0  # atno 11005 bound_to 11000
  146.1130  139.4137  143.0276 LP  0  0  0  0  0  0  0  0  0  0  0  0  # atno 17320 bound_to 7965
  145.7415  141.0006  143.1298 LP  0  0  0  0  0  0  0  0  0  0  0  0  # atno 17321 bound_to 7965
  140.4665  144.1648  150.5912 LP  0  0  0  0  0  0  0  0  0  0  0  0  # atno 17342 bound_to 10162
  140.4428  143.2519  151.9450 LP  0  0  0  0  0  0  0  0  0  0  0  0  # atno 17343 bound_to 10162
  157.5915  130.8447  149.8666 LP  0  0  0  0  0  0  0  0  0  0  0  0  # atno 17370 bound_to 10713
  156.0496  130.3720  150.1233 LP  0  0  0  0  0  0  0  0  0  0  0  0  # atno 17371 bound_to 10713
  140.2738  134.8371  157.3871 LP  0  0  0  0  0  0  0  0  0  0  0  0  # atno 17394 bound_to 11000
  140.1497  134.4866  155.7970 LP  0  0  0  0  0  0  0  0  0  0  0  0  # atno 17395 bound_to 11000

$$$$
