AV-unprocessed.smi:1808|AV-procd|sdf|7307|dock4
  -GOLD-   22720 8563D 1   1.00000     0.00000
 Structure written by MMmdl.
 27 28  0  0  0  0  0  0  0  0  2 V2000
  152.5424  138.6071  158.3564 O   0  0  0  0  0  0  0  0  0  0  0  0
  152.4724  139.7015  157.7918 C   0  0  0  0  0  0  0  0  0  0  0  0
  152.3729  140.8235  158.5188 N   0  0  0  0  0  0  0  0  0  0  0  0
  152.3486  140.8976  159.9757 C   0  0  0  0  0  0  0  0  0  0  0  0
  152.7484  142.2946  160.4779 C   0  0  2  0  0  0  0  0  0  0  0  0
  152.8074  142.4106  161.9971 C   0  0  0  0  0  0  0  0  0  0  0  0
  152.6946  143.9080  162.2140 C   0  0  0  0  0  0  0  0  0  0  0  0
  151.9370  144.3982  160.9757 C   0  0  0  0  0  0  0  0  0  0  0  0
  151.7588  143.2563  160.1446 O   0  0  0  0  0  0  0  0  0  0  0  0
  152.4884  139.9168  156.4566 N   0  5  0  0  0  0  0  0  0  0  0  0
  151.6546  139.2331  155.6558 C   0  0  0  0  0  0  0  0  0  0  0  0
  150.8628  139.8229  154.7527 N   0  0  0  0  0  0  0  0  0  0  0  0
  150.0834  138.9217  154.0251 C   0  0  0  0  0  0  0  0  0  0  0  0
  150.2925  137.6144  154.3763 C   0  0  0  0  0  0  0  0  0  0  0  0
  151.4818  137.4756  155.6394 S   0  0  0  0  0  0  0  0  0  0  0  0
  152.3215  141.6980  158.0171 H   0  0  0  0  0  0  0  0  0  0  0  0
  151.3437  140.6483  160.3172 H   0  0  0  0  0  0  0  0  0  0  0  0
  153.0138  140.1403  160.3936 H   0  0  0  0  0  0  0  0  0  0  0  0
  153.7049  142.6032  160.0516 H   0  0  0  0  0  0  0  0  0  0  0  0
  151.9523  141.9060  162.4490 H   0  0  0  0  0  0  0  0  0  0  0  0
  153.7176  141.9851  162.4206 H   0  0  0  0  0  0  0  0  0  0  0  0
  152.1814  144.1513  163.1447 H   0  0  0  0  0  0  0  0  0  0  0  0
  153.6862  144.3610  162.2471 H   0  0  0  0  0  0  0  0  0  0  0  0
  150.9676  144.8266  161.2307 H   0  0  0  0  0  0  0  0  0  0  0  0
  152.5138  145.1561  160.4443 H   0  0  0  0  0  0  0  0  0  0  0  0
  149.4065  139.2995  153.2735 H   0  0  0  0  0  0  0  0  0  0  0  0
  149.8244  136.7299  153.9718 H   0  0  0  0  0  0  0  0  0  0  0  0
  1  2  2  0  0  0  0
  2  3  1  0  0  0  0
  2 10  1  0  0  0  0
  3  4  1  0  0  0  0
  3 16  1  0  0  0  0
  4  5  1  0  0  0  0
  4 17  1  0  0  0  0
  4 18  1  0  0  0  0
  5  9  1  0  0  0  0
  5  6  1  0  0  0  0
  5 19  1  0  0  0  0
  6  7  1  0  0  0  0
  6 20  1  0  0  0  0
  6 21  1  0  0  0  0
  7  8  1  0  0  0  0
  7 22  1  0  0  0  0
  7 23  1  0  0  0  0
  8  9  1  0  0  0  0
  8 24  1  0  0  0  0
  8 25  1  0  0  0  0
 10 11  1  0  0  0  0
 11 15  1  0  0  0  0
 11 12  2  0  0  0  0
 12 13  1  0  0  0  0
 13 14  2  0  0  0  0
 13 26  1  0  0  0  0
 14 15  1  0  0  0  0
 14 27  1  0  0  0  0
M  CHG  1  10  -1
M  END
> <s_m_source_file>
AV-unprocessed.smi

> <i_m_source_file_index>
1808

> <i_lp_mmshare_version>
43012

> <i_f3d_flags>
0

> <s_epik_input>
czFbY0hdW2NIXW5jMVtOSF1DKD1PKVtOSF1bQ0gyXVtDQEBIXTJbQ0gyXVtDSDJdW0NIMl1PMg==

> <s_epik_cmdline>
J2VwaWtfcHl0aG9uJywgJy1waCcsICc3LjAnLCAnLXRuJywgJzgnLCAnLW1hJywgJzIwMCcsICctbWV0YWxfYmluZGluZycsICctaW1hZScsICc8aW5maWxlLm1hZT4nLCAnLW9tYWUnLCAnPG91dGZpbGUubWFlPic=

> <r_lp_tautomer_probability>
0.999

> <r_epik_Ionization_Penalty>
8.26346

> <r_epik_Ionization_Penalty_Charging>
6.6559

> <r_epik_Ionization_Penalty_Neutral>
1.60756

> <r_epik_State_Penalty>
6.65607

> <r_epik_Charging_Adjusted_Penalty>
13.312

> <i_epik_Tot_Q>
-1

> <i_epik_Tot_abs_Q>
1

> <r_epik_Metal_State_Penalty>
2.5789

> <b_epik_Metal_Only>
1

> <s_lp_Force_Field>
OPLS_2005

> <r_lp_Energy>
12.338

> <b_lp_Chiralities_Consistent>
1

> <s_lp_Variant>
AV-unprocessed.smi:1808-3

> <Gold.Version>
5.8.1

> <Gold.Id.Protein>
6NUR|6NUR_protein|mol2

> <Gold.PLP.Fitness>
42.6475

> <Gold.PLP.PLP>
-29.7904

> <Gold.PLP.part.hbond>
-2.0000

> <Gold.PLP.part.metal>
0.0000

> <Gold.PLP.part.buried>
-2.6147

> <Gold.PLP.part.nonpolar>
-25.4196

> <Gold.PLP.part.repulsive>
0.2013

> <Gold.PLP.ligand.clash>
0.0000

> <Gold.PLP.ligand.torsion>
1.0786

> <Gold.PLP.Chemscore.Hbond>
3.0000

> <Gold.PLP.Chemscore.CHOScore>
2.0000

> <Gold.PLP.Chemscore.Metal>
0.0000

> <Gold.Chemscore.Hbonds>
donor molecule, donor type, donor heavy atom, donor atom, acceptor molecule, acceptor atom, score
      P1  H  7989  7998       L1    12  1.00
      P1  H  7997  8009       L1    10  2.00
      L1  C    13    26       P1  7957  1.00
      L1  C    14    27       P1  7948  1.00

> <Gold.PLP.Chemscore.Internal.Correction>
0.0143

> <Gold.Rescore>
     Score         DG    S(hbond)    S(metal)    S(lipo)     H(rot)  DE(clash)    DE(int)     intcor
     15.19     -16.38       1.59        0.00      76.29       1.30       0.15       1.05       ----

> <Gold.Chemscore.Fitness>
15.1867

> <Gold.Chemscore.DG>
-16.3800

> <Gold.Chemscore.ZeroCoef>
-5.4800

> <Gold.Chemscore.Hbond>
1.5875

> <Gold.Chemscore.Metal>
0.0000

> <Gold.Chemscore.Lipo>
76.2882

> <Gold.Chemscore.Internal_Hbond>
0.0000

> <Gold.Chemscore.DEClash>
0.1455

> <Gold.Chemscore.DEInternal>
1.0479

> <Gold.Chemscore.Rot>
1.3000

> <Gold.Chemscore.Internal.Correction>
   9.000000E+99

> <Gold.Chemscore.Hbonds>
donor molecule, donor type, donor heavy atom, donor atom, acceptor molecule, acceptor atom, score
      P1  H  7989  7998       L1    12  0.43
      P1  H  7997  8009       L1    10  0.28

> <Gold.Chemscore.Hbond.Weighted>
-5.3023

> <Gold.Chemscore.Metal.Weighted>
-0.0000

> <Gold.Chemscore.Lipo.Weighted>
-8.9257

> <Gold.Chemscore.Internal_Hbond.Weighted>
0.0000

> <Gold.Chemscore.DEClash.Weighted>
0.1455

> <Gold.Chemscore.DEInternal.Weighted>
1.0479

> <Gold.Chemscore.Rot.Weighted>
3.3280

> <Gold.Chemscore.Internal.Correction.Weighted>
   9.000000E+99

> <Gold.Protein.RotatedTorsions>
[ 6907 6896 6895 6894 ] final -177.47 input  -60.11 | X-H torsion
[ 7974 7965 7964 7962 ] final -122.33 input  175.53 | X-H torsion
[ 8008 7997 7996 7995 ] final -149.69 input   59.86 | X-H torsion
[ 10167 10162 10161 10158 ] final  125.66 input  -65.29 | X-H torsion
[ 10718 10713 10712 10709 ] final   98.73 input   66.30 | X-H torsion
[ 10763 10752 10751 10750 ] final   33.02 input  -60.55 | X-H torsion
[ 11005 11000 10999 10996 ] final  132.18 input  -57.11 | X-H torsion

> <Gold.Protein.ActiveResidues>
 VAL166  LYS551  ARG553  GLY616  TRP617  ASP618  TYR619  PRO620  LYS621  CYS622 
 ASP623  PHE694  ASN695  SER759  ASP760  ASP761  ALA762  ILE779  LEU786  VAL792 
 PHE793  MET794  SER795  GLU796  ALA797  LYS798  CYS799  TRP800  GLU811  SER814 

> <Gold.Protein.RotatedAtoms>
  151.6215  133.3339  159.3088 H   0  0  0  0  0  0  0  0  0  0  0  0  # atno 6907 bound_to 6896
  150.8103  134.7258  159.6693 H   0  0  0  0  0  0  0  0  0  0  0  0  # atno 6908 bound_to 6896
  152.4200  134.5978  160.0043 H   0  0  0  0  0  0  0  0  0  0  0  0  # atno 6909 bound_to 6896
  145.0306  140.8064  143.4326 H   0  0  0  0  0  0  0  0  0  0  0  0  # atno 7974 bound_to 7965
  155.6116  140.0672  157.2704 H   0  0  0  0  0  0  0  0  0  0  0  0  # atno 8008 bound_to 7997
  154.4252  140.1800  156.1326 H   0  0  0  0  0  0  0  0  0  0  0  0  # atno 8009 bound_to 7997
  156.0080  140.3329  155.6915 H   0  0  0  0  0  0  0  0  0  0  0  0  # atno 8010 bound_to 7997
  139.5673  144.6919  151.3874 H   0  0  0  0  0  0  0  0  0  0  0  0  # atno 10167 bound_to 10162
  157.6890  131.0649  150.4841 H   0  0  0  0  0  0  0  0  0  0  0  0  # atno 10718 bound_to 10713
  153.0233  135.6398  154.1446 H   0  0  0  0  0  0  0  0  0  0  0  0  # atno 10763 bound_to 10752
  154.1178  135.2848  155.3217 H   0  0  0  0  0  0  0  0  0  0  0  0  # atno 10764 bound_to 10752
  154.6285  135.5500  153.7716 H   0  0  0  0  0  0  0  0  0  0  0  0  # atno 10765 bound_to 10752
  139.9775  134.9559  156.9545 H   0  0  0  0  0  0  0  0  0  0  0  0  # atno 11005 bound_to 11000
  145.1775  139.2370  143.5309 LP  0  0  0  0  0  0  0  0  0  0  0  0  # atno 17320 bound_to 7965
  146.3498  140.1541  142.8592 LP  0  0  0  0  0  0  0  0  0  0  0  0  # atno 17321 bound_to 7965
  140.6957  143.7754  150.7323 LP  0  0  0  0  0  0  0  0  0  0  0  0  # atno 17342 bound_to 10162
  140.1250  143.4577  152.2290 LP  0  0  0  0  0  0  0  0  0  0  0  0  # atno 17343 bound_to 10162
  156.5171  130.4153  149.6270 LP  0  0  0  0  0  0  0  0  0  0  0  0  # atno 17370 bound_to 10713
  156.3188  130.7269  151.2177 LP  0  0  0  0  0  0  0  0  0  0  0  0  # atno 17371 bound_to 10713
  140.5165  134.0950  155.7282 LP  0  0  0  0  0  0  0  0  0  0  0  0  # atno 17394 bound_to 11000
  141.1450  133.9071  157.2236 LP  0  0  0  0  0  0  0  0  0  0  0  0  # atno 17395 bound_to 11000

$$$$
