AV-unprocessed.smi:1506|AV-procd|sdf|6079|dock2
  -GOLD-   22720 6203D 1   1.00000     0.00000
 Structure written by MMmdl.
 40 42  0  0  0  0  0  0  0  0  2 V2000
  151.3537  145.0307  159.3244 C   0  0  0  0  0  0  0  0  0  0  0  0
  151.8588  143.6169  159.5259 C   0  0  0  0  0  0  0  0  0  0  0  0
  152.9717  143.3689  160.3534 C   0  0  0  0  0  0  0  0  0  0  0  0
  153.4319  142.0516  160.5347 C   0  0  0  0  0  0  0  0  0  0  0  0
  152.7834  140.9793  159.8922 C   0  0  0  0  0  0  0  0  0  0  0  0
  151.6610  141.2159  159.0584 C   0  0  0  0  0  0  0  0  0  0  0  0
  150.9668  140.2274  158.3937 O   0  0  0  0  0  0  0  0  0  0  0  0
  151.6449  139.0144  158.0945 C   0  0  0  0  0  0  0  0  0  0  0  0
  152.3009  139.1328  156.7108 C   0  0  1  0  0  0  0  0  0  0  0  0
  153.3051  138.1428  156.6074 O   0  0  0  0  0  0  0  0  0  0  0  0
  151.2844  138.9816  155.5612 C   0  0  0  0  0  0  0  0  0  0  0  0
  150.4216  140.1618  155.4070 N   0  0  0  0  0  0  0  0  0  0  0  0
  150.5818  141.4207  155.8980 C   0  0  0  0  0  0  0  0  0  0  0  0
  149.5196  142.1639  155.4812 N   0  3  0  0  0  0  0  0  0  0  0  0
  148.6672  141.3690  154.7122 C   0  0  0  0  0  0  0  0  0  0  0  0
  147.4687  141.6731  154.0739 C   0  0  0  0  0  0  0  0  0  0  0  0
  146.8465  140.6259  153.3631 C   0  0  0  0  0  0  0  0  0  0  0  0
  147.4162  139.3375  153.3058 C   0  0  0  0  0  0  0  0  0  0  0  0
  148.6315  139.0402  153.9573 C   0  0  0  0  0  0  0  0  0  0  0  0
  149.2403  140.0803  154.6595 C   0  0  0  0  0  0  0  0  0  0  0  0
  151.2105  142.5411  158.8856 C   0  0  0  0  0  0  0  0  0  0  0  0
  152.0844  145.7650  159.6655 H   0  0  0  0  0  0  0  0  0  0  0  0
  150.4293  145.1825  159.8821 H   0  0  0  0  0  0  0  0  0  0  0  0
  151.1539  145.2176  158.2690 H   0  0  0  0  0  0  0  0  0  0  0  0
  153.4753  144.1849  160.8509 H   0  0  0  0  0  0  0  0  0  0  0  0
  154.2856  141.8622  161.1686 H   0  0  0  0  0  0  0  0  0  0  0  0
  153.1678  139.9843  160.0555 H   0  0  0  0  0  0  0  0  0  0  0  0
  152.4127  138.8358  158.8496 H   0  0  0  0  0  0  0  0  0  0  0  0
  150.9527  138.1707  158.1081 H   0  0  0  0  0  0  0  0  0  0  0  0
  152.7930  140.1032  156.6331 H   0  0  0  0  0  0  0  0  0  0  0  0
  153.3174  137.6423  157.4086 H   0  0  0  0  0  0  0  0  0  0  0  0
  151.7823  138.7689  154.6152 H   0  0  0  0  0  0  0  0  0  0  0  0
  150.6282  138.1324  155.7558 H   0  0  0  0  0  0  0  0  0  0  0  0
  151.4045  141.7678  156.5065 H   0  0  0  0  0  0  0  0  0  0  0  0
  147.0308  142.6597  154.1153 H   0  0  0  0  0  0  0  0  0  0  0  0
  145.9142  140.8150  152.8507 H   0  0  0  0  0  0  0  0  0  0  0  0
  146.9111  138.5610  152.7498 H   0  0  0  0  0  0  0  0  0  0  0  0
  149.0589  138.0503  153.9022 H   0  0  0  0  0  0  0  0  0  0  0  0
  150.3561  142.7331  158.2529 H   0  0  0  0  0  0  0  0  0  0  0  0
  149.3899  143.1423  155.7048 H   0  0  0  0  0  0  0  0  0  0  0  0
  1  2  1  0  0  0  0
  1 22  1  0  0  0  0
  1 23  1  0  0  0  0
  1 24  1  0  0  0  0
  2 21  1  0  0  0  0
  2  3  2  0  0  0  0
  3  4  1  0  0  0  0
  3 25  1  0  0  0  0
  4  5  2  0  0  0  0
  4 26  1  0  0  0  0
  5  6  1  0  0  0  0
  5 27  1  0  0  0  0
  6  7  1  0  0  0  0
  6 21  2  0  0  0  0
  7  8  1  0  0  0  0
  8  9  1  0  0  0  0
  8 28  1  0  0  0  0
  8 29  1  0  0  0  0
  9 10  1  0  0  0  0
  9 11  1  0  0  0  0
  9 30  1  0  0  0  0
 10 31  1  0  0  0  0
 11 12  1  0  0  0  0
 11 32  1  0  0  0  0
 11 33  1  0  0  0  0
 12 20  1  0  0  0  0
 12 13  1  0  0  0  0
 13 14  2  0  0  0  0
 13 34  1  0  0  0  0
 14 15  1  0  0  0  0
 14 40  1  0  0  0  0
 15 20  2  0  0  0  0
 15 16  1  0  0  0  0
 16 17  2  0  0  0  0
 16 35  1  0  0  0  0
 17 18  1  0  0  0  0
 17 36  1  0  0  0  0
 18 19  2  0  0  0  0
 18 37  1  0  0  0  0
 19 20  1  0  0  0  0
 19 38  1  0  0  0  0
 21 39  1  0  0  0  0
M  CHG  1  14   1
M  END
> <s_m_source_file>
AV-unprocessed.smi

> <i_m_source_file_index>
1506

> <i_lp_mmshare_version>
43012

> <i_f3d_flags>
0

> <s_epik_input>
W0NIM11jMVtjSF1bY0hdW2NIXWMoW2NIXTEpT1tDSDJdW0NASF0oW09IXSlbQ0gyXW4oW2NIXW4yKWMoYzIzKVtjSF1bY0hdW2NIXVtjSF0z

> <s_epik_cmdline>
J2VwaWtfcHl0aG9uJywgJy1waCcsICc3LjAnLCAnLXRuJywgJzgnLCAnLW1hJywgJzIwMCcsICctbWV0YWxfYmluZGluZycsICctaW1hZScsICc8aW5maWxlLm1hZT4nLCAnLW9tYWUnLCAnPG91dGZpbGUubWFlPic=

> <r_lp_tautomer_probability>
1

> <r_epik_Ionization_Penalty>
1.37864

> <r_epik_Ionization_Penalty_Charging>
1.37864

> <r_epik_Ionization_Penalty_Neutral>
2.3993e-06

> <r_epik_State_Penalty>
1.45896

> <r_epik_Charging_Adjusted_Penalty>
2.8376

> <i_epik_Tot_Q>
1

> <i_epik_Tot_abs_Q>
1

> <r_epik_Metal_State_Penalty>
5.49899

> <b_epik_Metal_Only>
0

> <s_lp_Force_Field>
OPLS_2005

> <r_lp_Energy>
20.0977

> <b_lp_Chiralities_Consistent>
1

> <s_lp_Variant>
AV-unprocessed.smi:1506-4

> <Gold.Version>
5.8.1

> <Gold.Id.Protein>
6NUR|6NUR_protein|mol2

> <Gold.PLP.Fitness>
51.9337

> <Gold.PLP.PLP>
-47.8227

> <Gold.PLP.part.hbond>
-2.0000

> <Gold.PLP.part.metal>
0.0000

> <Gold.PLP.part.buried>
-2.5632

> <Gold.PLP.part.nonpolar>
-43.9437

> <Gold.PLP.part.repulsive>
0.1980

> <Gold.PLP.ligand.clash>
0.0000

> <Gold.PLP.ligand.torsion>
0.9972

> <Gold.PLP.Chemscore.Hbond>
2.0000

> <Gold.PLP.Chemscore.CHOScore>
0.0000

> <Gold.PLP.Chemscore.Metal>
0.0000

> <Gold.Chemscore.Hbonds>
donor molecule, donor type, donor heavy atom, donor atom, acceptor molecule, acceptor atom, score
      L1  H    14    40       P1  8028  2.00

> <Gold.PLP.Chemscore.Internal.Correction>
0.1054

> <Gold.Rescore>
     Score         DG    S(hbond)    S(metal)    S(lipo)     H(rot)  DE(clash)    DE(int)     intcor
     15.56     -18.35       1.00        0.00     131.20       2.27       0.28       2.51       ----

> <Gold.Chemscore.Fitness>
15.5642

> <Gold.Chemscore.DG>
-18.3533

> <Gold.Chemscore.ZeroCoef>
-5.4800

> <Gold.Chemscore.Hbond>
1.0000

> <Gold.Chemscore.Metal>
0.0000

> <Gold.Chemscore.Lipo>
131.1991

> <Gold.Chemscore.Internal_Hbond>
0.0000

> <Gold.Chemscore.DEClash>
0.2835

> <Gold.Chemscore.DEInternal>
2.5055

> <Gold.Chemscore.Rot>
2.2723

> <Gold.Chemscore.Internal.Correction>
   9.000000E+99

> <Gold.Chemscore.Hbonds>
donor molecule, donor type, donor heavy atom, donor atom, acceptor molecule, acceptor atom, score
      L1  H    14    40       P1  8028  1.00

> <Gold.Chemscore.Hbond.Weighted>
-3.3400

> <Gold.Chemscore.Metal.Weighted>
-0.0000

> <Gold.Chemscore.Lipo.Weighted>
-15.3503

> <Gold.Chemscore.Internal_Hbond.Weighted>
0.0000

> <Gold.Chemscore.DEClash.Weighted>
0.2835

> <Gold.Chemscore.DEInternal.Weighted>
2.5055

> <Gold.Chemscore.Rot.Weighted>
5.8170

> <Gold.Chemscore.Internal.Correction.Weighted>
   9.000000E+99

> <Gold.Protein.RotatedTorsions>
[ 6907 6896 6895 6894 ] final   36.98 input  -60.11 | X-H torsion
[ 7974 7965 7964 7962 ] final  -59.35 input  175.53 | X-H torsion
[ 8008 7997 7996 7995 ] final  -43.75 input   59.86 | X-H torsion
[ 10167 10162 10161 10158 ] final  -71.16 input  -65.29 | X-H torsion
[ 10718 10713 10712 10709 ] final   57.70 input   66.30 | X-H torsion
[ 10763 10752 10751 10750 ] final  -27.27 input  -60.55 | X-H torsion
[ 11005 11000 10999 10996 ] final    2.33 input  -57.11 | X-H torsion

> <Gold.Protein.ActiveResidues>
 VAL166  LYS551  ARG553  GLY616  TRP617  ASP618  TYR619  PRO620  LYS621  CYS622 
 ASP623  PHE694  ASN695  SER759  ASP760  ASP761  ALA762  ILE779  LEU786  VAL792 
 PHE793  MET794  SER795  GLU796  ALA797  LYS798  CYS799  TRP800  GLU811  SER814 

> <Gold.Protein.RotatedAtoms>
  152.1370  134.9092  160.0555 H   0  0  0  0  0  0  0  0  0  0  0  0  # atno 6907 bound_to 6896
  152.0174  133.3880  159.4252 H   0  0  0  0  0  0  0  0  0  0  0  0  # atno 6908 bound_to 6896
  150.6861  134.3585  159.4984 H   0  0  0  0  0  0  0  0  0  0  0  0  # atno 6909 bound_to 6896
  145.8285  140.8495  143.0095 H   0  0  0  0  0  0  0  0  0  0  0  0  # atno 7974 bound_to 7965
  154.3997  140.1440  156.3570 H   0  0  0  0  0  0  0  0  0  0  0  0  # atno 8008 bound_to 7997
  155.8216  140.3469  155.5497 H   0  0  0  0  0  0  0  0  0  0  0  0  # atno 8009 bound_to 7997
  155.8282  140.0908  157.1799 H   0  0  0  0  0  0  0  0  0  0  0  0  # atno 8010 bound_to 7997
  140.5295  143.2323  151.7288 H   0  0  0  0  0  0  0  0  0  0  0  0  # atno 10167 bound_to 10162
  157.5536  130.8784  149.9001 H   0  0  0  0  0  0  0  0  0  0  0  0  # atno 10718 bound_to 10713
  153.7294  135.6940  153.4993 H   0  0  0  0  0  0  0  0  0  0  0  0  # atno 10763 bound_to 10752
  153.2146  135.4391  155.0419 H   0  0  0  0  0  0  0  0  0  0  0  0  # atno 10764 bound_to 10752
  154.8258  135.3445  154.6825 H   0  0  0  0  0  0  0  0  0  0  0  0  # atno 10765 bound_to 10752
  140.6054  133.9797  155.8152 H   0  0  0  0  0  0  0  0  0  0  0  0  # atno 11005 bound_to 11000
  144.6741  140.0638  143.7475 LP  0  0  0  0  0  0  0  0  0  0  0  0  # atno 17320 bound_to 7965
  145.9597  139.2791  143.1163 LP  0  0  0  0  0  0  0  0  0  0  0  0  # atno 17321 bound_to 7965
  139.4949  144.4136  152.0054 LP  0  0  0  0  0  0  0  0  0  0  0  0  # atno 17342 bound_to 10162
  140.3237  144.3398  150.6003 LP  0  0  0  0  0  0  0  0  0  0  0  0  # atno 17343 bound_to 10162
  156.0598  130.3702  150.1007 LP  0  0  0  0  0  0  0  0  0  0  0  0  # atno 17370 bound_to 10713
  156.9178  130.9673  151.3553 LP  0  0  0  0  0  0  0  0  0  0  0  0  # atno 17371 bound_to 10713
  141.0844  134.0013  157.3337 LP  0  0  0  0  0  0  0  0  0  0  0  0  # atno 17394 bound_to 11000
  139.9214  135.0200  156.8079 LP  0  0  0  0  0  0  0  0  0  0  0  0  # atno 17395 bound_to 11000

$$$$
