AV-unprocessed.smi:1748|AV-procd|sdf|7041|dock1
  -GOLD-   22720 8263D 1   1.00000     0.00000
 Structure written by MMmdl.
 39 40  0  0  0  0  0  0  0  0  3 V2000
  145.7314  143.4220  153.3333 C   0  0  0  0  0  0  0  0  0  0  0  0
  145.9040  142.0219  153.7759 N   0  3  2  0  0  0  0  0  0  0  0  0
  145.7797  141.8720  155.2477 C   0  0  0  0  0  0  0  0  0  0  0  0
  145.8376  140.3912  155.6625 C   0  0  0  0  0  0  0  0  0  0  0  0
  147.1025  139.7049  155.1174 C   0  0  0  0  0  0  0  0  0  0  0  0
  147.2293  139.9097  153.5967 C   0  0  1  0  0  0  0  0  0  0  0  0
  146.1809  139.1587  152.9063 N   0  0  0  0  0  0  0  0  0  0  0  0
  145.9016  137.8613  153.0935 C   0  0  0  0  0  0  0  0  0  0  0  0
  146.5021  137.1529  153.9011 O   0  0  0  0  0  0  0  0  0  0  0  0
  144.9244  137.4594  152.2622 N   0  0  0  0  0  0  0  0  0  0  0  0
  144.3574  136.1829  152.1175 C   0  0  0  0  0  0  0  0  0  0  0  0
  145.0014  135.1061  151.5890 C   0  0  0  0  0  0  0  0  0  0  0  0
  144.3666  133.7996  151.4700 C   0  0  0  0  0  0  0  0  0  0  0  0
  145.0827  132.5605  150.9618 C   0  0  0  0  0  0  0  0  0  0  0  0
  146.3528  132.8284  150.6573 F   0  0  0  0  0  0  0  0  0  0  0  0
  145.0698  131.6130  151.8984 F   0  0  0  0  0  0  0  0  0  0  0  0
  144.4828  132.0770  149.8741 F   0  0  0  0  0  0  0  0  0  0  0  0
  143.0806  133.7938  151.9754 C   0  0  0  0  0  0  0  0  0  0  0  0
  142.3700  134.8140  152.5051 N   0  5  0  0  0  0  0  0  0  0  0  0
  142.9723  136.0322  152.6077 C   0  0  0  0  0  0  0  0  0  0  0  0
  142.3890  137.0022  153.0933 O   0  0  0  0  0  0  0  0  0  0  0  0
  147.1606  141.4177  153.2664 C   0  0  0  0  0  0  0  0  0  0  0  0
  146.5272  144.0574  153.7238 H   0  0  0  0  0  0  0  0  0  0  0  0
  144.7757  143.8191  153.6768 H   0  0  0  0  0  0  0  0  0  0  0  0
  145.7452  143.4851  152.2446 H   0  0  0  0  0  0  0  0  0  0  0  0
  146.5779  142.4304  155.7396 H   0  0  0  0  0  0  0  0  0  0  0  0
  144.8364  142.3060  155.5819 H   0  0  0  0  0  0  0  0  0  0  0  0
  145.8099  140.3085  156.7493 H   0  0  0  0  0  0  0  0  0  0  0  0
  144.9495  139.8753  155.2954 H   0  0  0  0  0  0  0  0  0  0  0  0
  147.9800  140.1236  155.6121 H   0  0  0  0  0  0  0  0  0  0  0  0
  147.0921  138.6419  155.3618 H   0  0  0  0  0  0  0  0  0  0  0  0
  148.1960  139.5180  153.2755 H   0  0  0  0  0  0  0  0  0  0  0  0
  145.6305  139.6646  152.2275 H   0  0  0  0  0  0  0  0  0  0  0  0
  144.5814  138.1419  151.6021 H   0  0  0  0  0  0  0  0  0  0  0  0
  146.0226  135.1854  151.2535 H   0  0  0  0  0  0  0  0  0  0  0  0
  142.5435  132.8216  151.9573 H   0  0  0  0  0  0  0  0  0  0  0  0
  147.2310  141.5722  152.1889 H   0  0  0  0  0  0  0  0  0  0  0  0
  148.0148  141.9349  153.7064 H   0  0  0  0  0  0  0  0  0  0  0  0
  145.1458  141.4964  153.3641 H   0  0  0  0  0  0  0  0  0  0  0  0
  1  2  1  0  0  0  0
  1 23  1  0  0  0  0
  1 24  1  0  0  0  0
  1 25  1  0  0  0  0
  2 22  1  0  0  0  0
  2  3  1  0  0  0  0
  2 39  1  0  0  0  0
  3  4  1  0  0  0  0
  3 26  1  0  0  0  0
  3 27  1  0  0  0  0
  4  5  1  0  0  0  0
  4 28  1  0  0  0  0
  4 29  1  0  0  0  0
  5  6  1  0  0  0  0
  5 30  1  0  0  0  0
  5 31  1  0  0  0  0
  6  7  1  0  0  0  0
  6 22  1  0  0  0  0
  6 32  1  0  0  0  0
  7  8  1  0  0  0  0
  7 33  1  0  0  0  0
  8  9  2  0  0  0  0
  8 10  1  0  0  0  0
 10 11  1  0  0  0  0
 10 34  1  0  0  0  0
 11 20  1  0  0  0  0
 11 12  2  0  0  0  0
 12 13  1  0  0  0  0
 12 35  1  0  0  0  0
 13 14  1  0  0  0  0
 13 18  2  0  0  0  0
 14 15  1  0  0  0  0
 14 16  1  0  0  0  0
 14 17  1  0  0  0  0
 18 19  1  0  0  0  0
 18 36  1  0  0  0  0
 19 20  1  0  0  0  0
 20 21  2  0  0  0  0
 22 37  1  0  0  0  0
 22 38  1  0  0  0  0
M  CHG  1   2   1
M  CHG  1  19  -1
M  END
> <s_m_source_file>
AV-unprocessed.smi

> <i_m_source_file_index>
1748

> <i_lp_mmshare_version>
43012

> <i_f3d_flags>
0

> <s_epik_input>
W0NIM11OMVtDSDJdW0NIMl1bQ0gyXVtDQEhdKFtDSDJdMSlbTkhdQyg9TylbTkhdYzJbY0hdYyhDKEYpKEYpRilbY0hdW25IXWMyPU8=

> <s_epik_cmdline>
J2VwaWtfcHl0aG9uJywgJy1waCcsICc3LjAnLCAnLXRuJywgJzgnLCAnLW1hJywgJzIwMCcsICctbWV0YWxfYmluZGluZycsICctaW1hZScsICc8aW5maWxlLm1hZT4nLCAnLW9tYWUnLCAnPG91dGZpbGUubWFlPic=

> <r_lp_tautomer_probability>
1

> <r_epik_Ionization_Penalty>
3.00907

> <r_epik_Ionization_Penalty_Charging>
0.148702

> <r_epik_Ionization_Penalty_Neutral>
2.86036

> <r_epik_State_Penalty>
2.85557

> <r_epik_Charging_Adjusted_Penalty>
3.00428

> <i_epik_Tot_Q>
0

> <i_epik_Tot_abs_Q>
2

> <r_epik_Metal_State_Penalty>
0.443779

> <b_epik_Metal_Only>
1

> <s_lp_Force_Field>
OPLS_2005

> <r_lp_Energy>
32.6678

> <b_lp_Chiralities_Consistent>
1

> <s_lp_Variant>
AV-unprocessed.smi:1748-6

> <Gold.Version>
5.8.1

> <Gold.Id.Protein>
6NUR|6NUR_protein|mol2

> <Gold.PLP.Fitness>
45.7953

> <Gold.PLP.PLP>
-36.4977

> <Gold.PLP.part.hbond>
-3.3481

> <Gold.PLP.part.metal>
0.0000

> <Gold.PLP.part.buried>
-8.0571

> <Gold.PLP.part.nonpolar>
-27.3769

> <Gold.PLP.part.repulsive>
0.5281

> <Gold.PLP.ligand.clash>
0.0000

> <Gold.PLP.ligand.torsion>
0.7754

> <Gold.PLP.Chemscore.Hbond>
3.5976

> <Gold.PLP.Chemscore.CHOScore>
0.0000

> <Gold.PLP.Chemscore.Metal>
0.0000

> <Gold.Chemscore.Hbonds>
donor molecule, donor type, donor heavy atom, donor atom, acceptor molecule, acceptor atom, score
      L1  H     2    39       P1 10175  1.30
      L1  H     7    33       P1 10175  0.46
      L1  H    10    34       P1 10171  1.00

> <Gold.PLP.Chemscore.Internal.Correction>
0.0556

> <Gold.Rescore>
     Score         DG    S(hbond)    S(metal)    S(lipo)     H(rot)  DE(clash)    DE(int)     intcor
     14.06     -14.95       1.59        0.00      57.31       1.00       0.19       0.70       ----

> <Gold.Chemscore.Fitness>
14.0577

> <Gold.Chemscore.DG>
-14.9464

> <Gold.Chemscore.ZeroCoef>
-5.4800

> <Gold.Chemscore.Hbond>
1.5931

> <Gold.Chemscore.Metal>
0.0000

> <Gold.Chemscore.Lipo>
57.3112

> <Gold.Chemscore.Internal_Hbond>
0.0000

> <Gold.Chemscore.DEClash>
0.1935

> <Gold.Chemscore.DEInternal>
0.6952

> <Gold.Chemscore.Rot>
1.0000

> <Gold.Chemscore.Internal.Correction>
   9.000000E+99

> <Gold.Chemscore.Hbonds>
donor molecule, donor type, donor heavy atom, donor atom, acceptor molecule, acceptor atom, score
      L1  H     2    39       P1 10175  0.06
      L1  H     7    33       P1 10175  0.44
      L1  H    10    34       P1 10171  0.93

> <Gold.Chemscore.Hbond.Weighted>
-5.3210

> <Gold.Chemscore.Metal.Weighted>
-0.0000

> <Gold.Chemscore.Lipo.Weighted>
-6.7054

> <Gold.Chemscore.Internal_Hbond.Weighted>
0.0000

> <Gold.Chemscore.DEClash.Weighted>
0.1935

> <Gold.Chemscore.DEInternal.Weighted>
0.6952

> <Gold.Chemscore.Rot.Weighted>
2.5600

> <Gold.Chemscore.Internal.Correction.Weighted>
   9.000000E+99

> <Gold.Protein.RotatedTorsions>
[ 6907 6896 6895 6894 ] final -177.24 input  -60.11 | X-H torsion
[ 7974 7965 7964 7962 ] final   -3.63 input  175.53 | X-H torsion
[ 8008 7997 7996 7995 ] final   35.72 input   59.86 | X-H torsion
[ 10167 10162 10161 10158 ] final  100.11 input  -65.29 | X-H torsion
[ 10718 10713 10712 10709 ] final   82.59 input   66.30 | X-H torsion
[ 10763 10752 10751 10750 ] final  -81.50 input  -60.55 | X-H torsion
[ 11005 11000 10999 10996 ] final  -17.07 input  -57.11 | X-H torsion

> <Gold.Protein.ActiveResidues>
 VAL166  LYS551  ARG553  GLY616  TRP617  ASP618  TYR619  PRO620  LYS621  CYS622 
 ASP623  PHE694  ASN695  SER759  ASP760  ASP761  ALA762  ILE779  LEU786  VAL792 
 PHE793  MET794  SER795  GLU796  ALA797  LYS798  CYS799  TRP800  GLU811  SER814 

> <Gold.Protein.RotatedAtoms>
  151.6178  133.3341  159.3081 H   0  0  0  0  0  0  0  0  0  0  0  0  # atno 6907 bound_to 6896
  150.8122  134.7287  159.6710 H   0  0  0  0  0  0  0  0  0  0  0  0  # atno 6908 bound_to 6896
  152.4219  134.5945  160.0035 H   0  0  0  0  0  0  0  0  0  0  0  0  # atno 6909 bound_to 6896
  146.2386  140.1749  142.8332 H   0  0  0  0  0  0  0  0  0  0  0  0  # atno 7974 bound_to 7965
  155.1757  140.3295  155.4384 H   0  0  0  0  0  0  0  0  0  0  0  0  # atno 8008 bound_to 7997
  156.2494  140.1936  156.6808 H   0  0  0  0  0  0  0  0  0  0  0  0  # atno 8009 bound_to 7997
  154.6307  140.0583  156.9714 H   0  0  0  0  0  0  0  0  0  0  0  0  # atno 8010 bound_to 7997
  139.7556  144.6970  151.0367 H   0  0  0  0  0  0  0  0  0  0  0  0  # atno 10167 bound_to 10162
  157.6860  131.0054  150.2397 H   0  0  0  0  0  0  0  0  0  0  0  0  # atno 10718 bound_to 10713
  154.5643  135.5624  153.7036 H   0  0  0  0  0  0  0  0  0  0  0  0  # atno 10763 bound_to 10752
  153.0028  135.6281  154.2202 H   0  0  0  0  0  0  0  0  0  0  0  0  # atno 10764 bound_to 10752
  154.2140  135.2872  155.2928 H   0  0  0  0  0  0  0  0  0  0  0  0  # atno 10765 bound_to 10752
  140.8131  133.8125  155.9583 H   0  0  0  0  0  0  0  0  0  0  0  0  # atno 11005 bound_to 11000
  144.9981  140.8607  143.5298 LP  0  0  0  0  0  0  0  0  0  0  0  0  # atno 17320 bound_to 7965
  145.1765  139.2375  143.5315 LP  0  0  0  0  0  0  0  0  0  0  0  0  # atno 17321 bound_to 7965
  140.7802  143.4757  151.0086 LP  0  0  0  0  0  0  0  0  0  0  0  0  # atno 17342 bound_to 10162
  139.8444  143.7521  152.3179 LP  0  0  0  0  0  0  0  0  0  0  0  0  # atno 17343 bound_to 10162
  156.3013  130.3759  149.7747 LP  0  0  0  0  0  0  0  0  0  0  0  0  # atno 17370 bound_to 10713
  156.5376  130.8285  151.3258 LP  0  0  0  0  0  0  0  0  0  0  0  0  # atno 17371 bound_to 10713
  140.9177  134.2181  157.4946 LP  0  0  0  0  0  0  0  0  0  0  0  0  # atno 17394 bound_to 11000
  139.8713  134.9778  156.4974 LP  0  0  0  0  0  0  0  0  0  0  0  0  # atno 17395 bound_to 11000

$$$$
