AV-unprocessed.smi:2451|AV-procd|sdf|9677|dock4
  -GOLD-   2272013313D 1   1.00000     0.00000
 Structure written by MMmdl.
 37 38  0  0  0  0  0  0  0  0  2 V2000
  154.1729  141.7422  160.2503 C   0  0  0  0  0  0  0  0  0  0  0  0
  153.1573  142.0936  159.1474 C   0  0  2  0  0  0  0  0  0  0  0  0
  152.7878  143.5946  159.2578 C   0  0  0  0  0  0  0  0  0  0  0  0
  151.7536  143.9836  158.1838 C   0  0  0  0  0  0  0  0  0  0  0  0
  150.4988  143.0765  158.2075 C   0  0  0  0  0  0  0  0  0  0  0  0
  150.8178  141.5665  158.0982 C   0  0  1  0  0  0  0  0  0  0  0  0
  151.3005  141.2672  156.7550 N   0  5  0  0  0  0  0  0  0  0  0  0
  150.4378  140.3041  155.7761 S   0  0  0  0  0  0  0  0  0  0  0  0
  151.2741  139.5651  154.8156 O   0  0  0  0  0  0  0  0  0  0  0  0
  149.4248  139.5344  156.5160 O   0  0  0  0  0  0  0  0  0  0  0  0
  149.5044  141.5609  154.7961 C   0  0  0  0  0  0  0  0  0  0  0  0
  148.0245  141.4229  155.0328 C   0  0  0  0  0  0  0  0  0  0  0  0
  146.9852  141.2754  154.0719 C   0  0  0  0  0  0  0  0  0  0  0  0
  145.8553  141.1936  154.8328 C   0  0  0  0  0  0  0  0  0  0  0  0
  146.1617  141.2941  156.1508 O   0  0  0  0  0  0  0  0  0  0  0  0
  147.5481  141.4450  156.2684 N   0  0  0  0  0  0  0  0  0  0  0  0
  151.8858  141.1745  159.1728 C   0  0  1  0  0  0  0  0  0  0  0  0
  152.2232  139.6620  159.1528 C   0  0  0  0  0  0  0  0  0  0  0  0
  153.7099  141.7652  161.2373 H   0  0  0  0  0  0  0  0  0  0  0  0
  155.0036  142.4484  160.2566 H   0  0  0  0  0  0  0  0  0  0  0  0
  154.6048  140.7531  160.1016 H   0  0  0  0  0  0  0  0  0  0  0  0
  153.6744  141.9505  158.1959 H   0  0  0  0  0  0  0  0  0  0  0  0
  152.3776  143.8022  160.2472 H   0  0  0  0  0  0  0  0  0  0  0  0
  153.6780  144.2153  159.1532 H   0  0  0  0  0  0  0  0  0  0  0  0
  151.4514  145.0203  158.3336 H   0  0  0  0  0  0  0  0  0  0  0  0
  152.2238  143.9537  157.1989 H   0  0  0  0  0  0  0  0  0  0  0  0
  149.9644  143.2511  159.1420 H   0  0  0  0  0  0  0  0  0  0  0  0
  149.8111  143.3735  157.4146 H   0  0  0  0  0  0  0  0  0  0  0  0
  149.8997  141.0197  158.3175 H   0  0  0  0  0  0  0  0  0  0  0  0
  149.8552  142.5453  155.1060 H   0  0  0  0  0  0  0  0  0  0  0  0
  149.7567  141.4410  153.7429 H   0  0  0  0  0  0  0  0  0  0  0  0
  147.0616  141.2248  152.9958 H   0  0  0  0  0  0  0  0  0  0  0  0
  144.8088  141.0712  154.5964 H   0  0  0  0  0  0  0  0  0  0  0  0
  151.4069  141.3502  160.1372 H   0  0  0  0  0  0  0  0  0  0  0  0
  152.8093  139.3840  158.2754 H   0  0  0  0  0  0  0  0  0  0  0  0
  151.3288  139.0355  159.1667 H   0  0  0  0  0  0  0  0  0  0  0  0
  152.7997  139.3728  160.0304 H   0  0  0  0  0  0  0  0  0  0  0  0
  1  2  1  0  0  0  0
  1 19  1  0  0  0  0
  1 20  1  0  0  0  0
  1 21  1  0  0  0  0
  2 17  1  0  0  0  0
  2  3  1  0  0  0  0
  2 22  1  0  0  0  0
  3  4  1  0  0  0  0
  3 23  1  0  0  0  0
  3 24  1  0  0  0  0
  4  5  1  0  0  0  0
  4 25  1  0  0  0  0
  4 26  1  0  0  0  0
  5  6  1  0  0  0  0
  5 27  1  0  0  0  0
  5 28  1  0  0  0  0
  6  7  1  0  0  0  0
  6 17  1  0  0  0  0
  6 29  1  0  0  0  0
  7  8  1  0  0  0  0
  8  9  2  0  0  0  0
  8 10  2  0  0  0  0
  8 11  1  0  0  0  0
 11 12  1  0  0  0  0
 11 30  1  0  0  0  0
 11 31  1  0  0  0  0
 12 16  2  0  0  0  0
 12 13  1  0  0  0  0
 13 14  2  0  0  0  0
 13 32  1  0  0  0  0
 14 15  1  0  0  0  0
 14 33  1  0  0  0  0
 15 16  1  0  0  0  0
 17 18  1  0  0  0  0
 17 34  1  0  0  0  0
 18 35  1  0  0  0  0
 18 36  1  0  0  0  0
 18 37  1  0  0  0  0
M  CHG  1   7  -1
M  END
> <s_m_source_file>
AV-unprocessed.smi

> <i_m_source_file_index>
2451

> <i_lp_mmshare_version>
43012

> <i_f3d_flags>
0

> <s_epik_input>
W0NIM11bQ0BASF0xW0NIMl1bQ0gyXVtDSDJdW0NASF0oW0NASF0xW0NIM10pW05IXVMoPU8pKD1PKVtDSDJdYzJbY0hdW2NIXW9uMg==

> <s_epik_cmdline>
J2VwaWtfcHl0aG9uJywgJy1waCcsICc3LjAnLCAnLXRuJywgJzgnLCAnLW1hJywgJzIwMCcsICctbWV0YWxfYmluZGluZycsICctaW1hZScsICc8aW5maWxlLm1hZT4nLCAnLW9tYWUnLCAnPG91dGZpbGUubWFlPic=

> <r_lp_tautomer_probability>
1

> <r_epik_Ionization_Penalty>
5.22693

> <r_epik_Ionization_Penalty_Charging>
5.22693

> <r_epik_Ionization_Penalty_Neutral>
2.67702e-10

> <r_epik_State_Penalty>
5.22685

> <r_epik_Charging_Adjusted_Penalty>
10.4538

> <i_epik_Tot_Q>
-1

> <i_epik_Tot_abs_Q>
1

> <r_epik_Metal_State_Penalty>
1.28716

> <b_epik_Metal_Only>
1

> <s_lp_Force_Field>
OPLS_2005

> <r_lp_Energy>
15.2767

> <b_lp_Chiralities_Consistent>
1

> <s_lp_Variant>
AV-unprocessed.smi:2451-9

> <Gold.Version>
5.8.1

> <Gold.Id.Protein>
6NUR|6NUR_protein|mol2

> <Gold.PLP.Fitness>
40.8242

> <Gold.PLP.PLP>
-34.9661

> <Gold.PLP.part.hbond>
-1.0000

> <Gold.PLP.part.metal>
0.0000

> <Gold.PLP.part.buried>
-2.2396

> <Gold.PLP.part.nonpolar>
-31.4102

> <Gold.PLP.part.repulsive>
0.3030

> <Gold.PLP.ligand.clash>
0.0000

> <Gold.PLP.ligand.torsion>
0.5666

> <Gold.PLP.Chemscore.Hbond>
1.0000

> <Gold.PLP.Chemscore.CHOScore>
1.0000

> <Gold.PLP.Chemscore.Metal>
0.0000

> <Gold.Chemscore.Hbonds>
donor molecule, donor type, donor heavy atom, donor atom, acceptor molecule, acceptor atom, score
      P1  H  7989  7998       L1     9  1.00
      L1  C    14    33       P1 10175  1.00

> <Gold.PLP.Chemscore.Internal.Correction>
0.9914

> <Gold.Rescore>
     Score         DG    S(hbond)    S(metal)    S(lipo)     H(rot)  DE(clash)    DE(int)     intcor
     15.16     -15.97       0.94        0.00      93.47       1.40       0.03       0.78       ----

> <Gold.Chemscore.Fitness>
15.1613

> <Gold.Chemscore.DG>
-15.9696

> <Gold.Chemscore.ZeroCoef>
-5.4800

> <Gold.Chemscore.Hbond>
0.9385

> <Gold.Chemscore.Metal>
0.0000

> <Gold.Chemscore.Lipo>
93.4661

> <Gold.Chemscore.Internal_Hbond>
0.0000

> <Gold.Chemscore.DEClash>
0.0298

> <Gold.Chemscore.DEInternal>
0.7785

> <Gold.Chemscore.Rot>
1.3986

> <Gold.Chemscore.Internal.Correction>
   9.000000E+99

> <Gold.Chemscore.Hbonds>
donor molecule, donor type, donor heavy atom, donor atom, acceptor molecule, acceptor atom, score
      P1  H  7989  7998       L1     9  0.40

> <Gold.Chemscore.Hbond.Weighted>
-3.1345

> <Gold.Chemscore.Metal.Weighted>
-0.0000

> <Gold.Chemscore.Lipo.Weighted>
-10.9355

> <Gold.Chemscore.Internal_Hbond.Weighted>
0.0000

> <Gold.Chemscore.DEClash.Weighted>
0.0298

> <Gold.Chemscore.DEInternal.Weighted>
0.7785

> <Gold.Chemscore.Rot.Weighted>
3.5804

> <Gold.Chemscore.Internal.Correction.Weighted>
   9.000000E+99

> <Gold.Protein.RotatedTorsions>
[ 6907 6896 6895 6894 ] final -108.59 input  -60.11 | X-H torsion
[ 7974 7965 7964 7962 ] final -154.94 input  175.53 | X-H torsion
[ 8008 7997 7996 7995 ] final  160.51 input   59.86 | X-H torsion
[ 10167 10162 10161 10158 ] final   93.07 input  -65.29 | X-H torsion
[ 10718 10713 10712 10709 ] final  -49.72 input   66.30 | X-H torsion
[ 10763 10752 10751 10750 ] final -132.09 input  -60.55 | X-H torsion
[ 11005 11000 10999 10996 ] final  125.37 input  -57.11 | X-H torsion

> <Gold.Protein.ActiveResidues>
 VAL166  LYS551  ARG553  GLY616  TRP617  ASP618  TYR619  PRO620  LYS621  CYS622 
 ASP623  PHE694  ASN695  SER759  ASP760  ASP761  ALA762  ILE779  LEU786  VAL792 
 PHE793  MET794  SER795  GLU796  ALA797  LYS798  CYS799  TRP800  GLU811  SER814 

> <Gold.Protein.RotatedAtoms>
  150.7511  133.9655  159.3528 H   0  0  0  0  0  0  0  0  0  0  0  0  # atno 6907 bound_to 6896
  151.7584  135.0814  160.0351 H   0  0  0  0  0  0  0  0  0  0  0  0  # atno 6908 bound_to 6896
  152.3419  133.6040  159.5919 H   0  0  0  0  0  0  0  0  0  0  0  0  # atno 6909 bound_to 6896
  144.7664  140.4319  143.5938 H   0  0  0  0  0  0  0  0  0  0  0  0  # atno 7974 bound_to 7965
  156.2167  140.1802  156.7573 H   0  0  0  0  0  0  0  0  0  0  0  0  # atno 8008 bound_to 7997
  154.5802  140.0667  156.9122 H   0  0  0  0  0  0  0  0  0  0  0  0  # atno 8009 bound_to 7997
  155.2516  140.3329  155.4284 H   0  0  0  0  0  0  0  0  0  0  0  0  # atno 8010 bound_to 7997
  139.8215  144.6729  150.9512 H   0  0  0  0  0  0  0  0  0  0  0  0  # atno 10167 bound_to 10162
  156.1867  130.4151  149.9430 H   0  0  0  0  0  0  0  0  0  0  0  0  # atno 10718 bound_to 10713
  154.8746  135.3809  154.4353 H   0  0  0  0  0  0  0  0  0  0  0  0  # atno 10763 bound_to 10752
  153.5043  135.7030  153.5820 H   0  0  0  0  0  0  0  0  0  0  0  0  # atno 10764 bound_to 10752
  153.4138  135.3918  155.2034 H   0  0  0  0  0  0  0  0  0  0  0  0  # atno 10765 bound_to 10752
  139.9403  134.9636  156.8548 H   0  0  0  0  0  0  0  0  0  0  0  0  # atno 11005 bound_to 11000
  145.6456  139.1556  143.2891 LP  0  0  0  0  0  0  0  0  0  0  0  0  # atno 17320 bound_to 7965
  146.1776  140.6549  142.9204 LP  0  0  0  0  0  0  0  0  0  0  0  0  # atno 17321 bound_to 7965
  140.7813  143.4087  151.1029 LP  0  0  0  0  0  0  0  0  0  0  0  0  # atno 17342 bound_to 10162
  139.7747  143.8443  152.3127 LP  0  0  0  0  0  0  0  0  0  0  0  0  # atno 17343 bound_to 10162
  156.7183  130.8997  151.3616 LP  0  0  0  0  0  0  0  0  0  0  0  0  # atno 17370 bound_to 10713
  157.6903  130.9227  150.0496 LP  0  0  0  0  0  0  0  0  0  0  0  0  # atno 17371 bound_to 10713
  140.5968  134.0209  155.7521 LP  0  0  0  0  0  0  0  0  0  0  0  0  # atno 17394 bound_to 11000
  141.1035  133.9731  157.3038 LP  0  0  0  0  0  0  0  0  0  0  0  0  # atno 17395 bound_to 11000

$$$$
