AV-unprocessed.smi:3320|AV-procd|sdf|12768|dock1
  -GOLD-   2272019103D 1   1.00000     0.00000
 Structure written by MMmdl.
 37 38  0  0  0  0  0  0  0  0  1 V2000
  153.6651  142.2926  162.8294 C   0  0  0  0  0  0  0  0  0  0  0  0
  153.3120  141.6404  161.4849 C   0  0  0  0  0  0  0  0  0  0  0  0
  154.5255  141.0136  160.7833 C   0  0  0  0  0  0  0  0  0  0  0  0
  152.5618  142.5730  160.5866 C   0  0  0  0  0  0  0  0  0  0  0  0
  152.0938  142.2276  159.3833 N   0  0  0  0  0  0  0  0  0  0  0  0
  151.4300  143.2757  158.7388 C   0  0  0  0  0  0  0  0  0  0  0  0
  150.8506  143.0634  157.3734 C   0  0  0  0  0  0  0  0  0  0  0  0
  149.8254  141.9177  157.3522 C   0  0  0  0  0  0  0  0  0  0  0  0
  150.4427  140.6483  156.9856 N   0  0  0  0  0  0  0  0  0  0  0  0
  150.6480  140.2270  155.7287 C   0  0  0  0  0  0  0  0  0  0  0  0
  150.3319  140.8857  154.7370 O   0  0  0  0  0  0  0  0  0  0  0  0
  151.3139  138.8527  155.5794 C   0  0  0  0  0  0  0  0  0  0  0  0
  152.6798  138.8741  154.8701 C   0  0  0  0  0  0  0  0  0  0  0  0
  152.2338  137.6517  154.0624 C   0  0  0  0  0  0  0  0  0  0  0  0
  150.7849  138.0125  154.4035 C   0  0  0  0  0  0  0  0  0  0  0  0
  151.3982  144.4313  159.4784 C   0  0  0  0  0  0  0  0  0  0  0  0
  152.2042  144.2437  161.0115 S   0  0  0  0  0  0  0  0  0  0  0  0
  152.7703  142.6534  163.3376 H   0  0  0  0  0  0  0  0  0  0  0  0
  154.3366  143.1411  162.6942 H   0  0  0  0  0  0  0  0  0  0  0  0
  154.1581  141.5820  163.4931 H   0  0  0  0  0  0  0  0  0  0  0  0
  152.6306  140.8193  161.7115 H   0  0  0  0  0  0  0  0  0  0  0  0
  154.2261  140.4909  159.8744 H   0  0  0  0  0  0  0  0  0  0  0  0
  155.0236  140.2914  161.4307 H   0  0  0  0  0  0  0  0  0  0  0  0
  155.2587  141.7716  160.5061 H   0  0  0  0  0  0  0  0  0  0  0  0
  150.3814  143.9853  157.0275 H   0  0  0  0  0  0  0  0  0  0  0  0
  151.6479  142.8495  156.6606 H   0  0  0  0  0  0  0  0  0  0  0  0
  149.3780  141.8034  158.3399 H   0  0  0  0  0  0  0  0  0  0  0  0
  149.0078  142.1469  156.6664 H   0  0  0  0  0  0  0  0  0  0  0  0
  150.7314  140.0449  157.7419 H   0  0  0  0  0  0  0  0  0  0  0  0
  151.3458  138.2802  156.5086 H   0  0  0  0  0  0  0  0  0  0  0  0
  152.8499  139.7522  154.2443 H   0  0  0  0  0  0  0  0  0  0  0  0
  153.5298  138.6851  155.5264 H   0  0  0  0  0  0  0  0  0  0  0  0
  152.4756  137.6949  153.0000 H   0  0  0  0  0  0  0  0  0  0  0  0
  152.5508  136.7098  154.5130 H   0  0  0  0  0  0  0  0  0  0  0  0
  150.1740  137.1594  154.7003 H   0  0  0  0  0  0  0  0  0  0  0  0
  150.2994  138.5943  153.6176 H   0  0  0  0  0  0  0  0  0  0  0  0
  150.9528  145.3791  159.2148 H   0  0  0  0  0  0  0  0  0  0  0  0
  1  2  1  0  0  0  0
  1 18  1  0  0  0  0
  1 19  1  0  0  0  0
  1 20  1  0  0  0  0
  2  3  1  0  0  0  0
  2  4  1  0  0  0  0
  2 21  1  0  0  0  0
  3 22  1  0  0  0  0
  3 23  1  0  0  0  0
  3 24  1  0  0  0  0
  4 17  1  0  0  0  0
  4  5  2  0  0  0  0
  5  6  1  0  0  0  0
  6  7  1  0  0  0  0
  6 16  2  0  0  0  0
  7  8  1  0  0  0  0
  7 25  1  0  0  0  0
  7 26  1  0  0  0  0
  8  9  1  0  0  0  0
  8 27  1  0  0  0  0
  8 28  1  0  0  0  0
  9 10  1  0  0  0  0
  9 29  1  0  0  0  0
 10 11  2  0  0  0  0
 10 12  1  0  0  0  0
 12 15  1  0  0  0  0
 12 13  1  0  0  0  0
 12 30  1  0  0  0  0
 13 14  1  0  0  0  0
 13 31  1  0  0  0  0
 13 32  1  0  0  0  0
 14 15  1  0  0  0  0
 14 33  1  0  0  0  0
 14 34  1  0  0  0  0
 15 35  1  0  0  0  0
 15 36  1  0  0  0  0
 16 17  1  0  0  0  0
 16 37  1  0  0  0  0
M  END
> <s_m_source_file>
AV-unprocessed.smi

> <i_m_source_file_index>
3320

> <i_lp_mmshare_version>
43012

> <i_f3d_flags>
0

> <s_epik_input>
W0NIM11bQ0hdKFtDSDNdKWMxbmMoW2NIXXMxKVtDSDJdW0NIMl1bTkhdQyg9TylbQ0hdMltDSDJdW0NIMl1bQ0gyXTI=

> <s_epik_cmdline>
J2VwaWtfcHl0aG9uJywgJy1waCcsICc3LjAnLCAnLXRuJywgJzgnLCAnLW1hJywgJzIwMCcsICctbWV0YWxfYmluZGluZycsICctaW1hZScsICc8aW5maWxlLm1hZT4nLCAnLW9tYWUnLCAnPG91dGZpbGUubWFlPic=

> <r_epik_Ionization_Penalty>
0.000842111

> <r_epik_Ionization_Penalty_Charging>
0

> <r_epik_Ionization_Penalty_Neutral>
0.000842111

> <r_epik_State_Penalty>
0.000542609

> <r_epik_Charging_Adjusted_Penalty>
0.000542609

> <i_epik_Tot_Q>
0

> <i_epik_Tot_abs_Q>
0

> <r_epik_Metal_State_Penalty>
-0

> <b_epik_Metal_Only>
0

> <s_lp_Force_Field>
OPLS_2005

> <r_lp_Energy>
-0.445202

> <b_lp_Chiralities_Consistent>
1

> <s_lp_Variant>
AV-unprocessed.smi:3320-1

> <Gold.Version>
5.8.1

> <Gold.Id.Protein>
6NUR|6NUR_protein|mol2

> <Gold.PLP.Fitness>
41.3013

> <Gold.PLP.PLP>
-39.9930

> <Gold.PLP.part.hbond>
-1.0000

> <Gold.PLP.part.metal>
0.0000

> <Gold.PLP.part.buried>
-0.0235

> <Gold.PLP.part.nonpolar>
-38.5780

> <Gold.PLP.part.repulsive>
0.1404

> <Gold.PLP.ligand.clash>
0.0000

> <Gold.PLP.ligand.torsion>
0.7676

> <Gold.PLP.Chemscore.Hbond>
0.7840

> <Gold.PLP.Chemscore.CHOScore>
0.0000

> <Gold.PLP.Chemscore.Metal>
0.0000

> <Gold.Chemscore.Hbonds>
donor molecule, donor type, donor heavy atom, donor atom, acceptor molecule, acceptor atom, score
      P1  H  7989  7998       L1    11  0.75

> <Gold.PLP.Chemscore.Internal.Correction>
0.4914

> <Gold.Rescore>
     Score         DG    S(hbond)    S(metal)    S(lipo)     H(rot)  DE(clash)    DE(int)     intcor
     16.67     -18.05       0.71        0.00     119.55       1.49       0.58       0.79       ----

> <Gold.Chemscore.Fitness>
16.6703

> <Gold.Chemscore.DG>
-18.0483

> <Gold.Chemscore.ZeroCoef>
-5.4800

> <Gold.Chemscore.Hbond>
0.7149

> <Gold.Chemscore.Metal>
0.0000

> <Gold.Chemscore.Lipo>
119.5492

> <Gold.Chemscore.Internal_Hbond>
0.0000

> <Gold.Chemscore.DEClash>
0.5838

> <Gold.Chemscore.DEInternal>
0.7941

> <Gold.Chemscore.Rot>
1.4870

> <Gold.Chemscore.Internal.Correction>
   9.000000E+99

> <Gold.Chemscore.Hbonds>
donor molecule, donor type, donor heavy atom, donor atom, acceptor molecule, acceptor atom, score
      P1  H  7989  7998       L1    11  0.62

> <Gold.Chemscore.Hbond.Weighted>
-2.3877

> <Gold.Chemscore.Metal.Weighted>
-0.0000

> <Gold.Chemscore.Lipo.Weighted>
-13.9873

> <Gold.Chemscore.Internal_Hbond.Weighted>
0.0000

> <Gold.Chemscore.DEClash.Weighted>
0.5838

> <Gold.Chemscore.DEInternal.Weighted>
0.7941

> <Gold.Chemscore.Rot.Weighted>
3.8067

> <Gold.Chemscore.Internal.Correction.Weighted>
   9.000000E+99

> <Gold.Protein.RotatedTorsions>
[ 6907 6896 6895 6894 ] final  -94.02 input  -60.11 | X-H torsion
[ 7974 7965 7964 7962 ] final -100.43 input  175.53 | X-H torsion
[ 8008 7997 7996 7995 ] final   87.90 input   59.86 | X-H torsion
[ 10167 10162 10161 10158 ] final  146.63 input  -65.29 | X-H torsion
[ 10718 10713 10712 10709 ] final   73.35 input   66.30 | X-H torsion
[ 10763 10752 10751 10750 ] final   37.53 input  -60.55 | X-H torsion
[ 11005 11000 10999 10996 ] final -129.90 input  -57.11 | X-H torsion

> <Gold.Protein.ActiveResidues>
 VAL166  LYS551  ARG553  GLY616  TRP617  ASP618  TYR619  PRO620  LYS621  CYS622 
 ASP623  PHE694  ASN695  SER759  ASP760  ASP761  ALA762  ILE779  LEU786  VAL792 
 PHE793  MET794  SER795  GLU796  ALA797  LYS798  CYS799  TRP800  GLU811  SER814 

> <Gold.Protein.RotatedAtoms>
  150.6933  134.1877  159.4272 H   0  0  0  0  0  0  0  0  0  0  0  0  # atno 6907 bound_to 6896
  151.9849  135.0007  160.0568 H   0  0  0  0  0  0  0  0  0  0  0  0  # atno 6908 bound_to 6896
  152.1721  133.4615  159.4951 H   0  0  0  0  0  0  0  0  0  0  0  0  # atno 6909 bound_to 6896
  145.2947  140.9362  143.2858 H   0  0  0  0  0  0  0  0  0  0  0  0  # atno 7974 bound_to 7965
  155.9812  140.3377  155.6664 H   0  0  0  0  0  0  0  0  0  0  0  0  # atno 8008 bound_to 7997
  155.6546  140.0709  157.2593 H   0  0  0  0  0  0  0  0  0  0  0  0  # atno 8009 bound_to 7997
  154.4192  140.1719  156.1699 H   0  0  0  0  0  0  0  0  0  0  0  0  # atno 8010 bound_to 7997
  139.4904  144.5815  151.6862 H   0  0  0  0  0  0  0  0  0  0  0  0  # atno 10167 bound_to 10162
  157.6543  130.9624  150.1057 H   0  0  0  0  0  0  0  0  0  0  0  0  # atno 10718 bound_to 10713
  153.0034  135.6275  154.2160 H   0  0  0  0  0  0  0  0  0  0  0  0  # atno 10763 bound_to 10752
  154.1903  135.2809  155.3026 H   0  0  0  0  0  0  0  0  0  0  0  0  # atno 10764 bound_to 10752
  154.5765  135.5660  153.7203 H   0  0  0  0  0  0  0  0  0  0  0  0  # atno 10765 bound_to 10752
  140.9392  134.1216  157.4166 H   0  0  0  0  0  0  0  0  0  0  0  0  # atno 11005 bound_to 11000
  144.9143  139.4489  143.6572 LP  0  0  0  0  0  0  0  0  0  0  0  0  # atno 17320 bound_to 7965
  146.3173  139.7969  142.8973 LP  0  0  0  0  0  0  0  0  0  0  0  0  # atno 17321 bound_to 7965
  140.5422  144.0561  150.6093 LP  0  0  0  0  0  0  0  0  0  0  0  0  # atno 17342 bound_to 10162
  140.3587  143.2921  152.0408 LP  0  0  0  0  0  0  0  0  0  0  0  0  # atno 17343 bound_to 10162
  156.1967  130.3658  149.8840 LP  0  0  0  0  0  0  0  0  0  0  0  0  # atno 17370 bound_to 10713
  156.6754  130.8837  151.3568 LP  0  0  0  0  0  0  0  0  0  0  0  0  # atno 17371 bound_to 10713
  139.8816  135.0031  156.6166 LP  0  0  0  0  0  0  0  0  0  0  0  0  # atno 17394 bound_to 11000
  140.7757  133.8701  155.8527 LP  0  0  0  0  0  0  0  0  0  0  0  0  # atno 17395 bound_to 11000

$$$$
