AV-unprocessed.smi:1764|AV-procd|sdf|7133|dock9
  -GOLD-   22720 8373D 1   1.00000     0.00000
 Structure written by MMmdl.
 31 32  0  0  0  0  0  0  0  0  1 V2000
  144.5262  136.4408  152.6033 O   0  0  0  0  0  0  0  0  0  0  0  0
  145.7353  136.3737  152.3802 C   0  0  0  0  0  0  0  0  0  0  0  0
  146.5985  137.3555  152.6780 N   0  0  0  0  0  0  0  0  0  0  0  0
  146.2486  138.6316  153.2940 C   0  0  0  0  0  0  0  0  0  0  0  0
  147.3988  139.6477  153.1928 C   0  0  1  0  0  0  0  0  0  0  0  0
  147.1529  140.9812  153.8997 C   0  0  0  0  0  0  0  0  0  0  0  0
  148.5658  141.4582  154.1434 C   0  0  0  0  0  0  0  0  0  0  0  0
  149.2796  140.1545  154.4895 C   0  0  0  0  0  0  0  0  0  0  0  0
  148.5742  139.1224  153.8036 O   0  0  0  0  0  0  0  0  0  0  0  0
  146.3639  135.3313  151.8087 N   0  0  0  0  0  0  0  0  0  0  0  0
  145.8045  134.1020  151.3685 C   0  0  0  0  0  0  0  0  0  0  0  0
  144.4164  134.1366  151.1050 C   0  0  0  0  0  0  0  0  0  0  0  0
  143.7662  132.9693  150.6600 C   0  0  0  0  0  0  0  0  0  0  0  0
  144.5219  131.7959  150.4885 C   0  0  0  0  0  0  0  0  0  0  0  0
  145.8989  131.8466  150.7730 C   0  0  0  0  0  0  0  0  0  0  0  0
  146.5239  132.9641  151.2003 N   0  0  0  0  0  0  0  0  0  0  0  0
  147.5733  137.2138  152.4571 H   0  0  0  0  0  0  0  0  0  0  0  0
  145.3352  139.0429  152.8607 H   0  0  0  0  0  0  0  0  0  0  0  0
  146.0257  138.4413  154.3439 H   0  0  0  0  0  0  0  0  0  0  0  0
  147.6360  139.8373  152.1445 H   0  0  0  0  0  0  0  0  0  0  0  0
  146.5621  141.6785  153.3048 H   0  0  0  0  0  0  0  0  0  0  0  0
  146.6435  140.8250  154.8517 H   0  0  0  0  0  0  0  0  0  0  0  0
  148.9796  141.8833  153.2280 H   0  0  0  0  0  0  0  0  0  0  0  0
  148.6382  142.2070  154.9325 H   0  0  0  0  0  0  0  0  0  0  0  0
  150.3325  140.1724  154.2073 H   0  0  0  0  0  0  0  0  0  0  0  0
  149.2200  139.9602  155.5610 H   0  0  0  0  0  0  0  0  0  0  0  0
  147.3599  135.4262  151.6769 H   0  0  0  0  0  0  0  0  0  0  0  0
  143.8506  135.0468  151.2414 H   0  0  0  0  0  0  0  0  0  0  0  0
  142.7061  132.9755  150.4538 H   0  0  0  0  0  0  0  0  0  0  0  0
  144.0588  130.8816  150.1483 H   0  0  0  0  0  0  0  0  0  0  0  0
  146.5151  130.9679  150.6535 H   0  0  0  0  0  0  0  0  0  0  0  0
  1  2  2  0  0  0  0
  2  3  1  0  0  0  0
  2 10  1  0  0  0  0
  3  4  1  0  0  0  0
  3 17  1  0  0  0  0
  4  5  1  0  0  0  0
  4 18  1  0  0  0  0
  4 19  1  0  0  0  0
  5  9  1  0  0  0  0
  5  6  1  0  0  0  0
  5 20  1  0  0  0  0
  6  7  1  0  0  0  0
  6 21  1  0  0  0  0
  6 22  1  0  0  0  0
  7  8  1  0  0  0  0
  7 23  1  0  0  0  0
  7 24  1  0  0  0  0
  8  9  1  0  0  0  0
  8 25  1  0  0  0  0
  8 26  1  0  0  0  0
 10 11  1  0  0  0  0
 10 27  1  0  0  0  0
 11 16  1  0  0  0  0
 11 12  2  0  0  0  0
 12 13  1  0  0  0  0
 12 28  1  0  0  0  0
 13 14  2  0  0  0  0
 13 29  1  0  0  0  0
 14 15  1  0  0  0  0
 14 30  1  0  0  0  0
 15 16  2  0  0  0  0
 15 31  1  0  0  0  0
M  END
> <s_m_source_file>
AV-unprocessed.smi

> <i_m_source_file_index>
1764

> <i_lp_mmshare_version>
43012

> <i_f3d_flags>
0

> <s_epik_input>
bjFbY0hdW2NIXVtjSF1bY0hdYzFbTkhdQyg9TylbTkhdW0NIMl1bQ0BASF0yW0NIMl1bQ0gyXVtDSDJdTzI=

> <s_epik_cmdline>
J2VwaWtfcHl0aG9uJywgJy1waCcsICc3LjAnLCAnLXRuJywgJzgnLCAnLW1hJywgJzIwMCcsICctbWV0YWxfYmluZGluZycsICctaW1hZScsICc8aW5maWxlLm1hZT4nLCAnLW9tYWUnLCAnPG91dGZpbGUubWFlPic=

> <r_lp_tautomer_probability>
1

> <r_epik_Ionization_Penalty>
4.47751e-05

> <r_epik_Ionization_Penalty_Charging>
0

> <r_epik_Ionization_Penalty_Neutral>
4.47751e-05

> <r_epik_State_Penalty>
-0

> <r_epik_Charging_Adjusted_Penalty>
0

> <i_epik_Tot_Q>
0

> <i_epik_Tot_abs_Q>
0

> <r_epik_Metal_State_Penalty>
-0

> <b_epik_Metal_Only>
0

> <s_lp_Force_Field>
OPLS_2005

> <r_lp_Energy>
18.9713

> <b_lp_Chiralities_Consistent>
1

> <s_lp_Variant>
AV-unprocessed.smi:1764-2

> <Gold.Version>
5.8.1

> <Gold.Id.Protein>
6NUR|6NUR_protein|mol2

> <Gold.PLP.Fitness>
36.8260

> <Gold.PLP.PLP>
-28.2925

> <Gold.PLP.part.hbond>
-2.0000

> <Gold.PLP.part.metal>
0.0000

> <Gold.PLP.part.buried>
-2.8811

> <Gold.PLP.part.nonpolar>
-24.2486

> <Gold.PLP.part.repulsive>
1.5589

> <Gold.PLP.ligand.clash>
0.0000

> <Gold.PLP.ligand.torsion>
0.1878

> <Gold.PLP.Chemscore.Hbond>
2.0000

> <Gold.PLP.Chemscore.CHOScore>
0.9694

> <Gold.PLP.Chemscore.Metal>
0.0000

> <Gold.Chemscore.Hbonds>
donor molecule, donor type, donor heavy atom, donor atom, acceptor molecule, acceptor atom, score
      L1  H     3    17       P1  7948  1.00
      L1  H    10    27       P1  7948  1.00
      L1  C    15    31       P1 10747  0.97

> <Gold.PLP.Chemscore.Internal.Correction>
0.0009

> <Gold.Rescore>
     Score         DG    S(hbond)    S(metal)    S(lipo)     H(rot)  DE(clash)    DE(int)     intcor
     15.02     -16.66       1.95        0.00      67.63       1.27       0.02       1.63       ----

> <Gold.Chemscore.Fitness>
15.0192

> <Gold.Chemscore.DG>
-16.6648

> <Gold.Chemscore.ZeroCoef>
-5.4800

> <Gold.Chemscore.Hbond>
1.9513

> <Gold.Chemscore.Metal>
0.0000

> <Gold.Chemscore.Lipo>
67.6319

> <Gold.Chemscore.Internal_Hbond>
0.0000

> <Gold.Chemscore.DEClash>
0.0202

> <Gold.Chemscore.DEInternal>
1.6254

> <Gold.Chemscore.Rot>
1.2678

> <Gold.Chemscore.Internal.Correction>
   9.000000E+99

> <Gold.Chemscore.Hbonds>
donor molecule, donor type, donor heavy atom, donor atom, acceptor molecule, acceptor atom, score
      L1  H     3    17       P1  7948  0.97
      L1  H    10    27       P1  7948  0.97

> <Gold.Chemscore.Hbond.Weighted>
-6.5174

> <Gold.Chemscore.Metal.Weighted>
-0.0000

> <Gold.Chemscore.Lipo.Weighted>
-7.9129

> <Gold.Chemscore.Internal_Hbond.Weighted>
0.0000

> <Gold.Chemscore.DEClash.Weighted>
0.0202

> <Gold.Chemscore.DEInternal.Weighted>
1.6254

> <Gold.Chemscore.Rot.Weighted>
3.2455

> <Gold.Chemscore.Internal.Correction.Weighted>
   9.000000E+99

> <Gold.Protein.RotatedTorsions>
[ 6907 6896 6895 6894 ] final  170.56 input  -60.11 | X-H torsion
[ 7974 7965 7964 7962 ] final -172.78 input  175.53 | X-H torsion
[ 8008 7997 7996 7995 ] final   31.56 input   59.86 | X-H torsion
[ 10167 10162 10161 10158 ] final -102.22 input  -65.29 | X-H torsion
[ 10718 10713 10712 10709 ] final  -92.98 input   66.30 | X-H torsion
[ 10763 10752 10751 10750 ] final -107.67 input  -60.55 | X-H torsion
[ 11005 11000 10999 10996 ] final   67.94 input  -57.11 | X-H torsion

> <Gold.Protein.ActiveResidues>
 VAL166  LYS551  ARG553  GLY616  TRP617  ASP618  TYR619  PRO620  LYS621  CYS622 
 ASP623  PHE694  ASN695  SER759  ASP760  ASP761  ALA762  ILE779  LEU786  VAL792 
 PHE793  MET794  SER795  GLU796  ALA797  LYS798  CYS799  TRP800  GLU811  SER814 

> <Gold.Protein.RotatedAtoms>
  151.8142  133.3385  159.3564 H   0  0  0  0  0  0  0  0  0  0  0  0  # atno 6907 bound_to 6896
  150.7316  134.5635  159.5864 H   0  0  0  0  0  0  0  0  0  0  0  0  # atno 6908 bound_to 6896
  152.3053  134.7563  160.0400 H   0  0  0  0  0  0  0  0  0  0  0  0  # atno 6909 bound_to 6896
  144.7143  140.1720  143.6366 H   0  0  0  0  0  0  0  0  0  0  0  0  # atno 7974 bound_to 7965
  155.1084  140.3236  155.4528 H   0  0  0  0  0  0  0  0  0  0  0  0  # atno 8008 bound_to 7997
  156.2697  140.2048  156.6156 H   0  0  0  0  0  0  0  0  0  0  0  0  # atno 8009 bound_to 7997
  154.6775  140.0530  157.0218 H   0  0  0  0  0  0  0  0  0  0  0  0  # atno 8010 bound_to 7997
  140.2329  143.3593  152.0870 H   0  0  0  0  0  0  0  0  0  0  0  0  # atno 10167 bound_to 10162
  156.0008  130.5008  150.5707 H   0  0  0  0  0  0  0  0  0  0  0  0  # atno 10718 bound_to 10713
  154.8089  135.4666  154.0464 H   0  0  0  0  0  0  0  0  0  0  0  0  # atno 10763 bound_to 10752
  153.1911  135.6855  153.8358 H   0  0  0  0  0  0  0  0  0  0  0  0  # atno 10764 bound_to 10752
  153.7876  135.3248  155.3351 H   0  0  0  0  0  0  0  0  0  0  0  0  # atno 10765 bound_to 10752
  139.9740  134.6852  156.0389 H   0  0  0  0  0  0  0  0  0  0  0  0  # atno 11005 bound_to 11000
  145.8935  139.2389  143.1535 LP  0  0  0  0  0  0  0  0  0  0  0  0  # atno 17320 bound_to 7965
  145.9880  140.8626  143.0080 LP  0  0  0  0  0  0  0  0  0  0  0  0  # atno 17321 bound_to 7965
  139.5103  144.6883  151.5829 LP  0  0  0  0  0  0  0  0  0  0  0  0  # atno 17342 bound_to 10162
  140.6171  143.9328  150.6497 LP  0  0  0  0  0  0  0  0  0  0  0  0  # atno 17343 bound_to 10162
  157.3602  131.0748  151.1643 LP  0  0  0  0  0  0  0  0  0  0  0  0  # atno 17370 bound_to 10713
  157.2430  130.6578  149.5898 LP  0  0  0  0  0  0  0  0  0  0  0  0  # atno 17371 bound_to 10713
  141.1419  133.6563  156.3754 LP  0  0  0  0  0  0  0  0  0  0  0  0  # atno 17394 bound_to 11000
  140.5232  134.6284  157.5325 LP  0  0  0  0  0  0  0  0  0  0  0  0  # atno 17395 bound_to 11000

$$$$
