AV-unprocessed.smi:1774|AV-procd|sdf|7165|dock10
  -GOLD-   22720 8403D 1   1.00000     0.00000
 Structure written by MMmdl.
 45 46  0  0  0  0  0  0  0  0  1 V2000
  145.4203  135.3697  150.8983 C   0  0  0  0  0  0  0  0  0  0  0  0
  145.4091  133.8755  151.1780 C   0  0  0  0  0  0  0  0  0  0  0  0
  144.4453  133.0621  150.5451 C   0  0  0  0  0  0  0  0  0  0  0  0
  144.4364  131.6809  150.8036 C   0  0  0  0  0  0  0  0  0  0  0  0
  145.3986  131.1681  151.6903 C   0  0  0  0  0  0  0  0  0  0  0  0
  146.3229  131.9378  152.3001 N   0  0  0  0  0  0  0  0  0  0  0  0
  146.3449  133.2735  152.0616 C   0  0  0  0  0  0  0  0  0  0  0  0
  147.2937  134.1462  152.6657 N   0  0  0  0  0  0  0  0  0  0  0  0
  147.6474  134.2310  153.9603 C   0  0  0  0  0  0  0  0  0  0  0  0
  147.1596  133.5692  154.8771 O   0  0  0  0  0  0  0  0  0  0  0  0
  148.6187  135.1391  154.1366 N   0  0  0  0  0  0  0  0  0  0  0  0
  149.2752  135.4389  155.4056 C   0  0  0  0  0  0  0  0  0  0  0  0
  150.6250  136.1510  155.1879 C   0  0  0  0  0  0  0  0  0  0  0  0
  150.6292  137.5859  155.4697 N   0  0  0  0  0  0  0  0  0  0  0  0
  149.6947  138.3295  154.6311 C   0  0  0  0  0  0  0  0  0  0  0  0
  149.6795  139.8267  154.9866 C   0  0  2  0  0  0  0  0  0  0  0  0
  148.7650  140.6308  154.0573 C   0  0  0  0  0  0  0  0  0  0  0  0
  151.0009  140.3543  154.8772 O   0  0  0  0  0  0  0  0  0  0  0  0
  151.9967  139.6649  155.6355 C   0  0  1  0  0  0  0  0  0  0  0  0
  151.8805  139.9685  157.1393 C   0  0  0  0  0  0  0  0  0  0  0  0
  151.9615  138.1573  155.3147 C   0  0  0  0  0  0  0  0  0  0  0  0
  144.6367  135.6478  150.1930 H   0  0  0  0  0  0  0  0  0  0  0  0
  146.3772  135.6713  150.4713 H   0  0  0  0  0  0  0  0  0  0  0  0
  145.2583  135.9316  151.8185 H   0  0  0  0  0  0  0  0  0  0  0  0
  143.7197  133.4884  149.8679 H   0  0  0  0  0  0  0  0  0  0  0  0
  143.7118  131.0320  150.3347 H   0  0  0  0  0  0  0  0  0  0  0  0
  145.4282  130.1124  151.9163 H   0  0  0  0  0  0  0  0  0  0  0  0
  147.7752  134.7651  152.0307 H   0  0  0  0  0  0  0  0  0  0  0  0
  148.9547  135.6373  153.3255 H   0  0  0  0  0  0  0  0  0  0  0  0
  148.6135  136.1022  155.9626 H   0  0  0  0  0  0  0  0  0  0  0  0
  149.3804  134.5448  156.0206 H   0  0  0  0  0  0  0  0  0  0  0  0
  151.3621  135.6604  155.8253 H   0  0  0  0  0  0  0  0  0  0  0  0
  150.9606  135.9813  154.1639 H   0  0  0  0  0  0  0  0  0  0  0  0
  149.9613  138.2041  153.5803 H   0  0  0  0  0  0  0  0  0  0  0  0
  148.6854  137.9361  154.7438 H   0  0  0  0  0  0  0  0  0  0  0  0
  149.3227  139.9522  156.0094 H   0  0  0  0  0  0  0  0  0  0  0  0
  147.7369  140.2726  154.1139 H   0  0  0  0  0  0  0  0  0  0  0  0
  149.0905  140.5542  153.0193 H   0  0  0  0  0  0  0  0  0  0  0  0
  148.7645  141.6866  154.3299 H   0  0  0  0  0  0  0  0  0  0  0  0
  152.9590  140.0562  155.3047 H   0  0  0  0  0  0  0  0  0  0  0  0
  152.7112  139.5252  157.6886 H   0  0  0  0  0  0  0  0  0  0  0  0
  150.9601  139.5729  157.5685 H   0  0  0  0  0  0  0  0  0  0  0  0
  151.8998  141.0432  157.3212 H   0  0  0  0  0  0  0  0  0  0  0  0
  152.6707  137.6330  155.9565 H   0  0  0  0  0  0  0  0  0  0  0  0
  152.3043  138.0046  154.2900 H   0  0  0  0  0  0  0  0  0  0  0  0
  1  2  1  0  0  0  0
  1 22  1  0  0  0  0
  1 23  1  0  0  0  0
  1 24  1  0  0  0  0
  2  7  1  0  0  0  0
  2  3  2  0  0  0  0
  3  4  1  0  0  0  0
  3 25  1  0  0  0  0
  4  5  2  0  0  0  0
  4 26  1  0  0  0  0
  5  6  1  0  0  0  0
  5 27  1  0  0  0  0
  6  7  2  0  0  0  0
  7  8  1  0  0  0  0
  8  9  1  0  0  0  0
  8 28  1  0  0  0  0
  9 10  2  0  0  0  0
  9 11  1  0  0  0  0
 11 12  1  0  0  0  0
 11 29  1  0  0  0  0
 12 13  1  0  0  0  0
 12 30  1  0  0  0  0
 12 31  1  0  0  0  0
 13 14  1  0  0  0  0
 13 32  1  0  0  0  0
 13 33  1  0  0  0  0
 14 21  1  0  0  0  0
 14 15  1  0  0  0  0
 15 16  1  0  0  0  0
 15 34  1  0  0  0  0
 15 35  1  0  0  0  0
 16 17  1  0  0  0  0
 16 18  1  0  0  0  0
 16 36  1  0  0  0  0
 17 37  1  0  0  0  0
 17 38  1  0  0  0  0
 17 39  1  0  0  0  0
 18 19  1  0  0  0  0
 19 20  1  0  0  0  0
 19 21  1  0  0  0  0
 19 40  1  0  0  0  0
 20 41  1  0  0  0  0
 20 42  1  0  0  0  0
 20 43  1  0  0  0  0
 21 44  1  0  0  0  0
 21 45  1  0  0  0  0
M  END
> <s_m_source_file>
AV-unprocessed.smi

> <i_m_source_file_index>
1774

> <i_lp_mmshare_version>
43012

> <i_f3d_flags>
0

> <s_epik_input>
W0NIM11jMVtjSF1bY0hdW2NIXW5jMVtOSF1DKD1PKVtOSF1bQ0gyXVtDSDJdTjJbQ0gyXVtDQEBIXShbQ0gzXSlPW0NAQEhdKFtDSDNdKVtDSDJdMg==

> <s_epik_cmdline>
J2VwaWtfcHl0aG9uJywgJy1waCcsICc3LjAnLCAnLXRuJywgJzgnLCAnLW1hJywgJzIwMCcsICctbWV0YWxfYmluZGluZycsICctaW1hZScsICc8aW5maWxlLm1hZT4nLCAnLW9tYWUnLCAnPG91dGZpbGUubWFlPic=

> <r_epik_Ionization_Penalty>
0.266047

> <r_epik_Ionization_Penalty_Charging>
0

> <r_epik_Ionization_Penalty_Neutral>
0.266047

> <r_epik_State_Penalty>
0.257924

> <r_epik_Charging_Adjusted_Penalty>
0.257924

> <i_epik_Tot_Q>
0

> <i_epik_Tot_abs_Q>
0

> <r_epik_Metal_State_Penalty>
0.257922

> <b_epik_Metal_Only>
0

> <s_lp_Force_Field>
OPLS_2005

> <r_lp_Energy>
29.5878

> <b_lp_Chiralities_Consistent>
1

> <s_lp_Variant>
AV-unprocessed.smi:1774-2

> <Gold.Version>
5.8.1

> <Gold.Id.Protein>
6NUR|6NUR_protein|mol2

> <Gold.PLP.Fitness>
43.5944

> <Gold.PLP.PLP>
-36.4868

> <Gold.PLP.part.hbond>
-2.9081

> <Gold.PLP.part.metal>
0.0000

> <Gold.PLP.part.buried>
-4.2132

> <Gold.PLP.part.nonpolar>
-29.3213

> <Gold.PLP.part.repulsive>
0.3104

> <Gold.PLP.ligand.clash>
0.0000

> <Gold.PLP.ligand.torsion>
0.8711

> <Gold.PLP.Chemscore.Hbond>
2.9440

> <Gold.PLP.Chemscore.CHOScore>
0.0000

> <Gold.PLP.Chemscore.Metal>
0.0000

> <Gold.Chemscore.Hbonds>
donor molecule, donor type, donor heavy atom, donor atom, acceptor molecule, acceptor atom, score
      L1  H     8    28       P1  7948  0.96
      L1  H    11    29       P1  7948  1.00
      P1  H  7989  7998       L1    18  1.00

> <Gold.PLP.Chemscore.Internal.Correction>
0.0177

> <Gold.Rescore>
     Score         DG    S(hbond)    S(metal)    S(lipo)     H(rot)  DE(clash)    DE(int)     intcor
     19.72     -20.67       2.73        0.00      83.82       1.46       0.20       0.74       ----

> <Gold.Chemscore.Fitness>
19.7214

> <Gold.Chemscore.DG>
-20.6661

> <Gold.Chemscore.ZeroCoef>
-5.4800

> <Gold.Chemscore.Hbond>
2.7267

> <Gold.Chemscore.Metal>
0.0000

> <Gold.Chemscore.Lipo>
83.8196

> <Gold.Chemscore.Internal_Hbond>
0.0000

> <Gold.Chemscore.DEClash>
0.2003

> <Gold.Chemscore.DEInternal>
0.7444

> <Gold.Chemscore.Rot>
1.4562

> <Gold.Chemscore.Internal.Correction>
   9.000000E+99

> <Gold.Chemscore.Hbonds>
donor molecule, donor type, donor heavy atom, donor atom, acceptor molecule, acceptor atom, score
      L1  H     8    28       P1  7948  0.51
      L1  H    11    29       P1  7948  0.78
      P1  H  7989  7998       L1    18  0.72

> <Gold.Chemscore.Hbond.Weighted>
-9.1071

> <Gold.Chemscore.Metal.Weighted>
-0.0000

> <Gold.Chemscore.Lipo.Weighted>
-9.8069

> <Gold.Chemscore.Internal_Hbond.Weighted>
0.0000

> <Gold.Chemscore.DEClash.Weighted>
0.2003

> <Gold.Chemscore.DEInternal.Weighted>
0.7444

> <Gold.Chemscore.Rot.Weighted>
3.7278

> <Gold.Chemscore.Internal.Correction.Weighted>
   9.000000E+99

> <Gold.Protein.RotatedTorsions>
[ 6907 6896 6895 6894 ] final  151.62 input  -60.11 | X-H torsion
[ 7974 7965 7964 7962 ] final  -63.00 input  175.53 | X-H torsion
[ 8008 7997 7996 7995 ] final  153.44 input   59.86 | X-H torsion
[ 10167 10162 10161 10158 ] final  165.16 input  -65.29 | X-H torsion
[ 10718 10713 10712 10709 ] final   63.49 input   66.30 | X-H torsion
[ 10763 10752 10751 10750 ] final  -40.13 input  -60.55 | X-H torsion
[ 11005 11000 10999 10996 ] final -152.29 input  -57.11 | X-H torsion

> <Gold.Protein.ActiveResidues>
 VAL166  LYS551  ARG553  GLY616  TRP617  ASP618  TYR619  PRO620  LYS621  CYS622 
 ASP623  PHE694  ASN695  SER759  ASP760  ASP761  ALA762  ILE779  LEU786  VAL792 
 PHE793  MET794  SER795  GLU796  ALA797  LYS798  CYS799  TRP800  GLU811  SER814 

> <Gold.Protein.RotatedAtoms>
  152.0981  133.4235  159.4573 H   0  0  0  0  0  0  0  0  0  0  0  0  # atno 6907 bound_to 6896
  150.6863  134.2793  159.4630 H   0  0  0  0  0  0  0  0  0  0  0  0  # atno 6908 bound_to 6896
  152.0651  134.9569  160.0625 H   0  0  0  0  0  0  0  0  0  0  0  0  # atno 6909 bound_to 6896
  145.7845  140.8744  143.0313 H   0  0  0  0  0  0  0  0  0  0  0  0  # atno 7974 bound_to 7965
  156.2581  140.1994  156.6490 H   0  0  0  0  0  0  0  0  0  0  0  0  # atno 8008 bound_to 7997
  154.6551  140.0567  157.0025 H   0  0  0  0  0  0  0  0  0  0  0  0  # atno 8009 bound_to 7997
  155.1359  140.3238  155.4466 H   0  0  0  0  0  0  0  0  0  0  0  0  # atno 8010 bound_to 7997
  139.4901  144.4161  151.9242 H   0  0  0  0  0  0  0  0  0  0  0  0  # atno 10167 bound_to 10162
  157.5974  130.9108  149.9722 H   0  0  0  0  0  0  0  0  0  0  0  0  # atno 10718 bound_to 10713
  153.9409  135.6761  153.4744 H   0  0  0  0  0  0  0  0  0  0  0  0  # atno 10763 bound_to 10752
  153.0932  135.4864  154.8726 H   0  0  0  0  0  0  0  0  0  0  0  0  # atno 10764 bound_to 10752
  154.7378  135.3153  154.8740 H   0  0  0  0  0  0  0  0  0  0  0  0  # atno 10765 bound_to 10752
  140.7204  134.3733  157.5184 H   0  0  0  0  0  0  0  0  0  0  0  0  # atno 11005 bound_to 11000
  144.6791  140.0035  143.7484 LP  0  0  0  0  0  0  0  0  0  0  0  0  # atno 17320 bound_to 7965
  146.0040  139.3115  143.0910 LP  0  0  0  0  0  0  0  0  0  0  0  0  # atno 17321 bound_to 7965
  140.3603  144.2981  150.5934 LP  0  0  0  0  0  0  0  0  0  0  0  0  # atno 17342 bound_to 10162
  140.5408  143.2224  151.8087 LP  0  0  0  0  0  0  0  0  0  0  0  0  # atno 17343 bound_to 10162
  156.1040  130.3654  150.0167 LP  0  0  0  0  0  0  0  0  0  0  0  0  # atno 17370 bound_to 10713
  156.8277  130.9381  151.3638 LP  0  0  0  0  0  0  0  0  0  0  0  0  # atno 17371 bound_to 10713
  139.8849  134.8951  156.2672 LP  0  0  0  0  0  0  0  0  0  0  0  0  # atno 17394 bound_to 11000
  141.0008  133.7152  156.0958 LP  0  0  0  0  0  0  0  0  0  0  0  0  # atno 17395 bound_to 11000

$$$$
