AV-unprocessed.smi:3158|AV-procd|sdf|12042|dock9
  -GOLD-   2272017463D 1   1.00000     0.00000
 Structure written by MMmdl.
 40 40  0  0  0  0  0  0  0  0  2 V2000
  151.1326  137.6406  154.7179 C   0  0  0  0  0  0  0  0  0  0  0  0
  150.0713  136.6282  155.1731 C   0  0  0  0  0  0  0  0  0  0  0  0
  148.6629  137.2342  155.3161 C   0  0  1  0  0  0  0  0  0  0  0  0
  148.6368  138.3862  156.3315 C   0  0  0  0  0  0  0  0  0  0  0  0
  148.1867  137.7104  154.0193 N   0  0  0  0  0  0  0  0  0  0  0  0
  147.1051  138.4786  153.8175 C   0  0  0  0  0  0  0  0  0  0  0  0
  146.3878  138.8961  154.7273 O   0  0  0  0  0  0  0  0  0  0  0  0
  146.7867  138.8385  152.3603 C   0  0  2  0  0  0  0  0  0  0  0  0
  146.9645  140.3484  152.1415 C   0  0  0  0  0  0  0  0  0  0  0  0
  145.4089  138.4382  151.9997 N   0  3  0  0  0  0  0  0  0  0  0  0
  145.0526  137.0441  152.3447 C   0  0  0  0  0  0  0  0  0  0  0  0
  145.6736  136.0457  151.3527 C   0  0  0  0  0  0  0  0  0  0  0  0
  145.0385  134.7383  151.3938 N   0  0  0  0  0  0  0  0  0  0  0  0
  144.4972  134.0183  150.3492 C   0  0  0  0  0  0  0  0  0  0  0  0
  144.0365  132.8397  150.8623 C   0  0  0  0  0  0  0  0  0  0  0  0
  144.3573  132.9242  152.2458 C   0  0  0  0  0  0  0  0  0  0  0  0
  144.9645  134.0573  152.5587 N   0  0  0  0  0  0  0  0  0  0  0  0
  152.0990  137.1538  154.5858 H   0  0  0  0  0  0  0  0  0  0  0  0
  151.2651  138.4410  155.4463 H   0  0  0  0  0  0  0  0  0  0  0  0
  150.8579  138.0960  153.7659 H   0  0  0  0  0  0  0  0  0  0  0  0
  150.0377  135.8124  154.4499 H   0  0  0  0  0  0  0  0  0  0  0  0
  150.3808  136.1808  156.1186 H   0  0  0  0  0  0  0  0  0  0  0  0
  148.0027  136.4470  155.6853 H   0  0  0  0  0  0  0  0  0  0  0  0
  148.9687  138.0503  157.3141 H   0  0  0  0  0  0  0  0  0  0  0  0
  147.6291  138.7871  156.4462 H   0  0  0  0  0  0  0  0  0  0  0  0
  149.2881  139.2043  156.0219 H   0  0  0  0  0  0  0  0  0  0  0  0
  148.7197  137.4217  153.2115 H   0  0  0  0  0  0  0  0  0  0  0  0
  147.4796  138.3160  151.6981 H   0  0  0  0  0  0  0  0  0  0  0  0
  147.9798  140.6670  152.3812 H   0  0  0  0  0  0  0  0  0  0  0  0
  146.2793  140.9278  152.7623 H   0  0  0  0  0  0  0  0  0  0  0  0
  146.7760  140.6177  151.1018 H   0  0  0  0  0  0  0  0  0  0  0  0
  144.7705  139.0631  152.4722 H   0  0  0  0  0  0  0  0  0  0  0  0
  145.4063  136.8303  153.3538 H   0  0  0  0  0  0  0  0  0  0  0  0
  143.9686  136.9234  152.3638 H   0  0  0  0  0  0  0  0  0  0  0  0
  145.6083  136.4351  150.3358 H   0  0  0  0  0  0  0  0  0  0  0  0
  146.7337  135.9134  151.5711 H   0  0  0  0  0  0  0  0  0  0  0  0
  144.4827  134.3996  149.3386 H   0  0  0  0  0  0  0  0  0  0  0  0
  143.5491  132.0364  150.3299 H   0  0  0  0  0  0  0  0  0  0  0  0
  144.1717  132.1997  153.0252 H   0  0  0  0  0  0  0  0  0  0  0  0
  145.2929  138.5493  151.0029 H   0  0  0  0  0  0  0  0  0  0  0  0
  1  2  1  0  0  0  0
  1 18  1  0  0  0  0
  1 19  1  0  0  0  0
  1 20  1  0  0  0  0
  2  3  1  0  0  0  0
  2 21  1  0  0  0  0
  2 22  1  0  0  0  0
  3  4  1  0  0  0  0
  3  5  1  0  0  0  0
  3 23  1  0  0  0  0
  4 24  1  0  0  0  0
  4 25  1  0  0  0  0
  4 26  1  0  0  0  0
  5  6  1  0  0  0  0
  5 27  1  0  0  0  0
  6  7  2  0  0  0  0
  6  8  1  0  0  0  0
  8  9  1  0  0  0  0
  8 10  1  0  0  0  0
  8 28  1  0  0  0  0
  9 29  1  0  0  0  0
  9 30  1  0  0  0  0
  9 31  1  0  0  0  0
 10 11  1  0  0  0  0
 10 32  1  0  0  0  0
 10 40  1  0  0  0  0
 11 12  1  0  0  0  0
 11 33  1  0  0  0  0
 11 34  1  0  0  0  0
 12 13  1  0  0  0  0
 12 35  1  0  0  0  0
 12 36  1  0  0  0  0
 13 17  1  0  0  0  0
 13 14  1  0  0  0  0
 14 15  2  0  0  0  0
 14 37  1  0  0  0  0
 15 16  1  0  0  0  0
 15 38  1  0  0  0  0
 16 17  2  0  0  0  0
 16 39  1  0  0  0  0
M  CHG  1  10   1
M  END
> <s_m_source_file>
AV-unprocessed.smi

> <i_m_source_file_index>
3158

> <i_lp_mmshare_version>
43012

> <i_f3d_flags>
0

> <s_epik_input>
W0NIM11bQ0gyXVtDQEhdKFtDSDNdKVtOSF1DKD1PKVtDQEhdKFtDSDNdKVtOSF1bQ0gyXVtDSDJdbjFbY0hdW2NIXVtjSF1uMQ==

> <s_epik_cmdline>
J2VwaWtfcHl0aG9uJywgJy1waCcsICc3LjAnLCAnLXRuJywgJzgnLCAnLW1hJywgJzIwMCcsICctbWV0YWxfYmluZGluZycsICctaW1hZScsICc8aW5maWxlLm1hZT4nLCAnLW9tYWUnLCAnPG91dGZpbGUubWFlPic=

> <r_lp_tautomer_probability>
1

> <r_epik_Ionization_Penalty>
0.20724

> <r_epik_Ionization_Penalty_Charging>
0.207237

> <r_epik_Ionization_Penalty_Neutral>
3.33806e-06

> <r_epik_State_Penalty>
0.197234

> <r_epik_Charging_Adjusted_Penalty>
0.404471

> <i_epik_Tot_Q>
1

> <i_epik_Tot_abs_Q>
1

> <r_epik_Metal_State_Penalty>
0.197524

> <b_epik_Metal_Only>
0

> <s_lp_Force_Field>
OPLS_2005

> <r_lp_Energy>
6.13047

> <b_lp_Chiralities_Consistent>
1

> <s_lp_Variant>
AV-unprocessed.smi:3158-2

> <Gold.Version>
5.8.1

> <Gold.Id.Protein>
6NUR|6NUR_protein|mol2

> <Gold.PLP.Fitness>
40.9947

> <Gold.PLP.PLP>
-26.7866

> <Gold.PLP.part.hbond>
-3.0000

> <Gold.PLP.part.metal>
0.0000

> <Gold.PLP.part.buried>
0.6005

> <Gold.PLP.part.nonpolar>
-24.7259

> <Gold.PLP.part.repulsive>
0.1986

> <Gold.PLP.ligand.clash>
0.0000

> <Gold.PLP.ligand.torsion>
0.4207

> <Gold.PLP.Chemscore.Hbond>
3.7200

> <Gold.PLP.Chemscore.CHOScore>
1.2653

> <Gold.PLP.Chemscore.Metal>
0.0000

> <Gold.Chemscore.Hbonds>
donor molecule, donor type, donor heavy atom, donor atom, acceptor molecule, acceptor atom, score
      L1  H     5    27       P1  7948  0.99
      L1  H    10    32       P1 10175  2.00
      L1  H    10    40       P1 10171  0.74
      L1  C    14    37       P1  7921  1.00
      L1  C    16    39       P1 10957  0.43

> <Gold.PLP.Chemscore.Internal.Correction>
0.0934

> <Gold.Rescore>
     Score         DG    S(hbond)    S(metal)    S(lipo)     H(rot)  DE(clash)    DE(int)     intcor
     14.15     -16.69       2.64        0.00      68.90       2.21       0.96       1.58       ----

> <Gold.Chemscore.Fitness>
14.1512

> <Gold.Chemscore.DG>
-16.6906

> <Gold.Chemscore.ZeroCoef>
-5.4800

> <Gold.Chemscore.Hbond>
2.6391

> <Gold.Chemscore.Metal>
0.0000

> <Gold.Chemscore.Lipo>
68.9029

> <Gold.Chemscore.Internal_Hbond>
0.0000

> <Gold.Chemscore.DEClash>
0.9616

> <Gold.Chemscore.DEInternal>
1.5778

> <Gold.Chemscore.Rot>
2.2132

> <Gold.Chemscore.Internal.Correction>
   9.000000E+99

> <Gold.Chemscore.Hbonds>
donor molecule, donor type, donor heavy atom, donor atom, acceptor molecule, acceptor atom, score
      L1  H     5    27       P1  7948  0.94
      L1  H    10    32       P1 10175  0.94
      L1  H    10    40       P1 10171  0.74

> <Gold.Chemscore.Hbond.Weighted>
-8.8147

> <Gold.Chemscore.Metal.Weighted>
-0.0000

> <Gold.Chemscore.Lipo.Weighted>
-8.0616

> <Gold.Chemscore.Internal_Hbond.Weighted>
0.0000

> <Gold.Chemscore.DEClash.Weighted>
0.9616

> <Gold.Chemscore.DEInternal.Weighted>
1.5778

> <Gold.Chemscore.Rot.Weighted>
5.6658

> <Gold.Chemscore.Internal.Correction.Weighted>
   9.000000E+99

> <Gold.Protein.RotatedTorsions>
[ 6907 6896 6895 6894 ] final -124.55 input  -60.11 | X-H torsion
[ 7974 7965 7964 7962 ] final  -58.36 input  175.53 | X-H torsion
[ 8008 7997 7996 7995 ] final -121.28 input   59.86 | X-H torsion
[ 10167 10162 10161 10158 ] final   10.76 input  -65.29 | X-H torsion
[ 10718 10713 10712 10709 ] final   12.75 input   66.30 | X-H torsion
[ 10763 10752 10751 10750 ] final  138.78 input  -60.55 | X-H torsion
[ 11005 11000 10999 10996 ] final  116.36 input  -57.11 | X-H torsion

> <Gold.Protein.ActiveResidues>
 VAL166  LYS551  ARG553  GLY616  TRP617  ASP618  TYR619  PRO620  LYS621  CYS622 
 ASP623  PHE694  ASN695  SER759  ASP760  ASP761  ALA762  ILE779  LEU786  VAL792 
 PHE793  MET794  SER795  GLU796  ALA797  LYS798  CYS799  TRP800  GLU811  SER814 

> <Gold.Protein.RotatedAtoms>
  150.8779  133.7412  159.2940 H   0  0  0  0  0  0  0  0  0  0  0  0  # atno 6907 bound_to 6896
  151.5003  135.1060  159.9837 H   0  0  0  0  0  0  0  0  0  0  0  0  # atno 6908 bound_to 6896
  152.4740  133.8050  159.7028 H   0  0  0  0  0  0  0  0  0  0  0  0  # atno 6909 bound_to 6896
  145.8402  140.8422  143.0038 H   0  0  0  0  0  0  0  0  0  0  0  0  # atno 7974 bound_to 7965
  155.1454  140.0402  157.2808 H   0  0  0  0  0  0  0  0  0  0  0  0  # atno 8008 bound_to 7997
  154.6442  140.2554  155.7260 H   0  0  0  0  0  0  0  0  0  0  0  0  # atno 8009 bound_to 7997
  156.2547  140.2849  156.0849 H   0  0  0  0  0  0  0  0  0  0  0  0  # atno 8010 bound_to 7997
  140.6174  143.8279  150.7134 H   0  0  0  0  0  0  0  0  0  0  0  0  # atno 10167 bound_to 10162
  157.0147  130.6131  149.5713 H   0  0  0  0  0  0  0  0  0  0  0  0  # atno 10718 bound_to 10713
  153.8952  135.3028  155.3448 H   0  0  0  0  0  0  0  0  0  0  0  0  # atno 10763 bound_to 10752
  154.7697  135.4892  153.9627 H   0  0  0  0  0  0  0  0  0  0  0  0  # atno 10764 bound_to 10752
  153.1275  135.6796  153.9332 H   0  0  0  0  0  0  0  0  0  0  0  0  # atno 10765 bound_to 10752
  139.9039  134.9597  156.7186 H   0  0  0  0  0  0  0  0  0  0  0  0  # atno 11005 bound_to 11000
  144.6734  140.0801  143.7469 LP  0  0  0  0  0  0  0  0  0  0  0  0  # atno 17320 bound_to 7965
  145.9474  139.2710  143.1233 LP  0  0  0  0  0  0  0  0  0  0  0  0  # atno 17321 bound_to 7965
  140.1861  143.4075  152.1897 LP  0  0  0  0  0  0  0  0  0  0  0  0  # atno 17342 bound_to 10162
  139.5410  144.7256  151.4735 LP  0  0  0  0  0  0  0  0  0  0  0  0  # atno 17343 bound_to 10162
  156.0123  130.5216  150.8028 LP  0  0  0  0  0  0  0  0  0  0  0  0  # atno 17370 bound_to 10713
  157.5294  131.0936  150.9974 LP  0  0  0  0  0  0  0  0  0  0  0  0  # atno 17371 bound_to 10713
  140.7018  133.9299  155.8029 LP  0  0  0  0  0  0  0  0  0  0  0  0  # atno 17394 bound_to 11000
  141.0366  134.0681  157.3952 LP  0  0  0  0  0  0  0  0  0  0  0  0  # atno 17395 bound_to 11000

$$$$
