AV-unprocessed.smi:40|AV-procd|sdf|375|dock4
  -GOLD-   2262016223D 1   1.00000     0.00000
 Structure written by MMmdl.
 47 48  0  0  0  0  0  0  0  0  1 V2000
  152.7368  143.9400  159.7643 C   0  0  0  0  0  0  0  0  0  0  0  0
  152.0572  144.7123  158.6282 C   0  0  0  0  0  0  0  0  0  0  0  0
  152.0762  143.9443  157.2990 C   0  0  0  0  0  0  0  0  0  0  0  0
  151.2628  142.6421  157.3580 C   0  0  0  0  0  0  0  0  0  0  0  0
  151.0130  142.0300  155.9696 C   0  0  0  0  0  0  0  0  0  0  0  0
  150.2655  140.8247  156.0667 O   0  0  0  0  0  0  0  0  0  0  0  0
  149.5689  140.3512  155.0098 C   0  0  0  0  0  0  0  0  0  0  0  0
  149.6793  140.7731  153.8590 O   0  0  0  0  0  0  0  0  0  0  0  0
  148.6444  139.3153  155.4231 N   0  0  0  0  0  0  0  0  0  0  0  0
  147.7975  138.6305  154.6248 C   0  0  0  0  0  0  0  0  0  0  0  0
  147.7956  138.9301  153.3388 N   0  0  0  0  0  0  0  0  0  0  0  0
  146.9846  138.3218  152.4176 C   0  0  0  0  0  0  0  0  0  0  0  0
  147.0327  138.6416  151.2309 O   0  0  0  0  0  0  0  0  0  0  0  0
  146.1089  137.3149  152.8884 N   0  0  0  0  0  0  0  0  0  0  0  0
  145.1713  136.6218  151.9247 C   0  0  2  0  0  0  0  0  0  0  0  0
  143.8887  136.6740  152.4686 O   0  0  0  0  0  0  0  0  0  0  0  0
  143.2204  135.4535  152.1949 C   0  0  2  0  0  0  0  0  0  0  0  0
  142.0853  135.2382  153.2021 C   0  0  0  0  0  0  0  0  0  0  0  0
  144.3316  134.4040  152.2679 C   0  0  1  0  0  0  0  0  0  0  0  0
  143.9916  133.2750  151.4881 O   0  0  0  0  0  0  0  0  0  0  0  0
  145.5309  135.1372  151.6767 C   0  0  2  0  0  0  0  0  0  0  0  0
  146.7365  134.7116  152.2870 O   0  0  0  0  0  0  0  0  0  0  0  0
  146.1114  136.9723  154.2319 C   0  0  0  0  0  0  0  0  0  0  0  0
  146.9189  137.5867  155.1221 C   0  0  0  0  0  0  0  0  0  0  0  0
  146.9096  137.2199  156.4154 F   0  0  0  0  0  0  0  0  0  0  0  0
  145.1642  137.2041  151.0028 H   0  0  0  0  0  0  0  0  0  0  0  0
  142.8202  135.5131  151.1808 H   0  0  0  0  0  0  0  0  0  0  0  0
  144.5182  134.1188  153.3048 H   0  0  0  0  0  0  0  0  0  0  0  0
  145.5932  134.9877  150.5976 H   0  0  0  0  0  0  0  0  0  0  0  0
  152.7109  144.5118  160.6923 H   0  0  0  0  0  0  0  0  0  0  0  0
  153.7812  143.7330  159.5302 H   0  0  0  0  0  0  0  0  0  0  0  0
  152.2382  142.9875  159.9466 H   0  0  0  0  0  0  0  0  0  0  0  0
  151.0266  144.9312  158.9099 H   0  0  0  0  0  0  0  0  0  0  0  0
  152.5541  145.6749  158.5019 H   0  0  0  0  0  0  0  0  0  0  0  0
  151.6828  144.5813  156.5059 H   0  0  0  0  0  0  0  0  0  0  0  0
  153.1086  143.7184  157.0292 H   0  0  0  0  0  0  0  0  0  0  0  0
  151.7668  141.9175  157.9986 H   0  0  0  0  0  0  0  0  0  0  0  0
  150.2999  142.8440  157.8280 H   0  0  0  0  0  0  0  0  0  0  0  0
  150.5056  142.7458  155.3214 H   0  0  0  0  0  0  0  0  0  0  0  0
  151.9662  141.8043  155.4910 H   0  0  0  0  0  0  0  0  0  0  0  0
  148.7120  139.0463  156.3936 H   0  0  0  0  0  0  0  0  0  0  0  0
  141.5703  134.2956  153.0149 H   0  0  0  0  0  0  0  0  0  0  0  0
  141.3491  136.0396  153.1357 H   0  0  0  0  0  0  0  0  0  0  0  0
  142.4625  135.2168  154.2249 H   0  0  0  0  0  0  0  0  0  0  0  0
  144.7285  132.6833  151.4771 H   0  0  0  0  0  0  0  0  0  0  0  0
  147.4602  135.1102  151.8288 H   0  0  0  0  0  0  0  0  0  0  0  0
  145.4581  136.1869  154.5844 H   0  0  0  0  0  0  0  0  0  0  0  0
  1  2  1  0  0  0  0
  1 30  1  0  0  0  0
  1 31  1  0  0  0  0
  1 32  1  0  0  0  0
  2  3  1  0  0  0  0
  2 33  1  0  0  0  0
  2 34  1  0  0  0  0
  3  4  1  0  0  0  0
  3 35  1  0  0  0  0
  3 36  1  0  0  0  0
  4  5  1  0  0  0  0
  4 37  1  0  0  0  0
  4 38  1  0  0  0  0
  5  6  1  0  0  0  0
  5 39  1  0  0  0  0
  5 40  1  0  0  0  0
  6  7  1  0  0  0  0
  7  8  2  0  0  0  0
  7  9  1  0  0  0  0
  9 10  1  0  0  0  0
  9 41  1  0  0  0  0
 10 24  1  0  0  0  0
 10 11  2  0  0  0  0
 11 12  1  0  0  0  0
 12 13  2  0  0  0  0
 12 14  1  0  0  0  0
 14 15  1  0  0  0  0
 14 23  1  0  0  0  0
 15 26  1  0  0  0  0
 15 21  1  0  0  0  0
 15 16  1  0  0  0  0
 16 17  1  0  0  0  0
 17 27  1  0  0  0  0
 17 18  1  0  0  0  0
 17 19  1  0  0  0  0
 18 42  1  0  0  0  0
 18 43  1  0  0  0  0
 18 44  1  0  0  0  0
 19 28  1  0  0  0  0
 19 20  1  0  0  0  0
 19 21  1  0  0  0  0
 20 45  1  0  0  0  0
 21 29  1  0  0  0  0
 21 22  1  0  0  0  0
 22 46  1  0  0  0  0
 23 24  2  0  0  0  0
 23 47  1  0  0  0  0
 24 25  1  0  0  0  0
M  END
> <s_m_source_file>
AV-unprocessed.smi

> <i_m_source_file_index>
40

> <i_lp_mmshare_version>
43012

> <i_f3d_flags>
0

> <s_epik_input>
W0NIM11bQ0gyXVtDSDJdW0NIMl1bQ0gyXU9DKD1PKVtOSF1jMW5jKD1PKW4oW2NIXWMxRilbQ0BASF0yT1tDQEhdKFtDSDNdKVtDQEBIXShbT0hdKVtDQEhdMltPSF0=

> <s_epik_cmdline>
J2VwaWtfcHl0aG9uJywgJy1waCcsICc3LjAnLCAnLXRuJywgJzgnLCAnLW1hJywgJzIwMCcsICctbWV0YWxfYmluZGluZycsICctaW1hZScsICc8aW5maWxlLm1hZT4nLCAnLW9tYWUnLCAnPG91dGZpbGUubWFlPic=

> <r_lp_tautomer_probability>
1

> <r_epik_Ionization_Penalty>
2.29506e-06

> <r_epik_Ionization_Penalty_Charging>
8.26867e-09

> <r_epik_Ionization_Penalty_Neutral>
2.2868e-06

> <r_epik_State_Penalty>
-0

> <r_epik_Charging_Adjusted_Penalty>
8.26867e-09

> <i_epik_Tot_Q>
0

> <i_epik_Tot_abs_Q>
0

> <r_epik_Metal_State_Penalty>
-0

> <b_epik_Metal_Only>
0

> <s_epik_Chemistry_Notes>
This compound has an ester and may undergo hydrolysis at high or low pH. This compound contains an acetal/aminal-like group ( X-CH(R)-Y where X, Y are N, S, or O) that may be acid/base labile, releasing an aldehyde.

> <s_lp_Force_Field>
OPLS_2005

> <r_lp_Energy>
38.1616

> <b_lp_Chiralities_Consistent>
1

> <s_lp_Variant>
AV-unprocessed.smi:40-9

> <Gold.Version>
5.8.1

> <Gold.Id.Protein>
6NUR|6NUR_protein|mol2

> <Gold.PLP.Fitness>
44.3554

> <Gold.PLP.PLP>
-36.4301

> <Gold.PLP.part.hbond>
-3.7503

> <Gold.PLP.part.metal>
0.0000

> <Gold.PLP.part.buried>
-6.3991

> <Gold.PLP.part.nonpolar>
-29.7720

> <Gold.PLP.part.repulsive>
3.8703

> <Gold.PLP.ligand.clash>
0.0000

> <Gold.PLP.ligand.torsion>
0.4569

> <Gold.PLP.Chemscore.Hbond>
2.8649

> <Gold.PLP.Chemscore.CHOScore>
0.0000

> <Gold.PLP.Chemscore.Metal>
0.0000

> <Gold.Chemscore.Hbonds>
donor molecule, donor type, donor heavy atom, donor atom, acceptor molecule, acceptor atom, score
      L1  H    22    46       P1  7948  1.00
      P1  H  7954  7966       L1    13  1.00
      P1  H  7989  7998       L1     8  0.50
      P1  H  8011  8017       L1     8  0.47

> <Gold.PLP.Chemscore.Internal.Correction>
0.2445

> <Gold.Rescore>
     Score         DG    S(hbond)    S(metal)    S(lipo)     H(rot)  DE(clash)    DE(int)     intcor
      8.80     -13.70       2.56        0.00      77.97       3.70       1.96       2.94       ----

> <Gold.Chemscore.Fitness>
8.7982

> <Gold.Chemscore.DG>
-13.6955

> <Gold.Chemscore.ZeroCoef>
-5.4800

> <Gold.Chemscore.Hbond>
2.5612

> <Gold.Chemscore.Metal>
0.0000

> <Gold.Chemscore.Lipo>
77.9667

> <Gold.Chemscore.Internal_Hbond>
0.0000

> <Gold.Chemscore.DEClash>
1.9592

> <Gold.Chemscore.DEInternal>
2.9382

> <Gold.Chemscore.Rot>
3.6957

> <Gold.Chemscore.Internal.Correction>
   9.000000E+99

> <Gold.Chemscore.Hbonds>
donor molecule, donor type, donor heavy atom, donor atom, acceptor molecule, acceptor atom, score
      L1  H    22    46       P1  7948  0.86
      P1  H  7954  7966       L1    13  0.96
      P1  H  7989  7998       L1     8  0.30
      P1  H  8011  8017       L1     8  0.45

> <Gold.Chemscore.Hbond.Weighted>
-8.5544

> <Gold.Chemscore.Metal.Weighted>
-0.0000

> <Gold.Chemscore.Lipo.Weighted>
-9.1221

> <Gold.Chemscore.Internal_Hbond.Weighted>
0.0000

> <Gold.Chemscore.DEClash.Weighted>
1.9592

> <Gold.Chemscore.DEInternal.Weighted>
2.9382

> <Gold.Chemscore.Rot.Weighted>
9.4610

> <Gold.Chemscore.Internal.Correction.Weighted>
   9.000000E+99

> <Gold.Protein.RotatedTorsions>
[ 6907 6896 6895 6894 ] final   56.60 input  -60.11 | X-H torsion
[ 7974 7965 7964 7962 ] final  -32.14 input  175.53 | X-H torsion
[ 8008 7997 7996 7995 ] final  -31.47 input   59.86 | X-H torsion
[ 10167 10162 10161 10158 ] final -160.55 input  -65.29 | X-H torsion
[ 10718 10713 10712 10709 ] final   36.79 input   66.30 | X-H torsion
[ 10763 10752 10751 10750 ] final  179.75 input  -60.55 | X-H torsion
[ 11005 11000 10999 10996 ] final  -51.75 input  -57.11 | X-H torsion

> <Gold.Protein.ActiveResidues>
 VAL166  LYS551  ARG553  GLY616  TRP617  ASP618  TYR619  PRO620  LYS621  CYS622 
 ASP623  PHE694  ASN695  SER759  ASP760  ASP761  ALA762  ILE779  LEU786  VAL792 
 PHE793  MET794  SER795  GLU796  ALA797  LYS798  CYS799  TRP800  GLU811  SER814 

> <Gold.Protein.RotatedAtoms>
  152.3652  134.6814  160.0194 H   0  0  0  0  0  0  0  0  0  0  0  0  # atno 6907 bound_to 6896
  151.7125  133.3307  159.3302 H   0  0  0  0  0  0  0  0  0  0  0  0  # atno 6908 bound_to 6896
  150.7633  134.6454  159.6304 H   0  0  0  0  0  0  0  0  0  0  0  0  # atno 6909 bound_to 6896
  146.1013  140.5755  142.8819 H   0  0  0  0  0  0  0  0  0  0  0  0  # atno 7974 bound_to 7965
  154.4213  140.1763  156.1572 H   0  0  0  0  0  0  0  0  0  0  0  0  # atno 8008 bound_to 7997
  155.9867  140.3372  155.6690 H   0  0  0  0  0  0  0  0  0  0  0  0  # atno 8009 bound_to 7997
  155.6427  140.0682  157.2604 H   0  0  0  0  0  0  0  0  0  0  0  0  # atno 8010 bound_to 7997
  139.6531  144.0047  152.2175 H   0  0  0  0  0  0  0  0  0  0  0  0  # atno 10167 bound_to 10162
  157.3391  130.7538  149.6899 H   0  0  0  0  0  0  0  0  0  0  0  0  # atno 10718 bound_to 10713
  154.5246  135.2796  155.1233 H   0  0  0  0  0  0  0  0  0  0  0  0  # atno 10763 bound_to 10752
  154.2776  135.6291  153.5338 H   0  0  0  0  0  0  0  0  0  0  0  0  # atno 10764 bound_to 10752
  152.9944  135.5643  154.5744 H   0  0  0  0  0  0  0  0  0  0  0  0  # atno 10765 bound_to 10752
  141.0888  133.6637  156.3924 H   0  0  0  0  0  0  0  0  0  0  0  0  # atno 11005 bound_to 11000
  144.7435  140.5006  143.6852 LP  0  0  0  0  0  0  0  0  0  0  0  0  # atno 17320 bound_to 7965
  145.5848  139.1491  143.3215 LP  0  0  0  0  0  0  0  0  0  0  0  0  # atno 17321 bound_to 7965
  139.9767  144.6457  150.7939 LP  0  0  0  0  0  0  0  0  0  0  0  0  # atno 17342 bound_to 10162
  140.7547  143.3032  151.3028 LP  0  0  0  0  0  0  0  0  0  0  0  0  # atno 17343 bound_to 10162
  155.9705  130.4173  150.4272 LP  0  0  0  0  0  0  0  0  0  0  0  0  # atno 17370 bound_to 10713
  157.2317  131.0505  151.2488 LP  0  0  0  0  0  0  0  0  0  0  0  0  # atno 17371 bound_to 10713
  140.5301  134.6221  157.5347 LP  0  0  0  0  0  0  0  0  0  0  0  0  # atno 17394 bound_to 11000
  139.9710  134.7293  156.0041 LP  0  0  0  0  0  0  0  0  0  0  0  0  # atno 17395 bound_to 11000

$$$$
