AV-unprocessed.smi:3149|AV-procd|sdf|12006|dock1
  -GOLD-   2272017413D 1   1.00000     0.00000
 Structure written by MMmdl.
 37 38  0  0  0  0  0  0  0  0  1 V2000
  148.9593  141.2977  157.2089 C   0  0  0  0  0  0  0  0  0  0  0  0
  150.2122  141.3094  156.3101 C   0  0  1  0  0  0  0  0  0  0  0  0
  151.3484  140.7297  157.0221 N   0  0  0  0  0  0  0  0  0  0  0  0
  151.9542  141.6307  158.0087 C   0  0  0  0  0  0  0  0  0  0  0  0
  152.7581  140.8457  159.0478 C   0  0  0  0  0  0  0  0  0  0  0  0
  153.5037  139.9341  158.6902 O   0  0  0  0  0  0  0  0  0  0  0  0
  152.6897  141.2616  160.3805 N   0  0  0  0  0  0  0  0  0  0  0  0
  153.7985  141.0366  161.2949 C   0  0  0  0  0  0  0  0  0  0  0  0
  153.3126  142.2966  162.0194 C   0  0  0  0  0  0  0  0  0  0  0  0
  152.5438  142.6630  160.7460 C   0  0  0  0  0  0  0  0  0  0  0  0
  149.9884  140.5541  154.9713 C   0  0  1  0  0  0  0  0  0  0  0  0
  150.2354  139.0363  155.0829 C   0  0  0  0  0  0  0  0  0  0  0  0
  148.7061  140.8585  154.3391 N   0  0  0  0  0  0  0  0  0  0  0  0
  148.1311  142.0976  154.1403 C   0  0  0  0  0  0  0  0  0  0  0  0
  146.9217  141.8992  153.5388 C   0  0  0  0  0  0  0  0  0  0  0  0
  146.8361  140.4853  153.4122 C   0  0  0  0  0  0  0  0  0  0  0  0
  147.9003  139.8663  153.8950 N   0  0  0  0  0  0  0  0  0  0  0  0
  148.0820  141.6316  156.6545 H   0  0  0  0  0  0  0  0  0  0  0  0
  149.0665  141.9664  158.0625 H   0  0  0  0  0  0  0  0  0  0  0  0
  148.7467  140.3000  157.5943 H   0  0  0  0  0  0  0  0  0  0  0  0
  150.4496  142.3447  156.0601 H   0  0  0  0  0  0  0  0  0  0  0  0
  151.0830  139.8439  157.4293 H   0  0  0  0  0  0  0  0  0  0  0  0
  152.5990  142.3582  157.5139 H   0  0  0  0  0  0  0  0  0  0  0  0
  151.1784  142.1923  158.5288 H   0  0  0  0  0  0  0  0  0  0  0  0
  153.7163  140.1167  161.8745 H   0  0  0  0  0  0  0  0  0  0  0  0
  154.7794  141.1581  160.8306 H   0  0  0  0  0  0  0  0  0  0  0  0
  152.6637  142.0832  162.8705 H   0  0  0  0  0  0  0  0  0  0  0  0
  154.1064  142.9974  162.2801 H   0  0  0  0  0  0  0  0  0  0  0  0
  153.0949  143.3485  160.0997 H   0  0  0  0  0  0  0  0  0  0  0  0
  151.5122  142.9752  160.9112 H   0  0  0  0  0  0  0  0  0  0  0  0
  150.7509  140.9233  154.2836 H   0  0  0  0  0  0  0  0  0  0  0  0
  151.2342  138.8310  155.4692 H   0  0  0  0  0  0  0  0  0  0  0  0
  150.1555  138.5556  154.1076 H   0  0  0  0  0  0  0  0  0  0  0  0
  149.5203  138.5518  155.7483 H   0  0  0  0  0  0  0  0  0  0  0  0
  148.6253  143.0092  154.4426 H   0  0  0  0  0  0  0  0  0  0  0  0
  146.2055  142.6493  153.2380 H   0  0  0  0  0  0  0  0  0  0  0  0
  146.0368  139.8943  152.9900 H   0  0  0  0  0  0  0  0  0  0  0  0
  1  2  1  0  0  0  0
  1 18  1  0  0  0  0
  1 19  1  0  0  0  0
  1 20  1  0  0  0  0
  2  3  1  0  0  0  0
  2 11  1  0  0  0  0
  2 21  1  0  0  0  0
  3  4  1  0  0  0  0
  3 22  1  0  0  0  0
  4  5  1  0  0  0  0
  4 23  1  0  0  0  0
  4 24  1  0  0  0  0
  5  6  2  0  0  0  0
  5  7  1  0  0  0  0
  7 10  1  0  0  0  0
  7  8  1  0  0  0  0
  8  9  1  0  0  0  0
  8 25  1  0  0  0  0
  8 26  1  0  0  0  0
  9 10  1  0  0  0  0
  9 27  1  0  0  0  0
  9 28  1  0  0  0  0
 10 29  1  0  0  0  0
 10 30  1  0  0  0  0
 11 12  1  0  0  0  0
 11 13  1  0  0  0  0
 11 31  1  0  0  0  0
 12 32  1  0  0  0  0
 12 33  1  0  0  0  0
 12 34  1  0  0  0  0
 13 17  1  0  0  0  0
 13 14  1  0  0  0  0
 14 15  2  0  0  0  0
 14 35  1  0  0  0  0
 15 16  1  0  0  0  0
 15 36  1  0  0  0  0
 16 17  2  0  0  0  0
 16 37  1  0  0  0  0
M  END
> <s_m_source_file>
AV-unprocessed.smi

> <i_m_source_file_index>
3149

> <i_lp_mmshare_version>
43012

> <i_f3d_flags>
0

> <s_epik_input>
bjFbY0hdW2NIXVtjSF1uMVtDQEBIXShbQ0gzXSlbQ0BIXShbQ0gzXSlbTkhdW0NIMl1DKD1PKU4yW0NIMl1bQ0gyXVtDSDJdMg==

> <s_epik_cmdline>
J2VwaWtfcHl0aG9uJywgJy1waCcsICc3LjAnLCAnLXRuJywgJzgnLCAnLW1hJywgJzIwMCcsICctbWV0YWxfYmluZGluZycsICctaW1hZScsICc8aW5maWxlLm1hZT4nLCAnLW9tYWUnLCAnPG91dGZpbGUubWFlPic=

> <r_lp_tautomer_probability>
1

> <r_epik_Ionization_Penalty>
0.918674

> <r_epik_Ionization_Penalty_Charging>
0

> <r_epik_Ionization_Penalty_Neutral>
0.918674

> <r_epik_State_Penalty>
0.958258

> <r_epik_Charging_Adjusted_Penalty>
0.958258

> <i_epik_Tot_Q>
0

> <i_epik_Tot_abs_Q>
0

> <r_epik_Metal_State_Penalty>
0.956881

> <b_epik_Metal_Only>
0

> <s_lp_Force_Field>
OPLS_2005

> <r_lp_Energy>
24.8849

> <b_lp_Chiralities_Consistent>
1

> <s_lp_Variant>
AV-unprocessed.smi:3149-8

> <Gold.Version>
5.8.1

> <Gold.Id.Protein>
6NUR|6NUR_protein|mol2

> <Gold.PLP.Fitness>
43.3244

> <Gold.PLP.PLP>
-36.2474

> <Gold.PLP.part.hbond>
-1.0000

> <Gold.PLP.part.metal>
0.0000

> <Gold.PLP.part.buried>
-2.0182

> <Gold.PLP.part.nonpolar>
-32.5679

> <Gold.PLP.part.repulsive>
0.1536

> <Gold.PLP.ligand.clash>
0.0000

> <Gold.PLP.ligand.torsion>
1.4392

> <Gold.PLP.Chemscore.Hbond>
1.0000

> <Gold.PLP.Chemscore.CHOScore>
1.9136

> <Gold.PLP.Chemscore.Metal>
0.0000

> <Gold.Chemscore.Hbonds>
donor molecule, donor type, donor heavy atom, donor atom, acceptor molecule, acceptor atom, score
      P1  H  7997  8009       L1     6  1.00
      L1  C    14    35       P1  8028  1.00
      L1  C    16    37       P1 10175  1.00

> <Gold.PLP.Chemscore.Internal.Correction>
1.2148

> <Gold.Rescore>
     Score         DG    S(hbond)    S(metal)    S(lipo)     H(rot)  DE(clash)    DE(int)     intcor
     12.71     -14.08       0.92        0.00      86.31       1.79       0.18       1.19       ----

> <Gold.Chemscore.Fitness>
12.7086

> <Gold.Chemscore.DG>
-14.0804

> <Gold.Chemscore.ZeroCoef>
-5.4800

> <Gold.Chemscore.Hbond>
0.9216

> <Gold.Chemscore.Metal>
0.0000

> <Gold.Chemscore.Lipo>
86.3081

> <Gold.Chemscore.Internal_Hbond>
0.0000

> <Gold.Chemscore.DEClash>
0.1844

> <Gold.Chemscore.DEInternal>
1.1874

> <Gold.Chemscore.Rot>
1.7874

> <Gold.Chemscore.Internal.Correction>
   9.000000E+99

> <Gold.Chemscore.Hbonds>
donor molecule, donor type, donor heavy atom, donor atom, acceptor molecule, acceptor atom, score
      P1  H  7997  8009       L1     6  0.96

> <Gold.Chemscore.Hbond.Weighted>
-3.0782

> <Gold.Chemscore.Metal.Weighted>
-0.0000

> <Gold.Chemscore.Lipo.Weighted>
-10.0981

> <Gold.Chemscore.Internal_Hbond.Weighted>
0.0000

> <Gold.Chemscore.DEClash.Weighted>
0.1844

> <Gold.Chemscore.DEInternal.Weighted>
1.1874

> <Gold.Chemscore.Rot.Weighted>
4.5758

> <Gold.Chemscore.Internal.Correction.Weighted>
   9.000000E+99

> <Gold.Protein.RotatedTorsions>
[ 6907 6896 6895 6894 ] final   95.67 input  -60.11 | X-H torsion
[ 7974 7965 7964 7962 ] final   30.09 input  175.53 | X-H torsion
[ 8008 7997 7996 7995 ] final  141.92 input   59.86 | X-H torsion
[ 10167 10162 10161 10158 ] final   98.68 input  -65.29 | X-H torsion
[ 10718 10713 10712 10709 ] final -137.57 input   66.30 | X-H torsion
[ 10763 10752 10751 10750 ] final  110.56 input  -60.55 | X-H torsion
[ 11005 11000 10999 10996 ] final -150.85 input  -57.11 | X-H torsion

> <Gold.Protein.ActiveResidues>
 VAL166  LYS551  ARG553  GLY616  TRP617  ASP618  TYR619  PRO620  LYS621  CYS622 
 ASP623  PHE694  ASN695  SER759  ASP760  ASP761  ALA762  ILE779  LEU786  VAL792 
 PHE793  MET794  SER795  GLU796  ALA797  LYS798  CYS799  TRP800  GLU811  SER814 

> <Gold.Protein.RotatedAtoms>
  152.5442  134.1004  159.8314 H   0  0  0  0  0  0  0  0  0  0  0  0  # atno 6907 bound_to 6896
  151.1082  133.5185  159.2614 H   0  0  0  0  0  0  0  0  0  0  0  0  # atno 6908 bound_to 6896
  151.1914  135.0413  159.8888 H   0  0  0  0  0  0  0  0  0  0  0  0  # atno 6909 bound_to 6896
  146.1632  139.6834  142.9019 H   0  0  0  0  0  0  0  0  0  0  0  0  # atno 7974 bound_to 7965
  156.2958  140.2302  156.4644 H   0  0  0  0  0  0  0  0  0  0  0  0  # atno 8008 bound_to 7997
  154.7990  140.0449  157.1279 H   0  0  0  0  0  0  0  0  0  0  0  0  # atno 8009 bound_to 7997
  154.9556  140.3047  155.5058 H   0  0  0  0  0  0  0  0  0  0  0  0  # atno 8010 bound_to 7997
  139.7686  144.6930  151.0188 H   0  0  0  0  0  0  0  0  0  0  0  0  # atno 10167 bound_to 10162
  156.2896  130.7367  151.1389 H   0  0  0  0  0  0  0  0  0  0  0  0  # atno 10718 bound_to 10713
  153.4508  135.3744  155.2282 H   0  0  0  0  0  0  0  0  0  0  0  0  # atno 10763 bound_to 10752
  154.8756  135.3885  154.4041 H   0  0  0  0  0  0  0  0  0  0  0  0  # atno 10764 bound_to 10752
  153.4600  135.7086  153.6120 H   0  0  0  0  0  0  0  0  0  0  0  0  # atno 10765 bound_to 10752
  140.7358  134.3569  157.5157 H   0  0  0  0  0  0  0  0  0  0  0  0  # atno 11005 bound_to 11000
  145.4534  141.0429  143.2792 LP  0  0  0  0  0  0  0  0  0  0  0  0  # atno 17320 bound_to 7965
  144.8056  139.6057  143.7052 LP  0  0  0  0  0  0  0  0  0  0  0  0  # atno 17321 bound_to 7965
  140.7812  143.4614  151.0272 LP  0  0  0  0  0  0  0  0  0  0  0  0  # atno 17342 bound_to 10162
  139.8298  143.7706  152.3179 LP  0  0  0  0  0  0  0  0  0  0  0  0  # atno 17343 bound_to 10162
  157.7338  131.0587  150.5555 LP  0  0  0  0  0  0  0  0  0  0  0  0  # atno 17370 bound_to 10713
  156.5670  130.4270  149.6036 LP  0  0  0  0  0  0  0  0  0  0  0  0  # atno 17371 bound_to 10713
  139.8816  134.9048  156.2886 LP  0  0  0  0  0  0  0  0  0  0  0  0  # atno 17394 bound_to 11000
  140.9880  133.7226  156.0771 LP  0  0  0  0  0  0  0  0  0  0  0  0  # atno 17395 bound_to 11000

$$$$
