AV-unprocessed.smi:3123|AV-procd|sdf|11901|dock2
  -GOLD-   2272017283D 1   1.00000     0.00000
 Structure written by MMmdl.
 29 30  0  0  0  0  0  0  0  0  1 V2000
  147.3739  138.2638  151.3419 N   0  0  0  0  0  0  0  0  0  0  0  0
  146.6160  138.7482  152.4776 C   0  0  0  0  0  0  0  0  0  0  0  0
  147.4321  139.6682  153.3608 C   0  0  0  0  0  0  0  0  0  0  0  0
  147.0846  141.0271  153.4977 C   0  0  0  0  0  0  0  0  0  0  0  0
  147.8817  141.8412  154.3256 C   0  0  0  0  0  0  0  0  0  0  0  0
  148.9626  141.3856  154.9939 N   0  0  0  0  0  0  0  0  0  0  0  0
  149.2968  140.0793  154.8594 C   0  0  0  0  0  0  0  0  0  0  0  0
  150.4164  139.6019  155.5556 N   0  0  0  0  0  0  0  0  0  0  0  0
  151.4175  138.9848  154.6943 C   0  0  0  0  0  0  0  0  0  0  0  0
  152.5466  138.3815  155.5482 C   0  0  0  0  0  0  0  0  0  0  0  0
  153.1007  139.3883  156.3910 O   0  0  0  0  0  0  0  0  0  0  0  0
  152.1307  139.9346  157.2806 C   0  0  0  0  0  0  0  0  0  0  0  0
  150.9937  140.5797  156.4698 C   0  0  0  0  0  0  0  0  0  0  0  0
  148.5622  139.1858  154.0515 C   0  0  0  0  0  0  0  0  0  0  0  0
  147.9811  138.9949  151.0001 H   0  0  0  0  0  0  0  0  0  0  0  0
  147.9703  137.5034  151.6353 H   0  0  0  0  0  0  0  0  0  0  0  0
  145.7384  139.2845  152.1151 H   0  0  0  0  0  0  0  0  0  0  0  0
  146.2536  137.8981  153.0563 H   0  0  0  0  0  0  0  0  0  0  0  0
  146.2287  141.4374  152.9824 H   0  0  0  0  0  0  0  0  0  0  0  0
  147.6446  142.8869  154.4552 H   0  0  0  0  0  0  0  0  0  0  0  0
  150.9532  138.2087  154.0848 H   0  0  0  0  0  0  0  0  0  0  0  0
  151.8281  139.7302  154.0116 H   0  0  0  0  0  0  0  0  0  0  0  0
  152.1764  137.5513  156.1516 H   0  0  0  0  0  0  0  0  0  0  0  0
  153.3324  137.9838  154.9062 H   0  0  0  0  0  0  0  0  0  0  0  0
  151.7451  139.1545  157.9392 H   0  0  0  0  0  0  0  0  0  0  0  0
  152.6099  140.6800  157.9152 H   0  0  0  0  0  0  0  0  0  0  0  0
  151.3789  141.4310  155.9069 H   0  0  0  0  0  0  0  0  0  0  0  0
  150.2220  140.9583  157.1413 H   0  0  0  0  0  0  0  0  0  0  0  0
  148.8590  138.1505  153.9647 H   0  0  0  0  0  0  0  0  0  0  0  0
  1  2  1  0  0  0  0
  1 15  1  0  0  0  0
  1 16  1  0  0  0  0
  2  3  1  0  0  0  0
  2 17  1  0  0  0  0
  2 18  1  0  0  0  0
  3 14  1  0  0  0  0
  3  4  2  0  0  0  0
  4  5  1  0  0  0  0
  4 19  1  0  0  0  0
  5  6  2  0  0  0  0
  5 20  1  0  0  0  0
  6  7  1  0  0  0  0
  7  8  1  0  0  0  0
  7 14  2  0  0  0  0
  8 13  1  0  0  0  0
  8  9  1  0  0  0  0
  9 10  1  0  0  0  0
  9 21  1  0  0  0  0
  9 22  1  0  0  0  0
 10 11  1  0  0  0  0
 10 23  1  0  0  0  0
 10 24  1  0  0  0  0
 11 12  1  0  0  0  0
 12 13  1  0  0  0  0
 12 25  1  0  0  0  0
 12 26  1  0  0  0  0
 13 27  1  0  0  0  0
 13 28  1  0  0  0  0
 14 29  1  0  0  0  0
M  END
> <s_m_source_file>
AV-unprocessed.smi

> <i_m_source_file_index>
3123

> <i_lp_mmshare_version>
43012

> <i_f3d_flags>
0

> <s_epik_input>
W05IMl1bQ0gyXWMxW2NIXVtjSF1uYyhbY0hdMSlOMltDSDJdW0NIMl1PW0NIMl1bQ0gyXTI=

> <s_epik_cmdline>
J2VwaWtfcHl0aG9uJywgJy1waCcsICc3LjAnLCAnLXRuJywgJzgnLCAnLW1hJywgJzIwMCcsICctbWV0YWxfYmluZGluZycsICctaW1hZScsICc8aW5maWxlLm1hZT4nLCAnLW9tYWUnLCAnPG91dGZpbGUubWFlPic=

> <r_lp_tautomer_probability>
1

> <r_epik_Ionization_Penalty>
1.26929

> <r_epik_Ionization_Penalty_Charging>
0

> <r_epik_Ionization_Penalty_Neutral>
1.26929

> <r_epik_State_Penalty>
2.46732

> <r_epik_Charging_Adjusted_Penalty>
2.46732

> <i_epik_Tot_Q>
0

> <i_epik_Tot_abs_Q>
0

> <r_epik_Metal_State_Penalty>
2.44539

> <b_epik_Metal_Only>
0

> <s_lp_Force_Field>
OPLS_2005

> <r_lp_Energy>
17.6888

> <b_lp_Chiralities_Consistent>
1

> <s_lp_Variant>
AV-unprocessed.smi:3123-2

> <Gold.Version>
5.8.1

> <Gold.Id.Protein>
6NUR|6NUR_protein|mol2

> <Gold.PLP.Fitness>
40.6443

> <Gold.PLP.PLP>
-28.6990

> <Gold.PLP.part.hbond>
-3.9811

> <Gold.PLP.part.metal>
0.0000

> <Gold.PLP.part.buried>
-3.3203

> <Gold.PLP.part.nonpolar>
-22.9341

> <Gold.PLP.part.repulsive>
0.1537

> <Gold.PLP.ligand.clash>
0.0000

> <Gold.PLP.ligand.torsion>
0.0791

> <Gold.PLP.Chemscore.Hbond>
3.0000

> <Gold.PLP.Chemscore.CHOScore>
1.0000

> <Gold.PLP.Chemscore.Metal>
0.0000

> <Gold.Chemscore.Hbonds>
donor molecule, donor type, donor heavy atom, donor atom, acceptor molecule, acceptor atom, score
      L1  H     1    15       P1  7957  1.00
      L1  H     1    16       P1  7948  1.00
      P1  H  7997  8009       L1    11  0.76
      L1  C     5    20       P1  8028  1.00

> <Gold.PLP.Chemscore.Internal.Correction>
0.1035

> <Gold.Rescore>
     Score         DG    S(hbond)    S(metal)    S(lipo)     H(rot)  DE(clash)    DE(int)     intcor
     17.70     -17.87       2.76        0.00      55.34       1.29       0.04       0.13       ----

> <Gold.Chemscore.Fitness>
17.6973

> <Gold.Chemscore.DG>
-17.8700

> <Gold.Chemscore.ZeroCoef>
-5.4800

> <Gold.Chemscore.Hbond>
2.7578

> <Gold.Chemscore.Metal>
0.0000

> <Gold.Chemscore.Lipo>
55.3412

> <Gold.Chemscore.Internal_Hbond>
0.0000

> <Gold.Chemscore.DEClash>
0.0402

> <Gold.Chemscore.DEInternal>
0.1325

> <Gold.Chemscore.Rot>
1.2875

> <Gold.Chemscore.Internal.Correction>
   9.000000E+99

> <Gold.Chemscore.Hbonds>
donor molecule, donor type, donor heavy atom, donor atom, acceptor molecule, acceptor atom, score
      L1  H     1    15       P1  7957  0.25
      L1  H     1    16       P1  7948  0.98
      P1  H  7997  8009       L1    11  0.68

> <Gold.Chemscore.Hbond.Weighted>
-9.2112

> <Gold.Chemscore.Metal.Weighted>
-0.0000

> <Gold.Chemscore.Lipo.Weighted>
-6.4749

> <Gold.Chemscore.Internal_Hbond.Weighted>
0.0000

> <Gold.Chemscore.DEClash.Weighted>
0.0402

> <Gold.Chemscore.DEInternal.Weighted>
0.1325

> <Gold.Chemscore.Rot.Weighted>
3.2961

> <Gold.Chemscore.Internal.Correction.Weighted>
   9.000000E+99

> <Gold.Protein.RotatedTorsions>
[ 6907 6896 6895 6894 ] final -176.48 input  -60.11 | X-H torsion
[ 7974 7965 7964 7962 ] final  -72.29 input  175.53 | X-H torsion
[ 8008 7997 7996 7995 ] final -161.89 input   59.86 | X-H torsion
[ 10167 10162 10161 10158 ] final -128.52 input  -65.29 | X-H torsion
[ 10718 10713 10712 10709 ] final  156.63 input   66.30 | X-H torsion
[ 10763 10752 10751 10750 ] final  116.97 input  -60.55 | X-H torsion
[ 11005 11000 10999 10996 ] final  -48.80 input  -57.11 | X-H torsion

> <Gold.Protein.ActiveResidues>
 VAL166  LYS551  ARG553  GLY616  TRP617  ASP618  TYR619  PRO620  LYS621  CYS622 
 ASP623  PHE694  ASN695  SER759  ASP760  ASP761  ALA762  ILE779  LEU786  VAL792 
 PHE793  MET794  SER795  GLU796  ALA797  LYS798  CYS799  TRP800  GLU811  SER814 

> <Gold.Protein.RotatedAtoms>
  151.6055  133.3352  159.3056 H   0  0  0  0  0  0  0  0  0  0  0  0  # atno 6907 bound_to 6896
  150.8185  134.7383  159.6762 H   0  0  0  0  0  0  0  0  0  0  0  0  # atno 6908 bound_to 6896
  152.4280  134.5838  160.0007 H   0  0  0  0  0  0  0  0  0  0  0  0  # atno 6909 bound_to 6896
  145.6670  140.9233  143.0903 H   0  0  0  0  0  0  0  0  0  0  0  0  # atno 7974 bound_to 7965
  155.7987  140.0889  157.1969 H   0  0  0  0  0  0  0  0  0  0  0  0  # atno 8008 bound_to 7997
  154.3982  140.1476  156.3308 H   0  0  0  0  0  0  0  0  0  0  0  0  # atno 8009 bound_to 7997
  155.8484  140.3435  155.5680 H   0  0  0  0  0  0  0  0  0  0  0  0  # atno 8010 bound_to 7997
  139.9494  143.6073  152.2480 H   0  0  0  0  0  0  0  0  0  0  0  0  # atno 10167 bound_to 10162
  157.2023  131.0679  151.2018 H   0  0  0  0  0  0  0  0  0  0  0  0  # atno 10718 bound_to 10713
  153.5453  135.3550  155.2736 H   0  0  0  0  0  0  0  0  0  0  0  0  # atno 10763 bound_to 10752
  154.8713  135.4101  154.2998 H   0  0  0  0  0  0  0  0  0  0  0  0  # atno 10764 bound_to 10752
  153.3713  135.7064  153.6704 H   0  0  0  0  0  0  0  0  0  0  0  0  # atno 10765 bound_to 10752
  141.0722  133.6676  156.3493 H   0  0  0  0  0  0  0  0  0  0  0  0  # atno 11005 bound_to 11000
  144.7069  139.8523  143.7427 LP  0  0  0  0  0  0  0  0  0  0  0  0  # atno 17320 bound_to 7965
  146.1077  139.4078  143.0307 LP  0  0  0  0  0  0  0  0  0  0  0  0  # atno 17321 bound_to 7965
  139.6640  144.7662  151.1908 LP  0  0  0  0  0  0  0  0  0  0  0  0  # atno 17342 bound_to 10162
  140.7587  143.5966  150.8742 LP  0  0  0  0  0  0  0  0  0  0  0  0  # atno 17343 bound_to 10162
  157.3754  130.7203  149.6593 LP  0  0  0  0  0  0  0  0  0  0  0  0  # atno 17370 bound_to 10713
  155.9699  130.4187  150.4340 LP  0  0  0  0  0  0  0  0  0  0  0  0  # atno 17371 bound_to 10713
  140.5650  134.5897  157.5443 LP  0  0  0  0  0  0  0  0  0  0  0  0  # atno 17394 bound_to 11000
  139.9535  134.7576  156.0395 LP  0  0  0  0  0  0  0  0  0  0  0  0  # atno 17395 bound_to 11000

$$$$
