AV-unprocessed.smi:3120|AV-procd|sdf|11893|dock2
  -GOLD-   2272017283D 1   1.00000     0.00000
 Structure written by MMmdl.
 22 23  0  0  0  0  0  0  0  0  1 V2000
  150.3240  141.9896  158.0851 O   0  0  0  0  0  0  0  0  0  0  0  0
  150.7872  143.0339  158.5394 C   0  0  0  0  0  0  0  0  0  0  0  0
  150.6670  144.2400  157.9863 N   0  0  0  0  0  0  0  0  0  0  0  0
  151.3063  145.2932  158.7510 C   0  0  0  0  0  0  0  0  0  0  0  0
  152.1283  144.5561  159.8197 C   0  0  0  0  0  0  0  0  0  0  0  0
  151.5894  143.1145  159.8338 C   0  0  2  0  0  0  0  0  0  0  0  0
  152.6672  142.0394  159.9256 C   0  0  0  0  0  0  0  0  0  0  0  0
  153.5556  141.9671  161.0222 C   0  0  0  0  0  0  0  0  0  0  0  0
  154.5270  140.9483  161.0475 C   0  0  0  0  0  0  0  0  0  0  0  0
  154.5724  140.0392  159.9723 C   0  0  0  0  0  0  0  0  0  0  0  0
  153.7309  140.0960  158.9180 N   0  0  0  0  0  0  0  0  0  0  0  0
  152.8029  141.0770  158.9016 C   0  0  0  0  0  0  0  0  0  0  0  0
  150.1736  144.4184  157.1233 H   0  0  0  0  0  0  0  0  0  0  0  0
  151.9310  145.9195  158.1136 H   0  0  0  0  0  0  0  0  0  0  0  0
  150.5401  145.9211  159.2072 H   0  0  0  0  0  0  0  0  0  0  0  0
  153.1814  144.5774  159.5361 H   0  0  0  0  0  0  0  0  0  0  0  0
  152.0513  145.0313  160.7981 H   0  0  0  0  0  0  0  0  0  0  0  0
  150.8827  142.9989  160.6568 H   0  0  0  0  0  0  0  0  0  0  0  0
  153.4959  142.6796  161.8318 H   0  0  0  0  0  0  0  0  0  0  0  0
  155.2208  140.8659  161.8709 H   0  0  0  0  0  0  0  0  0  0  0  0
  155.3034  139.2444  159.9592 H   0  0  0  0  0  0  0  0  0  0  0  0
  152.1474  141.0914  158.0431 H   0  0  0  0  0  0  0  0  0  0  0  0
  1  2  2  0  0  0  0
  2  6  1  0  0  0  0
  2  3  1  0  0  0  0
  3  4  1  0  0  0  0
  3 13  1  0  0  0  0
  4  5  1  0  0  0  0
  4 14  1  0  0  0  0
  4 15  1  0  0  0  0
  5  6  1  0  0  0  0
  5 16  1  0  0  0  0
  5 17  1  0  0  0  0
  6  7  1  0  0  0  0
  6 18  1  0  0  0  0
  7 12  1  0  0  0  0
  7  8  2  0  0  0  0
  8  9  1  0  0  0  0
  8 19  1  0  0  0  0
  9 10  2  0  0  0  0
  9 20  1  0  0  0  0
 10 11  1  0  0  0  0
 10 21  1  0  0  0  0
 11 12  2  0  0  0  0
 12 22  1  0  0  0  0
M  END
> <s_m_source_file>
AV-unprocessed.smi

> <i_m_source_file_index>
3120

> <i_lp_mmshare_version>
43012

> <i_f3d_flags>
0

> <s_epik_input>
Tz1DMVtOSF1bQ0gyXVtDSDJdW0NASF0xYzJbY0hdW2NIXVtjSF1uW2NIXTI=

> <s_epik_cmdline>
J2VwaWtfcHl0aG9uJywgJy1waCcsICc3LjAnLCAnLXRuJywgJzgnLCAnLW1hJywgJzIwMCcsICctbWV0YWxfYmluZGluZycsICctaW1hZScsICc8aW5maWxlLm1hZT4nLCAnLW9tYWUnLCAnPG91dGZpbGUubWFlPic=

> <r_epik_Ionization_Penalty>
0.00558523

> <r_epik_Ionization_Penalty_Charging>
0

> <r_epik_Ionization_Penalty_Neutral>
0.00558523

> <r_epik_State_Penalty>
0.00409114

> <r_epik_Charging_Adjusted_Penalty>
0.00409114

> <i_epik_Tot_Q>
0

> <i_epik_Tot_abs_Q>
0

> <r_epik_Metal_State_Penalty>
-0

> <b_epik_Metal_Only>
0

> <s_lp_Force_Field>
OPLS_2005

> <r_lp_Energy>
14.9187

> <b_lp_Chiralities_Consistent>
1

> <s_lp_Variant>
AV-unprocessed.smi:3120-2

> <Gold.Version>
5.8.1

> <Gold.Id.Protein>
6NUR|6NUR_protein|mol2

> <Gold.PLP.Fitness>
34.8751

> <Gold.PLP.PLP>
-28.9515

> <Gold.PLP.part.hbond>
-2.0435

> <Gold.PLP.part.metal>
0.0000

> <Gold.PLP.part.buried>
-2.1064

> <Gold.PLP.part.nonpolar>
-23.9528

> <Gold.PLP.part.repulsive>
0.1223

> <Gold.PLP.ligand.clash>
0.0000

> <Gold.PLP.ligand.torsion>
0.0060

> <Gold.PLP.Chemscore.Hbond>
1.9760

> <Gold.PLP.Chemscore.CHOScore>
0.0000

> <Gold.PLP.Chemscore.Metal>
0.0000

> <Gold.Chemscore.Hbonds>
donor molecule, donor type, donor heavy atom, donor atom, acceptor molecule, acceptor atom, score
      L1  H     3    13       P1  8028  1.00
      P1  H  7997  8010       L1    11  0.99

> <Gold.PLP.Chemscore.Internal.Correction>
0.0075

> <Gold.Rescore>
     Score         DG    S(hbond)    S(metal)    S(lipo)     H(rot)  DE(clash)    DE(int)     intcor
     16.24     -17.69       1.65        0.00      79.08       1.00       0.00       1.45       ----

> <Gold.Chemscore.Fitness>
16.2408

> <Gold.Chemscore.DG>
-17.6942

> <Gold.Chemscore.ZeroCoef>
-5.4800

> <Gold.Chemscore.Hbond>
1.6533

> <Gold.Chemscore.Metal>
0.0000

> <Gold.Chemscore.Lipo>
79.0772

> <Gold.Chemscore.Internal_Hbond>
0.0000

> <Gold.Chemscore.DEClash>
0.0013

> <Gold.Chemscore.DEInternal>
1.4521

> <Gold.Chemscore.Rot>
1.0000

> <Gold.Chemscore.Internal.Correction>
   9.000000E+99

> <Gold.Chemscore.Hbonds>
donor molecule, donor type, donor heavy atom, donor atom, acceptor molecule, acceptor atom, score
      L1  H     3    13       P1  8028  0.69
      P1  H  7997  8010       L1    11  0.49

> <Gold.Chemscore.Hbond.Weighted>
-5.5221

> <Gold.Chemscore.Metal.Weighted>
-0.0000

> <Gold.Chemscore.Lipo.Weighted>
-9.2520

> <Gold.Chemscore.Internal_Hbond.Weighted>
0.0000

> <Gold.Chemscore.DEClash.Weighted>
0.0013

> <Gold.Chemscore.DEInternal.Weighted>
1.4521

> <Gold.Chemscore.Rot.Weighted>
2.5600

> <Gold.Chemscore.Internal.Correction.Weighted>
   9.000000E+99

> <Gold.Protein.RotatedTorsions>
[ 6907 6896 6895 6894 ] final  -82.36 input  -60.11 | X-H torsion
[ 7974 7965 7964 7962 ] final -166.52 input  175.53 | X-H torsion
[ 8008 7997 7996 7995 ] final   15.46 input   59.86 | X-H torsion
[ 10167 10162 10161 10158 ] final -169.79 input  -65.29 | X-H torsion
[ 10718 10713 10712 10709 ] final  -75.25 input   66.30 | X-H torsion
[ 10763 10752 10751 10750 ] final  160.30 input  -60.55 | X-H torsion
[ 11005 11000 10999 10996 ] final  129.36 input  -57.11 | X-H torsion

> <Gold.Protein.ActiveResidues>
 VAL166  LYS551  ARG553  GLY616  TRP617  ASP618  TYR619  PRO620  LYS621  CYS622 
 ASP623  PHE694  ASN695  SER759  ASP760  ASP761  ALA762  ILE779  LEU786  VAL792 
 PHE793  MET794  SER795  GLU796  ALA797  LYS798  CYS799  TRP800  GLU811  SER814 

> <Gold.Protein.RotatedAtoms>
  150.6898  134.3677  159.4977 H   0  0  0  0  0  0  0  0  0  0  0  0  # atno 6907 bound_to 6896
  152.1497  134.8995  160.0558 H   0  0  0  0  0  0  0  0  0  0  0  0  # atno 6908 bound_to 6896
  152.0098  133.3822  159.4252 H   0  0  0  0  0  0  0  0  0  0  0  0  # atno 6909 bound_to 6896
  144.7243  140.2654  143.6258 H   0  0  0  0  0  0  0  0  0  0  0  0  # atno 7974 bound_to 7965
  154.8629  140.2947  155.5528 H   0  0  0  0  0  0  0  0  0  0  0  0  # atno 8008 bound_to 7997
  156.3020  140.2474  156.3539 H   0  0  0  0  0  0  0  0  0  0  0  0  # atno 8009 bound_to 7997
  154.8899  140.0395  157.1821 H   0  0  0  0  0  0  0  0  0  0  0  0  # atno 8010 bound_to 7997
  139.5901  144.1232  152.1624 H   0  0  0  0  0  0  0  0  0  0  0  0  # atno 10167 bound_to 10162
  156.0214  130.4436  150.3015 H   0  0  0  0  0  0  0  0  0  0  0  0  # atno 10718 bound_to 10713
  154.2453  135.2773  155.2838 H   0  0  0  0  0  0  0  0  0  0  0  0  # atno 10763 bound_to 10752
  154.5511  135.5675  153.6926 H   0  0  0  0  0  0  0  0  0  0  0  0  # atno 10764 bound_to 10752
  152.9991  135.6274  154.2598 H   0  0  0  0  0  0  0  0  0  0  0  0  # atno 10765 bound_to 10752
  139.9611  134.9602  156.9137 H   0  0  0  0  0  0  0  0  0  0  0  0  # atno 11005 bound_to 11000
  145.8094  139.1997  143.2001 LP  0  0  0  0  0  0  0  0  0  0  0  0  # atno 17320 bound_to 7965
  146.0608  140.7972  142.9735 LP  0  0  0  0  0  0  0  0  0  0  0  0  # atno 17321 bound_to 7965
  140.0804  144.5705  150.7126 LP  0  0  0  0  0  0  0  0  0  0  0  0  # atno 17342 bound_to 10162
  140.7166  143.2550  151.4415 LP  0  0  0  0  0  0  0  0  0  0  0  0  # atno 17343 bound_to 10162
  157.1118  131.0223  151.3045 LP  0  0  0  0  0  0  0  0  0  0  0  0  # atno 17370 bound_to 10713
  157.4698  130.7702  149.7313 LP  0  0  0  0  0  0  0  0  0  0  0  0  # atno 17371 bound_to 10713
  140.5498  134.0638  155.7366 LP  0  0  0  0  0  0  0  0  0  0  0  0  # atno 17394 bound_to 11000
  141.1288  133.9337  157.2579 LP  0  0  0  0  0  0  0  0  0  0  0  0  # atno 17395 bound_to 11000

$$$$
