AV-unprocessed.smi:2859|AV-procd|sdf|11005|dock2
  -GOLD-   2272015463D 1   1.00000     0.00000
 Structure written by MMmdl.
 51 52  0  0  0  0  0  0  0  0  1 V2000
  152.1728  144.6528  161.0305 C   0  0  0  0  0  0  0  0  0  0  0  0
  151.6076  144.2215  159.6615 C   0  0  0  0  0  0  0  0  0  0  0  0
  150.0759  144.4050  159.6444 C   0  0  0  0  0  0  0  0  0  0  0  0
  152.2021  145.1663  158.5934 C   0  0  0  0  0  0  0  0  0  0  0  0
  151.9543  142.7460  159.3993 C   0  0  0  0  0  0  0  0  0  0  0  0
  152.8295  141.9904  160.2161 C   0  0  0  0  0  0  0  0  0  0  0  0
  153.0767  140.6483  159.8351 C   0  0  0  0  0  0  0  0  0  0  0  0
  153.9357  139.7922  160.5606 N   0  0  0  0  0  0  0  0  0  0  0  0
  155.1815  140.3397  161.0876 C   0  0  0  0  0  0  0  0  0  0  0  0
  155.8032  139.3732  162.1073 C   0  0  0  0  0  0  0  0  0  0  0  0
  155.9741  138.0944  161.5090 O   0  0  0  0  0  0  0  0  0  0  0  0
  154.7304  137.5096  161.1218 C   0  0  2  0  0  0  0  0  0  0  0  0
  154.9916  136.0955  160.5811 C   0  0  0  0  0  0  0  0  0  0  0  0
  156.2434  135.6331  160.6483 N   0  0  0  0  0  0  0  0  0  0  0  0
  154.0754  135.4158  160.1215 O   0  0  0  0  0  0  0  0  0  0  0  0
  154.0426  138.4160  160.0756 C   0  0  0  0  0  0  0  0  0  0  0  0
  152.4783  140.1336  158.7363 N   0  0  0  0  0  0  0  0  0  0  0  0
  151.6308  140.9035  158.0465 C   0  0  0  0  0  0  0  0  0  0  0  0
  151.0848  140.3429  156.7230 C   0  0  0  0  0  0  0  0  0  0  0  0
  152.2277  139.7692  155.8535 C   0  0  0  0  0  0  0  0  0  0  0  0
  150.4172  141.4540  155.8779 C   0  0  0  0  0  0  0  0  0  0  0  0
  150.0541  139.2389  157.0215 C   0  0  0  0  0  0  0  0  0  0  0  0
  151.3748  142.1881  158.3121 N   0  0  0  0  0  0  0  0  0  0  0  0
  151.9559  145.7012  161.2377 H   0  0  0  0  0  0  0  0  0  0  0  0
  153.2557  144.5273  161.0673 H   0  0  0  0  0  0  0  0  0  0  0  0
  151.7464  144.0693  161.8472 H   0  0  0  0  0  0  0  0  0  0  0  0
  149.5880  143.8137  160.4201 H   0  0  0  0  0  0  0  0  0  0  0  0
  149.6525  144.1017  158.6862 H   0  0  0  0  0  0  0  0  0  0  0  0
  149.7978  145.4460  159.8125 H   0  0  0  0  0  0  0  0  0  0  0  0
  151.9453  146.2062  158.7989 H   0  0  0  0  0  0  0  0  0  0  0  0
  151.8236  144.9367  157.5964 H   0  0  0  0  0  0  0  0  0  0  0  0
  153.2908  145.1069  158.5637 H   0  0  0  0  0  0  0  0  0  0  0  0
  153.3034  142.4249  161.0811 H   0  0  0  0  0  0  0  0  0  0  0  0
  155.8753  140.5161  160.2647 H   0  0  0  0  0  0  0  0  0  0  0  0
  154.9984  141.2961  161.5782 H   0  0  0  0  0  0  0  0  0  0  0  0
  156.7744  139.7453  162.4330 H   0  0  0  0  0  0  0  0  0  0  0  0
  155.1787  139.2910  162.9984 H   0  0  0  0  0  0  0  0  0  0  0  0
  154.0919  137.4111  162.0017 H   0  0  0  0  0  0  0  0  0  0  0  0
  156.4518  134.7040  160.3118 H   0  0  0  0  0  0  0  0  0  0  0  0
  156.9720  136.2094  161.0433 H   0  0  0  0  0  0  0  0  0  0  0  0
  153.0595  138.0035  159.8477 H   0  0  0  0  0  0  0  0  0  0  0  0
  154.6102  138.4201  159.1438 H   0  0  0  0  0  0  0  0  0  0  0  0
  151.8551  139.4137  154.8920 H   0  0  0  0  0  0  0  0  0  0  0  0
  152.7202  138.9222  156.3321 H   0  0  0  0  0  0  0  0  0  0  0  0
  152.9897  140.5229  155.6515 H   0  0  0  0  0  0  0  0  0  0  0  0
  151.1120  142.2695  155.6731 H   0  0  0  0  0  0  0  0  0  0  0  0
  149.5456  141.8790  156.3772 H   0  0  0  0  0  0  0  0  0  0  0  0
  150.0719  141.0692  154.9177 H   0  0  0  0  0  0  0  0  0  0  0  0
  149.6459  138.8164  156.1030 H   0  0  0  0  0  0  0  0  0  0  0  0
  149.2188  139.6256  157.6063 H   0  0  0  0  0  0  0  0  0  0  0  0
  150.5020  138.4222  157.5890 H   0  0  0  0  0  0  0  0  0  0  0  0
  1  2  1  0  0  0  0
  1 24  1  0  0  0  0
  1 25  1  0  0  0  0
  1 26  1  0  0  0  0
  2  3  1  0  0  0  0
  2  4  1  0  0  0  0
  2  5  1  0  0  0  0
  3 27  1  0  0  0  0
  3 28  1  0  0  0  0
  3 29  1  0  0  0  0
  4 30  1  0  0  0  0
  4 31  1  0  0  0  0
  4 32  1  0  0  0  0
  5 23  1  0  0  0  0
  5  6  2  0  0  0  0
  6  7  1  0  0  0  0
  6 33  1  0  0  0  0
  7  8  1  0  0  0  0
  7 17  2  0  0  0  0
  8 16  1  0  0  0  0
  8  9  1  0  0  0  0
  9 10  1  0  0  0  0
  9 34  1  0  0  0  0
  9 35  1  0  0  0  0
 10 11  1  0  0  0  0
 10 36  1  0  0  0  0
 10 37  1  0  0  0  0
 11 12  1  0  0  0  0
 12 13  1  0  0  0  0
 12 16  1  0  0  0  0
 12 38  1  0  0  0  0
 13 14  1  0  0  0  0
 13 15  2  0  0  0  0
 14 39  1  0  0  0  0
 14 40  1  0  0  0  0
 16 41  1  0  0  0  0
 16 42  1  0  0  0  0
 17 18  1  0  0  0  0
 18 19  1  0  0  0  0
 18 23  2  0  0  0  0
 19 20  1  0  0  0  0
 19 21  1  0  0  0  0
 19 22  1  0  0  0  0
 20 43  1  0  0  0  0
 20 44  1  0  0  0  0
 20 45  1  0  0  0  0
 21 46  1  0  0  0  0
 21 47  1  0  0  0  0
 21 48  1  0  0  0  0
 22 49  1  0  0  0  0
 22 50  1  0  0  0  0
 22 51  1  0  0  0  0
M  END
> <s_m_source_file>
AV-unprocessed.smi

> <i_m_source_file_index>
2859

> <i_lp_mmshare_version>
43012

> <i_f3d_flags>
0

> <s_epik_input>
W0NIM11DKFtDSDNdKShbQ0gzXSljMVtjSF1jKG5jKG4xKUMoW0NIM10pKFtDSDNdKVtDSDNdKU4yW0NIMl1bQ0gyXU9bQ0BIXShbQ0gyXTIpQyg9TylbTkgyXQ==

> <s_epik_cmdline>
J2VwaWtfcHl0aG9uJywgJy1waCcsICc3LjAnLCAnLXRuJywgJzgnLCAnLW1hJywgJzIwMCcsICctbWV0YWxfYmluZGluZycsICctaW1hZScsICc8aW5maWxlLm1hZT4nLCAnLW9tYWUnLCAnPG91dGZpbGUubWFlPic=

> <r_lp_tautomer_probability>
1

> <r_epik_Ionization_Penalty>
0.0011326

> <r_epik_Ionization_Penalty_Charging>
0

> <r_epik_Ionization_Penalty_Neutral>
0.0011326

> <r_epik_State_Penalty>
0.000721507

> <r_epik_Charging_Adjusted_Penalty>
0.000721507

> <i_epik_Tot_Q>
0

> <i_epik_Tot_abs_Q>
0

> <r_epik_Metal_State_Penalty>
-0

> <b_epik_Metal_Only>
0

> <s_lp_Force_Field>
OPLS_2005

> <r_lp_Energy>
9.68103

> <b_lp_Chiralities_Consistent>
1

> <s_lp_Variant>
AV-unprocessed.smi:2859-2

> <Gold.Version>
5.8.1

> <Gold.Id.Protein>
6NUR|6NUR_protein|mol2

> <Gold.PLP.Fitness>
43.2321

> <Gold.PLP.PLP>
-41.1753

> <Gold.PLP.part.hbond>
-1.0000

> <Gold.PLP.part.metal>
0.0000

> <Gold.PLP.part.buried>
-5.5884

> <Gold.PLP.part.nonpolar>
-33.8747

> <Gold.PLP.part.repulsive>
0.0363

> <Gold.PLP.ligand.clash>
0.0000

> <Gold.PLP.ligand.torsion>
0.7862

> <Gold.PLP.Chemscore.Hbond>
1.0000

> <Gold.PLP.Chemscore.CHOScore>
0.0000

> <Gold.PLP.Chemscore.Metal>
0.0000

> <Gold.Chemscore.Hbonds>
donor molecule, donor type, donor heavy atom, donor atom, acceptor molecule, acceptor atom, score
      P1  H  6896  6907       L1    15  1.00

> <Gold.PLP.Chemscore.Internal.Correction>
0.6291

> <Gold.Rescore>
     Score         DG    S(hbond)    S(metal)    S(lipo)     H(rot)  DE(clash)    DE(int)     intcor
     16.25     -17.21       1.00        0.00     111.88       1.83       0.00       0.95       ----

> <Gold.Chemscore.Fitness>
16.2497

> <Gold.Chemscore.DG>
-17.2079

> <Gold.Chemscore.ZeroCoef>
-5.4800

> <Gold.Chemscore.Hbond>
0.9965

> <Gold.Chemscore.Metal>
0.0000

> <Gold.Chemscore.Lipo>
111.8816

> <Gold.Chemscore.Internal_Hbond>
0.0000

> <Gold.Chemscore.DEClash>
0.0048

> <Gold.Chemscore.DEInternal>
0.9534

> <Gold.Chemscore.Rot>
1.8323

> <Gold.Chemscore.Internal.Correction>
   9.000000E+99

> <Gold.Chemscore.Hbonds>
donor molecule, donor type, donor heavy atom, donor atom, acceptor molecule, acceptor atom, score
      P1  H  6896  6907       L1    15  1.00

> <Gold.Chemscore.Hbond.Weighted>
-3.3284

> <Gold.Chemscore.Metal.Weighted>
-0.0000

> <Gold.Chemscore.Lipo.Weighted>
-13.0901

> <Gold.Chemscore.Internal_Hbond.Weighted>
0.0000

> <Gold.Chemscore.DEClash.Weighted>
0.0048

> <Gold.Chemscore.DEInternal.Weighted>
0.9534

> <Gold.Chemscore.Rot.Weighted>
4.6907

> <Gold.Chemscore.Internal.Correction.Weighted>
   9.000000E+99

> <Gold.Protein.RotatedTorsions>
[ 6907 6896 6895 6894 ] final   58.70 input  -60.11 | X-H torsion
[ 7974 7965 7964 7962 ] final  -30.68 input  175.53 | X-H torsion
[ 8008 7997 7996 7995 ] final  -63.51 input   59.86 | X-H torsion
[ 10167 10162 10161 10158 ] final   39.29 input  -65.29 | X-H torsion
[ 10718 10713 10712 10709 ] final  112.21 input   66.30 | X-H torsion
[ 10763 10752 10751 10750 ] final  159.61 input  -60.55 | X-H torsion
[ 11005 11000 10999 10996 ] final -170.68 input  -57.11 | X-H torsion

> <Gold.Protein.ActiveResidues>
 VAL166  LYS551  ARG553  GLY616  TRP617  ASP618  TYR619  PRO620  LYS621  CYS622 
 ASP623  PHE694  ASN695  SER759  ASP760  ASP761  ALA762  ILE779  LEU786  VAL792 
 PHE793  MET794  SER795  GLU796  ALA797  LYS798  CYS799  TRP800  GLU811  SER814 

> <Gold.Protein.RotatedAtoms>
  152.3848  134.6534  160.0129 H   0  0  0  0  0  0  0  0  0  0  0  0  # atno 6907 bound_to 6896
  151.6786  133.3307  159.3222 H   0  0  0  0  0  0  0  0  0  0  0  0  # atno 6908 bound_to 6896
  150.7777  134.6737  159.6450 H   0  0  0  0  0  0  0  0  0  0  0  0  # atno 6909 bound_to 6896
  146.1125  140.5571  142.8772 H   0  0  0  0  0  0  0  0  0  0  0  0  # atno 7974 bound_to 7965
  154.4558  140.0973  156.6753 H   0  0  0  0  0  0  0  0  0  0  0  0  # atno 8008 bound_to 7997
  155.5142  140.3477  155.4376 H   0  0  0  0  0  0  0  0  0  0  0  0  # atno 8009 bound_to 7997
  156.0775  140.1364  156.9742 H   0  0  0  0  0  0  0  0  0  0  0  0  # atno 8010 bound_to 7997
  140.3854  144.1924  150.6130 H   0  0  0  0  0  0  0  0  0  0  0  0  # atno 10167 bound_to 10162
  157.6404  131.0964  150.6862 H   0  0  0  0  0  0  0  0  0  0  0  0  # atno 10718 bound_to 10713
  154.2345  135.2777  155.2877 H   0  0  0  0  0  0  0  0  0  0  0  0  # atno 10763 bound_to 10752
  154.5596  135.5651  153.6998 H   0  0  0  0  0  0  0  0  0  0  0  0  # atno 10764 bound_to 10752
  153.0013  135.6294  154.2488 H   0  0  0  0  0  0  0  0  0  0  0  0  # atno 10765 bound_to 10752
  140.5168  134.5748  157.5036 H   0  0  0  0  0  0  0  0  0  0  0  0  # atno 11005 bound_to 11000
  144.7523  140.5223  143.6793 LP  0  0  0  0  0  0  0  0  0  0  0  0  # atno 17320 bound_to 7965
  145.5635  139.1480  143.3328 LP  0  0  0  0  0  0  0  0  0  0  0  0  # atno 17321 bound_to 7965
  140.4894  143.2352  151.8840 LP  0  0  0  0  0  0  0  0  0  0  0  0  # atno 17342 bound_to 10162
  139.4792  144.5182  151.8838 LP  0  0  0  0  0  0  0  0  0  0  0  0  # atno 17343 bound_to 10162
  156.7187  130.4674  149.5528 LP  0  0  0  0  0  0  0  0  0  0  0  0  # atno 17370 bound_to 10713
  156.1680  130.6418  151.0802 LP  0  0  0  0  0  0  0  0  0  0  0  0  # atno 17371 bound_to 10713
  139.9628  134.7424  156.0201 LP  0  0  0  0  0  0  0  0  0  0  0  0  # atno 17394 bound_to 11000
  141.1356  133.6576  156.3584 LP  0  0  0  0  0  0  0  0  0  0  0  0  # atno 17395 bound_to 11000

$$$$
