AV-unprocessed.smi:135|AV-procd|sdf|1169|dock6
  -GOLD-   2262018313D 1   1.00000     0.00000
 Structure written by MMmdl.
 51 54  0  0  0  0  0  0  0  0  1 V2000
  152.0326  136.8785  155.7810 O   0  0  0  0  0  0  0  0  0  0  0  0
  151.2820  137.0257  154.8156 C   0  0  0  0  0  0  0  0  0  0  0  0
  151.2795  138.3402  154.0206 C   0  0  0  0  0  0  0  0  0  0  0  0
  150.7372  139.4866  154.7815 N   0  0  0  0  0  0  0  0  0  0  0  0
  149.3581  139.7864  154.6589 C   0  0  0  0  0  0  0  0  0  0  0  0
  148.6185  139.1093  153.9435 O   0  0  0  0  0  0  0  0  0  0  0  0
  148.8944  140.9391  155.4225 C   0  0  0  0  0  0  0  0  0  0  0  0
  147.6013  141.2999  155.3619 F   0  0  0  0  0  0  0  0  0  0  0  0
  149.7438  141.6536  156.1890 C   0  0  0  0  0  0  0  0  0  0  0  0
  151.0883  141.3460  156.3048 N   0  0  0  0  0  0  0  0  0  0  0  0
  152.0362  142.1787  157.1446 C   0  0  2  0  0  0  0  0  0  0  0  0
  152.5170  141.3876  158.3786 C   0  0  0  0  0  0  0  0  0  0  0  0
  152.1722  142.3113  159.5307 C   0  0  0  0  0  0  0  0  0  0  0  0
  150.9850  143.0825  158.9753 C   0  0  0  0  0  0  0  0  0  0  0  0
  151.3732  143.3123  157.6280 O   0  0  0  0  0  0  0  0  0  0  0  0
  151.6174  140.2564  155.5786 C   0  0  0  0  0  0  0  0  0  0  0  0
  152.8193  139.9882  155.6378 O   0  0  0  0  0  0  0  0  0  0  0  0
  150.4234  136.0902  154.3750 N   0  0  0  0  0  0  0  0  0  0  0  0
  150.2309  134.7774  154.8807 C   0  0  0  0  0  0  0  0  0  0  0  0
  151.2540  134.0755  155.5621 C   0  0  0  0  0  0  0  0  0  0  0  0
  151.0080  132.7917  156.0848 C   0  0  0  0  0  0  0  0  0  0  0  0
  149.7372  132.2046  155.9440 C   0  0  0  0  0  0  0  0  0  0  0  0
  148.7113  132.9026  155.2801 C   0  0  0  0  0  0  0  0  0  0  0  0
  148.9528  134.1840  154.7433 C   0  0  0  0  0  0  0  0  0  0  0  0
  147.9318  134.8391  154.1006 O   0  0  0  0  0  0  0  0  0  0  0  0
  147.0843  134.0809  153.3318 C   0  0  0  0  0  0  0  0  0  0  0  0
  147.5760  133.2520  152.2991 C   0  0  0  0  0  0  0  0  0  0  0  0
  146.6859  132.4853  151.5221 C   0  0  0  0  0  0  0  0  0  0  0  0
  145.3020  132.5392  151.7764 C   0  0  0  0  0  0  0  0  0  0  0  0
  144.8087  133.3561  152.8118 C   0  0  0  0  0  0  0  0  0  0  0  0
  145.6987  134.1220  153.5894 C   0  0  0  0  0  0  0  0  0  0  0  0
  152.2943  138.5539  153.6798 H   0  0  0  0  0  0  0  0  0  0  0  0
  150.7216  138.1774  153.0973 H   0  0  0  0  0  0  0  0  0  0  0  0
  149.3356  142.4984  156.7223 H   0  0  0  0  0  0  0  0  0  0  0  0
  152.8359  142.4797  156.4655 H   0  0  0  0  0  0  0  0  0  0  0  0
  151.9695  140.4480  158.4671 H   0  0  0  0  0  0  0  0  0  0  0  0
  153.5833  141.1711  158.3107 H   0  0  0  0  0  0  0  0  0  0  0  0
  151.9418  141.7775  160.4529 H   0  0  0  0  0  0  0  0  0  0  0  0
  153.0011  142.9930  159.7261 H   0  0  0  0  0  0  0  0  0  0  0  0
  150.0774  142.4783  159.0098 H   0  0  0  0  0  0  0  0  0  0  0  0
  150.8003  144.0162  159.5064 H   0  0  0  0  0  0  0  0  0  0  0  0
  149.9420  136.2995  153.5127 H   0  0  0  0  0  0  0  0  0  0  0  0
  152.2293  134.5154  155.7062 H   0  0  0  0  0  0  0  0  0  0  0  0
  151.7934  132.2612  156.6028 H   0  0  0  0  0  0  0  0  0  0  0  0
  149.5477  131.2219  156.3498 H   0  0  0  0  0  0  0  0  0  0  0  0
  147.7354  132.4517  155.1768 H   0  0  0  0  0  0  0  0  0  0  0  0
  148.6358  133.2035  152.0982 H   0  0  0  0  0  0  0  0  0  0  0  0
  147.0650  131.8559  150.7306 H   0  0  0  0  0  0  0  0  0  0  0  0
  144.6195  131.9530  151.1790 H   0  0  0  0  0  0  0  0  0  0  0  0
  143.7476  133.3976  153.0080 H   0  0  0  0  0  0  0  0  0  0  0  0
  145.3154  134.7494  154.3805 H   0  0  0  0  0  0  0  0  0  0  0  0
  1  2  2  0  0  0  0
  2  3  1  0  0  0  0
  2 18  1  0  0  0  0
  3  4  1  0  0  0  0
  3 32  1  0  0  0  0
  3 33  1  0  0  0  0
  4 16  1  0  0  0  0
  4  5  1  0  0  0  0
  5  6  2  0  0  0  0
  5  7  1  0  0  0  0
  7  8  1  0  0  0  0
  7  9  2  0  0  0  0
  9 10  1  0  0  0  0
  9 34  1  0  0  0  0
 10 11  1  0  0  0  0
 10 16  1  0  0  0  0
 11 15  1  0  0  0  0
 11 12  1  0  0  0  0
 11 35  1  0  0  0  0
 12 13  1  0  0  0  0
 12 36  1  0  0  0  0
 12 37  1  0  0  0  0
 13 14  1  0  0  0  0
 13 38  1  0  0  0  0
 13 39  1  0  0  0  0
 14 15  1  0  0  0  0
 14 40  1  0  0  0  0
 14 41  1  0  0  0  0
 16 17  2  0  0  0  0
 18 19  1  0  0  0  0
 18 42  1  0  0  0  0
 19 24  1  0  0  0  0
 19 20  2  0  0  0  0
 20 21  1  0  0  0  0
 20 43  1  0  0  0  0
 21 22  2  0  0  0  0
 21 44  1  0  0  0  0
 22 23  1  0  0  0  0
 22 45  1  0  0  0  0
 23 24  2  0  0  0  0
 23 46  1  0  0  0  0
 24 25  1  0  0  0  0
 25 26  1  0  0  0  0
 26 31  1  0  0  0  0
 26 27  2  0  0  0  0
 27 28  1  0  0  0  0
 27 47  1  0  0  0  0
 28 29  2  0  0  0  0
 28 48  1  0  0  0  0
 29 30  1  0  0  0  0
 29 49  1  0  0  0  0
 30 31  2  0  0  0  0
 30 50  1  0  0  0  0
 31 51  1  0  0  0  0
M  END
> <s_m_source_file>
AV-unprocessed.smi

> <i_m_source_file_index>
135

> <i_lp_mmshare_version>
43012

> <i_f3d_flags>
0

> <s_epik_input>
TzFbQ0gyXVtDSDJdW0NIMl1bQ0BIXTFuKGMyPU8pW2NIXWMoRiljKD1PKW4yW0NIMl1DKD1PKVtOSF1jM1tjSF1bY0hdW2NIXVtjSF1jM09jNFtjSF1bY0hdW2NIXVtjSF1bY0hdNA==

> <s_epik_cmdline>
J2VwaWtfcHl0aG9uJywgJy1waCcsICc3LjAnLCAnLXRuJywgJzgnLCAnLW1hJywgJzIwMCcsICctbWV0YWxfYmluZGluZycsICctaW1hZScsICc8aW5maWxlLm1hZT4nLCAnLW9tYWUnLCAnPG91dGZpbGUubWFlPic=

> <r_lp_tautomer_probability>
1

> <r_epik_Ionization_Penalty>
1.89877e-06

> <r_epik_Ionization_Penalty_Charging>
3.88729e-08

> <r_epik_Ionization_Penalty_Neutral>
1.8599e-06

> <r_epik_State_Penalty>
-0

> <r_epik_Charging_Adjusted_Penalty>
3.88729e-08

> <i_epik_Tot_Q>
0

> <i_epik_Tot_abs_Q>
0

> <r_epik_Metal_State_Penalty>
-0

> <b_epik_Metal_Only>
0

> <s_epik_Chemistry_Notes>
This compound contains an acetal/aminal-like group ( X-CH(R)-Y where X, Y are N, S, or O) that may be acid/base labile, releasing an aldehyde.

> <s_lp_Force_Field>
OPLS_2005

> <r_lp_Energy>
40.0565

> <b_lp_Chiralities_Consistent>
1

> <s_lp_Variant>
AV-unprocessed.smi:135-1

> <Gold.Version>
5.8.1

> <Gold.Id.Protein>
6NUR|6NUR_protein|mol2

> <Gold.PLP.Fitness>
55.1398

> <Gold.PLP.PLP>
-45.2756

> <Gold.PLP.part.hbond>
-4.0000

> <Gold.PLP.part.metal>
0.0000

> <Gold.PLP.part.buried>
-6.3468

> <Gold.PLP.part.nonpolar>
-38.6818

> <Gold.PLP.part.repulsive>
4.0509

> <Gold.PLP.ligand.clash>
0.0000

> <Gold.PLP.ligand.torsion>
1.0789

> <Gold.PLP.Chemscore.Hbond>
2.9913

> <Gold.PLP.Chemscore.CHOScore>
1.0000

> <Gold.PLP.Chemscore.Metal>
0.0000

> <Gold.Chemscore.Hbonds>
donor molecule, donor type, donor heavy atom, donor atom, acceptor molecule, acceptor atom, score
      L1  H    18    42       P1  7948  0.75
      P1  H  7997  8010       L1    17  1.00
      P1  H 10752 10764       L1     1  0.85
      L1  C     9    34       P1  8028  0.88

> <Gold.PLP.Chemscore.Internal.Correction>
0.0483

> <Gold.Rescore>
     Score         DG    S(hbond)    S(metal)    S(lipo)     H(rot)  DE(clash)    DE(int)     intcor
     15.85     -18.89       2.41        0.00      90.40       2.04       0.54       2.50       ----

> <Gold.Chemscore.Fitness>
15.8455

> <Gold.Chemscore.DG>
-18.8889

> <Gold.Chemscore.ZeroCoef>
-5.4800

> <Gold.Chemscore.Hbond>
2.4098

> <Gold.Chemscore.Metal>
0.0000

> <Gold.Chemscore.Lipo>
90.3998

> <Gold.Chemscore.Internal_Hbond>
0.0000

> <Gold.Chemscore.DEClash>
0.5428

> <Gold.Chemscore.DEInternal>
2.5006

> <Gold.Chemscore.Rot>
2.0377

> <Gold.Chemscore.Internal.Correction>
   9.000000E+99

> <Gold.Chemscore.Hbonds>
donor molecule, donor type, donor heavy atom, donor atom, acceptor molecule, acceptor atom, score
      L1  H    18    42       P1  7948  0.09
      P1  H  7997  8010       L1    17  0.99
      P1  H 10752 10764       L1     1  0.14

> <Gold.Chemscore.Hbond.Weighted>
-8.0487

> <Gold.Chemscore.Metal.Weighted>
-0.0000

> <Gold.Chemscore.Lipo.Weighted>
-10.5768

> <Gold.Chemscore.Internal_Hbond.Weighted>
0.0000

> <Gold.Chemscore.DEClash.Weighted>
0.5428

> <Gold.Chemscore.DEInternal.Weighted>
2.5006

> <Gold.Chemscore.Rot.Weighted>
5.2165

> <Gold.Chemscore.Internal.Correction.Weighted>
   9.000000E+99

> <Gold.Protein.RotatedTorsions>
[ 6907 6896 6895 6894 ] final  150.16 input  -60.11 | X-H torsion
[ 7974 7965 7964 7962 ] final -108.71 input  175.53 | X-H torsion
[ 8008 7997 7996 7995 ] final  103.73 input   59.86 | X-H torsion
[ 10167 10162 10161 10158 ] final   24.65 input  -65.29 | X-H torsion
[ 10718 10713 10712 10709 ] final -127.75 input   66.30 | X-H torsion
[ 10763 10752 10751 10750 ] final  -31.12 input  -60.55 | X-H torsion
[ 11005 11000 10999 10996 ] final   61.84 input  -57.11 | X-H torsion

> <Gold.Protein.ActiveResidues>
 VAL166  LYS551  ARG553  GLY616  TRP617  ASP618  TYR619  PRO620  LYS621  CYS622 
 ASP623  PHE694  ASN695  SER759  ASP760  ASP761  ALA762  ILE779  LEU786  VAL792 
 PHE793  MET794  SER795  GLU796  ALA797  LYS798  CYS799  TRP800  GLU811  SER814 

> <Gold.Protein.RotatedAtoms>
  152.1182  133.4338  159.4662 H   0  0  0  0  0  0  0  0  0  0  0  0  # atno 6907 bound_to 6896
  150.6870  134.2567  159.4542 H   0  0  0  0  0  0  0  0  0  0  0  0  # atno 6908 bound_to 6896
  152.0441  134.9693  160.0625 H   0  0  0  0  0  0  0  0  0  0  0  0  # atno 6909 bound_to 6896
  145.1895  140.9008  143.3433 H   0  0  0  0  0  0  0  0  0  0  0  0  # atno 7974 bound_to 7965
  156.1511  140.3159  155.8649 H   0  0  0  0  0  0  0  0  0  0  0  0  # atno 8008 bound_to 7997
  155.3970  140.0497  157.3055 H   0  0  0  0  0  0  0  0  0  0  0  0  # atno 8009 bound_to 7997
  154.5059  140.2146  155.9264 H   0  0  0  0  0  0  0  0  0  0  0  0  # atno 8010 bound_to 7997
  140.5171  144.0065  150.6399 H   0  0  0  0  0  0  0  0  0  0  0  0  # atno 10167 bound_to 10162
  156.1886  130.6780  151.0396 H   0  0  0  0  0  0  0  0  0  0  0  0  # atno 10718 bound_to 10713
  153.7921  135.6897  153.4870 H   0  0  0  0  0  0  0  0  0  0  0  0  # atno 10763 bound_to 10752
  153.1743  135.4531  154.9942 H   0  0  0  0  0  0  0  0  0  0  0  0  # atno 10764 bound_to 10752
  154.8040  135.3349  154.7416 H   0  0  0  0  0  0  0  0  0  0  0  0  # atno 10765 bound_to 10752
  140.0133  134.6262  155.9747 H   0  0  0  0  0  0  0  0  0  0  0  0  # atno 11005 bound_to 11000
  145.0056  139.3558  143.6146 LP  0  0  0  0  0  0  0  0  0  0  0  0  # atno 17320 bound_to 7965
  146.3439  139.9297  142.8755 LP  0  0  0  0  0  0  0  0  0  0  0  0  # atno 17321 bound_to 7965
  140.3403  143.3023  152.0595 LP  0  0  0  0  0  0  0  0  0  0  0  0  # atno 17342 bound_to 10162
  139.4912  144.6447  151.6804 LP  0  0  0  0  0  0  0  0  0  0  0  0  # atno 17343 bound_to 10162
  157.6915  131.0808  150.7094 LP  0  0  0  0  0  0  0  0  0  0  0  0  # atno 17370 bound_to 10713
  156.7151  130.4663  149.5537 LP  0  0  0  0  0  0  0  0  0  0  0  0  # atno 17371 bound_to 10713
  141.1726  133.6538  156.4708 LP  0  0  0  0  0  0  0  0  0  0  0  0  # atno 17394 bound_to 11000
  140.4515  134.6924  157.5042 LP  0  0  0  0  0  0  0  0  0  0  0  0  # atno 17395 bound_to 11000

$$$$
