AV-unprocessed.smi:2772|AV-procd|sdf|10671|dock6
  -GOLD-   2272015123D 1   1.00000     0.00000
 Structure written by MMmdl.
 54 56  0  0  0  0  0  0  0  0  2 V2000
  148.0910  136.1926  163.7992 C   0  0  0  0  0  0  0  0  0  0  0  0
  147.9888  135.2556  162.6141 C   0  0  0  0  0  0  0  0  0  0  0  0
  147.5558  133.9239  162.7791 C   0  0  0  0  0  0  0  0  0  0  0  0
  147.4732  133.0971  161.6423 C   0  0  0  0  0  0  0  0  0  0  0  0
  147.8220  133.6335  160.3793 C   0  0  0  0  0  0  0  0  0  0  0  0
  147.8025  132.8950  159.1654 N   0  0  0  0  0  0  0  0  0  0  0  0
  148.6042  133.0279  158.0948 C   0  0  0  0  0  0  0  0  0  0  0  0
  149.5491  133.8115  158.0077 O   0  0  0  0  0  0  0  0  0  0  0  0
  148.2570  132.1726  157.1221 N   0  0  0  0  0  0  0  0  0  0  0  0
  148.9176  132.0406  155.8258 C   0  0  2  0  0  0  0  0  0  0  0  0
  148.7040  133.3207  154.9972 C   0  0  0  0  0  0  0  0  0  0  0  0
  149.2381  133.1492  153.5623 C   0  0  0  0  0  0  0  0  0  0  0  0
  148.6090  131.9862  152.8734 N   0  3  2  0  0  0  0  0  0  0  0  0
  147.1672  132.1673  152.4911 C   0  0  0  0  0  0  0  0  0  0  0  0
  146.6236  130.9646  151.6828 C   0  0  0  0  0  0  0  0  0  0  0  0
  145.1895  131.1993  151.1797 C   0  0  0  0  0  0  0  0  0  0  0  0
  145.1404  132.3938  150.3420 N   0  0  0  0  0  0  0  0  0  0  0  0
  143.7919  132.5588  149.8175 C   0  0  0  0  0  0  0  0  0  0  0  0
  145.4922  133.5624  151.1432 C   0  0  0  0  0  0  0  0  0  0  0  0
  146.9412  133.4431  151.6443 C   0  0  0  0  0  0  0  0  0  0  0  0
  148.9133  130.7432  153.6388 C   0  0  0  0  0  0  0  0  0  0  0  0
  148.3704  130.8092  155.0796 C   0  0  0  0  0  0  0  0  0  0  0  0
  148.2577  134.9748  160.3325 C   0  0  0  0  0  0  0  0  0  0  0  0
  148.3370  135.7749  161.4171 N   0  0  0  0  0  0  0  0  0  0  0  0
  147.7846  135.6982  164.7216 H   0  0  0  0  0  0  0  0  0  0  0  0
  147.4500  137.0623  163.6511 H   0  0  0  0  0  0  0  0  0  0  0  0
  149.1177  136.5376  163.9234 H   0  0  0  0  0  0  0  0  0  0  0  0
  147.2948  133.5391  163.7540 H   0  0  0  0  0  0  0  0  0  0  0  0
  147.1604  132.0718  161.7648 H   0  0  0  0  0  0  0  0  0  0  0  0
  147.1275  132.1451  159.1274 H   0  0  0  0  0  0  0  0  0  0  0  0
  147.4697  131.5640  157.2924 H   0  0  0  0  0  0  0  0  0  0  0  0
  149.9928  131.9041  155.9555 H   0  0  0  0  0  0  0  0  0  0  0  0
  147.6459  133.5831  154.9709 H   0  0  0  0  0  0  0  0  0  0  0  0
  149.2111  134.1582  155.4779 H   0  0  0  0  0  0  0  0  0  0  0  0
  149.1336  134.0705  152.9932 H   0  0  0  0  0  0  0  0  0  0  0  0
  150.3144  132.9751  153.6058 H   0  0  0  0  0  0  0  0  0  0  0  0
  146.5679  132.2595  153.3969 H   0  0  0  0  0  0  0  0  0  0  0  0
  147.2784  130.7577  150.8350 H   0  0  0  0  0  0  0  0  0  0  0  0
  146.6032  130.0627  152.2925 H   0  0  0  0  0  0  0  0  0  0  0  0
  144.8637  130.3349  150.5991 H   0  0  0  0  0  0  0  0  0  0  0  0
  144.5020  131.2970  152.0216 H   0  0  0  0  0  0  0  0  0  0  0  0
  143.7339  133.4434  149.1826 H   0  0  0  0  0  0  0  0  0  0  0  0
  143.0611  132.6657  150.6206 H   0  0  0  0  0  0  0  0  0  0  0  0
  143.5094  131.6979  149.2106 H   0  0  0  0  0  0  0  0  0  0  0  0
  145.3923  134.4630  150.5357 H   0  0  0  0  0  0  0  0  0  0  0  0
  144.8058  133.6663  151.9853 H   0  0  0  0  0  0  0  0  0  0  0  0
  147.1507  134.3390  152.2269 H   0  0  0  0  0  0  0  0  0  0  0  0
  147.6235  133.4527  150.7929 H   0  0  0  0  0  0  0  0  0  0  0  0
  148.5595  129.8494  153.1295 H   0  0  0  0  0  0  0  0  0  0  0  0
  149.9974  130.6262  153.6764 H   0  0  0  0  0  0  0  0  0  0  0  0
  148.6482  129.9012  155.6161 H   0  0  0  0  0  0  0  0  0  0  0  0
  147.2802  130.8287  155.0651 H   0  0  0  0  0  0  0  0  0  0  0  0
  148.5485  135.4240  159.3940 H   0  0  0  0  0  0  0  0  0  0  0  0
  149.0990  131.8928  151.9948 H   0  0  0  0  0  0  0  0  0  0  0  0
  1  2  1  0  0  0  0
  1 25  1  0  0  0  0
  1 26  1  0  0  0  0
  1 27  1  0  0  0  0
  2 24  1  0  0  0  0
  2  3  2  0  0  0  0
  3  4  1  0  0  0  0
  3 28  1  0  0  0  0
  4  5  2  0  0  0  0
  4 29  1  0  0  0  0
  5  6  1  0  0  0  0
  5 23  1  0  0  0  0
  6  7  1  0  0  0  0
  6 30  1  0  0  0  0
  7  8  2  0  0  0  0
  7  9  1  0  0  0  0
  9 10  1  0  0  0  0
  9 31  1  0  0  0  0
 10 22  1  0  0  0  0
 10 11  1  0  0  0  0
 10 32  1  0  0  0  0
 11 12  1  0  0  0  0
 11 33  1  0  0  0  0
 11 34  1  0  0  0  0
 12 13  1  0  0  0  0
 12 35  1  0  0  0  0
 12 36  1  0  0  0  0
 13 14  1  0  0  0  0
 13 21  1  0  0  0  0
 13 54  1  0  0  0  0
 14 20  1  0  0  0  0
 14 15  1  0  0  0  0
 14 37  1  0  0  0  0
 15 16  1  0  0  0  0
 15 38  1  0  0  0  0
 15 39  1  0  0  0  0
 16 17  1  0  0  0  0
 16 40  1  0  0  0  0
 16 41  1  0  0  0  0
 17 18  1  0  0  0  0
 17 19  1  0  0  0  0
 18 42  1  0  0  0  0
 18 43  1  0  0  0  0
 18 44  1  0  0  0  0
 19 20  1  0  0  0  0
 19 45  1  0  0  0  0
 19 46  1  0  0  0  0
 20 47  1  0  0  0  0
 20 48  1  0  0  0  0
 21 22  1  0  0  0  0
 21 49  1  0  0  0  0
 21 50  1  0  0  0  0
 22 51  1  0  0  0  0
 22 52  1  0  0  0  0
 23 24  2  0  0  0  0
 23 53  1  0  0  0  0
M  CHG  1  13   1
M  END
> <s_m_source_file>
AV-unprocessed.smi

> <i_m_source_file_index>
2772

> <i_lp_mmshare_version>
43012

> <i_f3d_flags>
0

> <s_epik_input>
W0NIM11jMVtjSF1bY0hdYyhbY0hdbjEpW05IXUMoPU8pW05IXVtDSF0yW0NIMl1bQ0gyXU4oW0NIMl1bQ0gyXTIpW0NIXTNbQ0gyXVtDSDJdTihbQ0gzXSlbQ0gyXVtDSDJdMw==

> <s_epik_cmdline>
J2VwaWtfcHl0aG9uJywgJy1waCcsICc3LjAnLCAnLXRuJywgJzgnLCAnLW1hJywgJzIwMCcsICctbWV0YWxfYmluZGluZycsICctaW1hZScsICc8aW5maWxlLm1hZT4nLCAnLW9tYWUnLCAnPG91dGZpbGUubWFlPic=

> <r_epik_Ionization_Penalty>
1.38854

> <r_epik_Ionization_Penalty_Charging>
0.00081195

> <r_epik_Ionization_Penalty_Neutral>
1.38772

> <r_epik_State_Penalty>
1.56122

> <r_epik_Charging_Adjusted_Penalty>
1.56203

> <i_epik_Tot_Q>
1

> <i_epik_Tot_abs_Q>
1

> <r_epik_Metal_State_Penalty>
1.5614

> <b_epik_Metal_Only>
0

> <s_lp_Force_Field>
OPLS_2005

> <r_lp_Energy>
35.2305

> <b_lp_Chiralities_Consistent>
1

> <s_lp_Variant>
AV-unprocessed.smi:2772-8

> <Gold.Version>
5.8.1

> <Gold.Id.Protein>
6NUR|6NUR_protein|mol2

> <Gold.PLP.Fitness>
50.1975

> <Gold.PLP.PLP>
-43.3361

> <Gold.PLP.part.hbond>
-3.0000

> <Gold.PLP.part.metal>
0.0000

> <Gold.PLP.part.buried>
-2.9124

> <Gold.PLP.part.nonpolar>
-38.1913

> <Gold.PLP.part.repulsive>
0.1879

> <Gold.PLP.ligand.clash>
0.0000

> <Gold.PLP.ligand.torsion>
0.2846

> <Gold.PLP.Chemscore.Hbond>
2.4625

> <Gold.PLP.Chemscore.CHOScore>
0.0000

> <Gold.PLP.Chemscore.Metal>
0.0000

> <Gold.Chemscore.Hbonds>
donor molecule, donor type, donor heavy atom, donor atom, acceptor molecule, acceptor atom, score
      L1  H    13    54       P1 10747  0.82
      P1  H  6896  6908       L1     8  1.00

> <Gold.PLP.Chemscore.Internal.Correction>
0.0430

> <Gold.Rescore>
     Score         DG    S(hbond)    S(metal)    S(lipo)     H(rot)  DE(clash)    DE(int)     intcor
     21.16     -22.74       1.91        0.00     119.01       1.19       0.06       1.52       ----

> <Gold.Chemscore.Fitness>
21.1590

> <Gold.Chemscore.DG>
-22.7436

> <Gold.Chemscore.ZeroCoef>
-5.4800

> <Gold.Chemscore.Hbond>
1.9127

> <Gold.Chemscore.Metal>
0.0000

> <Gold.Chemscore.Lipo>
119.0099

> <Gold.Chemscore.Internal_Hbond>
0.0000

> <Gold.Chemscore.DEClash>
0.0603

> <Gold.Chemscore.DEInternal>
1.5243

> <Gold.Chemscore.Rot>
1.1910

> <Gold.Chemscore.Internal.Correction>
   9.000000E+99

> <Gold.Chemscore.Hbonds>
donor molecule, donor type, donor heavy atom, donor atom, acceptor molecule, acceptor atom, score
      L1  H    13    54       P1 10747  0.59
      P1  H  6896  6908       L1     8  0.98

> <Gold.Chemscore.Hbond.Weighted>
-6.3884

> <Gold.Chemscore.Metal.Weighted>
-0.0000

> <Gold.Chemscore.Lipo.Weighted>
-13.9242

> <Gold.Chemscore.Internal_Hbond.Weighted>
0.0000

> <Gold.Chemscore.DEClash.Weighted>
0.0603

> <Gold.Chemscore.DEInternal.Weighted>
1.5243

> <Gold.Chemscore.Rot.Weighted>
3.0489

> <Gold.Chemscore.Internal.Correction.Weighted>
   9.000000E+99

> <Gold.Protein.RotatedTorsions>
[ 6907 6896 6895 6894 ] final  125.80 input  -60.11 | X-H torsion
[ 7974 7965 7964 7962 ] final   28.38 input  175.53 | X-H torsion
[ 8008 7997 7996 7995 ] final  136.07 input   59.86 | X-H torsion
[ 10167 10162 10161 10158 ] final   76.48 input  -65.29 | X-H torsion
[ 10718 10713 10712 10709 ] final  -38.67 input   66.30 | X-H torsion
[ 10763 10752 10751 10750 ] final  168.43 input  -60.55 | X-H torsion
[ 11005 11000 10999 10996 ] final   24.53 input  -57.11 | X-H torsion

> <Gold.Protein.ActiveResidues>
 VAL166  LYS551  ARG553  GLY616  TRP617  ASP618  TYR619  PRO620  LYS621  CYS622 
 ASP623  PHE694  ASN695  SER759  ASP760  ASP761  ALA762  ILE779  LEU786  VAL792 
 PHE793  MET794  SER795  GLU796  ALA797  LYS798  CYS799  TRP800  GLU811  SER814 

> <Gold.Protein.RotatedAtoms>
  152.3960  133.6747  159.6276 H   0  0  0  0  0  0  0  0  0  0  0  0  # atno 6907 bound_to 6896
  150.7859  133.8874  159.3312 H   0  0  0  0  0  0  0  0  0  0  0  0  # atno 6908 bound_to 6896
  151.6650  135.0985  160.0238 H   0  0  0  0  0  0  0  0  0  0  0  0  # atno 6909 bound_to 6896
  146.1732  139.7063  142.8953 H   0  0  0  0  0  0  0  0  0  0  0  0  # atno 7974 bound_to 7965
  156.3004  140.2454  156.3684 H   0  0  0  0  0  0  0  0  0  0  0  0  # atno 8008 bound_to 7997
  154.8811  140.0412  157.1802 H   0  0  0  0  0  0  0  0  0  0  0  0  # atno 8009 bound_to 7997
  154.8695  140.2933  155.5494 H   0  0  0  0  0  0  0  0  0  0  0  0  # atno 8010 bound_to 7997
  139.9918  144.5751  150.7811 H   0  0  0  0  0  0  0  0  0  0  0  0  # atno 10167 bound_to 10162
  156.3011  130.4240  149.8142 H   0  0  0  0  0  0  0  0  0  0  0  0  # atno 10718 bound_to 10713
  154.3684  135.2753  155.2280 H   0  0  0  0  0  0  0  0  0  0  0  0  # atno 10763 bound_to 10752
  154.4438  135.5947  153.6150 H   0  0  0  0  0  0  0  0  0  0  0  0  # atno 10764 bound_to 10752
  152.9839  135.6025  154.3912 H   0  0  0  0  0  0  0  0  0  0  0  0  # atno 10765 bound_to 10752
  140.3577  134.2159  155.7674 H   0  0  0  0  0  0  0  0  0  0  0  0  # atno 11005 bound_to 11000
  145.4284  141.0413  143.2924 LP  0  0  0  0  0  0  0  0  0  0  0  0  # atno 17320 bound_to 7965
  144.8195  139.5817  143.6993 LP  0  0  0  0  0  0  0  0  0  0  0  0  # atno 17321 bound_to 7965
  140.7452  143.2871  151.3432 LP  0  0  0  0  0  0  0  0  0  0  0  0  # atno 17342 bound_to 10162
  139.6334  144.0677  152.2495 LP  0  0  0  0  0  0  0  0  0  0  0  0  # atno 17343 bound_to 10162
  156.5520  130.8346  151.3302 LP  0  0  0  0  0  0  0  0  0  0  0  0  # atno 17370 bound_to 10713
  157.7368  130.9785  150.2157 LP  0  0  0  0  0  0  0  0  0  0  0  0  # atno 17371 bound_to 10713
  141.1993  133.8014  157.0541 LP  0  0  0  0  0  0  0  0  0  0  0  0  # atno 17394 bound_to 11000
  140.0651  134.9733  157.1372 LP  0  0  0  0  0  0  0  0  0  0  0  0  # atno 17395 bound_to 11000

$$$$
