AV-unprocessed.smi:3321|AV-procd|sdf|12770|dock1
  -GOLD-   2272019113D 1   1.00000     0.00000
 Structure written by MMmdl.
 41 42  0  0  0  0  0  0  0  0  2 V2000
  147.4546  140.5712  153.7000 C   0  0  0  0  0  0  0  0  0  0  0  0
  148.0568  139.1613  153.8184 C   0  0  1  0  0  0  0  0  0  0  0  0
  147.7780  138.4055  152.5743 N   0  3  0  0  0  0  0  0  0  0  0  0
  146.3720  137.9837  152.3964 C   0  0  0  0  0  0  0  0  0  0  0  0
  146.1805  137.2721  151.0495 C   0  0  0  0  0  0  0  0  0  0  0  0
  145.6080  135.9500  151.2130 N   0  0  0  0  0  0  0  0  0  0  0  0
  146.1704  134.8374  151.8028 C   0  0  0  0  0  0  0  0  0  0  0  0
  145.2595  133.8246  151.7100 C   0  0  0  0  0  0  0  0  0  0  0  0
  144.1577  134.4214  151.0356 C   0  0  0  0  0  0  0  0  0  0  0  0
  144.3704  135.6932  150.7374 N   0  0  0  0  0  0  0  0  0  0  0  0
  149.5711  139.2510  154.1071 C   0  0  0  0  0  0  0  0  0  0  0  0
  150.0916  140.3682  154.1204 O   0  0  0  0  0  0  0  0  0  0  0  0
  150.2884  138.1225  154.3381 N   0  0  0  0  0  0  0  0  0  0  0  0
  151.7253  138.0520  154.6384 C   0  0  0  0  0  0  0  0  0  0  0  0
  151.9002  137.6756  156.1204 C   0  0  0  0  0  0  0  0  0  0  0  0
  151.1853  136.3470  156.4330 C   0  0  0  0  0  0  0  0  0  0  0  0
  149.7309  136.3466  155.9233 C   0  0  0  0  0  0  0  0  0  0  0  0
  149.6588  136.7997  154.4527 C   0  0  0  0  0  0  0  0  0  0  0  0
  147.6195  141.1602  154.6027 H   0  0  0  0  0  0  0  0  0  0  0  0
  146.3775  140.5226  153.5382 H   0  0  0  0  0  0  0  0  0  0  0  0
  147.8894  141.1219  152.8646 H   0  0  0  0  0  0  0  0  0  0  0  0
  147.5497  138.6249  154.6201 H   0  0  0  0  0  0  0  0  0  0  0  0
  148.0194  138.9948  151.7906 H   0  0  0  0  0  0  0  0  0  0  0  0
  146.0792  137.3170  153.2083 H   0  0  0  0  0  0  0  0  0  0  0  0
  145.7275  138.8620  152.4535 H   0  0  0  0  0  0  0  0  0  0  0  0
  145.5264  137.8528  150.3976 H   0  0  0  0  0  0  0  0  0  0  0  0
  147.1369  137.1739  150.5343 H   0  0  0  0  0  0  0  0  0  0  0  0
  147.1606  134.8573  152.2343 H   0  0  0  0  0  0  0  0  0  0  0  0
  145.3646  132.8110  152.0673 H   0  0  0  0  0  0  0  0  0  0  0  0
  143.2175  133.9711  150.7537 H   0  0  0  0  0  0  0  0  0  0  0  0
  152.1834  137.2877  154.0086 H   0  0  0  0  0  0  0  0  0  0  0  0
  152.2732  138.9641  154.4122 H   0  0  0  0  0  0  0  0  0  0  0  0
  152.9596  137.5949  156.3657 H   0  0  0  0  0  0  0  0  0  0  0  0
  151.4947  138.4689  156.7501 H   0  0  0  0  0  0  0  0  0  0  0  0
  151.7284  135.5308  155.9549 H   0  0  0  0  0  0  0  0  0  0  0  0
  151.2106  136.1466  157.5046 H   0  0  0  0  0  0  0  0  0  0  0  0
  149.2976  135.3520  156.0321 H   0  0  0  0  0  0  0  0  0  0  0  0
  149.1284  137.0158  156.5394 H   0  0  0  0  0  0  0  0  0  0  0  0
  148.6222  136.7882  154.1133 H   0  0  0  0  0  0  0  0  0  0  0  0
  150.1851  136.0890  153.8138 H   0  0  0  0  0  0  0  0  0  0  0  0
  148.3721  137.5884  152.5594 H   0  0  0  0  0  0  0  0  0  0  0  0
  1  2  1  0  0  0  0
  1 19  1  0  0  0  0
  1 20  1  0  0  0  0
  1 21  1  0  0  0  0
  2  3  1  0  0  0  0
  2 11  1  0  0  0  0
  2 22  1  0  0  0  0
  3  4  1  0  0  0  0
  3 23  1  0  0  0  0
  3 41  1  0  0  0  0
  4  5  1  0  0  0  0
  4 24  1  0  0  0  0
  4 25  1  0  0  0  0
  5  6  1  0  0  0  0
  5 26  1  0  0  0  0
  5 27  1  0  0  0  0
  6 10  1  0  0  0  0
  6  7  1  0  0  0  0
  7  8  2  0  0  0  0
  7 28  1  0  0  0  0
  8  9  1  0  0  0  0
  8 29  1  0  0  0  0
  9 10  2  0  0  0  0
  9 30  1  0  0  0  0
 11 12  2  0  0  0  0
 11 13  1  0  0  0  0
 13 18  1  0  0  0  0
 13 14  1  0  0  0  0
 14 15  1  0  0  0  0
 14 31  1  0  0  0  0
 14 32  1  0  0  0  0
 15 16  1  0  0  0  0
 15 33  1  0  0  0  0
 15 34  1  0  0  0  0
 16 17  1  0  0  0  0
 16 35  1  0  0  0  0
 16 36  1  0  0  0  0
 17 18  1  0  0  0  0
 17 37  1  0  0  0  0
 17 38  1  0  0  0  0
 18 39  1  0  0  0  0
 18 40  1  0  0  0  0
M  CHG  1   3   1
M  END
> <s_m_source_file>
AV-unprocessed.smi

> <i_m_source_file_index>
3321

> <i_lp_mmshare_version>
43012

> <i_f3d_flags>
0

> <s_epik_input>
W0NIMl0xW0NIMl1bQ0gyXVtDSDJdW0NIMl1OMUMoPU8pW0NASF0oW0NIM10pW05IXVtDSDJdW0NIMl1uMltjSF1bY0hdW2NIXW4y

> <s_epik_cmdline>
J2VwaWtfcHl0aG9uJywgJy1waCcsICc3LjAnLCAnLXRuJywgJzgnLCAnLW1hJywgJzIwMCcsICctbWV0YWxfYmluZGluZycsICctaW1hZScsICc8aW5maWxlLm1hZT4nLCAnLW9tYWUnLCAnPG91dGZpbGUubWFlPic=

> <r_lp_tautomer_probability>
1

> <r_epik_Ionization_Penalty>
0.202061

> <r_epik_Ionization_Penalty_Charging>
0.202058

> <r_epik_Ionization_Penalty_Neutral>
2.46932e-06

> <r_epik_State_Penalty>
0.191938

> <r_epik_Charging_Adjusted_Penalty>
0.393996

> <i_epik_Tot_Q>
1

> <i_epik_Tot_abs_Q>
1

> <r_epik_Metal_State_Penalty>
0.192188

> <b_epik_Metal_Only>
0

> <s_lp_Force_Field>
OPLS_2005

> <r_lp_Energy>
26.1916

> <b_lp_Chiralities_Consistent>
1

> <s_lp_Variant>
AV-unprocessed.smi:3321-2

> <Gold.Version>
5.8.1

> <Gold.Id.Protein>
6NUR|6NUR_protein|mol2

> <Gold.PLP.Fitness>
42.8004

> <Gold.PLP.PLP>
-26.7567

> <Gold.PLP.part.hbond>
-3.0000

> <Gold.PLP.part.metal>
0.0000

> <Gold.PLP.part.buried>
3.7114

> <Gold.PLP.part.nonpolar>
-28.8601

> <Gold.PLP.part.repulsive>
1.5594

> <Gold.PLP.ligand.clash>
0.0000

> <Gold.PLP.ligand.torsion>
0.5406

> <Gold.PLP.Chemscore.Hbond>
3.6800

> <Gold.PLP.Chemscore.CHOScore>
2.0000

> <Gold.PLP.Chemscore.Metal>
0.0000

> <Gold.Chemscore.Hbonds>
donor molecule, donor type, donor heavy atom, donor atom, acceptor molecule, acceptor atom, score
      L1  H     3    23       P1  7957  0.78
      L1  H     3    41       P1  7948  2.00
      P1  H  7989  7998       L1    12  0.85
      L1  C     7    28       P1  7948  1.00
      L1  C     9    30       P1 10186  0.95

> <Gold.PLP.Chemscore.Internal.Correction>
0.0850

> <Gold.Rescore>
     Score         DG    S(hbond)    S(metal)    S(lipo)     H(rot)  DE(clash)    DE(int)     intcor
     14.29     -18.15       2.83        0.00      66.78       1.79       3.19       0.67       ----

> <Gold.Chemscore.Fitness>
14.2944

> <Gold.Chemscore.DG>
-18.1533

> <Gold.Chemscore.ZeroCoef>
-5.4800

> <Gold.Chemscore.Hbond>
2.8292

> <Gold.Chemscore.Metal>
0.0000

> <Gold.Chemscore.Lipo>
66.7789

> <Gold.Chemscore.Internal_Hbond>
0.0000

> <Gold.Chemscore.DEClash>
3.1879

> <Gold.Chemscore.DEInternal>
0.6710

> <Gold.Chemscore.Rot>
1.7928

> <Gold.Chemscore.Internal.Correction>
   9.000000E+99

> <Gold.Chemscore.Hbonds>
donor molecule, donor type, donor heavy atom, donor atom, acceptor molecule, acceptor atom, score
      L1  H     3    23       P1  7957  0.72
      L1  H     3    41       P1  7948  0.95
      P1  H  7989  7998       L1    12  0.83

> <Gold.Chemscore.Hbond.Weighted>
-9.4496

> <Gold.Chemscore.Metal.Weighted>
-0.0000

> <Gold.Chemscore.Lipo.Weighted>
-7.8131

> <Gold.Chemscore.Internal_Hbond.Weighted>
0.0000

> <Gold.Chemscore.DEClash.Weighted>
3.1879

> <Gold.Chemscore.DEInternal.Weighted>
0.6710

> <Gold.Chemscore.Rot.Weighted>
4.5895

> <Gold.Chemscore.Internal.Correction.Weighted>
   9.000000E+99

> <Gold.Protein.RotatedTorsions>
[ 6907 6896 6895 6894 ] final   81.93 input  -60.11 | X-H torsion
[ 7974 7965 7964 7962 ] final  146.17 input  175.53 | X-H torsion
[ 8008 7997 7996 7995 ] final   -2.15 input   59.86 | X-H torsion
[ 10167 10162 10161 10158 ] final  -73.44 input  -65.29 | X-H torsion
[ 10718 10713 10712 10709 ] final    8.89 input   66.30 | X-H torsion
[ 10763 10752 10751 10750 ] final  -39.41 input  -60.55 | X-H torsion
[ 11005 11000 10999 10996 ] final  -67.67 input  -57.11 | X-H torsion

> <Gold.Protein.ActiveResidues>
 VAL166  LYS551  ARG553  GLY616  TRP617  ASP618  TYR619  PRO620  LYS621  CYS622 
 ASP623  PHE694  ASN695  SER759  ASP760  ASP761  ALA762  ILE779  LEU786  VAL792 
 PHE793  MET794  SER795  GLU796  ALA797  LYS798  CYS799  TRP800  GLU811  SER814 

> <Gold.Protein.RotatedAtoms>
  152.5284  134.3128  159.9119 H   0  0  0  0  0  0  0  0  0  0  0  0  # atno 6907 bound_to 6896
  151.3078  133.4087  159.2652 H   0  0  0  0  0  0  0  0  0  0  0  0  # atno 6908 bound_to 6896
  151.0064  134.9379  159.8040 H   0  0  0  0  0  0  0  0  0  0  0  0  # atno 6909 bound_to 6896
  144.8693  139.5872  143.5894 H   0  0  0  0  0  0  0  0  0  0  0  0  # atno 7974 bound_to 7965
  154.6389  140.2541  155.7346 H   0  0  0  0  0  0  0  0  0  0  0  0  # atno 8008 bound_to 7997
  156.2518  140.2891  156.0694 H   0  0  0  0  0  0  0  0  0  0  0  0  # atno 8009 bound_to 7997
  155.1628  140.0384  157.2836 H   0  0  0  0  0  0  0  0  0  0  0  0  # atno 8010 bound_to 7997
  140.5110  143.2345  151.7593 H   0  0  0  0  0  0  0  0  0  0  0  0  # atno 10167 bound_to 10162
  156.9583  130.5923  149.5660 H   0  0  0  0  0  0  0  0  0  0  0  0  # atno 10718 bound_to 10713
  153.9290  135.6774  153.4746 H   0  0  0  0  0  0  0  0  0  0  0  0  # atno 10763 bound_to 10752
  153.0989  135.4837  154.8828 H   0  0  0  0  0  0  0  0  0  0  0  0  # atno 10764 bound_to 10752
  154.7438  135.3167  154.8638 H   0  0  0  0  0  0  0  0  0  0  0  0  # atno 10765 bound_to 10752
  141.1514  133.6724  156.6328 H   0  0  0  0  0  0  0  0  0  0  0  0  # atno 11005 bound_to 11000
  146.2918  139.7163  142.9155 LP  0  0  0  0  0  0  0  0  0  0  0  0  # atno 17320 bound_to 7965
  145.4161  141.0402  143.2990 LP  0  0  0  0  0  0  0  0  0  0  0  0  # atno 17321 bound_to 7965
  139.4896  144.4390  151.9786 LP  0  0  0  0  0  0  0  0  0  0  0  0  # atno 17342 bound_to 10162
  140.3482  144.3121  150.5954 LP  0  0  0  0  0  0  0  0  0  0  0  0  # atno 17343 bound_to 10162
  156.0333  130.5423  150.8590 LP  0  0  0  0  0  0  0  0  0  0  0  0  # atno 17370 bound_to 10713
  157.5675  131.0946  150.9467 LP  0  0  0  0  0  0  0  0  0  0  0  0  # atno 17371 bound_to 10713
  140.3453  134.7814  157.4428 LP  0  0  0  0  0  0  0  0  0  0  0  0  # atno 17394 bound_to 11000
  140.0904  134.5608  155.8450 LP  0  0  0  0  0  0  0  0  0  0  0  0  # atno 17395 bound_to 11000

$$$$
