AV-unprocessed.smi:212|AV-procd|sdf|1626|dock9
  -GOLD-   2262019573D 1   1.00000     0.00000
 Structure written by MMmdl.
 65 68  0  0  0  0  0  0  0  0  2 V2000
  146.0757  137.0859  157.7239 C   0  0  0  0  0  0  0  0  0  0  0  0
  147.2188  137.3628  158.7153 C   0  0  1  0  0  0  0  0  0  0  0  0
  146.8477  136.9605  160.1588 C   0  0  0  0  0  0  0  0  0  0  0  0
  146.8273  135.4843  160.3284 N   0  3  2  0  0  0  0  0  0  0  0  0
  146.3518  135.0510  161.6685 C   0  0  0  0  0  0  0  0  0  0  0  0
  144.8557  135.3704  161.8899 C   0  0  0  0  0  0  0  0  0  0  0  0
  144.2638  134.4310  162.9539 C   0  0  0  0  0  0  0  0  0  0  0  0
  144.6236  136.8401  162.2876 C   0  0  0  0  0  0  0  0  0  0  0  0
  144.1529  135.1169  160.6891 O   0  0  0  0  0  0  0  0  0  0  0  0
  148.1098  134.8528  159.9277 C   0  0  0  0  0  0  0  0  0  0  0  0
  148.4933  135.2468  158.4896 C   0  0  0  0  0  0  0  0  0  0  0  0
  148.4605  136.6994  158.3087 N   0  0  0  0  0  0  0  0  0  0  0  0
  149.6045  137.4084  158.5000 C   0  0  0  0  0  0  0  0  0  0  0  0
  150.6961  136.8038  159.0406 N   0  0  0  0  0  0  0  0  0  0  0  0
  151.8219  137.4949  159.2431 C   0  0  0  0  0  0  0  0  0  0  0  0
  152.0708  138.7790  158.9803 N   0  0  0  0  0  0  0  0  0  0  0  0
  150.9829  139.3898  158.4309 C   0  0  0  0  0  0  0  0  0  0  0  0
  149.7234  138.7854  158.1579 C   0  0  0  0  0  0  0  0  0  0  0  0
  148.8662  139.7185  157.5850 N   0  0  0  0  0  0  0  0  0  0  0  0
  149.5766  140.8122  157.5280 C   0  0  0  0  0  0  0  0  0  0  0  0
  150.8566  140.7052  158.0229 N   0  0  0  0  0  0  0  0  0  0  0  0
  151.8610  141.7519  158.0835 C   0  0  0  0  0  0  0  0  0  0  0  0
  151.3968  142.9873  158.8996 C   0  0  2  0  0  0  0  0  0  0  0  0
  150.8669  144.1116  157.9783 C   0  0  0  0  0  0  0  0  0  0  0  0
  150.1328  145.0704  158.7110 O   0  0  0  0  0  0  0  0  0  0  0  0
  152.4847  143.5016  159.8851 C   0  0  1  0  0  0  0  0  0  0  0  0
  151.9257  144.3507  161.0308 C   0  0  0  0  0  0  0  0  0  0  0  0
  152.4712  143.6892  162.2954 C   0  0  0  0  0  0  0  0  0  0  0  0
  152.7048  142.3474  161.9024 O   0  0  0  0  0  0  0  0  0  0  0  0
  153.2787  142.4013  160.6067 C   0  0  0  0  0  0  0  0  0  0  0  0
  145.1766  137.6351  158.0043 H   0  0  0  0  0  0  0  0  0  0  0  0
  145.8137  136.0286  157.6825 H   0  0  0  0  0  0  0  0  0  0  0  0
  146.3499  137.4011  156.7168 H   0  0  0  0  0  0  0  0  0  0  0  0
  147.3641  138.4429  158.7212 H   0  0  0  0  0  0  0  0  0  0  0  0
  147.5721  137.3848  160.8562 H   0  0  0  0  0  0  0  0  0  0  0  0
  145.8752  137.3787  160.4221 H   0  0  0  0  0  0  0  0  0  0  0  0
  146.5344  133.9838  161.8062 H   0  0  0  0  0  0  0  0  0  0  0  0
  146.9350  135.5445  162.4479 H   0  0  0  0  0  0  0  0  0  0  0  0
  144.7554  134.5676  163.9178 H   0  0  0  0  0  0  0  0  0  0  0  0
  144.3805  133.3840  162.6716 H   0  0  0  0  0  0  0  0  0  0  0  0
  143.1986  134.6141  163.1011 H   0  0  0  0  0  0  0  0  0  0  0  0
  145.1604  137.0885  163.2040 H   0  0  0  0  0  0  0  0  0  0  0  0
  143.5658  137.0402  162.4630 H   0  0  0  0  0  0  0  0  0  0  0  0
  144.9584  137.5301  161.5124 H   0  0  0  0  0  0  0  0  0  0  0  0
  144.7119  135.3388  159.9594 H   0  0  0  0  0  0  0  0  0  0  0  0
  148.8926  135.1559  160.6242 H   0  0  0  0  0  0  0  0  0  0  0  0
  148.0268  133.7680  159.9986 H   0  0  0  0  0  0  0  0  0  0  0  0
  149.4718  134.8408  158.2292 H   0  0  0  0  0  0  0  0  0  0  0  0
  147.7919  134.7969  157.7868 H   0  0  0  0  0  0  0  0  0  0  0  0
  152.6404  136.9401  159.6778 H   0  0  0  0  0  0  0  0  0  0  0  0
  149.1822  141.7340  157.1251 H   0  0  0  0  0  0  0  0  0  0  0  0
  152.7627  141.3122  158.5088 H   0  0  0  0  0  0  0  0  0  0  0  0
  152.1173  142.0384  157.0633 H   0  0  0  0  0  0  0  0  0  0  0  0
  150.5517  142.6661  159.5109 H   0  0  0  0  0  0  0  0  0  0  0  0
  151.6830  144.6067  157.4524 H   0  0  0  0  0  0  0  0  0  0  0  0
  150.1968  143.7117  157.2180 H   0  0  0  0  0  0  0  0  0  0  0  0
  149.2942  145.1919  158.2928 H   0  0  0  0  0  0  0  0  0  0  0  0
  153.1925  144.1188  159.3310 H   0  0  0  0  0  0  0  0  0  0  0  0
  152.2387  145.3930  160.9613 H   0  0  0  0  0  0  0  0  0  0  0  0
  150.8360  144.3467  161.0428 H   0  0  0  0  0  0  0  0  0  0  0  0
  153.4141  144.1482  162.5969 H   0  0  0  0  0  0  0  0  0  0  0  0
  151.7771  143.7482  163.1342 H   0  0  0  0  0  0  0  0  0  0  0  0
  153.2450  141.4311  160.1114 H   0  0  0  0  0  0  0  0  0  0  0  0
  154.3283  142.6867  160.6973 H   0  0  0  0  0  0  0  0  0  0  0  0
  146.1364  135.1446  159.6745 H   0  0  0  0  0  0  0  0  0  0  0  0
  1  2  1  0  0  0  0
  1 31  1  0  0  0  0
  1 32  1  0  0  0  0
  1 33  1  0  0  0  0
  2 12  1  0  0  0  0
  2  3  1  0  0  0  0
  2 34  1  0  0  0  0
  3  4  1  0  0  0  0
  3 35  1  0  0  0  0
  3 36  1  0  0  0  0
  4  5  1  0  0  0  0
  4 10  1  0  0  0  0
  4 65  1  0  0  0  0
  5  6  1  0  0  0  0
  5 37  1  0  0  0  0
  5 38  1  0  0  0  0
  6  7  1  0  0  0  0
  6  8  1  0  0  0  0
  6  9  1  0  0  0  0
  7 39  1  0  0  0  0
  7 40  1  0  0  0  0
  7 41  1  0  0  0  0
  8 42  1  0  0  0  0
  8 43  1  0  0  0  0
  8 44  1  0  0  0  0
  9 45  1  0  0  0  0
 10 11  1  0  0  0  0
 10 46  1  0  0  0  0
 10 47  1  0  0  0  0
 11 12  1  0  0  0  0
 11 48  1  0  0  0  0
 11 49  1  0  0  0  0
 12 13  1  0  0  0  0
 13 18  1  0  0  0  0
 13 14  2  0  0  0  0
 14 15  1  0  0  0  0
 15 16  2  0  0  0  0
 15 50  1  0  0  0  0
 16 17  1  0  0  0  0
 17 21  1  0  0  0  0
 17 18  2  0  0  0  0
 18 19  1  0  0  0  0
 19 20  2  0  0  0  0
 20 21  1  0  0  0  0
 20 51  1  0  0  0  0
 21 22  1  0  0  0  0
 22 23  1  0  0  0  0
 22 52  1  0  0  0  0
 22 53  1  0  0  0  0
 23 24  1  0  0  0  0
 23 26  1  0  0  0  0
 23 54  1  0  0  0  0
 24 25  1  0  0  0  0
 24 55  1  0  0  0  0
 24 56  1  0  0  0  0
 25 57  1  0  0  0  0
 26 30  1  0  0  0  0
 26 27  1  0  0  0  0
 26 58  1  0  0  0  0
 27 28  1  0  0  0  0
 27 59  1  0  0  0  0
 27 60  1  0  0  0  0
 28 29  1  0  0  0  0
 28 61  1  0  0  0  0
 28 62  1  0  0  0  0
 29 30  1  0  0  0  0
 30 63  1  0  0  0  0
 30 64  1  0  0  0  0
M  CHG  1   4   1
M  END
> <s_m_source_file>
AV-unprocessed.smi

> <i_m_source_file_index>
212

> <i_lp_mmshare_version>
43012

> <i_f3d_flags>
0

> <s_epik_input>
W0NIM11bQ0BASF0xW0NIMl1OKFtDSDJdQyhbQ0gzXSkoW0NIM10pW09IXSlbQ0gyXVtDSDJdTjFjKG5bY0hdbjIpYyhjMjMpbltjSF1uM1tDSDJdW0NASF0oW0NIMl1bT0hdKVtDQEBIXTRbQ0gyXVtDSDJdT1tDSDJdNA==

> <s_epik_cmdline>
J2VwaWtfcHl0aG9uJywgJy1waCcsICc3LjAnLCAnLXRuJywgJzgnLCAnLW1hJywgJzIwMCcsICctbWV0YWxfYmluZGluZycsICctaW1hZScsICc8aW5maWxlLm1hZT4nLCAnLW9tYWUnLCAnPG91dGZpbGUubWFlPic=

> <r_lp_tautomer_probability>
1

> <r_epik_Ionization_Penalty>
0.00182193

> <r_epik_Ionization_Penalty_Charging>
0.00173996

> <r_epik_Ionization_Penalty_Neutral>
8.19718e-05

> <r_epik_State_Penalty>
-0

> <r_epik_Charging_Adjusted_Penalty>
0.00173996

> <i_epik_Tot_Q>
1

> <i_epik_Tot_abs_Q>
1

> <r_epik_Metal_State_Penalty>
-0

> <b_epik_Metal_Only>
0

> <s_lp_Force_Field>
OPLS_2005

> <r_lp_Energy>
61.088

> <b_lp_Chiralities_Consistent>
1

> <s_lp_Variant>
AV-unprocessed.smi:212-10

> <Gold.Version>
5.8.1

> <Gold.Id.Protein>
6NUR|6NUR_protein|mol2

> <Gold.PLP.Fitness>
49.7150

> <Gold.PLP.PLP>
-46.1231

> <Gold.PLP.part.hbond>
-2.0000

> <Gold.PLP.part.metal>
0.0000

> <Gold.PLP.part.buried>
-6.7153

> <Gold.PLP.part.nonpolar>
-37.7756

> <Gold.PLP.part.repulsive>
0.1005

> <Gold.PLP.ligand.clash>
0.0000

> <Gold.PLP.ligand.torsion>
1.7500

> <Gold.PLP.Chemscore.Hbond>
2.0000

> <Gold.PLP.Chemscore.CHOScore>
0.0000

> <Gold.PLP.Chemscore.Metal>
0.0000

> <Gold.Chemscore.Hbonds>
donor molecule, donor type, donor heavy atom, donor atom, acceptor molecule, acceptor atom, score
      L1  H    25    57       P1  8029  1.00
      P1  H  6896  6909       L1    14  1.00

> <Gold.PLP.Chemscore.Internal.Correction>
1.0919

> <Gold.Rescore>
     Score         DG    S(hbond)    S(metal)    S(lipo)     H(rot)  DE(clash)    DE(int)     intcor
     13.67     -16.17       1.54        0.00     121.69       3.40       0.41       2.08       ----

> <Gold.Chemscore.Fitness>
13.6734

> <Gold.Chemscore.DG>
-16.1657

> <Gold.Chemscore.ZeroCoef>
-5.4800

> <Gold.Chemscore.Hbond>
1.5414

> <Gold.Chemscore.Metal>
0.0000

> <Gold.Chemscore.Lipo>
121.6926

> <Gold.Chemscore.Internal_Hbond>
0.0000

> <Gold.Chemscore.DEClash>
0.4084

> <Gold.Chemscore.DEInternal>
2.0839

> <Gold.Chemscore.Rot>
3.3986

> <Gold.Chemscore.Internal.Correction>
   9.000000E+99

> <Gold.Chemscore.Hbonds>
donor molecule, donor type, donor heavy atom, donor atom, acceptor molecule, acceptor atom, score
      L1  H    25    57       P1  8029  0.65
      P1  H  6896  6909       L1    14  0.25

> <Gold.Chemscore.Hbond.Weighted>
-5.1482

> <Gold.Chemscore.Metal.Weighted>
-0.0000

> <Gold.Chemscore.Lipo.Weighted>
-14.2380

> <Gold.Chemscore.Internal_Hbond.Weighted>
0.0000

> <Gold.Chemscore.DEClash.Weighted>
0.4084

> <Gold.Chemscore.DEInternal.Weighted>
2.0839

> <Gold.Chemscore.Rot.Weighted>
8.7005

> <Gold.Chemscore.Internal.Correction.Weighted>
   9.000000E+99

> <Gold.Protein.RotatedTorsions>
[ 6907 6896 6895 6894 ] final   96.40 input  -60.11 | X-H torsion
[ 7974 7965 7964 7962 ] final  -52.12 input  175.53 | X-H torsion
[ 8008 7997 7996 7995 ] final  -85.39 input   59.86 | X-H torsion
[ 10167 10162 10161 10158 ] final   45.00 input  -65.29 | X-H torsion
[ 10718 10713 10712 10709 ] final   -5.45 input   66.30 | X-H torsion
[ 10763 10752 10751 10750 ] final  -27.66 input  -60.55 | X-H torsion
[ 11005 11000 10999 10996 ] final -123.00 input  -57.11 | X-H torsion

> <Gold.Protein.ActiveResidues>
 VAL166  LYS551  ARG553  GLY616  TRP617  ASP618  TYR619  PRO620  LYS621  CYS622 
 ASP623  PHE694  ASN695  SER759  ASP760  ASP761  ALA762  ILE779  LEU786  VAL792 
 PHE793  MET794  SER795  GLU796  ALA797  LYS798  CYS799  TRP800  GLU811  SER814 

> <Gold.Protein.RotatedAtoms>
  152.5435  134.0892  159.8268 H   0  0  0  0  0  0  0  0  0  0  0  0  # atno 6907 bound_to 6896
  151.0983  133.5255  159.2618 H   0  0  0  0  0  0  0  0  0  0  0  0  # atno 6908 bound_to 6896
  151.2020  135.0455  159.8930 H   0  0  0  0  0  0  0  0  0  0  0  0  # atno 6909 bound_to 6896
  145.9115  140.7911  142.9693 H   0  0  0  0  0  0  0  0  0  0  0  0  # atno 7974 bound_to 7965
  154.6403  140.0592  156.9837 H   0  0  0  0  0  0  0  0  0  0  0  0  # atno 8008 bound_to 7997
  155.1528  140.3275  155.4409 H   0  0  0  0  0  0  0  0  0  0  0  0  # atno 8009 bound_to 7997
  156.2527  140.1944  156.6639 H   0  0  0  0  0  0  0  0  0  0  0  0  # atno 8010 bound_to 7997
  140.3286  144.2616  150.6171 H   0  0  0  0  0  0  0  0  0  0  0  0  # atno 10167 bound_to 10162
  156.7464  130.5226  149.5813 H   0  0  0  0  0  0  0  0  0  0  0  0  # atno 10718 bound_to 10713
  153.7358  135.6936  153.4978 H   0  0  0  0  0  0  0  0  0  0  0  0  # atno 10763 bound_to 10752
  153.2104  135.4405  155.0372 H   0  0  0  0  0  0  0  0  0  0  0  0  # atno 10764 bound_to 10752
  154.8238  135.3435  154.6885 H   0  0  0  0  0  0  0  0  0  0  0  0  # atno 10765 bound_to 10752
  140.9953  134.0481  157.3605 H   0  0  0  0  0  0  0  0  0  0  0  0  # atno 11005 bound_to 11000
  144.6744  140.1833  143.7403 LP  0  0  0  0  0  0  0  0  0  0  0  0  # atno 17320 bound_to 7965
  145.8666  139.2250  143.1685 LP  0  0  0  0  0  0  0  0  0  0  0  0  # atno 17321 bound_to 7965
  140.5418  143.2222  151.8073 LP  0  0  0  0  0  0  0  0  0  0  0  0  # atno 17342 bound_to 10162
  139.4860  144.4591  151.9563 LP  0  0  0  0  0  0  0  0  0  0  0  0  # atno 17343 bound_to 10162
  156.1430  130.6257  151.0493 LP  0  0  0  0  0  0  0  0  0  0  0  0  # atno 17370 bound_to 10713
  157.6796  131.0841  150.7405 LP  0  0  0  0  0  0  0  0  0  0  0  0  # atno 17371 bound_to 10713
  139.9011  135.0165  156.7274 LP  0  0  0  0  0  0  0  0  0  0  0  0  # atno 17394 bound_to 11000
  140.6976  133.9335  155.8004 LP  0  0  0  0  0  0  0  0  0  0  0  0  # atno 17395 bound_to 11000

$$$$
