AV-unprocessed.smi:690|AV-procd|sdf|3361|dock5
  -GOLD-   22720 0343D 1   1.00000     0.00000
 Structure written by MMmdl.
 46 48  0  0  0  0  0  0  0  0  1 V2000
  150.0447  142.8211  158.5714 C   0  0  0  0  0  0  0  0  0  0  0  0
  151.1882  141.8273  158.7841 C   0  0  0  0  0  0  0  0  0  0  0  0
  150.8526  140.6053  158.1488 O   0  0  0  0  0  0  0  0  0  0  0  0
  151.9896  139.8547  157.7421 C   0  0  1  0  0  0  0  0  0  0  0  0
  152.4439  138.9465  158.8895 C   0  0  0  0  0  0  0  0  0  0  0  0
  151.6017  137.8242  158.2748 C   0  0  1  0  0  0  0  0  0  0  0  0
  150.2616  137.7909  158.8602 N   0  0  0  0  0  0  0  0  0  0  0  0
  149.4843  136.7018  158.9362 C   0  0  0  0  0  0  0  0  0  0  0  0
  149.8225  135.5998  158.5025 O   0  0  0  0  0  0  0  0  0  0  0  0
  148.1031  136.9022  159.5744 C   0  0  0  0  0  0  0  0  0  0  0  0
  147.7717  135.8616  160.5615 N   0  0  0  0  0  0  0  0  0  0  0  0
  147.9039  134.5196  160.1518 C   0  0  0  0  0  0  0  0  0  0  0  0
  147.6327  133.4957  160.9766 C   0  0  0  0  0  0  0  0  0  0  0  0
  147.1948  133.7980  162.3188 C   0  0  0  0  0  0  0  0  0  0  0  0
  147.0670  135.0778  162.7214 C   0  0  0  0  0  0  0  0  0  0  0  0
  147.3619  136.2001  161.8233 C   0  0  0  0  0  0  0  0  0  0  0  0
  147.2477  137.3724  162.1828 O   0  0  0  0  0  0  0  0  0  0  0  0
  151.6626  138.5772  156.9213 C   0  0  0  0  0  0  0  0  0  0  0  0
  152.7557  138.1388  155.9469 C   0  0  0  0  0  0  0  0  0  0  0  0
  152.4301  138.7767  154.5956 C   0  0  0  0  0  0  0  0  0  0  0  0
  150.9138  138.9822  154.5966 C   0  0  0  0  0  0  0  0  0  0  0  0
  150.4403  138.5761  155.9964 C   0  0  0  0  0  0  0  0  0  0  0  0
  150.2625  143.7754  159.0513 H   0  0  0  0  0  0  0  0  0  0  0  0
  149.1124  142.4407  158.9893 H   0  0  0  0  0  0  0  0  0  0  0  0
  149.8846  143.0091  157.5093 H   0  0  0  0  0  0  0  0  0  0  0  0
  152.1132  142.2336  158.3755 H   0  0  0  0  0  0  0  0  0  0  0  0
  151.3468  141.6591  159.8501 H   0  0  0  0  0  0  0  0  0  0  0  0
  152.8033  140.4651  157.3457 H   0  0  0  0  0  0  0  0  0  0  0  0
  153.5132  138.7329  158.8552 H   0  0  0  0  0  0  0  0  0  0  0  0
  152.1371  139.2705  159.8851 H   0  0  0  0  0  0  0  0  0  0  0  0
  152.1166  136.8619  158.2721 H   0  0  0  0  0  0  0  0  0  0  0  0
  149.9023  138.6615  159.2253 H   0  0  0  0  0  0  0  0  0  0  0  0
  148.0500  137.8891  160.0389 H   0  0  0  0  0  0  0  0  0  0  0  0
  147.3622  136.9241  158.7742 H   0  0  0  0  0  0  0  0  0  0  0  0
  148.2442  134.3791  159.1362 H   0  0  0  0  0  0  0  0  0  0  0  0
  147.7434  132.4731  160.6471 H   0  0  0  0  0  0  0  0  0  0  0  0
  146.9702  132.9939  163.0041 H   0  0  0  0  0  0  0  0  0  0  0  0
  146.7399  135.2848  163.7299 H   0  0  0  0  0  0  0  0  0  0  0  0
  153.7560  138.4134  156.2830 H   0  0  0  0  0  0  0  0  0  0  0  0
  152.7466  137.0527  155.8439 H   0  0  0  0  0  0  0  0  0  0  0  0
  152.9306  139.7420  154.5108 H   0  0  0  0  0  0  0  0  0  0  0  0
  152.7643  138.1576  153.7626 H   0  0  0  0  0  0  0  0  0  0  0  0
  150.6760  140.0262  154.3913 H   0  0  0  0  0  0  0  0  0  0  0  0
  150.4252  138.3797  153.8302 H   0  0  0  0  0  0  0  0  0  0  0  0
  150.0218  137.5701  155.9451 H   0  0  0  0  0  0  0  0  0  0  0  0
  149.6364  139.2218  156.3492 H   0  0  0  0  0  0  0  0  0  0  0  0
  1  2  1  0  0  0  0
  1 23  1  0  0  0  0
  1 24  1  0  0  0  0
  1 25  1  0  0  0  0
  2  3  1  0  0  0  0
  2 26  1  0  0  0  0
  2 27  1  0  0  0  0
  3  4  1  0  0  0  0
  4 18  1  0  0  0  0
  4  5  1  0  0  0  0
  4 28  1  0  0  0  0
  5  6  1  0  0  0  0
  5 29  1  0  0  0  0
  5 30  1  0  0  0  0
  6  7  1  0  0  0  0
  6 18  1  0  0  0  0
  6 31  1  0  0  0  0
  7  8  1  0  0  0  0
  7 32  1  0  0  0  0
  8  9  2  0  0  0  0
  8 10  1  0  0  0  0
 10 11  1  0  0  0  0
 10 33  1  0  0  0  0
 10 34  1  0  0  0  0
 11 16  1  0  0  0  0
 11 12  1  0  0  0  0
 12 13  2  0  0  0  0
 12 35  1  0  0  0  0
 13 14  1  0  0  0  0
 13 36  1  0  0  0  0
 14 15  2  0  0  0  0
 14 37  1  0  0  0  0
 15 16  1  0  0  0  0
 15 38  1  0  0  0  0
 16 17  2  0  0  0  0
 18 22  1  0  0  0  0
 18 19  1  0  0  0  0
 19 20  1  0  0  0  0
 19 39  1  0  0  0  0
 19 40  1  0  0  0  0
 20 21  1  0  0  0  0
 20 41  1  0  0  0  0
 20 42  1  0  0  0  0
 21 22  1  0  0  0  0
 21 43  1  0  0  0  0
 21 44  1  0  0  0  0
 22 45  1  0  0  0  0
 22 46  1  0  0  0  0
M  END
> <s_m_source_file>
AV-unprocessed.smi

> <i_m_source_file_index>
690

> <i_lp_mmshare_version>
43012

> <i_f3d_flags>
0

> <s_epik_input>
W0NIMl0xW0NIMl1bQ0gyXVtDSDJdQzEyW0NASF0oT1tDSDJdW0NIM10pW0NIMl1bQ0BIXTJbTkhdQyg9TylbQ0gyXW4zW2NIXVtjSF1bY0hdW2NIXWMzPU8=

> <s_epik_cmdline>
J2VwaWtfcHl0aG9uJywgJy1waCcsICc3LjAnLCAnLXRuJywgJzgnLCAnLW1hJywgJzIwMCcsICctbWV0YWxfYmluZGluZycsICctaW1hZScsICc8aW5maWxlLm1hZT4nLCAnLW9tYWUnLCAnPG91dGZpbGUubWFlPic=

> <r_lp_tautomer_probability>
1

> <r_epik_Ionization_Penalty>
4.11691e-07

> <r_epik_Ionization_Penalty_Charging>
3.92797e-07

> <r_epik_Ionization_Penalty_Neutral>
1.88943e-08

> <r_epik_State_Penalty>
-0

> <r_epik_Charging_Adjusted_Penalty>
3.92797e-07

> <i_epik_Tot_Q>
0

> <i_epik_Tot_abs_Q>
0

> <r_epik_Metal_State_Penalty>
-0

> <b_epik_Metal_Only>
0

> <s_lp_Force_Field>
OPLS_2005

> <r_lp_Energy>
47.4249

> <b_lp_Chiralities_Consistent>
1

> <s_lp_Variant>
AV-unprocessed.smi:690-2

> <Gold.Version>
5.8.1

> <Gold.Id.Protein>
6NUR|6NUR_protein|mol2

> <Gold.PLP.Fitness>
47.0269

> <Gold.PLP.PLP>
-41.2688

> <Gold.PLP.part.hbond>
-3.0000

> <Gold.PLP.part.metal>
0.0000

> <Gold.PLP.part.buried>
-5.6667

> <Gold.PLP.part.nonpolar>
-32.9272

> <Gold.PLP.part.repulsive>
0.1844

> <Gold.PLP.ligand.clash>
0.0000

> <Gold.PLP.ligand.torsion>
0.7897

> <Gold.PLP.Chemscore.Hbond>
2.3120

> <Gold.PLP.Chemscore.CHOScore>
0.0000

> <Gold.PLP.Chemscore.Metal>
0.0000

> <Gold.Chemscore.Hbonds>
donor molecule, donor type, donor heavy atom, donor atom, acceptor molecule, acceptor atom, score
      P1  H  6896  6908       L1     9  1.00
      P1  H  6931  6943       L1    17  0.75
      P1  H  6934  6947       L1    17  0.60

> <Gold.PLP.Chemscore.Internal.Correction>
0.4015

> <Gold.Rescore>
     Score         DG    S(hbond)    S(metal)    S(lipo)     H(rot)  DE(clash)    DE(int)     intcor
     17.48     -19.50       2.36        0.00      89.44       1.69       0.01       2.01       ----

> <Gold.Chemscore.Fitness>
17.4810

> <Gold.Chemscore.DG>
-19.4982

> <Gold.Chemscore.ZeroCoef>
-5.4800

> <Gold.Chemscore.Hbond>
2.3595

> <Gold.Chemscore.Metal>
0.0000

> <Gold.Chemscore.Lipo>
89.4357

> <Gold.Chemscore.Internal_Hbond>
0.0000

> <Gold.Chemscore.DEClash>
0.0089

> <Gold.Chemscore.DEInternal>
2.0084

> <Gold.Chemscore.Rot>
1.6900

> <Gold.Chemscore.Internal.Correction>
   9.000000E+99

> <Gold.Chemscore.Hbonds>
donor molecule, donor type, donor heavy atom, donor atom, acceptor molecule, acceptor atom, score
      P1  H  6896  6908       L1     9  0.95
      P1  H  6931  6943       L1    17  0.47
      P1  H  6934  6947       L1    17  0.58

> <Gold.Chemscore.Hbond.Weighted>
-7.8807

> <Gold.Chemscore.Metal.Weighted>
-0.0000

> <Gold.Chemscore.Lipo.Weighted>
-10.4640

> <Gold.Chemscore.Internal_Hbond.Weighted>
0.0000

> <Gold.Chemscore.DEClash.Weighted>
0.0089

> <Gold.Chemscore.DEInternal.Weighted>
2.0084

> <Gold.Chemscore.Rot.Weighted>
4.3265

> <Gold.Chemscore.Internal.Correction.Weighted>
   9.000000E+99

> <Gold.Protein.RotatedTorsions>
[ 6907 6896 6895 6894 ] final  163.46 input  -60.11 | X-H torsion
[ 7974 7965 7964 7962 ] final   89.71 input  175.53 | X-H torsion
[ 8008 7997 7996 7995 ] final  132.61 input   59.86 | X-H torsion
[ 10167 10162 10161 10158 ] final  -56.13 input  -65.29 | X-H torsion
[ 10718 10713 10712 10709 ] final -163.98 input   66.30 | X-H torsion
[ 10763 10752 10751 10750 ] final -129.12 input  -60.55 | X-H torsion
[ 11005 11000 10999 10996 ] final   -2.08 input  -57.11 | X-H torsion

> <Gold.Protein.ActiveResidues>
 VAL166  LYS551  ARG553  GLY616  TRP617  ASP618  TYR619  PRO620  LYS621  CYS622 
 ASP623  PHE694  ASN695  SER759  ASP760  ASP761  ALA762  ILE779  LEU786  VAL792 
 PHE793  MET794  SER795  GLU796  ALA797  LYS798  CYS799  TRP800  GLU811  SER814 

> <Gold.Protein.RotatedAtoms>
  151.9248  133.3595  159.3909 H   0  0  0  0  0  0  0  0  0  0  0  0  # atno 6907 bound_to 6896
  150.7029  134.4598  159.5384 H   0  0  0  0  0  0  0  0  0  0  0  0  # atno 6908 bound_to 6896
  152.2228  134.8397  160.0534 H   0  0  0  0  0  0  0  0  0  0  0  0  # atno 6909 bound_to 6896
  145.5287  139.2282  143.2631 H   0  0  0  0  0  0  0  0  0  0  0  0  # atno 7974 bound_to 7965
  156.2984  140.2542  156.3118 H   0  0  0  0  0  0  0  0  0  0  0  0  # atno 8008 bound_to 7997
  154.9319  140.0398  157.2071 H   0  0  0  0  0  0  0  0  0  0  0  0  # atno 8009 bound_to 7997
  154.8210  140.2860  155.5791 H   0  0  0  0  0  0  0  0  0  0  0  0  # atno 8010 bound_to 7997
  140.6335  143.2470  151.5180 H   0  0  0  0  0  0  0  0  0  0  0  0  # atno 10167 bound_to 10162
  156.6325  130.8935  151.2980 H   0  0  0  0  0  0  0  0  0  0  0  0  # atno 10718 bound_to 10713
  154.8757  135.3906  154.3868 H   0  0  0  0  0  0  0  0  0  0  0  0  # atno 10763 bound_to 10752
  153.4608  135.7029  153.6056 H   0  0  0  0  0  0  0  0  0  0  0  0  # atno 10764 bound_to 10752
  153.4556  135.3824  155.2277 H   0  0  0  0  0  0  0  0  0  0  0  0  # atno 10765 bound_to 10752
  140.6545  133.9375  155.8399 H   0  0  0  0  0  0  0  0  0  0  0  0  # atno 11005 bound_to 11000
  146.2058  140.6102  142.9081 LP  0  0  0  0  0  0  0  0  0  0  0  0  # atno 17320 bound_to 7965
  144.7637  140.5482  143.6717 LP  0  0  0  0  0  0  0  0  0  0  0  0  # atno 17321 bound_to 7965
  139.5547  144.2306  152.1591 LP  0  0  0  0  0  0  0  0  0  0  0  0  # atno 17342 bound_to 10162
  140.1556  144.5074  150.6662 LP  0  0  0  0  0  0  0  0  0  0  0  0  # atno 17343 bound_to 10162
  157.7196  130.9541  150.1385 LP  0  0  0  0  0  0  0  0  0  0  0  0  # atno 17370 bound_to 10713
  156.2223  130.3675  149.8541 LP  0  0  0  0  0  0  0  0  0  0  0  0  # atno 17371 bound_to 10713
  141.0512  134.0482  157.3781 LP  0  0  0  0  0  0  0  0  0  0  0  0  # atno 17394 bound_to 11000
  139.9034  135.0172  156.7376 LP  0  0  0  0  0  0  0  0  0  0  0  0  # atno 17395 bound_to 11000

$$$$
