AV-unprocessed.smi:161|AV-procd|sdf|1375|dock4
  -GOLD-   2262019 93D 1   1.00000     0.00000
 Structure written by MMmdl.
 52 55  0  0  0  0  0  0  0  0  1 V2000
  146.7096  134.4712  162.5931 C   0  0  0  0  0  0  0  0  0  0  0  0
  147.5735  135.6242  162.0774 C   0  0  0  0  0  0  0  0  0  0  0  0
  147.6839  135.5236  160.6672 O   0  0  0  0  0  0  0  0  0  0  0  0
  148.1656  136.5520  159.9481 C   0  0  0  0  0  0  0  0  0  0  0  0
  148.5317  137.6173  160.4466 O   0  0  0  0  0  0  0  0  0  0  0  0
  148.2019  136.2119  158.4765 C   0  0  2  0  0  0  0  0  0  0  0  0
  146.9244  135.6527  157.8404 C   0  0  0  0  0  0  0  0  0  0  0  0
  148.0148  135.2280  156.8398 C   0  0  2  0  0  0  0  0  0  0  0  0
  147.7488  134.2364  155.7186 C   0  0  0  0  0  0  0  0  0  0  0  0
  148.7930  134.8438  158.1048 C   0  0  0  0  0  0  0  0  0  0  0  0
  148.6315  136.4426  156.3798 O   0  0  0  0  0  0  0  0  0  0  0  0
  148.7966  137.2616  157.5397 C   0  0  0  0  0  0  0  0  0  0  0  0
  150.3038  137.5679  157.7763 C   0  0  0  0  0  0  0  0  0  0  0  0
  150.8426  138.6205  156.7920 C   0  0  0  0  0  0  0  0  0  0  0  0
  150.0021  139.8194  156.8858 N   0  0  0  0  0  0  0  0  0  0  0  0
  150.2696  140.9290  157.6195 C   0  0  0  0  0  0  0  0  0  0  0  0
  149.4237  141.7987  157.8306 O   0  0  0  0  0  0  0  0  0  0  0  0
  151.6077  141.0730  158.2380 C   0  0  0  0  0  0  0  0  0  0  0  0
  152.5441  140.1927  158.7053 C   0  0  0  0  0  0  0  0  0  0  0  0
  153.6478  140.9055  159.1641 N   0  0  0  0  0  0  0  0  0  0  0  0
  153.4384  142.1711  158.9901 N   0  0  0  0  0  0  0  0  0  0  0  0
  152.2151  142.3089  158.4221 N   0  0  0  0  0  0  0  0  0  0  0  0
  151.7328  143.6520  158.1257 C   0  0  0  0  0  0  0  0  0  0  0  0
  152.6673  144.4031  157.1683 C   0  0  0  0  0  0  0  0  0  0  0  0
  148.6580  139.5406  156.3740 C   0  0  0  0  0  0  0  0  0  0  0  0
  147.9711  138.5701  157.3505 C   0  0  0  0  0  0  0  0  0  0  0  0
  146.6168  134.5113  163.6783 H   0  0  0  0  0  0  0  0  0  0  0  0
  147.1442  133.5068  162.3297 H   0  0  0  0  0  0  0  0  0  0  0  0
  145.7059  134.5151  162.1697 H   0  0  0  0  0  0  0  0  0  0  0  0
  147.1200  136.5757  162.3585 H   0  0  0  0  0  0  0  0  0  0  0  0
  148.5668  135.5869  162.5254 H   0  0  0  0  0  0  0  0  0  0  0  0
  146.4196  134.8443  158.3776 H   0  0  0  0  0  0  0  0  0  0  0  0
  146.2088  136.3811  157.4629 H   0  0  0  0  0  0  0  0  0  0  0  0
  147.2830  133.3265  156.0978 H   0  0  0  0  0  0  0  0  0  0  0  0
  148.6739  133.9503  155.2180 H   0  0  0  0  0  0  0  0  0  0  0  0
  147.0827  134.6605  154.9673 H   0  0  0  0  0  0  0  0  0  0  0  0
  149.8734  134.7919  157.9822 H   0  0  0  0  0  0  0  0  0  0  0  0
  148.4173  133.9771  158.6571 H   0  0  0  0  0  0  0  0  0  0  0  0
  150.4473  137.9351  158.7926 H   0  0  0  0  0  0  0  0  0  0  0  0
  150.9135  136.6701  157.6940 H   0  0  0  0  0  0  0  0  0  0  0  0
  151.8960  138.8023  156.9888 H   0  0  0  0  0  0  0  0  0  0  0  0
  150.8074  138.2291  155.7743 H   0  0  0  0  0  0  0  0  0  0  0  0
  152.5136  139.1140  158.7493 H   0  0  0  0  0  0  0  0  0  0  0  0
  150.7371  143.5832  157.6851 H   0  0  0  0  0  0  0  0  0  0  0  0
  151.6135  144.2041  159.0575 H   0  0  0  0  0  0  0  0  0  0  0  0
  152.2529  145.3778  156.9113 H   0  0  0  0  0  0  0  0  0  0  0  0
  152.8132  143.8488  156.2408 H   0  0  0  0  0  0  0  0  0  0  0  0
  153.6461  144.5724  157.6162 H   0  0  0  0  0  0  0  0  0  0  0  0
  148.0597  140.4450  156.2540 H   0  0  0  0  0  0  0  0  0  0  0  0
  148.7204  139.0966  155.3796 H   0  0  0  0  0  0  0  0  0  0  0  0
  146.9645  138.3631  156.9923 H   0  0  0  0  0  0  0  0  0  0  0  0
  147.8560  139.0848  158.3036 H   0  0  0  0  0  0  0  0  0  0  0  0
  1  2  1  0  0  0  0
  1 27  1  0  0  0  0
  1 28  1  0  0  0  0
  1 29  1  0  0  0  0
  2  3  1  0  0  0  0
  2 30  1  0  0  0  0
  2 31  1  0  0  0  0
  3  4  1  0  0  0  0
  4  5  2  0  0  0  0
  4  6  1  0  0  0  0
  6 10  1  0  0  0  0
  6 12  1  0  0  0  0
  6  7  1  0  0  0  0
  7  8  1  0  0  0  0
  7 32  1  0  0  0  0
  7 33  1  0  0  0  0
  8  9  1  0  0  0  0
  8 10  1  0  0  0  0
  8 11  1  0  0  0  0
  9 34  1  0  0  0  0
  9 35  1  0  0  0  0
  9 36  1  0  0  0  0
 10 37  1  0  0  0  0
 10 38  1  0  0  0  0
 11 12  1  0  0  0  0
 12 26  1  0  0  0  0
 12 13  1  0  0  0  0
 13 14  1  0  0  0  0
 13 39  1  0  0  0  0
 13 40  1  0  0  0  0
 14 15  1  0  0  0  0
 14 41  1  0  0  0  0
 14 42  1  0  0  0  0
 15 16  1  0  0  0  0
 15 25  1  0  0  0  0
 16 17  2  0  0  0  0
 16 18  1  0  0  0  0
 18 22  1  0  0  0  0
 18 19  2  0  0  0  0
 19 20  1  0  0  0  0
 19 43  1  0  0  0  0
 20 21  2  0  0  0  0
 21 22  1  0  0  0  0
 22 23  1  0  0  0  0
 23 24  1  0  0  0  0
 23 44  1  0  0  0  0
 23 45  1  0  0  0  0
 24 46  1  0  0  0  0
 24 47  1  0  0  0  0
 24 48  1  0  0  0  0
 25 26  1  0  0  0  0
 25 49  1  0  0  0  0
 25 50  1  0  0  0  0
 26 51  1  0  0  0  0
 26 52  1  0  0  0  0
M  END
> <s_m_source_file>
AV-unprocessed.smi

> <i_m_source_file_index>
161

> <i_lp_mmshare_version>
43012

> <i_f3d_flags>
2

> <s_epik_input>
W0NIM11bQ0gyXU9DKD1PKVtDQEBdMShbQ0gyXVtDQF0oTzIpKFtDSDNdKVtDSDJdMSlDMjNbQ0gyXVtDSDJdTihbQ0gyXVtDSDJdMylDKD1PKWM0W2NIXW5ubjRbQ0gyXVtDSDNd

> <s_epik_cmdline>
J2VwaWtfcHl0aG9uJywgJy1waCcsICc3LjAnLCAnLXRuJywgJzgnLCAnLW1hJywgJzIwMCcsICctbWV0YWxfYmluZGluZycsICctaW1hZScsICc8aW5maWxlLm1hZT4nLCAnLW9tYWUnLCAnPG91dGZpbGUubWFlPic=

> <r_lp_tautomer_probability>
1

> <r_epik_Ionization_Penalty>
1.75517e-07

> <r_epik_Ionization_Penalty_Charging>
0

> <r_epik_Ionization_Penalty_Neutral>
1.75517e-07

> <r_epik_State_Penalty>
-0

> <r_epik_Charging_Adjusted_Penalty>
0

> <i_epik_Tot_Q>
0

> <i_epik_Tot_abs_Q>
0

> <r_epik_Metal_State_Penalty>
-0

> <b_epik_Metal_Only>
0

> <s_epik_Chemistry_Notes>
This compound has an ester and may undergo hydrolysis at high or low pH.

> <s_lp_Force_Field>
OPLS_2005

> <r_lp_Energy>
59.4881

> <b_lp_Chiralities_Consistent>
0

> <s_lp_Variant>
AV-unprocessed.smi:161-1

> <Gold.Version>
5.8.1

> <Gold.Id.Protein>
6NUR|6NUR_protein|mol2

> <Gold.PLP.Fitness>
37.6449

> <Gold.PLP.PLP>
-34.5785

> <Gold.PLP.part.hbond>
-2.1476

> <Gold.PLP.part.metal>
0.0000

> <Gold.PLP.part.buried>
-5.2884

> <Gold.PLP.part.nonpolar>
-28.2578

> <Gold.PLP.part.repulsive>
0.0803

> <Gold.PLP.ligand.clash>
0.0000

> <Gold.PLP.ligand.torsion>
0.7499

> <Gold.PLP.Chemscore.Hbond>
1.2480

> <Gold.PLP.Chemscore.CHOScore>
0.0000

> <Gold.PLP.Chemscore.Metal>
0.0000

> <Gold.Chemscore.Hbonds>
donor molecule, donor type, donor heavy atom, donor atom, acceptor molecule, acceptor atom, score
      P1  H  6931  6943       L1     5  0.50
      P1  H  6934  6947       L1     5  0.38

> <Gold.PLP.Chemscore.Internal.Correction>
0.8222

> <Gold.Rescore>
     Score         DG    S(hbond)    S(metal)    S(lipo)     H(rot)  DE(clash)    DE(int)     intcor
     12.49     -15.53       1.47        0.00      76.03       1.47       0.11       2.93       ----

> <Gold.Chemscore.Fitness>
12.4858

> <Gold.Chemscore.DG>
-15.5255

> <Gold.Chemscore.ZeroCoef>
-5.4800

> <Gold.Chemscore.Hbond>
1.4675

> <Gold.Chemscore.Metal>
0.0000

> <Gold.Chemscore.Lipo>
76.0257

> <Gold.Chemscore.Internal_Hbond>
0.0000

> <Gold.Chemscore.DEClash>
0.1139

> <Gold.Chemscore.DEInternal>
2.9259

> <Gold.Chemscore.Rot>
1.4652

> <Gold.Chemscore.Internal.Correction>
   9.000000E+99

> <Gold.Chemscore.Hbonds>
donor molecule, donor type, donor heavy atom, donor atom, acceptor molecule, acceptor atom, score
      P1  H  6931  6943       L1     5  0.50
      P1  H  6934  6947       L1     5  0.36

> <Gold.Chemscore.Hbond.Weighted>
-4.9015

> <Gold.Chemscore.Metal.Weighted>
-0.0000

> <Gold.Chemscore.Lipo.Weighted>
-8.8950

> <Gold.Chemscore.Internal_Hbond.Weighted>
0.0000

> <Gold.Chemscore.DEClash.Weighted>
0.1139

> <Gold.Chemscore.DEInternal.Weighted>
2.9259

> <Gold.Chemscore.Rot.Weighted>
3.7510

> <Gold.Chemscore.Internal.Correction.Weighted>
   9.000000E+99

> <Gold.Protein.RotatedTorsions>
[ 6907 6896 6895 6894 ] final -174.32 input  -60.11 | X-H torsion
[ 7974 7965 7964 7962 ] final  -77.29 input  175.53 | X-H torsion
[ 8008 7997 7996 7995 ] final  100.21 input   59.86 | X-H torsion
[ 10167 10162 10161 10158 ] final -176.76 input  -65.29 | X-H torsion
[ 10718 10713 10712 10709 ] final  149.60 input   66.30 | X-H torsion
[ 10763 10752 10751 10750 ] final  120.50 input  -60.55 | X-H torsion
[ 11005 11000 10999 10996 ] final  -81.44 input  -57.11 | X-H torsion

> <Gold.Protein.ActiveResidues>
 VAL166  LYS551  ARG553  GLY616  TRP617  ASP618  TYR619  PRO620  LYS621  CYS622 
 ASP623  PHE694  ASN695  SER759  ASP760  ASP761  ALA762  ILE779  LEU786  VAL792 
 PHE793  MET794  SER795  GLU796  ALA797  LYS798  CYS799  TRP800  GLU811  SER814 

> <Gold.Protein.RotatedAtoms>
  151.5705  133.3390  159.2988 H   0  0  0  0  0  0  0  0  0  0  0  0  # atno 6907 bound_to 6896
  150.8370  134.7650  159.6912 H   0  0  0  0  0  0  0  0  0  0  0  0  # atno 6908 bound_to 6896
  152.4445  134.5530  159.9924 H   0  0  0  0  0  0  0  0  0  0  0  0  # atno 6909 bound_to 6896
  145.6017  140.9407  143.1237 H   0  0  0  0  0  0  0  0  0  0  0  0  # atno 7974 bound_to 7965
  156.1181  140.3217  155.8168 H   0  0  0  0  0  0  0  0  0  0  0  0  # atno 8008 bound_to 7997
  155.4554  140.0535  157.3014 H   0  0  0  0  0  0  0  0  0  0  0  0  # atno 8009 bound_to 7997
  154.4807  140.2052  155.9784 H   0  0  0  0  0  0  0  0  0  0  0  0  # atno 8010 bound_to 7997
  139.5513  144.2101  152.1082 H   0  0  0  0  0  0  0  0  0  0  0  0  # atno 10167 bound_to 10162
  157.2940  131.0858  151.1440 H   0  0  0  0  0  0  0  0  0  0  0  0  # atno 10718 bound_to 10713
  153.5995  135.3451  155.2940 H   0  0  0  0  0  0  0  0  0  0  0  0  # atno 10763 bound_to 10752
  154.8638  135.4224  154.2428 H   0  0  0  0  0  0  0  0  0  0  0  0  # atno 10764 bound_to 10752
  153.3254  135.7041  153.7065 H   0  0  0  0  0  0  0  0  0  0  0  0  # atno 10765 bound_to 10752
  141.1666  133.7197  156.8423 H   0  0  0  0  0  0  0  0  0  0  0  0  # atno 11005 bound_to 11000
  144.7307  139.7734  143.7348 LP  0  0  0  0  0  0  0  0  0  0  0  0  # atno 17320 bound_to 7965
  146.1571  139.4673  143.0012 LP  0  0  0  0  0  0  0  0  0  0  0  0  # atno 17321 bound_to 7965
  140.1597  144.5037  150.6640 LP  0  0  0  0  0  0  0  0  0  0  0  0  # atno 17342 bound_to 10162
  140.6777  143.2312  151.5466 LP  0  0  0  0  0  0  0  0  0  0  0  0  # atno 17343 bound_to 10162
  157.2826  130.6757  149.6073 LP  0  0  0  0  0  0  0  0  0  0  0  0  # atno 17370 bound_to 10713
  155.9668  130.4445  150.5465 LP  0  0  0  0  0  0  0  0  0  0  0  0  # atno 17371 bound_to 10713
  140.1974  134.8922  157.3130 LP  0  0  0  0  0  0  0  0  0  0  0  0  # atno 17394 bound_to 11000
  140.2224  134.4007  155.7559 LP  0  0  0  0  0  0  0  0  0  0  0  0  # atno 17395 bound_to 11000

$$$$
