AV-unprocessed.smi:2229|AV-procd|sdf|9029|dock9
  -GOLD-   2272012233D 1   1.00000     0.00000
 Structure written by MMmdl.
 44 45  0  0  0  0  0  0  0  0  1 V2000
  152.1685  144.5888  159.3180 C   0  0  0  0  0  0  0  0  0  0  0  0
  151.9642  143.1358  159.7729 C   0  0  0  0  0  0  0  0  0  0  0  0
  153.2474  142.5913  160.4237 C   0  0  0  0  0  0  0  0  0  0  0  0
  151.4734  142.2617  158.5996 C   0  0  0  0  0  0  0  0  0  0  0  0
  149.9827  142.4494  158.2698 C   0  0  0  0  0  0  0  0  0  0  0  0
  149.4466  141.4679  157.2008 C   0  0  2  0  0  0  0  0  0  0  0  0
  149.9657  141.7431  155.7849 C   0  0  0  0  0  0  0  0  0  0  0  0
  148.9850  141.0077  154.8775 C   0  0  0  0  0  0  0  0  0  0  0  0
  147.6232  141.2028  155.5456 C   0  0  0  0  0  0  0  0  0  0  0  0
  147.9042  141.4105  157.0487 C   0  0  2  0  0  0  0  0  0  0  0  0
  147.2754  142.6299  157.5448 N   0  0  0  0  0  0  0  0  0  0  0  0
  146.4834  142.7475  158.6214 C   0  0  0  0  0  0  0  0  0  0  0  0
  146.1283  141.7844  159.2989 O   0  0  0  0  0  0  0  0  0  0  0  0
  146.0350  144.1637  159.0232 C   0  0  0  0  0  0  0  0  0  0  0  0
  146.7412  144.7185  160.1846 N   0  0  0  0  0  0  0  0  0  0  0  0
  147.2178  146.0124  160.2317 C   0  0  0  0  0  0  0  0  0  0  0  0
  147.7378  146.2931  161.3776 N   0  0  0  0  0  0  0  0  0  0  0  0
  147.5811  145.1354  162.0628 N   0  0  0  0  0  0  0  0  0  0  0  0
  146.9788  144.1664  161.3714 C   0  0  0  0  0  0  0  0  0  0  0  0
  146.6905  143.0348  161.7556 O   0  0  0  0  0  0  0  0  0  0  0  0
  147.9051  145.0792  163.0178 H   0  0  0  0  0  0  0  0  0  0  0  0
  152.9448  144.6596  158.5553 H   0  0  0  0  0  0  0  0  0  0  0  0
  152.4632  145.2250  160.1530 H   0  0  0  0  0  0  0  0  0  0  0  0
  151.2514  145.0044  158.8995 H   0  0  0  0  0  0  0  0  0  0  0  0
  151.1842  143.1442  160.5355 H   0  0  0  0  0  0  0  0  0  0  0  0
  154.0537  142.5019  159.6951 H   0  0  0  0  0  0  0  0  0  0  0  0
  153.0890  141.6106  160.8716 H   0  0  0  0  0  0  0  0  0  0  0  0
  153.5921  143.2515  161.2199 H   0  0  0  0  0  0  0  0  0  0  0  0
  152.0615  142.5103  157.7158 H   0  0  0  0  0  0  0  0  0  0  0  0
  151.6737  141.2104  158.8103 H   0  0  0  0  0  0  0  0  0  0  0  0
  149.4015  142.3164  159.1823 H   0  0  0  0  0  0  0  0  0  0  0  0
  149.8173  143.4778  157.9453 H   0  0  0  0  0  0  0  0  0  0  0  0
  149.7725  140.4631  157.4752 H   0  0  0  0  0  0  0  0  0  0  0  0
  149.9308  142.8127  155.5723 H   0  0  0  0  0  0  0  0  0  0  0  0
  150.9924  141.4066  155.6391 H   0  0  0  0  0  0  0  0  0  0  0  0
  149.0050  141.3758  153.8513 H   0  0  0  0  0  0  0  0  0  0  0  0
  149.2342  139.9461  154.8547 H   0  0  0  0  0  0  0  0  0  0  0  0
  147.1376  142.0811  155.1167 H   0  0  0  0  0  0  0  0  0  0  0  0
  146.9620  140.3543  155.3675 H   0  0  0  0  0  0  0  0  0  0  0  0
  147.5252  140.5635  157.6238 H   0  0  0  0  0  0  0  0  0  0  0  0
  147.5019  143.4774  157.0453 H   0  0  0  0  0  0  0  0  0  0  0  0
  146.1806  144.8247  158.1676 H   0  0  0  0  0  0  0  0  0  0  0  0
  144.9609  144.1491  159.2158 H   0  0  0  0  0  0  0  0  0  0  0  0
  147.1170  146.6567  159.3566 H   0  0  0  0  0  0  0  0  0  0  0  0
  1  2  1  0  0  0  0
  1 22  1  0  0  0  0
  1 23  1  0  0  0  0
  1 24  1  0  0  0  0
  2  3  1  0  0  0  0
  2  4  1  0  0  0  0
  2 25  1  0  0  0  0
  3 26  1  0  0  0  0
  3 27  1  0  0  0  0
  3 28  1  0  0  0  0
  4  5  1  0  0  0  0
  4 29  1  0  0  0  0
  4 30  1  0  0  0  0
  5  6  1  0  0  0  0
  5 31  1  0  0  0  0
  5 32  1  0  0  0  0
  6 10  1  0  0  0  0
  6  7  1  0  0  0  0
  6 33  1  0  0  0  0
  7  8  1  0  0  0  0
  7 34  1  0  0  0  0
  7 35  1  0  0  0  0
  8  9  1  0  0  0  0
  8 36  1  0  0  0  0
  8 37  1  0  0  0  0
  9 10  1  0  0  0  0
  9 38  1  0  0  0  0
  9 39  1  0  0  0  0
 10 11  1  0  0  0  0
 10 40  1  0  0  0  0
 11 12  1  0  0  0  0
 11 41  1  0  0  0  0
 12 13  2  0  0  0  0
 12 14  1  0  0  0  0
 14 15  1  0  0  0  0
 14 42  1  0  0  0  0
 14 43  1  0  0  0  0
 15 19  1  0  0  0  0
 15 16  1  0  0  0  0
 16 17  2  0  0  0  0
 16 44  1  0  0  0  0
 17 18  1  0  0  0  0
 18 21  1  0  0  0  0
 18 19  1  0  0  0  0
 19 20  2  0  0  0  0
M  END
> <s_m_source_file>
AV-unprocessed.smi

> <i_m_source_file_index>
2229

> <i_lp_mmshare_version>
43012

> <i_f3d_flags>
0

> <s_epik_input>
W0NIM11bQ0hdKFtDSDNdKVtDSDJdW0NIMl1bQ0BASF0xW0NIMl1bQ0gyXVtDSDJdW0NASF0xW05IXUMoPU8pW0NIMl1uMltjSF1uW25IXWMyPU8=

> <s_epik_cmdline>
J2VwaWtfcHl0aG9uJywgJy1waCcsICc3LjAnLCAnLXRuJywgJzgnLCAnLW1hJywgJzIwMCcsICctbWV0YWxfYmluZGluZycsICctaW1hZScsICc8aW5maWxlLm1hZT4nLCAnLW9tYWUnLCAnPG91dGZpbGUubWFlPic=

> <r_lp_tautomer_probability>
1

> <r_epik_Ionization_Penalty>
4.14174e-05

> <r_epik_Ionization_Penalty_Charging>
4.13165e-05

> <r_epik_Ionization_Penalty_Neutral>
1.00911e-07

> <r_epik_State_Penalty>
-0

> <r_epik_Charging_Adjusted_Penalty>
4.13165e-05

> <i_epik_Tot_Q>
0

> <i_epik_Tot_abs_Q>
0

> <r_epik_Metal_State_Penalty>
0.0399369

> <b_epik_Metal_Only>
0

> <s_lp_Force_Field>
OPLS_2005

> <r_lp_Energy>
36.2175

> <b_lp_Chiralities_Consistent>
1

> <s_lp_Variant>
AV-unprocessed.smi:2229-3

> <Gold.Version>
5.8.1

> <Gold.Id.Protein>
6NUR|6NUR_protein|mol2

> <Gold.PLP.Fitness>
41.2186

> <Gold.PLP.PLP>
-34.4437

> <Gold.PLP.part.hbond>
-5.1675

> <Gold.PLP.part.metal>
0.0000

> <Gold.PLP.part.buried>
-1.0352

> <Gold.PLP.part.nonpolar>
-28.7462

> <Gold.PLP.part.repulsive>
1.3232

> <Gold.PLP.ligand.clash>
0.0000

> <Gold.PLP.ligand.torsion>
0.6709

> <Gold.PLP.Chemscore.Hbond>
1.9124

> <Gold.PLP.Chemscore.CHOScore>
0.7683

> <Gold.PLP.Chemscore.Metal>
0.0000

> <Gold.Chemscore.Hbonds>
donor molecule, donor type, donor heavy atom, donor atom, acceptor molecule, acceptor atom, score
      P1  H  6933  6944       L1    20  0.54
      P1  H  6934  6946       L1    13  1.00
      L1  C    16    44       P1  8029  0.84

> <Gold.PLP.Chemscore.Internal.Correction>
0.0747

> <Gold.Rescore>
     Score         DG    S(hbond)    S(metal)    S(lipo)     H(rot)  DE(clash)    DE(int)     intcor
      9.22     -13.51       1.57        0.00      81.38       2.64       2.06       2.23       ----

> <Gold.Chemscore.Fitness>
9.2175

> <Gold.Chemscore.DG>
-13.5102

> <Gold.Chemscore.ZeroCoef>
-5.4800

> <Gold.Chemscore.Hbond>
1.5744

> <Gold.Chemscore.Metal>
0.0000

> <Gold.Chemscore.Lipo>
81.3835

> <Gold.Chemscore.Internal_Hbond>
0.0000

> <Gold.Chemscore.DEClash>
2.0622

> <Gold.Chemscore.DEInternal>
2.2305

> <Gold.Chemscore.Rot>
2.6368

> <Gold.Chemscore.Internal.Correction>
   9.000000E+99

> <Gold.Chemscore.Hbonds>
donor molecule, donor type, donor heavy atom, donor atom, acceptor molecule, acceptor atom, score
      P1  H  6933  6944       L1    20  0.06
      P1  H  6934  6946       L1    13  0.94

> <Gold.Chemscore.Hbond.Weighted>
-5.2584

> <Gold.Chemscore.Metal.Weighted>
-0.0000

> <Gold.Chemscore.Lipo.Weighted>
-9.5219

> <Gold.Chemscore.Internal_Hbond.Weighted>
0.0000

> <Gold.Chemscore.DEClash.Weighted>
2.0622

> <Gold.Chemscore.DEInternal.Weighted>
2.2305

> <Gold.Chemscore.Rot.Weighted>
6.7501

> <Gold.Chemscore.Internal.Correction.Weighted>
   9.000000E+99

> <Gold.Protein.RotatedTorsions>
[ 6907 6896 6895 6894 ] final  -32.75 input  -60.11 | X-H torsion
[ 7974 7965 7964 7962 ] final  168.43 input  175.53 | X-H torsion
[ 8008 7997 7996 7995 ] final  161.37 input   59.86 | X-H torsion
[ 10167 10162 10161 10158 ] final  -46.91 input  -65.29 | X-H torsion
[ 10718 10713 10712 10709 ] final   15.19 input   66.30 | X-H torsion
[ 10763 10752 10751 10750 ] final  115.00 input  -60.55 | X-H torsion
[ 11005 11000 10999 10996 ] final   44.43 input  -57.11 | X-H torsion

> <Gold.Protein.ActiveResidues>
 VAL166  LYS551  ARG553  GLY616  TRP617  ASP618  TYR619  PRO620  LYS621  CYS622 
 ASP623  PHE694  ASN695  SER759  ASP760  ASP761  ALA762  ILE779  LEU786  VAL792 
 PHE793  MET794  SER795  GLU796  ALA797  LYS798  CYS799  TRP800  GLU811  SER814 

> <Gold.Protein.RotatedAtoms>
  151.0747  134.9820  159.8325 H   0  0  0  0  0  0  0  0  0  0  0  0  # atno 6907 bound_to 6896
  152.5412  134.2256  159.8815 H   0  0  0  0  0  0  0  0  0  0  0  0  # atno 6908 bound_to 6896
  151.2283  133.4421  159.2636 H   0  0  0  0  0  0  0  0  0  0  0  0  # atno 6909 bound_to 6896
  144.7389  139.8906  143.6403 H   0  0  0  0  0  0  0  0  0  0  0  0  # atno 7974 bound_to 7965
  156.2108  140.1779  156.7700 H   0  0  0  0  0  0  0  0  0  0  0  0  # atno 8008 bound_to 7997
  154.5719  140.0681  156.9007 H   0  0  0  0  0  0  0  0  0  0  0  0  # atno 8009 bound_to 7997
  155.2657  140.3339  155.4272 H   0  0  0  0  0  0  0  0  0  0  0  0  # atno 8010 bound_to 7997
  140.6797  143.2808  151.3851 H   0  0  0  0  0  0  0  0  0  0  0  0  # atno 10167 bound_to 10162
  157.0500  130.6266  149.5766 H   0  0  0  0  0  0  0  0  0  0  0  0  # atno 10718 bound_to 10713
  153.5157  135.3608  155.2608 H   0  0  0  0  0  0  0  0  0  0  0  0  # atno 10763 bound_to 10752
  154.8739  135.4033  154.3318 H   0  0  0  0  0  0  0  0  0  0  0  0  # atno 10764 bound_to 10752
  153.3979  135.7074  153.6514 H   0  0  0  0  0  0  0  0  0  0  0  0  # atno 10765 bound_to 10752
  140.1553  134.4410  155.8354 H   0  0  0  0  0  0  0  0  0  0  0  0  # atno 11005 bound_to 11000
  146.1144  139.4153  143.0267 LP  0  0  0  0  0  0  0  0  0  0  0  0  # atno 17320 bound_to 7965
  145.7396  141.0013  143.1308 LP  0  0  0  0  0  0  0  0  0  0  0  0  # atno 17321 bound_to 7965
  139.6112  144.1095  152.2300 LP  0  0  0  0  0  0  0  0  0  0  0  0  # atno 17342 bound_to 10162
  140.0509  144.5933  150.7336 LP  0  0  0  0  0  0  0  0  0  0  0  0  # atno 17343 bound_to 10162
  156.0011  130.5090  150.7664 LP  0  0  0  0  0  0  0  0  0  0  0  0  # atno 17370 bound_to 10713
  157.5037  131.0920  151.0282 LP  0  0  0  0  0  0  0  0  0  0  0  0  # atno 17371 bound_to 10713
  141.2203  133.6890  156.7495 LP  0  0  0  0  0  0  0  0  0  0  0  0  # atno 17394 bound_to 11000
  140.2555  134.8507  157.3709 LP  0  0  0  0  0  0  0  0  0  0  0  0  # atno 17395 bound_to 11000

$$$$
