AV-unprocessed.smi:3209|AV-procd|sdf|12270|dock4
  -GOLD-   2272018103D 1   1.00000     0.00000
 Structure written by MMmdl.
 37 39  0  0  0  0  0  0  0  0  2 V2000
  153.2863  137.6309  156.5787 C   0  0  0  0  0  0  0  0  0  0  0  0
  152.1649  138.2733  155.8360 C   0  0  0  0  0  0  0  0  0  0  0  0
  151.6513  139.4643  156.1561 N   0  0  0  0  0  0  0  0  0  0  0  0
  150.6049  139.8445  155.3098 C   0  0  0  0  0  0  0  0  0  0  0  0
  149.9107  141.1552  155.5236 C   0  0  0  0  0  0  0  0  0  0  0  0
  149.8562  141.5477  157.0061 C   0  0  0  0  0  0  0  0  0  0  0  0
  150.3554  142.9232  157.2086 N   0  3  0  0  0  0  0  0  0  0  0  0
  150.6824  143.2655  158.6109 C   0  0  2  0  0  0  0  0  0  0  0  0
  150.7553  144.7955  158.8141 C   0  0  0  0  0  0  0  0  0  0  0  0
  152.1744  145.0045  159.3731 C   0  0  1  0  0  0  0  0  0  0  0  0
  152.2572  144.4305  160.7995 C   0  0  0  0  0  0  0  0  0  0  0  0
  152.2318  142.9099  160.5544 C   0  0  0  0  0  0  0  0  0  0  0  0
  152.1038  142.8131  159.0223 C   0  0  2  0  0  0  0  0  0  0  0  0
  152.9737  143.9837  158.5734 C   0  0  0  0  0  0  0  0  0  0  0  0
  150.3359  138.9189  154.3325 C   0  0  0  0  0  0  0  0  0  0  0  0
  151.3863  137.5335  154.4427 S   0  0  0  0  0  0  0  0  0  0  0  0
  153.4984  138.1736  157.5005 H   0  0  0  0  0  0  0  0  0  0  0  0
  154.1848  137.6230  155.9617 H   0  0  0  0  0  0  0  0  0  0  0  0
  153.0258  136.6029  156.8318 H   0  0  0  0  0  0  0  0  0  0  0  0
  150.4177  141.9388  154.9589 H   0  0  0  0  0  0  0  0  0  0  0  0
  148.8974  141.1056  155.1223 H   0  0  0  0  0  0  0  0  0  0  0  0
  148.8302  141.4830  157.3712 H   0  0  0  0  0  0  0  0  0  0  0  0
  150.4517  140.8484  157.5932 H   0  0  0  0  0  0  0  0  0  0  0  0
  151.1770  143.0678  156.6394 H   0  0  0  0  0  0  0  0  0  0  0  0
  149.9236  142.8339  159.2658 H   0  0  0  0  0  0  0  0  0  0  0  0
  150.6372  145.3338  157.8721 H   0  0  0  0  0  0  0  0  0  0  0  0
  149.9867  145.1588  159.4974 H   0  0  0  0  0  0  0  0  0  0  0  0
  152.5287  146.0326  159.2936 H   0  0  0  0  0  0  0  0  0  0  0  0
  153.1885  144.7252  161.2848 H   0  0  0  0  0  0  0  0  0  0  0  0
  151.4312  144.7656  161.4284 H   0  0  0  0  0  0  0  0  0  0  0  0
  153.1624  142.4530  160.8941 H   0  0  0  0  0  0  0  0  0  0  0  0
  151.4101  142.4164  161.0748 H   0  0  0  0  0  0  0  0  0  0  0  0
  152.4049  141.8410  158.6315 H   0  0  0  0  0  0  0  0  0  0  0  0
  152.9475  144.1593  157.4966 H   0  0  0  0  0  0  0  0  0  0  0  0
  154.0133  143.8999  158.8960 H   0  0  0  0  0  0  0  0  0  0  0  0
  149.5863  138.9660  153.5565 H   0  0  0  0  0  0  0  0  0  0  0  0
  149.6330  143.5561  156.8960 H   0  0  0  0  0  0  0  0  0  0  0  0
  1  2  1  0  0  0  0
  1 17  1  0  0  0  0
  1 18  1  0  0  0  0
  1 19  1  0  0  0  0
  2 16  1  0  0  0  0
  2  3  2  0  0  0  0
  3  4  1  0  0  0  0
  4  5  1  0  0  0  0
  4 15  2  0  0  0  0
  5  6  1  0  0  0  0
  5 20  1  0  0  0  0
  5 21  1  0  0  0  0
  6  7  1  0  0  0  0
  6 22  1  0  0  0  0
  6 23  1  0  0  0  0
  7  8  1  0  0  0  0
  7 24  1  0  0  0  0
  7 37  1  0  0  0  0
  8 13  1  0  0  0  0
  8  9  1  0  0  0  0
  8 25  1  0  0  0  0
  9 10  1  0  0  0  0
  9 26  1  0  0  0  0
  9 27  1  0  0  0  0
 10 14  1  0  0  0  0
 10 11  1  0  0  0  0
 10 28  1  0  0  0  0
 11 12  1  0  0  0  0
 11 29  1  0  0  0  0
 11 30  1  0  0  0  0
 12 13  1  0  0  0  0
 12 31  1  0  0  0  0
 12 32  1  0  0  0  0
 13 14  1  0  0  0  0
 13 33  1  0  0  0  0
 14 34  1  0  0  0  0
 14 35  1  0  0  0  0
 15 16  1  0  0  0  0
 15 36  1  0  0  0  0
M  CHG  1   7   1
M  END
> <s_m_source_file>
AV-unprocessed.smi

> <i_m_source_file_index>
3209

> <i_lp_mmshare_version>
43012

> <i_f3d_flags>
0

> <s_epik_input>
W0NIM11jMW5jKFtjSF1zMSlbQ0gyXVtDSDJdW05IXVtDQEhdKFtDSDJdW0NASF0yMylbQ0BIXShbQ0gyXTMpW0NIMl1bQ0gyXTI=

> <s_epik_cmdline>
J2VwaWtfcHl0aG9uJywgJy1waCcsICc3LjAnLCAnLXRuJywgJzgnLCAnLW1hJywgJzIwMCcsICctbWV0YWxfYmluZGluZycsICctaW1hZScsICc8aW5maWxlLm1hZT4nLCAnLW9tYWUnLCAnPG91dGZpbGUubWFlPic=

> <r_lp_tautomer_probability>
1

> <r_epik_Ionization_Penalty>
0.000342479

> <r_epik_Ionization_Penalty_Charging>
0.000317129

> <r_epik_Ionization_Penalty_Neutral>
2.535e-05

> <r_epik_State_Penalty>
-0

> <r_epik_Charging_Adjusted_Penalty>
0.000317129

> <i_epik_Tot_Q>
1

> <i_epik_Tot_abs_Q>
1

> <r_epik_Metal_State_Penalty>
-0

> <b_epik_Metal_Only>
0

> <s_lp_Force_Field>
OPLS_2005

> <r_lp_Energy>
48.4774

> <b_lp_Chiralities_Consistent>
1

> <s_lp_Variant>
AV-unprocessed.smi:3209-3

> <Gold.Version>
5.8.1

> <Gold.Id.Protein>
6NUR|6NUR_protein|mol2

> <Gold.PLP.Fitness>
47.9836

> <Gold.PLP.PLP>
-40.9468

> <Gold.PLP.part.hbond>
-1.0000

> <Gold.PLP.part.metal>
0.0000

> <Gold.PLP.part.buried>
-3.8756

> <Gold.PLP.part.nonpolar>
-36.9017

> <Gold.PLP.part.repulsive>
0.0067

> <Gold.PLP.ligand.clash>
0.0000

> <Gold.PLP.ligand.torsion>
0.9902

> <Gold.PLP.Chemscore.Hbond>
2.0000

> <Gold.PLP.Chemscore.CHOScore>
1.0000

> <Gold.PLP.Chemscore.Metal>
0.0000

> <Gold.Chemscore.Hbonds>
donor molecule, donor type, donor heavy atom, donor atom, acceptor molecule, acceptor atom, score
      L1  H     7    37       P1  8028  2.00
      L1  C    15    36       P1  7957  0.78

> <Gold.PLP.Chemscore.Internal.Correction>
0.0172

> <Gold.Rescore>
     Score         DG    S(hbond)    S(metal)    S(lipo)     H(rot)  DE(clash)    DE(int)     intcor
     20.08     -20.90       1.00        0.00     131.95       1.31       0.10       0.72       ----

> <Gold.Chemscore.Fitness>
20.0781

> <Gold.Chemscore.DG>
-20.9012

> <Gold.Chemscore.ZeroCoef>
-5.4800

> <Gold.Chemscore.Hbond>
0.9997

> <Gold.Chemscore.Metal>
0.0000

> <Gold.Chemscore.Lipo>
131.9473

> <Gold.Chemscore.Internal_Hbond>
0.0000

> <Gold.Chemscore.DEClash>
0.0982

> <Gold.Chemscore.DEInternal>
0.7249

> <Gold.Chemscore.Rot>
1.3108

> <Gold.Chemscore.Internal.Correction>
   9.000000E+99

> <Gold.Chemscore.Hbonds>
donor molecule, donor type, donor heavy atom, donor atom, acceptor molecule, acceptor atom, score
      L1  H     7    37       P1  8028  0.95

> <Gold.Chemscore.Hbond.Weighted>
-3.3391

> <Gold.Chemscore.Metal.Weighted>
-0.0000

> <Gold.Chemscore.Lipo.Weighted>
-15.4378

> <Gold.Chemscore.Internal_Hbond.Weighted>
0.0000

> <Gold.Chemscore.DEClash.Weighted>
0.0982

> <Gold.Chemscore.DEInternal.Weighted>
0.7249

> <Gold.Chemscore.Rot.Weighted>
3.3558

> <Gold.Chemscore.Internal.Correction.Weighted>
   9.000000E+99

> <Gold.Protein.RotatedTorsions>
[ 6907 6896 6895 6894 ] final  -24.05 input  -60.11 | X-H torsion
[ 7974 7965 7964 7962 ] final   48.39 input  175.53 | X-H torsion
[ 8008 7997 7996 7995 ] final  151.08 input   59.86 | X-H torsion
[ 10167 10162 10161 10158 ] final  -24.42 input  -65.29 | X-H torsion
[ 10718 10713 10712 10709 ] final -110.24 input   66.30 | X-H torsion
[ 10763 10752 10751 10750 ] final  135.46 input  -60.55 | X-H torsion
[ 11005 11000 10999 10996 ] final  -19.90 input  -57.11 | X-H torsion

> <Gold.Protein.ActiveResidues>
 VAL166  LYS551  ARG553  GLY616  TRP617  ASP618  TYR619  PRO620  LYS621  CYS622 
 ASP623  PHE694  ASN695  SER759  ASP760  ASP761  ALA762  ILE779  LEU786  VAL792 
 PHE793  MET794  SER795  GLU796  ALA797  LYS798  CYS799  TRP800  GLU811  SER814 

> <Gold.Protein.RotatedAtoms>
  151.1951  135.0419  159.8848 H   0  0  0  0  0  0  0  0  0  0  0  0  # atno 6907 bound_to 6896
  152.5437  134.0913  159.8288 H   0  0  0  0  0  0  0  0  0  0  0  0  # atno 6908 bound_to 6896
  151.1046  133.5170  159.2640 H   0  0  0  0  0  0  0  0  0  0  0  0  # atno 6909 bound_to 6896
  146.0209  139.4650  142.9898 H   0  0  0  0  0  0  0  0  0  0  0  0  # atno 7974 bound_to 7965
  156.2689  140.2057  156.6119 H   0  0  0  0  0  0  0  0  0  0  0  0  # atno 8008 bound_to 7997
  154.6825  140.0538  157.0304 H   0  0  0  0  0  0  0  0  0  0  0  0  # atno 8009 bound_to 7997
  155.0981  140.3203  155.4557 H   0  0  0  0  0  0  0  0  0  0  0  0  # atno 8010 bound_to 7997
  140.7288  143.4355  151.0736 H   0  0  0  0  0  0  0  0  0  0  0  0  # atno 10167 bound_to 10162
  156.0580  130.5805  150.8210 H   0  0  0  0  0  0  0  0  0  0  0  0  # atno 10718 bound_to 10713
  153.8403  135.3092  155.3425 H   0  0  0  0  0  0  0  0  0  0  0  0  # atno 10763 bound_to 10752
  154.7935  135.4769  154.0110 H   0  0  0  0  0  0  0  0  0  0  0  0  # atno 10764 bound_to 10752
  153.1579  135.6855  153.8876 H   0  0  0  0  0  0  0  0  0  0  0  0  # atno 10765 bound_to 10752
  140.8412  133.7925  155.9863 H   0  0  0  0  0  0  0  0  0  0  0  0  # atno 11005 bound_to 11000
  145.7195  141.0080  143.1410 LP  0  0  0  0  0  0  0  0  0  0  0  0  # atno 17320 bound_to 7965
  144.6989  139.8853  143.7450 LP  0  0  0  0  0  0  0  0  0  0  0  0  # atno 17321 bound_to 7965
  139.8016  143.8075  152.3163 LP  0  0  0  0  0  0  0  0  0  0  0  0  # atno 17342 bound_to 10162
  139.8094  144.7342  150.9718 LP  0  0  0  0  0  0  0  0  0  0  0  0  # atno 17343 bound_to 10162
  157.5566  131.0945  150.9619 LP  0  0  0  0  0  0  0  0  0  0  0  0  # atno 17370 bound_to 10713
  156.9867  130.5547  149.5300 LP  0  0  0  0  0  0  0  0  0  0  0  0  # atno 17371 bound_to 10713
  140.8893  134.2515  157.5103 LP  0  0  0  0  0  0  0  0  0  0  0  0  # atno 17394 bound_to 11000
  139.8703  134.9653  156.4525 LP  0  0  0  0  0  0  0  0  0  0  0  0  # atno 17395 bound_to 11000

$$$$
