AV-unprocessed.smi:2858|AV-procd|sdf|11000|dock6
  -GOLD-   2272015453D 1   1.00000     0.00000
 Structure written by MMmdl.
 40 41  0  0  0  0  0  0  0  0  2 V2000
  142.0633  142.0106  156.3150 O   0  0  0  0  0  0  0  0  0  0  0  0
  143.1068  141.4549  155.9820 C   0  0  0  0  0  0  0  0  0  0  0  0
  144.2545  142.2872  155.3898 C   0  0  0  0  0  0  0  0  0  0  0  0
  145.2876  141.4791  154.6914 N   0  3  1  0  0  0  0  0  0  0  0  0
  146.4296  142.3077  154.2308 C   0  0  0  0  0  0  0  0  0  0  0  0
  147.4174  141.5133  153.3602 C   0  0  0  0  0  0  0  0  0  0  0  0
  148.5912  140.9482  154.1776 C   0  0  0  0  0  0  0  0  0  0  0  0
  149.1105  141.9281  155.1251 N   0  0  0  0  0  0  0  0  0  0  0  0
  150.0379  141.6721  156.0598 C   0  0  0  0  0  0  0  0  0  0  0  0
  150.5600  140.5666  156.2074 O   0  0  0  0  0  0  0  0  0  0  0  0
  150.3127  142.7676  156.7899 N   0  0  0  0  0  0  0  0  0  0  0  0
  151.2388  142.8993  157.8590 C   0  0  0  0  0  0  0  0  0  0  0  0
  151.4002  144.2135  158.3536 C   0  0  0  0  0  0  0  0  0  0  0  0
  152.2976  144.4495  159.4133 C   0  0  0  0  0  0  0  0  0  0  0  0
  153.0098  143.3637  159.9530 C   0  0  0  0  0  0  0  0  0  0  0  0
  152.7903  142.0875  159.4028 C   0  0  0  0  0  0  0  0  0  0  0  0
  151.9321  141.8591  158.3862 N   0  0  0  0  0  0  0  0  0  0  0  0
  145.6940  140.2974  155.4900 C   0  0  0  0  0  0  0  0  0  0  0  0
  144.4798  139.3881  155.7483 C   0  0  0  0  0  0  0  0  0  0  0  0
  143.2794  140.1308  156.1248 N   0  0  0  0  0  0  0  0  0  0  0  0
  143.8371  143.0187  154.6964 H   0  0  0  0  0  0  0  0  0  0  0  0
  144.7196  142.8457  156.2036 H   0  0  0  0  0  0  0  0  0  0  0  0
  146.0481  143.1383  153.6350 H   0  0  0  0  0  0  0  0  0  0  0  0
  146.9363  142.7509  155.0895 H   0  0  0  0  0  0  0  0  0  0  0  0
  146.9008  140.6920  152.8646 H   0  0  0  0  0  0  0  0  0  0  0  0
  147.8042  142.1563  152.5683 H   0  0  0  0  0  0  0  0  0  0  0  0
  148.2670  140.0718  154.7395 H   0  0  0  0  0  0  0  0  0  0  0  0
  149.3923  140.6139  153.5159 H   0  0  0  0  0  0  0  0  0  0  0  0
  148.7315  142.8624  155.0710 H   0  0  0  0  0  0  0  0  0  0  0  0
  149.8024  143.6055  156.5532 H   0  0  0  0  0  0  0  0  0  0  0  0
  150.8444  145.0364  157.9281 H   0  0  0  0  0  0  0  0  0  0  0  0
  152.4357  145.4463  159.8051 H   0  0  0  0  0  0  0  0  0  0  0  0
  153.7057  143.5047  160.7667 H   0  0  0  0  0  0  0  0  0  0  0  0
  153.3166  141.2271  159.7885 H   0  0  0  0  0  0  0  0  0  0  0  0
  146.4693  139.7224  154.9850 H   0  0  0  0  0  0  0  0  0  0  0  0
  146.1188  140.6349  156.4370 H   0  0  0  0  0  0  0  0  0  0  0  0
  144.2469  138.8237  154.8446 H   0  0  0  0  0  0  0  0  0  0  0  0
  144.7111  138.6568  156.5231 H   0  0  0  0  0  0  0  0  0  0  0  0
  142.5178  139.5969  156.5194 H   0  0  0  0  0  0  0  0  0  0  0  0
  144.8404  141.1212  153.8596 H   0  0  0  0  0  0  0  0  0  0  0  0
  1  2  2  0  0  0  0
  2 20  1  0  0  0  0
  2  3  1  0  0  0  0
  3  4  1  0  0  0  0
  3 21  1  0  0  0  0
  3 22  1  0  0  0  0
  4  5  1  0  0  0  0
  4 18  1  0  0  0  0
  4 40  1  0  0  0  0
  5  6  1  0  0  0  0
  5 23  1  0  0  0  0
  5 24  1  0  0  0  0
  6  7  1  0  0  0  0
  6 25  1  0  0  0  0
  6 26  1  0  0  0  0
  7  8  1  0  0  0  0
  7 27  1  0  0  0  0
  7 28  1  0  0  0  0
  8  9  1  0  0  0  0
  8 29  1  0  0  0  0
  9 10  2  0  0  0  0
  9 11  1  0  0  0  0
 11 12  1  0  0  0  0
 11 30  1  0  0  0  0
 12 17  1  0  0  0  0
 12 13  2  0  0  0  0
 13 14  1  0  0  0  0
 13 31  1  0  0  0  0
 14 15  2  0  0  0  0
 14 32  1  0  0  0  0
 15 16  1  0  0  0  0
 15 33  1  0  0  0  0
 16 17  2  0  0  0  0
 16 34  1  0  0  0  0
 18 19  1  0  0  0  0
 18 35  1  0  0  0  0
 18 36  1  0  0  0  0
 19 20  1  0  0  0  0
 19 37  1  0  0  0  0
 19 38  1  0  0  0  0
 20 39  1  0  0  0  0
M  CHG  1   4   1
M  END
> <s_m_source_file>
AV-unprocessed.smi

> <i_m_source_file_index>
2858

> <i_lp_mmshare_version>
43012

> <i_f3d_flags>
0

> <s_epik_input>
Tz1DMVtDSDJdTihbQ0gyXVtDSDJdW05IXTEpW0NIMl1bQ0gyXVtDSDJdW05IXUMoPU8pW05IXWMyW2NIXVtjSF1bY0hdW2NIXW4y

> <s_epik_cmdline>
J2VwaWtfcHl0aG9uJywgJy1waCcsICc3LjAnLCAnLXRuJywgJzgnLCAnLW1hJywgJzIwMCcsICctbWV0YWxfYmluZGluZycsICctaW1hZScsICc8aW5maWxlLm1hZT4nLCAnLW9tYWUnLCAnPG91dGZpbGUubWFlPic=

> <r_epik_Ionization_Penalty>
0.11034

> <r_epik_Ionization_Penalty_Charging>
0.110189

> <r_epik_Ionization_Penalty_Neutral>
0.000150894

> <r_epik_State_Penalty>
0.0999426

> <r_epik_Charging_Adjusted_Penalty>
0.210132

> <i_epik_Tot_Q>
1

> <i_epik_Tot_abs_Q>
1

> <r_epik_Metal_State_Penalty>
0.172915

> <b_epik_Metal_Only>
0

> <s_lp_Force_Field>
OPLS_2005

> <r_lp_Energy>
20.0709

> <b_lp_Chiralities_Consistent>
1

> <s_lp_Variant>
AV-unprocessed.smi:2858-2

> <Gold.Version>
5.8.1

> <Gold.Id.Protein>
6NUR|6NUR_protein|mol2

> <Gold.PLP.Fitness>
48.5856

> <Gold.PLP.PLP>
-37.4116

> <Gold.PLP.part.hbond>
-3.0000

> <Gold.PLP.part.metal>
0.0000

> <Gold.PLP.part.buried>
-6.6438

> <Gold.PLP.part.nonpolar>
-28.8197

> <Gold.PLP.part.repulsive>
0.3292

> <Gold.PLP.ligand.clash>
0.0000

> <Gold.PLP.ligand.torsion>
0.3471

> <Gold.PLP.Chemscore.Hbond>
3.9440

> <Gold.PLP.Chemscore.CHOScore>
0.0000

> <Gold.PLP.Chemscore.Metal>
0.0000

> <Gold.Chemscore.Hbonds>
donor molecule, donor type, donor heavy atom, donor atom, acceptor molecule, acceptor atom, score
      L1  H     4    40       P1 10175  2.00
      L1  H     8    29       P1  8028  0.96
      L1  H    11    30       P1  8028  1.00

> <Gold.PLP.Chemscore.Internal.Correction>
0.0363

> <Gold.Rescore>
     Score         DG    S(hbond)    S(metal)    S(lipo)     H(rot)  DE(clash)    DE(int)     intcor
     16.27     -18.04       2.62        0.00      78.17       2.08       0.02       1.76       ----

> <Gold.Chemscore.Fitness>
16.2689

> <Gold.Chemscore.DG>
-18.0437

> <Gold.Chemscore.ZeroCoef>
-5.4800

> <Gold.Chemscore.Hbond>
2.6159

> <Gold.Chemscore.Metal>
0.0000

> <Gold.Chemscore.Lipo>
78.1655

> <Gold.Chemscore.Internal_Hbond>
0.0000

> <Gold.Chemscore.DEClash>
0.0185

> <Gold.Chemscore.DEInternal>
1.7563

> <Gold.Chemscore.Rot>
2.0777

> <Gold.Chemscore.Internal.Correction>
   9.000000E+99

> <Gold.Chemscore.Hbonds>
donor molecule, donor type, donor heavy atom, donor atom, acceptor molecule, acceptor atom, score
      L1  H     4    40       P1 10175  0.70
      L1  H     8    29       P1  8028  0.91
      L1  H    11    30       P1  8028  1.00

> <Gold.Chemscore.Hbond.Weighted>
-8.7371

> <Gold.Chemscore.Metal.Weighted>
-0.0000

> <Gold.Chemscore.Lipo.Weighted>
-9.1454

> <Gold.Chemscore.Internal_Hbond.Weighted>
0.0000

> <Gold.Chemscore.DEClash.Weighted>
0.0185

> <Gold.Chemscore.DEInternal.Weighted>
1.7563

> <Gold.Chemscore.Rot.Weighted>
5.3188

> <Gold.Chemscore.Internal.Correction.Weighted>
   9.000000E+99

> <Gold.Protein.RotatedTorsions>
[ 6907 6896 6895 6894 ] final   98.05 input  -60.11 | X-H torsion
[ 7974 7965 7964 7962 ] final   71.00 input  175.53 | X-H torsion
[ 8008 7997 7996 7995 ] final -152.16 input   59.86 | X-H torsion
[ 10167 10162 10161 10158 ] final  -95.46 input  -65.29 | X-H torsion
[ 10718 10713 10712 10709 ] final   30.75 input   66.30 | X-H torsion
[ 10763 10752 10751 10750 ] final   67.32 input  -60.55 | X-H torsion
[ 11005 11000 10999 10996 ] final   94.77 input  -57.11 | X-H torsion

> <Gold.Protein.ActiveResidues>
 VAL166  LYS551  ARG553  GLY616  TRP617  ASP618  TYR619  PRO620  LYS621  CYS622 
 ASP623  PHE694  ASN695  SER759  ASP760  ASP761  ALA762  ILE779  LEU786  VAL792 
 PHE793  MET794  SER795  GLU796  ALA797  LYS798  CYS799  TRP800  GLU811  SER814 

> <Gold.Protein.RotatedAtoms>
  152.5415  134.0640  159.8164 H   0  0  0  0  0  0  0  0  0  0  0  0  # atno 6907 bound_to 6896
  151.0764  133.5418  159.2631 H   0  0  0  0  0  0  0  0  0  0  0  0  # atno 6908 bound_to 6896
  151.2261  135.0545  159.9023 H   0  0  0  0  0  0  0  0  0  0  0  0  # atno 6909 bound_to 6896
  145.7713  139.2844  143.1319 H   0  0  0  0  0  0  0  0  0  0  0  0  # atno 7974 bound_to 7965
  155.6507  140.0711  157.2588 H   0  0  0  0  0  0  0  0  0  0  0  0  # atno 8008 bound_to 7997
  154.4163  140.1734  156.1721 H   0  0  0  0  0  0  0  0  0  0  0  0  # atno 8009 bound_to 7997
  155.9779  140.3356  155.6639 H   0  0  0  0  0  0  0  0  0  0  0  0  # atno 8010 bound_to 7997
  140.3039  143.3145  152.0219 H   0  0  0  0  0  0  0  0  0  0  0  0  # atno 10167 bound_to 10162
  157.2636  130.7173  149.6467 H   0  0  0  0  0  0  0  0  0  0  0  0  # atno 10718 bound_to 10713
  153.0181  135.5288  154.6961 H   0  0  0  0  0  0  0  0  0  0  0  0  # atno 10763 bound_to 10752
  154.6083  135.2875  155.0463 H   0  0  0  0  0  0  0  0  0  0  0  0  # atno 10764 bound_to 10752
  154.1494  135.6565  153.5012 H   0  0  0  0  0  0  0  0  0  0  0  0  # atno 10765 bound_to 10752
  139.8795  134.8863  156.3913 H   0  0  0  0  0  0  0  0  0  0  0  0  # atno 11005 bound_to 11000
  146.0167  140.8386  142.9943 LP  0  0  0  0  0  0  0  0  0  0  0  0  # atno 17320 bound_to 7965
  144.6812  140.2569  143.7324 LP  0  0  0  0  0  0  0  0  0  0  0  0  # atno 17321 bound_to 7965
  139.4909  144.6435  151.6827 LP  0  0  0  0  0  0  0  0  0  0  0  0  # atno 17342 bound_to 10162
  140.5627  144.0242  150.6177 LP  0  0  0  0  0  0  0  0  0  0  0  0  # atno 17343 bound_to 10162
  155.9664  130.4390  150.5239 LP  0  0  0  0  0  0  0  0  0  0  0  0  # atno 17370 bound_to 10713
  157.3149  131.0671  151.1974 LP  0  0  0  0  0  0  0  0  0  0  0  0  # atno 17371 bound_to 10713
  140.9331  133.7566  156.0050 LP  0  0  0  0  0  0  0  0  0  0  0  0  # atno 17394 bound_to 11000
  140.8308  134.3181  157.5349 LP  0  0  0  0  0  0  0  0  0  0  0  0  # atno 17395 bound_to 11000

$$$$
