AV-unprocessed.smi:54|AV-procd|sdf|529|dock2
  -GOLD-   2262016403D 1   1.00000     0.00000
 Structure written by MMmdl.
 44 46  0  0  0  0  0  0  0  0  1 V2000
  145.9543  130.5873  151.4553 C   0  0  0  0  0  0  0  0  0  0  0  0
  144.9729  131.7632  151.3233 C   0  0  0  0  0  0  0  0  0  0  0  0
  144.7921  132.1776  149.8539 C   0  0  0  0  0  0  0  0  0  0  0  0
  145.4414  132.9558  152.1641 C   0  0  0  0  0  0  0  0  0  0  0  0
  146.4827  133.5624  151.9131 O   0  0  0  0  0  0  0  0  0  0  0  0
  144.5831  133.3090  153.2788 N   0  0  0  0  0  0  0  0  0  0  0  0
  144.7557  134.3287  154.1505 C   0  0  0  0  0  0  0  0  0  0  0  0
  145.7032  135.2460  154.0135 N   0  0  0  0  0  0  0  0  0  0  0  0
  145.6986  136.2207  154.9747 C   0  0  0  0  0  0  0  0  0  0  0  0
  144.8208  136.3165  156.0362 C   0  0  0  0  0  0  0  0  0  0  0  0
  145.1166  137.4337  156.8080 N   0  0  0  0  0  0  0  0  0  0  0  0
  146.1359  137.9741  156.2026 C   0  0  0  0  0  0  0  0  0  0  0  0
  146.5538  137.3023  155.0795 N   0  0  0  0  0  0  0  0  0  0  0  0
  147.6857  137.6689  154.1742 C   0  0  2  0  0  0  0  0  0  0  0  0
  148.8322  137.8345  154.9511 O   0  0  0  0  0  0  0  0  0  0  0  0
  149.5396  138.9935  154.5253 C   0  0  2  0  0  0  0  0  0  0  0  0
  150.3988  139.5294  155.6812 C   0  0  0  0  0  0  0  0  0  0  0  0
  151.3272  140.4766  155.1979 O   0  0  0  0  0  0  0  0  0  0  0  0
  148.4111  139.9370  154.1049 C   0  0  1  0  0  0  0  0  0  0  0  0
  148.8499  140.9733  153.2464 O   0  0  0  0  0  0  0  0  0  0  0  0
  147.4014  138.9964  153.4537 C   0  0  1  0  0  0  0  0  0  0  0  0
  147.6088  138.8667  152.0586 O   0  0  0  0  0  0  0  0  0  0  0  0
  143.7917  135.3304  156.1979 C   0  0  0  0  0  0  0  0  0  0  0  0
  142.9346  135.2603  157.0761 O   0  0  0  0  0  0  0  0  0  0  0  0
  143.8279  134.3593  155.1902 N   0  0  0  0  0  0  0  0  0  0  0  0
  147.7910  136.8158  153.5020 H   0  0  0  0  0  0  0  0  0  0  0  0
  150.1510  138.7444  153.6554 H   0  0  0  0  0  0  0  0  0  0  0  0
  147.9568  140.3870  154.9862 H   0  0  0  0  0  0  0  0  0  0  0  0
  146.3753  139.3259  153.6238 H   0  0  0  0  0  0  0  0  0  0  0  0
  146.0870  130.2962  152.4981 H   0  0  0  0  0  0  0  0  0  0  0  0
  146.9366  130.8362  151.0515 H   0  0  0  0  0  0  0  0  0  0  0  0
  145.5884  129.7127  150.9166 H   0  0  0  0  0  0  0  0  0  0  0  0
  144.0036  131.4378  151.7038 H   0  0  0  0  0  0  0  0  0  0  0  0
  144.1018  133.0171  149.7605 H   0  0  0  0  0  0  0  0  0  0  0  0
  144.3864  131.3547  149.2646 H   0  0  0  0  0  0  0  0  0  0  0  0
  145.7390  132.4732  149.3997 H   0  0  0  0  0  0  0  0  0  0  0  0
  143.7923  132.7026  153.4389 H   0  0  0  0  0  0  0  0  0  0  0  0
  146.6112  138.8762  156.5596 H   0  0  0  0  0  0  0  0  0  0  0  0
  149.7704  140.0322  156.4170 H   0  0  0  0  0  0  0  0  0  0  0  0
  150.9191  138.7219  156.1966 H   0  0  0  0  0  0  0  0  0  0  0  0
  152.0214  140.5672  155.8326 H   0  0  0  0  0  0  0  0  0  0  0  0
  148.9358  140.6214  152.3736 H   0  0  0  0  0  0  0  0  0  0  0  0
  147.9731  138.0110  151.8896 H   0  0  0  0  0  0  0  0  0  0  0  0
  143.1258  133.6354  155.2367 H   0  0  0  0  0  0  0  0  0  0  0  0
  1  2  1  0  0  0  0
  1 30  1  0  0  0  0
  1 31  1  0  0  0  0
  1 32  1  0  0  0  0
  2  3  1  0  0  0  0
  2  4  1  0  0  0  0
  2 33  1  0  0  0  0
  3 34  1  0  0  0  0
  3 35  1  0  0  0  0
  3 36  1  0  0  0  0
  4  5  2  0  0  0  0
  4  6  1  0  0  0  0
  6 37  1  0  0  0  0
  6  7  1  0  0  0  0
  7 25  1  0  0  0  0
  7  8  2  0  0  0  0
  8  9  1  0  0  0  0
  9 13  1  0  0  0  0
  9 10  2  0  0  0  0
 10 11  1  0  0  0  0
 10 23  1  0  0  0  0
 11 12  2  0  0  0  0
 12 13  1  0  0  0  0
 12 38  1  0  0  0  0
 13 14  1  0  0  0  0
 14 26  1  0  0  0  0
 14 21  1  0  0  0  0
 14 15  1  0  0  0  0
 15 16  1  0  0  0  0
 16 27  1  0  0  0  0
 16 17  1  0  0  0  0
 16 19  1  0  0  0  0
 17 18  1  0  0  0  0
 17 39  1  0  0  0  0
 17 40  1  0  0  0  0
 18 41  1  0  0  0  0
 19 28  1  0  0  0  0
 19 20  1  0  0  0  0
 19 21  1  0  0  0  0
 20 42  1  0  0  0  0
 21 29  1  0  0  0  0
 21 22  1  0  0  0  0
 22 43  1  0  0  0  0
 23 24  2  0  0  0  0
 23 25  1  0  0  0  0
 25 44  1  0  0  0  0
M  END
> <s_m_source_file>
AV-unprocessed.smi

> <i_m_source_file_index>
54

> <i_lp_mmshare_version>
43012

> <i_f3d_flags>
0

> <s_epik_input>
W0NIM11bQ0hdKFtDSDNdKUMoPU8pW05IXWMobjEpW25IXWMoPU8pYyhjMTIpbltjSF1uMltDQEBIXTNPW0NASF0oW0NIMl1bT0hdKVtDQEBIXShbT0hdKVtDQEhdM1tPSF0=

> <s_epik_cmdline>
J2VwaWtfcHl0aG9uJywgJy1waCcsICc3LjAnLCAnLXRuJywgJzgnLCAnLW1hJywgJzIwMCcsICctbWV0YWxfYmluZGluZycsICctaW1hZScsICc8aW5maWxlLm1hZT4nLCAnLW9tYWUnLCAnPG91dGZpbGUubWFlPic=

> <r_lp_tautomer_probability>
0.85571

> <r_epik_Ionization_Penalty>
0.0316551

> <r_epik_Ionization_Penalty_Charging>
0.0316043

> <r_epik_Ionization_Penalty_Neutral>
5.07097e-05

> <r_epik_State_Penalty>
3.15494e-07

> <r_epik_Charging_Adjusted_Penalty>
0.0316047

> <i_epik_Tot_Q>
0

> <i_epik_Tot_abs_Q>
0

> <r_epik_Metal_State_Penalty>
0.421206

> <b_epik_Metal_Only>
0

> <s_epik_Chemistry_Notes>
This compound contains an acetal/aminal-like group ( X-CH(R)-Y where X, Y are N, S, or O) that may be acid/base labile, releasing an aldehyde.

> <s_lp_Force_Field>
OPLS_2005

> <r_lp_Energy>
41.8927

> <b_lp_Chiralities_Consistent>
1

> <s_lp_Variant>
AV-unprocessed.smi:54-1

> <Gold.Version>
5.8.1

> <Gold.Id.Protein>
6NUR|6NUR_protein|mol2

> <Gold.PLP.Fitness>
42.1060

> <Gold.PLP.PLP>
-27.4079

> <Gold.PLP.part.hbond>
-7.7814

> <Gold.PLP.part.metal>
0.0000

> <Gold.PLP.part.buried>
-4.0226

> <Gold.PLP.part.nonpolar>
-16.6502

> <Gold.PLP.part.repulsive>
0.3908

> <Gold.PLP.ligand.clash>
0.0000

> <Gold.PLP.ligand.torsion>
0.2510

> <Gold.PLP.Chemscore.Hbond>
5.0577

> <Gold.PLP.Chemscore.CHOScore>
0.0000

> <Gold.PLP.Chemscore.Metal>
0.0000

> <Gold.Chemscore.Hbonds>
donor molecule, donor type, donor heavy atom, donor atom, acceptor molecule, acceptor atom, score
      L1  H     6    37       P1 10957  0.94
      L1  H    20    42       P1  7957  0.91
      L1  H    22    43       P1  7948  1.00
      L1  H    25    44       P1 10957  0.93
      P1  H  7989  7998       L1    18  0.93
      P1  H 11000 11005       L1    24  0.22

> <Gold.PLP.Chemscore.Internal.Correction>
0.0272

> <Gold.Rescore>
     Score         DG    S(hbond)    S(metal)    S(lipo)     H(rot)  DE(clash)    DE(int)     intcor
     14.70     -16.46       4.59        0.00      51.45       4.05       0.01       1.75       ----

> <Gold.Chemscore.Fitness>
14.7004

> <Gold.Chemscore.DG>
-16.4600

> <Gold.Chemscore.ZeroCoef>
-5.4800

> <Gold.Chemscore.Hbond>
4.5889

> <Gold.Chemscore.Metal>
0.0000

> <Gold.Chemscore.Lipo>
51.4473

> <Gold.Chemscore.Internal_Hbond>
0.0000

> <Gold.Chemscore.DEClash>
0.0126

> <Gold.Chemscore.DEInternal>
1.7470

> <Gold.Chemscore.Rot>
4.0493

> <Gold.Chemscore.Internal.Correction>
   9.000000E+99

> <Gold.Chemscore.Hbonds>
donor molecule, donor type, donor heavy atom, donor atom, acceptor molecule, acceptor atom, score
      L1  H     6    37       P1 10957  0.44
      L1  H    20    42       P1  7957  0.88
      L1  H    22    43       P1  7948  0.96
      L1  H    25    44       P1 10957  0.89
      P1  H  7989  7998       L1    18  0.87
      P1  H 11000 11005       L1    24  0.21

> <Gold.Chemscore.Hbond.Weighted>
-15.3269

> <Gold.Chemscore.Metal.Weighted>
-0.0000

> <Gold.Chemscore.Lipo.Weighted>
-6.0193

> <Gold.Chemscore.Internal_Hbond.Weighted>
0.0000

> <Gold.Chemscore.DEClash.Weighted>
0.0126

> <Gold.Chemscore.DEInternal.Weighted>
1.7470

> <Gold.Chemscore.Rot.Weighted>
10.3662

> <Gold.Chemscore.Internal.Correction.Weighted>
   9.000000E+99

> <Gold.Protein.RotatedTorsions>
[ 6907 6896 6895 6894 ] final   49.83 input  -60.11 | X-H torsion
[ 7974 7965 7964 7962 ] final -143.75 input  175.53 | X-H torsion
[ 8008 7997 7996 7995 ] final   30.31 input   59.86 | X-H torsion
[ 10167 10162 10161 10158 ] final -122.68 input  -65.29 | X-H torsion
[ 10718 10713 10712 10709 ] final  -21.03 input   66.30 | X-H torsion
[ 10763 10752 10751 10750 ] final   62.51 input  -60.55 | X-H torsion
[ 11005 11000 10999 10996 ] final -112.10 input  -57.11 | X-H torsion

> <Gold.Protein.ActiveResidues>
 VAL166  LYS551  ARG553  GLY616  TRP617  ASP618  TYR619  PRO620  LYS621  CYS622 
 ASP623  PHE694  ASN695  SER759  ASP760  ASP761  ALA762  ILE779  LEU786  VAL792 
 PHE793  MET794  SER795  GLU796  ALA797  LYS798  CYS799  TRP800  GLU811  SER814 

> <Gold.Protein.RotatedAtoms>
  152.2952  134.7676  160.0369 H   0  0  0  0  0  0  0  0  0  0  0  0  # atno 6907 bound_to 6896
  151.8208  133.3389  159.3592 H   0  0  0  0  0  0  0  0  0  0  0  0  # atno 6908 bound_to 6896
  150.7248  134.5505  159.5836 H   0  0  0  0  0  0  0  0  0  0  0  0  # atno 6909 bound_to 6896
  144.8347  140.5796  143.5492 H   0  0  0  0  0  0  0  0  0  0  0  0  # atno 7974 bound_to 7965
  155.0884  140.3217  155.4581 H   0  0  0  0  0  0  0  0  0  0  0  0  # atno 8008 bound_to 7997
  156.2749  140.2082  156.5957 H   0  0  0  0  0  0  0  0  0  0  0  0  # atno 8009 bound_to 7997
  154.6923  140.0515  157.0363 H   0  0  0  0  0  0  0  0  0  0  0  0  # atno 8010 bound_to 7997
  140.0117  143.5435  152.2260 H   0  0  0  0  0  0  0  0  0  0  0  0  # atno 10167 bound_to 10162
  156.5237  130.4638  149.6583 H   0  0  0  0  0  0  0  0  0  0  0  0  # atno 10718 bound_to 10713
  152.9985  135.5462  154.6205 H   0  0  0  0  0  0  0  0  0  0  0  0  # atno 10763 bound_to 10752
  154.5505  135.2826  155.1015 H   0  0  0  0  0  0  0  0  0  0  0  0  # atno 10764 bound_to 10752
  154.2257  135.6442  153.5211 H   0  0  0  0  0  0  0  0  0  0  0  0  # atno 10765 bound_to 10752
  141.0695  133.9403  157.2512 H   0  0  0  0  0  0  0  0  0  0  0  0  # atno 11005 bound_to 11000
  145.4821  139.1494  143.3756 LP  0  0  0  0  0  0  0  0  0  0  0  0  # atno 17320 bound_to 7965
  146.2647  140.4957  142.8839 LP  0  0  0  0  0  0  0  0  0  0  0  0  # atno 17321 bound_to 7965
  139.6201  144.7627  151.2760 LP  0  0  0  0  0  0  0  0  0  0  0  0  # atno 17342 bound_to 10162
  140.7379  143.6665  150.8119 LP  0  0  0  0  0  0  0  0  0  0  0  0  # atno 17343 bound_to 10162
  156.3125  130.7236  151.2132 LP  0  0  0  0  0  0  0  0  0  0  0  0  # atno 17370 bound_to 10713
  157.7433  131.0477  150.4960 LP  0  0  0  0  0  0  0  0  0  0  0  0  # atno 17371 bound_to 10713
  139.9509  135.0175  156.8992 LP  0  0  0  0  0  0  0  0  0  0  0  0  # atno 17394 bound_to 11000
  140.5703  134.0450  155.7428 LP  0  0  0  0  0  0  0  0  0  0  0  0  # atno 17395 bound_to 11000

$$$$
