AV-unprocessed.smi:646|AV-procd|sdf|3165|dock10
  -GOLD-   22720 0 83D 1   1.00000     0.00000
 Structure written by MMmdl.
 44 45  0  0  0  0  0  0  0  0  1 V2000
  143.8041  134.7189  153.1129 C   0  0  0  0  0  0  0  0  0  0  0  0
  144.3236  133.5455  152.4984 O   0  0  0  0  0  0  0  0  0  0  0  0
  145.0295  133.7061  151.2601 C   0  0  1  0  0  0  0  0  0  0  0  0
  144.1685  134.4829  150.2552 C   0  0  0  0  0  0  0  0  0  0  0  0
  146.4741  134.1683  151.5292 C   0  0  0  0  0  0  0  0  0  0  0  0
  146.8909  132.7007  151.6453 C   0  0  1  0  0  0  0  0  0  0  0  0
  146.8676  132.2550  153.0374 N   0  0  0  0  0  0  0  0  0  0  0  0
  147.8671  132.4136  153.9173 C   0  0  0  0  0  0  0  0  0  0  0  0
  148.9280  132.9749  153.6461 O   0  0  0  0  0  0  0  0  0  0  0  0
  147.6420  131.8342  155.3150 C   0  0  0  0  0  0  0  0  0  0  0  0
  148.9442  131.7773  156.0732 C   0  0  0  0  0  0  0  0  0  0  0  0
  149.2148  132.2716  157.3811 C   0  0  0  0  0  0  0  0  0  0  0  0
  148.2763  132.9668  158.3248 C   0  0  0  0  0  0  0  0  0  0  0  0
  150.4672  132.0510  157.7437 N   0  0  0  0  0  0  0  0  0  0  0  0
  151.0673  131.3927  156.6658 O   0  0  0  0  0  0  0  0  0  0  0  0
  150.1412  131.2394  155.6857 C   0  0  0  0  0  0  0  0  0  0  0  0
  150.5926  130.5436  154.4463 C   0  0  0  0  0  0  0  0  0  0  0  0
  145.6205  132.3202  150.8393 C   0  0  0  0  0  0  0  0  0  0  0  0
  144.8355  131.0675  151.2631 C   0  0  0  0  0  0  0  0  0  0  0  0
  145.8929  132.1368  149.3387 C   0  0  0  0  0  0  0  0  0  0  0  0
  143.4279  134.4640  154.1032 H   0  0  0  0  0  0  0  0  0  0  0  0
  142.9673  135.1321  152.5504 H   0  0  0  0  0  0  0  0  0  0  0  0
  144.5601  135.4935  153.2372 H   0  0  0  0  0  0  0  0  0  0  0  0
  144.6325  134.5270  149.2705 H   0  0  0  0  0  0  0  0  0  0  0  0
  144.0178  135.5175  150.5617 H   0  0  0  0  0  0  0  0  0  0  0  0
  143.1878  134.0225  150.1338 H   0  0  0  0  0  0  0  0  0  0  0  0
  146.9235  134.6576  150.6636 H   0  0  0  0  0  0  0  0  0  0  0  0
  146.6328  134.7613  152.4299 H   0  0  0  0  0  0  0  0  0  0  0  0
  147.8259  132.4892  151.1235 H   0  0  0  0  0  0  0  0  0  0  0  0
  146.0347  131.7755  153.3469 H   0  0  0  0  0  0  0  0  0  0  0  0
  146.9043  132.4488  155.8319 H   0  0  0  0  0  0  0  0  0  0  0  0
  147.1966  130.8429  155.2233 H   0  0  0  0  0  0  0  0  0  0  0  0
  147.8445  133.8536  157.8609 H   0  0  0  0  0  0  0  0  0  0  0  0
  148.7797  133.2829  159.2392 H   0  0  0  0  0  0  0  0  0  0  0  0
  147.4547  132.3090  158.6088 H   0  0  0  0  0  0  0  0  0  0  0  0
  149.7446  130.2640  153.8210 H   0  0  0  0  0  0  0  0  0  0  0  0
  151.1413  129.6341  154.6913 H   0  0  0  0  0  0  0  0  0  0  0  0
  151.2475  131.1874  153.8595 H   0  0  0  0  0  0  0  0  0  0  0  0
  145.4117  130.1588  151.0854 H   0  0  0  0  0  0  0  0  0  0  0  0
  143.9009  130.9772  150.7085 H   0  0  0  0  0  0  0  0  0  0  0  0
  144.5742  131.0707  152.3211 H   0  0  0  0  0  0  0  0  0  0  0  0
  146.4686  131.2308  149.1463 H   0  0  0  0  0  0  0  0  0  0  0  0
  146.4650  132.9668  148.9233 H   0  0  0  0  0  0  0  0  0  0  0  0
  144.9679  132.0623  148.7658 H   0  0  0  0  0  0  0  0  0  0  0  0
  1  2  1  0  0  0  0
  1 21  1  0  0  0  0
  1 22  1  0  0  0  0
  1 23  1  0  0  0  0
  2  3  1  0  0  0  0
  3 18  1  0  0  0  0
  3  4  1  0  0  0  0
  3  5  1  0  0  0  0
  4 24  1  0  0  0  0
  4 25  1  0  0  0  0
  4 26  1  0  0  0  0
  5  6  1  0  0  0  0
  5 27  1  0  0  0  0
  5 28  1  0  0  0  0
  6  7  1  0  0  0  0
  6 18  1  0  0  0  0
  6 29  1  0  0  0  0
  7  8  1  0  0  0  0
  7 30  1  0  0  0  0
  8  9  2  0  0  0  0
  8 10  1  0  0  0  0
 10 11  1  0  0  0  0
 10 31  1  0  0  0  0
 10 32  1  0  0  0  0
 11 16  2  0  0  0  0
 11 12  1  0  0  0  0
 12 13  1  0  0  0  0
 12 14  2  0  0  0  0
 13 33  1  0  0  0  0
 13 34  1  0  0  0  0
 13 35  1  0  0  0  0
 14 15  1  0  0  0  0
 15 16  1  0  0  0  0
 16 17  1  0  0  0  0
 17 36  1  0  0  0  0
 17 37  1  0  0  0  0
 17 38  1  0  0  0  0
 18 19  1  0  0  0  0
 18 20  1  0  0  0  0
 19 39  1  0  0  0  0
 19 40  1  0  0  0  0
 19 41  1  0  0  0  0
 20 42  1  0  0  0  0
 20 43  1  0  0  0  0
 20 44  1  0  0  0  0
M  END
> <s_m_source_file>
AV-unprocessed.smi

> <i_m_source_file_index>
646

> <i_lp_mmshare_version>
43012

> <i_f3d_flags>
0

> <s_epik_input>
W0NIM11PW0NAQF0xKFtDSDNdKVtDSDJdW0NASF0oQzEoW0NIM10pW0NIM10pW05IXUMoPU8pW0NIMl1jMmMoW0NIM10pbm9jMltDSDNd

> <s_epik_cmdline>
J2VwaWtfcHl0aG9uJywgJy1waCcsICc3LjAnLCAnLXRuJywgJzgnLCAnLW1hJywgJzIwMCcsICctbWV0YWxfYmluZGluZycsICctaW1hZScsICc8aW5maWxlLm1hZT4nLCAnLW9tYWUnLCAnPG91dGZpbGUubWFlPic=

> <r_lp_tautomer_probability>
1

> <r_epik_Ionization_Penalty>
2.13169e-08

> <r_epik_Ionization_Penalty_Charging>
0

> <r_epik_Ionization_Penalty_Neutral>
2.13169e-08

> <r_epik_State_Penalty>
-0

> <r_epik_Charging_Adjusted_Penalty>
0

> <i_epik_Tot_Q>
0

> <i_epik_Tot_abs_Q>
0

> <r_epik_Metal_State_Penalty>
-0

> <b_epik_Metal_Only>
0

> <s_lp_Force_Field>
OPLS_2005

> <r_lp_Energy>
17.7516

> <b_lp_Chiralities_Consistent>
1

> <s_lp_Variant>
AV-unprocessed.smi:646-1

> <Gold.Version>
5.8.1

> <Gold.Id.Protein>
6NUR|6NUR_protein|mol2

> <Gold.PLP.Fitness>
28.6495

> <Gold.PLP.PLP>
-26.3269

> <Gold.PLP.part.hbond>
-1.0000

> <Gold.PLP.part.metal>
0.0000

> <Gold.PLP.part.buried>
-2.4070

> <Gold.PLP.part.nonpolar>
-22.6883

> <Gold.PLP.part.repulsive>
0.2815

> <Gold.PLP.ligand.clash>
0.0000

> <Gold.PLP.ligand.torsion>
0.5337

> <Gold.PLP.Chemscore.Hbond>
1.0000

> <Gold.PLP.Chemscore.CHOScore>
0.0000

> <Gold.PLP.Chemscore.Metal>
0.0000

> <Gold.Chemscore.Hbonds>
donor molecule, donor type, donor heavy atom, donor atom, acceptor molecule, acceptor atom, score
      P1  H  6896  6909       L1    14  0.75

> <Gold.PLP.Chemscore.Internal.Correction>
0.3900

> <Gold.Rescore>
     Score         DG    S(hbond)    S(metal)    S(lipo)     H(rot)  DE(clash)    DE(int)     intcor
     13.93     -14.48       1.00        0.00      81.14       1.49       0.04       0.51       ----

> <Gold.Chemscore.Fitness>
13.9263

> <Gold.Chemscore.DG>
-14.4768

> <Gold.Chemscore.ZeroCoef>
-5.4800

> <Gold.Chemscore.Hbond>
0.9954

> <Gold.Chemscore.Metal>
0.0000

> <Gold.Chemscore.Lipo>
81.1436

> <Gold.Chemscore.Internal_Hbond>
0.0000

> <Gold.Chemscore.DEClash>
0.0428

> <Gold.Chemscore.DEInternal>
0.5077

> <Gold.Chemscore.Rot>
1.4928

> <Gold.Chemscore.Internal.Correction>
   9.000000E+99

> <Gold.Chemscore.Hbonds>
donor molecule, donor type, donor heavy atom, donor atom, acceptor molecule, acceptor atom, score
      P1  H  6896  6909       L1    14  0.69

> <Gold.Chemscore.Hbond.Weighted>
-3.3246

> <Gold.Chemscore.Metal.Weighted>
-0.0000

> <Gold.Chemscore.Lipo.Weighted>
-9.4938

> <Gold.Chemscore.Internal_Hbond.Weighted>
0.0000

> <Gold.Chemscore.DEClash.Weighted>
0.0428

> <Gold.Chemscore.DEInternal.Weighted>
0.5077

> <Gold.Chemscore.Rot.Weighted>
3.8217

> <Gold.Chemscore.Internal.Correction.Weighted>
   9.000000E+99

> <Gold.Protein.RotatedTorsions>
[ 6907 6896 6895 6894 ] final  -36.76 input  -60.11 | X-H torsion
[ 7974 7965 7964 7962 ] final  -98.12 input  175.53 | X-H torsion
[ 8008 7997 7996 7995 ] final   15.07 input   59.86 | X-H torsion
[ 10167 10162 10161 10158 ] final  -24.22 input  -65.29 | X-H torsion
[ 10718 10713 10712 10709 ] final  -20.83 input   66.30 | X-H torsion
[ 10763 10752 10751 10750 ] final -163.93 input  -60.55 | X-H torsion
[ 11005 11000 10999 10996 ] final   39.37 input  -57.11 | X-H torsion

> <Gold.Protein.ActiveResidues>
 VAL166  LYS551  ARG553  GLY616  TRP617  ASP618  TYR619  PRO620  LYS621  CYS622 
 ASP623  PHE694  ASN695  SER759  ASP760  ASP761  ALA762  ILE779  LEU786  VAL792 
 PHE793  MET794  SER795  GLU796  ALA797  LYS798  CYS799  TRP800  GLU811  SER814 

> <Gold.Protein.RotatedAtoms>
  151.0232  134.9484  159.8070 H   0  0  0  0  0  0  0  0  0  0  0  0  # atno 6907 bound_to 6896
  152.5329  134.2876  159.9041 H   0  0  0  0  0  0  0  0  0  0  0  0  # atno 6908 bound_to 6896
  151.2884  133.4134  159.2665 H   0  0  0  0  0  0  0  0  0  0  0  0  # atno 6909 bound_to 6896
  145.3247  140.9429  143.2695 H   0  0  0  0  0  0  0  0  0  0  0  0  # atno 7974 bound_to 7965
  154.8575  140.2939  155.5560 H   0  0  0  0  0  0  0  0  0  0  0  0  # atno 8008 bound_to 7997
  156.3018  140.2484  156.3476 H   0  0  0  0  0  0  0  0  0  0  0  0  # atno 8009 bound_to 7997
  154.8955  140.0393  157.1852 H   0  0  0  0  0  0  0  0  0  0  0  0  # atno 8010 bound_to 7997
  140.7288  143.4373  151.0711 H   0  0  0  0  0  0  0  0  0  0  0  0  # atno 10167 bound_to 10162
  156.5265  130.4645  149.6569 H   0  0  0  0  0  0  0  0  0  0  0  0  # atno 10718 bound_to 10713
  154.7077  135.3000  154.9246 H   0  0  0  0  0  0  0  0  0  0  0  0  # atno 10763 bound_to 10752
  154.0157  135.6689  153.4772 H   0  0  0  0  0  0  0  0  0  0  0  0  # atno 10764 bound_to 10752
  153.0730  135.5050  154.8256 H   0  0  0  0  0  0  0  0  0  0  0  0  # atno 10765 bound_to 10752
  140.2034  134.3842  155.8084 H   0  0  0  0  0  0  0  0  0  0  0  0  # atno 11005 bound_to 11000
  144.8911  139.4773  143.6677 LP  0  0  0  0  0  0  0  0  0  0  0  0  # atno 17320 bound_to 7965
  146.3069  139.7610  142.9049 LP  0  0  0  0  0  0  0  0  0  0  0  0  # atno 17321 bound_to 7965
  139.8036  143.8049  152.3165 LP  0  0  0  0  0  0  0  0  0  0  0  0  # atno 17342 bound_to 10162
  139.8074  144.7349  150.9742 LP  0  0  0  0  0  0  0  0  0  0  0  0  # atno 17343 bound_to 10162
  156.3100  130.7224  151.2114 LP  0  0  0  0  0  0  0  0  0  0  0  0  # atno 17370 bound_to 10713
  157.7428  131.0483  150.4991 LP  0  0  0  0  0  0  0  0  0  0  0  0  # atno 17371 bound_to 10713
  141.2227  133.7106  156.8297 LP  0  0  0  0  0  0  0  0  0  0  0  0  # atno 17394 bound_to 11000
  140.2029  134.8884  157.3189 LP  0  0  0  0  0  0  0  0  0  0  0  0  # atno 17395 bound_to 11000

$$$$
