AV-unprocessed.smi:2940|AV-procd|sdf|11263|dock2
  -GOLD-   2272016153D 1   1.00000     0.00000
 Structure written by MMmdl.
 27 28  0  0  0  0  0  0  0  0  2 V2000
  146.1920  139.2180  151.9073 N   0  0  0  0  0  0  0  0  0  0  0  0
  147.1033  139.4358  152.9386 C   0  0  0  0  0  0  0  0  0  0  0  0
  146.9591  140.5005  153.8520 C   0  0  0  0  0  0  0  0  0  0  0  0
  147.9176  140.6645  154.8735 C   0  0  0  0  0  0  0  0  0  0  0  0
  149.0014  139.7641  154.9642 C   0  0  0  0  0  0  0  0  0  0  0  0
  149.9515  139.9285  155.9813 N   0  0  0  0  0  0  0  0  0  0  0  0
  150.8274  138.7746  156.1452 C   0  0  0  0  0  0  0  0  0  0  0  0
  151.7597  138.9869  157.3509 C   0  0  0  0  0  0  0  0  0  0  0  0
  152.4870  140.2006  157.1834 O   0  0  0  0  0  0  0  0  0  0  0  0
  151.6257  141.3327  157.1021 C   0  0  0  0  0  0  0  0  0  0  0  0
  150.6907  141.1818  155.8892 C   0  0  0  0  0  0  0  0  0  0  0  0
  149.0914  138.7159  154.0184 C   0  0  0  0  0  0  0  0  0  0  0  0
  148.1523  138.5925  153.0547 N   0  3  0  0  0  0  0  0  0  0  0  0
  146.3033  138.4525  151.2577 H   0  0  0  0  0  0  0  0  0  0  0  0
  145.3890  139.8159  151.7742 H   0  0  0  0  0  0  0  0  0  0  0  0
  146.1267  141.1851  153.7753 H   0  0  0  0  0  0  0  0  0  0  0  0
  147.8202  141.4754  155.5808 H   0  0  0  0  0  0  0  0  0  0  0  0
  150.2306  137.8730  156.2888 H   0  0  0  0  0  0  0  0  0  0  0  0
  151.4217  138.6288  155.2421 H   0  0  0  0  0  0  0  0  0  0  0  0
  151.1917  139.0163  158.2823 H   0  0  0  0  0  0  0  0  0  0  0  0
  152.4638  138.1589  157.4330 H   0  0  0  0  0  0  0  0  0  0  0  0
  151.0531  141.4347  158.0254 H   0  0  0  0  0  0  0  0  0  0  0  0
  152.2310  142.2335  157.0014 H   0  0  0  0  0  0  0  0  0  0  0  0
  151.2767  141.2011  154.9693 H   0  0  0  0  0  0  0  0  0  0  0  0
  149.9949  142.0207  155.8474 H   0  0  0  0  0  0  0  0  0  0  0  0
  149.8793  137.9767  154.0032 H   0  0  0  0  0  0  0  0  0  0  0  0
  148.2423  137.8271  152.3862 H   0  0  0  0  0  0  0  0  0  0  0  0
  1  2  1  0  0  0  0
  1 14  1  0  0  0  0
  1 15  1  0  0  0  0
  2 13  1  0  0  0  0
  2  3  2  0  0  0  0
  3  4  1  0  0  0  0
  3 16  1  0  0  0  0
  4  5  2  0  0  0  0
  4 17  1  0  0  0  0
  5  6  1  0  0  0  0
  5 12  1  0  0  0  0
  6 11  1  0  0  0  0
  6  7  1  0  0  0  0
  7  8  1  0  0  0  0
  7 18  1  0  0  0  0
  7 19  1  0  0  0  0
  8  9  1  0  0  0  0
  8 20  1  0  0  0  0
  8 21  1  0  0  0  0
  9 10  1  0  0  0  0
 10 11  1  0  0  0  0
 10 22  1  0  0  0  0
 10 23  1  0  0  0  0
 11 24  1  0  0  0  0
 11 25  1  0  0  0  0
 12 13  2  0  0  0  0
 12 26  1  0  0  0  0
 13 27  1  0  0  0  0
M  CHG  1  13   1
M  END
> <s_m_source_file>
AV-unprocessed.smi

> <i_m_source_file_index>
2940

> <i_lp_mmshare_version>
43012

> <i_f3d_flags>
0

> <s_epik_input>
W05IMl1jMVtjSF1bY0hdYyhbY0hdbjEpTjJbQ0gyXVtDSDJdT1tDSDJdW0NIMl0y

> <s_epik_cmdline>
J2VwaWtfcHl0aG9uJywgJy1waCcsICc3LjAnLCAnLXRuJywgJzgnLCAnLW1hJywgJzIwMCcsICctbWV0YWxfYmluZGluZycsICctaW1hZScsICc8aW5maWxlLm1hZT4nLCAnLW9tYWUnLCAnPG91dGZpbGUubWFlPic=

> <r_lp_tautomer_probability>
0.999994

> <r_epik_Ionization_Penalty>
1.05441

> <r_epik_Ionization_Penalty_Charging>
1.05441

> <r_epik_Ionization_Penalty_Neutral>
7.75172e-07

> <r_epik_State_Penalty>
1.10757

> <r_epik_Charging_Adjusted_Penalty>
2.16198

> <i_epik_Tot_Q>
1

> <i_epik_Tot_abs_Q>
1

> <r_epik_Metal_State_Penalty>
5.10118

> <b_epik_Metal_Only>
0

> <s_lp_Force_Field>
OPLS_2005

> <r_lp_Energy>
27.835

> <b_lp_Chiralities_Consistent>
1

> <s_lp_Variant>
AV-unprocessed.smi:2940-2

> <Gold.Version>
5.8.1

> <Gold.Id.Protein>
6NUR|6NUR_protein|mol2

> <Gold.PLP.Fitness>
34.1719

> <Gold.PLP.PLP>
-19.5866

> <Gold.PLP.part.hbond>
-4.5264

> <Gold.PLP.part.metal>
0.0000

> <Gold.PLP.part.buried>
-1.7204

> <Gold.PLP.part.nonpolar>
-12.5733

> <Gold.PLP.part.repulsive>
0.1110

> <Gold.PLP.ligand.clash>
0.1465

> <Gold.PLP.ligand.torsion>
0.1607

> <Gold.PLP.Chemscore.Hbond>
4.9840

> <Gold.PLP.Chemscore.CHOScore>
0.0000

> <Gold.PLP.Chemscore.Metal>
0.0000

> <Gold.Chemscore.Hbonds>
donor molecule, donor type, donor heavy atom, donor atom, acceptor molecule, acceptor atom, score
      L1  H     1    15       P1 10175  1.95
      L1  H    13    27       P1  7948  2.00
      P1  H  7997  8010       L1     9  1.00

> <Gold.PLP.Chemscore.Internal.Correction>
0.1012

> <Gold.Rescore>
     Score         DG    S(hbond)    S(metal)    S(lipo)     H(rot)  DE(clash)    DE(int)     intcor
     17.38     -17.56       2.94        0.00      41.10       1.00       0.02       0.16       ----

> <Gold.Chemscore.Fitness>
17.3837

> <Gold.Chemscore.DG>
-17.5644

> <Gold.Chemscore.ZeroCoef>
-5.4800

> <Gold.Chemscore.Hbond>
2.9449

> <Gold.Chemscore.Metal>
0.0000

> <Gold.Chemscore.Lipo>
41.0985

> <Gold.Chemscore.Internal_Hbond>
0.0000

> <Gold.Chemscore.DEClash>
0.0174

> <Gold.Chemscore.DEInternal>
0.1633

> <Gold.Chemscore.Rot>
1.0000

> <Gold.Chemscore.Internal.Correction>
   9.000000E+99

> <Gold.Chemscore.Hbonds>
donor molecule, donor type, donor heavy atom, donor atom, acceptor molecule, acceptor atom, score
      L1  H     1    15       P1 10175  0.56
      L1  H    13    27       P1  7948  0.96
      P1  H  7997  8010       L1     9  0.88

> <Gold.Chemscore.Hbond.Weighted>
-9.8359

> <Gold.Chemscore.Metal.Weighted>
-0.0000

> <Gold.Chemscore.Lipo.Weighted>
-4.8085

> <Gold.Chemscore.Internal_Hbond.Weighted>
0.0000

> <Gold.Chemscore.DEClash.Weighted>
0.0174

> <Gold.Chemscore.DEInternal.Weighted>
0.1633

> <Gold.Chemscore.Rot.Weighted>
2.5600

> <Gold.Chemscore.Internal.Correction.Weighted>
   9.000000E+99

> <Gold.Protein.RotatedTorsions>
[ 6907 6896 6895 6894 ] final  -46.30 input  -60.11 | X-H torsion
[ 7974 7965 7964 7962 ] final  174.69 input  175.53 | X-H torsion
[ 8008 7997 7996 7995 ] final   52.86 input   59.86 | X-H torsion
[ 10167 10162 10161 10158 ] final  -94.96 input  -65.29 | X-H torsion
[ 10718 10713 10712 10709 ] final  179.01 input   66.30 | X-H torsion
[ 10763 10752 10751 10750 ] final -120.21 input  -60.55 | X-H torsion
[ 11005 11000 10999 10996 ] final  -65.02 input  -57.11 | X-H torsion

> <Gold.Protein.ActiveResidues>
 VAL166  LYS551  ARG553  GLY616  TRP617  ASP618  TYR619  PRO620  LYS621  CYS622 
 ASP623  PHE694  ASN695  SER759  ASP760  ASP761  ALA762  ILE779  LEU786  VAL792 
 PHE793  MET794  SER795  GLU796  ALA797  LYS798  CYS799  TRP800  GLU811  SER814 

> <Gold.Protein.RotatedAtoms>
  150.9127  134.8544  159.7435 H   0  0  0  0  0  0  0  0  0  0  0  0  # atno 6907 bound_to 6896
  152.4952  134.4335  159.9530 H   0  0  0  0  0  0  0  0  0  0  0  0  # atno 6908 bound_to 6896
  151.4376  133.3613  159.2812 H   0  0  0  0  0  0  0  0  0  0  0  0  # atno 6909 bound_to 6896
  144.7216  139.9835  143.6439 H   0  0  0  0  0  0  0  0  0  0  0  0  # atno 7974 bound_to 7965
  155.4588  140.3461  155.4310 H   0  0  0  0  0  0  0  0  0  0  0  0  # atno 8008 bound_to 7997
  156.1174  140.1477  156.9283 H   0  0  0  0  0  0  0  0  0  0  0  0  # atno 8009 bound_to 7997
  154.4799  140.0873  156.7330 H   0  0  0  0  0  0  0  0  0  0  0  0  # atno 8010 bound_to 7997
  140.3091  143.3116  152.0167 H   0  0  0  0  0  0  0  0  0  0  0  0  # atno 10167 bound_to 10162
  156.8821  130.9819  151.3060 H   0  0  0  0  0  0  0  0  0  0  0  0  # atno 10718 bound_to 10713
  154.8638  135.4211  154.2423 H   0  0  0  0  0  0  0  0  0  0  0  0  # atno 10763 bound_to 10752
  153.3386  135.6992  153.6892 H   0  0  0  0  0  0  0  0  0  0  0  0  # atno 10764 bound_to 10752
  153.5880  135.3560  155.2873 H   0  0  0  0  0  0  0  0  0  0  0  0  # atno 10765 bound_to 10752
  141.1442  133.6675  156.5922 H   0  0  0  0  0  0  0  0  0  0  0  0  # atno 11005 bound_to 11000
  146.0469  139.3474  143.0663 LP  0  0  0  0  0  0  0  0  0  0  0  0  # atno 17320 bound_to 7965
  145.8264  140.9653  143.0872 LP  0  0  0  0  0  0  0  0  0  0  0  0  # atno 17321 bound_to 7965
  139.4898  144.6398  151.6900 LP  0  0  0  0  0  0  0  0  0  0  0  0  # atno 17342 bound_to 10162
  140.5584  144.0310  150.6158 LP  0  0  0  0  0  0  0  0  0  0  0  0  # atno 17343 bound_to 10162
  157.6134  130.8600  149.8989 LP  0  0  0  0  0  0  0  0  0  0  0  0  # atno 17370 bound_to 10713
  156.0672  130.3690  150.0853 LP  0  0  0  0  0  0  0  0  0  0  0  0  # atno 17371 bound_to 10713
  140.3754  134.7569  157.4626 LP  0  0  0  0  0  0  0  0  0  0  0  0  # atno 17394 bound_to 11000
  140.0678  134.5905  155.8675 LP  0  0  0  0  0  0  0  0  0  0  0  0  # atno 17395 bound_to 11000

$$$$
