AV-unprocessed.smi:2473|AV-procd|sdf|9750|dock10
  -GOLD-   2272013393D 1   1.00000     0.00000
 Structure written by MMmdl.
 47 48  0  0  0  0  0  0  0  0  1 V2000
  145.7669  138.3654  154.3487 C   0  0  0  0  0  0  0  0  0  0  0  0
  146.5375  139.6479  154.6936 C   0  0  1  0  0  0  0  0  0  0  0  0
  147.4903  140.0440  153.5482 C   0  0  0  0  0  0  0  0  0  0  0  0
  148.2655  141.3538  153.8138 C   0  0  2  0  0  0  0  0  0  0  0  0
  149.4997  141.1788  154.7179 C   0  0  0  0  0  0  0  0  0  0  0  0
  150.2532  140.2141  154.5886 O   0  0  0  0  0  0  0  0  0  0  0  0
  149.7283  142.1678  155.5970 N   0  0  0  0  0  0  0  0  0  0  0  0
  150.8797  142.2633  156.4906 C   0  0  0  0  0  0  0  0  0  0  0  0
  150.4772  142.2416  157.9786 C   0  0  0  0  0  0  0  0  0  0  0  0
  151.6320  142.3879  158.9256 C   0  0  0  0  0  0  0  0  0  0  0  0
  151.9873  141.4458  159.7941 N   0  0  0  0  0  0  0  0  0  0  0  0
  153.1047  141.9609  160.4412 C   0  0  0  0  0  0  0  0  0  0  0  0
  153.3858  143.2090  159.9410 C   0  0  0  0  0  0  0  0  0  0  0  0
  152.4308  143.4734  158.9684 N   0  0  0  0  0  0  0  0  0  0  0  0
  152.3425  144.6849  158.1758 C   0  0  0  0  0  0  0  0  0  0  0  0
  147.3172  142.4921  154.2666 C   0  0  0  0  0  0  0  0  0  0  0  0
  146.2852  142.1350  155.3715 C   0  0  0  0  0  0  0  0  0  0  0  0
  146.9323  142.0603  156.7720 C   0  0  0  0  0  0  0  0  0  0  0  0
  145.2281  143.2570  155.4240 C   0  0  0  0  0  0  0  0  0  0  0  0
  145.5734  140.8068  155.0156 C   0  0  0  0  0  0  0  0  0  0  0  0
  145.1411  138.5025  153.4661 H   0  0  0  0  0  0  0  0  0  0  0  0
  145.1196  138.0625  155.1719 H   0  0  0  0  0  0  0  0  0  0  0  0
  146.4504  137.5403  154.1469 H   0  0  0  0  0  0  0  0  0  0  0  0
  147.1248  139.4272  155.5838 H   0  0  0  0  0  0  0  0  0  0  0  0
  148.1892  139.2297  153.3487 H   0  0  0  0  0  0  0  0  0  0  0  0
  146.9119  140.1640  152.6312 H   0  0  0  0  0  0  0  0  0  0  0  0
  148.6765  141.6567  152.8492 H   0  0  0  0  0  0  0  0  0  0  0  0
  149.0648  142.9281  155.6311 H   0  0  0  0  0  0  0  0  0  0  0  0
  151.5323  141.4157  156.2820 H   0  0  0  0  0  0  0  0  0  0  0  0
  151.4656  143.1575  156.2713 H   0  0  0  0  0  0  0  0  0  0  0  0
  149.7369  143.0169  158.1755 H   0  0  0  0  0  0  0  0  0  0  0  0
  149.9799  141.2965  158.1991 H   0  0  0  0  0  0  0  0  0  0  0  0
  153.6150  141.3987  161.2091 H   0  0  0  0  0  0  0  0  0  0  0  0
  154.1673  143.9116  160.1900 H   0  0  0  0  0  0  0  0  0  0  0  0
  153.1930  145.3339  158.3861 H   0  0  0  0  0  0  0  0  0  0  0  0
  151.4234  145.2178  158.4195 H   0  0  0  0  0  0  0  0  0  0  0  0
  152.3458  144.4395  157.1144 H   0  0  0  0  0  0  0  0  0  0  0  0
  147.8956  143.3658  154.5707 H   0  0  0  0  0  0  0  0  0  0  0  0
  146.7701  142.8144  153.3794 H   0  0  0  0  0  0  0  0  0  0  0  0
  146.1773  141.9169  157.5456 H   0  0  0  0  0  0  0  0  0  0  0  0
  147.4691  142.9792  157.0093 H   0  0  0  0  0  0  0  0  0  0  0  0
  147.6360  141.2385  156.8724 H   0  0  0  0  0  0  0  0  0  0  0  0
  144.4680  143.0539  156.1793 H   0  0  0  0  0  0  0  0  0  0  0  0
  144.7130  143.3701  154.4694 H   0  0  0  0  0  0  0  0  0  0  0  0
  145.6816  144.2188  155.6657 H   0  0  0  0  0  0  0  0  0  0  0  0
  144.9285  140.9669  154.1501 H   0  0  0  0  0  0  0  0  0  0  0  0
  144.9091  140.5161  155.8306 H   0  0  0  0  0  0  0  0  0  0  0  0
  1  2  1  0  0  0  0
  1 21  1  0  0  0  0
  1 22  1  0  0  0  0
  1 23  1  0  0  0  0
  2 20  1  0  0  0  0
  2  3  1  0  0  0  0
  2 24  1  0  0  0  0
  3  4  1  0  0  0  0
  3 25  1  0  0  0  0
  3 26  1  0  0  0  0
  4  5  1  0  0  0  0
  4 16  1  0  0  0  0
  4 27  1  0  0  0  0
  5  6  2  0  0  0  0
  5  7  1  0  0  0  0
  7  8  1  0  0  0  0
  7 28  1  0  0  0  0
  8  9  1  0  0  0  0
  8 29  1  0  0  0  0
  8 30  1  0  0  0  0
  9 10  1  0  0  0  0
  9 31  1  0  0  0  0
  9 32  1  0  0  0  0
 10 14  1  0  0  0  0
 10 11  2  0  0  0  0
 11 12  1  0  0  0  0
 12 13  2  0  0  0  0
 12 33  1  0  0  0  0
 13 14  1  0  0  0  0
 13 34  1  0  0  0  0
 14 15  1  0  0  0  0
 15 35  1  0  0  0  0
 15 36  1  0  0  0  0
 15 37  1  0  0  0  0
 16 17  1  0  0  0  0
 16 38  1  0  0  0  0
 16 39  1  0  0  0  0
 17 18  1  0  0  0  0
 17 19  1  0  0  0  0
 17 20  1  0  0  0  0
 18 40  1  0  0  0  0
 18 41  1  0  0  0  0
 18 42  1  0  0  0  0
 19 43  1  0  0  0  0
 19 44  1  0  0  0  0
 19 45  1  0  0  0  0
 20 46  1  0  0  0  0
 20 47  1  0  0  0  0
M  END
> <s_m_source_file>
AV-unprocessed.smi

> <i_m_source_file_index>
2473

> <i_lp_mmshare_version>
43012

> <i_f3d_flags>
0

> <s_epik_input>
W0NIM11bQ0BASF0oW0NIMl0xKVtDSDJdW0NASF0oW0NIMl1DMShbQ0gzXSlbQ0gzXSlDKD1PKVtOSF1bQ0gyXVtDSDJdYzJuW2NIXVtjSF1uMltDSDNd

> <s_epik_cmdline>
J2VwaWtfcHl0aG9uJywgJy1waCcsICc3LjAnLCAnLXRuJywgJzgnLCAnLW1hJywgJzIwMCcsICctbWV0YWxfYmluZGluZycsICctaW1hZScsICc8aW5maWxlLm1hZT4nLCAnLW9tYWUnLCAnPG91dGZpbGUubWFlPic=

> <r_lp_tautomer_probability>
1

> <r_epik_Ionization_Penalty>
1.22858

> <r_epik_Ionization_Penalty_Charging>
1.22858

> <r_epik_Ionization_Penalty_Neutral>
2.12671e-08

> <r_epik_State_Penalty>
1.2965

> <r_epik_Charging_Adjusted_Penalty>
2.52508

> <i_epik_Tot_Q>
0

> <i_epik_Tot_abs_Q>
0

> <r_epik_Metal_State_Penalty>
0.411461

> <b_epik_Metal_Only>
0

> <s_lp_Force_Field>
OPLS_2005

> <r_lp_Energy>
14.2462

> <b_lp_Chiralities_Consistent>
1

> <s_lp_Variant>
AV-unprocessed.smi:2473-8

> <Gold.Version>
5.8.1

> <Gold.Id.Protein>
6NUR|6NUR_protein|mol2

> <Gold.PLP.Fitness>
47.9328

> <Gold.PLP.PLP>
-42.8004

> <Gold.PLP.part.hbond>
-2.0000

> <Gold.PLP.part.metal>
0.0000

> <Gold.PLP.part.buried>
-1.1991

> <Gold.PLP.part.nonpolar>
-37.8918

> <Gold.PLP.part.repulsive>
0.2514

> <Gold.PLP.ligand.clash>
0.0000

> <Gold.PLP.ligand.torsion>
0.4010

> <Gold.PLP.Chemscore.Hbond>
1.9440

> <Gold.PLP.Chemscore.CHOScore>
0.0000

> <Gold.PLP.Chemscore.Metal>
0.0000

> <Gold.Chemscore.Hbonds>
donor molecule, donor type, donor heavy atom, donor atom, acceptor molecule, acceptor atom, score
      L1  H     7    28       P1  8028  0.90
      P1  H  7989  7998       L1     6  1.00

> <Gold.PLP.Chemscore.Internal.Correction>
0.1024

> <Gold.Rescore>
     Score         DG    S(hbond)    S(metal)    S(lipo)     H(rot)  DE(clash)    DE(int)     intcor
     15.33     -17.04       1.54        0.00      87.87       1.51       0.28       1.42       ----

> <Gold.Chemscore.Fitness>
15.3350

> <Gold.Chemscore.DG>
-17.0398

> <Gold.Chemscore.ZeroCoef>
-5.4800

> <Gold.Chemscore.Hbond>
1.5410

> <Gold.Chemscore.Metal>
0.0000

> <Gold.Chemscore.Lipo>
87.8708

> <Gold.Chemscore.Internal_Hbond>
0.0000

> <Gold.Chemscore.DEClash>
0.2812

> <Gold.Chemscore.DEInternal>
1.4236

> <Gold.Chemscore.Rot>
1.5109

> <Gold.Chemscore.Internal.Correction>
   9.000000E+99

> <Gold.Chemscore.Hbonds>
donor molecule, donor type, donor heavy atom, donor atom, acceptor molecule, acceptor atom, score
      L1  H     7    28       P1  8028  0.88
      P1  H  7989  7998       L1     6  0.39

> <Gold.Chemscore.Hbond.Weighted>
-5.1469

> <Gold.Chemscore.Metal.Weighted>
-0.0000

> <Gold.Chemscore.Lipo.Weighted>
-10.2809

> <Gold.Chemscore.Internal_Hbond.Weighted>
0.0000

> <Gold.Chemscore.DEClash.Weighted>
0.2812

> <Gold.Chemscore.DEInternal.Weighted>
1.4236

> <Gold.Chemscore.Rot.Weighted>
3.8680

> <Gold.Chemscore.Internal.Correction.Weighted>
   9.000000E+99

> <Gold.Protein.RotatedTorsions>
[ 6907 6896 6895 6894 ] final  102.35 input  -60.11 | X-H torsion
[ 7974 7965 7964 7962 ] final  131.81 input  175.53 | X-H torsion
[ 8008 7997 7996 7995 ] final -151.82 input   59.86 | X-H torsion
[ 10167 10162 10161 10158 ] final  -60.50 input  -65.29 | X-H torsion
[ 10718 10713 10712 10709 ] final  -49.63 input   66.30 | X-H torsion
[ 10763 10752 10751 10750 ] final   54.74 input  -60.55 | X-H torsion
[ 11005 11000 10999 10996 ] final -139.37 input  -57.11 | X-H torsion

> <Gold.Protein.ActiveResidues>
 VAL166  LYS551  ARG553  GLY616  TRP617  ASP618  TYR619  PRO620  LYS621  CYS622 
 ASP623  PHE694  ASN695  SER759  ASP760  ASP761  ALA762  ILE779  LEU786  VAL792 
 PHE793  MET794  SER795  GLU796  ALA797  LYS798  CYS799  TRP800  GLU811  SER814 

> <Gold.Protein.RotatedAtoms>
  152.5326  133.9988  159.7884 H   0  0  0  0  0  0  0  0  0  0  0  0  # atno 6907 bound_to 6896
  151.0210  133.5868  159.2678 H   0  0  0  0  0  0  0  0  0  0  0  0  # atno 6908 bound_to 6896
  151.2908  135.0748  159.9257 H   0  0  0  0  0  0  0  0  0  0  0  0  # atno 6909 bound_to 6896
  145.0034  139.4290  143.5281 H   0  0  0  0  0  0  0  0  0  0  0  0  # atno 7974 bound_to 7965
  155.6455  140.0706  157.2604 H   0  0  0  0  0  0  0  0  0  0  0  0  # atno 8008 bound_to 7997
  154.4174  140.1743  156.1668 H   0  0  0  0  0  0  0  0  0  0  0  0  # atno 8009 bound_to 7997
  155.9820  140.3353  155.6675 H   0  0  0  0  0  0  0  0  0  0  0  0  # atno 8010 bound_to 7997
  140.6067  143.2375  151.5804 H   0  0  0  0  0  0  0  0  0  0  0  0  # atno 10167 bound_to 10162
  156.1876  130.4152  149.9418 H   0  0  0  0  0  0  0  0  0  0  0  0  # atno 10718 bound_to 10713
  152.9808  135.5734  154.4953 H   0  0  0  0  0  0  0  0  0  0  0  0  # atno 10763 bound_to 10752
  154.4481  135.2777  155.1802 H   0  0  0  0  0  0  0  0  0  0  0  0  # atno 10764 bound_to 10752
  154.3442  135.6223  153.5664 H   0  0  0  0  0  0  0  0  0  0  0  0  # atno 10765 bound_to 10752
  140.8527  134.2266  157.4752 H   0  0  0  0  0  0  0  0  0  0  0  0  # atno 11005 bound_to 11000
  146.3456  139.9436  142.8738 LP  0  0  0  0  0  0  0  0  0  0  0  0  # atno 17320 bound_to 7965
  145.2122  140.9900  143.4094 LP  0  0  0  0  0  0  0  0  0  0  0  0  # atno 17321 bound_to 7965
  139.5330  144.2860  152.1191 LP  0  0  0  0  0  0  0  0  0  0  0  0  # atno 17342 bound_to 10162
  140.2051  144.4619  150.6412 LP  0  0  0  0  0  0  0  0  0  0  0  0  # atno 17343 bound_to 10162
  156.7168  130.8991  151.3614 LP  0  0  0  0  0  0  0  0  0  0  0  0  # atno 17370 bound_to 10713
  157.6908  130.9232  150.0510 LP  0  0  0  0  0  0  0  0  0  0  0  0  # atno 17371 bound_to 10713
  139.8704  134.9691  156.4654 LP  0  0  0  0  0  0  0  0  0  0  0  0  # atno 17394 bound_to 11000
  140.8772  133.7944  155.9428 LP  0  0  0  0  0  0  0  0  0  0  0  0  # atno 17395 bound_to 11000

$$$$
