AV-unprocessed.smi:92|AV-procd|sdf|844|dock2
  -GOLD-   2262017283D 1   1.00000     0.00000
 Structure written by MMmdl.
 61 64  0  0  0  0  0  0  0  0  2 V2000
  152.3029  144.4376  158.2941 C   0  0  0  0  0  0  0  0  0  0  0  0
  151.0990  143.6351  158.8085 C   0  0  0  0  0  0  0  0  0  0  0  0
  150.2665  143.0879  157.7072 N   0  3  1  0  0  0  0  0  0  0  0  0
  151.0236  142.2049  156.7829 C   0  0  0  0  0  0  0  0  0  0  0  0
  150.1589  141.8041  155.5801 C   0  0  0  0  0  0  0  0  0  0  0  0
  148.8515  141.1223  156.0379 C   0  0  2  0  0  0  0  0  0  0  0  0
  148.0315  140.6473  154.9122 N   0  0  0  0  0  0  0  0  0  0  0  0
  147.3070  141.6419  154.1275 C   0  0  0  0  0  0  0  0  0  0  0  0
  147.4900  139.4000  154.8701 C   0  0  0  0  0  0  0  0  0  0  0  0
  147.4532  138.6295  155.9887 N   0  0  0  0  0  0  0  0  0  0  0  0
  146.9078  137.4103  155.9554 C   0  0  0  0  0  0  0  0  0  0  0  0
  146.3523  136.7736  154.9236 N   0  0  0  0  0  0  0  0  0  0  0  0
  146.3876  137.5370  153.7943 C   0  0  0  0  0  0  0  0  0  0  0  0
  146.9253  138.8510  153.6833 C   0  0  0  0  0  0  0  0  0  0  0  0
  146.7751  139.3126  152.3810 N   0  0  0  0  0  0  0  0  0  0  0  0
  146.1727  138.3345  151.7621 C   0  0  0  0  0  0  0  0  0  0  0  0
  145.9302  137.2165  152.5274 N   0  0  0  0  0  0  0  0  0  0  0  0
  145.2548  136.0223  152.1096 C   0  0  0  0  0  0  0  0  0  0  0  0
  145.7457  134.6406  152.5508 C   0  0  0  0  0  0  0  0  0  0  0  0
  145.3708  134.0514  151.1731 C   0  0  0  0  0  0  0  0  0  0  0  0
  146.4450  133.1596  150.5315 C   0  0  0  0  0  0  0  0  0  0  0  0
  146.4195  131.8539  151.0713 O   0  0  0  0  0  0  0  0  0  0  0  0
  144.0295  133.2911  151.0710 C   0  0  0  0  0  0  0  0  0  0  0  0
  143.5796  133.1252  149.7417 O   0  0  0  0  0  0  0  0  0  0  0  0
  145.3684  135.5120  150.6690 C   0  0  0  0  0  0  0  0  0  0  0  0
  148.0953  142.0118  157.0614 C   0  0  1  0  0  0  0  0  0  0  0  0
  146.8461  141.3137  157.6277 C   0  0  0  0  0  0  0  0  0  0  0  0
  149.0417  142.4151  158.2111 C   0  0  0  0  0  0  0  0  0  0  0  0
  152.8316  144.9069  159.1241 H   0  0  0  0  0  0  0  0  0  0  0  0
  151.9872  145.2299  157.6144 H   0  0  0  0  0  0  0  0  0  0  0  0
  153.0224  143.8098  157.7693 H   0  0  0  0  0  0  0  0  0  0  0  0
  151.4247  142.8303  159.4690 H   0  0  0  0  0  0  0  0  0  0  0  0
  150.4926  144.3069  159.4173 H   0  0  0  0  0  0  0  0  0  0  0  0
  151.9169  142.7097  156.4176 H   0  0  0  0  0  0  0  0  0  0  0  0
  151.3605  141.3155  157.3179 H   0  0  0  0  0  0  0  0  0  0  0  0
  149.9508  142.6946  154.9885 H   0  0  0  0  0  0  0  0  0  0  0  0
  150.7281  141.1354  154.9337 H   0  0  0  0  0  0  0  0  0  0  0  0
  149.1437  140.2204  156.5782 H   0  0  0  0  0  0  0  0  0  0  0  0
  147.6572  141.6380  153.0953 H   0  0  0  0  0  0  0  0  0  0  0  0
  147.4604  142.6463  154.5225 H   0  0  0  0  0  0  0  0  0  0  0  0
  146.2337  141.4452  154.1286 H   0  0  0  0  0  0  0  0  0  0  0  0
  146.9185  136.8667  156.8887 H   0  0  0  0  0  0  0  0  0  0  0  0
  145.8953  138.4009  150.7201 H   0  0  0  0  0  0  0  0  0  0  0  0
  144.2094  136.1629  152.3867 H   0  0  0  0  0  0  0  0  0  0  0  0
  146.8208  134.6259  152.7387 H   0  0  0  0  0  0  0  0  0  0  0  0
  145.1983  134.2185  153.3942 H   0  0  0  0  0  0  0  0  0  0  0  0
  146.3144  133.0983  149.4505 H   0  0  0  0  0  0  0  0  0  0  0  0
  147.4426  133.5675  150.6985 H   0  0  0  0  0  0  0  0  0  0  0  0
  147.2911  131.4915  151.0196 H   0  0  0  0  0  0  0  0  0  0  0  0
  144.1143  132.2992  151.5159 H   0  0  0  0  0  0  0  0  0  0  0  0
  143.2425  133.8111  151.6175 H   0  0  0  0  0  0  0  0  0  0  0  0
  142.6535  133.3115  149.7125 H   0  0  0  0  0  0  0  0  0  0  0  0
  144.5241  135.7768  150.0315 H   0  0  0  0  0  0  0  0  0  0  0  0
  146.3112  135.7999  150.2009 H   0  0  0  0  0  0  0  0  0  0  0  0
  147.7709  142.9348  156.5826 H   0  0  0  0  0  0  0  0  0  0  0  0
  147.1050  140.3744  158.1174 H   0  0  0  0  0  0  0  0  0  0  0  0
  146.1200  141.0909  156.8457 H   0  0  0  0  0  0  0  0  0  0  0  0
  146.3432  141.9435  158.3620 H   0  0  0  0  0  0  0  0  0  0  0  0
  149.3252  141.5389  158.7970 H   0  0  0  0  0  0  0  0  0  0  0  0
  148.5115  143.0875  158.8872 H   0  0  0  0  0  0  0  0  0  0  0  0
  149.9501  143.8809  157.1673 H   0  0  0  0  0  0  0  0  0  0  0  0
  1  2  1  0  0  0  0
  1 29  1  0  0  0  0
  1 30  1  0  0  0  0
  1 31  1  0  0  0  0
  2  3  1  0  0  0  0
  2 32  1  0  0  0  0
  2 33  1  0  0  0  0
  3 28  1  0  0  0  0
  3  4  1  0  0  0  0
  3 61  1  0  0  0  0
  4  5  1  0  0  0  0
  4 34  1  0  0  0  0
  4 35  1  0  0  0  0
  5  6  1  0  0  0  0
  5 36  1  0  0  0  0
  5 37  1  0  0  0  0
  6  7  1  0  0  0  0
  6 26  1  0  0  0  0
  6 38  1  0  0  0  0
  7  8  1  0  0  0  0
  7  9  1  0  0  0  0
  8 39  1  0  0  0  0
  8 40  1  0  0  0  0
  8 41  1  0  0  0  0
  9 14  1  0  0  0  0
  9 10  2  0  0  0  0
 10 11  1  0  0  0  0
 11 12  2  0  0  0  0
 11 42  1  0  0  0  0
 12 13  1  0  0  0  0
 13 17  1  0  0  0  0
 13 14  2  0  0  0  0
 14 15  1  0  0  0  0
 15 16  2  0  0  0  0
 16 17  1  0  0  0  0
 16 43  1  0  0  0  0
 17 18  1  0  0  0  0
 18 25  1  0  0  0  0
 18 19  1  0  0  0  0
 18 44  1  0  0  0  0
 19 20  1  0  0  0  0
 19 45  1  0  0  0  0
 19 46  1  0  0  0  0
 20 21  1  0  0  0  0
 20 23  1  0  0  0  0
 20 25  1  0  0  0  0
 21 22  1  0  0  0  0
 21 47  1  0  0  0  0
 21 48  1  0  0  0  0
 22 49  1  0  0  0  0
 23 24  1  0  0  0  0
 23 50  1  0  0  0  0
 23 51  1  0  0  0  0
 24 52  1  0  0  0  0
 25 53  1  0  0  0  0
 25 54  1  0  0  0  0
 26 27  1  0  0  0  0
 26 28  1  0  0  0  0
 26 55  1  0  0  0  0
 27 56  1  0  0  0  0
 27 57  1  0  0  0  0
 27 58  1  0  0  0  0
 28 59  1  0  0  0  0
 28 60  1  0  0  0  0
M  CHG  1   3   1
M  END
> <s_m_source_file>
AV-unprocessed.smi

> <i_m_source_file_index>
92

> <i_lp_mmshare_version>
43012

> <i_f3d_flags>
0

> <s_epik_input>
W0NIM11bQ0gyXU4xW0NIMl1bQ0gyXVtDQEhdKFtDQEBIXShbQ0gzXSlbQ0gyXTEpTihbQ0gzXSljKG5bY0hdbjIpYyhjMjMpbltjSF1uM1tDSF0oW0NIMl00KVtDSDJdQzQoW0NIMl1bT0hdKVtDSDJdW09IXQ==

> <s_epik_cmdline>
J2VwaWtfcHl0aG9uJywgJy1waCcsICc3LjAnLCAnLXRuJywgJzgnLCAnLW1hJywgJzIwMCcsICctbWV0YWxfYmluZGluZycsICctaW1hZScsICc8aW5maWxlLm1hZT4nLCAnLW9tYWUnLCAnPG91dGZpbGUubWFlPic=

> <r_lp_tautomer_probability>
1

> <r_epik_Ionization_Penalty>
0.00235514

> <r_epik_Ionization_Penalty_Charging>
0.00137877

> <r_epik_Ionization_Penalty_Neutral>
0.000976366

> <r_epik_State_Penalty>
-0

> <r_epik_Charging_Adjusted_Penalty>
0.00137877

> <i_epik_Tot_Q>
1

> <i_epik_Tot_abs_Q>
1

> <r_epik_Metal_State_Penalty>
-0

> <b_epik_Metal_Only>
0

> <s_lp_Force_Field>
OPLS_2005

> <r_lp_Energy>
51.4593

> <b_lp_Chiralities_Consistent>
1

> <s_lp_Variant>
AV-unprocessed.smi:92-4

> <Gold.Version>
5.8.1

> <Gold.Id.Protein>
6NUR|6NUR_protein|mol2

> <Gold.PLP.Fitness>
57.7068

> <Gold.PLP.PLP>
-44.4376

> <Gold.PLP.part.hbond>
-3.0000

> <Gold.PLP.part.metal>
0.0000

> <Gold.PLP.part.buried>
-4.8535

> <Gold.PLP.part.nonpolar>
-37.7013

> <Gold.PLP.part.repulsive>
0.5479

> <Gold.PLP.ligand.clash>
0.0000

> <Gold.PLP.ligand.torsion>
1.4664

> <Gold.PLP.Chemscore.Hbond>
4.0000

> <Gold.PLP.Chemscore.CHOScore>
0.9684

> <Gold.PLP.Chemscore.Metal>
0.0000

> <Gold.Chemscore.Hbonds>
donor molecule, donor type, donor heavy atom, donor atom, acceptor molecule, acceptor atom, score
      L1  H     3    61       P1  8028  2.00
      L1  H    22    49       P1 10747  1.00
      L1  H    24    52       P1 10186  1.00
      L1  C    16    43       P1 10171  1.00

> <Gold.PLP.Chemscore.Internal.Correction>
1.2968

> <Gold.Rescore>
     Score         DG    S(hbond)    S(metal)    S(lipo)     H(rot)  DE(clash)    DE(int)     intcor
     15.43     -18.60       2.89        0.00     100.13       3.22       0.66       2.50       ----

> <Gold.Chemscore.Fitness>
15.4316

> <Gold.Chemscore.DG>
-18.5964

> <Gold.Chemscore.ZeroCoef>
-5.4800

> <Gold.Chemscore.Hbond>
2.8889

> <Gold.Chemscore.Metal>
0.0000

> <Gold.Chemscore.Lipo>
100.1328

> <Gold.Chemscore.Internal_Hbond>
0.0000

> <Gold.Chemscore.DEClash>
0.6621

> <Gold.Chemscore.DEInternal>
2.5026

> <Gold.Chemscore.Rot>
3.2219

> <Gold.Chemscore.Internal.Correction>
   9.000000E+99

> <Gold.Chemscore.Hbonds>
donor molecule, donor type, donor heavy atom, donor atom, acceptor molecule, acceptor atom, score
      L1  H     3    61       P1  8028  0.82
      L1  H    22    49       P1 10747  0.98
      L1  H    24    52       P1 10186  0.96

> <Gold.Chemscore.Hbond.Weighted>
-9.6490

> <Gold.Chemscore.Metal.Weighted>
-0.0000

> <Gold.Chemscore.Lipo.Weighted>
-11.7155

> <Gold.Chemscore.Internal_Hbond.Weighted>
0.0000

> <Gold.Chemscore.DEClash.Weighted>
0.6621

> <Gold.Chemscore.DEInternal.Weighted>
2.5026

> <Gold.Chemscore.Rot.Weighted>
8.2482

> <Gold.Chemscore.Internal.Correction.Weighted>
   9.000000E+99

> <Gold.Protein.RotatedTorsions>
[ 6907 6896 6895 6894 ] final -152.55 input  -60.11 | X-H torsion
[ 7974 7965 7964 7962 ] final  -48.87 input  175.53 | X-H torsion
[ 8008 7997 7996 7995 ] final -131.84 input   59.86 | X-H torsion
[ 10167 10162 10161 10158 ] final -112.63 input  -65.29 | X-H torsion
[ 10718 10713 10712 10709 ] final  -36.86 input   66.30 | X-H torsion
[ 10763 10752 10751 10750 ] final -150.97 input  -60.55 | X-H torsion
[ 11005 11000 10999 10996 ] final   88.18 input  -57.11 | X-H torsion

> <Gold.Protein.ActiveResidues>
 VAL166  LYS551  ARG553  GLY616  TRP617  ASP618  TYR619  PRO620  LYS621  CYS622 
 ASP623  PHE694  ASN695  SER759  ASP760  ASP761  ALA762  ILE779  LEU786  VAL792 
 PHE793  MET794  SER795  GLU796  ALA797  LYS798  CYS799  TRP800  GLU811  SER814 

> <Gold.Protein.RotatedAtoms>
  151.2294  133.4458  159.2603 H   0  0  0  0  0  0  0  0  0  0  0  0  # atno 6907 bound_to 6896
  151.0808  134.9857  159.8365 H   0  0  0  0  0  0  0  0  0  0  0  0  # atno 6908 bound_to 6896
  152.5424  134.2234  159.8849 H   0  0  0  0  0  0  0  0  0  0  0  0  # atno 6909 bound_to 6896
  145.9466  140.7612  142.9525 H   0  0  0  0  0  0  0  0  0  0  0  0  # atno 7974 bound_to 7965
  155.3190  140.0461  157.3038 H   0  0  0  0  0  0  0  0  0  0  0  0  # atno 8008 bound_to 7997
  154.5390  140.2282  155.8639 H   0  0  0  0  0  0  0  0  0  0  0  0  # atno 8009 bound_to 7997
  156.1863  140.3061  155.9251 H   0  0  0  0  0  0  0  0  0  0  0  0  # atno 8010 bound_to 7997
  140.1206  143.4446  152.1693 H   0  0  0  0  0  0  0  0  0  0  0  0  # atno 10167 bound_to 10162
  156.3220  130.4267  149.7951 H   0  0  0  0  0  0  0  0  0  0  0  0  # atno 10718 bound_to 10713
  154.8086  135.3271  154.7365 H   0  0  0  0  0  0  0  0  0  0  0  0  # atno 10763 bound_to 10752
  153.8018  135.6903  153.4859 H   0  0  0  0  0  0  0  0  0  0  0  0  # atno 10764 bound_to 10752
  153.1849  135.4572  155.0021 H   0  0  0  0  0  0  0  0  0  0  0  0  # atno 10765 bound_to 10752
  139.8902  134.8471  156.2964 H   0  0  0  0  0  0  0  0  0  0  0  0  # atno 11005 bound_to 11000
  144.6788  140.2366  143.7349 LP  0  0  0  0  0  0  0  0  0  0  0  0  # atno 17320 bound_to 7965
  145.8228  139.2051  143.1928 LP  0  0  0  0  0  0  0  0  0  0  0  0  # atno 17321 bound_to 7965
  139.5570  144.7380  151.4264 LP  0  0  0  0  0  0  0  0  0  0  0  0  # atno 17342 bound_to 10162
  140.6874  143.7942  150.7205 LP  0  0  0  0  0  0  0  0  0  0  0  0  # atno 17343 bound_to 10162
  156.5256  130.8234  151.3219 LP  0  0  0  0  0  0  0  0  0  0  0  0  # atno 17370 bound_to 10713
  157.7413  130.9868  150.2440 LP  0  0  0  0  0  0  0  0  0  0  0  0  # atno 17371 bound_to 10713
  140.9942  133.7190  156.0861 LP  0  0  0  0  0  0  0  0  0  0  0  0  # atno 17394 bound_to 11000
  140.7584  134.3967  157.5530 LP  0  0  0  0  0  0  0  0  0  0  0  0  # atno 17395 bound_to 11000

$$$$
