AV-unprocessed.smi:1419|AV-procd|sdf|5779|dock7
  -GOLD-   22720 5423D 1   1.00000     0.00000
 Structure written by MMmdl.
 42 43  0  0  0  0  0  0  0  0  2 V2000
  150.0030  141.6439  155.3413 C   0  0  0  0  0  0  0  0  0  0  0  0
  150.8563  140.8597  156.3513 C   0  0  1  0  0  0  0  0  0  0  0  0
  151.8953  139.9360  155.6771 C   0  0  0  0  0  0  0  0  0  0  0  0
  151.3118  138.6898  155.1733 N   0  0  0  0  0  0  0  0  0  0  0  0
  151.5444  137.4163  155.6257 C   0  0  0  0  0  0  0  0  0  0  0  0
  150.7776  136.5818  154.8537 C   0  0  0  0  0  0  0  0  0  0  0  0
  150.1078  137.3810  153.9661 N   0  3  0  0  0  0  0  0  0  0  0  0
  150.4320  138.6630  154.1641 C   0  0  0  0  0  0  0  0  0  0  0  0
  151.5220  141.8017  157.2458 N   0  0  0  0  0  0  0  0  0  0  0  0
  151.8588  141.5614  158.5248 C   0  0  0  0  0  0  0  0  0  0  0  0
  151.6244  140.4821  159.0708 O   0  0  0  0  0  0  0  0  0  0  0  0
  152.4778  142.5922  159.1515 N   0  0  0  0  0  0  0  0  0  0  0  0
  153.1681  142.5556  160.4474 C   0  0  0  0  0  0  0  0  0  0  0  0
  152.3300  143.3561  161.4628 C   0  0  1  0  0  0  0  0  0  0  0  0
  153.0087  143.4354  162.8346 C   0  0  0  0  0  0  0  0  0  0  0  0
  152.1476  144.6911  160.9835 O   0  0  0  0  0  0  0  0  0  0  0  0
  151.5774  144.8107  159.6758 C   0  0  2  0  0  0  0  0  0  0  0  0
  150.0739  144.4794  159.6867 C   0  0  0  0  0  0  0  0  0  0  0  0
  152.3964  143.9733  158.6704 C   0  0  0  0  0  0  0  0  0  0  0  0
  149.4128  140.9775  154.7121 H   0  0  0  0  0  0  0  0  0  0  0  0
  150.6255  142.2557  154.6875 H   0  0  0  0  0  0  0  0  0  0  0  0
  149.3039  142.3077  155.8513 H   0  0  0  0  0  0  0  0  0  0  0  0
  150.1763  140.2472  156.9464 H   0  0  0  0  0  0  0  0  0  0  0  0
  152.3719  140.4444  154.8378 H   0  0  0  0  0  0  0  0  0  0  0  0
  152.6902  139.6669  156.3744 H   0  0  0  0  0  0  0  0  0  0  0  0
  152.2224  137.2040  156.4396 H   0  0  0  0  0  0  0  0  0  0  0  0
  150.6616  135.5077  154.8694 H   0  0  0  0  0  0  0  0  0  0  0  0
  150.0588  139.5098  153.6155 H   0  0  0  0  0  0  0  0  0  0  0  0
  151.7452  142.7101  156.8660 H   0  0  0  0  0  0  0  0  0  0  0  0
  153.3478  141.5487  160.8242 H   0  0  0  0  0  0  0  0  0  0  0  0
  154.1563  143.0053  160.3386 H   0  0  0  0  0  0  0  0  0  0  0  0
  151.3582  142.8782  161.5915 H   0  0  0  0  0  0  0  0  0  0  0  0
  153.1644  142.4414  163.2543 H   0  0  0  0  0  0  0  0  0  0  0  0
  152.3985  144.0014  163.5387 H   0  0  0  0  0  0  0  0  0  0  0  0
  153.9801  143.9261  162.7663 H   0  0  0  0  0  0  0  0  0  0  0  0
  151.6725  145.8597  159.3938 H   0  0  0  0  0  0  0  0  0  0  0  0
  149.6324  144.6599  158.7064 H   0  0  0  0  0  0  0  0  0  0  0  0
  149.5447  145.1042  160.4065 H   0  0  0  0  0  0  0  0  0  0  0  0
  149.8775  143.4388  159.9435 H   0  0  0  0  0  0  0  0  0  0  0  0
  153.4052  144.3795  158.5843 H   0  0  0  0  0  0  0  0  0  0  0  0
  151.9611  144.0533  157.6734 H   0  0  0  0  0  0  0  0  0  0  0  0
  149.4596  137.0520  153.2614 H   0  0  0  0  0  0  0  0  0  0  0  0
  1  2  1  0  0  0  0
  1 20  1  0  0  0  0
  1 21  1  0  0  0  0
  1 22  1  0  0  0  0
  2  3  1  0  0  0  0
  2  9  1  0  0  0  0
  2 23  1  0  0  0  0
  3  4  1  0  0  0  0
  3 24  1  0  0  0  0
  3 25  1  0  0  0  0
  4  8  1  0  0  0  0
  4  5  1  0  0  0  0
  5  6  2  0  0  0  0
  5 26  1  0  0  0  0
  6  7  1  0  0  0  0
  6 27  1  0  0  0  0
  7  8  2  0  0  0  0
  7 42  1  0  0  0  0
  8 28  1  0  0  0  0
  9 10  1  0  0  0  0
  9 29  1  0  0  0  0
 10 11  2  0  0  0  0
 10 12  1  0  0  0  0
 12 19  1  0  0  0  0
 12 13  1  0  0  0  0
 13 14  1  0  0  0  0
 13 30  1  0  0  0  0
 13 31  1  0  0  0  0
 14 15  1  0  0  0  0
 14 16  1  0  0  0  0
 14 32  1  0  0  0  0
 15 33  1  0  0  0  0
 15 34  1  0  0  0  0
 15 35  1  0  0  0  0
 16 17  1  0  0  0  0
 17 18  1  0  0  0  0
 17 19  1  0  0  0  0
 17 36  1  0  0  0  0
 18 37  1  0  0  0  0
 18 38  1  0  0  0  0
 18 39  1  0  0  0  0
 19 40  1  0  0  0  0
 19 41  1  0  0  0  0
M  CHG  1   7   1
M  END
> <s_m_source_file>
AV-unprocessed.smi

> <i_m_source_file_index>
1419

> <i_lp_mmshare_version>
43012

> <i_f3d_flags>
0

> <s_epik_input>
W2NIXTFuW2NIXVtjSF1uMVtDSDJdW0NAQEhdKFtDSDNdKVtOSF1DKD1PKU4yW0NIMl1bQ0BASF0oW0NIM10pT1tDQEBIXShbQ0gzXSlbQ0gyXTI=

> <s_epik_cmdline>
J2VwaWtfcHl0aG9uJywgJy1waCcsICc3LjAnLCAnLXRuJywgJzgnLCAnLW1hJywgJzIwMCcsICctbWV0YWxfYmluZGluZycsICctaW1hZScsICc8aW5maWxlLm1hZT4nLCAnLW9tYWUnLCAnPG91dGZpbGUubWFlPic=

> <r_lp_tautomer_probability>
1

> <r_epik_Ionization_Penalty>
0.253607

> <r_epik_Ionization_Penalty_Charging>
0

> <r_epik_Ionization_Penalty_Neutral>
0.253607

> <r_epik_State_Penalty>
0.245018

> <r_epik_Charging_Adjusted_Penalty>
0.245018

> <i_epik_Tot_Q>
1

> <i_epik_Tot_abs_Q>
1

> <r_epik_Metal_State_Penalty>
0.535379

> <b_epik_Metal_Only>
0

> <s_lp_Force_Field>
OPLS_2005

> <r_lp_Energy>
32.7532

> <b_lp_Chiralities_Consistent>
1

> <s_lp_Variant>
AV-unprocessed.smi:1419-6

> <Gold.Version>
5.8.1

> <Gold.Id.Protein>
6NUR|6NUR_protein|mol2

> <Gold.PLP.Fitness>
53.8338

> <Gold.PLP.PLP>
-46.5559

> <Gold.PLP.part.hbond>
-2.0000

> <Gold.PLP.part.metal>
0.0000

> <Gold.PLP.part.buried>
-2.1210

> <Gold.PLP.part.nonpolar>
-41.0606

> <Gold.PLP.part.repulsive>
0.2947

> <Gold.PLP.ligand.clash>
0.3477

> <Gold.PLP.ligand.torsion>
0.7046

> <Gold.PLP.Chemscore.Hbond>
2.0000

> <Gold.PLP.Chemscore.CHOScore>
1.0000

> <Gold.PLP.Chemscore.Metal>
0.0000

> <Gold.Chemscore.Hbonds>
donor molecule, donor type, donor heavy atom, donor atom, acceptor molecule, acceptor atom, score
      L1  H     7    42       P1  7948  2.00
      L1  C     8    28       P1  7957  0.96

> <Gold.PLP.Chemscore.Internal.Correction>
0.0347

> <Gold.Rescore>
     Score         DG    S(hbond)    S(metal)    S(lipo)     H(rot)  DE(clash)    DE(int)     intcor
     15.48     -16.31       0.90        0.00     102.33       1.63       0.18       0.65       ----

> <Gold.Chemscore.Fitness>
15.4803

> <Gold.Chemscore.DG>
-16.3066

> <Gold.Chemscore.ZeroCoef>
-5.4800

> <Gold.Chemscore.Hbond>
0.9042

> <Gold.Chemscore.Metal>
0.0000

> <Gold.Chemscore.Lipo>
102.3289

> <Gold.Chemscore.Internal_Hbond>
0.0000

> <Gold.Chemscore.DEClash>
0.1804

> <Gold.Chemscore.DEInternal>
0.6459

> <Gold.Chemscore.Rot>
1.6273

> <Gold.Chemscore.Internal.Correction>
   9.000000E+99

> <Gold.Chemscore.Hbonds>
donor molecule, donor type, donor heavy atom, donor atom, acceptor molecule, acceptor atom, score
      L1  H     7    42       P1  7948  0.86

> <Gold.Chemscore.Hbond.Weighted>
-3.0199

> <Gold.Chemscore.Metal.Weighted>
-0.0000

> <Gold.Chemscore.Lipo.Weighted>
-11.9725

> <Gold.Chemscore.Internal_Hbond.Weighted>
0.0000

> <Gold.Chemscore.DEClash.Weighted>
0.1804

> <Gold.Chemscore.DEInternal.Weighted>
0.6459

> <Gold.Chemscore.Rot.Weighted>
4.1658

> <Gold.Chemscore.Internal.Correction.Weighted>
   9.000000E+99

> <Gold.Protein.RotatedTorsions>
[ 6907 6896 6895 6894 ] final   78.80 input  -60.11 | X-H torsion
[ 7974 7965 7964 7962 ] final  131.69 input  175.53 | X-H torsion
[ 8008 7997 7996 7995 ] final  108.29 input   59.86 | X-H torsion
[ 10167 10162 10161 10158 ] final   74.01 input  -65.29 | X-H torsion
[ 10718 10713 10712 10709 ] final   90.12 input   66.30 | X-H torsion
[ 10763 10752 10751 10750 ] final   48.72 input  -60.55 | X-H torsion
[ 11005 11000 10999 10996 ] final   42.53 input  -57.11 | X-H torsion

> <Gold.Protein.ActiveResidues>
 VAL166  LYS551  ARG553  GLY616  TRP617  ASP618  TYR619  PRO620  LYS621  CYS622 
 ASP623  PHE694  ASN695  SER759  ASP760  ASP761  ALA762  ILE779  LEU786  VAL792 
 PHE793  MET794  SER795  GLU796  ALA797  LYS798  CYS799  TRP800  GLU811  SER814 

> <Gold.Protein.RotatedAtoms>
  152.5174  134.3609  159.9284 H   0  0  0  0  0  0  0  0  0  0  0  0  # atno 6907 bound_to 6896
  151.3561  133.3900  159.2693 H   0  0  0  0  0  0  0  0  0  0  0  0  # atno 6908 bound_to 6896
  150.9688  134.9084  159.7834 H   0  0  0  0  0  0  0  0  0  0  0  0  # atno 6909 bound_to 6896
  145.0046  139.4279  143.5275 H   0  0  0  0  0  0  0  0  0  0  0  0  # atno 7974 bound_to 7965
  156.1891  140.3079  155.9297 H   0  0  0  0  0  0  0  0  0  0  0  0  # atno 8008 bound_to 7997
  155.3214  140.0456  157.3056 H   0  0  0  0  0  0  0  0  0  0  0  0  # atno 8009 bound_to 7997
  154.5431  140.2268  155.8618 H   0  0  0  0  0  0  0  0  0  0  0  0  # atno 8010 bound_to 7997
  140.0183  144.5560  150.7602 H   0  0  0  0  0  0  0  0  0  0  0  0  # atno 10167 bound_to 10162
  157.6958  131.0359  150.3529 H   0  0  0  0  0  0  0  0  0  0  0  0  # atno 10718 bound_to 10713
  152.9790  135.5935  154.3972 H   0  0  0  0  0  0  0  0  0  0  0  0  # atno 10763 bound_to 10752
  154.3621  135.2767  155.2316 H   0  0  0  0  0  0  0  0  0  0  0  0  # atno 10764 bound_to 10752
  154.4308  135.6037  153.6122 H   0  0  0  0  0  0  0  0  0  0  0  0  # atno 10765 bound_to 10752
  140.1730  134.4198  155.8245 H   0  0  0  0  0  0  0  0  0  0  0  0  # atno 11005 bound_to 11000
  146.3458  139.9455  142.8735 LP  0  0  0  0  0  0  0  0  0  0  0  0  # atno 17320 bound_to 7965
  145.2106  140.9894  143.4103 LP  0  0  0  0  0  0  0  0  0  0  0  0  # atno 17321 bound_to 7965
  140.7353  143.2739  151.3802 LP  0  0  0  0  0  0  0  0  0  0  0  0  # atno 17342 bound_to 10162
  139.6157  144.1007  152.2343 LP  0  0  0  0  0  0  0  0  0  0  0  0  # atno 17343 bound_to 10162
  156.3975  130.3909  149.6984 LP  0  0  0  0  0  0  0  0  0  0  0  0  # atno 17370 bound_to 10713
  156.4312  130.7816  151.2836 LP  0  0  0  0  0  0  0  0  0  0  0  0  # atno 17371 bound_to 10713
  141.2218  133.6965  156.7797 LP  0  0  0  0  0  0  0  0  0  0  0  0  # atno 17394 bound_to 11000
  140.2355  134.8653  157.3521 LP  0  0  0  0  0  0  0  0  0  0  0  0  # atno 17395 bound_to 11000

$$$$
