AV-unprocessed.smi:15|AV-procd|sdf|82|dock7
  -GOLD-   2262015213D 1   1.00000     0.00000
 Structure written by MMmdl.
 53 56  0  0  0  0  0  0  0  0  1 V2000
  154.4387  141.0300  160.1310 C   0  0  0  0  0  0  0  0  0  0  0  0
  153.5049  140.2424  159.2028 C   0  0  0  0  0  0  0  0  0  0  0  0
  152.4469  141.0733  158.6290 N   0  0  0  0  0  0  0  0  0  0  0  0
  151.4166  141.6509  159.4943 C   0  0  0  0  0  0  0  0  0  0  0  0
  151.1974  143.1583  159.2585 C   0  0  1  0  0  0  0  0  0  0  0  0
  150.8218  143.9254  160.5243 C   0  0  0  0  0  0  0  0  0  0  0  0
  151.2730  145.3479  160.2286 C   0  0  0  0  0  0  0  0  0  0  0  0
  152.2061  145.2001  159.0239 C   0  0  0  0  0  0  0  0  0  0  0  0
  152.4066  143.8016  158.8850 O   0  0  0  0  0  0  0  0  0  0  0  0
  152.0054  140.7420  157.3918 C   0  0  0  0  0  0  0  0  0  0  0  0
  152.8228  139.9828  156.6185 N   0  0  0  0  0  0  0  0  0  0  0  0
  152.4577  139.6537  155.3763 C   0  0  0  0  0  0  0  0  0  0  0  0
  151.3454  139.9843  154.7180 N   0  0  0  0  0  0  0  0  0  0  0  0
  150.5268  140.7595  155.4854 C   0  0  0  0  0  0  0  0  0  0  0  0
  150.7709  141.1742  156.8253 C   0  0  0  0  0  0  0  0  0  0  0  0
  149.7164  141.9617  157.2735 N   0  0  0  0  0  0  0  0  0  0  0  0
  148.8984  142.0099  156.2587 C   0  0  0  0  0  0  0  0  0  0  0  0
  149.3145  141.3297  155.1369 N   0  0  0  0  0  0  0  0  0  0  0  0
  148.6184  141.2462  153.8623 C   0  0  0  0  0  0  0  0  0  0  0  0
  147.0799  141.1420  154.0092 C   0  0  2  0  0  0  0  0  0  0  0  0
  146.5512  140.6235  152.7996 O   0  0  0  0  0  0  0  0  0  0  0  0
  146.4300  142.5056  154.2666 C   0  0  0  0  0  0  0  0  0  0  0  0
  145.9097  142.4057  155.6960 C   0  0  0  0  0  0  0  0  0  0  0  0
  145.5710  141.0355  155.8149 O   0  0  0  0  0  0  0  0  0  0  0  0
  146.6328  140.2959  155.2304 C   0  0  1  0  0  0  0  0  0  0  0  0
  146.2026  138.8443  154.9607 C   0  0  0  0  0  0  0  0  0  0  0  0
  155.2548  140.3967  160.4792 H   0  0  0  0  0  0  0  0  0  0  0  0
  153.9170  141.4003  161.0132 H   0  0  0  0  0  0  0  0  0  0  0  0
  154.8792  141.8832  159.6145 H   0  0  0  0  0  0  0  0  0  0  0  0
  154.1050  139.8124  158.3995 H   0  0  0  0  0  0  0  0  0  0  0  0
  153.0656  139.4061  159.7463 H   0  0  0  0  0  0  0  0  0  0  0  0
  150.4814  141.1227  159.3131 H   0  0  0  0  0  0  0  0  0  0  0  0
  151.6555  141.4674  160.5426 H   0  0  0  0  0  0  0  0  0  0  0  0
  150.4410  143.3326  158.4919 H   0  0  0  0  0  0  0  0  0  0  0  0
  149.7587  143.8563  160.7569 H   0  0  0  0  0  0  0  0  0  0  0  0
  151.3786  143.5374  161.3782 H   0  0  0  0  0  0  0  0  0  0  0  0
  150.4289  145.9930  159.9828 H   0  0  0  0  0  0  0  0  0  0  0  0
  151.7873  145.7794  161.0878 H   0  0  0  0  0  0  0  0  0  0  0  0
  151.7326  145.5856  158.1196 H   0  0  0  0  0  0  0  0  0  0  0  0
  153.1543  145.7206  159.1602 H   0  0  0  0  0  0  0  0  0  0  0  0
  153.1611  139.0437  154.8289 H   0  0  0  0  0  0  0  0  0  0  0  0
  147.9703  142.5615  156.2945 H   0  0  0  0  0  0  0  0  0  0  0  0
  148.8788  142.1257  153.2718 H   0  0  0  0  0  0  0  0  0  0  0  0
  149.0081  140.3863  153.3155 H   0  0  0  0  0  0  0  0  0  0  0  0
  145.6117  140.7247  152.8179 H   0  0  0  0  0  0  0  0  0  0  0  0
  147.1149  143.3447  154.1392 H   0  0  0  0  0  0  0  0  0  0  0  0
  145.5863  142.6735  153.5951 H   0  0  0  0  0  0  0  0  0  0  0  0
  146.6907  142.6566  156.4157 H   0  0  0  0  0  0  0  0  0  0  0  0
  145.0510  143.0519  155.8783 H   0  0  0  0  0  0  0  0  0  0  0  0
  147.4319  140.2860  155.9724 H   0  0  0  0  0  0  0  0  0  0  0  0
  147.0003  138.2791  154.4789 H   0  0  0  0  0  0  0  0  0  0  0  0
  145.3214  138.7976  154.3206 H   0  0  0  0  0  0  0  0  0  0  0  0
  145.9576  138.3355  155.8931 H   0  0  0  0  0  0  0  0  0  0  0  0
  1  2  1  0  0  0  0
  1 27  1  0  0  0  0
  1 28  1  0  0  0  0
  1 29  1  0  0  0  0
  2  3  1  0  0  0  0
  2 30  1  0  0  0  0
  2 31  1  0  0  0  0
  3  4  1  0  0  0  0
  3 10  1  0  0  0  0
  4  5  1  0  0  0  0
  4 32  1  0  0  0  0
  4 33  1  0  0  0  0
  5  9  1  0  0  0  0
  5  6  1  0  0  0  0
  5 34  1  0  0  0  0
  6  7  1  0  0  0  0
  6 35  1  0  0  0  0
  6 36  1  0  0  0  0
  7  8  1  0  0  0  0
  7 37  1  0  0  0  0
  7 38  1  0  0  0  0
  8  9  1  0  0  0  0
  8 39  1  0  0  0  0
  8 40  1  0  0  0  0
 10 15  1  0  0  0  0
 10 11  2  0  0  0  0
 11 12  1  0  0  0  0
 12 13  2  0  0  0  0
 12 41  1  0  0  0  0
 13 14  1  0  0  0  0
 14 18  1  0  0  0  0
 14 15  2  0  0  0  0
 15 16  1  0  0  0  0
 16 17  2  0  0  0  0
 17 18  1  0  0  0  0
 17 42  1  0  0  0  0
 18 19  1  0  0  0  0
 19 20  1  0  0  0  0
 19 43  1  0  0  0  0
 19 44  1  0  0  0  0
 20 25  1  0  0  0  0
 20 21  1  0  0  0  0
 20 22  1  0  0  0  0
 21 45  1  0  0  0  0
 22 23  1  0  0  0  0
 22 46  1  0  0  0  0
 22 47  1  0  0  0  0
 23 24  1  0  0  0  0
 23 48  1  0  0  0  0
 23 49  1  0  0  0  0
 24 25  1  0  0  0  0
 25 26  1  0  0  0  0
 25 50  1  0  0  0  0
 26 51  1  0  0  0  0
 26 52  1  0  0  0  0
 26 53  1  0  0  0  0
M  END
> <s_m_source_file>
AV-unprocessed.smi

> <i_m_source_file_index>
15

> <i_lp_mmshare_version>
43012

> <i_f3d_flags>
0

> <s_epik_input>
TzFbQ0gyXVtDSDJdW0NIMl1bQ0BIXTFbQ0gyXU4oW0NIMl1bQ0gzXSljKG5bY0hdbjIpYyhjMjMpbltjSF1uM1tDSDJdW0NAQF00KFtPSF0pW0NIMl1bQ0gyXU9bQ0BIXTRbQ0gzXQ==

> <s_epik_cmdline>
J2VwaWtfcHl0aG9uJywgJy1waCcsICc3LjAnLCAnLXRuJywgJzgnLCAnLW1hJywgJzIwMCcsICctbWV0YWxfYmluZGluZycsICctaW1hZScsICc8aW5maWxlLm1hZT4nLCAnLW9tYWUnLCAnPG91dGZpbGUubWFlPic=

> <r_lp_tautomer_probability>
1

> <r_epik_Ionization_Penalty>
0.00360814

> <r_epik_Ionization_Penalty_Charging>
0

> <r_epik_Ionization_Penalty_Neutral>
0.00360814

> <r_epik_State_Penalty>
0.00237482

> <r_epik_Charging_Adjusted_Penalty>
0.00237482

> <i_epik_Tot_Q>
0

> <i_epik_Tot_abs_Q>
0

> <r_epik_Metal_State_Penalty>
-0

> <b_epik_Metal_Only>
0

> <s_lp_Force_Field>
OPLS_2005

> <r_lp_Energy>
44.887

> <b_lp_Chiralities_Consistent>
1

> <s_lp_Variant>
AV-unprocessed.smi:15-4

> <Gold.Version>
5.8.1

> <Gold.Id.Protein>
6NUR|6NUR_protein|mol2

> <Gold.PLP.Fitness>
54.7101

> <Gold.PLP.PLP>
-47.2634

> <Gold.PLP.part.hbond>
-3.0000

> <Gold.PLP.part.metal>
0.0000

> <Gold.PLP.part.buried>
-2.4562

> <Gold.PLP.part.nonpolar>
-42.0251

> <Gold.PLP.part.repulsive>
0.2827

> <Gold.PLP.ligand.clash>
0.0000

> <Gold.PLP.ligand.torsion>
1.5444

> <Gold.PLP.Chemscore.Hbond>
2.7000

> <Gold.PLP.Chemscore.CHOScore>
0.4970

> <Gold.PLP.Chemscore.Metal>
0.0000

> <Gold.Chemscore.Hbonds>
donor molecule, donor type, donor heavy atom, donor atom, acceptor molecule, acceptor atom, score
      L1  H    21    45       P1 10175  1.00
      P1  H  7989  7998       L1    13  1.00
      P1  H  7997  8010       L1    11  1.00
      L1  C    17    42       P1  8028  0.36

> <Gold.PLP.Chemscore.Internal.Correction>
0.9446

> <Gold.Rescore>
     Score         DG    S(hbond)    S(metal)    S(lipo)     H(rot)  DE(clash)    DE(int)     intcor
     10.93     -16.18       1.65        0.00      97.78       2.44       1.46       3.79       ----

> <Gold.Chemscore.Fitness>
10.9329

> <Gold.Chemscore.DG>
-16.1800

> <Gold.Chemscore.ZeroCoef>
-5.4800

> <Gold.Chemscore.Hbond>
1.6508

> <Gold.Chemscore.Metal>
0.0000

> <Gold.Chemscore.Lipo>
97.7846

> <Gold.Chemscore.Internal_Hbond>
0.0000

> <Gold.Chemscore.DEClash>
1.4556

> <Gold.Chemscore.DEInternal>
3.7915

> <Gold.Chemscore.Rot>
2.4431

> <Gold.Chemscore.Internal.Correction>
   9.000000E+99

> <Gold.Chemscore.Hbonds>
donor molecule, donor type, donor heavy atom, donor atom, acceptor molecule, acceptor atom, score
      L1  H    21    45       P1 10175  0.49
      P1  H  7989  7998       L1    13  0.34
      P1  H  7997  8010       L1    11  0.52

> <Gold.Chemscore.Hbond.Weighted>
-5.5137

> <Gold.Chemscore.Metal.Weighted>
-0.0000

> <Gold.Chemscore.Lipo.Weighted>
-11.4408

> <Gold.Chemscore.Internal_Hbond.Weighted>
0.0000

> <Gold.Chemscore.DEClash.Weighted>
1.4556

> <Gold.Chemscore.DEInternal.Weighted>
3.7915

> <Gold.Chemscore.Rot.Weighted>
6.2544

> <Gold.Chemscore.Internal.Correction.Weighted>
   9.000000E+99

> <Gold.Protein.RotatedTorsions>
[ 6907 6896 6895 6894 ] final -109.49 input  -60.11 | X-H torsion
[ 7974 7965 7964 7962 ] final -124.04 input  175.53 | X-H torsion
[ 8008 7997 7996 7995 ] final   62.44 input   59.86 | X-H torsion
[ 10167 10162 10161 10158 ] final -115.95 input  -65.29 | X-H torsion
[ 10718 10713 10712 10709 ] final -107.36 input   66.30 | X-H torsion
[ 10763 10752 10751 10750 ] final  105.17 input  -60.55 | X-H torsion
[ 11005 11000 10999 10996 ] final    0.70 input  -57.11 | X-H torsion

> <Gold.Protein.ActiveResidues>
 VAL166  LYS551  ARG553  GLY616  TRP617  ASP618  TYR619  PRO620  LYS621  CYS622 
 ASP623  PHE694  ASN695  SER759  ASP760  ASP761  ALA762  ILE779  LEU786  VAL792 
 PHE793  MET794  SER795  GLU796  ALA797  LYS798  CYS799  TRP800  GLU811  SER814 

> <Gold.Protein.RotatedAtoms>
  150.7565  133.9521  159.3488 H   0  0  0  0  0  0  0  0  0  0  0  0  # atno 6907 bound_to 6896
  151.7440  135.0846  160.0329 H   0  0  0  0  0  0  0  0  0  0  0  0  # atno 6908 bound_to 6896
  152.3510  133.6142  159.5981 H   0  0  0  0  0  0  0  0  0  0  0  0  # atno 6909 bound_to 6896
  145.0123  140.7916  143.4431 H   0  0  0  0  0  0  0  0  0  0  0  0  # atno 7974 bound_to 7965
  155.6144  140.3495  155.4632 H   0  0  0  0  0  0  0  0  0  0  0  0  # atno 8008 bound_to 7997
  156.0129  140.1237  157.0460 H   0  0  0  0  0  0  0  0  0  0  0  0  # atno 8009 bound_to 7997
  154.4287  140.1078  156.5840 H   0  0  0  0  0  0  0  0  0  0  0  0  # atno 8010 bound_to 7997
  140.0845  143.4757  152.1906 H   0  0  0  0  0  0  0  0  0  0  0  0  # atno 10167 bound_to 10162
  156.0433  130.5658  150.7810 H   0  0  0  0  0  0  0  0  0  0  0  0  # atno 10718 bound_to 10713
  153.3758  135.3919  155.1821 H   0  0  0  0  0  0  0  0  0  0  0  0  # atno 10763 bound_to 10752
  154.8701  135.3713  154.4920 H   0  0  0  0  0  0  0  0  0  0  0  0  # atno 10764 bound_to 10752
  153.5392  135.7084  153.5706 H   0  0  0  0  0  0  0  0  0  0  0  0  # atno 10765 bound_to 10752
  140.6236  133.9639  155.8237 H   0  0  0  0  0  0  0  0  0  0  0  0  # atno 11005 bound_to 11000
  145.2007  139.2254  143.5194 LP  0  0  0  0  0  0  0  0  0  0  0  0  # atno 17320 bound_to 7965
  146.3472  140.1823  142.8589 LP  0  0  0  0  0  0  0  0  0  0  0  0  # atno 17321 bound_to 7965
  139.5760  144.7487  151.3764 LP  0  0  0  0  0  0  0  0  0  0  0  0  # atno 17342 bound_to 10162
  140.7060  143.7511  150.7484 LP  0  0  0  0  0  0  0  0  0  0  0  0  # atno 17343 bound_to 10162
  157.5277  131.0935  150.9995 LP  0  0  0  0  0  0  0  0  0  0  0  0  # atno 17370 bound_to 10713
  157.0310  130.5711  149.5343 LP  0  0  0  0  0  0  0  0  0  0  0  0  # atno 17371 bound_to 10713
  141.0725  134.0184  157.3506 LP  0  0  0  0  0  0  0  0  0  0  0  0  # atno 17394 bound_to 11000
  139.9143  135.0195  156.7820 LP  0  0  0  0  0  0  0  0  0  0  0  0  # atno 17395 bound_to 11000

$$$$
