AV-unprocessed.smi:740|AV-procd|sdf|3550|dock4
  -GOLD-   22720 0543D 1   1.00000     0.00000
 Structure written by MMmdl.
 45 47  0  0  0  0  0  0  0  0  2 V2000
  151.4012  144.7177  160.1527 C   0  0  0  0  0  0  0  0  0  0  0  0
  152.0630  143.3514  160.2076 C   0  0  0  0  0  0  0  0  0  0  0  0
  152.8905  143.0470  161.3118 C   0  0  0  0  0  0  0  0  0  0  0  0
  153.4824  141.7897  161.3336 C   0  0  0  0  0  0  0  0  0  0  0  0
  154.3390  141.1993  162.2651 N   0  3  0  0  0  0  0  0  0  0  0  0
  154.6619  139.9426  161.8525 C   0  0  0  0  0  0  0  0  0  0  0  0
  154.0214  139.7202  160.6729 N   0  0  0  0  0  0  0  0  0  0  0  0
  154.0339  138.5273  159.8143 C   0  0  0  0  0  0  0  0  0  0  0  0
  152.9098  137.5322  160.1627 C   0  0  2  0  0  0  0  0  0  0  0  0
  153.1669  136.3042  159.5095 O   0  0  0  0  0  0  0  0  0  0  0  0
  151.5304  138.0544  159.7121 C   0  0  0  0  0  0  0  0  0  0  0  0
  151.2365  137.7028  158.3180 N   0  0  0  0  0  0  0  0  0  0  0  0
  150.3431  136.7742  157.9504 C   0  0  0  0  0  0  0  0  0  0  0  0
  149.6484  136.0935  158.7047 O   0  0  0  0  0  0  0  0  0  0  0  0
  150.2863  136.6403  156.4352 C   0  0  0  0  0  0  0  0  0  0  0  0
  151.3224  137.6662  155.9512 C   0  0  1  0  0  0  0  0  0  0  0  0
  150.7401  138.7430  155.0210 C   0  0  0  0  0  0  0  0  0  0  0  0
  151.8386  138.2626  157.2593 C   0  0  0  0  0  0  0  0  0  0  0  0
  152.6999  139.1418  157.2955 O   0  0  0  0  0  0  0  0  0  0  0  0
  153.2743  140.8468  160.3080 C   0  0  0  0  0  0  0  0  0  0  0  0
  152.4626  141.1318  159.2121 C   0  0  0  0  0  0  0  0  0  0  0  0
  151.8540  142.4065  159.1698 C   0  0  0  0  0  0  0  0  0  0  0  0
  150.9689  142.7471  157.9828 C   0  0  0  0  0  0  0  0  0  0  0  0
  151.6363  145.3106  161.0369 H   0  0  0  0  0  0  0  0  0  0  0  0
  150.3170  144.6170  160.0989 H   0  0  0  0  0  0  0  0  0  0  0  0
  151.7423  145.2727  159.2786 H   0  0  0  0  0  0  0  0  0  0  0  0
  153.0573  143.7623  162.1038 H   0  0  0  0  0  0  0  0  0  0  0  0
  155.3104  139.2480  162.3669 H   0  0  0  0  0  0  0  0  0  0  0  0
  153.9113  138.8773  158.7887 H   0  0  0  0  0  0  0  0  0  0  0  0
  155.0154  138.0548  159.8587 H   0  0  0  0  0  0  0  0  0  0  0  0
  152.9159  137.3619  161.2402 H   0  0  0  0  0  0  0  0  0  0  0  0
  153.6633  136.4787  158.7247 H   0  0  0  0  0  0  0  0  0  0  0  0
  150.7531  137.6157  160.3405 H   0  0  0  0  0  0  0  0  0  0  0  0
  151.4532  139.1308  159.8769 H   0  0  0  0  0  0  0  0  0  0  0  0
  150.5489  135.6261  156.1326 H   0  0  0  0  0  0  0  0  0  0  0  0
  149.2799  136.8602  156.0766 H   0  0  0  0  0  0  0  0  0  0  0  0
  152.1476  137.1558  155.4528 H   0  0  0  0  0  0  0  0  0  0  0  0
  151.5091  139.4470  154.7010 H   0  0  0  0  0  0  0  0  0  0  0  0
  149.9494  139.3123  155.5115 H   0  0  0  0  0  0  0  0  0  0  0  0
  150.3157  138.2917  154.1238 H   0  0  0  0  0  0  0  0  0  0  0  0
  152.3047  140.4160  158.4195 H   0  0  0  0  0  0  0  0  0  0  0  0
  150.9375  141.9303  157.2609 H   0  0  0  0  0  0  0  0  0  0  0  0
  151.3424  143.6317  157.4668 H   0  0  0  0  0  0  0  0  0  0  0  0
  149.9475  142.9416  158.3103 H   0  0  0  0  0  0  0  0  0  0  0  0
  154.6813  141.6213  163.1191 H   0  0  0  0  0  0  0  0  0  0  0  0
  1  2  1  0  0  0  0
  1 24  1  0  0  0  0
  1 25  1  0  0  0  0
  1 26  1  0  0  0  0
  2 22  1  0  0  0  0
  2  3  2  0  0  0  0
  3  4  1  0  0  0  0
  3 27  1  0  0  0  0
  4 20  2  0  0  0  0
  4  5  1  0  0  0  0
  5  6  2  0  0  0  0
  5 45  1  0  0  0  0
  6  7  1  0  0  0  0
  6 28  1  0  0  0  0
  7  8  1  0  0  0  0
  7 20  1  0  0  0  0
  8  9  1  0  0  0  0
  8 29  1  0  0  0  0
  8 30  1  0  0  0  0
  9 10  1  0  0  0  0
  9 11  1  0  0  0  0
  9 31  1  0  0  0  0
 10 32  1  0  0  0  0
 11 12  1  0  0  0  0
 11 33  1  0  0  0  0
 11 34  1  0  0  0  0
 12 18  1  0  0  0  0
 12 13  1  0  0  0  0
 13 14  2  0  0  0  0
 13 15  1  0  0  0  0
 15 16  1  0  0  0  0
 15 35  1  0  0  0  0
 15 36  1  0  0  0  0
 16 17  1  0  0  0  0
 16 18  1  0  0  0  0
 16 37  1  0  0  0  0
 17 38  1  0  0  0  0
 17 39  1  0  0  0  0
 17 40  1  0  0  0  0
 18 19  2  0  0  0  0
 20 21  1  0  0  0  0
 21 22  2  0  0  0  0
 21 41  1  0  0  0  0
 22 23  1  0  0  0  0
 23 42  1  0  0  0  0
 23 43  1  0  0  0  0
 23 44  1  0  0  0  0
M  CHG  1   5   1
M  END
> <s_m_source_file>
AV-unprocessed.smi

> <i_m_source_file_index>
740

> <i_lp_mmshare_version>
43012

> <i_f3d_flags>
0

> <s_epik_input>
W0NIM11jKFtjSF0xKWMoW0NIM10pW2NIXWMoYzEyKW4oW2NIXW4yKVtDSDJdW0NASF0oW09IXSlbQ0gyXU4zQyg9TylbQ0gyXVtDQEBIXShbQ0gzXSlDMz1P

> <s_epik_cmdline>
J2VwaWtfcHl0aG9uJywgJy1waCcsICc3LjAnLCAnLXRuJywgJzgnLCAnLW1hJywgJzIwMCcsICctbWV0YWxfYmluZGluZycsICctaW1hZScsICc8aW5maWxlLm1hZT4nLCAnLW9tYWUnLCAnPG91dGZpbGUubWFlPic=

> <r_lp_tautomer_probability>
1

> <r_epik_Ionization_Penalty>
1.08202

> <r_epik_Ionization_Penalty_Charging>
1.08202

> <r_epik_Ionization_Penalty_Neutral>
1.16605e-06

> <r_epik_State_Penalty>
1.13754

> <r_epik_Charging_Adjusted_Penalty>
2.21956

> <i_epik_Tot_Q>
1

> <i_epik_Tot_abs_Q>
1

> <r_epik_Metal_State_Penalty>
5.13645

> <b_epik_Metal_Only>
0

> <s_lp_Force_Field>
OPLS_2005

> <r_lp_Energy>
22.4261

> <b_lp_Chiralities_Consistent>
1

> <s_lp_Variant>
AV-unprocessed.smi:740-5

> <Gold.Version>
5.8.1

> <Gold.Id.Protein>
6NUR|6NUR_protein|mol2

> <Gold.PLP.Fitness>
53.4553

> <Gold.PLP.PLP>
-46.2434

> <Gold.PLP.part.hbond>
-4.0000

> <Gold.PLP.part.metal>
0.0000

> <Gold.PLP.part.buried>
-7.3779

> <Gold.PLP.part.nonpolar>
-36.1253

> <Gold.PLP.part.repulsive>
0.0000

> <Gold.PLP.ligand.clash>
0.0000

> <Gold.PLP.ligand.torsion>
0.8948

> <Gold.PLP.Chemscore.Hbond>
3.0000

> <Gold.PLP.Chemscore.CHOScore>
0.0000

> <Gold.PLP.Chemscore.Metal>
0.0000

> <Gold.Chemscore.Hbonds>
donor molecule, donor type, donor heavy atom, donor atom, acceptor molecule, acceptor atom, score
      P1  H  6896  6908       L1    14  1.00
      P1  H  6896  6909       L1    10  0.91
      P1  H  7997  8010       L1    19  0.96

> <Gold.PLP.Chemscore.Internal.Correction>
0.0015

> <Gold.Rescore>
     Score         DG    S(hbond)    S(metal)    S(lipo)     H(rot)  DE(clash)    DE(int)     intcor
     21.41     -22.60       2.84        0.00     117.23       2.37       0.01       1.18       ----

> <Gold.Chemscore.Fitness>
21.4083

> <Gold.Chemscore.DG>
-22.5959

> <Gold.Chemscore.ZeroCoef>
-5.4800

> <Gold.Chemscore.Hbond>
2.8363

> <Gold.Chemscore.Metal>
0.0000

> <Gold.Chemscore.Lipo>
117.2300

> <Gold.Chemscore.Internal_Hbond>
0.0000

> <Gold.Chemscore.DEClash>
0.0106

> <Gold.Chemscore.DEInternal>
1.1769

> <Gold.Chemscore.Rot>
2.3724

> <Gold.Chemscore.Internal.Correction>
   9.000000E+99

> <Gold.Chemscore.Hbonds>
donor molecule, donor type, donor heavy atom, donor atom, acceptor molecule, acceptor atom, score
      P1  H  6896  6908       L1    14  0.77
      P1  H  6896  6909       L1    10  0.89
      P1  H  7997  8010       L1    19  0.90

> <Gold.Chemscore.Hbond.Weighted>
-9.4734

> <Gold.Chemscore.Metal.Weighted>
-0.0000

> <Gold.Chemscore.Lipo.Weighted>
-13.7159

> <Gold.Chemscore.Internal_Hbond.Weighted>
0.0000

> <Gold.Chemscore.DEClash.Weighted>
0.0106

> <Gold.Chemscore.DEInternal.Weighted>
1.1769

> <Gold.Chemscore.Rot.Weighted>
6.0734

> <Gold.Chemscore.Internal.Correction.Weighted>
   9.000000E+99

> <Gold.Protein.RotatedTorsions>
[ 6907 6896 6895 6894 ] final  176.92 input  -60.11 | X-H torsion
[ 7974 7965 7964 7962 ] final  -98.29 input  175.53 | X-H torsion
[ 8008 7997 7996 7995 ] final   66.19 input   59.86 | X-H torsion
[ 10167 10162 10161 10158 ] final  -85.45 input  -65.29 | X-H torsion
[ 10718 10713 10712 10709 ] final   48.27 input   66.30 | X-H torsion
[ 10763 10752 10751 10750 ] final  123.90 input  -60.55 | X-H torsion
[ 11005 11000 10999 10996 ] final   26.65 input  -57.11 | X-H torsion

> <Gold.Protein.ActiveResidues>
 VAL166  LYS551  ARG553  GLY616  TRP617  ASP618  TYR619  PRO620  LYS621  CYS622 
 ASP623  PHE694  ASN695  SER759  ASP760  ASP761  ALA762  ILE779  LEU786  VAL792 
 PHE793  MET794  SER795  GLU796  ALA797  LYS798  CYS799  TRP800  GLU811  SER814 

> <Gold.Protein.RotatedAtoms>
  151.7124  133.3312  159.3293 H   0  0  0  0  0  0  0  0  0  0  0  0  # atno 6907 bound_to 6896
  150.7688  134.6520  159.6303 H   0  0  0  0  0  0  0  0  0  0  0  0  # atno 6908 bound_to 6896
  152.3703  134.6746  160.0230 H   0  0  0  0  0  0  0  0  0  0  0  0  # atno 6909 bound_to 6896
  145.3226  140.9425  143.2707 H   0  0  0  0  0  0  0  0  0  0  0  0  # atno 7974 bound_to 7965
  155.6735  140.3497  155.4827 H   0  0  0  0  0  0  0  0  0  0  0  0  # atno 8008 bound_to 7997
  155.9668  140.1148  157.0870 H   0  0  0  0  0  0  0  0  0  0  0  0  # atno 8009 bound_to 7997
  154.4156  140.1165  156.5238 H   0  0  0  0  0  0  0  0  0  0  0  0  # atno 8010 bound_to 7997
  140.4036  143.2652  151.9110 H   0  0  0  0  0  0  0  0  0  0  0  0  # atno 10167 bound_to 10162
  157.4670  130.8232  149.7947 H   0  0  0  0  0  0  0  0  0  0  0  0  # atno 10718 bound_to 10713
  153.6529  135.3359  155.3105 H   0  0  0  0  0  0  0  0  0  0  0  0  # atno 10763 bound_to 10752
  154.8533  135.4345  154.1885 H   0  0  0  0  0  0  0  0  0  0  0  0  # atno 10764 bound_to 10752
  153.2832  135.7011  153.7439 H   0  0  0  0  0  0  0  0  0  0  0  0  # atno 10765 bound_to 10752
  140.3348  134.2398  155.7697 H   0  0  0  0  0  0  0  0  0  0  0  0  # atno 11005 bound_to 11000
  144.8927  139.4753  143.6670 LP  0  0  0  0  0  0  0  0  0  0  0  0  # atno 17320 bound_to 7965
  146.3076  139.7635  142.9044 LP  0  0  0  0  0  0  0  0  0  0  0  0  # atno 17321 bound_to 7965
  139.4784  144.5608  151.8242 LP  0  0  0  0  0  0  0  0  0  0  0  0  # atno 17342 bound_to 10162
  140.4713  144.1583  150.5918 LP  0  0  0  0  0  0  0  0  0  0  0  0  # atno 17343 bound_to 10162
  156.0055  130.3858  150.2447 LP  0  0  0  0  0  0  0  0  0  0  0  0  # atno 17370 bound_to 10713
  157.0628  131.0094  151.3217 LP  0  0  0  0  0  0  0  0  0  0  0  0  # atno 17371 bound_to 10713
  141.2054  133.7861  157.0234 LP  0  0  0  0  0  0  0  0  0  0  0  0  # atno 17394 bound_to 11000
  140.0830  134.9637  157.1655 LP  0  0  0  0  0  0  0  0  0  0  0  0  # atno 17395 bound_to 11000

$$$$
