AV-unprocessed.smi:1934|AV-procd|sdf|7824|dock1
  -GOLD-   22720 9573D 1   1.00000     0.00000
 Structure written by MMmdl.
 46 47  0  0  0  0  0  0  0  0  2 V2000
  151.0662  142.1840  157.2767 C   0  0  0  0  0  0  0  0  0  0  0  0
  150.7170  141.2162  156.1847 C   0  0  0  0  0  0  0  0  0  0  0  0
  149.5794  141.2329  155.3257 C   0  0  0  0  0  0  0  0  0  0  0  0
  149.7804  140.1316  154.5391 C   0  0  0  0  0  0  0  0  0  0  0  0
  149.0110  139.6518  153.5260 N   0  0  0  0  0  0  0  0  0  0  0  0
  147.8167  139.0385  153.5953 C   0  0  0  0  0  0  0  0  0  0  0  0
  147.1973  138.7911  154.6302 O   0  0  0  0  0  0  0  0  0  0  0  0
  147.3686  138.7108  152.3746 N   0  0  0  0  0  0  0  0  0  0  0  0
  146.1060  138.0343  152.1014 C   0  0  0  0  0  0  0  0  0  0  0  0
  145.8562  136.8812  153.0928 C   0  0  0  0  0  0  0  0  0  0  0  0
  146.2000  135.5566  152.5169 N   0  3  2  0  0  0  0  0  0  0  0  0
  145.3592  135.2201  151.3388 C   0  0  0  0  0  0  0  0  0  0  0  0
  145.8375  133.9226  150.6682 C   0  0  0  0  0  0  0  0  0  0  0  0
  145.8676  132.7621  151.6725 C   0  0  0  0  0  0  0  0  0  0  0  0
  146.6877  133.1274  152.9237 C   0  0  1  0  0  0  0  0  0  0  0  0
  148.2044  133.1339  152.6633 C   0  0  0  0  0  0  0  0  0  0  0  0
  146.1943  134.4604  153.5238 C   0  0  0  0  0  0  0  0  0  0  0  0
  150.9549  139.5213  154.9194 N   0  0  0  0  0  0  0  0  0  0  0  0
  151.5909  138.3325  154.3863 C   0  0  0  0  0  0  0  0  0  0  0  0
  151.5309  140.1961  155.9375 N   0  0  0  0  0  0  0  0  0  0  0  0
  150.3138  142.9679  157.3644 H   0  0  0  0  0  0  0  0  0  0  0  0
  152.0251  142.6651  157.0831 H   0  0  0  0  0  0  0  0  0  0  0  0
  151.1341  141.6799  158.2411 H   0  0  0  0  0  0  0  0  0  0  0  0
  148.7677  141.9442  155.3059 H   0  0  0  0  0  0  0  0  0  0  0  0
  149.3983  139.7697  152.6013 H   0  0  0  0  0  0  0  0  0  0  0  0
  147.9391  138.9526  151.5772 H   0  0  0  0  0  0  0  0  0  0  0  0
  145.2838  138.7515  152.1340 H   0  0  0  0  0  0  0  0  0  0  0  0
  146.1542  137.6651  151.0779 H   0  0  0  0  0  0  0  0  0  0  0  0
  146.4099  137.0381  154.0199 H   0  0  0  0  0  0  0  0  0  0  0  0
  144.7993  136.8861  153.3631 H   0  0  0  0  0  0  0  0  0  0  0  0
  144.3174  135.1240  151.6490 H   0  0  0  0  0  0  0  0  0  0  0  0
  145.4003  136.0306  150.6101 H   0  0  0  0  0  0  0  0  0  0  0  0
  145.1808  133.6732  149.8343 H   0  0  0  0  0  0  0  0  0  0  0  0
  146.8291  134.0722  150.2404 H   0  0  0  0  0  0  0  0  0  0  0  0
  144.8456  132.5244  151.9708 H   0  0  0  0  0  0  0  0  0  0  0  0
  146.2648  131.8622  151.2015 H   0  0  0  0  0  0  0  0  0  0  0  0
  146.5083  132.3489  153.6664 H   0  0  0  0  0  0  0  0  0  0  0  0
  148.4933  133.9067  151.9509 H   0  0  0  0  0  0  0  0  0  0  0  0
  148.5373  132.1749  152.2654 H   0  0  0  0  0  0  0  0  0  0  0  0
  148.7576  133.3142  153.5854 H   0  0  0  0  0  0  0  0  0  0  0  0
  146.8172  134.7194  154.3791 H   0  0  0  0  0  0  0  0  0  0  0  0
  145.1802  134.3373  153.9078 H   0  0  0  0  0  0  0  0  0  0  0  0
  150.8595  137.5281  154.3048 H   0  0  0  0  0  0  0  0  0  0  0  0
  152.4009  138.0053  155.0397 H   0  0  0  0  0  0  0  0  0  0  0  0
  151.9965  138.5483  153.3978 H   0  0  0  0  0  0  0  0  0  0  0  0
  147.1456  135.6347  152.1707 H   0  0  0  0  0  0  0  0  0  0  0  0
  1  2  1  0  0  0  0
  1 21  1  0  0  0  0
  1 22  1  0  0  0  0
  1 23  1  0  0  0  0
  2 20  2  0  0  0  0
  2  3  1  0  0  0  0
  3  4  2  0  0  0  0
  3 24  1  0  0  0  0
  4  5  1  0  0  0  0
  4 18  1  0  0  0  0
  5  6  1  0  0  0  0
  5 25  1  0  0  0  0
  6  7  2  0  0  0  0
  6  8  1  0  0  0  0
  8  9  1  0  0  0  0
  8 26  1  0  0  0  0
  9 10  1  0  0  0  0
  9 27  1  0  0  0  0
  9 28  1  0  0  0  0
 10 11  1  0  0  0  0
 10 29  1  0  0  0  0
 10 30  1  0  0  0  0
 11 17  1  0  0  0  0
 11 12  1  0  0  0  0
 11 46  1  0  0  0  0
 12 13  1  0  0  0  0
 12 31  1  0  0  0  0
 12 32  1  0  0  0  0
 13 14  1  0  0  0  0
 13 33  1  0  0  0  0
 13 34  1  0  0  0  0
 14 15  1  0  0  0  0
 14 35  1  0  0  0  0
 14 36  1  0  0  0  0
 15 16  1  0  0  0  0
 15 17  1  0  0  0  0
 15 37  1  0  0  0  0
 16 38  1  0  0  0  0
 16 39  1  0  0  0  0
 16 40  1  0  0  0  0
 17 41  1  0  0  0  0
 17 42  1  0  0  0  0
 18 19  1  0  0  0  0
 18 20  1  0  0  0  0
 19 43  1  0  0  0  0
 19 44  1  0  0  0  0
 19 45  1  0  0  0  0
M  CHG  1  11   1
M  END
> <s_m_source_file>
AV-unprocessed.smi

> <i_m_source_file_index>
1934

> <i_lp_mmshare_version>
43012

> <i_f3d_flags>
0

> <s_epik_input>
W0NIM11jMVtjSF1jKG4objEpW0NIM10pW05IXUMoPU8pW05IXVtDSDJdW0NIMl1OMltDSDJdW0NIMl1bQ0gyXVtDQEBIXShbQ0gzXSlbQ0gyXTI=

> <s_epik_cmdline>
J2VwaWtfcHl0aG9uJywgJy1waCcsICc3LjAnLCAnLXRuJywgJzgnLCAnLW1hJywgJzIwMCcsICctbWV0YWxfYmluZGluZycsICctaW1hZScsICc8aW5maWxlLm1hZT4nLCAnLW9tYWUnLCAnPG91dGZpbGUubWFlPic=

> <r_lp_tautomer_probability>
1

> <r_epik_Ionization_Penalty>
0.00202955

> <r_epik_Ionization_Penalty_Charging>
0.00195276

> <r_epik_Ionization_Penalty_Neutral>
7.67968e-05

> <r_epik_State_Penalty>
0.00133177

> <r_epik_Charging_Adjusted_Penalty>
0.00328452

> <i_epik_Tot_Q>
1

> <i_epik_Tot_abs_Q>
1

> <r_epik_Metal_State_Penalty>
-0

> <b_epik_Metal_Only>
0

> <s_lp_Force_Field>
OPLS_2005

> <r_lp_Energy>
20.6023

> <b_lp_Chiralities_Consistent>
1

> <s_lp_Variant>
AV-unprocessed.smi:1934-2

> <Gold.Version>
5.8.1

> <Gold.Id.Protein>
6NUR|6NUR_protein|mol2

> <Gold.PLP.Fitness>
48.5410

> <Gold.PLP.PLP>
-39.1552

> <Gold.PLP.part.hbond>
-3.8372

> <Gold.PLP.part.metal>
0.0000

> <Gold.PLP.part.buried>
-3.1691

> <Gold.PLP.part.nonpolar>
-33.3946

> <Gold.PLP.part.repulsive>
0.3187

> <Gold.PLP.ligand.clash>
0.0000

> <Gold.PLP.ligand.torsion>
1.1003

> <Gold.PLP.Chemscore.Hbond>
3.8480

> <Gold.PLP.Chemscore.CHOScore>
0.0000

> <Gold.PLP.Chemscore.Metal>
0.0000

> <Gold.Chemscore.Hbonds>
donor molecule, donor type, donor heavy atom, donor atom, acceptor molecule, acceptor atom, score
      L1  H     5    25       P1  7957  0.88
      L1  H     8    26       P1  7957  0.82
      L1  H    11    46       P1  7948  2.00

> <Gold.PLP.Chemscore.Internal.Correction>
0.0423

> <Gold.Rescore>
     Score         DG    S(hbond)    S(metal)    S(lipo)     H(rot)  DE(clash)    DE(int)     intcor
     16.89     -19.75       2.94        0.00      70.45       1.48       0.25       2.61       ----

> <Gold.Chemscore.Fitness>
16.8884

> <Gold.Chemscore.DG>
-19.7494

> <Gold.Chemscore.ZeroCoef>
-5.4800

> <Gold.Chemscore.Hbond>
2.9418

> <Gold.Chemscore.Metal>
0.0000

> <Gold.Chemscore.Lipo>
70.4458

> <Gold.Chemscore.Internal_Hbond>
0.0000

> <Gold.Chemscore.DEClash>
0.2479

> <Gold.Chemscore.DEInternal>
2.6131

> <Gold.Chemscore.Rot>
1.4838

> <Gold.Chemscore.Internal.Correction>
   9.000000E+99

> <Gold.Chemscore.Hbonds>
donor molecule, donor type, donor heavy atom, donor atom, acceptor molecule, acceptor atom, score
      L1  H     5    25       P1  7957  0.86
      L1  H     8    26       P1  7957  0.65
      L1  H    11    46       P1  7948  1.00

> <Gold.Chemscore.Hbond.Weighted>
-9.8257

> <Gold.Chemscore.Metal.Weighted>
-0.0000

> <Gold.Chemscore.Lipo.Weighted>
-8.2422

> <Gold.Chemscore.Internal_Hbond.Weighted>
0.0000

> <Gold.Chemscore.DEClash.Weighted>
0.2479

> <Gold.Chemscore.DEInternal.Weighted>
2.6131

> <Gold.Chemscore.Rot.Weighted>
3.7985

> <Gold.Chemscore.Internal.Correction.Weighted>
   9.000000E+99

> <Gold.Protein.RotatedTorsions>
[ 6907 6896 6895 6894 ] final   -0.66 input  -60.11 | X-H torsion
[ 7974 7965 7964 7962 ] final  -84.32 input  175.53 | X-H torsion
[ 8008 7997 7996 7995 ] final -160.00 input   59.86 | X-H torsion
[ 10167 10162 10161 10158 ] final   17.32 input  -65.29 | X-H torsion
[ 10718 10713 10712 10709 ] final -176.17 input   66.30 | X-H torsion
[ 10763 10752 10751 10750 ] final   76.64 input  -60.55 | X-H torsion
[ 11005 11000 10999 10996 ] final -145.65 input  -57.11 | X-H torsion

> <Gold.Protein.ActiveResidues>
 VAL166  LYS551  ARG553  GLY616  TRP617  ASP618  TYR619  PRO620  LYS621  CYS622 
 ASP623  PHE694  ASN695  SER759  ASP760  ASP761  ALA762  ILE779  LEU786  VAL792 
 PHE793  MET794  SER795  GLU796  ALA797  LYS798  CYS799  TRP800  GLU811  SER814 

> <Gold.Protein.RotatedAtoms>
  151.5586  135.1066  159.9966 H   0  0  0  0  0  0  0  0  0  0  0  0  # atno 6907 bound_to 6896
  152.4457  133.7528  159.6714 H   0  0  0  0  0  0  0  0  0  0  0  0  # atno 6908 bound_to 6896
  150.8372  133.7926  159.3099 H   0  0  0  0  0  0  0  0  0  0  0  0  # atno 6909 bound_to 6896
  145.5081  140.9542  143.1722 H   0  0  0  0  0  0  0  0  0  0  0  0  # atno 7974 bound_to 7965
  155.7709  140.0852  157.2108 H   0  0  0  0  0  0  0  0  0  0  0  0  # atno 8008 bound_to 7997
  154.3996  140.1525  156.2998 H   0  0  0  0  0  0  0  0  0  0  0  0  # atno 8009 bound_to 7997
  155.8748  140.3423  155.5849 H   0  0  0  0  0  0  0  0  0  0  0  0  # atno 8010 bound_to 7997
  140.5734  143.9117  150.6731 H   0  0  0  0  0  0  0  0  0  0  0  0  # atno 10167 bound_to 10162
  156.8108  130.9585  151.3116 H   0  0  0  0  0  0  0  0  0  0  0  0  # atno 10718 bound_to 10713
  153.0740  135.4944  154.8365 H   0  0  0  0  0  0  0  0  0  0  0  0  # atno 10763 bound_to 10752
  154.7062  135.3011  154.9270 H   0  0  0  0  0  0  0  0  0  0  0  0  # atno 10764 bound_to 10752
  153.9978  135.6770  153.4810 H   0  0  0  0  0  0  0  0  0  0  0  0  # atno 10765 bound_to 10752
  140.7901  134.2978  157.5016 H   0  0  0  0  0  0  0  0  0  0  0  0  # atno 11005 bound_to 11000
  144.7742  139.6666  143.7182 LP  0  0  0  0  0  0  0  0  0  0  0  0  # atno 17320 bound_to 7965
  146.2184  139.5590  142.9635 LP  0  0  0  0  0  0  0  0  0  0  0  0  # atno 17321 bound_to 7965
  140.2599  143.3532  152.1332 LP  0  0  0  0  0  0  0  0  0  0  0  0  # atno 17342 bound_to 10162
  139.5130  144.6925  151.5720 LP  0  0  0  0  0  0  0  0  0  0  0  0  # atno 17343 bound_to 10162
  157.6507  130.8882  149.9627 LP  0  0  0  0  0  0  0  0  0  0  0  0  # atno 17370 bound_to 10713
  156.1046  130.3653  150.0157 LP  0  0  0  0  0  0  0  0  0  0  0  0  # atno 17371 bound_to 10713
  139.8732  134.9369  156.3674 LP  0  0  0  0  0  0  0  0  0  0  0  0  # atno 17394 bound_to 11000
  140.9398  133.7522  156.0132 LP  0  0  0  0  0  0  0  0  0  0  0  0  # atno 17395 bound_to 11000

$$$$
