AV-unprocessed.smi:2473|AV-procd|sdf|9748|dock3
  -GOLD-   2272013393D 1   1.00000     0.00000
 Structure written by MMmdl.
 47 48  0  0  0  0  0  0  0  0  1 V2000
  153.9155  141.2970  160.8274 C   0  0  0  0  0  0  0  0  0  0  0  0
  153.3027  142.0056  159.6108 C   0  0  1  0  0  0  0  0  0  0  0  0
  152.4448  141.0398  158.7733 C   0  0  0  0  0  0  0  0  0  0  0  0
  151.8409  141.7482  157.5456 C   0  0  1  0  0  0  0  0  0  0  0  0
  150.9769  140.7889  156.7171 C   0  0  0  0  0  0  0  0  0  0  0  0
  151.2233  140.6046  155.5249 O   0  0  0  0  0  0  0  0  0  0  0  0
  149.9905  140.1573  157.3738 N   0  0  0  0  0  0  0  0  0  0  0  0
  149.1582  139.0869  156.8304 C   0  0  0  0  0  0  0  0  0  0  0  0
  147.7104  139.5523  156.5782 C   0  0  0  0  0  0  0  0  0  0  0  0
  147.5700  140.5148  155.4346 C   0  0  0  0  0  0  0  0  0  0  0  0
  148.0113  140.2610  154.2064 N   0  0  0  0  0  0  0  0  0  0  0  0
  147.6507  141.3776  153.4606 C   0  0  0  0  0  0  0  0  0  0  0  0
  147.0018  142.2771  154.2709 C   0  0  0  0  0  0  0  0  0  0  0  0
  146.9564  141.7114  155.5382 N   0  0  0  0  0  0  0  0  0  0  0  0
  146.3565  142.3138  156.7137 C   0  0  0  0  0  0  0  0  0  0  0  0
  151.0107  142.9738  157.9897 C   0  0  0  0  0  0  0  0  0  0  0  0
  151.8082  143.9819  158.8518 C   0  0  0  0  0  0  0  0  0  0  0  0
  152.8628  144.7234  158.0013 C   0  0  0  0  0  0  0  0  0  0  0  0
  150.8318  145.0358  159.4100 C   0  0  0  0  0  0  0  0  0  0  0  0
  152.4718  143.2349  160.0364 C   0  0  0  0  0  0  0  0  0  0  0  0
  153.1434  140.9164  161.4965 H   0  0  0  0  0  0  0  0  0  0  0  0
  154.5478  141.9765  161.3998 H   0  0  0  0  0  0  0  0  0  0  0  0
  154.5346  140.4539  160.5197 H   0  0  0  0  0  0  0  0  0  0  0  0
  154.1330  142.3451  158.9914 H   0  0  0  0  0  0  0  0  0  0  0  0
  153.0538  140.1942  158.4501 H   0  0  0  0  0  0  0  0  0  0  0  0
  151.6502  140.6263  159.3969 H   0  0  0  0  0  0  0  0  0  0  0  0
  152.6600  142.0887  156.9113 H   0  0  0  0  0  0  0  0  0  0  0  0
  149.8553  140.3841  158.3483 H   0  0  0  0  0  0  0  0  0  0  0  0
  149.6023  138.7493  155.8939 H   0  0  0  0  0  0  0  0  0  0  0  0
  149.1584  138.2212  157.4946 H   0  0  0  0  0  0  0  0  0  0  0  0
  147.0696  138.6870  156.4089 H   0  0  0  0  0  0  0  0  0  0  0  0
  147.3251  140.0333  157.4778 H   0  0  0  0  0  0  0  0  0  0  0  0
  147.8835  141.4469  152.4083 H   0  0  0  0  0  0  0  0  0  0  0  0
  146.5777  143.2466  154.0548 H   0  0  0  0  0  0  0  0  0  0  0  0
  145.8670  143.2509  156.4472 H   0  0  0  0  0  0  0  0  0  0  0  0
  147.1266  142.5170  157.4579 H   0  0  0  0  0  0  0  0  0  0  0  0
  145.6115  141.6418  157.1400 H   0  0  0  0  0  0  0  0  0  0  0  0
  150.6022  143.4826  157.1157 H   0  0  0  0  0  0  0  0  0  0  0  0
  150.1466  142.6281  158.5601 H   0  0  0  0  0  0  0  0  0  0  0  0
  153.4071  145.4546  158.5999 H   0  0  0  0  0  0  0  0  0  0  0  0
  152.3946  145.2619  157.1766 H   0  0  0  0  0  0  0  0  0  0  0  0
  153.6019  144.0523  157.5668 H   0  0  0  0  0  0  0  0  0  0  0  0
  151.3492  145.7680  160.0309 H   0  0  0  0  0  0  0  0  0  0  0  0
  150.0554  144.5782  160.0242 H   0  0  0  0  0  0  0  0  0  0  0  0
  150.3331  145.5795  158.6067 H   0  0  0  0  0  0  0  0  0  0  0  0
  151.6960  142.9026  160.7281 H   0  0  0  0  0  0  0  0  0  0  0  0
  153.0986  143.9249  160.6028 H   0  0  0  0  0  0  0  0  0  0  0  0
  1  2  1  0  0  0  0
  1 21  1  0  0  0  0
  1 22  1  0  0  0  0
  1 23  1  0  0  0  0
  2 20  1  0  0  0  0
  2  3  1  0  0  0  0
  2 24  1  0  0  0  0
  3  4  1  0  0  0  0
  3 25  1  0  0  0  0
  3 26  1  0  0  0  0
  4  5  1  0  0  0  0
  4 16  1  0  0  0  0
  4 27  1  0  0  0  0
  5  6  2  0  0  0  0
  5  7  1  0  0  0  0
  7  8  1  0  0  0  0
  7 28  1  0  0  0  0
  8  9  1  0  0  0  0
  8 29  1  0  0  0  0
  8 30  1  0  0  0  0
  9 10  1  0  0  0  0
  9 31  1  0  0  0  0
  9 32  1  0  0  0  0
 10 14  1  0  0  0  0
 10 11  2  0  0  0  0
 11 12  1  0  0  0  0
 12 13  2  0  0  0  0
 12 33  1  0  0  0  0
 13 14  1  0  0  0  0
 13 34  1  0  0  0  0
 14 15  1  0  0  0  0
 15 35  1  0  0  0  0
 15 36  1  0  0  0  0
 15 37  1  0  0  0  0
 16 17  1  0  0  0  0
 16 38  1  0  0  0  0
 16 39  1  0  0  0  0
 17 18  1  0  0  0  0
 17 19  1  0  0  0  0
 17 20  1  0  0  0  0
 18 40  1  0  0  0  0
 18 41  1  0  0  0  0
 18 42  1  0  0  0  0
 19 43  1  0  0  0  0
 19 44  1  0  0  0  0
 19 45  1  0  0  0  0
 20 46  1  0  0  0  0
 20 47  1  0  0  0  0
M  END
> <s_m_source_file>
AV-unprocessed.smi

> <i_m_source_file_index>
2473

> <i_lp_mmshare_version>
43012

> <i_f3d_flags>
0

> <s_epik_input>
W0NIM11bQ0BASF0oW0NIMl0xKVtDSDJdW0NASF0oW0NIMl1DMShbQ0gzXSlbQ0gzXSlDKD1PKVtOSF1bQ0gyXVtDSDJdYzJuW2NIXVtjSF1uMltDSDNd

> <s_epik_cmdline>
J2VwaWtfcHl0aG9uJywgJy1waCcsICc3LjAnLCAnLXRuJywgJzgnLCAnLW1hJywgJzIwMCcsICctbWV0YWxfYmluZGluZycsICctaW1hZScsICc8aW5maWxlLm1hZT4nLCAnLW9tYWUnLCAnPG91dGZpbGUubWFlPic=

> <r_lp_tautomer_probability>
1

> <r_epik_Ionization_Penalty>
1.22858

> <r_epik_Ionization_Penalty_Charging>
1.22858

> <r_epik_Ionization_Penalty_Neutral>
2.12671e-08

> <r_epik_State_Penalty>
1.2965

> <r_epik_Charging_Adjusted_Penalty>
2.52508

> <i_epik_Tot_Q>
0

> <i_epik_Tot_abs_Q>
0

> <r_epik_Metal_State_Penalty>
0.411461

> <b_epik_Metal_Only>
0

> <s_lp_Force_Field>
OPLS_2005

> <r_lp_Energy>
12.6142

> <b_lp_Chiralities_Consistent>
1

> <s_lp_Variant>
AV-unprocessed.smi:2473-6

> <Gold.Version>
5.8.1

> <Gold.Id.Protein>
6NUR|6NUR_protein|mol2

> <Gold.PLP.Fitness>
46.0636

> <Gold.PLP.PLP>
-41.2980

> <Gold.PLP.part.hbond>
-1.0000

> <Gold.PLP.part.metal>
0.0000

> <Gold.PLP.part.buried>
-6.5873

> <Gold.PLP.part.nonpolar>
-33.7295

> <Gold.PLP.part.repulsive>
0.2022

> <Gold.PLP.ligand.clash>
0.0000

> <Gold.PLP.ligand.torsion>
0.1845

> <Gold.PLP.Chemscore.Hbond>
0.7579

> <Gold.PLP.Chemscore.CHOScore>
0.9433

> <Gold.PLP.Chemscore.Metal>
0.0000

> <Gold.Chemscore.Hbonds>
donor molecule, donor type, donor heavy atom, donor atom, acceptor molecule, acceptor atom, score
      P1  H  7989  7998       L1     6  0.76
      L1  C    12    33       P1  7957  0.94

> <Gold.PLP.Chemscore.Internal.Correction>
0.0310

> <Gold.Rescore>
     Score         DG    S(hbond)    S(metal)    S(lipo)     H(rot)  DE(clash)    DE(int)     intcor
     17.17     -17.76       0.73        0.00     117.28       1.51       0.39       0.20       ----

> <Gold.Chemscore.Fitness>
17.1691

> <Gold.Chemscore.DG>
-17.7589

> <Gold.Chemscore.ZeroCoef>
-5.4800

> <Gold.Chemscore.Hbond>
0.7260

> <Gold.Chemscore.Metal>
0.0000

> <Gold.Chemscore.Lipo>
117.2826

> <Gold.Chemscore.Internal_Hbond>
0.0000

> <Gold.Chemscore.DEClash>
0.3862

> <Gold.Chemscore.DEInternal>
0.2036

> <Gold.Chemscore.Rot>
1.5109

> <Gold.Chemscore.Internal.Correction>
   9.000000E+99

> <Gold.Chemscore.Hbonds>
donor molecule, donor type, donor heavy atom, donor atom, acceptor molecule, acceptor atom, score
      P1  H  7989  7998       L1     6  0.71

> <Gold.Chemscore.Hbond.Weighted>
-2.4249

> <Gold.Chemscore.Metal.Weighted>
-0.0000

> <Gold.Chemscore.Lipo.Weighted>
-13.7221

> <Gold.Chemscore.Internal_Hbond.Weighted>
0.0000

> <Gold.Chemscore.DEClash.Weighted>
0.3862

> <Gold.Chemscore.DEInternal.Weighted>
0.2036

> <Gold.Chemscore.Rot.Weighted>
3.8680

> <Gold.Chemscore.Internal.Correction.Weighted>
   9.000000E+99

> <Gold.Protein.RotatedTorsions>
[ 6907 6896 6895 6894 ] final  -16.44 input  -60.11 | X-H torsion
[ 7974 7965 7964 7962 ] final  113.56 input  175.53 | X-H torsion
[ 8008 7997 7996 7995 ] final  -83.23 input   59.86 | X-H torsion
[ 10167 10162 10161 10158 ] final  -54.84 input  -65.29 | X-H torsion
[ 10718 10713 10712 10709 ] final  153.58 input   66.30 | X-H torsion
[ 10763 10752 10751 10750 ] final   13.81 input  -60.55 | X-H torsion
[ 11005 11000 10999 10996 ] final  -50.44 input  -57.11 | X-H torsion

> <Gold.Protein.ActiveResidues>
 VAL166  LYS551  ARG553  GLY616  TRP617  ASP618  TYR619  PRO620  LYS621  CYS622 
 ASP623  PHE694  ASN695  SER759  ASP760  ASP761  ALA762  ILE779  LEU786  VAL792 
 PHE793  MET794  SER795  GLU796  ALA797  LYS798  CYS799  TRP800  GLU811  SER814 

> <Gold.Protein.RotatedAtoms>
  151.3085  135.0788  159.9263 H   0  0  0  0  0  0  0  0  0  0  0  0  # atno 6907 bound_to 6896
  152.5283  133.9760  159.7794 H   0  0  0  0  0  0  0  0  0  0  0  0  # atno 6908 bound_to 6896
  151.0059  133.5959  159.2719 H   0  0  0  0  0  0  0  0  0  0  0  0  # atno 6909 bound_to 6896
  145.2155  139.2886  143.4246 H   0  0  0  0  0  0  0  0  0  0  0  0  # atno 7974 bound_to 7965
  154.6169  140.0622  156.9566 H   0  0  0  0  0  0  0  0  0  0  0  0  # atno 8008 bound_to 7997
  155.1880  140.3305  155.4345 H   0  0  0  0  0  0  0  0  0  0  0  0  # atno 8009 bound_to 7997
  156.2409  140.1886  156.6972 H   0  0  0  0  0  0  0  0  0  0  0  0  # atno 8010 bound_to 7997
  140.6408  143.2507  151.4994 H   0  0  0  0  0  0  0  0  0  0  0  0  # atno 10167 bound_to 10162
  157.2429  131.0763  151.1781 H   0  0  0  0  0  0  0  0  0  0  0  0  # atno 10718 bound_to 10713
  153.1683  135.6808  153.8643 H   0  0  0  0  0  0  0  0  0  0  0  0  # atno 10763 bound_to 10752
  153.8015  135.3155  155.3392 H   0  0  0  0  0  0  0  0  0  0  0  0  # atno 10764 bound_to 10752
  154.7981  135.4795  154.0300 H   0  0  0  0  0  0  0  0  0  0  0  0  # atno 10765 bound_to 10752
  141.0816  133.6652  156.3731 H   0  0  0  0  0  0  0  0  0  0  0  0  # atno 11005 bound_to 11000
  146.3388  140.2444  142.8596 LP  0  0  0  0  0  0  0  0  0  0  0  0  # atno 17320 bound_to 7965
  144.9815  140.8464  143.5394 LP  0  0  0  0  0  0  0  0  0  0  0  0  # atno 17321 bound_to 7965
  139.5617  144.2139  152.1702 LP  0  0  0  0  0  0  0  0  0  0  0  0  # atno 17342 bound_to 10162
  140.1409  144.5203  150.6744 LP  0  0  0  0  0  0  0  0  0  0  0  0  # atno 17343 bound_to 10162
  157.3360  130.7009  149.6353 LP  0  0  0  0  0  0  0  0  0  0  0  0  # atno 17370 bound_to 10713
  155.9669  130.4293  150.4829 LP  0  0  0  0  0  0  0  0  0  0  0  0  # atno 17371 bound_to 10713
  140.5456  134.6078  157.5393 LP  0  0  0  0  0  0  0  0  0  0  0  0  # atno 17394 bound_to 11000
  139.9630  134.7420  156.0196 LP  0  0  0  0  0  0  0  0  0  0  0  0  # atno 17395 bound_to 11000

$$$$
