AV-unprocessed.smi:1820|AV-procd|sdf|7384|dock7
  -GOLD-   22720 9 53D 1   1.00000     0.00000
 Structure written by MMmdl.
 34 35  0  0  0  0  0  0  0  0  1 V2000
  144.8073  137.2229  151.7029 O   0  0  0  0  0  0  0  0  0  0  0  0
  146.0008  136.9229  151.7172 C   0  0  0  0  0  0  0  0  0  0  0  0
  146.9822  137.8049  151.9530 N   0  0  0  0  0  0  0  0  0  0  0  0
  146.7884  139.2206  152.2554 C   0  0  0  0  0  0  0  0  0  0  0  0
  146.7932  139.5244  153.7761 C   0  0  0  0  0  0  0  0  0  0  0  0
  145.5406  139.1420  154.3103 O   0  0  0  0  0  0  0  0  0  0  0  0
  147.9531  138.8875  154.5584 C   0  0  0  0  0  0  0  0  0  0  0  0
  149.1378  139.8348  154.3439 C   0  0  0  0  0  0  0  0  0  0  0  0
  148.5286  141.2204  154.0775 C   0  0  0  0  0  0  0  0  0  0  0  0
  147.0067  141.0221  154.0405 C   0  0  0  0  0  0  0  0  0  0  0  0
  146.5003  135.6960  151.4870 N   0  0  0  0  0  0  0  0  0  0  0  0
  145.8070  134.4883  151.2001 C   0  0  0  0  0  0  0  0  0  0  0  0
  146.5740  133.3141  151.0504 C   0  0  0  0  0  0  0  0  0  0  0  0
  145.9127  132.0999  150.7789 C   0  0  0  0  0  0  0  0  0  0  0  0
  144.5725  131.9955  150.6609 N   0  0  0  0  0  0  0  0  0  0  0  0
  143.8384  133.1171  150.8180 C   0  0  0  0  0  0  0  0  0  0  0  0
  144.3993  134.3806  151.0922 C   0  0  0  0  0  0  0  0  0  0  0  0
  147.9345  137.4709  151.9411 H   0  0  0  0  0  0  0  0  0  0  0  0
  147.6124  139.7475  151.7735 H   0  0  0  0  0  0  0  0  0  0  0  0
  145.8815  139.6052  151.7853 H   0  0  0  0  0  0  0  0  0  0  0  0
  144.8598  139.4474  153.7307 H   0  0  0  0  0  0  0  0  0  0  0  0
  147.7107  138.8733  155.6225 H   0  0  0  0  0  0  0  0  0  0  0  0
  148.1771  137.8595  154.2740 H   0  0  0  0  0  0  0  0  0  0  0  0
  149.8116  139.8381  155.2013 H   0  0  0  0  0  0  0  0  0  0  0  0
  149.7160  139.5154  153.4759 H   0  0  0  0  0  0  0  0  0  0  0  0
  148.8114  141.9415  154.8450 H   0  0  0  0  0  0  0  0  0  0  0  0
  148.8862  141.6057  153.1218 H   0  0  0  0  0  0  0  0  0  0  0  0
  146.5175  141.6604  153.3036 H   0  0  0  0  0  0  0  0  0  0  0  0
  146.5994  141.2903  155.0172 H   0  0  0  0  0  0  0  0  0  0  0  0
  147.5069  135.6282  151.4645 H   0  0  0  0  0  0  0  0  0  0  0  0
  147.6504  133.3388  151.1365 H   0  0  0  0  0  0  0  0  0  0  0  0
  146.4768  131.1874  150.6547 H   0  0  0  0  0  0  0  0  0  0  0  0
  142.7682  133.0037  150.7282 H   0  0  0  0  0  0  0  0  0  0  0  0
  143.7426  135.2266  151.2233 H   0  0  0  0  0  0  0  0  0  0  0  0
  1  2  2  0  0  0  0
  2  3  1  0  0  0  0
  2 11  1  0  0  0  0
  3  4  1  0  0  0  0
  3 18  1  0  0  0  0
  4  5  1  0  0  0  0
  4 19  1  0  0  0  0
  4 20  1  0  0  0  0
  5 10  1  0  0  0  0
  5  6  1  0  0  0  0
  5  7  1  0  0  0  0
  6 21  1  0  0  0  0
  7  8  1  0  0  0  0
  7 22  1  0  0  0  0
  7 23  1  0  0  0  0
  8  9  1  0  0  0  0
  8 24  1  0  0  0  0
  8 25  1  0  0  0  0
  9 10  1  0  0  0  0
  9 26  1  0  0  0  0
  9 27  1  0  0  0  0
 10 28  1  0  0  0  0
 10 29  1  0  0  0  0
 11 12  1  0  0  0  0
 11 30  1  0  0  0  0
 12 17  1  0  0  0  0
 12 13  2  0  0  0  0
 13 14  1  0  0  0  0
 13 31  1  0  0  0  0
 14 15  2  0  0  0  0
 14 32  1  0  0  0  0
 15 16  1  0  0  0  0
 16 17  2  0  0  0  0
 16 33  1  0  0  0  0
 17 34  1  0  0  0  0
M  END
> <s_m_source_file>
AV-unprocessed.smi

> <i_m_source_file_index>
1820

> <i_lp_mmshare_version>
43012

> <i_f3d_flags>
0

> <s_epik_input>
W2NIXTFbY0hdbltjSF1bY0hdYzFbTkhdQyg9TylbTkhdW0NIMl1DMihbT0hdKVtDSDJdW0NIMl1bQ0gyXVtDSDJdMg==

> <s_epik_cmdline>
J2VwaWtfcHl0aG9uJywgJy1waCcsICc3LjAnLCAnLXRuJywgJzgnLCAnLW1hJywgJzIwMCcsICctbWV0YWxfYmluZGluZycsICctaW1hZScsICc8aW5maWxlLm1hZT4nLCAnLW9tYWUnLCAnPG91dGZpbGUubWFlPic=

> <r_epik_Ionization_Penalty>
0.127626

> <r_epik_Ionization_Penalty_Charging>
0

> <r_epik_Ionization_Penalty_Neutral>
0.127626

> <r_epik_State_Penalty>
0.11702

> <r_epik_Charging_Adjusted_Penalty>
0.11702

> <i_epik_Tot_Q>
0

> <i_epik_Tot_abs_Q>
0

> <r_epik_Metal_State_Penalty>
0.0961027

> <b_epik_Metal_Only>
0

> <s_lp_Force_Field>
OPLS_2005

> <r_lp_Energy>
30.5055

> <b_lp_Chiralities_Consistent>
1

> <s_lp_Variant>
AV-unprocessed.smi:1820-1

> <Gold.Version>
5.8.1

> <Gold.Id.Protein>
6NUR|6NUR_protein|mol2

> <Gold.PLP.Fitness>
41.7437

> <Gold.PLP.PLP>
-27.5508

> <Gold.PLP.part.hbond>
-2.7913

> <Gold.PLP.part.metal>
0.0000

> <Gold.PLP.part.buried>
-2.9487

> <Gold.PLP.part.nonpolar>
-26.0482

> <Gold.PLP.part.repulsive>
4.3646

> <Gold.PLP.ligand.clash>
0.0000

> <Gold.PLP.ligand.torsion>
0.3509

> <Gold.PLP.Chemscore.Hbond>
2.9920

> <Gold.PLP.Chemscore.CHOScore>
1.9697

> <Gold.PLP.Chemscore.Metal>
0.0000

> <Gold.Chemscore.Hbonds>
donor molecule, donor type, donor heavy atom, donor atom, acceptor molecule, acceptor atom, score
      L1  H     3    18       P1  7948  0.99
      L1  H     6    21       P1 10175  1.00
      L1  H    11    30       P1  7948  1.00
      L1  C    14    32       P1 10747  0.97
      L1  C    16    33       P1 10186  0.96

> <Gold.PLP.Chemscore.Internal.Correction>
0.0096

> <Gold.Rescore>
     Score         DG    S(hbond)    S(metal)    S(lipo)     H(rot)  DE(clash)    DE(int)     intcor
     16.15     -19.26       2.92        0.00      72.76       1.76       1.59       1.52       ----

> <Gold.Chemscore.Fitness>
16.1523

> <Gold.Chemscore.DG>
-19.2588

> <Gold.Chemscore.ZeroCoef>
-5.4800

> <Gold.Chemscore.Hbond>
2.9226

> <Gold.Chemscore.Metal>
0.0000

> <Gold.Chemscore.Lipo>
72.7649

> <Gold.Chemscore.Internal_Hbond>
0.0000

> <Gold.Chemscore.DEClash>
1.5870

> <Gold.Chemscore.DEInternal>
1.5194

> <Gold.Chemscore.Rot>
1.7564

> <Gold.Chemscore.Internal.Correction>
   9.000000E+99

> <Gold.Chemscore.Hbonds>
donor molecule, donor type, donor heavy atom, donor atom, acceptor molecule, acceptor atom, score
      L1  H     3    18       P1  7948  0.91
      L1  H     6    21       P1 10175  0.96
      L1  H    11    30       P1  7948  0.88

> <Gold.Chemscore.Hbond.Weighted>
-9.7616

> <Gold.Chemscore.Metal.Weighted>
-0.0000

> <Gold.Chemscore.Lipo.Weighted>
-8.5135

> <Gold.Chemscore.Internal_Hbond.Weighted>
0.0000

> <Gold.Chemscore.DEClash.Weighted>
1.5870

> <Gold.Chemscore.DEInternal.Weighted>
1.5194

> <Gold.Chemscore.Rot.Weighted>
4.4963

> <Gold.Chemscore.Internal.Correction.Weighted>
   9.000000E+99

> <Gold.Protein.RotatedTorsions>
[ 6907 6896 6895 6894 ] final  -53.17 input  -60.11 | X-H torsion
[ 7974 7965 7964 7962 ] final   93.86 input  175.53 | X-H torsion
[ 8008 7997 7996 7995 ] final  -59.73 input   59.86 | X-H torsion
[ 10167 10162 10161 10158 ] final   74.96 input  -65.29 | X-H torsion
[ 10718 10713 10712 10709 ] final  148.54 input   66.30 | X-H torsion
[ 10763 10752 10751 10750 ] final  -55.62 input  -60.55 | X-H torsion
[ 11005 11000 10999 10996 ] final   -4.47 input  -57.11 | X-H torsion

> <Gold.Protein.ActiveResidues>
 VAL166  LYS551  ARG553  GLY616  TRP617  ASP618  TYR619  PRO620  LYS621  CYS622 
 ASP623  PHE694  ASN695  SER759  ASP760  ASP761  ALA762  ILE779  LEU786  VAL792 
 PHE793  MET794  SER795  GLU796  ALA797  LYS798  CYS799  TRP800  GLU811  SER814 

> <Gold.Protein.RotatedAtoms>
  150.8451  134.7756  159.6963 H   0  0  0  0  0  0  0  0  0  0  0  0  # atno 6907 bound_to 6896
  152.4529  134.5351  159.9832 H   0  0  0  0  0  0  0  0  0  0  0  0  # atno 6908 bound_to 6896
  151.5483  133.3383  159.2984 H   0  0  0  0  0  0  0  0  0  0  0  0  # atno 6909 bound_to 6896
  145.4732  139.2281  143.2923 H   0  0  0  0  0  0  0  0  0  0  0  0  # atno 7974 bound_to 7965
  154.4366  140.1055  156.6162 H   0  0  0  0  0  0  0  0  0  0  0  0  # atno 8008 bound_to 7997
  155.5757  140.3490  155.4508 H   0  0  0  0  0  0  0  0  0  0  0  0  # atno 8009 bound_to 7997
  156.0356  140.1270  157.0200 H   0  0  0  0  0  0  0  0  0  0  0  0  # atno 8010 bound_to 7997
  140.0081  144.5635  150.7681 H   0  0  0  0  0  0  0  0  0  0  0  0  # atno 10167 bound_to 10162
  157.3073  131.0881  151.1344 H   0  0  0  0  0  0  0  0  0  0  0  0  # atno 10718 bound_to 10713
  154.1937  135.6423  153.5067 H   0  0  0  0  0  0  0  0  0  0  0  0  # atno 10763 bound_to 10752
  153.0029  135.5434  154.6388 H   0  0  0  0  0  0  0  0  0  0  0  0  # atno 10764 bound_to 10752
  154.5784  135.2923  155.0731 H   0  0  0  0  0  0  0  0  0  0  0  0  # atno 10765 bound_to 10752
  140.6806  133.9157  155.8553 H   0  0  0  0  0  0  0  0  0  0  0  0  # atno 11005 bound_to 11000
  146.2384  140.5512  142.8944 LP  0  0  0  0  0  0  0  0  0  0  0  0  # atno 17320 bound_to 7965
  144.7933  140.6073  143.6527 LP  0  0  0  0  0  0  0  0  0  0  0  0  # atno 17321 bound_to 7965
  140.7392  143.2788  151.3660 LP  0  0  0  0  0  0  0  0  0  0  0  0  # atno 17342 bound_to 10162
  139.6224  144.0881  152.2403 LP  0  0  0  0  0  0  0  0  0  0  0  0  # atno 17343 bound_to 10162
  157.2679  130.6690  149.6005 LP  0  0  0  0  0  0  0  0  0  0  0  0  # atno 17370 bound_to 10713
  155.9675  130.4488  150.5634 LP  0  0  0  0  0  0  0  0  0  0  0  0  # atno 17371 bound_to 10713
  141.0320  134.0742  157.4003 LP  0  0  0  0  0  0  0  0  0  0  0  0  # atno 17394 bound_to 11000
  139.8953  135.0140  156.6994 LP  0  0  0  0  0  0  0  0  0  0  0  0  # atno 17395 bound_to 11000

$$$$
