AV-unprocessed.smi:1905|AV-procd|sdf|7725|dock2
  -GOLD-   22720 9463D 1   1.00000     0.00000
 Structure written by MMmdl.
 38 39  0  0  0  0  0  0  0  0  1 V2000
  151.7379  138.4545  155.9127 C   0  0  0  0  0  0  0  0  0  0  0  0
  151.7094  138.2308  154.3990 C   0  0  0  0  0  0  0  0  0  0  0  0
  150.3523  138.2076  153.9678 O   0  0  0  0  0  0  0  0  0  0  0  0
  149.5744  139.3342  154.1580 C   0  0  0  0  0  0  0  0  0  0  0  0
  150.1412  140.4174  154.7461 N   0  0  0  0  0  0  0  0  0  0  0  0
  149.3843  141.5181  154.9301 C   0  0  0  0  0  0  0  0  0  0  0  0
  148.0367  141.6001  154.5357 C   0  0  0  0  0  0  0  0  0  0  0  0
  147.4468  140.4785  153.9242 C   0  0  0  0  0  0  0  0  0  0  0  0
  148.2247  139.3098  153.7344 C   0  0  0  0  0  0  0  0  0  0  0  0
  147.7453  138.1199  153.1172 N   0  0  0  0  0  0  0  0  0  0  0  0
  146.5006  137.6139  153.0889 C   0  0  0  0  0  0  0  0  0  0  0  0
  145.5145  138.1023  153.6396 O   0  0  0  0  0  0  0  0  0  0  0  0
  146.4618  136.4761  152.3814 N   0  0  0  0  0  0  0  0  0  0  0  0
  145.2664  135.6731  152.1456 C   0  0  0  0  0  0  0  0  0  0  0  0
  145.4460  134.6869  150.9753 C   0  0  2  0  0  0  0  0  0  0  0  0
  144.2278  133.8233  150.6697 C   0  0  0  0  0  0  0  0  0  0  0  0
  144.8188  132.4757  150.2400 C   0  0  0  0  0  0  0  0  0  0  0  0
  146.2297  132.6521  150.2469 O   0  0  0  0  0  0  0  0  0  0  0  0
  146.5355  133.6454  151.2099 C   0  0  0  0  0  0  0  0  0  0  0  0
  152.7626  138.4715  156.2839 H   0  0  0  0  0  0  0  0  0  0  0  0
  151.2049  137.6605  156.4363 H   0  0  0  0  0  0  0  0  0  0  0  0
  151.2708  139.4037  156.1765 H   0  0  0  0  0  0  0  0  0  0  0  0
  152.2560  139.0333  153.9013 H   0  0  0  0  0  0  0  0  0  0  0  0
  152.2006  137.2863  154.1587 H   0  0  0  0  0  0  0  0  0  0  0  0
  149.8693  142.3605  155.4012 H   0  0  0  0  0  0  0  0  0  0  0  0
  147.4690  142.5048  154.6943 H   0  0  0  0  0  0  0  0  0  0  0  0
  146.4189  140.5492  153.6068 H   0  0  0  0  0  0  0  0  0  0  0  0
  148.4549  137.5628  152.6638 H   0  0  0  0  0  0  0  0  0  0  0  0
  147.3207  136.1445  151.9673 H   0  0  0  0  0  0  0  0  0  0  0  0
  144.9976  135.1343  153.0557 H   0  0  0  0  0  0  0  0  0  0  0  0
  144.4408  136.3541  151.9371 H   0  0  0  0  0  0  0  0  0  0  0  0
  145.7073  135.2392  150.0711 H   0  0  0  0  0  0  0  0  0  0  0  0
  143.6005  133.6893  151.5518 H   0  0  0  0  0  0  0  0  0  0  0  0
  143.6121  134.2694  149.8879 H   0  0  0  0  0  0  0  0  0  0  0  0
  144.5489  131.6950  150.9523 H   0  0  0  0  0  0  0  0  0  0  0  0
  144.4759  132.1668  149.2524 H   0  0  0  0  0  0  0  0  0  0  0  0
  147.5396  134.0461  151.0699 H   0  0  0  0  0  0  0  0  0  0  0  0
  146.4692  133.2166  152.2113 H   0  0  0  0  0  0  0  0  0  0  0  0
  1  2  1  0  0  0  0
  1 20  1  0  0  0  0
  1 21  1  0  0  0  0
  1 22  1  0  0  0  0
  2  3  1  0  0  0  0
  2 23  1  0  0  0  0
  2 24  1  0  0  0  0
  3  4  1  0  0  0  0
  4  9  1  0  0  0  0
  4  5  2  0  0  0  0
  5  6  1  0  0  0  0
  6  7  2  0  0  0  0
  6 25  1  0  0  0  0
  7  8  1  0  0  0  0
  7 26  1  0  0  0  0
  8  9  2  0  0  0  0
  8 27  1  0  0  0  0
  9 10  1  0  0  0  0
 10 11  1  0  0  0  0
 10 28  1  0  0  0  0
 11 12  2  0  0  0  0
 11 13  1  0  0  0  0
 13 14  1  0  0  0  0
 13 29  1  0  0  0  0
 14 15  1  0  0  0  0
 14 30  1  0  0  0  0
 14 31  1  0  0  0  0
 15 19  1  0  0  0  0
 15 16  1  0  0  0  0
 15 32  1  0  0  0  0
 16 17  1  0  0  0  0
 16 33  1  0  0  0  0
 16 34  1  0  0  0  0
 17 18  1  0  0  0  0
 17 35  1  0  0  0  0
 17 36  1  0  0  0  0
 18 19  1  0  0  0  0
 19 37  1  0  0  0  0
 19 38  1  0  0  0  0
M  END
> <s_m_source_file>
AV-unprocessed.smi

> <i_m_source_file_index>
1905

> <i_lp_mmshare_version>
43012

> <i_f3d_flags>
0

> <s_epik_input>
W0NIM11bQ0gyXU9jMW5bY0hdW2NIXVtjSF1jMVtOSF1DKD1PKVtOSF1bQ0gyXVtDQEBIXTJbQ0gyXVtDSDJdT1tDSDJdMg==

> <s_epik_cmdline>
J2VwaWtfcHl0aG9uJywgJy1waCcsICc3LjAnLCAnLXRuJywgJzgnLCAnLW1hJywgJzIwMCcsICctbWV0YWxfYmluZGluZycsICctaW1hZScsICc8aW5maWxlLm1hZT4nLCAnLW9tYWUnLCAnPG91dGZpbGUubWFlPic=

> <r_lp_tautomer_probability>
1

> <r_epik_Ionization_Penalty>
0.000115153

> <r_epik_Ionization_Penalty_Charging>
0

> <r_epik_Ionization_Penalty_Neutral>
0.000115153

> <r_epik_State_Penalty>
-0

> <r_epik_Charging_Adjusted_Penalty>
0

> <i_epik_Tot_Q>
0

> <i_epik_Tot_abs_Q>
0

> <r_epik_Metal_State_Penalty>
-0

> <b_epik_Metal_Only>
0

> <s_lp_Force_Field>
OPLS_2005

> <r_lp_Energy>
20.8795

> <b_lp_Chiralities_Consistent>
1

> <s_lp_Variant>
AV-unprocessed.smi:1905-1

> <Gold.Version>
5.8.1

> <Gold.Id.Protein>
6NUR|6NUR_protein|mol2

> <Gold.PLP.Fitness>
43.2122

> <Gold.PLP.PLP>
-32.1323

> <Gold.PLP.part.hbond>
-3.3615

> <Gold.PLP.part.metal>
0.0000

> <Gold.PLP.part.buried>
-2.6884

> <Gold.PLP.part.nonpolar>
-28.0050

> <Gold.PLP.part.repulsive>
0.9928

> <Gold.PLP.ligand.clash>
0.0000

> <Gold.PLP.ligand.torsion>
0.2972

> <Gold.PLP.Chemscore.Hbond>
2.9280

> <Gold.PLP.Chemscore.CHOScore>
0.9388

> <Gold.PLP.Chemscore.Metal>
0.0000

> <Gold.Chemscore.Hbonds>
donor molecule, donor type, donor heavy atom, donor atom, acceptor molecule, acceptor atom, score
      L1  H    10    28       P1  7948  1.00
      L1  H    13    29       P1  7948  1.00
      P1  H  7989  7998       L1     5  0.98
      L1  C     6    25       P1  8028  0.84

> <Gold.PLP.Chemscore.Internal.Correction>
0.0740

> <Gold.Rescore>
     Score         DG    S(hbond)    S(metal)    S(lipo)     H(rot)  DE(clash)    DE(int)     intcor
     16.04     -17.20       2.29        0.00      70.17       1.61       0.14       1.03       ----

> <Gold.Chemscore.Fitness>
16.0404

> <Gold.Chemscore.DG>
-17.2043

> <Gold.Chemscore.ZeroCoef>
-5.4800

> <Gold.Chemscore.Hbond>
2.2887

> <Gold.Chemscore.Metal>
0.0000

> <Gold.Chemscore.Lipo>
70.1673

> <Gold.Chemscore.Internal_Hbond>
0.0000

> <Gold.Chemscore.DEClash>
0.1377

> <Gold.Chemscore.DEInternal>
1.0262

> <Gold.Chemscore.Rot>
1.6131

> <Gold.Chemscore.Internal.Correction>
   9.000000E+99

> <Gold.Chemscore.Hbonds>
donor molecule, donor type, donor heavy atom, donor atom, acceptor molecule, acceptor atom, score
      L1  H    10    28       P1  7948  0.96
      L1  H    13    29       P1  7948  0.95
      P1  H  7989  7998       L1     5  0.23

> <Gold.Chemscore.Hbond.Weighted>
-7.6443

> <Gold.Chemscore.Metal.Weighted>
-0.0000

> <Gold.Chemscore.Lipo.Weighted>
-8.2096

> <Gold.Chemscore.Internal_Hbond.Weighted>
0.0000

> <Gold.Chemscore.DEClash.Weighted>
0.1377

> <Gold.Chemscore.DEInternal.Weighted>
1.0262

> <Gold.Chemscore.Rot.Weighted>
4.1296

> <Gold.Chemscore.Internal.Correction.Weighted>
   9.000000E+99

> <Gold.Protein.RotatedTorsions>
[ 6907 6896 6895 6894 ] final -169.12 input  -60.11 | X-H torsion
[ 7974 7965 7964 7962 ] final  -35.33 input  175.53 | X-H torsion
[ 8008 7997 7996 7995 ] final   11.17 input   59.86 | X-H torsion
[ 10167 10162 10161 10158 ] final  -52.79 input  -65.29 | X-H torsion
[ 10718 10713 10712 10709 ] final  -38.27 input   66.30 | X-H torsion
[ 10763 10752 10751 10750 ] final -108.41 input  -60.55 | X-H torsion
[ 11005 11000 10999 10996 ] final -102.72 input  -57.11 | X-H torsion

> <Gold.Protein.ActiveResidues>
 VAL166  LYS551  ARG553  GLY616  TRP617  ASP618  TYR619  PRO620  LYS621  CYS622 
 ASP623  PHE694  ASN695  SER759  ASP760  ASP761  ALA762  ILE779  LEU786  VAL792 
 PHE793  MET794  SER795  GLU796  ALA797  LYS798  CYS799  TRP800  GLU811  SER814 

> <Gold.Protein.RotatedAtoms>
  151.4865  133.3534  159.2846 H   0  0  0  0  0  0  0  0  0  0  0  0  # atno 6907 bound_to 6896
  150.8863  134.8263  159.7272 H   0  0  0  0  0  0  0  0  0  0  0  0  # atno 6908 bound_to 6896
  152.4795  134.4769  159.9705 H   0  0  0  0  0  0  0  0  0  0  0  0  # atno 6909 bound_to 6896
  146.0755  140.6147  142.8932 H   0  0  0  0  0  0  0  0  0  0  0  0  # atno 7974 bound_to 7965
  154.8033  140.2856  155.5905 H   0  0  0  0  0  0  0  0  0  0  0  0  # atno 8008 bound_to 7997
  156.2980  140.2582  156.2835 H   0  0  0  0  0  0  0  0  0  0  0  0  # atno 8009 bound_to 7997
  154.9532  140.0379  157.2144 H   0  0  0  0  0  0  0  0  0  0  0  0  # atno 8010 bound_to 7997
  140.6519  143.2572  151.4699 H   0  0  0  0  0  0  0  0  0  0  0  0  # atno 10167 bound_to 10162
  156.3057  130.4246  149.8100 H   0  0  0  0  0  0  0  0  0  0  0  0  # atno 10718 bound_to 10713
  154.8134  135.4639  154.0576 H   0  0  0  0  0  0  0  0  0  0  0  0  # atno 10763 bound_to 10752
  153.1989  135.6866  153.8263 H   0  0  0  0  0  0  0  0  0  0  0  0  # atno 10764 bound_to 10752
  153.7755  135.3264  155.3335 H   0  0  0  0  0  0  0  0  0  0  0  0  # atno 10765 bound_to 10752
  141.1177  133.8581  157.1396 H   0  0  0  0  0  0  0  0  0  0  0  0  # atno 11005 bound_to 11000
  144.7259  140.4522  143.6974 LP  0  0  0  0  0  0  0  0  0  0  0  0  # atno 17320 bound_to 7965
  145.6314  139.1537  143.2967 LP  0  0  0  0  0  0  0  0  0  0  0  0  # atno 17321 bound_to 7965
  139.5735  144.1873  152.1870 LP  0  0  0  0  0  0  0  0  0  0  0  0  # atno 17342 bound_to 10162
  140.1176  144.5402  150.6884 LP  0  0  0  0  0  0  0  0  0  0  0  0  # atno 17343 bound_to 10162
  156.5462  130.8321  151.3285 LP  0  0  0  0  0  0  0  0  0  0  0  0  # atno 17370 bound_to 10713
  157.7379  130.9803  150.2219 LP  0  0  0  0  0  0  0  0  0  0  0  0  # atno 17371 bound_to 10713
  140.0111  134.9988  157.0396 LP  0  0  0  0  0  0  0  0  0  0  0  0  # atno 17394 bound_to 11000
  140.4599  134.1495  155.7190 LP  0  0  0  0  0  0  0  0  0  0  0  0  # atno 17395 bound_to 11000

$$$$
