AV-unprocessed.smi:1385|AV-procd|sdf|5633|dock3
  -GOLD-   22720 5253D 1   1.00000     0.00000
 Structure written by MMmdl.
 38 39  0  0  0  0  0  0  0  0  3 V2000
  152.7760  140.3636  159.6325 C   0  0  0  0  0  0  0  0  0  0  0  0
  152.3096  140.0479  158.2528 C   0  0  0  0  0  0  0  0  0  0  0  0
  152.7671  139.0057  157.5546 N   0  0  0  0  0  0  0  0  0  0  0  0
  152.1811  138.9193  156.3003 N   0  0  0  0  0  0  0  0  0  0  0  0
  151.2831  139.8879  156.0717 C   0  0  0  0  0  0  0  0  0  0  0  0
  150.6067  139.9823  154.9147 N   0  5  0  0  0  0  0  0  0  0  0  0
  149.3975  140.5860  154.8868 C   0  0  0  0  0  0  0  0  0  0  0  0
  148.8479  141.1701  155.8233 O   0  0  0  0  0  0  0  0  0  0  0  0
  148.7854  140.5016  153.6973 N   0  0  0  0  0  0  0  0  0  0  0  0
  147.4665  141.0371  153.3616 C   0  0  2  0  0  0  0  0  0  0  0  0
  146.3986  140.6082  154.3877 C   0  0  0  0  0  0  0  0  0  0  0  0
  146.0974  139.1018  154.3040 C   0  0  0  0  0  0  0  0  0  0  0  0
  145.6850  138.7144  152.9283 N   0  3  2  0  0  0  0  0  0  0  0  0
  145.2542  137.2960  152.8273 C   0  0  0  0  0  0  0  0  0  0  0  0
  143.7980  137.0796  153.2523 C   0  0  0  0  0  0  0  0  0  0  0  0
  143.0669  138.1738  153.4772 N   0  0  0  0  0  0  0  0  0  0  0  0
  143.3419  135.9464  153.3939 O   0  0  0  0  0  0  0  0  0  0  0  0
  146.7229  139.0645  151.9252 C   0  0  0  0  0  0  0  0  0  0  0  0
  147.0457  140.5700  151.9578 C   0  0  0  0  0  0  0  0  0  0  0  0
  151.1079  141.0159  157.4158 S   0  0  0  0  0  0  0  0  0  0  0  0
  152.1396  139.8640  160.3628 H   0  0  0  0  0  0  0  0  0  0  0  0
  152.7342  141.4388  159.8070 H   0  0  0  0  0  0  0  0  0  0  0  0
  153.8038  140.0279  159.7732 H   0  0  0  0  0  0  0  0  0  0  0  0
  149.2834  140.0204  152.9629 H   0  0  0  0  0  0  0  0  0  0  0  0
  147.5353  142.1262  153.3525 H   0  0  0  0  0  0  0  0  0  0  0  0
  146.7093  140.8705  155.3998 H   0  0  0  0  0  0  0  0  0  0  0  0
  145.4797  141.1658  154.2024 H   0  0  0  0  0  0  0  0  0  0  0  0
  146.9743  138.5241  154.6009 H   0  0  0  0  0  0  0  0  0  0  0  0
  145.3075  138.8580  155.0145 H   0  0  0  0  0  0  0  0  0  0  0  0
  145.3266  136.9631  151.7911 H   0  0  0  0  0  0  0  0  0  0  0  0
  145.9237  136.6590  153.4079 H   0  0  0  0  0  0  0  0  0  0  0  0
  142.1002  138.0903  153.7576 H   0  0  0  0  0  0  0  0  0  0  0  0
  143.4842  139.0868  153.3635 H   0  0  0  0  0  0  0  0  0  0  0  0
  147.6230  138.4763  152.1110 H   0  0  0  0  0  0  0  0  0  0  0  0
  146.3734  138.7989  150.9269 H   0  0  0  0  0  0  0  0  0  0  0  0
  146.1645  141.1305  151.6430 H   0  0  0  0  0  0  0  0  0  0  0  0
  147.8263  140.8020  151.2321 H   0  0  0  0  0  0  0  0  0  0  0  0
  144.8728  139.2697  152.6994 H   0  0  0  0  0  0  0  0  0  0  0  0
  1  2  1  0  0  0  0
  1 21  1  0  0  0  0
  1 22  1  0  0  0  0
  1 23  1  0  0  0  0
  2 20  1  0  0  0  0
  2  3  2  0  0  0  0
  3  4  1  0  0  0  0
  4  5  2  0  0  0  0
  5  6  1  0  0  0  0
  5 20  1  0  0  0  0
  6  7  1  0  0  0  0
  7  8  2  0  0  0  0
  7  9  1  0  0  0  0
  9 10  1  0  0  0  0
  9 24  1  0  0  0  0
 10 19  1  0  0  0  0
 10 11  1  0  0  0  0
 10 25  1  0  0  0  0
 11 12  1  0  0  0  0
 11 26  1  0  0  0  0
 11 27  1  0  0  0  0
 12 13  1  0  0  0  0
 12 28  1  0  0  0  0
 12 29  1  0  0  0  0
 13 14  1  0  0  0  0
 13 18  1  0  0  0  0
 13 38  1  0  0  0  0
 14 15  1  0  0  0  0
 14 30  1  0  0  0  0
 14 31  1  0  0  0  0
 15 16  1  0  0  0  0
 15 17  2  0  0  0  0
 16 32  1  0  0  0  0
 16 33  1  0  0  0  0
 18 19  1  0  0  0  0
 18 34  1  0  0  0  0
 18 35  1  0  0  0  0
 19 36  1  0  0  0  0
 19 37  1  0  0  0  0
M  CHG  1   6  -1
M  CHG  1  13   1
M  END
> <s_m_source_file>
AV-unprocessed.smi

> <i_m_source_file_index>
1385

> <i_lp_mmshare_version>
43012

> <i_f3d_flags>
0

> <s_epik_input>
W0NIM11jMW5uYyhzMSlbTkhdQyg9TylbTkhdW0NIXTJbQ0gyXVtDSDJdTihbQ0gyXVtDSDJdMilbQ0gyXUMoPU8pW05IMl0=

> <s_epik_cmdline>
J2VwaWtfcHl0aG9uJywgJy1waCcsICc3LjAnLCAnLXRuJywgJzgnLCAnLW1hJywgJzIwMCcsICctbWV0YWxfYmluZGluZycsICctaW1hZScsICc8aW5maWxlLm1hZT4nLCAnLW9tYWUnLCAnPG91dGZpbGUubWFlPic=

> <r_lp_tautomer_probability>
1

> <r_epik_Ionization_Penalty>
3.90109

> <r_epik_Ionization_Penalty_Charging>
3.79141

> <r_epik_Ionization_Penalty_Neutral>
0.109679

> <r_epik_State_Penalty>
3.87237

> <r_epik_Charging_Adjusted_Penalty>
7.66378

> <i_epik_Tot_Q>
0

> <i_epik_Tot_abs_Q>
2

> <r_epik_Metal_State_Penalty>
1.33354

> <b_epik_Metal_Only>
1

> <s_lp_Force_Field>
OPLS_2005

> <r_lp_Energy>
6.54798

> <b_lp_Chiralities_Consistent>
1

> <s_lp_Variant>
AV-unprocessed.smi:1385-6

> <Gold.Version>
5.8.1

> <Gold.Id.Protein>
6NUR|6NUR_protein|mol2

> <Gold.PLP.Fitness>
45.5991

> <Gold.PLP.PLP>
-28.8921

> <Gold.PLP.part.hbond>
-5.7807

> <Gold.PLP.part.metal>
0.0000

> <Gold.PLP.part.buried>
-0.4908

> <Gold.PLP.part.nonpolar>
-21.7487

> <Gold.PLP.part.repulsive>
0.3952

> <Gold.PLP.ligand.clash>
0.0000

> <Gold.PLP.ligand.torsion>
0.6114

> <Gold.PLP.Chemscore.Hbond>
5.9600

> <Gold.PLP.Chemscore.CHOScore>
0.0000

> <Gold.PLP.Chemscore.Metal>
0.0000

> <Gold.Chemscore.Hbonds>
donor molecule, donor type, donor heavy atom, donor atom, acceptor molecule, acceptor atom, score
      L1  H     9    24       P1  7957  0.86
      L1  H    13    38       P1 10175  2.00
      L1  H    16    33       P1 10175  0.96
      P1  H  7989  7998       L1     6  1.00
      P1  H  7997  8008       L1     3  0.40

> <Gold.PLP.Chemscore.Internal.Correction>
0.0498

> <Gold.Rescore>
     Score         DG    S(hbond)    S(metal)    S(lipo)     H(rot)  DE(clash)    DE(int)     intcor
     14.06     -19.13       3.49        0.00      61.66       2.04       1.65       3.42       ----

> <Gold.Chemscore.Fitness>
14.0618

> <Gold.Chemscore.DG>
-19.1293

> <Gold.Chemscore.ZeroCoef>
-5.4800

> <Gold.Chemscore.Hbond>
3.4915

> <Gold.Chemscore.Metal>
0.0000

> <Gold.Chemscore.Lipo>
61.6567

> <Gold.Chemscore.Internal_Hbond>
0.0000

> <Gold.Chemscore.DEClash>
1.6517

> <Gold.Chemscore.DEInternal>
3.4158

> <Gold.Chemscore.Rot>
2.0415

> <Gold.Chemscore.Internal.Correction>
   9.000000E+99

> <Gold.Chemscore.Hbonds>
donor molecule, donor type, donor heavy atom, donor atom, acceptor molecule, acceptor atom, score
      L1  H     9    24       P1  7957  0.85
      L1  H    13    38       P1 10175  1.00
      L1  H    16    33       P1 10175  0.92
      P1  H  7989  7998       L1     6  0.38

> <Gold.Chemscore.Hbond.Weighted>
-11.6616

> <Gold.Chemscore.Metal.Weighted>
-0.0000

> <Gold.Chemscore.Lipo.Weighted>
-7.2138

> <Gold.Chemscore.Internal_Hbond.Weighted>
0.0000

> <Gold.Chemscore.DEClash.Weighted>
1.6517

> <Gold.Chemscore.DEInternal.Weighted>
3.4158

> <Gold.Chemscore.Rot.Weighted>
5.2262

> <Gold.Chemscore.Internal.Correction.Weighted>
   9.000000E+99

> <Gold.Protein.RotatedTorsions>
[ 6907 6896 6895 6894 ] final  138.71 input  -60.11 | X-H torsion
[ 7974 7965 7964 7962 ] final -171.86 input  175.53 | X-H torsion
[ 8008 7997 7996 7995 ] final  -78.50 input   59.86 | X-H torsion
[ 10167 10162 10161 10158 ] final -173.73 input  -65.29 | X-H torsion
[ 10718 10713 10712 10709 ] final  -53.24 input   66.30 | X-H torsion
[ 10763 10752 10751 10750 ] final   73.50 input  -60.55 | X-H torsion
[ 11005 11000 10999 10996 ] final   84.04 input  -57.11 | X-H torsion

> <Gold.Protein.ActiveResidues>
 VAL166  LYS551  ARG553  GLY616  TRP617  ASP618  TYR619  PRO620  LYS621  CYS622 
 ASP623  PHE694  ASN695  SER759  ASP760  ASP761  ALA762  ILE779  LEU786  VAL792 
 PHE793  MET794  SER795  GLU796  ALA797  LYS798  CYS799  TRP800  GLU811  SER814 

> <Gold.Protein.RotatedAtoms>
  152.2634  133.5318  159.5395 H   0  0  0  0  0  0  0  0  0  0  0  0  # atno 6907 bound_to 6896
  150.7133  134.0798  159.3903 H   0  0  0  0  0  0  0  0  0  0  0  0  # atno 6908 bound_to 6896
  151.8715  135.0488  160.0530 H   0  0  0  0  0  0  0  0  0  0  0  0  # atno 6909 bound_to 6896
  144.7152  140.1859  143.6353 H   0  0  0  0  0  0  0  0  0  0  0  0  # atno 7974 bound_to 7965
  154.5695  140.0693  156.8943 H   0  0  0  0  0  0  0  0  0  0  0  0  # atno 8008 bound_to 7997
  155.2660  140.3362  155.4251 H   0  0  0  0  0  0  0  0  0  0  0  0  # atno 8009 bound_to 7997
  156.2107  140.1758  156.7686 H   0  0  0  0  0  0  0  0  0  0  0  0  # atno 8010 bound_to 7997
  139.5672  144.1727  152.1330 H   0  0  0  0  0  0  0  0  0  0  0  0  # atno 10167 bound_to 10162
  156.1552  130.4150  149.9881 H   0  0  0  0  0  0  0  0  0  0  0  0  # atno 10718 bound_to 10713
  153.0526  135.5060  154.7904 H   0  0  0  0  0  0  0  0  0  0  0  0  # atno 10763 bound_to 10752
  154.6754  135.2959  154.9688 H   0  0  0  0  0  0  0  0  0  0  0  0  # atno 10764 bound_to 10752
  154.0492  135.6706  153.4851 H   0  0  0  0  0  0  0  0  0  0  0  0  # atno 10765 bound_to 10752
  139.9012  134.8188  156.2391 H   0  0  0  0  0  0  0  0  0  0  0  0  # atno 11005 bound_to 11000
  145.8813  139.2324  143.1604 LP  0  0  0  0  0  0  0  0  0  0  0  0  # atno 17320 bound_to 7965
  145.9992  140.8535  143.0027 LP  0  0  0  0  0  0  0  0  0  0  0  0  # atno 17321 bound_to 7965
  140.1253  144.5337  150.6837 LP  0  0  0  0  0  0  0  0  0  0  0  0  # atno 17342 bound_to 10162
  140.6956  143.2402  151.5011 LP  0  0  0  0  0  0  0  0  0  0  0  0  # atno 17343 bound_to 10162
  156.7727  130.9192  151.3644 LP  0  0  0  0  0  0  0  0  0  0  0  0  # atno 17370 bound_to 10713
  157.6689  130.9033  149.9995 LP  0  0  0  0  0  0  0  0  0  0  0  0  # atno 17371 bound_to 10713
  141.0296  133.6996  156.1407 LP  0  0  0  0  0  0  0  0  0  0  0  0  # atno 17394 bound_to 11000
  140.7116  134.4456  157.5581 LP  0  0  0  0  0  0  0  0  0  0  0  0  # atno 17395 bound_to 11000

$$$$
