AV-unprocessed.smi:1973|AV-procd|sdf|7979|dock4
  -GOLD-   2272010153D 1   1.00000     0.00000
 Structure written by MMmdl.
 48 50  0  0  0  0  0  0  0  0  2 V2000
  154.2541  138.7505  159.5660 C   0  0  0  0  0  0  0  0  0  0  0  0
  154.1920  138.8470  158.1538 O   0  0  0  0  0  0  0  0  0  0  0  0
  152.9408  138.4280  157.6358 C   0  0  0  0  0  0  0  0  0  0  0  0
  152.9947  138.4775  156.1013 C   0  0  0  0  0  0  0  0  0  0  0  0
  151.7226  138.0592  155.5036 N   0  0  0  0  0  0  0  0  0  0  0  0
  151.4840  136.6964  155.5763 N   0  0  0  0  0  0  0  0  0  0  0  0
  150.3960  136.2000  155.0818 C   0  0  0  0  0  0  0  0  0  0  0  0
  150.1006  134.7410  155.1391 C   0  0  0  0  0  0  0  0  0  0  0  0
  150.4585  134.0412  156.0879 O   0  0  0  0  0  0  0  0  0  0  0  0
  149.4216  134.2472  154.0879 N   0  0  0  0  0  0  0  0  0  0  0  0
  149.0113  132.8556  153.9314 C   0  0  0  0  0  0  0  0  0  0  0  0
  147.6023  132.7310  153.3215 C   0  0  1  0  0  0  0  0  0  0  0  0
  146.5615  133.6392  153.9695 C   0  0  0  0  0  0  0  0  0  0  0  0
  145.4611  133.6853  152.9135 C   0  0  0  0  0  0  0  0  0  0  0  0
  146.1653  133.6754  151.6135 N   0  3  2  0  0  0  0  0  0  0  0  0
  145.4011  133.0339  150.5227 C   0  0  0  0  0  0  0  0  0  0  0  0
  143.9048  133.0982  150.7163 C   0  0  0  0  0  0  0  0  0  0  0  0
  144.6462  131.8012  150.9587 C   0  0  0  0  0  0  0  0  0  0  0  0
  147.5121  133.0972  151.8320 C   0  0  0  0  0  0  0  0  0  0  0  0
  149.4097  137.0562  154.4445 C   0  0  0  0  0  0  0  0  0  0  0  0
  149.6601  138.3820  154.3748 C   0  0  0  0  0  0  0  0  0  0  0  0
  150.8841  138.9689  154.9215 C   0  0  0  0  0  0  0  0  0  0  0  0
  151.1394  140.1712  154.8605 O   0  0  0  0  0  0  0  0  0  0  0  0
  155.2294  139.0902  159.9145 H   0  0  0  0  0  0  0  0  0  0  0  0
  154.1195  137.7198  159.8968 H   0  0  0  0  0  0  0  0  0  0  0  0
  153.4925  139.3722  160.0386 H   0  0  0  0  0  0  0  0  0  0  0  0
  152.7186  137.4151  157.9754 H   0  0  0  0  0  0  0  0  0  0  0  0
  152.1484  139.0812  158.0051 H   0  0  0  0  0  0  0  0  0  0  0  0
  153.2416  139.4909  155.7797 H   0  0  0  0  0  0  0  0  0  0  0  0
  153.8108  137.8513  155.7361 H   0  0  0  0  0  0  0  0  0  0  0  0
  149.1588  134.8887  153.3532 H   0  0  0  0  0  0  0  0  0  0  0  0
  149.7379  132.3223  153.3163 H   0  0  0  0  0  0  0  0  0  0  0  0
  149.0371  132.3841  154.9144 H   0  0  0  0  0  0  0  0  0  0  0  0
  147.2534  131.7030  153.4368 H   0  0  0  0  0  0  0  0  0  0  0  0
  146.2087  133.2628  154.9301 H   0  0  0  0  0  0  0  0  0  0  0  0
  146.9706  134.6385  154.1257 H   0  0  0  0  0  0  0  0  0  0  0  0
  144.8357  132.7952  153.0036 H   0  0  0  0  0  0  0  0  0  0  0  0
  144.8174  134.5595  153.0141 H   0  0  0  0  0  0  0  0  0  0  0  0
  145.8323  133.0966  149.5249 H   0  0  0  0  0  0  0  0  0  0  0  0
  143.5200  133.6283  151.5859 H   0  0  0  0  0  0  0  0  0  0  0  0
  143.2845  133.1575  149.8244 H   0  0  0  0  0  0  0  0  0  0  0  0
  144.5145  131.0078  150.2257 H   0  0  0  0  0  0  0  0  0  0  0  0
  144.7534  131.4685  151.9897 H   0  0  0  0  0  0  0  0  0  0  0  0
  148.2481  133.8584  151.5708 H   0  0  0  0  0  0  0  0  0  0  0  0
  147.7024  132.2282  151.1998 H   0  0  0  0  0  0  0  0  0  0  0  0
  148.4974  136.6507  154.0314 H   0  0  0  0  0  0  0  0  0  0  0  0
  148.9370  139.0300  153.9018 H   0  0  0  0  0  0  0  0  0  0  0  0
  146.3108  134.6407  151.3539 H   0  0  0  0  0  0  0  0  0  0  0  0
  1  2  1  0  0  0  0
  1 24  1  0  0  0  0
  1 25  1  0  0  0  0
  1 26  1  0  0  0  0
  2  3  1  0  0  0  0
  3  4  1  0  0  0  0
  3 27  1  0  0  0  0
  3 28  1  0  0  0  0
  4  5  1  0  0  0  0
  4 29  1  0  0  0  0
  4 30  1  0  0  0  0
  5 22  1  0  0  0  0
  5  6  1  0  0  0  0
  6  7  2  0  0  0  0
  7  8  1  0  0  0  0
  7 20  1  0  0  0  0
  8  9  2  0  0  0  0
  8 10  1  0  0  0  0
 10 11  1  0  0  0  0
 10 31  1  0  0  0  0
 11 12  1  0  0  0  0
 11 32  1  0  0  0  0
 11 33  1  0  0  0  0
 12 19  1  0  0  0  0
 12 13  1  0  0  0  0
 12 34  1  0  0  0  0
 13 14  1  0  0  0  0
 13 35  1  0  0  0  0
 13 36  1  0  0  0  0
 14 15  1  0  0  0  0
 14 37  1  0  0  0  0
 14 38  1  0  0  0  0
 15 16  1  0  0  0  0
 15 19  1  0  0  0  0
 15 48  1  0  0  0  0
 16 18  1  0  0  0  0
 16 17  1  0  0  0  0
 16 39  1  0  0  0  0
 17 18  1  0  0  0  0
 17 40  1  0  0  0  0
 17 41  1  0  0  0  0
 18 42  1  0  0  0  0
 18 43  1  0  0  0  0
 19 44  1  0  0  0  0
 19 45  1  0  0  0  0
 20 21  2  0  0  0  0
 20 46  1  0  0  0  0
 21 22  1  0  0  0  0
 21 47  1  0  0  0  0
 22 23  2  0  0  0  0
M  CHG  1  15   1
M  END
> <s_m_source_file>
AV-unprocessed.smi

> <i_m_source_file_index>
1973

> <i_lp_mmshare_version>
43012

> <i_f3d_flags>
0

> <s_epik_input>
W0NIM11PW0NIMl1bQ0gyXW4xbmMoW2NIXVtjSF1jMT1PKUMoPU8pW05IXVtDSDJdW0NAQEhdMltDSDJdW0NIMl1OKFtDSDJdMilbQ0hdM1tDSDJdW0NIMl0z

> <s_epik_cmdline>
J2VwaWtfcHl0aG9uJywgJy1waCcsICc3LjAnLCAnLXRuJywgJzgnLCAnLW1hJywgJzIwMCcsICctbWV0YWxfYmluZGluZycsICctaW1hZScsICc8aW5maWxlLm1hZT4nLCAnLW9tYWUnLCAnPG91dGZpbGUubWFlPic=

> <r_lp_tautomer_probability>
1

> <r_epik_Ionization_Penalty>
0.000225706

> <r_epik_Ionization_Penalty_Charging>
0.000223776

> <r_epik_Ionization_Penalty_Neutral>
1.93004e-06

> <r_epik_State_Penalty>
-0

> <r_epik_Charging_Adjusted_Penalty>
0.000223776

> <i_epik_Tot_Q>
1

> <i_epik_Tot_abs_Q>
1

> <r_epik_Metal_State_Penalty>
-0

> <b_epik_Metal_Only>
0

> <s_lp_Force_Field>
OPLS_2005

> <r_lp_Energy>
57.1885

> <b_lp_Chiralities_Consistent>
1

> <s_lp_Variant>
AV-unprocessed.smi:1973-4

> <Gold.Version>
5.8.1

> <Gold.Id.Protein>
6NUR|6NUR_protein|mol2

> <Gold.PLP.Fitness>
43.5631

> <Gold.PLP.PLP>
-33.5124

> <Gold.PLP.part.hbond>
-3.8983

> <Gold.PLP.part.metal>
0.0000

> <Gold.PLP.part.buried>
-0.8402

> <Gold.PLP.part.nonpolar>
-29.0263

> <Gold.PLP.part.repulsive>
0.1835

> <Gold.PLP.ligand.clash>
0.0000

> <Gold.PLP.ligand.torsion>
1.4677

> <Gold.PLP.Chemscore.Hbond>
3.8420

> <Gold.PLP.Chemscore.CHOScore>
0.0000

> <Gold.PLP.Chemscore.Metal>
0.0000

> <Gold.Chemscore.Hbonds>
donor molecule, donor type, donor heavy atom, donor atom, acceptor molecule, acceptor atom, score
      L1  H    10    31       P1  7948  0.75
      P1  H  7989  7998       L1    23  1.00
      P1  H  7997  8009       L1     2  1.00
      P1  H 10752 10763       L1     6  0.96

> <Gold.PLP.Chemscore.Internal.Correction>
1.4602

> <Gold.Rescore>
     Score         DG    S(hbond)    S(metal)    S(lipo)     H(rot)  DE(clash)    DE(int)     intcor
     14.49     -17.27       2.24        0.00      80.01       1.97       1.33       1.45       ----

> <Gold.Chemscore.Fitness>
14.4902

> <Gold.Chemscore.DG>
-17.2742

> <Gold.Chemscore.ZeroCoef>
-5.4800

> <Gold.Chemscore.Hbond>
2.2393

> <Gold.Chemscore.Metal>
0.0000

> <Gold.Chemscore.Lipo>
80.0094

> <Gold.Chemscore.Internal_Hbond>
0.0000

> <Gold.Chemscore.DEClash>
1.3323

> <Gold.Chemscore.DEInternal>
1.4516

> <Gold.Chemscore.Rot>
1.9711

> <Gold.Chemscore.Internal.Correction>
   9.000000E+99

> <Gold.Chemscore.Hbonds>
donor molecule, donor type, donor heavy atom, donor atom, acceptor molecule, acceptor atom, score
      L1  H    10    31       P1  7948  0.09
      P1  H  7989  7998       L1    23  0.98
      P1  H  7997  8009       L1     2  0.91
      P1  H 10752 10763       L1     6  0.36

> <Gold.Chemscore.Hbond.Weighted>
-7.4791

> <Gold.Chemscore.Metal.Weighted>
-0.0000

> <Gold.Chemscore.Lipo.Weighted>
-9.3611

> <Gold.Chemscore.Internal_Hbond.Weighted>
0.0000

> <Gold.Chemscore.DEClash.Weighted>
1.3323

> <Gold.Chemscore.DEInternal.Weighted>
1.4516

> <Gold.Chemscore.Rot.Weighted>
5.0460

> <Gold.Chemscore.Internal.Correction.Weighted>
   9.000000E+99

> <Gold.Protein.RotatedTorsions>
[ 6907 6896 6895 6894 ] final  -44.15 input  -60.11 | X-H torsion
[ 7974 7965 7964 7962 ] final  110.31 input  175.53 | X-H torsion
[ 8008 7997 7996 7995 ] final  121.09 input   59.86 | X-H torsion
[ 10167 10162 10161 10158 ] final -109.94 input  -65.29 | X-H torsion
[ 10718 10713 10712 10709 ] final   51.10 input   66.30 | X-H torsion
[ 10763 10752 10751 10750 ] final   69.87 input  -60.55 | X-H torsion
[ 11005 11000 10999 10996 ] final  -40.85 input  -57.11 | X-H torsion

> <Gold.Protein.ActiveResidues>
 VAL166  LYS551  ARG553  GLY616  TRP617  ASP618  TYR619  PRO620  LYS621  CYS622 
 ASP623  PHE694  ASN695  SER759  ASP760  ASP761  ALA762  ILE779  LEU786  VAL792 
 PHE793  MET794  SER795  GLU796  ALA797  LYS798  CYS799  TRP800  GLU811  SER814 

> <Gold.Protein.RotatedAtoms>
  150.9360  134.8772  159.7581 H   0  0  0  0  0  0  0  0  0  0  0  0  # atno 6907 bound_to 6896
  152.5059  134.4010  159.9426 H   0  0  0  0  0  0  0  0  0  0  0  0  # atno 6908 bound_to 6896
  151.4034  133.3710  159.2770 H   0  0  0  0  0  0  0  0  0  0  0  0  # atno 6909 bound_to 6896
  145.2566  139.2718  143.4039 H   0  0  0  0  0  0  0  0  0  0  0  0  # atno 7974 bound_to 7965
  156.2671  140.2816  156.1252 H   0  0  0  0  0  0  0  0  0  0  0  0  # atno 8008 bound_to 7997
  155.1113  140.0391  157.2742 H   0  0  0  0  0  0  0  0  0  0  0  0  # atno 8009 bound_to 7997
  154.6740  140.2594  155.6983 H   0  0  0  0  0  0  0  0  0  0  0  0  # atno 8010 bound_to 7997
  140.1498  143.4208  152.1503 H   0  0  0  0  0  0  0  0  0  0  0  0  # atno 10167 bound_to 10162
  157.4948  130.8399  149.8246 H   0  0  0  0  0  0  0  0  0  0  0  0  # atno 10718 bound_to 10713
  153.0310  135.5195  154.7354 H   0  0  0  0  0  0  0  0  0  0  0  0  # atno 10763 bound_to 10752
  154.6369  135.2907  155.0152 H   0  0  0  0  0  0  0  0  0  0  0  0  # atno 10764 bound_to 10752
  154.1084  135.6626  153.4933 H   0  0  0  0  0  0  0  0  0  0  0  0  # atno 10765 bound_to 10752
  141.0204  133.6865  156.2377 H   0  0  0  0  0  0  0  0  0  0  0  0  # atno 11005 bound_to 11000
  146.3287  140.2972  142.8618 LP  0  0  0  0  0  0  0  0  0  0  0  0  # atno 17320 bound_to 7965
  144.9455  140.8124  143.5604 LP  0  0  0  0  0  0  0  0  0  0  0  0  # atno 17321 bound_to 7965
  139.5431  144.7274  151.4669 LP  0  0  0  0  0  0  0  0  0  0  0  0  # atno 17342 bound_to 10162
  140.6709  143.8295  150.6998 LP  0  0  0  0  0  0  0  0  0  0  0  0  # atno 17343 bound_to 10162
  156.0194  130.3801  150.2008 LP  0  0  0  0  0  0  0  0  0  0  0  0  # atno 17370 bound_to 10713
  157.0197  130.9975  151.3343 LP  0  0  0  0  0  0  0  0  0  0  0  0  # atno 17371 bound_to 10713
  140.6583  134.4995  157.5582 LP  0  0  0  0  0  0  0  0  0  0  0  0  # atno 17394 bound_to 11000
  139.9142  134.8280  156.1421 LP  0  0  0  0  0  0  0  0  0  0  0  0  # atno 17395 bound_to 11000

$$$$
