AV-unprocessed.smi:250|AV-procd|sdf|1933|dock7
  -GOLD-   2262021 53D 1   1.00000     0.00000
 Structure written by MMmdl.
 56 60  0  0  0  0  0  0  0  0  1 V2000
  152.3637  144.2857  160.6562 C   0  0  0  0  0  0  0  0  0  0  0  0
  151.6416  143.7519  159.5083 N   0  0  0  0  0  0  0  0  0  0  0  0
  151.3725  144.4197  158.3741 C   0  0  0  0  0  0  0  0  0  0  0  0
  151.7143  145.5704  158.1080 O   0  0  0  0  0  0  0  0  0  0  0  0
  150.6521  143.6236  157.5786 N   0  0  0  0  0  0  0  0  0  0  0  0
  150.3072  142.3712  158.2168 C   0  0  1  0  0  0  0  0  0  0  0  0
  150.3099  141.1415  157.2767 C   0  0  0  0  0  0  0  0  0  0  0  0
  151.4994  140.2971  157.3918 N   0  0  0  0  0  0  0  0  0  0  0  0
  151.5815  139.2873  156.4876 C   0  0  0  0  0  0  0  0  0  0  0  0
  152.5360  139.3897  155.5264 N   0  0  0  0  0  0  0  0  0  0  0  0
  152.6785  138.4319  154.6065 C   0  0  0  0  0  0  0  0  0  0  0  0
  151.9828  137.3035  154.4636 N   0  0  0  0  0  0  0  0  0  0  0  0
  151.0171  137.1935  155.4200 C   0  0  0  0  0  0  0  0  0  0  0  0
  150.7453  138.1303  156.4588 C   0  0  0  0  0  0  0  0  0  0  0  0
  149.6709  137.6799  157.2192 N   0  0  0  0  0  0  0  0  0  0  0  0
  149.3374  136.5446  156.6705 C   0  0  0  0  0  0  0  0  0  0  0  0
  150.1050  136.1662  155.5934 N   0  0  0  0  0  0  0  0  0  0  0  0
  149.9500  134.9603  154.7914 C   0  0  0  0  0  0  0  0  0  0  0  0
  150.2591  133.6164  155.5219 C   0  0  0  0  0  0  0  0  0  0  0  0
  149.9842  132.4631  154.5152 C   0  0  0  0  0  0  0  0  0  0  0  0
  148.6615  132.4857  154.0159 O   0  0  0  0  0  0  0  0  0  0  0  0
  151.7423  133.5647  155.9745 C   0  0  0  0  0  0  0  0  0  0  0  0
  152.0561  132.3501  156.8692 C   0  0  0  0  0  0  0  0  0  0  0  0
  151.1921  132.3395  157.9990 O   0  0  0  0  0  0  0  0  0  0  0  0
  149.8172  132.2398  157.6485 C   0  0  0  0  0  0  0  0  0  0  0  0
  149.4035  133.4603  156.8064 C   0  0  0  0  0  0  0  0  0  0  0  0
  152.0442  140.0854  158.7265 C   0  0  0  0  0  0  0  0  0  0  0  0
  152.4347  141.4339  159.3259 C   0  0  0  0  0  0  0  0  0  0  0  0
  151.2115  142.3604  159.4602 C   0  0  1  0  0  0  0  0  0  0  0  0
  149.2768  142.5136  158.5477 H   0  0  0  0  0  0  0  0  0  0  0  0
  150.6318  142.0971  160.3464 H   0  0  0  0  0  0  0  0  0  0  0  0
  151.9230  145.2279  160.9843 H   0  0  0  0  0  0  0  0  0  0  0  0
  153.4079  144.4645  160.3982 H   0  0  0  0  0  0  0  0  0  0  0  0
  152.3351  143.5907  161.4959 H   0  0  0  0  0  0  0  0  0  0  0  0
  150.3108  143.8874  156.6657 H   0  0  0  0  0  0  0  0  0  0  0  0
  149.4523  140.5140  157.5224 H   0  0  0  0  0  0  0  0  0  0  0  0
  150.1571  141.4703  156.2480 H   0  0  0  0  0  0  0  0  0  0  0  0
  153.4631  138.5927  153.8820 H   0  0  0  0  0  0  0  0  0  0  0  0
  148.5188  135.9453  157.0421 H   0  0  0  0  0  0  0  0  0  0  0  0
  148.9283  134.9560  154.4097 H   0  0  0  0  0  0  0  0  0  0  0  0
  150.5916  135.0610  153.9149 H   0  0  0  0  0  0  0  0  0  0  0  0
  150.6681  132.5301  153.6684 H   0  0  0  0  0  0  0  0  0  0  0  0
  150.1468  131.4820  154.9573 H   0  0  0  0  0  0  0  0  0  0  0  0
  148.4616  133.3657  153.7347 H   0  0  0  0  0  0  0  0  0  0  0  0
  152.4050  133.5723  155.1084 H   0  0  0  0  0  0  0  0  0  0  0  0
  151.9906  134.4533  156.5537 H   0  0  0  0  0  0  0  0  0  0  0  0
  151.9757  131.4101  156.3233 H   0  0  0  0  0  0  0  0  0  0  0  0
  153.0850  132.4113  157.2238 H   0  0  0  0  0  0  0  0  0  0  0  0
  149.6247  131.3030  157.1252 H   0  0  0  0  0  0  0  0  0  0  0  0
  149.2293  132.2081  158.5658 H   0  0  0  0  0  0  0  0  0  0  0  0
  149.5188  134.3381  157.4406 H   0  0  0  0  0  0  0  0  0  0  0  0
  148.3423  133.4047  156.5624 H   0  0  0  0  0  0  0  0  0  0  0  0
  151.3075  139.5836  159.3549 H   0  0  0  0  0  0  0  0  0  0  0  0
  152.9292  139.4498  158.6791 H   0  0  0  0  0  0  0  0  0  0  0  0
  152.9023  141.2904  160.3003 H   0  0  0  0  0  0  0  0  0  0  0  0
  153.1917  141.8923  158.6866 H   0  0  0  0  0  0  0  0  0  0  0  0
  1  2  1  0  0  0  0
  1 32  1  0  0  0  0
  1 33  1  0  0  0  0
  1 34  1  0  0  0  0
  2 29  1  0  0  0  0
  2  3  1  0  0  0  0
  3  4  2  0  0  0  0
  3  5  1  0  0  0  0
  5  6  1  0  0  0  0
  5 35  1  0  0  0  0
  6 30  1  0  0  0  0
  6 29  1  0  0  0  0
  6  7  1  0  0  0  0
  7  8  1  0  0  0  0
  7 36  1  0  0  0  0
  7 37  1  0  0  0  0
  8  9  1  0  0  0  0
  8 27  1  0  0  0  0
  9 14  1  0  0  0  0
  9 10  2  0  0  0  0
 10 11  1  0  0  0  0
 11 12  2  0  0  0  0
 11 38  1  0  0  0  0
 12 13  1  0  0  0  0
 13 17  1  0  0  0  0
 13 14  2  0  0  0  0
 14 15  1  0  0  0  0
 15 16  2  0  0  0  0
 16 17  1  0  0  0  0
 16 39  1  0  0  0  0
 17 18  1  0  0  0  0
 18 19  1  0  0  0  0
 18 40  1  0  0  0  0
 18 41  1  0  0  0  0
 19 26  1  0  0  0  0
 19 20  1  0  0  0  0
 19 22  1  0  0  0  0
 20 21  1  0  0  0  0
 20 42  1  0  0  0  0
 20 43  1  0  0  0  0
 21 44  1  0  0  0  0
 22 23  1  0  0  0  0
 22 45  1  0  0  0  0
 22 46  1  0  0  0  0
 23 24  1  0  0  0  0
 23 47  1  0  0  0  0
 23 48  1  0  0  0  0
 24 25  1  0  0  0  0
 25 26  1  0  0  0  0
 25 49  1  0  0  0  0
 25 50  1  0  0  0  0
 26 51  1  0  0  0  0
 26 52  1  0  0  0  0
 27 28  1  0  0  0  0
 27 53  1  0  0  0  0
 27 54  1  0  0  0  0
 28 29  1  0  0  0  0
 28 55  1  0  0  0  0
 28 56  1  0  0  0  0
 29 31  1  0  0  0  0
M  END
> <s_m_source_file>
AV-unprocessed.smi

> <i_m_source_file_index>
250

> <i_lp_mmshare_version>
43012

> <i_f3d_flags>
0

> <s_epik_input>
Tz1DKFtOSF0xKU4oW0NIM10pW0NASF0oW0NASF0xMilbQ0gyXVtDSDJdTihbQ0gyXTIpYyhuW2NIXW4zKWMoYzM0KW5bY0hdbjRbQ0gyXUM1KFtDSDJdW09IXSlbQ0gyXVtDSDJdT1tDSDJdW0NIMl01

> <s_epik_cmdline>
J2VwaWtfcHl0aG9uJywgJy1waCcsICc3LjAnLCAnLXRuJywgJzgnLCAnLW1hJywgJzIwMCcsICctbWV0YWxfYmluZGluZycsICctaW1hZScsICc8aW5maWxlLm1hZT4nLCAnLW9tYWUnLCAnPG91dGZpbGUubWFlPic=

> <r_lp_tautomer_probability>
1

> <r_epik_Ionization_Penalty>
0.00229024

> <r_epik_Ionization_Penalty_Charging>
0

> <r_epik_Ionization_Penalty_Neutral>
0.00229024

> <r_epik_State_Penalty>
0.0013961

> <r_epik_Charging_Adjusted_Penalty>
0.0013961

> <i_epik_Tot_Q>
0

> <i_epik_Tot_abs_Q>
0

> <r_epik_Metal_State_Penalty>
-0

> <b_epik_Metal_Only>
0

> <s_lp_Force_Field>
OPLS_2005

> <r_lp_Energy>
68.1887

> <b_lp_Chiralities_Consistent>
1

> <s_lp_Variant>
AV-unprocessed.smi:250-4

> <Gold.Version>
5.8.1

> <Gold.Id.Protein>
6NUR|6NUR_protein|mol2

> <Gold.PLP.Fitness>
48.1804

> <Gold.PLP.PLP>
-39.9000

> <Gold.PLP.part.hbond>
-4.9762

> <Gold.PLP.part.metal>
0.0000

> <Gold.PLP.part.buried>
-3.4964

> <Gold.PLP.part.nonpolar>
-32.7620

> <Gold.PLP.part.repulsive>
0.2337

> <Gold.PLP.ligand.clash>
0.0000

> <Gold.PLP.ligand.torsion>
1.4290

> <Gold.PLP.Chemscore.Hbond>
3.6217

> <Gold.PLP.Chemscore.CHOScore>
0.0000

> <Gold.PLP.Chemscore.Metal>
0.0000

> <Gold.Chemscore.Hbonds>
donor molecule, donor type, donor heavy atom, donor atom, acceptor molecule, acceptor atom, score
      L1  H     5    35       P1  8028  0.93
      P1  H  6896  6907       L1    24  1.00
      P1  H  7997  8010       L1    10  0.86
      P1  H 10752 10764       L1    12  0.91

> <Gold.PLP.Chemscore.Internal.Correction>
0.2733

> <Gold.Rescore>
     Score         DG    S(hbond)    S(metal)    S(lipo)     H(rot)  DE(clash)    DE(int)     intcor
     16.18     -20.30       3.26        0.00      82.24       2.22       2.71       1.42       ----

> <Gold.Chemscore.Fitness>
16.1776

> <Gold.Chemscore.DG>
-20.3047

> <Gold.Chemscore.ZeroCoef>
-5.4800

> <Gold.Chemscore.Hbond>
3.2568

> <Gold.Chemscore.Metal>
0.0000

> <Gold.Chemscore.Lipo>
82.2440

> <Gold.Chemscore.Internal_Hbond>
0.0000

> <Gold.Chemscore.DEClash>
2.7085

> <Gold.Chemscore.DEInternal>
1.4187

> <Gold.Chemscore.Rot>
2.2170

> <Gold.Chemscore.Internal.Correction>
   9.000000E+99

> <Gold.Chemscore.Hbonds>
donor molecule, donor type, donor heavy atom, donor atom, acceptor molecule, acceptor atom, score
      L1  H     5    35       P1  8028  0.89
      P1  H  6896  6907       L1    24  0.68
      P1  H  7997  8010       L1    10  0.63
      P1  H 10752 10764       L1    12  0.55

> <Gold.Chemscore.Hbond.Weighted>
-10.8778

> <Gold.Chemscore.Metal.Weighted>
-0.0000

> <Gold.Chemscore.Lipo.Weighted>
-9.6225

> <Gold.Chemscore.Internal_Hbond.Weighted>
0.0000

> <Gold.Chemscore.DEClash.Weighted>
2.7085

> <Gold.Chemscore.DEInternal.Weighted>
1.4187

> <Gold.Chemscore.Rot.Weighted>
5.6756

> <Gold.Chemscore.Internal.Correction.Weighted>
   9.000000E+99

> <Gold.Protein.RotatedTorsions>
[ 6907 6896 6895 6894 ] final -161.38 input  -60.11 | X-H torsion
[ 7974 7965 7964 7962 ] final  170.10 input  175.53 | X-H torsion
[ 8008 7997 7996 7995 ] final   80.96 input   59.86 | X-H torsion
[ 10167 10162 10161 10158 ] final    0.23 input  -65.29 | X-H torsion
[ 10718 10713 10712 10709 ] final   29.93 input   66.30 | X-H torsion
[ 10763 10752 10751 10750 ] final  -70.42 input  -60.55 | X-H torsion
[ 11005 11000 10999 10996 ] final  -81.49 input  -57.11 | X-H torsion

> <Gold.Protein.ActiveResidues>
 VAL166  LYS551  ARG553  GLY616  TRP617  ASP618  TYR619  PRO620  LYS621  CYS622 
 ASP623  PHE694  ASN695  SER759  ASP760  ASP761  ALA762  ILE779  LEU786  VAL792 
 PHE793  MET794  SER795  GLU796  ALA797  LYS798  CYS799  TRP800  GLU811  SER814 

> <Gold.Protein.RotatedAtoms>
  151.3637  133.3880  159.2692 H   0  0  0  0  0  0  0  0  0  0  0  0  # atno 6907 bound_to 6896
  150.9705  134.9080  159.7795 H   0  0  0  0  0  0  0  0  0  0  0  0  # atno 6908 bound_to 6896
  152.5183  134.3599  159.9333 H   0  0  0  0  0  0  0  0  0  0  0  0  # atno 6909 bound_to 6896
  144.7334  139.9152  143.6417 H   0  0  0  0  0  0  0  0  0  0  0  0  # atno 7974 bound_to 7965
  155.8906  140.3439  155.5953 H   0  0  0  0  0  0  0  0  0  0  0  0  # atno 8008 bound_to 7997
  155.7615  140.0833  157.2172 H   0  0  0  0  0  0  0  0  0  0  0  0  # atno 8009 bound_to 7997
  154.4033  140.1535  156.2826 H   0  0  0  0  0  0  0  0  0  0  0  0  # atno 8010 bound_to 7997
  140.6738  143.6974  150.7979 H   0  0  0  0  0  0  0  0  0  0  0  0  # atno 10167 bound_to 10162
  157.2530  130.7124  149.6415 H   0  0  0  0  0  0  0  0  0  0  0  0  # atno 10718 bound_to 10713
  154.4174  135.5994  153.5989 H   0  0  0  0  0  0  0  0  0  0  0  0  # atno 10763 bound_to 10752
  152.9792  135.5944  154.3996 H   0  0  0  0  0  0  0  0  0  0  0  0  # atno 10764 bound_to 10752
  154.3817  135.2841  155.2186 H   0  0  0  0  0  0  0  0  0  0  0  0  # atno 10765 bound_to 10752
  141.1666  133.7199  156.8430 H   0  0  0  0  0  0  0  0  0  0  0  0  # atno 11005 bound_to 11000
  146.0971  139.3964  143.0370 LP  0  0  0  0  0  0  0  0  0  0  0  0  # atno 17320 bound_to 7965
  145.7630  140.9927  143.1190 LP  0  0  0  0  0  0  0  0  0  0  0  0  # atno 17321 bound_to 7965
  140.0664  143.5104  152.2602 LP  0  0  0  0  0  0  0  0  0  0  0  0  # atno 17342 bound_to 10162
  139.6019  144.7585  151.3151 LP  0  0  0  0  0  0  0  0  0  0  0  0  # atno 17343 bound_to 10162
  155.9665  130.4421  150.5370 LP  0  0  0  0  0  0  0  0  0  0  0  0  # atno 17370 bound_to 10713
  157.3258  131.0690  151.1898 LP  0  0  0  0  0  0  0  0  0  0  0  0  # atno 17371 bound_to 10713
  140.1970  134.8925  157.3126 LP  0  0  0  0  0  0  0  0  0  0  0  0  # atno 17394 bound_to 11000
  140.2228  134.4002  155.7557 LP  0  0  0  0  0  0  0  0  0  0  0  0  # atno 17395 bound_to 11000

$$$$
