AV-unprocessed.smi:586|AV-procd|sdf|3001|dock2
  -GOLD-   2262023503D 1   1.00000     0.00000
 Structure written by MMmdl.
 49 49  0  0  0  0  0  0  0  0  1 V2000
  148.0785  141.5590  154.1229 C   0  0  0  0  0  0  0  0  0  0  0  0
  149.1410  140.9840  155.0691 C   0  0  0  0  0  0  0  0  0  0  0  0
  149.9966  139.8541  154.4600 C   0  0  0  0  0  0  0  0  0  0  0  0
  150.5672  138.9524  155.4449 N   0  0  0  0  0  0  0  0  0  0  0  0
  149.7948  138.0760  156.2128 C   0  0  0  0  0  0  0  0  0  0  0  0
  148.4202  138.0923  156.0232 N   0  0  0  0  0  0  0  0  0  0  0  0
  150.3620  137.1996  157.0973 C   0  0  0  0  0  0  0  0  0  0  0  0
  149.5788  136.3419  157.8940 N   0  0  0  0  0  0  0  0  0  0  0  0
  149.1326  136.9029  159.1832 C   0  0  0  0  0  0  0  0  0  0  0  0
  147.6136  136.7373  159.3948 C   0  0  0  0  0  0  0  0  0  0  0  0
  147.2277  137.0845  160.7171 O   0  0  0  0  0  0  0  0  0  0  0  0
  147.7116  136.1993  161.7151 C   0  0  0  0  0  0  0  0  0  0  0  0
  149.3422  135.0265  157.6081 C   0  0  0  0  0  0  0  0  0  0  0  0
  148.9850  134.2643  158.5098 O   0  0  0  0  0  0  0  0  0  0  0  0
  149.4254  134.4252  156.1620 C   0  0  0  0  0  0  0  0  0  0  0  0
  150.7464  134.7215  155.4123 C   0  0  0  0  0  0  0  0  0  0  0  0
  148.3012  135.0670  155.3070 C   0  0  0  0  0  0  0  0  0  0  0  0
  149.1542  132.9064  156.1976 C   0  0  0  0  0  0  0  0  0  0  0  0
  151.8132  137.2173  157.3301 C   0  0  0  0  0  0  0  0  0  0  0  0
  152.4175  136.5374  158.1584 O   0  0  0  0  0  0  0  0  0  0  0  0
  152.5258  138.1057  156.5302 N   0  0  0  0  0  0  0  0  0  0  0  0
  151.9770  138.9637  155.5850 C   0  0  0  0  0  0  0  0  0  0  0  0
  152.7252  139.6834  154.9231 O   0  0  0  0  0  0  0  0  0  0  0  0
  153.5284  138.1292  156.6474 H   0  0  0  0  0  0  0  0  0  0  0  0
  147.5591  142.3962  154.5890 H   0  0  0  0  0  0  0  0  0  0  0  0
  147.3283  140.8117  153.8641 H   0  0  0  0  0  0  0  0  0  0  0  0
  148.5289  141.9206  153.1980 H   0  0  0  0  0  0  0  0  0  0  0  0
  149.8048  141.7916  155.3783 H   0  0  0  0  0  0  0  0  0  0  0  0
  148.6541  140.6328  155.9792 H   0  0  0  0  0  0  0  0  0  0  0  0
  149.4368  139.2763  153.7234 H   0  0  0  0  0  0  0  0  0  0  0  0
  150.8420  140.2630  153.9059 H   0  0  0  0  0  0  0  0  0  0  0  0
  147.9823  138.7117  155.3561 H   0  0  0  0  0  0  0  0  0  0  0  0
  147.8020  137.4922  156.5502 H   0  0  0  0  0  0  0  0  0  0  0  0
  149.6652  136.4150  159.9982 H   0  0  0  0  0  0  0  0  0  0  0  0
  149.4066  137.9570  159.2565 H   0  0  0  0  0  0  0  0  0  0  0  0
  147.0740  137.4016  158.7198 H   0  0  0  0  0  0  0  0  0  0  0  0
  147.2873  135.7247  159.1537 H   0  0  0  0  0  0  0  0  0  0  0  0
  147.3308  136.5095  162.6881 H   0  0  0  0  0  0  0  0  0  0  0  0
  148.7998  136.2033  161.7715 H   0  0  0  0  0  0  0  0  0  0  0  0
  147.3737  135.1779  161.5357 H   0  0  0  0  0  0  0  0  0  0  0  0
  150.6364  134.5658  154.3387 H   0  0  0  0  0  0  0  0  0  0  0  0
  151.5577  134.0623  155.7176 H   0  0  0  0  0  0  0  0  0  0  0  0
  151.0659  135.7545  155.5495 H   0  0  0  0  0  0  0  0  0  0  0  0
  148.3919  136.1538  155.2759 H   0  0  0  0  0  0  0  0  0  0  0  0
  147.3064  134.8265  155.6853 H   0  0  0  0  0  0  0  0  0  0  0  0
  148.3295  134.7136  154.2755 H   0  0  0  0  0  0  0  0  0  0  0  0
  148.9062  132.5272  155.2055 H   0  0  0  0  0  0  0  0  0  0  0  0
  148.3210  132.6573  156.8562 H   0  0  0  0  0  0  0  0  0  0  0  0
  150.0225  132.3417  156.5314 H   0  0  0  0  0  0  0  0  0  0  0  0
  1  2  1  0  0  0  0
  1 25  1  0  0  0  0
  1 26  1  0  0  0  0
  1 27  1  0  0  0  0
  2  3  1  0  0  0  0
  2 28  1  0  0  0  0
  2 29  1  0  0  0  0
  3  4  1  0  0  0  0
  3 30  1  0  0  0  0
  3 31  1  0  0  0  0
  4 22  1  0  0  0  0
  4  5  1  0  0  0  0
  5  6  1  0  0  0  0
  5  7  2  0  0  0  0
  6 32  1  0  0  0  0
  6 33  1  0  0  0  0
  7  8  1  0  0  0  0
  7 19  1  0  0  0  0
  8  9  1  0  0  0  0
  8 13  1  0  0  0  0
  9 10  1  0  0  0  0
  9 34  1  0  0  0  0
  9 35  1  0  0  0  0
 10 11  1  0  0  0  0
 10 36  1  0  0  0  0
 10 37  1  0  0  0  0
 11 12  1  0  0  0  0
 12 38  1  0  0  0  0
 12 39  1  0  0  0  0
 12 40  1  0  0  0  0
 13 14  2  0  0  0  0
 13 15  1  0  0  0  0
 15 16  1  0  0  0  0
 15 17  1  0  0  0  0
 15 18  1  0  0  0  0
 16 41  1  0  0  0  0
 16 42  1  0  0  0  0
 16 43  1  0  0  0  0
 17 44  1  0  0  0  0
 17 45  1  0  0  0  0
 17 46  1  0  0  0  0
 18 47  1  0  0  0  0
 18 48  1  0  0  0  0
 18 49  1  0  0  0  0
 19 20  2  0  0  0  0
 19 21  1  0  0  0  0
 21 24  1  0  0  0  0
 21 22  1  0  0  0  0
 22 23  2  0  0  0  0
M  END
> <s_m_source_file>
AV-unprocessed.smi

> <i_m_source_file_index>
586

> <i_lp_mmshare_version>
43012

> <i_f3d_flags>
0

> <s_epik_input>
W0NIM11bQ0gyXVtDSDJdbjFjKFtOSDJdKWMoYyg9TylbbkhdYzE9TylOKEMoPU8pQyhbQ0gzXSkoW0NIM10pW0NIM10pW0NIMl1bQ0gyXU9bQ0gzXQ==

> <s_epik_cmdline>
J2VwaWtfcHl0aG9uJywgJy1waCcsICc3LjAnLCAnLXRuJywgJzgnLCAnLW1hJywgJzIwMCcsICctbWV0YWxfYmluZGluZycsICctaW1hZScsICc8aW5maWxlLm1hZT4nLCAnLW9tYWUnLCAnPG91dGZpbGUubWFlPic=

> <r_lp_tautomer_probability>
1

> <r_epik_Ionization_Penalty>
2.71493e-05

> <r_epik_Ionization_Penalty_Charging>
5.25815e-06

> <r_epik_Ionization_Penalty_Neutral>
2.18912e-05

> <r_epik_State_Penalty>
-0

> <r_epik_Charging_Adjusted_Penalty>
5.25815e-06

> <i_epik_Tot_Q>
0

> <i_epik_Tot_abs_Q>
0

> <r_epik_Metal_State_Penalty>
-0

> <b_epik_Metal_Only>
0

> <s_epik_Chemistry_Notes>
This compound has an imine and may undergo hydrolysis.

> <s_lp_Force_Field>
OPLS_2005

> <r_lp_Energy>
40.2025

> <b_lp_Chiralities_Consistent>
1

> <s_lp_Variant>
AV-unprocessed.smi:586-1

> <Gold.Version>
5.8.1

> <Gold.Id.Protein>
6NUR|6NUR_protein|mol2

> <Gold.PLP.Fitness>
39.5809

> <Gold.PLP.PLP>
-30.2675

> <Gold.PLP.part.hbond>
-5.1873

> <Gold.PLP.part.metal>
0.0000

> <Gold.PLP.part.buried>
-2.6990

> <Gold.PLP.part.nonpolar>
-22.8272

> <Gold.PLP.part.repulsive>
0.1664

> <Gold.PLP.ligand.clash>
0.0000

> <Gold.PLP.ligand.torsion>
2.0684

> <Gold.PLP.Chemscore.Hbond>
3.4426

> <Gold.PLP.Chemscore.CHOScore>
0.0000

> <Gold.PLP.Chemscore.Metal>
0.0000

> <Gold.Chemscore.Hbonds>
donor molecule, donor type, donor heavy atom, donor atom, acceptor molecule, acceptor atom, score
      P1  H  6896  6907       L1    14  0.90
      P1  H  6896  6908       L1    20  0.04
      P1  H  6934  6947       L1    11  1.00
      P1  H  7989  7998       L1    23  0.41
      P1  H  7997  8010       L1    23  0.98

> <Gold.PLP.Chemscore.Internal.Correction>
3.1223

> <Gold.Rescore>
     Score         DG    S(hbond)    S(metal)    S(lipo)     H(rot)  DE(clash)    DE(int)     intcor
     12.74     -14.89       2.49        0.00      54.93       2.08       0.26       1.90       ----

> <Gold.Chemscore.Fitness>
12.7351

> <Gold.Chemscore.DG>
-14.8939

> <Gold.Chemscore.ZeroCoef>
-5.4800

> <Gold.Chemscore.Hbond>
2.4918

> <Gold.Chemscore.Metal>
0.0000

> <Gold.Chemscore.Lipo>
54.9333

> <Gold.Chemscore.Internal_Hbond>
0.0000

> <Gold.Chemscore.DEClash>
0.2628

> <Gold.Chemscore.DEInternal>
1.8960

> <Gold.Chemscore.Rot>
2.0843

> <Gold.Chemscore.Internal.Correction>
   9.000000E+99

> <Gold.Chemscore.Hbonds>
donor molecule, donor type, donor heavy atom, donor atom, acceptor molecule, acceptor atom, score
      P1  H  6896  6907       L1    14  0.18
      P1  H  6896  6908       L1    20  0.06
      P1  H  6934  6947       L1    11  0.73
      P1  H  7989  7998       L1    23  0.35
      P1  H  7997  8010       L1    23  0.80

> <Gold.Chemscore.Hbond.Weighted>
-8.3226

> <Gold.Chemscore.Metal.Weighted>
-0.0000

> <Gold.Chemscore.Lipo.Weighted>
-6.4272

> <Gold.Chemscore.Internal_Hbond.Weighted>
0.0000

> <Gold.Chemscore.DEClash.Weighted>
0.2628

> <Gold.Chemscore.DEInternal.Weighted>
1.8960

> <Gold.Chemscore.Rot.Weighted>
5.3359

> <Gold.Chemscore.Internal.Correction.Weighted>
   9.000000E+99

> <Gold.Protein.RotatedTorsions>
[ 6907 6896 6895 6894 ] final -103.36 input  -60.11 | X-H torsion
[ 7974 7965 7964 7962 ] final   13.89 input  175.53 | X-H torsion
[ 8008 7997 7996 7995 ] final  104.47 input   59.86 | X-H torsion
[ 10167 10162 10161 10158 ] final -108.53 input  -65.29 | X-H torsion
[ 10718 10713 10712 10709 ] final  -10.82 input   66.30 | X-H torsion
[ 10763 10752 10751 10750 ] final  -97.73 input  -60.55 | X-H torsion
[ 11005 11000 10999 10996 ] final -153.48 input  -57.11 | X-H torsion

> <Gold.Protein.ActiveResidues>
 VAL166  LYS551  ARG553  GLY616  TRP617  ASP618  TYR619  PRO620  LYS621  CYS622 
 ASP623  PHE694  ASN695  SER759  ASP760  ASP761  ALA762  ILE779  LEU786  VAL792 
 PHE793  MET794  SER795  GLU796  ALA797  LYS798  CYS799  TRP800  GLU811  SER814 

> <Gold.Protein.RotatedAtoms>
  150.7237  134.0441  159.3775 H   0  0  0  0  0  0  0  0  0  0  0  0  # atno 6907 bound_to 6896
  151.8415  135.0586  160.0458 H   0  0  0  0  0  0  0  0  0  0  0  0  # atno 6908 bound_to 6896
  152.2859  133.5478  159.5563 H   0  0  0  0  0  0  0  0  0  0  0  0  # atno 6909 bound_to 6896
  146.2318  139.9122  142.8522 H   0  0  0  0  0  0  0  0  0  0  0  0  # atno 7974 bound_to 7965
  156.1576  140.3147  155.8752 H   0  0  0  0  0  0  0  0  0  0  0  0  # atno 8008 bound_to 7997
  155.3848  140.0490  157.3059 H   0  0  0  0  0  0  0  0  0  0  0  0  # atno 8009 bound_to 7997
  154.5116  140.2166  155.9157 H   0  0  0  0  0  0  0  0  0  0  0  0  # atno 8010 bound_to 7997
  140.1652  143.4088  152.1396 H   0  0  0  0  0  0  0  0  0  0  0  0  # atno 10167 bound_to 10162
  156.6679  130.5001  149.6009 H   0  0  0  0  0  0  0  0  0  0  0  0  # atno 10718 bound_to 10713
  154.7353  135.5035  153.9032 H   0  0  0  0  0  0  0  0  0  0  0  0  # atno 10763 bound_to 10752
  153.0989  135.6680  153.9718 H   0  0  0  0  0  0  0  0  0  0  0  0  # atno 10764 bound_to 10752
  153.9509  135.3058  155.3418 H   0  0  0  0  0  0  0  0  0  0  0  0  # atno 10765 bound_to 10752
  140.7077  134.3867  157.5202 H   0  0  0  0  0  0  0  0  0  0  0  0  # atno 11005 bound_to 11000
  145.2219  140.9938  143.4041 LP  0  0  0  0  0  0  0  0  0  0  0  0  # atno 17320 bound_to 7965
  144.9603  139.3987  143.6359 LP  0  0  0  0  0  0  0  0  0  0  0  0  # atno 17321 bound_to 7965
  139.5363  144.7212  151.4883 LP  0  0  0  0  0  0  0  0  0  0  0  0  # atno 17342 bound_to 10162
  140.6618  143.8483  150.6896 LP  0  0  0  0  0  0  0  0  0  0  0  0  # atno 17343 bound_to 10162
  156.1961  130.6590  151.1116 LP  0  0  0  0  0  0  0  0  0  0  0  0  # atno 17370 bound_to 10713
  157.7087  131.0744  150.6576 LP  0  0  0  0  0  0  0  0  0  0  0  0  # atno 17371 bound_to 10713
  139.8880  134.8868  156.2499 LP  0  0  0  0  0  0  0  0  0  0  0  0  # atno 17394 bound_to 11000
  141.0111  133.7095  156.1113 LP  0  0  0  0  0  0  0  0  0  0  0  0  # atno 17395 bound_to 11000

$$$$
