AV-unprocessed.smi:1333|AV-procd|sdf|5491|dock4
  -GOLD-   22720 5 73D 1   1.00000     0.00000
 Structure written by MMmdl.
 34 35  0  0  0  0  0  0  0  0  2 V2000
  150.2249  140.4513  154.5593 O   0  0  0  0  0  0  0  0  0  0  0  0
  149.4370  141.3088  154.9677 C   0  0  0  0  0  0  0  0  0  0  0  0
  148.0361  141.4193  154.3512 C   0  0  0  0  0  0  0  0  0  0  0  0
  147.4544  140.1158  154.0048 N   0  0  0  0  0  0  0  0  0  0  0  0
  146.2158  139.6391  154.3519 C   0  0  0  0  0  0  0  0  0  0  0  0
  146.1171  138.3806  153.8165 C   0  0  0  0  0  0  0  0  0  0  0  0
  147.2978  138.1424  153.1655 N   0  3  0  0  0  0  0  0  0  0  0  0
  148.1099  139.1983  153.2811 C   0  0  0  0  0  0  0  0  0  0  0  0
  149.6903  142.2075  155.9467 N   0  0  0  0  0  0  0  0  0  0  0  0
  150.7925  142.4089  156.7081 C   0  0  0  0  0  0  0  0  0  0  0  0
  151.6424  141.5273  156.8219 O   0  0  0  0  0  0  0  0  0  0  0  0
  150.9050  143.6011  157.3239 N   0  0  0  0  0  0  0  0  0  0  0  0
  152.0489  144.0414  158.1176 C   0  0  0  0  0  0  0  0  0  0  0  0
  152.4774  142.9659  159.1359 C   0  0  0  0  0  0  0  0  0  0  0  0
  152.0340  143.4838  160.5040 C   0  0  0  0  0  0  0  0  0  0  0  0
  152.1345  145.0003  160.3770 C   0  0  0  0  0  0  0  0  0  0  0  0
  151.6897  145.2927  158.9425 C   0  0  0  0  0  0  0  0  0  0  0  0
  147.3608  141.9117  155.0522 H   0  0  0  0  0  0  0  0  0  0  0  0
  148.0757  142.0319  153.4492 H   0  0  0  0  0  0  0  0  0  0  0  0
  145.5166  140.2141  154.9420 H   0  0  0  0  0  0  0  0  0  0  0  0
  145.3169  137.6555  153.8506 H   0  0  0  0  0  0  0  0  0  0  0  0
  149.1013  139.2891  152.8740 H   0  0  0  0  0  0  0  0  0  0  0  0
  148.9296  142.8405  156.1467 H   0  0  0  0  0  0  0  0  0  0  0  0
  150.1384  144.2527  157.2334 H   0  0  0  0  0  0  0  0  0  0  0  0
  152.8853  144.2701  157.4545 H   0  0  0  0  0  0  0  0  0  0  0  0
  152.0724  141.9757  158.9230 H   0  0  0  0  0  0  0  0  0  0  0  0
  153.5643  142.8750  159.1227 H   0  0  0  0  0  0  0  0  0  0  0  0
  150.9979  143.1973  160.6878 H   0  0  0  0  0  0  0  0  0  0  0  0
  152.6402  143.0883  161.3194 H   0  0  0  0  0  0  0  0  0  0  0  0
  151.5321  145.5255  161.1188 H   0  0  0  0  0  0  0  0  0  0  0  0
  153.1718  145.3106  160.5106 H   0  0  0  0  0  0  0  0  0  0  0  0
  152.1605  146.1939  158.5485 H   0  0  0  0  0  0  0  0  0  0  0  0
  150.6119  145.4645  158.9338 H   0  0  0  0  0  0  0  0  0  0  0  0
  147.5270  137.2899  152.6699 H   0  0  0  0  0  0  0  0  0  0  0  0
  1  2  2  0  0  0  0
  2  3  1  0  0  0  0
  2  9  1  0  0  0  0
  3  4  1  0  0  0  0
  3 18  1  0  0  0  0
  3 19  1  0  0  0  0
  4  8  1  0  0  0  0
  4  5  1  0  0  0  0
  5  6  2  0  0  0  0
  5 20  1  0  0  0  0
  6  7  1  0  0  0  0
  6 21  1  0  0  0  0
  7  8  2  0  0  0  0
  7 34  1  0  0  0  0
  8 22  1  0  0  0  0
  9 10  1  0  0  0  0
  9 23  1  0  0  0  0
 10 11  2  0  0  0  0
 10 12  1  0  0  0  0
 12 13  1  0  0  0  0
 12 24  1  0  0  0  0
 13 17  1  0  0  0  0
 13 14  1  0  0  0  0
 13 25  1  0  0  0  0
 14 15  1  0  0  0  0
 14 26  1  0  0  0  0
 14 27  1  0  0  0  0
 15 16  1  0  0  0  0
 15 28  1  0  0  0  0
 15 29  1  0  0  0  0
 16 17  1  0  0  0  0
 16 30  1  0  0  0  0
 16 31  1  0  0  0  0
 17 32  1  0  0  0  0
 17 33  1  0  0  0  0
M  CHG  1   7   1
M  END
> <s_m_source_file>
AV-unprocessed.smi

> <i_m_source_file_index>
1333

> <i_lp_mmshare_version>
43012

> <i_f3d_flags>
0

> <s_epik_input>
W2NIXTFuW2NIXVtjSF1uMVtDSDJdQyg9TylbTkhdQyg9TylbTkhdW0NIXTJbQ0gyXVtDSDJdW0NIMl1bQ0gyXTI=

> <s_epik_cmdline>
J2VwaWtfcHl0aG9uJywgJy1waCcsICc3LjAnLCAnLXRuJywgJzgnLCAnLW1hJywgJzIwMCcsICctbWV0YWxfYmluZGluZycsICctaW1hZScsICc8aW5maWxlLm1hZT4nLCAnLW9tYWUnLCAnPG91dGZpbGUubWFlPic=

> <r_lp_tautomer_probability>
1

> <r_epik_Ionization_Penalty>
0.816939

> <r_epik_Ionization_Penalty_Charging>
0

> <r_epik_Ionization_Penalty_Neutral>
0.816939

> <r_epik_State_Penalty>
0.849575

> <r_epik_Charging_Adjusted_Penalty>
0.849575

> <i_epik_Tot_Q>
1

> <i_epik_Tot_abs_Q>
1

> <r_epik_Metal_State_Penalty>
0.984774

> <b_epik_Metal_Only>
0

> <s_lp_Force_Field>
OPLS_2005

> <r_lp_Energy>
25.5003

> <b_lp_Chiralities_Consistent>
1

> <s_lp_Variant>
AV-unprocessed.smi:1333-2

> <Gold.Version>
5.8.1

> <Gold.Id.Protein>
6NUR|6NUR_protein|mol2

> <Gold.PLP.Fitness>
48.6349

> <Gold.PLP.PLP>
-35.2380

> <Gold.PLP.part.hbond>
-4.0000

> <Gold.PLP.part.metal>
0.0000

> <Gold.PLP.part.buried>
-1.2222

> <Gold.PLP.part.nonpolar>
-30.5390

> <Gold.PLP.part.repulsive>
0.2718

> <Gold.PLP.ligand.clash>
0.0000

> <Gold.PLP.ligand.torsion>
0.6370

> <Gold.PLP.Chemscore.Hbond>
3.9508

> <Gold.PLP.Chemscore.CHOScore>
0.9351

> <Gold.PLP.Chemscore.Metal>
0.0000

> <Gold.Chemscore.Hbonds>
donor molecule, donor type, donor heavy atom, donor atom, acceptor molecule, acceptor atom, score
      L1  H     7    34       P1  7948  1.82
      L1  H     9    23       P1  8028  0.51
      L1  H    12    24       P1  8028  0.66
      P1  H  7989  7998       L1     1  0.96
      L1  C     8    22       P1  7957  0.72

> <Gold.PLP.Chemscore.Internal.Correction>
0.0132

> <Gold.Rescore>
     Score         DG    S(hbond)    S(metal)    S(lipo)     H(rot)  DE(clash)    DE(int)     intcor
     12.80     -18.96       2.81        0.00      73.71       1.77       1.56       4.60       ----

> <Gold.Chemscore.Fitness>
12.8028

> <Gold.Chemscore.DG>
-18.9638

> <Gold.Chemscore.ZeroCoef>
-5.4800

> <Gold.Chemscore.Hbond>
2.8106

> <Gold.Chemscore.Metal>
0.0000

> <Gold.Chemscore.Lipo>
73.7092

> <Gold.Chemscore.Internal_Hbond>
0.0000

> <Gold.Chemscore.DEClash>
1.5600

> <Gold.Chemscore.DEInternal>
4.6009

> <Gold.Chemscore.Rot>
1.7686

> <Gold.Chemscore.Internal.Correction>
   9.000000E+99

> <Gold.Chemscore.Hbonds>
donor molecule, donor type, donor heavy atom, donor atom, acceptor molecule, acceptor atom, score
      L1  H     7    34       P1  7948  0.87
      L1  H     9    23       P1  8028  0.52
      L1  H    12    24       P1  8028  0.44
      P1  H  7989  7998       L1     1  0.91

> <Gold.Chemscore.Hbond.Weighted>
-9.3874

> <Gold.Chemscore.Metal.Weighted>
-0.0000

> <Gold.Chemscore.Lipo.Weighted>
-8.6240

> <Gold.Chemscore.Internal_Hbond.Weighted>
0.0000

> <Gold.Chemscore.DEClash.Weighted>
1.5600

> <Gold.Chemscore.DEInternal.Weighted>
4.6009

> <Gold.Chemscore.Rot.Weighted>
4.5277

> <Gold.Chemscore.Internal.Correction.Weighted>
   9.000000E+99

> <Gold.Protein.RotatedTorsions>
[ 6907 6896 6895 6894 ] final   58.03 input  -60.11 | X-H torsion
[ 7974 7965 7964 7962 ] final -146.68 input  175.53 | X-H torsion
[ 8008 7997 7996 7995 ] final  -26.80 input   59.86 | X-H torsion
[ 10167 10162 10161 10158 ] final   71.26 input  -65.29 | X-H torsion
[ 10718 10713 10712 10709 ] final  -24.36 input   66.30 | X-H torsion
[ 10763 10752 10751 10750 ] final  -83.73 input  -60.55 | X-H torsion
[ 11005 11000 10999 10996 ] final   82.15 input  -57.11 | X-H torsion

> <Gold.Protein.ActiveResidues>
 VAL166  LYS551  ARG553  GLY616  TRP617  ASP618  TYR619  PRO620  LYS621  CYS622 
 ASP623  PHE694  ASN695  SER759  ASP760  ASP761  ALA762  ILE779  LEU786  VAL792 
 PHE793  MET794  SER795  GLU796  ALA797  LYS798  CYS799  TRP800  GLU811  SER814 

> <Gold.Protein.RotatedAtoms>
  152.3787  134.6624  160.0150 H   0  0  0  0  0  0  0  0  0  0  0  0  # atno 6907 bound_to 6896
  151.6894  133.3305  159.3247 H   0  0  0  0  0  0  0  0  0  0  0  0  # atno 6908 bound_to 6896
  150.7730  134.6647  159.6403 H   0  0  0  0  0  0  0  0  0  0  0  0  # atno 6909 bound_to 6896
  144.8143  140.5425  143.5621 H   0  0  0  0  0  0  0  0  0  0  0  0  # atno 7974 bound_to 7965
  154.4407  140.1889  156.0832 H   0  0  0  0  0  0  0  0  0  0  0  0  # atno 8008 bound_to 7997
  156.0422  140.3318  155.7231 H   0  0  0  0  0  0  0  0  0  0  0  0  # atno 8009 bound_to 7997
  155.5682  140.0610  157.2804 H   0  0  0  0  0  0  0  0  0  0  0  0  # atno 8010 bound_to 7997
  140.0480  144.5335  150.7384 H   0  0  0  0  0  0  0  0  0  0  0  0  # atno 10167 bound_to 10162
  156.4786  130.4540  149.6825 H   0  0  0  0  0  0  0  0  0  0  0  0  # atno 10718 bound_to 10713
  154.5912  135.5546  153.7280 H   0  0  0  0  0  0  0  0  0  0  0  0  # atno 10763 bound_to 10752
  153.0117  135.6343  154.1847 H   0  0  0  0  0  0  0  0  0  0  0  0  # atno 10764 bound_to 10752
  154.1787  135.2888  155.3038 H   0  0  0  0  0  0  0  0  0  0  0  0  # atno 10765 bound_to 10752
  139.9073  134.8050  156.2136 H   0  0  0  0  0  0  0  0  0  0  0  0  # atno 11005 bound_to 11000
  145.5250  139.1476  143.3531 LP  0  0  0  0  0  0  0  0  0  0  0  0  # atno 17320 bound_to 7965
  146.2445  140.5391  142.8920 LP  0  0  0  0  0  0  0  0  0  0  0  0  # atno 17321 bound_to 7965
  140.7230  143.2607  151.4216 LP  0  0  0  0  0  0  0  0  0  0  0  0  # atno 17342 bound_to 10162
  139.5971  144.1374  152.2156 LP  0  0  0  0  0  0  0  0  0  0  0  0  # atno 17343 bound_to 10162
  156.3544  130.7449  151.2413 LP  0  0  0  0  0  0  0  0  0  0  0  0  # atno 17370 bound_to 10713
  157.7485  131.0368  150.4425 LP  0  0  0  0  0  0  0  0  0  0  0  0  # atno 17371 bound_to 10713
  141.0450  133.6918  156.1666 LP  0  0  0  0  0  0  0  0  0  0  0  0  # atno 17394 bound_to 11000
  140.6898  134.4678  157.5588 LP  0  0  0  0  0  0  0  0  0  0  0  0  # atno 17395 bound_to 11000

$$$$
