AV-unprocessed.smi:2310|AV-procd|sdf|9258|dock5
  -GOLD-   2272012483D 1   1.00000     0.00000
 Structure written by MMmdl.
 46 47  0  0  0  0  0  0  0  0  2 V2000
  148.5702  132.1022  153.3613 C   0  0  0  0  0  0  0  0  0  0  0  0
  148.5966  133.6323  153.4900 C   0  0  0  0  0  0  0  0  0  0  0  0
  149.2055  134.1332  154.8128 C   0  0  1  0  0  0  0  0  0  0  0  0
  150.4586  133.3289  155.1924 C   0  0  0  0  0  0  0  0  0  0  0  0
  150.5772  133.0861  156.6391 C   0  0  0  0  0  0  0  0  0  0  0  0
  150.6719  132.8941  157.7760 N   0  0  0  0  0  0  0  0  0  0  0  0
  149.5455  135.5524  154.7047 N   0  0  0  0  0  0  0  0  0  0  0  0
  149.9542  136.3398  155.7102 C   0  0  0  0  0  0  0  0  0  0  0  0
  150.0923  135.9514  156.8698 O   0  0  0  0  0  0  0  0  0  0  0  0
  150.1695  137.5964  155.2850 N   0  0  0  0  0  0  0  0  0  0  0  0
  150.5572  138.7293  156.0529 C   0  0  0  0  0  0  0  0  0  0  0  0
  151.3740  138.6371  157.2068 C   0  0  0  0  0  0  0  0  0  0  0  0
  151.7228  139.8065  157.9115 C   0  0  0  0  0  0  0  0  0  0  0  0
  151.2613  141.0638  157.4579 C   0  0  0  0  0  0  0  0  0  0  0  0
  151.5681  142.2728  158.1119 N   0  0  0  0  0  0  0  0  0  0  0  0
  151.5744  143.5378  157.3954 C   0  0  0  0  0  0  0  0  0  0  0  0
  152.1543  144.5449  158.3874 C   0  0  0  0  0  0  0  0  0  0  0  0
  153.1304  143.7010  159.2064 C   0  0  0  0  0  0  0  0  0  0  0  0
  152.4769  142.3150  159.2509 C   0  0  0  0  0  0  0  0  0  0  0  0
  150.5047  141.1057  156.3357 N   0  3  0  0  0  0  0  0  0  0  0  0
  150.1446  140.0134  155.6253 C   0  0  0  0  0  0  0  0  0  0  0  0
  149.2907  140.2337  154.3899 C   0  0  0  0  0  0  0  0  0  0  0  0
  148.1792  131.8030  152.3887 H   0  0  0  0  0  0  0  0  0  0  0  0
  147.9391  131.6449  154.1235 H   0  0  0  0  0  0  0  0  0  0  0  0
  149.5718  131.6824  153.4595 H   0  0  0  0  0  0  0  0  0  0  0  0
  149.1703  134.0405  152.6572 H   0  0  0  0  0  0  0  0  0  0  0  0
  147.5839  134.0218  153.3784 H   0  0  0  0  0  0  0  0  0  0  0  0
  148.4631  133.9765  155.5976 H   0  0  0  0  0  0  0  0  0  0  0  0
  150.4448  132.3548  154.7030 H   0  0  0  0  0  0  0  0  0  0  0  0
  151.3619  133.8414  154.8600 H   0  0  0  0  0  0  0  0  0  0  0  0
  149.4575  135.9661  153.7880 H   0  0  0  0  0  0  0  0  0  0  0  0
  149.9373  137.7845  154.3207 H   0  0  0  0  0  0  0  0  0  0  0  0
  151.7517  137.6897  157.5594 H   0  0  0  0  0  0  0  0  0  0  0  0
  152.3449  139.7211  158.7901 H   0  0  0  0  0  0  0  0  0  0  0  0
  152.2137  143.4542  156.5152 H   0  0  0  0  0  0  0  0  0  0  0  0
  150.5731  143.8245  157.0725 H   0  0  0  0  0  0  0  0  0  0  0  0
  152.6295  145.3963  157.8990 H   0  0  0  0  0  0  0  0  0  0  0  0
  151.3636  144.9260  159.0354 H   0  0  0  0  0  0  0  0  0  0  0  0
  154.0847  143.6391  158.6815 H   0  0  0  0  0  0  0  0  0  0  0  0
  153.3211  144.1121  160.1982 H   0  0  0  0  0  0  0  0  0  0  0  0
  151.8972  142.1905  160.1660 H   0  0  0  0  0  0  0  0  0  0  0  0
  153.2315  141.5284  159.2153 H   0  0  0  0  0  0  0  0  0  0  0  0
  148.3371  139.7150  154.4914 H   0  0  0  0  0  0  0  0  0  0  0  0
  149.7982  139.8519  153.5037 H   0  0  0  0  0  0  0  0  0  0  0  0
  149.0850  141.2927  154.2307 H   0  0  0  0  0  0  0  0  0  0  0  0
  150.1853  142.0167  156.0064 H   0  0  0  0  0  0  0  0  0  0  0  0
  1  2  1  0  0  0  0
  1 23  1  0  0  0  0
  1 24  1  0  0  0  0
  1 25  1  0  0  0  0
  2  3  1  0  0  0  0
  2 26  1  0  0  0  0
  2 27  1  0  0  0  0
  3  4  1  0  0  0  0
  3  7  1  0  0  0  0
  3 28  1  0  0  0  0
  4  5  1  0  0  0  0
  4 29  1  0  0  0  0
  4 30  1  0  0  0  0
  5  6  3  0  0  0  0
  7  8  1  0  0  0  0
  7 31  1  0  0  0  0
  8  9  2  0  0  0  0
  8 10  1  0  0  0  0
 10 11  1  0  0  0  0
 10 32  1  0  0  0  0
 11 21  1  0  0  0  0
 11 12  2  0  0  0  0
 12 13  1  0  0  0  0
 12 33  1  0  0  0  0
 13 14  2  0  0  0  0
 13 34  1  0  0  0  0
 14 15  1  0  0  0  0
 14 20  1  0  0  0  0
 15 19  1  0  0  0  0
 15 16  1  0  0  0  0
 16 17  1  0  0  0  0
 16 35  1  0  0  0  0
 16 36  1  0  0  0  0
 17 18  1  0  0  0  0
 17 37  1  0  0  0  0
 17 38  1  0  0  0  0
 18 19  1  0  0  0  0
 18 39  1  0  0  0  0
 18 40  1  0  0  0  0
 19 41  1  0  0  0  0
 19 42  1  0  0  0  0
 20 21  2  0  0  0  0
 20 46  1  0  0  0  0
 21 22  1  0  0  0  0
 22 43  1  0  0  0  0
 22 44  1  0  0  0  0
 22 45  1  0  0  0  0
M  CHG  1  20   1
M  END
> <s_m_source_file>
AV-unprocessed.smi

> <i_m_source_file_index>
2310

> <i_lp_mmshare_version>
43012

> <i_f3d_flags>
0

> <s_epik_input>
TiNDW0NIMl1bQ0BASF0oW0NIMl1bQ0gzXSlbTkhdQyg9TylbTkhdYzFbY0hdW2NIXWMobmMxW0NIM10pTjJbQ0gyXVtDSDJdW0NIMl1bQ0gyXTI=

> <s_epik_cmdline>
J2VwaWtfcHl0aG9uJywgJy1waCcsICc3LjAnLCAnLXRuJywgJzgnLCAnLW1hJywgJzIwMCcsICctbWV0YWxfYmluZGluZycsICctaW1hZScsICc8aW5maWxlLm1hZT4nLCAnLW9tYWUnLCAnPG91dGZpbGUubWFlPic=

> <r_lp_tautomer_probability>
0.999994

> <r_epik_Ionization_Penalty>
0.577302

> <r_epik_Ionization_Penalty_Charging>
0.577278

> <r_epik_Ionization_Penalty_Neutral>
2.39253e-05

> <r_epik_State_Penalty>
0.589738

> <r_epik_Charging_Adjusted_Penalty>
1.16702

> <i_epik_Tot_Q>
1

> <i_epik_Tot_abs_Q>
1

> <r_epik_Metal_State_Penalty>
0.784556

> <b_epik_Metal_Only>
0

> <s_lp_Force_Field>
OPLS_2005

> <r_lp_Energy>
35.6243

> <b_lp_Chiralities_Consistent>
1

> <s_lp_Variant>
AV-unprocessed.smi:2310-4

> <Gold.Version>
5.8.1

> <Gold.Id.Protein>
6NUR|6NUR_protein|mol2

> <Gold.PLP.Fitness>
43.6336

> <Gold.PLP.PLP>
-39.4135

> <Gold.PLP.part.hbond>
-2.0000

> <Gold.PLP.part.metal>
0.0000

> <Gold.PLP.part.buried>
-3.9029

> <Gold.PLP.part.nonpolar>
-33.7280

> <Gold.PLP.part.repulsive>
0.1288

> <Gold.PLP.ligand.clash>
0.0000

> <Gold.PLP.ligand.torsion>
1.0129

> <Gold.PLP.Chemscore.Hbond>
2.0000

> <Gold.PLP.Chemscore.CHOScore>
0.0000

> <Gold.PLP.Chemscore.Metal>
0.0000

> <Gold.Chemscore.Hbonds>
donor molecule, donor type, donor heavy atom, donor atom, acceptor molecule, acceptor atom, score
      L1  H     7    31       P1  7948  1.00
      P1  H  6896  6909       L1     6  1.00

> <Gold.PLP.Chemscore.Internal.Correction>
0.2459

> <Gold.Rescore>
     Score         DG    S(hbond)    S(metal)    S(lipo)     H(rot)  DE(clash)    DE(int)     intcor
     17.45     -19.58       1.94        0.00      97.14       1.47       0.10       2.03       ----

> <Gold.Chemscore.Fitness>
17.4514

> <Gold.Chemscore.DG>
-19.5792

> <Gold.Chemscore.ZeroCoef>
-5.4800

> <Gold.Chemscore.Hbond>
1.9444

> <Gold.Chemscore.Metal>
0.0000

> <Gold.Chemscore.Lipo>
97.1404

> <Gold.Chemscore.Internal_Hbond>
0.0000

> <Gold.Chemscore.DEClash>
0.0977

> <Gold.Chemscore.DEInternal>
2.0301

> <Gold.Chemscore.Rot>
1.4690

> <Gold.Chemscore.Internal.Correction>
   9.000000E+99

> <Gold.Chemscore.Hbonds>
donor molecule, donor type, donor heavy atom, donor atom, acceptor molecule, acceptor atom, score
      L1  H     7    31       P1  7948  0.54
      P1  H  6896  6909       L1     6  0.98

> <Gold.Chemscore.Hbond.Weighted>
-6.4944

> <Gold.Chemscore.Metal.Weighted>
-0.0000

> <Gold.Chemscore.Lipo.Weighted>
-11.3654

> <Gold.Chemscore.Internal_Hbond.Weighted>
0.0000

> <Gold.Chemscore.DEClash.Weighted>
0.0977

> <Gold.Chemscore.DEInternal.Weighted>
2.0301

> <Gold.Chemscore.Rot.Weighted>
3.7606

> <Gold.Chemscore.Internal.Correction.Weighted>
   9.000000E+99

> <Gold.Protein.RotatedTorsions>
[ 6907 6896 6895 6894 ] final  -34.32 input  -60.11 | X-H torsion
[ 7974 7965 7964 7962 ] final -168.84 input  175.53 | X-H torsion
[ 8008 7997 7996 7995 ] final   32.77 input   59.86 | X-H torsion
[ 10167 10162 10161 10158 ] final   79.01 input  -65.29 | X-H torsion
[ 10718 10713 10712 10709 ] final -148.63 input   66.30 | X-H torsion
[ 10763 10752 10751 10750 ] final -170.34 input  -60.55 | X-H torsion
[ 11005 11000 10999 10996 ] final  111.28 input  -57.11 | X-H torsion

> <Gold.Protein.ActiveResidues>
 VAL166  LYS551  ARG553  GLY616  TRP617  ASP618  TYR619  PRO620  LYS621  CYS622 
 ASP623  PHE694  ASN695  SER759  ASP760  ASP761  ALA762  ILE779  LEU786  VAL792 
 PHE793  MET794  SER795  GLU796  ALA797  LYS798  CYS799  TRP800  GLU811  SER814 

> <Gold.Protein.RotatedAtoms>
  151.0541  134.9693  159.8226 H   0  0  0  0  0  0  0  0  0  0  0  0  # atno 6907 bound_to 6896
  152.5385  134.2500  159.8905 H   0  0  0  0  0  0  0  0  0  0  0  0  # atno 6908 bound_to 6896
  151.2517  133.4304  159.2645 H   0  0  0  0  0  0  0  0  0  0  0  0  # atno 6909 bound_to 6896
  144.7196  140.2310  143.6304 H   0  0  0  0  0  0  0  0  0  0  0  0  # atno 7974 bound_to 7965
  155.1279  140.3254  155.4481 H   0  0  0  0  0  0  0  0  0  0  0  0  # atno 8008 bound_to 7997
  156.2643  140.2015  156.6347 H   0  0  0  0  0  0  0  0  0  0  0  0  # atno 8009 bound_to 7997
  154.6635  140.0544  157.0075 H   0  0  0  0  0  0  0  0  0  0  0  0  # atno 8010 bound_to 7997
  139.9649  144.5935  150.8038 H   0  0  0  0  0  0  0  0  0  0  0  0  # atno 10167 bound_to 10162
  156.4227  130.8036  151.2260 H   0  0  0  0  0  0  0  0  0  0  0  0  # atno 10718 bound_to 10713
  154.6426  135.2900  155.0085 H   0  0  0  0  0  0  0  0  0  0  0  0  # atno 10763 bound_to 10752
  154.1207  135.6548  153.4906 H   0  0  0  0  0  0  0  0  0  0  0  0  # atno 10764 bound_to 10752
  153.0334  135.5287  154.7299 H   0  0  0  0  0  0  0  0  0  0  0  0  # atno 10765 bound_to 10752
  139.8900  134.9504  156.6408 H   0  0  0  0  0  0  0  0  0  0  0  0  # atno 11005 bound_to 11000
  145.8411  139.2130  143.1827 LP  0  0  0  0  0  0  0  0  0  0  0  0  # atno 17320 bound_to 7965
  146.0346  140.8225  142.9859 LP  0  0  0  0  0  0  0  0  0  0  0  0  # atno 17321 bound_to 7965
  140.7541  143.3021  151.3054 LP  0  0  0  0  0  0  0  0  0  0  0  0  # atno 17342 bound_to 10162
  139.6525  144.0335  152.2637 LP  0  0  0  0  0  0  0  0  0  0  0  0  # atno 17343 bound_to 10162
  157.7508  131.0223  150.3786 LP  0  0  0  0  0  0  0  0  0  0  0  0  # atno 17370 bound_to 10713
  156.4107  130.3933  149.6894 LP  0  0  0  0  0  0  0  0  0  0  0  0  # atno 17371 bound_to 10713
  140.7595  133.8829  155.8407 LP  0  0  0  0  0  0  0  0  0  0  0  0  # atno 17394 bound_to 11000
  140.9934  134.1248  157.4387 LP  0  0  0  0  0  0  0  0  0  0  0  0  # atno 17395 bound_to 11000

$$$$
