AV-unprocessed.smi:1965|AV-procd|sdf|7946|dock10
  -GOLD-   2272010113D 1   1.00000     0.00000
 Structure written by MMmdl.
 36 38  0  0  0  0  0  0  0  0  3 V2000
  151.0595  140.2729  158.4152 O   0  0  0  0  0  0  0  0  0  0  0  0
  151.9042  140.7635  157.6674 C   0  0  0  0  0  0  0  0  0  0  0  0
  152.5495  140.0572  156.7034 N   0  5  0  0  0  0  0  0  0  0  0  0
  151.8969  139.3439  155.7673 C   0  0  0  0  0  0  0  0  0  0  0  0
  152.3770  138.2090  155.2459 N   0  0  0  0  0  0  0  0  0  0  0  0
  151.5337  137.6363  154.2920 C   0  0  0  0  0  0  0  0  0  0  0  0
  150.3847  138.3515  154.0833 C   0  0  0  0  0  0  0  0  0  0  0  0
  150.3240  139.7706  155.0890 S   0  0  0  0  0  0  0  0  0  0  0  0
  152.2199  142.0651  157.8105 N   0  0  0  0  0  0  0  0  0  0  0  0
  151.6577  142.9742  158.8038 C   0  0  2  0  0  0  0  0  0  0  0  0
  152.1298  144.4127  158.6393 C   0  0  0  0  0  0  0  0  0  0  0  0
  151.8292  145.0327  160.0076 C   0  0  0  0  0  0  0  0  0  0  0  0
  151.8528  143.9264  160.9965 N   0  3  2  0  0  0  0  0  0  0  0  0
  152.7833  144.1506  162.1352 C   0  0  0  0  0  0  0  0  0  0  0  0
  153.0700  142.8378  162.8788 C   0  0  0  0  0  0  0  0  0  0  0  0
  153.7583  141.8103  161.9605 C   0  0  0  0  0  0  0  0  0  0  0  0
  153.4575  142.0572  160.4695 C   0  0  0  0  0  0  0  0  0  0  0  0
  152.0400  142.6453  160.2590 C   0  0  2  0  0  0  0  0  0  0  0  0
  151.8311  136.7168  153.8102 H   0  0  0  0  0  0  0  0  0  0  0  0
  149.5731  138.1298  153.4069 H   0  0  0  0  0  0  0  0  0  0  0  0
  152.9175  142.4437  157.1864 H   0  0  0  0  0  0  0  0  0  0  0  0
  150.5692  142.9693  158.7135 H   0  0  0  0  0  0  0  0  0  0  0  0
  153.2040  144.4385  158.4492 H   0  0  0  0  0  0  0  0  0  0  0  0
  151.6311  144.9326  157.8204 H   0  0  0  0  0  0  0  0  0  0  0  0
  152.5279  145.8364  160.2440 H   0  0  0  0  0  0  0  0  0  0  0  0
  150.8272  145.4626  160.0117 H   0  0  0  0  0  0  0  0  0  0  0  0
  153.7252  144.5690  161.7758 H   0  0  0  0  0  0  0  0  0  0  0  0
  152.3469  144.8881  162.8095 H   0  0  0  0  0  0  0  0  0  0  0  0
  153.6861  143.0222  163.7594 H   0  0  0  0  0  0  0  0  0  0  0  0
  152.1291  142.4258  163.2464 H   0  0  0  0  0  0  0  0  0  0  0  0
  154.8379  141.8359  162.1118 H   0  0  0  0  0  0  0  0  0  0  0  0
  153.4367  140.8080  162.2456 H   0  0  0  0  0  0  0  0  0  0  0  0
  154.1977  142.7463  160.0604 H   0  0  0  0  0  0  0  0  0  0  0  0
  153.5833  141.1217  159.9239 H   0  0  0  0  0  0  0  0  0  0  0  0
  151.3242  141.9226  160.6538 H   0  0  0  0  0  0  0  0  0  0  0  0
  150.9228  143.8786  161.3871 H   0  0  0  0  0  0  0  0  0  0  0  0
  1  2  2  0  0  0  0
  2  3  1  0  0  0  0
  2  9  1  0  0  0  0
  3  4  1  0  0  0  0
  4  8  1  0  0  0  0
  4  5  2  0  0  0  0
  5  6  1  0  0  0  0
  6  7  2  0  0  0  0
  6 19  1  0  0  0  0
  7  8  1  0  0  0  0
  7 20  1  0  0  0  0
  9 10  1  0  0  0  0
  9 21  1  0  0  0  0
 10 18  1  0  0  0  0
 10 11  1  0  0  0  0
 10 22  1  0  0  0  0
 11 12  1  0  0  0  0
 11 23  1  0  0  0  0
 11 24  1  0  0  0  0
 12 13  1  0  0  0  0
 12 25  1  0  0  0  0
 12 26  1  0  0  0  0
 13 18  1  0  0  0  0
 13 14  1  0  0  0  0
 13 36  1  0  0  0  0
 14 15  1  0  0  0  0
 14 27  1  0  0  0  0
 14 28  1  0  0  0  0
 15 16  1  0  0  0  0
 15 29  1  0  0  0  0
 15 30  1  0  0  0  0
 16 17  1  0  0  0  0
 16 31  1  0  0  0  0
 16 32  1  0  0  0  0
 17 18  1  0  0  0  0
 17 33  1  0  0  0  0
 17 34  1  0  0  0  0
 18 35  1  0  0  0  0
M  CHG  1   3  -1
M  CHG  1  13   1
M  END
> <s_m_source_file>
AV-unprocessed.smi

> <i_m_source_file_index>
1965

> <i_lp_mmshare_version>
43012

> <i_f3d_flags>
0

> <s_epik_input>
czFbY0hdW2NIXW5jMVtOSF1DKD1PKVtOSF1bQ0BIXShbQ0gyXVtDSDJdMilbQ0BASF0oTjIzKVtDSDJdW0NIMl1bQ0gyXVtDSDJdMw==

> <s_epik_cmdline>
J2VwaWtfcHl0aG9uJywgJy1waCcsICc3LjAnLCAnLXRuJywgJzgnLCAnLW1hJywgJzIwMCcsICctbWV0YWxfYmluZGluZycsICctaW1hZScsICc8aW5maWxlLm1hZT4nLCAnLW9tYWUnLCAnPG91dGZpbGUubWFlPic=

> <r_lp_tautomer_probability>
1

> <r_epik_Ionization_Penalty>
7.4116

> <r_epik_Ionization_Penalty_Charging>
6.13869

> <r_epik_Ionization_Penalty_Neutral>
1.27291

> <r_epik_State_Penalty>
6.13761

> <r_epik_Charging_Adjusted_Penalty>
12.2763

> <i_epik_Tot_Q>
0

> <i_epik_Tot_abs_Q>
2

> <r_epik_Metal_State_Penalty>
2.08142

> <b_epik_Metal_Only>
1

> <s_lp_Force_Field>
OPLS_2005

> <r_lp_Energy>
32.0333

> <b_lp_Chiralities_Consistent>
1

> <s_lp_Variant>
AV-unprocessed.smi:1965-15

> <Gold.Version>
5.8.1

> <Gold.Id.Protein>
6NUR|6NUR_protein|mol2

> <Gold.PLP.Fitness>
52.3916

> <Gold.PLP.PLP>
-40.7734

> <Gold.PLP.part.hbond>
-1.0000

> <Gold.PLP.part.metal>
0.0000

> <Gold.PLP.part.buried>
1.3794

> <Gold.PLP.part.nonpolar>
-37.5975

> <Gold.PLP.part.repulsive>
0.1704

> <Gold.PLP.ligand.clash>
0.0000

> <Gold.PLP.ligand.torsion>
0.7317

> <Gold.PLP.Chemscore.Hbond>
2.0000

> <Gold.PLP.Chemscore.CHOScore>
2.3594

> <Gold.PLP.Chemscore.Metal>
0.0000

> <Gold.Chemscore.Hbonds>
donor molecule, donor type, donor heavy atom, donor atom, acceptor molecule, acceptor atom, score
      P1  H  7997  8008       L1     3  2.00
      L1  C     6    19       P1  7949  0.92
      L1  C     7    20       P1  7948  1.00

> <Gold.PLP.Chemscore.Internal.Correction>
0.0034

> <Gold.Rescore>
     Score         DG    S(hbond)    S(metal)    S(lipo)     H(rot)  DE(clash)    DE(int)     intcor
     16.09     -18.97       0.90        0.00     111.38       1.00       1.84       1.04       ----

> <Gold.Chemscore.Fitness>
16.0926

> <Gold.Chemscore.DG>
-18.9672

> <Gold.Chemscore.ZeroCoef>
-5.4800

> <Gold.Chemscore.Hbond>
0.9029

> <Gold.Chemscore.Metal>
0.0000

> <Gold.Chemscore.Lipo>
111.3797

> <Gold.Chemscore.Internal_Hbond>
0.0000

> <Gold.Chemscore.DEClash>
1.8375

> <Gold.Chemscore.DEInternal>
1.0370

> <Gold.Chemscore.Rot>
1.0000

> <Gold.Chemscore.Internal.Correction>
   9.000000E+99

> <Gold.Chemscore.Hbonds>
donor molecule, donor type, donor heavy atom, donor atom, acceptor molecule, acceptor atom, score
      P1  H  7997  8008       L1     3  0.72

> <Gold.Chemscore.Hbond.Weighted>
-3.0158

> <Gold.Chemscore.Metal.Weighted>
-0.0000

> <Gold.Chemscore.Lipo.Weighted>
-13.0314

> <Gold.Chemscore.Internal_Hbond.Weighted>
0.0000

> <Gold.Chemscore.DEClash.Weighted>
1.8375

> <Gold.Chemscore.DEInternal.Weighted>
1.0370

> <Gold.Chemscore.Rot.Weighted>
2.5600

> <Gold.Chemscore.Internal.Correction.Weighted>
   9.000000E+99

> <Gold.Protein.RotatedTorsions>
[ 6907 6896 6895 6894 ] final  179.20 input  -60.11 | X-H torsion
[ 7974 7965 7964 7962 ] final   70.02 input  175.53 | X-H torsion
[ 8008 7997 7996 7995 ] final  -38.64 input   59.86 | X-H torsion
[ 10167 10162 10161 10158 ] final -160.15 input  -65.29 | X-H torsion
[ 10718 10713 10712 10709 ] final  126.80 input   66.30 | X-H torsion
[ 10763 10752 10751 10750 ] final  -11.39 input  -60.55 | X-H torsion
[ 11005 11000 10999 10996 ] final  -62.34 input  -57.11 | X-H torsion

> <Gold.Protein.ActiveResidues>
 VAL166  LYS551  ARG553  GLY616  TRP617  ASP618  TYR619  PRO620  LYS621  CYS622 
 ASP623  PHE694  ASN695  SER759  ASP760  ASP761  ALA762  ILE779  LEU786  VAL792 
 PHE793  MET794  SER795  GLU796  ALA797  LYS798  CYS799  TRP800  GLU811  SER814 

> <Gold.Protein.RotatedAtoms>
  151.6755  133.3313  159.3206 H   0  0  0  0  0  0  0  0  0  0  0  0  # atno 6907 bound_to 6896
  150.7847  134.6826  159.6462 H   0  0  0  0  0  0  0  0  0  0  0  0  # atno 6908 bound_to 6896
  152.3914  134.6438  160.0158 H   0  0  0  0  0  0  0  0  0  0  0  0  # atno 6909 bound_to 6896
  145.7833  139.2898  143.1253 H   0  0  0  0  0  0  0  0  0  0  0  0  # atno 7974 bound_to 7965
  154.4034  140.1572  156.2734 H   0  0  0  0  0  0  0  0  0  0  0  0  # atno 8008 bound_to 7997
  155.8934  140.3437  155.5950 H   0  0  0  0  0  0  0  0  0  0  0  0  # atno 8009 bound_to 7997
  155.7532  140.0807  157.2181 H   0  0  0  0  0  0  0  0  0  0  0  0  # atno 8010 bound_to 7997
  139.6561  143.9997  152.2194 H   0  0  0  0  0  0  0  0  0  0  0  0  # atno 10167 bound_to 10162
  157.5388  131.1097  150.8893 H   0  0  0  0  0  0  0  0  0  0  0  0  # atno 10718 bound_to 10713
  153.4830  135.7017  153.5927 H   0  0  0  0  0  0  0  0  0  0  0  0  # atno 10763 bound_to 10752
  153.4132  135.3843  155.2064 H   0  0  0  0  0  0  0  0  0  0  0  0  # atno 10764 bound_to 10752
  154.8721  135.3909  154.4282 H   0  0  0  0  0  0  0  0  0  0  0  0  # atno 10765 bound_to 10752
  141.1356  133.6639  156.5513 H   0  0  0  0  0  0  0  0  0  0  0  0  # atno 11005 bound_to 11000
  146.0052  140.8485  142.9998 LP  0  0  0  0  0  0  0  0  0  0  0  0  # atno 17320 bound_to 7965
  144.6793  140.2410  143.7343 LP  0  0  0  0  0  0  0  0  0  0  0  0  # atno 17321 bound_to 7965
  139.9723  144.6485  150.7977 LP  0  0  0  0  0  0  0  0  0  0  0  0  # atno 17342 bound_to 10162
  140.7559  143.3056  151.2970 LP  0  0  0  0  0  0  0  0  0  0  0  0  # atno 17343 bound_to 10162
  156.9452  130.5399  149.5281 LP  0  0  0  0  0  0  0  0  0  0  0  0  # atno 17370 bound_to 10713
  156.0480  130.5553  150.8924 LP  0  0  0  0  0  0  0  0  0  0  0  0  # atno 17371 bound_to 10713
  140.4061  134.7313  157.4809 LP  0  0  0  0  0  0  0  0  0  0  0  0  # atno 17394 bound_to 11000
  140.0461  134.6198  155.8920 LP  0  0  0  0  0  0  0  0  0  0  0  0  # atno 17395 bound_to 11000

$$$$
