AV-unprocessed.smi:3350|AV-procd|sdf|12944|dock3
  -GOLD-   2272019373D 1   1.00000     0.00000
 Structure written by MMmdl.
 41 42  0  0  0  0  0  0  0  0  1 V2000
  145.5712  137.6422  152.1876 C   0  0  0  0  0  0  0  0  0  0  0  0
  145.4117  136.1158  152.1835 C   0  0  1  0  0  0  0  0  0  0  0  0
  144.9924  135.5992  150.7900 C   0  0  0  0  0  0  0  0  0  0  0  0
  145.1530  134.1626  150.6506 N   0  0  0  0  0  0  0  0  0  0  0  0
  144.1763  133.2021  150.4906 C   0  0  0  0  0  0  0  0  0  0  0  0
  144.8064  131.9961  150.3812 C   0  0  0  0  0  0  0  0  0  0  0  0
  146.1862  132.3251  150.4936 C   0  0  0  0  0  0  0  0  0  0  0  0
  146.3903  133.6220  150.6592 N   0  0  0  0  0  0  0  0  0  0  0  0
  146.6722  135.5070  152.6075 N   0  0  0  0  0  0  0  0  0  0  0  0
  146.7939  134.3735  153.3139 C   0  0  0  0  0  0  0  0  0  0  0  0
  145.8411  133.7085  153.7201 O   0  0  0  0  0  0  0  0  0  0  0  0
  148.0819  134.0457  153.4998 N   0  0  0  0  0  0  0  0  0  0  0  0
  148.6073  132.8591  154.1793 C   0  0  2  0  0  0  0  0  0  0  0  0
  150.0594  133.0826  154.6440 C   0  0  0  0  0  0  0  0  0  0  0  0
  148.4354  131.5837  153.3244 C   0  0  1  0  0  0  0  0  0  0  0  0
  148.7291  130.2780  154.0637 C   0  0  0  0  0  0  0  0  0  0  0  0
  147.9216  129.2435  153.2956 C   0  0  0  0  0  0  0  0  0  0  0  0
  146.9352  130.0764  152.4721 C   0  0  0  0  0  0  0  0  0  0  0  0
  147.0768  131.4057  152.9534 O   0  0  0  0  0  0  0  0  0  0  0  0
  144.6374  138.1341  151.9142 H   0  0  0  0  0  0  0  0  0  0  0  0
  146.3363  137.9647  151.4805 H   0  0  0  0  0  0  0  0  0  0  0  0
  145.8554  138.0051  153.1760 H   0  0  0  0  0  0  0  0  0  0  0  0
  144.6245  135.8737  152.9002 H   0  0  0  0  0  0  0  0  0  0  0  0
  143.9457  135.8405  150.5992 H   0  0  0  0  0  0  0  0  0  0  0  0
  145.5710  136.0929  150.0077 H   0  0  0  0  0  0  0  0  0  0  0  0
  143.1270  133.4555  150.4582 H   0  0  0  0  0  0  0  0  0  0  0  0
  144.3518  131.0271  150.2393 H   0  0  0  0  0  0  0  0  0  0  0  0
  147.0399  131.6646  150.4600 H   0  0  0  0  0  0  0  0  0  0  0  0
  147.5186  135.9768  152.3217 H   0  0  0  0  0  0  0  0  0  0  0  0
  148.7744  134.6759  153.1229 H   0  0  0  0  0  0  0  0  0  0  0  0
  147.9947  132.7456  155.0742 H   0  0  0  0  0  0  0  0  0  0  0  0
  150.3966  132.2689  155.2859 H   0  0  0  0  0  0  0  0  0  0  0  0
  150.1507  134.0063  155.2163 H   0  0  0  0  0  0  0  0  0  0  0  0
  150.7505  133.1422  153.8029 H   0  0  0  0  0  0  0  0  0  0  0  0
  149.0448  131.6308  152.4203 H   0  0  0  0  0  0  0  0  0  0  0  0
  149.7932  130.0428  154.0981 H   0  0  0  0  0  0  0  0  0  0  0  0
  148.3641  130.3348  155.0902 H   0  0  0  0  0  0  0  0  0  0  0  0
  148.5587  128.6474  152.6414 H   0  0  0  0  0  0  0  0  0  0  0  0
  147.4087  128.5633  153.9764 H   0  0  0  0  0  0  0  0  0  0  0  0
  147.1991  130.0476  151.4141 H   0  0  0  0  0  0  0  0  0  0  0  0
  145.9064  129.7312  152.5755 H   0  0  0  0  0  0  0  0  0  0  0  0
  1  2  1  0  0  0  0
  1 20  1  0  0  0  0
  1 21  1  0  0  0  0
  1 22  1  0  0  0  0
  2  3  1  0  0  0  0
  2  9  1  0  0  0  0
  2 23  1  0  0  0  0
  3  4  1  0  0  0  0
  3 24  1  0  0  0  0
  3 25  1  0  0  0  0
  4  8  1  0  0  0  0
  4  5  1  0  0  0  0
  5  6  2  0  0  0  0
  5 26  1  0  0  0  0
  6  7  1  0  0  0  0
  6 27  1  0  0  0  0
  7  8  2  0  0  0  0
  7 28  1  0  0  0  0
  9 10  1  0  0  0  0
  9 29  1  0  0  0  0
 10 11  2  0  0  0  0
 10 12  1  0  0  0  0
 12 13  1  0  0  0  0
 12 30  1  0  0  0  0
 13 14  1  0  0  0  0
 13 15  1  0  0  0  0
 13 31  1  0  0  0  0
 14 32  1  0  0  0  0
 14 33  1  0  0  0  0
 14 34  1  0  0  0  0
 15 19  1  0  0  0  0
 15 16  1  0  0  0  0
 15 35  1  0  0  0  0
 16 17  1  0  0  0  0
 16 36  1  0  0  0  0
 16 37  1  0  0  0  0
 17 18  1  0  0  0  0
 17 38  1  0  0  0  0
 17 39  1  0  0  0  0
 18 19  1  0  0  0  0
 18 40  1  0  0  0  0
 18 41  1  0  0  0  0
M  END
> <s_m_source_file>
AV-unprocessed.smi

> <i_m_source_file_index>
3350

> <i_lp_mmshare_version>
43012

> <i_f3d_flags>
0

> <s_epik_input>
bjFbY0hdW2NIXVtjSF1uMVtDSDJdW0NAQEhdKFtDSDNdKVtOSF1DKD1PKVtOSF1bQ0BIXShbQ0gzXSlbQ0BASF0yW0NIMl1bQ0gyXVtDSDJdTzI=

> <s_epik_cmdline>
J2VwaWtfcHl0aG9uJywgJy1waCcsICc3LjAnLCAnLXRuJywgJzgnLCAnLW1hJywgJzIwMCcsICctbWV0YWxfYmluZGluZycsICctaW1hZScsICc8aW5maWxlLm1hZT4nLCAnLW9tYWUnLCAnPG91dGZpbGUubWFlPic=

> <r_lp_tautomer_probability>
1

> <r_epik_Ionization_Penalty>
6.42349e-05

> <r_epik_Ionization_Penalty_Charging>
0

> <r_epik_Ionization_Penalty_Neutral>
6.42349e-05

> <r_epik_State_Penalty>
-0

> <r_epik_Charging_Adjusted_Penalty>
0

> <i_epik_Tot_Q>
0

> <i_epik_Tot_abs_Q>
0

> <r_epik_Metal_State_Penalty>
-0

> <b_epik_Metal_Only>
0

> <s_lp_Force_Field>
OPLS_2005

> <r_lp_Energy>
15.9813

> <b_lp_Chiralities_Consistent>
1

> <s_lp_Variant>
AV-unprocessed.smi:3350-6

> <Gold.Version>
5.8.1

> <Gold.Id.Protein>
6NUR|6NUR_protein|mol2

> <Gold.PLP.Fitness>
41.8642

> <Gold.PLP.PLP>
-31.7641

> <Gold.PLP.part.hbond>
-1.9636

> <Gold.PLP.part.metal>
0.0000

> <Gold.PLP.part.buried>
-2.3579

> <Gold.PLP.part.nonpolar>
-27.9033

> <Gold.PLP.part.repulsive>
0.4342

> <Gold.PLP.ligand.clash>
0.0000

> <Gold.PLP.ligand.torsion>
0.7920

> <Gold.PLP.Chemscore.Hbond>
1.8640

> <Gold.PLP.Chemscore.CHOScore>
2.0000

> <Gold.PLP.Chemscore.Metal>
0.0000

> <Gold.Chemscore.Hbonds>
donor molecule, donor type, donor heavy atom, donor atom, acceptor molecule, acceptor atom, score
      L1  H     9    29       P1  7948  0.96
      L1  H    12    30       P1  7948  0.75
      L1  C     5    26       P1 10186  1.00
      L1  C     7    28       P1 10747  1.00

> <Gold.PLP.Chemscore.Internal.Correction>
0.0922

> <Gold.Rescore>
     Score         DG    S(hbond)    S(metal)    S(lipo)     H(rot)  DE(clash)    DE(int)     intcor
     10.73     -15.92       1.75        0.00      79.00       1.82       1.65       3.54       ----

> <Gold.Chemscore.Fitness>
10.7264

> <Gold.Chemscore.DG>
-15.9179

> <Gold.Chemscore.ZeroCoef>
-5.4800

> <Gold.Chemscore.Hbond>
1.7525

> <Gold.Chemscore.Metal>
0.0000

> <Gold.Chemscore.Lipo>
79.0002

> <Gold.Chemscore.Internal_Hbond>
0.0000

> <Gold.Chemscore.DEClash>
1.6491

> <Gold.Chemscore.DEInternal>
3.5424

> <Gold.Chemscore.Rot>
1.8197

> <Gold.Chemscore.Internal.Correction>
   9.000000E+99

> <Gold.Chemscore.Hbonds>
donor molecule, donor type, donor heavy atom, donor atom, acceptor molecule, acceptor atom, score
      L1  H     9    29       P1  7948  0.90
      L1  H    12    30       P1  7948  0.15

> <Gold.Chemscore.Hbond.Weighted>
-5.8532

> <Gold.Chemscore.Metal.Weighted>
-0.0000

> <Gold.Chemscore.Lipo.Weighted>
-9.2430

> <Gold.Chemscore.Internal_Hbond.Weighted>
0.0000

> <Gold.Chemscore.DEClash.Weighted>
1.6491

> <Gold.Chemscore.DEInternal.Weighted>
3.5424

> <Gold.Chemscore.Rot.Weighted>
4.6583

> <Gold.Chemscore.Internal.Correction.Weighted>
   9.000000E+99

> <Gold.Protein.RotatedTorsions>
[ 6907 6896 6895 6894 ] final  104.14 input  -60.11 | X-H torsion
[ 7974 7965 7964 7962 ] final   18.76 input  175.53 | X-H torsion
[ 8008 7997 7996 7995 ] final  -22.25 input   59.86 | X-H torsion
[ 10167 10162 10161 10158 ] final -136.34 input  -65.29 | X-H torsion
[ 10718 10713 10712 10709 ] final  -21.65 input   66.30 | X-H torsion
[ 10763 10752 10751 10750 ] final  -55.41 input  -60.55 | X-H torsion
[ 11005 11000 10999 10996 ] final   79.32 input  -57.11 | X-H torsion

> <Gold.Protein.ActiveResidues>
 VAL166  LYS551  ARG553  GLY616  TRP617  ASP618  TYR619  PRO620  LYS621  CYS622 
 ASP623  PHE694  ASN695  SER759  ASP760  ASP761  ALA762  ILE779  LEU786  VAL792 
 PHE793  MET794  SER795  GLU796  ALA797  LYS798  CYS799  TRP800  GLU811  SER814 

> <Gold.Protein.RotatedAtoms>
  152.5274  133.9722  159.7766 H   0  0  0  0  0  0  0  0  0  0  0  0  # atno 6907 bound_to 6896
  150.9991  133.6065  159.2704 H   0  0  0  0  0  0  0  0  0  0  0  0  # atno 6908 bound_to 6896
  151.3181  135.0818  159.9349 H   0  0  0  0  0  0  0  0  0  0  0  0  # atno 6909 bound_to 6896
  146.2173  139.8410  142.8641 H   0  0  0  0  0  0  0  0  0  0  0  0  # atno 7974 bound_to 7965
  154.4656  140.2013  156.0129 H   0  0  0  0  0  0  0  0  0  0  0  0  # atno 8008 bound_to 7997
  156.0920  140.3256  155.7799 H   0  0  0  0  0  0  0  0  0  0  0  0  # atno 8009 bound_to 7997
  155.4941  140.0548  157.2940 H   0  0  0  0  0  0  0  0  0  0  0  0  # atno 8010 bound_to 7997
  139.8688  143.6984  152.2642 H   0  0  0  0  0  0  0  0  0  0  0  0  # atno 10167 bound_to 10162
  156.5153  130.4619  149.6626 H   0  0  0  0  0  0  0  0  0  0  0  0  # atno 10718 bound_to 10713
  154.1903  135.6428  153.5058 H   0  0  0  0  0  0  0  0  0  0  0  0  # atno 10763 bound_to 10752
  153.0037  135.5427  154.6422 H   0  0  0  0  0  0  0  0  0  0  0  0  # atno 10764 bound_to 10752
  154.5809  135.2925  155.0706 H   0  0  0  0  0  0  0  0  0  0  0  0  # atno 10765 bound_to 10752
  139.9177  134.7833  156.1763 H   0  0  0  0  0  0  0  0  0  0  0  0  # atno 11005 bound_to 11000
  145.2898  141.0164  143.3669 LP  0  0  0  0  0  0  0  0  0  0  0  0  # atno 17320 bound_to 7965
  144.9086  139.4558  143.6598 LP  0  0  0  0  0  0  0  0  0  0  0  0  # atno 17321 bound_to 7965
  139.7304  144.7583  151.0812 LP  0  0  0  0  0  0  0  0  0  0  0  0  # atno 17342 bound_to 10162
  140.7764  143.5096  150.9669 LP  0  0  0  0  0  0  0  0  0  0  0  0  # atno 17343 bound_to 10162
  156.3201  130.7276  151.2186 LP  0  0  0  0  0  0  0  0  0  0  0  0  # atno 17370 bound_to 10713
  157.7445  131.0458  150.4860 LP  0  0  0  0  0  0  0  0  0  0  0  0  # atno 17371 bound_to 10713
  141.0669  133.6815  156.2063 LP  0  0  0  0  0  0  0  0  0  0  0  0  # atno 17394 bound_to 11000
  140.6570  134.5008  157.5581 LP  0  0  0  0  0  0  0  0  0  0  0  0  # atno 17395 bound_to 11000

$$$$
