AV-unprocessed.smi:1535|AV-procd|sdf|6179|dock6
  -GOLD-   22720 6333D 1   1.00000     0.00000
 Structure written by MMmdl.
 47 48  0  0  0  0  0  0  0  0  2 V2000
  152.7585  141.5740  159.3155 C   0  0  0  0  0  0  0  0  0  0  0  0
  151.8223  141.4752  158.1239 C   0  0  0  0  0  0  0  0  0  0  0  0
  151.9149  140.3539  157.2688 C   0  0  0  0  0  0  0  0  0  0  0  0
  151.0617  140.2230  156.1513 C   0  0  0  0  0  0  0  0  0  0  0  0
  150.9767  139.2245  155.1963 N   0  0  0  0  0  0  0  0  0  0  0  0
  149.9946  139.6764  154.4221 C   0  0  0  0  0  0  0  0  0  0  0  0
  149.4340  140.8534  154.7618 N   0  0  0  0  0  0  0  0  0  0  0  0
  148.3615  141.5492  154.0736 C   0  0  0  0  0  0  0  0  0  0  0  0
  146.9775  140.9592  154.4042 C   0  0  1  0  0  0  0  0  0  0  0  0
  145.9738  141.7596  153.8085 O   0  0  0  0  0  0  0  0  0  0  0  0
  146.8282  139.5134  153.8910 C   0  0  0  0  0  0  0  0  0  0  0  0
  145.4728  138.9597  154.1522 N   0  3  2  0  0  0  0  0  0  0  0  0
  144.9695  139.3021  155.5053 C   0  0  0  0  0  0  0  0  0  0  0  0
  145.3864  137.5035  153.8620 C   0  0  0  0  0  0  0  0  0  0  0  0
  145.1015  137.2006  152.3778 C   0  0  2  0  0  0  0  0  0  0  0  0
  145.0690  135.6903  152.1105 C   0  0  0  0  0  0  0  0  0  0  0  0
  146.0798  137.8631  151.4996 C   0  0  0  0  0  0  0  0  0  0  0  0
  146.8451  138.3844  150.8070 N   0  0  0  0  0  0  0  0  0  0  0  0
  150.1082  141.2546  155.9093 C   0  0  0  0  0  0  0  0  0  0  0  0
  150.0065  142.3753  156.7520 C   0  0  0  0  0  0  0  0  0  0  0  0
  150.8640  142.4884  157.8663 C   0  0  0  0  0  0  0  0  0  0  0  0
  150.7433  143.6995  158.7742 C   0  0  0  0  0  0  0  0  0  0  0  0
  153.4571  140.7372  159.3431 H   0  0  0  0  0  0  0  0  0  0  0  0
  152.1918  141.5684  160.2466 H   0  0  0  0  0  0  0  0  0  0  0  0
  153.3419  142.4938  159.2700 H   0  0  0  0  0  0  0  0  0  0  0  0
  152.6441  139.5818  157.4651 H   0  0  0  0  0  0  0  0  0  0  0  0
  149.6677  139.1226  153.5541 H   0  0  0  0  0  0  0  0  0  0  0  0
  148.4033  142.6075  154.3361 H   0  0  0  0  0  0  0  0  0  0  0  0
  148.5518  141.4864  153.0014 H   0  0  0  0  0  0  0  0  0  0  0  0
  146.8379  140.9935  155.4843 H   0  0  0  0  0  0  0  0  0  0  0  0
  145.2726  141.1991  153.5121 H   0  0  0  0  0  0  0  0  0  0  0  0
  147.0440  139.5108  152.8216 H   0  0  0  0  0  0  0  0  0  0  0  0
  147.5757  138.8633  154.3487 H   0  0  0  0  0  0  0  0  0  0  0  0
  145.5533  138.8002  156.2776 H   0  0  0  0  0  0  0  0  0  0  0  0
  143.9268  139.0125  155.6259 H   0  0  0  0  0  0  0  0  0  0  0  0
  145.0182  140.3740  155.6925 H   0  0  0  0  0  0  0  0  0  0  0  0
  146.3325  137.0250  154.1196 H   0  0  0  0  0  0  0  0  0  0  0  0
  144.6271  137.0492  154.5004 H   0  0  0  0  0  0  0  0  0  0  0  0
  144.1260  137.5989  152.1019 H   0  0  0  0  0  0  0  0  0  0  0  0
  144.8397  135.4841  151.0647 H   0  0  0  0  0  0  0  0  0  0  0  0
  144.3091  135.1985  152.7180 H   0  0  0  0  0  0  0  0  0  0  0  0
  146.0302  135.2273  152.3366 H   0  0  0  0  0  0  0  0  0  0  0  0
  149.2733  143.1400  156.5434 H   0  0  0  0  0  0  0  0  0  0  0  0
  149.9356  144.3584  158.4541 H   0  0  0  0  0  0  0  0  0  0  0  0
  151.6687  144.2756  158.7669 H   0  0  0  0  0  0  0  0  0  0  0  0
  150.5354  143.3900  159.7988 H   0  0  0  0  0  0  0  0  0  0  0  0
  144.8650  139.4131  153.4841 H   0  0  0  0  0  0  0  0  0  0  0  0
  1  2  1  0  0  0  0
  1 23  1  0  0  0  0
  1 24  1  0  0  0  0
  1 25  1  0  0  0  0
  2 21  1  0  0  0  0
  2  3  2  0  0  0  0
  3  4  1  0  0  0  0
  3 26  1  0  0  0  0
  4 19  2  0  0  0  0
  4  5  1  0  0  0  0
  5  6  2  0  0  0  0
  6  7  1  0  0  0  0
  6 27  1  0  0  0  0
  7  8  1  0  0  0  0
  7 19  1  0  0  0  0
  8  9  1  0  0  0  0
  8 28  1  0  0  0  0
  8 29  1  0  0  0  0
  9 10  1  0  0  0  0
  9 11  1  0  0  0  0
  9 30  1  0  0  0  0
 10 31  1  0  0  0  0
 11 12  1  0  0  0  0
 11 32  1  0  0  0  0
 11 33  1  0  0  0  0
 12 13  1  0  0  0  0
 12 14  1  0  0  0  0
 12 47  1  0  0  0  0
 13 34  1  0  0  0  0
 13 35  1  0  0  0  0
 13 36  1  0  0  0  0
 14 15  1  0  0  0  0
 14 37  1  0  0  0  0
 14 38  1  0  0  0  0
 15 16  1  0  0  0  0
 15 17  1  0  0  0  0
 15 39  1  0  0  0  0
 16 40  1  0  0  0  0
 16 41  1  0  0  0  0
 16 42  1  0  0  0  0
 17 18  3  0  0  0  0
 19 20  1  0  0  0  0
 20 21  2  0  0  0  0
 20 43  1  0  0  0  0
 21 22  1  0  0  0  0
 22 44  1  0  0  0  0
 22 45  1  0  0  0  0
 22 46  1  0  0  0  0
M  CHG  1  12   1
M  END
> <s_m_source_file>
AV-unprocessed.smi

> <i_m_source_file_index>
1535

> <i_lp_mmshare_version>
43012

> <i_f3d_flags>
0

> <s_epik_input>
W0NIM11jKFtjSF0xKWMoW0NIM10pW2NIXWMoYzEyKW4oW2NIXW4yKVtDSDJdW0NASF0oW09IXSlbQ0gyXU4oW0NIM10pW0NIMl1bQ0BIXShbQ0gzXSlDI04=

> <s_epik_cmdline>
J2VwaWtfcHl0aG9uJywgJy1waCcsICc3LjAnLCAnLXRuJywgJzgnLCAnLW1hJywgJzIwMCcsICctbWV0YWxfYmluZGluZycsICctaW1hZScsICc8aW5maWxlLm1hZT4nLCAnLW9tYWUnLCAnPG91dGZpbGUubWFlPic=

> <r_epik_Ionization_Penalty>
2.21058

> <r_epik_Ionization_Penalty_Charging>
2.12381

> <r_epik_Ionization_Penalty_Neutral>
0.0867699

> <r_epik_State_Penalty>
2.36208

> <r_epik_Charging_Adjusted_Penalty>
4.48589

> <i_epik_Tot_Q>
1

> <i_epik_Tot_abs_Q>
1

> <r_epik_Metal_State_Penalty>
2.2818

> <b_epik_Metal_Only>
0

> <s_lp_Force_Field>
OPLS_2005

> <r_lp_Energy>
14.9944

> <b_lp_Chiralities_Consistent>
1

> <s_lp_Variant>
AV-unprocessed.smi:1535-10

> <Gold.Version>
5.8.1

> <Gold.Id.Protein>
6NUR|6NUR_protein|mol2

> <Gold.PLP.Fitness>
48.3753

> <Gold.PLP.PLP>
-35.2621

> <Gold.PLP.part.hbond>
-3.0000

> <Gold.PLP.part.metal>
0.0000

> <Gold.PLP.part.buried>
1.7352

> <Gold.PLP.part.nonpolar>
-35.7006

> <Gold.PLP.part.repulsive>
0.7153

> <Gold.PLP.ligand.clash>
0.0000

> <Gold.PLP.ligand.torsion>
0.7522

> <Gold.PLP.Chemscore.Hbond>
3.9750

> <Gold.PLP.Chemscore.CHOScore>
0.8549

> <Gold.PLP.Chemscore.Metal>
0.0000

> <Gold.Chemscore.Hbonds>
donor molecule, donor type, donor heavy atom, donor atom, acceptor molecule, acceptor atom, score
      L1  H    10    31       P1 10175  1.00
      L1  H    12    47       P1 10175  2.00
      P1  H  7954  7966       L1    18  1.00
      L1  C     6    27       P1  7957  0.84

> <Gold.PLP.Chemscore.Internal.Correction>
0.1280

> <Gold.Rescore>
     Score         DG    S(hbond)    S(metal)    S(lipo)     H(rot)  DE(clash)    DE(int)     intcor
     14.57     -18.44       2.59        0.00      93.84       2.60       2.30       1.56       ----

> <Gold.Chemscore.Fitness>
14.5744

> <Gold.Chemscore.DG>
-18.4387

> <Gold.Chemscore.ZeroCoef>
-5.4800

> <Gold.Chemscore.Hbond>
2.5878

> <Gold.Chemscore.Metal>
0.0000

> <Gold.Chemscore.Lipo>
93.8414

> <Gold.Chemscore.Internal_Hbond>
0.0000

> <Gold.Chemscore.DEClash>
2.3030

> <Gold.Chemscore.DEInternal>
1.5614

> <Gold.Chemscore.Rot>
2.6031

> <Gold.Chemscore.Internal.Correction>
   9.000000E+99

> <Gold.Chemscore.Hbonds>
donor molecule, donor type, donor heavy atom, donor atom, acceptor molecule, acceptor atom, score
      L1  H    10    31       P1 10175  0.37
      L1  H    12    47       P1 10175  1.00
      P1  H  7954  7966       L1    18  0.95

> <Gold.Chemscore.Hbond.Weighted>
-8.6433

> <Gold.Chemscore.Metal.Weighted>
-0.0000

> <Gold.Chemscore.Lipo.Weighted>
-10.9794

> <Gold.Chemscore.Internal_Hbond.Weighted>
0.0000

> <Gold.Chemscore.DEClash.Weighted>
2.3030

> <Gold.Chemscore.DEInternal.Weighted>
1.5614

> <Gold.Chemscore.Rot.Weighted>
6.6640

> <Gold.Chemscore.Internal.Correction.Weighted>
   9.000000E+99

> <Gold.Protein.RotatedTorsions>
[ 6907 6896 6895 6894 ] final  114.22 input  -60.11 | X-H torsion
[ 7974 7965 7964 7962 ] final  164.59 input  175.53 | X-H torsion
[ 8008 7997 7996 7995 ] final  -48.31 input   59.86 | X-H torsion
[ 10167 10162 10161 10158 ] final  -84.45 input  -65.29 | X-H torsion
[ 10718 10713 10712 10709 ] final -102.45 input   66.30 | X-H torsion
[ 10763 10752 10751 10750 ] final  105.41 input  -60.55 | X-H torsion
[ 11005 11000 10999 10996 ] final  166.87 input  -57.11 | X-H torsion

> <Gold.Protein.ActiveResidues>
 VAL166  LYS551  ARG553  GLY616  TRP617  ASP618  TYR619  PRO620  LYS621  CYS622 
 ASP623  PHE694  ASN695  SER759  ASP760  ASP761  ALA762  ILE779  LEU786  VAL792 
 PHE793  MET794  SER795  GLU796  ALA797  LYS798  CYS799  TRP800  GLU811  SER814 

> <Gold.Protein.RotatedAtoms>
  152.4815  133.8266  159.7081 H   0  0  0  0  0  0  0  0  0  0  0  0  # atno 6907 bound_to 6896
  150.8869  133.7287  159.2922 H   0  0  0  0  0  0  0  0  0  0  0  0  # atno 6908 bound_to 6896
  151.4772  135.1053  159.9820 H   0  0  0  0  0  0  0  0  0  0  0  0  # atno 6909 bound_to 6896
  144.7538  139.8348  143.6357 H   0  0  0  0  0  0  0  0  0  0  0  0  # atno 7974 bound_to 7965
  154.4027  140.1324  156.4318 H   0  0  0  0  0  0  0  0  0  0  0  0  # atno 8008 bound_to 7997
  155.7543  140.3487  155.5146 H   0  0  0  0  0  0  0  0  0  0  0  0  # atno 8009 bound_to 7997
  155.8919  140.1004  157.1402 H   0  0  0  0  0  0  0  0  0  0  0  0  # atno 8010 bound_to 7997
  140.4131  143.2614  151.8991 H   0  0  0  0  0  0  0  0  0  0  0  0  # atno 10167 bound_to 10162
  156.0229  130.5420  150.7110 H   0  0  0  0  0  0  0  0  0  0  0  0  # atno 10718 bound_to 10713
  153.3790  135.3911  155.1843 H   0  0  0  0  0  0  0  0  0  0  0  0  # atno 10763 bound_to 10752
  154.8705  135.3721  154.4881 H   0  0  0  0  0  0  0  0  0  0  0  0  # atno 10764 bound_to 10752
  153.5356  135.7085  153.5723 H   0  0  0  0  0  0  0  0  0  0  0  0  # atno 10765 bound_to 10752
  140.2709  134.7827  157.3674 H   0  0  0  0  0  0  0  0  0  0  0  0  # atno 11005 bound_to 11000
  146.1524  139.4611  143.0040 LP  0  0  0  0  0  0  0  0  0  0  0  0  # atno 17320 bound_to 7965
  145.6849  141.0181  143.1587 LP  0  0  0  0  0  0  0  0  0  0  0  0  # atno 17321 bound_to 7965
  139.4782  144.5516  151.8377 LP  0  0  0  0  0  0  0  0  0  0  0  0  # atno 17342 bound_to 10162
  140.4616  144.1714  150.5907 LP  0  0  0  0  0  0  0  0  0  0  0  0  # atno 17343 bound_to 10162
  157.4748  131.0896  151.0602 LP  0  0  0  0  0  0  0  0  0  0  0  0  # atno 17370 bound_to 10713
  157.1052  130.5998  149.5469 LP  0  0  0  0  0  0  0  0  0  0  0  0  # atno 17371 bound_to 10713
  140.1374  134.5016  155.8058 LP  0  0  0  0  0  0  0  0  0  0  0  0  # atno 17394 bound_to 11000
  141.2177  133.6812  156.7149 LP  0  0  0  0  0  0  0  0  0  0  0  0  # atno 17395 bound_to 11000

$$$$
