AV-unprocessed.smi:2151|AV-procd|sdf|8758|dock4
  -GOLD-   2272011533D 1   1.00000     0.00000
 Structure written by MMmdl.
 39 40  0  0  0  0  0  0  0  0  1 V2000
  153.7329  141.0468  160.9461 C   0  0  0  0  0  0  0  0  0  0  0  0
  152.7169  141.4321  159.8563 C   0  0  2  0  0  0  0  0  0  0  0  0
  152.8835  140.5592  158.6971 N   0  0  0  0  0  0  0  0  0  0  0  0
  152.9033  139.2181  158.7291 C   0  0  0  0  0  0  0  0  0  0  0  0
  152.8043  138.5663  159.7697 O   0  0  0  0  0  0  0  0  0  0  0  0
  153.0842  138.5180  157.3747 C   0  0  0  0  0  0  0  0  0  0  0  0
  151.8577  138.4988  156.5603 N   0  0  0  0  0  0  0  0  0  0  0  0
  150.7207  137.8918  157.1288 C   0  0  0  0  0  0  0  0  0  0  0  0
  149.5391  137.8039  156.4885 C   0  0  0  0  0  0  0  0  0  0  0  0
  148.3102  137.2030  157.1530 C   0  0  0  0  0  0  0  0  0  0  0  0
  147.2467  137.2812  156.3530 F   0  0  0  0  0  0  0  0  0  0  0  0
  148.5276  135.9180  157.4290 F   0  0  0  0  0  0  0  0  0  0  0  0
  148.0227  137.8301  158.2944 F   0  0  0  0  0  0  0  0  0  0  0  0
  149.4751  138.4004  155.1687 C   0  0  0  0  0  0  0  0  0  0  0  0
  150.5492  138.9975  154.6163 C   0  0  0  0  0  0  0  0  0  0  0  0
  151.8316  139.0718  155.3198 C   0  0  0  0  0  0  0  0  0  0  0  0
  152.8198  139.6153  154.8257 O   0  0  0  0  0  0  0  0  0  0  0  0
  152.8713  142.8982  159.4088 C   0  0  2  0  0  0  0  0  0  0  0  0
  152.3893  143.9351  160.4272 C   0  0  0  0  0  0  0  0  0  0  0  0
  151.9531  145.1182  159.5745 C   0  0  0  0  0  0  0  0  0  0  0  0
  151.9885  144.5817  158.1425 C   0  0  0  0  0  0  0  0  0  0  0  0
  152.0414  143.1712  158.2897 O   0  0  0  0  0  0  0  0  0  0  0  0
  153.6075  141.6582  161.8398 H   0  0  0  0  0  0  0  0  0  0  0  0
  154.7577  141.1747  160.5961 H   0  0  0  0  0  0  0  0  0  0  0  0
  153.6128  140.0062  161.2491 H   0  0  0  0  0  0  0  0  0  0  0  0
  151.7093  141.3022  160.2560 H   0  0  0  0  0  0  0  0  0  0  0  0
  152.9700  141.0123  157.7988 H   0  0  0  0  0  0  0  0  0  0  0  0
  153.8951  138.9993  156.8245 H   0  0  0  0  0  0  0  0  0  0  0  0
  153.4325  137.5012  157.5617 H   0  0  0  0  0  0  0  0  0  0  0  0
  150.8689  137.5120  158.1295 H   0  0  0  0  0  0  0  0  0  0  0  0
  148.5504  138.3658  154.6117 H   0  0  0  0  0  0  0  0  0  0  0  0
  150.4648  139.4308  153.6304 H   0  0  0  0  0  0  0  0  0  0  0  0
  153.9077  143.1054  159.1336 H   0  0  0  0  0  0  0  0  0  0  0  0
  151.5314  143.5534  160.9825 H   0  0  0  0  0  0  0  0  0  0  0  0
  153.1633  144.1990  161.1483 H   0  0  0  0  0  0  0  0  0  0  0  0
  150.9475  145.4362  159.8517 H   0  0  0  0  0  0  0  0  0  0  0  0
  152.6194  145.9736  159.6888 H   0  0  0  0  0  0  0  0  0  0  0  0
  151.1221  144.8886  157.5564 H   0  0  0  0  0  0  0  0  0  0  0  0
  152.8876  144.9221  157.6268 H   0  0  0  0  0  0  0  0  0  0  0  0
  1  2  1  0  0  0  0
  1 23  1  0  0  0  0
  1 24  1  0  0  0  0
  1 25  1  0  0  0  0
  2  3  1  0  0  0  0
  2 18  1  0  0  0  0
  2 26  1  0  0  0  0
  3  4  1  0  0  0  0
  3 27  1  0  0  0  0
  4  5  2  0  0  0  0
  4  6  1  0  0  0  0
  6  7  1  0  0  0  0
  6 28  1  0  0  0  0
  6 29  1  0  0  0  0
  7 16  1  0  0  0  0
  7  8  1  0  0  0  0
  8  9  2  0  0  0  0
  8 30  1  0  0  0  0
  9 10  1  0  0  0  0
  9 14  1  0  0  0  0
 10 11  1  0  0  0  0
 10 12  1  0  0  0  0
 10 13  1  0  0  0  0
 14 15  2  0  0  0  0
 14 31  1  0  0  0  0
 15 16  1  0  0  0  0
 15 32  1  0  0  0  0
 16 17  2  0  0  0  0
 18 22  1  0  0  0  0
 18 19  1  0  0  0  0
 18 33  1  0  0  0  0
 19 20  1  0  0  0  0
 19 34  1  0  0  0  0
 19 35  1  0  0  0  0
 20 21  1  0  0  0  0
 20 36  1  0  0  0  0
 20 37  1  0  0  0  0
 21 22  1  0  0  0  0
 21 38  1  0  0  0  0
 21 39  1  0  0  0  0
M  END
> <s_m_source_file>
AV-unprocessed.smi

> <i_m_source_file_index>
2151

> <i_lp_mmshare_version>
43012

> <i_f3d_flags>
0

> <s_epik_input>
TzFbQ0gyXVtDSDJdW0NIMl1bQ0BIXTFbQ0BIXShbQ0gzXSlbTkhdQyg9TylbQ0gyXW4yW2NIXWMoQyhGKShGKUYpW2NIXVtjSF1jMj1P

> <s_epik_cmdline>
J2VwaWtfcHl0aG9uJywgJy1waCcsICc3LjAnLCAnLXRuJywgJzgnLCAnLW1hJywgJzIwMCcsICctbWV0YWxfYmluZGluZycsICctaW1hZScsICc8aW5maWxlLm1hZT4nLCAnLW9tYWUnLCAnPG91dGZpbGUubWFlPic=

> <r_lp_tautomer_probability>
1

> <r_epik_Ionization_Penalty>
4.20109e-08

> <r_epik_Ionization_Penalty_Charging>
1.89977e-08

> <r_epik_Ionization_Penalty_Neutral>
2.30132e-08

> <r_epik_State_Penalty>
-0

> <r_epik_Charging_Adjusted_Penalty>
1.89977e-08

> <i_epik_Tot_Q>
0

> <i_epik_Tot_abs_Q>
0

> <r_epik_Metal_State_Penalty>
-0

> <b_epik_Metal_Only>
0

> <s_lp_Force_Field>
OPLS_2005

> <r_lp_Energy>
29.9007

> <b_lp_Chiralities_Consistent>
1

> <s_lp_Variant>
AV-unprocessed.smi:2151-1

> <Gold.Version>
5.8.1

> <Gold.Id.Protein>
6NUR|6NUR_protein|mol2

> <Gold.PLP.Fitness>
40.5332

> <Gold.PLP.PLP>
-37.3630

> <Gold.PLP.part.hbond>
-1.9695

> <Gold.PLP.part.metal>
0.0000

> <Gold.PLP.part.buried>
-5.1946

> <Gold.PLP.part.nonpolar>
-31.3433

> <Gold.PLP.part.repulsive>
0.1515

> <Gold.PLP.ligand.clash>
0.0000

> <Gold.PLP.ligand.torsion>
0.4093

> <Gold.PLP.Chemscore.Hbond>
1.2808

> <Gold.PLP.Chemscore.CHOScore>
0.0000

> <Gold.PLP.Chemscore.Metal>
0.0000

> <Gold.Chemscore.Hbonds>
donor molecule, donor type, donor heavy atom, donor atom, acceptor molecule, acceptor atom, score
      P1  H  7989  7998       L1    17  0.26
      P1  H  7997  8009       L1    17  1.00

> <Gold.PLP.Chemscore.Internal.Correction>
0.1465

> <Gold.Rescore>
     Score         DG    S(hbond)    S(metal)    S(lipo)     H(rot)  DE(clash)    DE(int)     intcor
     13.95     -15.49       1.00        0.00      96.91       1.82       0.01       1.53       ----

> <Gold.Chemscore.Fitness>
13.9458

> <Gold.Chemscore.DG>
-15.4859

> <Gold.Chemscore.ZeroCoef>
-5.4800

> <Gold.Chemscore.Hbond>
0.9981

> <Gold.Chemscore.Metal>
0.0000

> <Gold.Chemscore.Lipo>
96.9105

> <Gold.Chemscore.Internal_Hbond>
0.0000

> <Gold.Chemscore.DEClash>
0.0149

> <Gold.Chemscore.DEInternal>
1.5253

> <Gold.Chemscore.Rot>
1.8228

> <Gold.Chemscore.Internal.Correction>
   9.000000E+99

> <Gold.Chemscore.Hbonds>
donor molecule, donor type, donor heavy atom, donor atom, acceptor molecule, acceptor atom, score
      P1  H  7989  7998       L1    17  0.03
      P1  H  7997  8009       L1    17  0.93

> <Gold.Chemscore.Hbond.Weighted>
-3.3338

> <Gold.Chemscore.Metal.Weighted>
-0.0000

> <Gold.Chemscore.Lipo.Weighted>
-11.3385

> <Gold.Chemscore.Internal_Hbond.Weighted>
0.0000

> <Gold.Chemscore.DEClash.Weighted>
0.0149

> <Gold.Chemscore.DEInternal.Weighted>
1.5253

> <Gold.Chemscore.Rot.Weighted>
4.6665

> <Gold.Chemscore.Internal.Correction.Weighted>
   9.000000E+99

> <Gold.Protein.RotatedTorsions>
[ 6907 6896 6895 6894 ] final -118.26 input  -60.11 | X-H torsion
[ 7974 7965 7964 7962 ] final   98.45 input  175.53 | X-H torsion
[ 8008 7997 7996 7995 ] final -136.93 input   59.86 | X-H torsion
[ 10167 10162 10161 10158 ] final -142.78 input  -65.29 | X-H torsion
[ 10718 10713 10712 10709 ] final   77.12 input   66.30 | X-H torsion
[ 10763 10752 10751 10750 ] final  -92.79 input  -60.55 | X-H torsion
[ 11005 11000 10999 10996 ] final -101.84 input  -57.11 | X-H torsion

> <Gold.Protein.ActiveResidues>
 VAL166  LYS551  ARG553  GLY616  TRP617  ASP618  TYR619  PRO620  LYS621  CYS622 
 ASP623  PHE694  ASN695  SER759  ASP760  ASP761  ALA762  ILE779  LEU786  VAL792 
 PHE793  MET794  SER795  GLU796  ALA797  LYS798  CYS799  TRP800  GLU811  SER814 

> <Gold.Protein.RotatedAtoms>
  150.8205  133.8262  159.3141 H   0  0  0  0  0  0  0  0  0  0  0  0  # atno 6907 bound_to 6896
  151.6021  135.1045  160.0072 H   0  0  0  0  0  0  0  0  0  0  0  0  # atno 6908 bound_to 6896
  152.4294  133.7210  159.6590 H   0  0  0  0  0  0  0  0  0  0  0  0  # atno 6909 bound_to 6896
  145.4120  139.2332  143.3243 H   0  0  0  0  0  0  0  0  0  0  0  0  # atno 7974 bound_to 7965
  155.4034  140.0507  157.3035 H   0  0  0  0  0  0  0  0  0  0  0  0  # atno 8008 bound_to 7997
  154.4980  140.2146  155.9367 H   0  0  0  0  0  0  0  0  0  0  0  0  # atno 8009 bound_to 7997
  156.1430  140.3150  155.8531 H   0  0  0  0  0  0  0  0  0  0  0  0  # atno 8010 bound_to 7997
  139.8056  143.7773  152.2661 H   0  0  0  0  0  0  0  0  0  0  0  0  # atno 10167 bound_to 10162
  157.6699  130.9806  150.1595 H   0  0  0  0  0  0  0  0  0  0  0  0  # atno 10718 bound_to 10713
  154.6896  135.5218  153.8374 H   0  0  0  0  0  0  0  0  0  0  0  0  # atno 10763 bound_to 10752
  153.0622  135.6572  154.0445 H   0  0  0  0  0  0  0  0  0  0  0  0  # atno 10764 bound_to 10752
  154.0321  135.2984  155.3347 H   0  0  0  0  0  0  0  0  0  0  0  0  # atno 10765 bound_to 10752
  141.1214  133.8510  157.1283 H   0  0  0  0  0  0  0  0  0  0  0  0  # atno 11005 bound_to 11000
  146.2700  140.4833  142.8818 LP  0  0  0  0  0  0  0  0  0  0  0  0  # atno 17320 bound_to 7965
  144.8302  140.6695  143.6295 LP  0  0  0  0  0  0  0  0  0  0  0  0  # atno 17321 bound_to 7965
  139.7906  144.7411  150.9960 LP  0  0  0  0  0  0  0  0  0  0  0  0  # atno 17342 bound_to 10162
  140.7819  143.4446  151.0502 LP  0  0  0  0  0  0  0  0  0  0  0  0  # atno 17343 bound_to 10162
  156.2375  130.3688  149.8375 LP  0  0  0  0  0  0  0  0  0  0  0  0  # atno 17370 bound_to 10713
  156.6184  130.8616  151.3470 LP  0  0  0  0  0  0  0  0  0  0  0  0  # atno 17371 bound_to 10713
  140.0175  134.9961  157.0523 LP  0  0  0  0  0  0  0  0  0  0  0  0  # atno 17394 bound_to 11000
  140.4495  134.1597  155.7180 LP  0  0  0  0  0  0  0  0  0  0  0  0  # atno 17395 bound_to 11000

$$$$
