AV-unprocessed.smi:103|AV-procd|sdf|990|dock3
  -GOLD-   2262017563D 1   1.00000     0.00000
 Structure written by MMmdl.
 53 55  0  0  0  0  0  0  0  0  1 V2000
  147.7619  140.6695  153.7504 C   0  0  0  0  0  0  0  0  0  0  0  0
  149.0351  140.2165  154.4535 C   0  0  0  0  0  0  0  0  0  0  0  0
  149.9978  140.9734  154.5807 O   0  0  0  0  0  0  0  0  0  0  0  0
  148.9598  138.9466  154.8873 O   0  0  0  0  0  0  0  0  0  0  0  0
  150.0019  138.3983  155.6805 C   0  0  0  0  0  0  0  0  0  0  0  0
  149.8462  138.8815  157.1282 C   0  0  1  0  0  0  0  0  0  0  0  0
  148.8947  138.0387  157.7833 O   0  0  0  0  0  0  0  0  0  0  0  0
  149.4268  137.4996  158.9512 C   0  0  1  0  0  0  0  0  0  0  0  0
  148.9229  136.1024  159.1167 N   0  0  0  0  0  0  0  0  0  0  0  0
  148.1536  135.5572  160.1252 C   0  0  0  0  0  0  0  0  0  0  0  0
  147.4913  136.4233  161.5442 S   0  0  0  0  0  0  0  0  0  0  0  0
  146.7025  135.0566  162.4878 C   0  0  0  0  0  0  0  0  0  0  0  0
  148.6384  136.9417  162.3060 O   0  0  0  0  0  0  0  0  0  0  0  0
  146.4494  137.3364  161.0505 O   0  0  0  0  0  0  0  0  0  0  0  0
  147.7946  134.3105  159.9787 N   0  0  0  0  0  0  0  0  0  0  0  0
  148.4200  133.9402  158.7965 C   0  0  0  0  0  0  0  0  0  0  0  0
  148.4847  132.7365  158.0502 C   0  0  0  0  0  0  0  0  0  0  0  0
  147.8652  131.6093  158.4259 N   0  0  0  0  0  0  0  0  0  0  0  0
  149.2050  132.7232  156.9042 N   0  0  0  0  0  0  0  0  0  0  0  0
  149.8319  133.8353  156.5074 C   0  0  0  0  0  0  0  0  0  0  0  0
  149.8620  135.0324  157.0985 N   0  0  0  0  0  0  0  0  0  0  0  0
  149.1349  135.0460  158.2537 C   0  0  0  0  0  0  0  0  0  0  0  0
  150.9424  137.5182  158.8027 C   0  0  2  0  0  0  0  0  0  0  0  0
  151.5747  137.5849  160.0735 O   0  0  0  0  0  0  0  0  0  0  0  0
  152.8577  137.2181  160.2087 C   0  0  0  0  0  0  0  0  0  0  0  0
  153.5638  137.9839  161.3191 C   0  0  0  0  0  0  0  0  0  0  0  0
  153.4441  136.3699  159.5363 O   0  0  0  0  0  0  0  0  0  0  0  0
  151.1618  138.7470  157.9223 C   0  0  2  0  0  0  0  0  0  0  0  0
  151.6099  139.9336  158.5955 O   0  0  0  0  0  0  0  0  0  0  0  0
  152.9018  140.2229  158.8772 C   0  0  0  0  0  0  0  0  0  0  0  0
  153.0344  141.5009  159.6939 C   0  0  0  0  0  0  0  0  0  0  0  0
  153.8935  139.5745  158.5487 O   0  0  0  0  0  0  0  0  0  0  0  0
  147.9506  140.8118  152.6866 H   0  0  0  0  0  0  0  0  0  0  0  0
  147.4155  141.6142  154.1695 H   0  0  0  0  0  0  0  0  0  0  0  0
  146.9683  139.9306  153.8646 H   0  0  0  0  0  0  0  0  0  0  0  0
  150.0092  137.3082  155.6544 H   0  0  0  0  0  0  0  0  0  0  0  0
  150.9564  138.7330  155.2737 H   0  0  0  0  0  0  0  0  0  0  0  0
  149.4850  139.9100  157.1246 H   0  0  0  0  0  0  0  0  0  0  0  0
  149.0538  138.0558  159.8069 H   0  0  0  0  0  0  0  0  0  0  0  0
  146.2563  135.4556  163.3982 H   0  0  0  0  0  0  0  0  0  0  0  0
  147.4564  134.3138  162.7482 H   0  0  0  0  0  0  0  0  0  0  0  0
  145.9289  134.5887  161.8795 H   0  0  0  0  0  0  0  0  0  0  0  0
  147.3215  131.5942  159.2768 H   0  0  0  0  0  0  0  0  0  0  0  0
  147.9443  130.7775  157.8589 H   0  0  0  0  0  0  0  0  0  0  0  0
  150.3869  133.7567  155.5838 H   0  0  0  0  0  0  0  0  0  0  0  0
  151.2356  136.6217  158.2538 H   0  0  0  0  0  0  0  0  0  0  0  0
  153.1907  137.6656  162.2928 H   0  0  0  0  0  0  0  0  0  0  0  0
  153.3884  139.0545  161.2133 H   0  0  0  0  0  0  0  0  0  0  0  0
  154.6385  137.8048  161.2840 H   0  0  0  0  0  0  0  0  0  0  0  0
  151.9722  138.5133  157.2314 H   0  0  0  0  0  0  0  0  0  0  0  0
  152.4617  141.4221  160.6180 H   0  0  0  0  0  0  0  0  0  0  0  0
  152.6613  142.3527  159.1252 H   0  0  0  0  0  0  0  0  0  0  0  0
  154.0780  141.6864  159.9489 H   0  0  0  0  0  0  0  0  0  0  0  0
  1  2  1  0  0  0  0
  1 33  1  0  0  0  0
  1 34  1  0  0  0  0
  1 35  1  0  0  0  0
  2  3  2  0  0  0  0
  2  4  1  0  0  0  0
  4  5  1  0  0  0  0
  5  6  1  0  0  0  0
  5 36  1  0  0  0  0
  5 37  1  0  0  0  0
  6 28  1  0  0  0  0
  6  7  1  0  0  0  0
  6 38  1  0  0  0  0
  7  8  1  0  0  0  0
  8  9  1  0  0  0  0
  8 23  1  0  0  0  0
  8 39  1  0  0  0  0
  9 22  1  0  0  0  0
  9 10  1  0  0  0  0
 10 11  1  0  0  0  0
 10 15  2  0  0  0  0
 11 12  1  0  0  0  0
 11 13  2  0  0  0  0
 11 14  2  0  0  0  0
 12 40  1  0  0  0  0
 12 41  1  0  0  0  0
 12 42  1  0  0  0  0
 15 16  1  0  0  0  0
 16 22  2  0  0  0  0
 16 17  1  0  0  0  0
 17 18  1  0  0  0  0
 17 19  2  0  0  0  0
 18 43  1  0  0  0  0
 18 44  1  0  0  0  0
 19 20  1  0  0  0  0
 20 21  2  0  0  0  0
 20 45  1  0  0  0  0
 21 22  1  0  0  0  0
 23 24  1  0  0  0  0
 23 28  1  0  0  0  0
 23 46  1  0  0  0  0
 24 25  1  0  0  0  0
 25 26  1  0  0  0  0
 25 27  2  0  0  0  0
 26 47  1  0  0  0  0
 26 48  1  0  0  0  0
 26 49  1  0  0  0  0
 28 29  1  0  0  0  0
 28 50  1  0  0  0  0
 29 30  1  0  0  0  0
 30 31  1  0  0  0  0
 30 32  2  0  0  0  0
 31 51  1  0  0  0  0
 31 52  1  0  0  0  0
 31 53  1  0  0  0  0
M  END
> <s_m_source_file>
AV-unprocessed.smi

> <i_m_source_file_index>
103

> <i_lp_mmshare_version>
43012

> <i_f3d_flags>
0

> <s_epik_input>
W0NIM11DKD1PKU9bQ0gyXVtDQEBIXTFPW0NASF0oW0NAQEhdKE9DKD1PKVtDSDNdKVtDQEhdMU9DKD1PKVtDSDNdKW4oYyhuMilTKD1PKSg9TylbQ0gzXSljKGMyMyluW2NIXW5jM1tOSDJd

> <s_epik_cmdline>
J2VwaWtfcHl0aG9uJywgJy1waCcsICc3LjAnLCAnLXRuJywgJzgnLCAnLW1hJywgJzIwMCcsICctbWV0YWxfYmluZGluZycsICctaW1hZScsICc8aW5maWxlLm1hZT4nLCAnLW9tYWUnLCAnPG91dGZpbGUubWFlPic=

> <r_lp_tautomer_probability>
1

> <r_epik_Ionization_Penalty>
1.51338e-05

> <r_epik_Ionization_Penalty_Charging>
0

> <r_epik_Ionization_Penalty_Neutral>
1.51338e-05

> <r_epik_State_Penalty>
-0

> <r_epik_Charging_Adjusted_Penalty>
0

> <i_epik_Tot_Q>
0

> <i_epik_Tot_abs_Q>
0

> <r_epik_Metal_State_Penalty>
-0

> <b_epik_Metal_Only>
0

> <s_epik_Chemistry_Notes>
This compound has an ester and may undergo hydrolysis at high or low pH. This compound contains an acetal/aminal-like group ( X-CH(R)-Y where X, Y are N, S, or O) that may be acid/base labile, releasing an aldehyde.

> <s_lp_Force_Field>
OPLS_2005

> <r_lp_Energy>
20.3067

> <b_lp_Chiralities_Consistent>
1

> <s_lp_Variant>
AV-unprocessed.smi:103-14

> <Gold.Version>
5.8.1

> <Gold.Id.Protein>
6NUR|6NUR_protein|mol2

> <Gold.PLP.Fitness>
46.1002

> <Gold.PLP.PLP>
-35.4054

> <Gold.PLP.part.hbond>
-5.0878

> <Gold.PLP.part.metal>
0.0000

> <Gold.PLP.part.buried>
-3.2683

> <Gold.PLP.part.nonpolar>
-28.0609

> <Gold.PLP.part.repulsive>
0.2413

> <Gold.PLP.ligand.clash>
0.0000

> <Gold.PLP.ligand.torsion>
2.5248

> <Gold.PLP.Chemscore.Hbond>
4.4463

> <Gold.PLP.Chemscore.CHOScore>
0.0000

> <Gold.PLP.Chemscore.Metal>
0.0000

> <Gold.Chemscore.Hbonds>
donor molecule, donor type, donor heavy atom, donor atom, acceptor molecule, acceptor atom, score
      P1  H  6896  6909       L1    27  1.00
      P1  H  6931  6943       L1    13  0.68
      P1  H  6934  6947       L1    14  1.00
      P1  H  7989  7998       L1     3  0.64
      P1  H  7997  8009       L1    32  1.00

> <Gold.PLP.Chemscore.Internal.Correction>
2.4056

> <Gold.Rescore>
     Score         DG    S(hbond)    S(metal)    S(lipo)     H(rot)  DE(clash)    DE(int)     intcor
     10.16     -12.99       3.76        0.00      49.67       4.25       0.22       2.61       ----

> <Gold.Chemscore.Fitness>
10.1606

> <Gold.Chemscore.DG>
-12.9922

> <Gold.Chemscore.ZeroCoef>
-5.4800

> <Gold.Chemscore.Hbond>
3.7631

> <Gold.Chemscore.Metal>
0.0000

> <Gold.Chemscore.Lipo>
49.6749

> <Gold.Chemscore.Internal_Hbond>
0.0000

> <Gold.Chemscore.DEClash>
0.2243

> <Gold.Chemscore.DEInternal>
2.6072

> <Gold.Chemscore.Rot>
4.2456

> <Gold.Chemscore.Internal.Correction>
   9.000000E+99

> <Gold.Chemscore.Hbonds>
donor molecule, donor type, donor heavy atom, donor atom, acceptor molecule, acceptor atom, score
      P1  H  6896  6909       L1    27  0.27
      P1  H  6931  6943       L1    13  0.62
      P1  H  6934  6947       L1    14  0.70
      P1  H  7989  7998       L1     3  0.63
      P1  H  7997  8009       L1    32  0.99

> <Gold.Chemscore.Hbond.Weighted>
-12.5689

> <Gold.Chemscore.Metal.Weighted>
-0.0000

> <Gold.Chemscore.Lipo.Weighted>
-5.8120

> <Gold.Chemscore.Internal_Hbond.Weighted>
0.0000

> <Gold.Chemscore.DEClash.Weighted>
0.2243

> <Gold.Chemscore.DEInternal.Weighted>
2.6072

> <Gold.Chemscore.Rot.Weighted>
10.8687

> <Gold.Chemscore.Internal.Correction.Weighted>
   9.000000E+99

> <Gold.Protein.RotatedTorsions>
[ 6907 6896 6895 6894 ] final  178.32 input  -60.11 | X-H torsion
[ 7974 7965 7964 7962 ] final -127.39 input  175.53 | X-H torsion
[ 8008 7997 7996 7995 ] final  135.30 input   59.86 | X-H torsion
[ 10167 10162 10161 10158 ] final  -23.83 input  -65.29 | X-H torsion
[ 10718 10713 10712 10709 ] final  -45.91 input   66.30 | X-H torsion
[ 10763 10752 10751 10750 ] final  120.15 input  -60.55 | X-H torsion
[ 11005 11000 10999 10996 ] final -104.01 input  -57.11 | X-H torsion

> <Gold.Protein.ActiveResidues>
 VAL166  LYS551  ARG553  GLY616  TRP617  ASP618  TYR619  PRO620  LYS621  CYS622 
 ASP623  PHE694  ASN695  SER759  ASP760  ASP761  ALA762  ILE779  LEU786  VAL792 
 PHE793  MET794  SER795  GLU796  ALA797  LYS798  CYS799  TRP800  GLU811  SER814 

> <Gold.Protein.RotatedAtoms>
  151.6898  133.3311  159.3239 H   0  0  0  0  0  0  0  0  0  0  0  0  # atno 6907 bound_to 6896
  150.7784  134.6709  159.6400 H   0  0  0  0  0  0  0  0  0  0  0  0  # atno 6908 bound_to 6896
  152.3834  134.6558  160.0186 H   0  0  0  0  0  0  0  0  0  0  0  0  # atno 6909 bound_to 6896
  144.9775  140.7607  143.4632 H   0  0  0  0  0  0  0  0  0  0  0  0  # atno 7974 bound_to 7965
  156.3002  140.2474  156.3559 H   0  0  0  0  0  0  0  0  0  0  0  0  # atno 8008 bound_to 7997
  154.8922  140.0409  157.1864 H   0  0  0  0  0  0  0  0  0  0  0  0  # atno 8009 bound_to 7997
  154.8586  140.2917  155.5557 H   0  0  0  0  0  0  0  0  0  0  0  0  # atno 8010 bound_to 7997
  140.7288  143.4407  151.0661 H   0  0  0  0  0  0  0  0  0  0  0  0  # atno 10167 bound_to 10162
  156.2235  130.4168  149.8963 H   0  0  0  0  0  0  0  0  0  0  0  0  # atno 10718 bound_to 10713
  153.5940  135.3460  155.2921 H   0  0  0  0  0  0  0  0  0  0  0  0  # atno 10763 bound_to 10752
  154.8647  135.4211  154.2485 H   0  0  0  0  0  0  0  0  0  0  0  0  # atno 10764 bound_to 10752
  153.3299  135.7043  153.7028 H   0  0  0  0  0  0  0  0  0  0  0  0  # atno 10765 bound_to 10752
  141.1120  133.8688  157.1558 H   0  0  0  0  0  0  0  0  0  0  0  0  # atno 11005 bound_to 11000
  145.2469  139.2048  143.4963 LP  0  0  0  0  0  0  0  0  0  0  0  0  # atno 17320 bound_to 7965
  146.3399  140.2374  142.8595 LP  0  0  0  0  0  0  0  0  0  0  0  0  # atno 17321 bound_to 7965
  139.8074  143.7998  152.3168 LP  0  0  0  0  0  0  0  0  0  0  0  0  # atno 17342 bound_to 10162
  139.8036  144.7364  150.9791 LP  0  0  0  0  0  0  0  0  0  0  0  0  # atno 17343 bound_to 10162
  156.6601  130.8778  151.3546 LP  0  0  0  0  0  0  0  0  0  0  0  0  # atno 17370 bound_to 10713
  157.7099  130.9428  150.1055 LP  0  0  0  0  0  0  0  0  0  0  0  0  # atno 17371 bound_to 10713
  140.0019  135.0024  157.0208 LP  0  0  0  0  0  0  0  0  0  0  0  0  # atno 17394 bound_to 11000
  140.4750  134.1348  155.7208 LP  0  0  0  0  0  0  0  0  0  0  0  0  # atno 17395 bound_to 11000

$$$$
