AV-unprocessed.smi:2442|AV-procd|sdf|9630|dock7
  -GOLD-   2272013263D 1   1.00000     0.00000
 Structure written by MMmdl.
 47 48  0  0  0  0  0  0  0  0  2 V2000
  146.4764  131.5948  154.6859 C   0  0  0  0  0  0  0  0  0  0  0  0
  147.3184  131.9896  153.6144 O   0  0  0  0  0  0  0  0  0  0  0  0
  146.6223  132.4149  152.4482 C   0  0  1  0  0  0  0  0  0  0  0  0
  145.7091  131.2766  151.9450 C   0  0  0  0  0  0  0  0  0  0  0  0
  144.8287  131.7311  150.7716 C   0  0  0  0  0  0  0  0  0  0  0  0
  143.9971  132.9637  151.1520 C   0  0  0  0  0  0  0  0  0  0  0  0
  144.8989  134.1075  151.6385 C   0  0  0  0  0  0  0  0  0  0  0  0
  145.7948  133.6693  152.8131 C   0  0  2  0  0  0  0  0  0  0  0  0
  146.6841  134.7747  153.1635 N   0  0  0  0  0  0  0  0  0  0  0  0
  146.7255  135.3943  154.3512 C   0  0  0  0  0  0  0  0  0  0  0  0
  145.9948  135.1206  155.3036 O   0  0  0  0  0  0  0  0  0  0  0  0
  147.6683  136.3465  154.3818 N   0  0  0  0  0  0  0  0  0  0  0  0
  147.9624  137.1888  155.5349 C   0  0  0  0  0  0  0  0  0  0  0  0
  149.3369  137.8682  155.4072 C   0  0  0  0  0  0  0  0  0  0  0  0
  149.2177  139.3750  155.2399 C   0  0  0  0  0  0  0  0  0  0  0  0
  149.9148  140.2189  156.1336 C   0  0  0  0  0  0  0  0  0  0  0  0
  149.8116  141.6168  155.9936 C   0  0  0  0  0  0  0  0  0  0  0  0
  149.0499  142.1375  155.0087 N   0  3  0  0  0  0  0  0  0  0  0  0
  148.3645  141.3717  154.1326 C   0  0  0  0  0  0  0  0  0  0  0  0
  148.4236  139.9633  154.2205 C   0  0  0  0  0  0  0  0  0  0  0  0
  147.6418  139.1231  153.2267 C   0  0  0  0  0  0  0  0  0  0  0  0
  147.0890  131.2693  155.5262 H   0  0  0  0  0  0  0  0  0  0  0  0
  145.8381  130.7593  154.3961 H   0  0  0  0  0  0  0  0  0  0  0  0
  145.8463  132.4137  155.0322 H   0  0  0  0  0  0  0  0  0  0  0  0
  147.3322  132.6861  151.6635 H   0  0  0  0  0  0  0  0  0  0  0  0
  146.3025  130.4170  151.6345 H   0  0  0  0  0  0  0  0  0  0  0  0
  145.0731  130.9324  152.7615 H   0  0  0  0  0  0  0  0  0  0  0  0
  145.4562  131.9626  149.9102 H   0  0  0  0  0  0  0  0  0  0  0  0
  144.1691  130.9185  150.4655 H   0  0  0  0  0  0  0  0  0  0  0  0
  143.4078  133.2931  150.2959 H   0  0  0  0  0  0  0  0  0  0  0  0
  143.2851  132.6996  151.9349 H   0  0  0  0  0  0  0  0  0  0  0  0
  145.5187  134.4518  150.8092 H   0  0  0  0  0  0  0  0  0  0  0  0
  144.2830  134.9571  151.9362 H   0  0  0  0  0  0  0  0  0  0  0  0
  145.1448  133.4293  153.6571 H   0  0  0  0  0  0  0  0  0  0  0  0
  147.3298  135.0774  152.4492 H   0  0  0  0  0  0  0  0  0  0  0  0
  148.2199  136.4987  153.5500 H   0  0  0  0  0  0  0  0  0  0  0  0
  147.1774  137.9413  155.6129 H   0  0  0  0  0  0  0  0  0  0  0  0
  147.9127  136.5935  156.4484 H   0  0  0  0  0  0  0  0  0  0  0  0
  149.9344  137.6703  156.2984 H   0  0  0  0  0  0  0  0  0  0  0  0
  149.8976  137.4364  154.5781 H   0  0  0  0  0  0  0  0  0  0  0  0
  150.5231  139.7986  156.9218 H   0  0  0  0  0  0  0  0  0  0  0  0
  150.3120  142.3281  156.6344 H   0  0  0  0  0  0  0  0  0  0  0  0
  147.7905  141.9086  153.3911 H   0  0  0  0  0  0  0  0  0  0  0  0
  146.9818  139.7436  152.6195 H   0  0  0  0  0  0  0  0  0  0  0  0
  147.0239  138.3875  153.7418 H   0  0  0  0  0  0  0  0  0  0  0  0
  148.3213  138.5980  152.5552 H   0  0  0  0  0  0  0  0  0  0  0  0
  148.9889  143.1525  154.9227 H   0  0  0  0  0  0  0  0  0  0  0  0
  1  2  1  0  0  0  0
  1 22  1  0  0  0  0
  1 23  1  0  0  0  0
  1 24  1  0  0  0  0
  2  3  1  0  0  0  0
  3  8  1  0  0  0  0
  3  4  1  0  0  0  0
  3 25  1  0  0  0  0
  4  5  1  0  0  0  0
  4 26  1  0  0  0  0
  4 27  1  0  0  0  0
  5  6  1  0  0  0  0
  5 28  1  0  0  0  0
  5 29  1  0  0  0  0
  6  7  1  0  0  0  0
  6 30  1  0  0  0  0
  6 31  1  0  0  0  0
  7  8  1  0  0  0  0
  7 32  1  0  0  0  0
  7 33  1  0  0  0  0
  8  9  1  0  0  0  0
  8 34  1  0  0  0  0
  9 10  1  0  0  0  0
  9 35  1  0  0  0  0
 10 11  2  0  0  0  0
 10 12  1  0  0  0  0
 12 13  1  0  0  0  0
 12 36  1  0  0  0  0
 13 14  1  0  0  0  0
 13 37  1  0  0  0  0
 13 38  1  0  0  0  0
 14 15  1  0  0  0  0
 14 39  1  0  0  0  0
 14 40  1  0  0  0  0
 15 20  1  0  0  0  0
 15 16  2  0  0  0  0
 16 17  1  0  0  0  0
 16 41  1  0  0  0  0
 17 18  2  0  0  0  0
 17 42  1  0  0  0  0
 18 19  1  0  0  0  0
 18 47  1  0  0  0  0
 19 20  2  0  0  0  0
 19 43  1  0  0  0  0
 20 21  1  0  0  0  0
 21 44  1  0  0  0  0
 21 45  1  0  0  0  0
 21 46  1  0  0  0  0
M  CHG  1  18   1
M  END
> <s_m_source_file>
AV-unprocessed.smi

> <i_m_source_file_index>
2442

> <i_lp_mmshare_version>
43012

> <i_f3d_flags>
0

> <s_epik_input>
W0NIM11PW0NAQEhdMVtDSDJdW0NIMl1bQ0gyXVtDSDJdW0NASF0xW05IXUMoPU8pW05IXVtDSDJdW0NIMl1jMltjSF1bY0hdbltjSF1jMltDSDNd

> <s_epik_cmdline>
J2VwaWtfcHl0aG9uJywgJy1waCcsICc3LjAnLCAnLXRuJywgJzgnLCAnLW1hJywgJzIwMCcsICctbWV0YWxfYmluZGluZycsICctaW1hZScsICc8aW5maWxlLm1hZT4nLCAnLW9tYWUnLCAnPG91dGZpbGUubWFlPic=

> <r_epik_Ionization_Penalty>
1.07145

> <r_epik_Ionization_Penalty_Charging>
1.0714

> <r_epik_Ionization_Penalty_Neutral>
4.9109e-05

> <r_epik_State_Penalty>
1.12601

> <r_epik_Charging_Adjusted_Penalty>
2.19741

> <i_epik_Tot_Q>
1

> <i_epik_Tot_abs_Q>
1

> <r_epik_Metal_State_Penalty>
1.2173

> <b_epik_Metal_Only>
0

> <s_lp_Force_Field>
OPLS_2005

> <r_lp_Energy>
14.6153

> <b_lp_Chiralities_Consistent>
1

> <s_lp_Variant>
AV-unprocessed.smi:2442-8

> <Gold.Version>
5.8.1

> <Gold.Id.Protein>
6NUR|6NUR_protein|mol2

> <Gold.PLP.Fitness>
43.1018

> <Gold.PLP.PLP>
-33.5141

> <Gold.PLP.part.hbond>
-2.6230

> <Gold.PLP.part.metal>
0.0000

> <Gold.PLP.part.buried>
-3.5699

> <Gold.PLP.part.nonpolar>
-27.4760

> <Gold.PLP.part.repulsive>
0.3898

> <Gold.PLP.ligand.clash>
0.0000

> <Gold.PLP.ligand.torsion>
0.5097

> <Gold.PLP.Chemscore.Hbond>
3.5200

> <Gold.PLP.Chemscore.CHOScore>
0.0000

> <Gold.PLP.Chemscore.Metal>
0.0000

> <Gold.Chemscore.Hbonds>
donor molecule, donor type, donor heavy atom, donor atom, acceptor molecule, acceptor atom, score
      L1  H     9    35       P1  7948  0.96
      L1  H    12    36       P1  7948  1.00
      L1  H    18    47       P1  8028  2.00

> <Gold.PLP.Chemscore.Internal.Correction>
0.0472

> <Gold.Rescore>
     Score         DG    S(hbond)    S(metal)    S(lipo)     H(rot)  DE(clash)    DE(int)     intcor
     18.90     -19.84       2.72        0.00      82.68       1.72       0.29       0.65       ----

> <Gold.Chemscore.Fitness>
18.8988

> <Gold.Chemscore.DG>
-19.8402

> <Gold.Chemscore.ZeroCoef>
-5.4800

> <Gold.Chemscore.Hbond>
2.7250

> <Gold.Chemscore.Metal>
0.0000

> <Gold.Chemscore.Lipo>
82.6764

> <Gold.Chemscore.Internal_Hbond>
0.0000

> <Gold.Chemscore.DEClash>
0.2946

> <Gold.Chemscore.DEInternal>
0.6468

> <Gold.Chemscore.Rot>
1.7244

> <Gold.Chemscore.Internal.Correction>
   9.000000E+99

> <Gold.Chemscore.Hbonds>
donor molecule, donor type, donor heavy atom, donor atom, acceptor molecule, acceptor atom, score
      L1  H     9    35       P1  7948  0.87
      L1  H    12    36       P1  7948  1.00
      L1  H    18    47       P1  8028  0.95

> <Gold.Chemscore.Hbond.Weighted>
-9.1015

> <Gold.Chemscore.Metal.Weighted>
-0.0000

> <Gold.Chemscore.Lipo.Weighted>
-9.6731

> <Gold.Chemscore.Internal_Hbond.Weighted>
0.0000

> <Gold.Chemscore.DEClash.Weighted>
0.2946

> <Gold.Chemscore.DEInternal.Weighted>
0.6468

> <Gold.Chemscore.Rot.Weighted>
4.4145

> <Gold.Chemscore.Internal.Correction.Weighted>
   9.000000E+99

> <Gold.Protein.RotatedTorsions>
[ 6907 6896 6895 6894 ] final  115.64 input  -60.11 | X-H torsion
[ 7974 7965 7964 7962 ] final   78.17 input  175.53 | X-H torsion
[ 8008 7997 7996 7995 ] final  131.07 input   59.86 | X-H torsion
[ 10167 10162 10161 10158 ] final  -59.07 input  -65.29 | X-H torsion
[ 10718 10713 10712 10709 ] final   93.62 input   66.30 | X-H torsion
[ 10763 10752 10751 10750 ] final -105.13 input  -60.55 | X-H torsion
[ 11005 11000 10999 10996 ] final   24.11 input  -57.11 | X-H torsion

> <Gold.Protein.ActiveResidues>
 VAL166  LYS551  ARG553  GLY616  TRP617  ASP618  TYR619  PRO620  LYS621  CYS622 
 ASP623  PHE694  ASN695  SER759  ASP760  ASP761  ALA762  ILE779  LEU786  VAL792 
 PHE793  MET794  SER795  GLU796  ALA797  LYS798  CYS799  TRP800  GLU811  SER814 

> <Gold.Protein.RotatedAtoms>
  152.4729  133.8070  159.6982 H   0  0  0  0  0  0  0  0  0  0  0  0  # atno 6907 bound_to 6896
  150.8728  133.7472  159.2962 H   0  0  0  0  0  0  0  0  0  0  0  0  # atno 6908 bound_to 6896
  151.5001  135.1065  159.9879 H   0  0  0  0  0  0  0  0  0  0  0  0  # atno 6909 bound_to 6896
  145.6806  139.2523  143.1816 H   0  0  0  0  0  0  0  0  0  0  0  0  # atno 7974 bound_to 7965
  156.2964  140.2580  156.2866 H   0  0  0  0  0  0  0  0  0  0  0  0  # atno 8008 bound_to 7997
  154.9551  140.0393  157.2181 H   0  0  0  0  0  0  0  0  0  0  0  0  # atno 8009 bound_to 7997
  154.8000  140.2826  155.5933 H   0  0  0  0  0  0  0  0  0  0  0  0  # atno 8010 bound_to 7997
  140.6158  143.2402  151.5600 H   0  0  0  0  0  0  0  0  0  0  0  0  # atno 10167 bound_to 10162
  157.6953  131.0484  150.4062 H   0  0  0  0  0  0  0  0  0  0  0  0  # atno 10718 bound_to 10713
  154.7925  135.4760  154.0086 H   0  0  0  0  0  0  0  0  0  0  0  0  # atno 10763 bound_to 10752
  153.1653  135.6816  153.8691 H   0  0  0  0  0  0  0  0  0  0  0  0  # atno 10764 bound_to 10752
  153.8291  135.3194  155.3395 H   0  0  0  0  0  0  0  0  0  0  0  0  # atno 10765 bound_to 10752
  140.3622  134.2113  155.7671 H   0  0  0  0  0  0  0  0  0  0  0  0  # atno 11005 bound_to 11000
  146.0967  140.7592  142.9569 LP  0  0  0  0  0  0  0  0  0  0  0  0  # atno 17320 bound_to 7965
  144.7027  140.3723  143.7143 LP  0  0  0  0  0  0  0  0  0  0  0  0  # atno 17321 bound_to 7965
  139.5398  144.2680  152.1326 LP  0  0  0  0  0  0  0  0  0  0  0  0  # atno 17342 bound_to 10162
  140.1889  144.4771  150.6489 LP  0  0  0  0  0  0  0  0  0  0  0  0  # atno 17343 bound_to 10162
  156.4451  130.3999  149.6672 LP  0  0  0  0  0  0  0  0  0  0  0  0  # atno 17370 bound_to 10713
  156.3842  130.7594  151.2590 LP  0  0  0  0  0  0  0  0  0  0  0  0  # atno 17371 bound_to 10713
  141.1980  133.8045  157.0600 LP  0  0  0  0  0  0  0  0  0  0  0  0  # atno 17394 bound_to 11000
  140.0617  134.9751  157.1317 LP  0  0  0  0  0  0  0  0  0  0  0  0  # atno 17395 bound_to 11000

$$$$
