AV-unprocessed.smi:1839|AV-procd|sdf|7484|dock8
  -GOLD-   22720 9183D 1   1.00000     0.00000
 Structure written by MMmdl.
 46 47  0  0  0  0  0  0  0  0  1 V2000
  154.2483  141.0815  162.1434 C   0  0  0  0  0  0  0  0  0  0  0  0
  153.3689  141.7228  161.1658 N   0  0  0  0  0  0  0  0  0  0  0  0
  152.4546  142.7166  161.7414 C   0  0  0  0  0  0  0  0  0  0  0  0
  153.2326  141.1993  159.9219 C   0  0  0  0  0  0  0  0  0  0  0  0
  153.5425  140.0337  159.6665 O   0  0  0  0  0  0  0  0  0  0  0  0
  152.6989  142.0195  158.9857 N   0  0  0  0  0  0  0  0  0  0  0  0
  153.0423  143.4456  158.8840 C   0  0  0  0  0  0  0  0  0  0  0  0
  151.7745  144.2622  158.5767 C   0  0  0  0  0  0  0  0  0  0  0  0
  151.0774  143.7392  157.3085 C   0  0  0  0  0  0  0  0  0  0  0  0
  150.8463  142.2142  157.3865 C   0  0  1  0  0  0  0  0  0  0  0  0
  150.2481  141.6617  156.0871 C   0  0  0  0  0  0  0  0  0  0  0  0
  150.8583  140.8206  155.4266 O   0  0  0  0  0  0  0  0  0  0  0  0
  149.0358  142.1256  155.7487 N   0  0  0  0  0  0  0  0  0  0  0  0
  148.2319  141.6401  154.6321 C   0  0  0  0  0  0  0  0  0  0  0  0
  147.0056  140.8195  155.0852 C   0  0  0  0  0  0  0  0  0  0  0  0
  146.5855  139.7424  154.0967 C   0  0  0  0  0  0  0  0  0  0  0  0
  145.6736  138.7350  154.4772 C   0  0  0  0  0  0  0  0  0  0  0  0
  145.3362  137.7445  153.5344 C   0  0  0  0  0  0  0  0  0  0  0  0
  145.9220  137.7971  152.2546 C   0  0  0  0  0  0  0  0  0  0  0  0
  146.8212  138.8444  151.9718 C   0  0  0  0  0  0  0  0  0  0  0  0
  147.1490  139.7992  152.8681 N   0  0  0  0  0  0  0  0  0  0  0  0
  152.1687  141.4917  157.7244 C   0  0  0  0  0  0  0  0  0  0  0  0
  155.1773  140.7407  161.6832 H   0  0  0  0  0  0  0  0  0  0  0  0
  153.7527  140.2204  162.5932 H   0  0  0  0  0  0  0  0  0  0  0  0
  154.5215  141.7722  162.9422 H   0  0  0  0  0  0  0  0  0  0  0  0
  151.4751  142.7038  161.2611 H   0  0  0  0  0  0  0  0  0  0  0  0
  152.8710  143.7196  161.6500 H   0  0  0  0  0  0  0  0  0  0  0  0
  152.2828  142.5265  162.8017 H   0  0  0  0  0  0  0  0  0  0  0  0
  153.5235  143.8259  159.7853 H   0  0  0  0  0  0  0  0  0  0  0  0
  153.7713  143.5774  158.0831 H   0  0  0  0  0  0  0  0  0  0  0  0
  151.0870  144.2059  159.4212 H   0  0  0  0  0  0  0  0  0  0  0  0
  152.0277  145.3156  158.4549 H   0  0  0  0  0  0  0  0  0  0  0  0
  150.1303  144.2605  157.1653 H   0  0  0  0  0  0  0  0  0  0  0  0
  151.6968  143.9797  156.4430 H   0  0  0  0  0  0  0  0  0  0  0  0
  150.1405  142.0226  158.1972 H   0  0  0  0  0  0  0  0  0  0  0  0
  148.6102  142.8172  156.3487 H   0  0  0  0  0  0  0  0  0  0  0  0
  147.8941  142.5133  154.0735 H   0  0  0  0  0  0  0  0  0  0  0  0
  148.8483  141.0569  153.9467 H   0  0  0  0  0  0  0  0  0  0  0  0
  147.2136  140.3547  156.0495 H   0  0  0  0  0  0  0  0  0  0  0  0
  146.1606  141.4888  155.2545 H   0  0  0  0  0  0  0  0  0  0  0  0
  145.2467  138.7173  155.4693 H   0  0  0  0  0  0  0  0  0  0  0  0
  144.6431  136.9564  153.7895 H   0  0  0  0  0  0  0  0  0  0  0  0
  145.6883  137.0532  151.5074 H   0  0  0  0  0  0  0  0  0  0  0  0
  147.2910  138.9169  151.0021 H   0  0  0  0  0  0  0  0  0  0  0  0
  152.9074  141.6296  156.9327 H   0  0  0  0  0  0  0  0  0  0  0  0
  151.9836  140.4179  157.7930 H   0  0  0  0  0  0  0  0  0  0  0  0
  1  2  1  0  0  0  0
  1 23  1  0  0  0  0
  1 24  1  0  0  0  0
  1 25  1  0  0  0  0
  2  3  1  0  0  0  0
  2  4  1  0  0  0  0
  3 26  1  0  0  0  0
  3 27  1  0  0  0  0
  3 28  1  0  0  0  0
  4  5  2  0  0  0  0
  4  6  1  0  0  0  0
  6 22  1  0  0  0  0
  6  7  1  0  0  0  0
  7  8  1  0  0  0  0
  7 29  1  0  0  0  0
  7 30  1  0  0  0  0
  8  9  1  0  0  0  0
  8 31  1  0  0  0  0
  8 32  1  0  0  0  0
  9 10  1  0  0  0  0
  9 33  1  0  0  0  0
  9 34  1  0  0  0  0
 10 11  1  0  0  0  0
 10 22  1  0  0  0  0
 10 35  1  0  0  0  0
 11 12  2  0  0  0  0
 11 13  1  0  0  0  0
 13 14  1  0  0  0  0
 13 36  1  0  0  0  0
 14 15  1  0  0  0  0
 14 37  1  0  0  0  0
 14 38  1  0  0  0  0
 15 16  1  0  0  0  0
 15 39  1  0  0  0  0
 15 40  1  0  0  0  0
 16 21  1  0  0  0  0
 16 17  2  0  0  0  0
 17 18  1  0  0  0  0
 17 41  1  0  0  0  0
 18 19  2  0  0  0  0
 18 42  1  0  0  0  0
 19 20  1  0  0  0  0
 19 43  1  0  0  0  0
 20 21  2  0  0  0  0
 20 44  1  0  0  0  0
 22 45  1  0  0  0  0
 22 46  1  0  0  0  0
M  END
> <s_m_source_file>
AV-unprocessed.smi

> <i_m_source_file_index>
1839

> <i_lp_mmshare_version>
43012

> <i_f3d_flags>
0

> <s_epik_input>
W0NIM11OKFtDSDNdKUMoPU8pTjFbQ0gyXVtDSDJdW0NIMl1bQ0BIXShbQ0gyXTEpQyg9TylbTkhdW0NIMl1bQ0gyXWMyW2NIXVtjSF1bY0hdW2NIXW4y

> <s_epik_cmdline>
J2VwaWtfcHl0aG9uJywgJy1waCcsICc3LjAnLCAnLXRuJywgJzgnLCAnLW1hJywgJzIwMCcsICctbWV0YWxfYmluZGluZycsICctaW1hZScsICc8aW5maWxlLm1hZT4nLCAnLW9tYWUnLCAnPG91dGZpbGUubWFlPic=

> <r_epik_Ionization_Penalty>
0.0268631

> <r_epik_Ionization_Penalty_Charging>
0

> <r_epik_Ionization_Penalty_Neutral>
0.0268631

> <r_epik_State_Penalty>
0.0219025

> <r_epik_Charging_Adjusted_Penalty>
0.0219025

> <i_epik_Tot_Q>
0

> <i_epik_Tot_abs_Q>
0

> <r_epik_Metal_State_Penalty>
0.0209511

> <b_epik_Metal_Only>
0

> <s_lp_Force_Field>
OPLS_2005

> <r_lp_Energy>
49.2306

> <b_lp_Chiralities_Consistent>
1

> <s_lp_Variant>
AV-unprocessed.smi:1839-1

> <Gold.Version>
5.8.1

> <Gold.Id.Protein>
6NUR|6NUR_protein|mol2

> <Gold.PLP.Fitness>
49.9954

> <Gold.PLP.PLP>
-46.0562

> <Gold.PLP.part.hbond>
-2.0000

> <Gold.PLP.part.metal>
0.0000

> <Gold.PLP.part.buried>
-1.7607

> <Gold.PLP.part.nonpolar>
-42.2102

> <Gold.PLP.part.repulsive>
1.0898

> <Gold.PLP.ligand.clash>
0.0000

> <Gold.PLP.ligand.torsion>
1.0853

> <Gold.PLP.Chemscore.Hbond>
0.9280

> <Gold.PLP.Chemscore.CHOScore>
0.6669

> <Gold.PLP.Chemscore.Metal>
0.0000

> <Gold.Chemscore.Hbonds>
donor molecule, donor type, donor heavy atom, donor atom, acceptor molecule, acceptor atom, score
      L1  H    13    36       P1  8028  0.25
      P1  H  7989  7998       L1    12  0.73
      L1  C    20    44       P1  7957  0.66

> <Gold.PLP.Chemscore.Internal.Correction>
1.3251

> <Gold.Rescore>
     Score         DG    S(hbond)    S(metal)    S(lipo)     H(rot)  DE(clash)    DE(int)     intcor
     14.61     -16.38       0.81        0.00     103.21       1.52       0.14       1.63       ----

> <Gold.Chemscore.Fitness>
14.6126

> <Gold.Chemscore.DG>
-16.3805

> <Gold.Chemscore.ZeroCoef>
-5.4800

> <Gold.Chemscore.Hbond>
0.8097

> <Gold.Chemscore.Metal>
0.0000

> <Gold.Chemscore.Lipo>
103.2118

> <Gold.Chemscore.Internal_Hbond>
0.0000

> <Gold.Chemscore.DEClash>
0.1412

> <Gold.Chemscore.DEInternal>
1.6267

> <Gold.Chemscore.Rot>
1.5155

> <Gold.Chemscore.Internal.Correction>
   9.000000E+99

> <Gold.Chemscore.Hbonds>
donor molecule, donor type, donor heavy atom, donor atom, acceptor molecule, acceptor atom, score
      L1  H    13    36       P1  8028  0.23
      P1  H  7989  7998       L1    12  0.69

> <Gold.Chemscore.Hbond.Weighted>
-2.7043

> <Gold.Chemscore.Metal.Weighted>
-0.0000

> <Gold.Chemscore.Lipo.Weighted>
-12.0758

> <Gold.Chemscore.Internal_Hbond.Weighted>
0.0000

> <Gold.Chemscore.DEClash.Weighted>
0.1412

> <Gold.Chemscore.DEInternal.Weighted>
1.6267

> <Gold.Chemscore.Rot.Weighted>
3.8796

> <Gold.Chemscore.Internal.Correction.Weighted>
   9.000000E+99

> <Gold.Protein.RotatedTorsions>
[ 6907 6896 6895 6894 ] final  -20.67 input  -60.11 | X-H torsion
[ 7974 7965 7964 7962 ] final   60.94 input  175.53 | X-H torsion
[ 8008 7997 7996 7995 ] final   57.90 input   59.86 | X-H torsion
[ 10167 10162 10161 10158 ] final   88.98 input  -65.29 | X-H torsion
[ 10718 10713 10712 10709 ] final   46.30 input   66.30 | X-H torsion
[ 10763 10752 10751 10750 ] final  -32.50 input  -60.55 | X-H torsion
[ 11005 11000 10999 10996 ] final   68.97 input  -57.11 | X-H torsion

> <Gold.Protein.ActiveResidues>
 VAL166  LYS551  ARG553  GLY616  TRP617  ASP618  TYR619  PRO620  LYS621  CYS622 
 ASP623  PHE694  ASN695  SER759  ASP760  ASP761  ALA762  ILE779  LEU786  VAL792 
 PHE793  MET794  SER795  GLU796  ALA797  LYS798  CYS799  TRP800  GLU811  SER814 

> <Gold.Protein.RotatedAtoms>
  151.2448  135.0601  159.9038 H   0  0  0  0  0  0  0  0  0  0  0  0  # atno 6907 bound_to 6896
  152.5388  134.0396  159.8071 H   0  0  0  0  0  0  0  0  0  0  0  0  # atno 6908 bound_to 6896
  151.0595  133.5507  159.2667 H   0  0  0  0  0  0  0  0  0  0  0  0  # atno 6909 bound_to 6896
  145.8904  139.3507  143.0653 H   0  0  0  0  0  0  0  0  0  0  0  0  # atno 7974 bound_to 7965
  155.5413  140.3484  155.4447 H   0  0  0  0  0  0  0  0  0  0  0  0  # atno 8008 bound_to 7997
  156.0649  140.1349  156.9924 H   0  0  0  0  0  0  0  0  0  0  0  0  # atno 8009 bound_to 7997
  154.4498  140.0977  156.6557 H   0  0  0  0  0  0  0  0  0  0  0  0  # atno 8010 bound_to 7997
  139.8618  144.6540  150.9049 H   0  0  0  0  0  0  0  0  0  0  0  0  # atno 10167 bound_to 10162
  157.4466  130.8113  149.7747 H   0  0  0  0  0  0  0  0  0  0  0  0  # atno 10718 bound_to 10713
  153.8147  135.6879  153.4835 H   0  0  0  0  0  0  0  0  0  0  0  0  # atno 10763 bound_to 10752
  153.1606  135.4581  154.9765 H   0  0  0  0  0  0  0  0  0  0  0  0  # atno 10764 bound_to 10752
  154.7953  135.3316  154.7625 H   0  0  0  0  0  0  0  0  0  0  0  0  # atno 10765 bound_to 10752
  139.9680  134.6948  156.0505 H   0  0  0  0  0  0  0  0  0  0  0  0  # atno 11005 bound_to 11000
  145.8916  140.9300  143.0549 LP  0  0  0  0  0  0  0  0  0  0  0  0  # atno 17320 bound_to 7965
  144.6730  140.0913  143.7465 LP  0  0  0  0  0  0  0  0  0  0  0  0  # atno 17321 bound_to 7965
  140.7774  143.3738  151.1601 LP  0  0  0  0  0  0  0  0  0  0  0  0  # atno 17342 bound_to 10162
  139.7366  143.8989  152.3037 LP  0  0  0  0  0  0  0  0  0  0  0  0  # atno 17343 bound_to 10162
  155.9970  130.3902  150.2758 LP  0  0  0  0  0  0  0  0  0  0  0  0  # atno 17370 bound_to 10713
  157.0926  131.0174  151.3116 LP  0  0  0  0  0  0  0  0  0  0  0  0  # atno 17371 bound_to 10713
  141.1360  133.6575  156.3595 LP  0  0  0  0  0  0  0  0  0  0  0  0  # atno 17394 bound_to 11000
  140.5354  134.6172  157.5363 LP  0  0  0  0  0  0  0  0  0  0  0  0  # atno 17395 bound_to 11000

$$$$
