AV-unprocessed.smi:788|AV-procd|sdf|3737|dock1
  -GOLD-   22720 1173D 1   1.00000     0.00000
 Structure written by MMmdl.
 34 35  0  0  0  0  0  0  0  0  2 V2000
  152.8098  141.9770  161.4313 C   0  0  0  0  0  0  0  0  0  0  0  0
  152.7446  143.1376  160.4217 C   0  0  2  0  0  0  0  0  0  0  0  0
  152.1805  144.4033  161.0947 C   0  0  0  0  0  0  0  0  0  0  0  0
  152.1260  145.5862  160.1200 C   0  0  0  0  0  0  0  0  0  0  0  0
  151.2992  145.2332  158.8775 C   0  0  0  0  0  0  0  0  0  0  0  0
  151.8479  143.9806  158.1683 C   0  0  2  0  0  0  0  0  0  0  0  0
  151.0113  143.6634  156.9152 C   0  0  0  0  0  0  0  0  0  0  0  0
  151.9311  142.7822  159.1495 C   0  0  1  0  0  0  0  0  0  0  0  0
  152.5423  141.6376  158.4709 N   0  0  0  0  0  0  0  0  0  0  0  0
  151.9546  140.7951  157.5976 C   0  0  0  0  0  0  0  0  0  0  0  0
  150.7660  140.9490  157.3212 O   0  0  0  0  0  0  0  0  0  0  0  0
  152.7190  139.8067  157.0628 N   0  5  0  0  0  0  0  0  0  0  0  0
  152.2350  138.9161  156.1773 C   0  0  0  0  0  0  0  0  0  0  0  0
  152.6250  137.6313  156.1610 N   0  0  0  0  0  0  0  0  0  0  0  0
  152.0092  136.8869  155.1641 N   0  0  0  0  0  0  0  0  0  0  0  0
  151.1591  137.6309  154.4570 C   0  0  0  0  0  0  0  0  0  0  0  0
  151.0348  139.3085  154.9427 S   0  0  0  0  0  0  0  0  0  0  0  0
  151.8117  141.6682  161.7432 H   0  0  0  0  0  0  0  0  0  0  0  0
  153.3634  142.2653  162.3251 H   0  0  0  0  0  0  0  0  0  0  0  0
  153.3114  141.1046  161.0121 H   0  0  0  0  0  0  0  0  0  0  0  0
  153.7688  143.3578  160.1159 H   0  0  0  0  0  0  0  0  0  0  0  0
  151.1791  144.2018  161.4779 H   0  0  0  0  0  0  0  0  0  0  0  0
  152.7920  144.6720  161.9567 H   0  0  0  0  0  0  0  0  0  0  0  0
  151.6967  146.4570  160.6162 H   0  0  0  0  0  0  0  0  0  0  0  0
  153.1374  145.8655  159.8224 H   0  0  0  0  0  0  0  0  0  0  0  0
  150.2603  145.0685  159.1666 H   0  0  0  0  0  0  0  0  0  0  0  0
  151.2973  146.0806  158.1911 H   0  0  0  0  0  0  0  0  0  0  0  0
  152.8602  144.2114  157.8322 H   0  0  0  0  0  0  0  0  0  0  0  0
  149.9931  143.3795  157.1826 H   0  0  0  0  0  0  0  0  0  0  0  0
  151.4430  142.8458  156.3374 H   0  0  0  0  0  0  0  0  0  0  0  0
  150.9532  144.5277  156.2535 H   0  0  0  0  0  0  0  0  0  0  0  0
  150.9136  142.5385  159.4598 H   0  0  0  0  0  0  0  0  0  0  0  0
  153.5158  141.4694  158.6775 H   0  0  0  0  0  0  0  0  0  0  0  0
  150.6013  137.1892  153.6449 H   0  0  0  0  0  0  0  0  0  0  0  0
  1  2  1  0  0  0  0
  1 18  1  0  0  0  0
  1 19  1  0  0  0  0
  1 20  1  0  0  0  0
  2  8  1  0  0  0  0
  2  3  1  0  0  0  0
  2 21  1  0  0  0  0
  3  4  1  0  0  0  0
  3 22  1  0  0  0  0
  3 23  1  0  0  0  0
  4  5  1  0  0  0  0
  4 24  1  0  0  0  0
  4 25  1  0  0  0  0
  5  6  1  0  0  0  0
  5 26  1  0  0  0  0
  5 27  1  0  0  0  0
  6  7  1  0  0  0  0
  6  8  1  0  0  0  0
  6 28  1  0  0  0  0
  7 29  1  0  0  0  0
  7 30  1  0  0  0  0
  7 31  1  0  0  0  0
  8  9  1  0  0  0  0
  8 32  1  0  0  0  0
  9 10  1  0  0  0  0
  9 33  1  0  0  0  0
 10 11  2  0  0  0  0
 10 12  1  0  0  0  0
 12 13  1  0  0  0  0
 13 17  1  0  0  0  0
 13 14  2  0  0  0  0
 14 15  1  0  0  0  0
 15 16  2  0  0  0  0
 16 17  1  0  0  0  0
 16 34  1  0  0  0  0
M  CHG  1  12  -1
M  END
> <s_m_source_file>
AV-unprocessed.smi

> <i_m_source_file_index>
788

> <i_lp_mmshare_version>
43012

> <i_f3d_flags>
0

> <s_epik_input>
W0NIM11bQ0BASF0xW0NIMl1bQ0gyXVtDSDJdW0NAQEhdKFtDSDNdKVtDQEhdMVtOSF1DKD1PKVtOSF1jMm5uW2NIXXMy

> <s_epik_cmdline>
J2VwaWtfcHl0aG9uJywgJy1waCcsICc3LjAnLCAnLXRuJywgJzgnLCAnLW1hJywgJzIwMCcsICctbWV0YWxfYmluZGluZycsICctaW1hZScsICc8aW5maWxlLm1hZT4nLCAnLW9tYWUnLCAnPG91dGZpbGUubWFlPic=

> <r_lp_tautomer_probability>
1

> <r_epik_Ionization_Penalty>
4.58638

> <r_epik_Ionization_Penalty_Charging>
4.53816

> <r_epik_Ionization_Penalty_Neutral>
0.048215

> <r_epik_State_Penalty>
4.53788

> <r_epik_Charging_Adjusted_Penalty>
9.07605

> <i_epik_Tot_Q>
-1

> <i_epik_Tot_abs_Q>
1

> <r_epik_Metal_State_Penalty>
0.838628

> <b_epik_Metal_Only>
1

> <s_lp_Force_Field>
OPLS_2005

> <r_lp_Energy>
11.4954

> <b_lp_Chiralities_Consistent>
1

> <s_lp_Variant>
AV-unprocessed.smi:788-7

> <Gold.Version>
5.8.1

> <Gold.Id.Protein>
6NUR|6NUR_protein|mol2

> <Gold.PLP.Fitness>
49.6069

> <Gold.PLP.PLP>
-38.1245

> <Gold.PLP.part.hbond>
-2.2915

> <Gold.PLP.part.metal>
0.0000

> <Gold.PLP.part.buried>
0.0407

> <Gold.PLP.part.nonpolar>
-35.0437

> <Gold.PLP.part.repulsive>
0.1969

> <Gold.PLP.ligand.clash>
0.0000

> <Gold.PLP.ligand.torsion>
0.5339

> <Gold.PLP.Chemscore.Hbond>
3.0000

> <Gold.PLP.Chemscore.CHOScore>
1.1769

> <Gold.PLP.Chemscore.Metal>
0.0000

> <Gold.Chemscore.Hbonds>
donor molecule, donor type, donor heavy atom, donor atom, acceptor molecule, acceptor atom, score
      P1  H  7997  8009       L1    12  2.00
      P1  H 10752 10763       L1    15  1.00
      L1  C    16    34       P1  7948  0.53
      L1  C    16    34       P1  7949  0.63

> <Gold.PLP.Chemscore.Internal.Correction>
0.0196

> <Gold.Rescore>
     Score         DG    S(hbond)    S(metal)    S(lipo)     H(rot)  DE(clash)    DE(int)     intcor
     17.55     -20.96       1.73        0.00     104.71       1.00       1.63       1.77       ----

> <Gold.Chemscore.Fitness>
17.5513

> <Gold.Chemscore.DG>
-20.9578

> <Gold.Chemscore.ZeroCoef>
-5.4800

> <Gold.Chemscore.Hbond>
1.7324

> <Gold.Chemscore.Metal>
0.0000

> <Gold.Chemscore.Lipo>
104.7148

> <Gold.Chemscore.Internal_Hbond>
0.0000

> <Gold.Chemscore.DEClash>
1.6329

> <Gold.Chemscore.DEInternal>
1.7735

> <Gold.Chemscore.Rot>
1.0000

> <Gold.Chemscore.Internal.Correction>
   9.000000E+99

> <Gold.Chemscore.Hbonds>
donor molecule, donor type, donor heavy atom, donor atom, acceptor molecule, acceptor atom, score
      P1  H  7997  8009       L1    12  0.68
      P1  H 10752 10763       L1    15  0.83

> <Gold.Chemscore.Hbond.Weighted>
-5.7861

> <Gold.Chemscore.Metal.Weighted>
-0.0000

> <Gold.Chemscore.Lipo.Weighted>
-12.2516

> <Gold.Chemscore.Internal_Hbond.Weighted>
0.0000

> <Gold.Chemscore.DEClash.Weighted>
1.6329

> <Gold.Chemscore.DEInternal.Weighted>
1.7735

> <Gold.Chemscore.Rot.Weighted>
2.5600

> <Gold.Chemscore.Internal.Correction.Weighted>
   9.000000E+99

> <Gold.Protein.RotatedTorsions>
[ 6907 6896 6895 6894 ] final  -28.79 input  -60.11 | X-H torsion
[ 7974 7965 7964 7962 ] final   66.34 input  175.53 | X-H torsion
[ 8008 7997 7996 7995 ] final  174.76 input   59.86 | X-H torsion
[ 10167 10162 10161 10158 ] final   29.11 input  -65.29 | X-H torsion
[ 10718 10713 10712 10709 ] final   29.42 input   66.30 | X-H torsion
[ 10763 10752 10751 10750 ] final   58.43 input  -60.55 | X-H torsion
[ 11005 11000 10999 10996 ] final -148.37 input  -57.11 | X-H torsion

> <Gold.Protein.ActiveResidues>
 VAL166  LYS551  ARG553  GLY616  TRP617  ASP618  TYR619  PRO620  LYS621  CYS622 
 ASP623  PHE694  ASN695  SER759  ASP760  ASP761  ALA762  ILE779  LEU786  VAL792 
 PHE793  MET794  SER795  GLU796  ALA797  LYS798  CYS799  TRP800  GLU811  SER814 

> <Gold.Protein.RotatedAtoms>
  151.1281  135.0116  159.8569 H   0  0  0  0  0  0  0  0  0  0  0  0  # atno 6907 bound_to 6896
  152.5450  134.1642  159.8580 H   0  0  0  0  0  0  0  0  0  0  0  0  # atno 6908 bound_to 6896
  151.1706  133.4741  159.2627 H   0  0  0  0  0  0  0  0  0  0  0  0  # atno 6909 bound_to 6896
  145.8278  139.3121  143.1005 H   0  0  0  0  0  0  0  0  0  0  0  0  # atno 7974 bound_to 7965
  156.0941  140.1426  156.9553 H   0  0  0  0  0  0  0  0  0  0  0  0  # atno 8008 bound_to 7997
  154.4660  140.0926  156.7068 H   0  0  0  0  0  0  0  0  0  0  0  0  # atno 8009 bound_to 7997
  155.4870  140.3447  155.4351 H   0  0  0  0  0  0  0  0  0  0  0  0  # atno 8010 bound_to 7997
  140.4794  144.0639  150.6260 H   0  0  0  0  0  0  0  0  0  0  0  0  # atno 10167 bound_to 10162
  157.2464  130.7093  149.6383 H   0  0  0  0  0  0  0  0  0  0  0  0  # atno 10718 bound_to 10713
  152.9870  135.5607  154.5550 H   0  0  0  0  0  0  0  0  0  0  0  0  # atno 10763 bound_to 10752
  154.4980  135.2796  155.1445 H   0  0  0  0  0  0  0  0  0  0  0  0  # atno 10764 bound_to 10752
  154.2888  135.6330  153.5429 H   0  0  0  0  0  0  0  0  0  0  0  0  # atno 10765 bound_to 10752
  140.7619  134.3288  157.5099 H   0  0  0  0  0  0  0  0  0  0  0  0  # atno 11005 bound_to 11000
  145.9605  140.8839  143.0213 LP  0  0  0  0  0  0  0  0  0  0  0  0  # atno 17320 bound_to 7965
  144.6742  140.1805  143.7406 LP  0  0  0  0  0  0  0  0  0  0  0  0  # atno 17321 bound_to 7965
  140.3877  143.2769  152.0097 LP  0  0  0  0  0  0  0  0  0  0  0  0  # atno 17342 bound_to 10162
  139.4831  144.6103  151.7446 LP  0  0  0  0  0  0  0  0  0  0  0  0  # atno 17343 bound_to 10162
  155.9668  130.4442  150.5450 LP  0  0  0  0  0  0  0  0  0  0  0  0  # atno 17370 bound_to 10713
  157.3325  131.0702  151.1850 LP  0  0  0  0  0  0  0  0  0  0  0  0  # atno 17371 bound_to 10713
  139.8769  134.9207  156.3259 LP  0  0  0  0  0  0  0  0  0  0  0  0  # atno 17394 bound_to 11000
  140.9655  133.7361  156.0460 LP  0  0  0  0  0  0  0  0  0  0  0  0  # atno 17395 bound_to 11000

$$$$
