AV-unprocessed.smi:713|AV-procd|sdf|3477|dock6
  -GOLD-   22720 0473D 1   1.00000     0.00000
 Structure written by MMmdl.
 41 42  0  0  0  0  0  0  0  0  1 V2000
  144.6121  136.8432  154.0012 C   0  0  0  0  0  0  0  0  0  0  0  0
  144.8885  137.1766  152.5237 C   0  0  1  0  0  0  0  0  0  0  0  0
  146.1571  138.0223  152.3392 C   0  0  0  0  0  0  0  0  0  0  0  0
  146.6504  138.1777  151.2211 O   0  0  0  0  0  0  0  0  0  0  0  0
  146.6737  138.5676  153.4518 N   0  0  0  0  0  0  0  0  0  0  0  0
  147.8627  139.4122  153.5043 C   0  0  1  0  0  0  0  0  0  0  0  0
  147.5405  140.7106  154.2656 C   0  0  0  0  0  0  0  0  0  0  0  0
  148.7803  141.6104  154.3828 C   0  0  0  0  0  0  0  0  0  0  0  0
  149.9503  140.8642  155.0423 C   0  0  0  0  0  0  0  0  0  0  0  0
  150.2844  139.5627  154.2903 C   0  0  1  0  0  0  0  0  0  0  0  0
  151.6662  138.6819  155.1501 S   0  0  0  0  0  0  0  0  0  0  0  0
  151.0138  138.4692  156.8587 C   0  0  0  0  0  0  0  0  0  0  0  0
  151.8141  137.3518  154.5404 O   0  0  0  0  0  0  0  0  0  0  0  0
  152.8278  139.5817  155.2177 O   0  0  0  0  0  0  0  0  0  0  0  0
  149.0367  138.6652  154.1706 C   0  0  0  0  0  0  0  0  0  0  0  0
  144.9662  135.9653  151.7174 N   0  0  0  0  0  0  0  0  0  0  0  0
  145.9662  135.0125  151.6757 C   0  0  0  0  0  0  0  0  0  0  0  0
  145.5902  134.0633  150.7692 C   0  0  0  0  0  0  0  0  0  0  0  0
  144.3299  134.5259  150.2995 C   0  0  0  0  0  0  0  0  0  0  0  0
  143.9595  135.6620  150.8676 N   0  0  0  0  0  0  0  0  0  0  0  0
  144.5479  137.7494  154.6044 H   0  0  0  0  0  0  0  0  0  0  0  0
  145.3921  136.2127  154.4299 H   0  0  0  0  0  0  0  0  0  0  0  0
  143.6653  136.3129  154.1073 H   0  0  0  0  0  0  0  0  0  0  0  0
  144.0449  137.7698  152.1641 H   0  0  0  0  0  0  0  0  0  0  0  0
  146.2017  138.3907  154.3271 H   0  0  0  0  0  0  0  0  0  0  0  0
  148.1474  139.6796  152.4847 H   0  0  0  0  0  0  0  0  0  0  0  0
  146.7402  141.2527  153.7603 H   0  0  0  0  0  0  0  0  0  0  0  0
  147.1708  140.4730  155.2643 H   0  0  0  0  0  0  0  0  0  0  0  0
  149.0785  141.9540  153.3915 H   0  0  0  0  0  0  0  0  0  0  0  0
  148.5378  142.5034  154.9594 H   0  0  0  0  0  0  0  0  0  0  0  0
  150.8260  141.5131  155.0741 H   0  0  0  0  0  0  0  0  0  0  0  0
  149.6989  140.6354  156.0788 H   0  0  0  0  0  0  0  0  0  0  0  0
  150.6419  139.8152  153.2915 H   0  0  0  0  0  0  0  0  0  0  0  0
  151.7159  137.8701  157.4379 H   0  0  0  0  0  0  0  0  0  0  0  0
  150.0512  137.9598  156.8227 H   0  0  0  0  0  0  0  0  0  0  0  0
  150.8984  139.4398  157.3393 H   0  0  0  0  0  0  0  0  0  0  0  0
  148.7350  138.3215  155.1611 H   0  0  0  0  0  0  0  0  0  0  0  0
  149.2749  137.7725  153.5936 H   0  0  0  0  0  0  0  0  0  0  0  0
  146.8525  135.0888  152.2887 H   0  0  0  0  0  0  0  0  0  0  0  0
  146.1332  133.1739  150.4856 H   0  0  0  0  0  0  0  0  0  0  0  0
  143.6770  134.0727  149.5683 H   0  0  0  0  0  0  0  0  0  0  0  0
  1  2  1  0  0  0  0
  1 21  1  0  0  0  0
  1 22  1  0  0  0  0
  1 23  1  0  0  0  0
  2  3  1  0  0  0  0
  2 16  1  0  0  0  0
  2 24  1  0  0  0  0
  3  4  2  0  0  0  0
  3  5  1  0  0  0  0
  5  6  1  0  0  0  0
  5 25  1  0  0  0  0
  6 15  1  0  0  0  0
  6  7  1  0  0  0  0
  6 26  1  0  0  0  0
  7  8  1  0  0  0  0
  7 27  1  0  0  0  0
  7 28  1  0  0  0  0
  8  9  1  0  0  0  0
  8 29  1  0  0  0  0
  8 30  1  0  0  0  0
  9 10  1  0  0  0  0
  9 31  1  0  0  0  0
  9 32  1  0  0  0  0
 10 11  1  0  0  0  0
 10 15  1  0  0  0  0
 10 33  1  0  0  0  0
 11 12  1  0  0  0  0
 11 13  2  0  0  0  0
 11 14  2  0  0  0  0
 12 34  1  0  0  0  0
 12 35  1  0  0  0  0
 12 36  1  0  0  0  0
 15 37  1  0  0  0  0
 15 38  1  0  0  0  0
 16 20  1  0  0  0  0
 16 17  1  0  0  0  0
 17 18  2  0  0  0  0
 17 39  1  0  0  0  0
 18 19  1  0  0  0  0
 18 40  1  0  0  0  0
 19 20  2  0  0  0  0
 19 41  1  0  0  0  0
M  END
> <s_m_source_file>
AV-unprocessed.smi

> <i_m_source_file_index>
713

> <i_lp_mmshare_version>
43012

> <i_f3d_flags>
0

> <s_epik_input>
bjFbY0hdW2NIXVtjSF1uMVtDQEhdKFtDSDNdKUMoPU8pW05IXVtDQEBIXTJbQ0gyXVtDSDJdW0NIMl1bQ0BIXShbQ0gyXTIpUyg9TykoPU8pW0NIM10=

> <s_epik_cmdline>
J2VwaWtfcHl0aG9uJywgJy1waCcsICc3LjAnLCAnLXRuJywgJzgnLCAnLW1hJywgJzIwMCcsICctbWV0YWxfYmluZGluZycsICctaW1hZScsICc8aW5maWxlLm1hZT4nLCAnLW9tYWUnLCAnPG91dGZpbGUubWFlPic=

> <r_lp_tautomer_probability>
1

> <r_epik_Ionization_Penalty>
4.07816e-05

> <r_epik_Ionization_Penalty_Charging>
0

> <r_epik_Ionization_Penalty_Neutral>
4.07816e-05

> <r_epik_State_Penalty>
-0

> <r_epik_Charging_Adjusted_Penalty>
0

> <i_epik_Tot_Q>
0

> <i_epik_Tot_abs_Q>
0

> <r_epik_Metal_State_Penalty>
-0

> <b_epik_Metal_Only>
0

> <s_lp_Force_Field>
OPLS_2005

> <r_lp_Energy>
7.49251

> <b_lp_Chiralities_Consistent>
1

> <s_lp_Variant>
AV-unprocessed.smi:713-4

> <Gold.Version>
5.8.1

> <Gold.Id.Protein>
6NUR|6NUR_protein|mol2

> <Gold.PLP.Fitness>
42.6750

> <Gold.PLP.PLP>
-30.5046

> <Gold.PLP.part.hbond>
-3.7102

> <Gold.PLP.part.metal>
0.0000

> <Gold.PLP.part.buried>
2.2310

> <Gold.PLP.part.nonpolar>
-30.2742

> <Gold.PLP.part.repulsive>
1.7804

> <Gold.PLP.ligand.clash>
0.2446

> <Gold.PLP.ligand.torsion>
0.7977

> <Gold.PLP.Chemscore.Hbond>
2.9939

> <Gold.PLP.Chemscore.CHOScore>
1.6091

> <Gold.PLP.Chemscore.Metal>
0.0000

> <Gold.Chemscore.Hbonds>
donor molecule, donor type, donor heavy atom, donor atom, acceptor molecule, acceptor atom, score
      P1  H  7954  7966       L1     4  0.99
      P1  H  7997  8010       L1    14  1.00
      P1  H 10752 10763       L1    13  0.94
      L1  C    17    39       P1  7948  0.99
      L1  C    19    41       P1 10186  0.53

> <Gold.PLP.Chemscore.Internal.Correction>
0.2015

> <Gold.Rescore>
     Score         DG    S(hbond)    S(metal)    S(lipo)     H(rot)  DE(clash)    DE(int)     intcor
     17.48     -18.94       2.92        0.00      69.37       1.72       0.86       0.59       ----

> <Gold.Chemscore.Fitness>
17.4816

> <Gold.Chemscore.DG>
-18.9368

> <Gold.Chemscore.ZeroCoef>
-5.4800

> <Gold.Chemscore.Hbond>
2.9210

> <Gold.Chemscore.Metal>
0.0000

> <Gold.Chemscore.Lipo>
69.3706

> <Gold.Chemscore.Internal_Hbond>
0.0000

> <Gold.Chemscore.DEClash>
0.8648

> <Gold.Chemscore.DEInternal>
0.5904

> <Gold.Chemscore.Rot>
1.7249

> <Gold.Chemscore.Internal.Correction>
   9.000000E+99

> <Gold.Chemscore.Hbonds>
donor molecule, donor type, donor heavy atom, donor atom, acceptor molecule, acceptor atom, score
      P1  H  7954  7966       L1     4  0.92
      P1  H  7997  8010       L1    14  1.00
      P1  H 10752 10763       L1    13  0.85

> <Gold.Chemscore.Hbond.Weighted>
-9.7562

> <Gold.Chemscore.Metal.Weighted>
-0.0000

> <Gold.Chemscore.Lipo.Weighted>
-8.1164

> <Gold.Chemscore.Internal_Hbond.Weighted>
0.0000

> <Gold.Chemscore.DEClash.Weighted>
0.8648

> <Gold.Chemscore.DEInternal.Weighted>
0.5904

> <Gold.Chemscore.Rot.Weighted>
4.4157

> <Gold.Chemscore.Internal.Correction.Weighted>
   9.000000E+99

> <Gold.Protein.RotatedTorsions>
[ 6907 6896 6895 6894 ] final  110.81 input  -60.11 | X-H torsion
[ 7974 7965 7964 7962 ] final   73.62 input  175.53 | X-H torsion
[ 8008 7997 7996 7995 ] final  103.54 input   59.86 | X-H torsion
[ 10167 10162 10161 10158 ] final   27.25 input  -65.29 | X-H torsion
[ 10718 10713 10712 10709 ] final   30.02 input   66.30 | X-H torsion
[ 10763 10752 10751 10750 ] final   41.22 input  -60.55 | X-H torsion
[ 11005 11000 10999 10996 ] final  -73.15 input  -57.11 | X-H torsion

> <Gold.Protein.ActiveResidues>
 VAL166  LYS551  ARG553  GLY616  TRP617  ASP618  TYR619  PRO620  LYS621  CYS622 
 ASP623  PHE694  ASN695  SER759  ASP760  ASP761  ALA762  ILE779  LEU786  VAL792 
 PHE793  MET794  SER795  GLU796  ALA797  LYS798  CYS799  TRP800  GLU811  SER814 

> <Gold.Protein.RotatedAtoms>
  152.5001  133.8748  159.7316 H   0  0  0  0  0  0  0  0  0  0  0  0  # atno 6907 bound_to 6896
  150.9225  133.6854  159.2835 H   0  0  0  0  0  0  0  0  0  0  0  0  # atno 6908 bound_to 6896
  151.4226  135.1004  159.9671 H   0  0  0  0  0  0  0  0  0  0  0  0  # atno 6909 bound_to 6896
  145.7385  139.2711  143.1500 H   0  0  0  0  0  0  0  0  0  0  0  0  # atno 7974 bound_to 7965
  156.1493  140.3163  155.8622 H   0  0  0  0  0  0  0  0  0  0  0  0  # atno 8008 bound_to 7997
  155.4002  140.0499  157.3054 H   0  0  0  0  0  0  0  0  0  0  0  0  # atno 8009 bound_to 7997
  154.5044  140.2141  155.9292 H   0  0  0  0  0  0  0  0  0  0  0  0  # atno 8010 bound_to 7997
  140.4954  144.0400  150.6312 H   0  0  0  0  0  0  0  0  0  0  0  0  # atno 10167 bound_to 10162
  157.2542  130.7130  149.6421 H   0  0  0  0  0  0  0  0  0  0  0  0  # atno 10718 bound_to 10713
  152.9914  135.6168  154.2752 H   0  0  0  0  0  0  0  0  0  0  0  0  # atno 10763 bound_to 10752
  154.2483  135.2786  155.2828 H   0  0  0  0  0  0  0  0  0  0  0  0  # atno 10764 bound_to 10752
  154.5310  135.5788  153.6816 H   0  0  0  0  0  0  0  0  0  0  0  0  # atno 10765 bound_to 10752
  141.1619  133.6869  156.7168 H   0  0  0  0  0  0  0  0  0  0  0  0  # atno 11005 bound_to 11000
  146.0470  140.8108  142.9800 LP  0  0  0  0  0  0  0  0  0  0  0  0  # atno 17320 bound_to 7965
  144.6876  140.2995  143.7265 LP  0  0  0  0  0  0  0  0  0  0  0  0  # atno 17321 bound_to 7965
  140.3681  143.2870  152.0309 LP  0  0  0  0  0  0  0  0  0  0  0  0  # atno 17342 bound_to 10162
  139.4860  144.6251  151.7180 LP  0  0  0  0  0  0  0  0  0  0  0  0  # atno 17343 bound_to 10162
  155.9665  130.4418  150.5354 LP  0  0  0  0  0  0  0  0  0  0  0  0  # atno 17370 bound_to 10713
  157.3245  131.0688  151.1907 LP  0  0  0  0  0  0  0  0  0  0  0  0  # atno 17371 bound_to 10713
  140.2845  134.8290  157.3963 LP  0  0  0  0  0  0  0  0  0  0  0  0  # atno 17394 bound_to 11000
  140.1402  134.4981  155.8037 LP  0  0  0  0  0  0  0  0  0  0  0  0  # atno 17395 bound_to 11000

$$$$
