AV-unprocessed.smi:44|AV-procd|sdf|397|dock7
  -GOLD-   2262016253D 1   1.00000     0.00000
 Structure written by MMmdl.
 29 31  0  0  0  0  0  0  0  0  1 V2000
  151.8264  138.2516  154.2850 O   0  0  0  0  0  0  0  0  0  0  0  0
  152.0751  138.6030  155.4363 C   0  0  0  0  0  0  0  0  0  0  0  0
  152.8021  137.8623  156.3080 N   0  0  0  0  0  0  0  0  0  0  0  0
  153.0889  138.2598  157.6379 C   0  0  0  0  0  0  0  0  0  0  0  0
  152.6969  139.3803  158.1869 N   0  0  0  0  0  0  0  0  0  0  0  0
  151.9576  140.1585  157.3186 C   0  0  0  0  0  0  0  0  0  0  0  0
  151.6143  139.8840  156.0216 C   0  0  0  0  0  0  0  0  0  0  0  0
  150.8638  140.9126  155.4666 N   0  0  0  0  0  0  0  0  0  0  0  0
  150.7888  141.7815  156.4726 C   0  0  0  0  0  0  0  0  0  0  0  0
  151.4103  141.4073  157.6076 N   0  0  0  0  0  0  0  0  0  0  0  0
  151.4885  142.1964  158.8742 C   0  0  1  0  0  0  0  0  0  0  0  0
  152.7174  143.1108  158.8822 C   0  0  0  0  0  0  0  0  0  0  0  0
  152.1998  144.2797  159.6901 C   0  0  0  0  0  0  0  0  0  0  0  0
  150.7587  144.3581  159.1809 C   0  0  2  0  0  0  0  0  0  0  0  0
  149.7467  145.1147  160.0581 C   0  0  0  0  0  0  0  0  0  0  0  0
  148.4262  144.9843  159.5742 O   0  0  0  0  0  0  0  0  0  0  0  0
  150.3547  143.0080  158.9692 O   0  0  0  0  0  0  0  0  0  0  0  0
  153.1578  136.9753  155.9828 H   0  0  0  0  0  0  0  0  0  0  0  0
  151.4902  141.4625  159.6816 H   0  0  0  0  0  0  0  0  0  0  0  0
  150.7701  144.8312  158.1979 H   0  0  0  0  0  0  0  0  0  0  0  0
  153.6845  137.5253  158.1817 H   0  0  0  0  0  0  0  0  0  0  0  0
  150.2652  142.7218  156.3806 H   0  0  0  0  0  0  0  0  0  0  0  0
  153.5793  142.6120  159.3257 H   0  0  0  0  0  0  0  0  0  0  0  0
  152.9660  143.4262  157.8679 H   0  0  0  0  0  0  0  0  0  0  0  0
  152.2408  144.0377  160.7526 H   0  0  0  0  0  0  0  0  0  0  0  0
  152.7622  145.1986  159.5232 H   0  0  0  0  0  0  0  0  0  0  0  0
  149.7705  144.7165  161.0727 H   0  0  0  0  0  0  0  0  0  0  0  0
  150.0107  146.1706  160.1231 H   0  0  0  0  0  0  0  0  0  0  0  0
  148.3732  145.4060  158.7303 H   0  0  0  0  0  0  0  0  0  0  0  0
  1  2  2  0  0  0  0
  2  7  1  0  0  0  0
  2  3  1  0  0  0  0
  3 18  1  0  0  0  0
  3  4  1  0  0  0  0
  4  5  2  0  0  0  0
  4 21  1  0  0  0  0
  5  6  1  0  0  0  0
  6 10  1  0  0  0  0
  6  7  2  0  0  0  0
  7  8  1  0  0  0  0
  8  9  2  0  0  0  0
  9 10  1  0  0  0  0
  9 22  1  0  0  0  0
 10 11  1  0  0  0  0
 11 19  1  0  0  0  0
 11 17  1  0  0  0  0
 11 12  1  0  0  0  0
 12 13  1  0  0  0  0
 12 23  1  0  0  0  0
 12 24  1  0  0  0  0
 13 14  1  0  0  0  0
 13 25  1  0  0  0  0
 13 26  1  0  0  0  0
 14 20  1  0  0  0  0
 14 15  1  0  0  0  0
 14 17  1  0  0  0  0
 15 16  1  0  0  0  0
 15 27  1  0  0  0  0
 15 28  1  0  0  0  0
 16 29  1  0  0  0  0
M  END
> <s_m_source_file>
AV-unprocessed.smi

> <i_m_source_file_index>
44

> <i_lp_mmshare_version>
43012

> <i_f3d_flags>
0

> <s_epik_input>
bjFbY0hdW25IXWMoPU8pYyhjMTIpbltjSF1uMltDQEhdM1tDSDJdW0NIMl1bQ0BIXShPMylbQ0gyXVtPSF0=

> <s_epik_cmdline>
J2VwaWtfcHl0aG9uJywgJy1waCcsICc3LjAnLCAnLXRuJywgJzgnLCAnLW1hJywgJzIwMCcsICctbWV0YWxfYmluZGluZycsICctaW1hZScsICc8aW5maWxlLm1hZT4nLCAnLW9tYWUnLCAnPG91dGZpbGUubWFlPic=

> <r_lp_tautomer_probability>
0.85571

> <r_epik_Ionization_Penalty>
0.00801444

> <r_epik_Ionization_Penalty_Charging>
0.00794574

> <r_epik_Ionization_Penalty_Neutral>
6.87072e-05

> <r_epik_State_Penalty>
0.0826172

> <r_epik_Charging_Adjusted_Penalty>
0.090563

> <i_epik_Tot_Q>
0

> <i_epik_Tot_abs_Q>
0

> <r_epik_Metal_State_Penalty>
0.440697

> <b_epik_Metal_Only>
0

> <s_epik_Chemistry_Notes>
This compound contains an acetal/aminal-like group ( X-CH(R)-Y where X, Y are N, S, or O) that may be acid/base labile, releasing an aldehyde.

> <s_lp_Force_Field>
OPLS_2005

> <r_lp_Energy>
42.4933

> <b_lp_Chiralities_Consistent>
1

> <s_lp_Variant>
AV-unprocessed.smi:44-3

> <Gold.Version>
5.8.1

> <Gold.Id.Protein>
6NUR|6NUR_protein|mol2

> <Gold.PLP.Fitness>
36.8095

> <Gold.PLP.PLP>
-30.3546

> <Gold.PLP.part.hbond>
-2.0932

> <Gold.PLP.part.metal>
0.0000

> <Gold.PLP.part.buried>
-3.8306

> <Gold.PLP.part.nonpolar>
-24.7778

> <Gold.PLP.part.repulsive>
0.4583

> <Gold.PLP.ligand.clash>
0.0000

> <Gold.PLP.ligand.torsion>
0.7785

> <Gold.PLP.Chemscore.Hbond>
1.6698

> <Gold.PLP.Chemscore.CHOScore>
0.9995

> <Gold.PLP.Chemscore.Metal>
0.0000

> <Gold.Chemscore.Hbonds>
donor molecule, donor type, donor heavy atom, donor atom, acceptor molecule, acceptor atom, score
      L1  H    16    29       P1  8029  1.00
      P1  H  7989  7998       L1     8  0.61
      L1  C     9    22       P1  8028  1.00

> <Gold.PLP.Chemscore.Internal.Correction>
0.0040

> <Gold.Rescore>
     Score         DG    S(hbond)    S(metal)    S(lipo)     H(rot)  DE(clash)    DE(int)     intcor
     10.09     -10.95       1.58        0.00      51.48       2.27       0.03       0.84       ----

> <Gold.Chemscore.Fitness>
10.0901

> <Gold.Chemscore.DG>
-10.9529

> <Gold.Chemscore.ZeroCoef>
-5.4800

> <Gold.Chemscore.Hbond>
1.5768

> <Gold.Chemscore.Metal>
0.0000

> <Gold.Chemscore.Lipo>
51.4768

> <Gold.Chemscore.Internal_Hbond>
0.0000

> <Gold.Chemscore.DEClash>
0.0268

> <Gold.Chemscore.DEInternal>
0.8360

> <Gold.Chemscore.Rot>
2.2720

> <Gold.Chemscore.Internal.Correction>
   9.000000E+99

> <Gold.Chemscore.Hbonds>
donor molecule, donor type, donor heavy atom, donor atom, acceptor molecule, acceptor atom, score
      L1  H    16    29       P1  8029  0.99
      P1  H  7989  7998       L1     8  0.15

> <Gold.Chemscore.Hbond.Weighted>
-5.2665

> <Gold.Chemscore.Metal.Weighted>
-0.0000

> <Gold.Chemscore.Lipo.Weighted>
-6.0228

> <Gold.Chemscore.Internal_Hbond.Weighted>
0.0000

> <Gold.Chemscore.DEClash.Weighted>
0.0268

> <Gold.Chemscore.DEInternal.Weighted>
0.8360

> <Gold.Chemscore.Rot.Weighted>
5.8164

> <Gold.Chemscore.Internal.Correction.Weighted>
   9.000000E+99

> <Gold.Protein.RotatedTorsions>
[ 6907 6896 6895 6894 ] final  171.94 input  -60.11 | X-H torsion
[ 7974 7965 7964 7962 ] final -138.73 input  175.53 | X-H torsion
[ 8008 7997 7996 7995 ] final   44.51 input   59.86 | X-H torsion
[ 10167 10162 10161 10158 ] final   99.84 input  -65.29 | X-H torsion
[ 10718 10713 10712 10709 ] final   99.91 input   66.30 | X-H torsion
[ 10763 10752 10751 10750 ] final  -77.27 input  -60.55 | X-H torsion
[ 11005 11000 10999 10996 ] final  -54.08 input  -57.11 | X-H torsion

> <Gold.Protein.ActiveResidues>
 VAL166  LYS551  ARG553  GLY616  TRP617  ASP618  TYR619  PRO620  LYS621  CYS622 
 ASP623  PHE694  ASN695  SER759  ASP760  ASP761  ALA762  ILE779  LEU786  VAL792 
 PHE793  MET794  SER795  GLU796  ALA797  LYS798  CYS799  TRP800  GLU811  SER814 

> <Gold.Protein.RotatedAtoms>
  151.7923  133.3360  159.3502 H   0  0  0  0  0  0  0  0  0  0  0  0  # atno 6907 bound_to 6896
  150.7387  134.5831  159.5958 H   0  0  0  0  0  0  0  0  0  0  0  0  # atno 6908 bound_to 6896
  152.3201  134.7392  160.0367 H   0  0  0  0  0  0  0  0  0  0  0  0  # atno 6909 bound_to 6896
  144.8734  140.6401  143.5252 H   0  0  0  0  0  0  0  0  0  0  0  0  # atno 7974 bound_to 7965
  155.3205  140.3396  155.4241 H   0  0  0  0  0  0  0  0  0  0  0  0  # atno 8008 bound_to 7997
  156.1911  140.1698  156.8127 H   0  0  0  0  0  0  0  0  0  0  0  0  # atno 8009 bound_to 7997
  154.5443  140.0718  156.8547 H   0  0  0  0  0  0  0  0  0  0  0  0  # atno 8010 bound_to 7997
  139.7581  144.6963  151.0333 H   0  0  0  0  0  0  0  0  0  0  0  0  # atno 10167 bound_to 10162
  157.6866  131.0683  150.5021 H   0  0  0  0  0  0  0  0  0  0  0  0  # atno 10718 bound_to 10713
  154.5108  135.5769  153.6603 H   0  0  0  0  0  0  0  0  0  0  0  0  # atno 10763 bound_to 10752
  152.9896  135.6158  154.2882 H   0  0  0  0  0  0  0  0  0  0  0  0  # atno 10764 bound_to 10752
  154.2796  135.2851  155.2682 H   0  0  0  0  0  0  0  0  0  0  0  0  # atno 10765 bound_to 10752
  141.1008  133.6618  156.4267 H   0  0  0  0  0  0  0  0  0  0  0  0  # atno 11005 bound_to 11000
  145.4088  139.1584  143.4137 LP  0  0  0  0  0  0  0  0  0  0  0  0  # atno 17320 bound_to 7965
  146.2946  140.4190  142.8726 LP  0  0  0  0  0  0  0  0  0  0  0  0  # atno 17321 bound_to 7965
  140.7804  143.4730  151.0121 LP  0  0  0  0  0  0  0  0  0  0  0  0  # atno 17342 bound_to 10162
  139.8416  143.7556  152.3180 LP  0  0  0  0  0  0  0  0  0  0  0  0  # atno 17343 bound_to 10162
  156.5342  130.4192  149.6186 LP  0  0  0  0  0  0  0  0  0  0  0  0  # atno 17370 bound_to 10713
  156.3042  130.7194  151.2072 LP  0  0  0  0  0  0  0  0  0  0  0  0  # atno 17371 bound_to 10713
  140.5026  134.6471  157.5254 LP  0  0  0  0  0  0  0  0  0  0  0  0  # atno 17394 bound_to 11000
  139.9859  134.7062  155.9775 LP  0  0  0  0  0  0  0  0  0  0  0  0  # atno 17395 bound_to 11000

$$$$
