AV-unprocessed.smi:2841|AV-procd|sdf|10935|dock3
  -GOLD-   2272015383D 1   1.00000     0.00000
 Structure written by MMmdl.
 46 48  0  0  0  0  0  0  0  0  1 V2000
  146.0718  137.9975  154.5478 O   0  0  0  0  0  0  0  0  0  0  0  0
  146.9115  137.5597  153.7621 C   0  0  0  0  0  0  0  0  0  0  0  0
  146.6381  136.6580  152.8095 N   0  0  0  0  0  0  0  0  0  0  0  0
  145.3232  136.0738  152.5538 C   0  0  0  0  0  0  0  0  0  0  0  0
  145.2477  135.2456  151.2420 C   0  0  0  0  0  0  0  0  0  0  0  0
  145.5811  136.1293  150.1872 O   0  0  0  0  0  0  0  0  0  0  0  0
  146.2582  134.0675  151.2206 C   0  0  0  0  0  0  0  0  0  0  0  0
  145.9810  132.9519  150.1964 C   0  0  0  0  0  0  0  0  0  0  0  0
  145.0310  131.8672  150.7345 C   0  0  0  0  0  0  0  0  0  0  0  0
  143.5571  132.2886  150.8281 C   0  0  0  0  0  0  0  0  0  0  0  0
  143.3006  133.5536  151.6651 C   0  0  0  0  0  0  0  0  0  0  0  0
  143.7791  134.8366  150.9627 C   0  0  0  0  0  0  0  0  0  0  0  0
  148.2124  137.8954  153.7510 N   0  0  0  0  0  0  0  0  0  0  0  0
  148.8886  138.8155  154.5953 C   0  0  0  0  0  0  0  0  0  0  0  0
  148.4950  139.1489  155.9149 C   0  0  0  0  0  0  0  0  0  0  0  0
  149.1804  140.0490  156.6528 N   0  0  0  0  0  0  0  0  0  0  0  0
  150.2529  140.6082  156.0854 C   0  0  0  0  0  0  0  0  0  0  0  0
  150.9884  141.6296  156.8964 C   0  0  0  0  0  0  0  0  0  0  0  0
  151.6998  141.2363  158.1751 C   0  0  0  0  0  0  0  0  0  0  0  0
  150.4593  142.0830  158.2419 C   0  0  0  0  0  0  0  0  0  0  0  0
  150.7018  140.3910  154.8460 N   0  0  0  0  0  0  0  0  0  0  0  0
  150.0211  139.4948  154.0999 C   0  0  0  0  0  0  0  0  0  0  0  0
  147.3927  136.3538  152.2123 H   0  0  0  0  0  0  0  0  0  0  0  0
  145.1233  135.4177  153.4011 H   0  0  0  0  0  0  0  0  0  0  0  0
  144.5428  136.8372  152.5859 H   0  0  0  0  0  0  0  0  0  0  0  0
  145.7061  135.6232  149.3992 H   0  0  0  0  0  0  0  0  0  0  0  0
  147.2584  134.4640  151.0382 H   0  0  0  0  0  0  0  0  0  0  0  0
  146.3134  133.6167  152.2123 H   0  0  0  0  0  0  0  0  0  0  0  0
  145.6213  133.3608  149.2515 H   0  0  0  0  0  0  0  0  0  0  0  0
  146.9309  132.4687  149.9657 H   0  0  0  0  0  0  0  0  0  0  0  0
  145.0928  130.9959  150.0816 H   0  0  0  0  0  0  0  0  0  0  0  0
  145.3771  131.5262  151.7107 H   0  0  0  0  0  0  0  0  0  0  0  0
  143.1515  132.4241  149.8248 H   0  0  0  0  0  0  0  0  0  0  0  0
  142.9932  131.4625  151.2627 H   0  0  0  0  0  0  0  0  0  0  0  0
  142.2238  133.6349  151.8165 H   0  0  0  0  0  0  0  0  0  0  0  0
  143.7337  133.4597  152.6613 H   0  0  0  0  0  0  0  0  0  0  0  0
  143.1261  135.6606  151.2547 H   0  0  0  0  0  0  0  0  0  0  0  0
  143.6118  134.7233  149.8900 H   0  0  0  0  0  0  0  0  0  0  0  0
  148.7970  137.3923  153.0993 H   0  0  0  0  0  0  0  0  0  0  0  0
  147.6240  138.7244  156.3890 H   0  0  0  0  0  0  0  0  0  0  0  0
  151.4632  142.3736  156.2597 H   0  0  0  0  0  0  0  0  0  0  0  0
  151.6172  140.2027  158.5059 H   0  0  0  0  0  0  0  0  0  0  0  0
  152.6517  141.7189  158.3866 H   0  0  0  0  0  0  0  0  0  0  0  0
  150.5801  143.1332  158.4997 H   0  0  0  0  0  0  0  0  0  0  0  0
  149.5523  141.6125  158.6165 H   0  0  0  0  0  0  0  0  0  0  0  0
  150.3873  139.3177  153.0992 H   0  0  0  0  0  0  0  0  0  0  0  0
  1  2  2  0  0  0  0
  2  3  1  0  0  0  0
  2 13  1  0  0  0  0
  3  4  1  0  0  0  0
  3 23  1  0  0  0  0
  4  5  1  0  0  0  0
  4 24  1  0  0  0  0
  4 25  1  0  0  0  0
  5 12  1  0  0  0  0
  5  6  1  0  0  0  0
  5  7  1  0  0  0  0
  6 26  1  0  0  0  0
  7  8  1  0  0  0  0
  7 27  1  0  0  0  0
  7 28  1  0  0  0  0
  8  9  1  0  0  0  0
  8 29  1  0  0  0  0
  8 30  1  0  0  0  0
  9 10  1  0  0  0  0
  9 31  1  0  0  0  0
  9 32  1  0  0  0  0
 10 11  1  0  0  0  0
 10 33  1  0  0  0  0
 10 34  1  0  0  0  0
 11 12  1  0  0  0  0
 11 35  1  0  0  0  0
 11 36  1  0  0  0  0
 12 37  1  0  0  0  0
 12 38  1  0  0  0  0
 13 14  1  0  0  0  0
 13 39  1  0  0  0  0
 14 22  1  0  0  0  0
 14 15  2  0  0  0  0
 15 16  1  0  0  0  0
 15 40  1  0  0  0  0
 16 17  2  0  0  0  0
 17 18  1  0  0  0  0
 17 21  1  0  0  0  0
 18 20  1  0  0  0  0
 18 19  1  0  0  0  0
 18 41  1  0  0  0  0
 19 20  1  0  0  0  0
 19 42  1  0  0  0  0
 19 43  1  0  0  0  0
 20 44  1  0  0  0  0
 20 45  1  0  0  0  0
 21 22  2  0  0  0  0
 22 46  1  0  0  0  0
M  END
> <s_m_source_file>
AV-unprocessed.smi

> <i_m_source_file_index>
2841

> <i_lp_mmshare_version>
43012

> <i_f3d_flags>
0

> <s_epik_input>
W0NIMl0xW0NIMl1bQ0hdMWMobltjSF0yKW5bY0hdYzJbTkhdQyg9TylbTkhdW0NIMl1DMyhbT0hdKVtDSDJdW0NIMl1bQ0gyXVtDSDJdW0NIMl1bQ0gyXTM=

> <s_epik_cmdline>
J2VwaWtfcHl0aG9uJywgJy1waCcsICc3LjAnLCAnLXRuJywgJzgnLCAnLW1hJywgJzIwMCcsICctbWV0YWxfYmluZGluZycsICctaW1hZScsICc8aW5maWxlLm1hZT4nLCAnLW9tYWUnLCAnPG91dGZpbGUubWFlPic=

> <r_lp_tautomer_probability>
1

> <r_epik_Ionization_Penalty>
2.96041e-05

> <r_epik_Ionization_Penalty_Charging>
0

> <r_epik_Ionization_Penalty_Neutral>
2.96041e-05

> <r_epik_State_Penalty>
-0

> <r_epik_Charging_Adjusted_Penalty>
0

> <i_epik_Tot_Q>
0

> <i_epik_Tot_abs_Q>
0

> <r_epik_Metal_State_Penalty>
-0

> <b_epik_Metal_Only>
0

> <s_lp_Force_Field>
OPLS_2005

> <r_lp_Energy>
18.825

> <b_lp_Chiralities_Consistent>
1

> <s_lp_Variant>
AV-unprocessed.smi:2841-1

> <Gold.Version>
5.8.1

> <Gold.Id.Protein>
6NUR|6NUR_protein|mol2

> <Gold.PLP.Fitness>
48.6218

> <Gold.PLP.PLP>
-35.2464

> <Gold.PLP.part.hbond>
-4.9721

> <Gold.PLP.part.metal>
0.0000

> <Gold.PLP.part.buried>
-0.9967

> <Gold.PLP.part.nonpolar>
-28.6691

> <Gold.PLP.part.repulsive>
0.2025

> <Gold.PLP.ligand.clash>
0.0000

> <Gold.PLP.ligand.torsion>
0.2917

> <Gold.PLP.Chemscore.Hbond>
3.6000

> <Gold.PLP.Chemscore.CHOScore>
1.0000

> <Gold.PLP.Chemscore.Metal>
0.0000

> <Gold.Chemscore.Hbonds>
donor molecule, donor type, donor heavy atom, donor atom, acceptor molecule, acceptor atom, score
      L1  H     3    23       P1  7948  1.00
      L1  H     6    26       P1  7921  1.00
      L1  H    13    39       P1  7948  1.00
      P1  H  7989  7998       L1    21  0.60
      L1  C    22    46       P1  7957  1.00

> <Gold.PLP.Chemscore.Internal.Correction>
0.1588

> <Gold.Rescore>
     Score         DG    S(hbond)    S(metal)    S(lipo)     H(rot)  DE(clash)    DE(int)     intcor
     19.13     -20.57       2.97        0.00      86.05       1.92       0.23       1.20       ----

> <Gold.Chemscore.Fitness>
19.1347

> <Gold.Chemscore.DG>
-20.5695

> <Gold.Chemscore.ZeroCoef>
-5.4800

> <Gold.Chemscore.Hbond>
2.9719

> <Gold.Chemscore.Metal>
0.0000

> <Gold.Chemscore.Lipo>
86.0461

> <Gold.Chemscore.Internal_Hbond>
0.0000

> <Gold.Chemscore.DEClash>
0.2320

> <Gold.Chemscore.DEInternal>
1.2027

> <Gold.Chemscore.Rot>
1.9156

> <Gold.Chemscore.Internal.Correction>
   9.000000E+99

> <Gold.Chemscore.Hbonds>
donor molecule, donor type, donor heavy atom, donor atom, acceptor molecule, acceptor atom, score
      L1  H     3    23       P1  7948  0.95
      L1  H     6    26       P1  7921  0.98
      L1  H    13    39       P1  7948  0.95
      P1  H  7989  7998       L1    21  0.04

> <Gold.Chemscore.Hbond.Weighted>
-9.9261

> <Gold.Chemscore.Metal.Weighted>
-0.0000

> <Gold.Chemscore.Lipo.Weighted>
-10.0674

> <Gold.Chemscore.Internal_Hbond.Weighted>
0.0000

> <Gold.Chemscore.DEClash.Weighted>
0.2320

> <Gold.Chemscore.DEInternal.Weighted>
1.2027

> <Gold.Chemscore.Rot.Weighted>
4.9040

> <Gold.Chemscore.Internal.Correction.Weighted>
   9.000000E+99

> <Gold.Protein.RotatedTorsions>
[ 6907 6896 6895 6894 ] final  -98.37 input  -60.11 | X-H torsion
[ 7974 7965 7964 7962 ] final   28.34 input  175.53 | X-H torsion
[ 8008 7997 7996 7995 ] final   71.72 input   59.86 | X-H torsion
[ 10167 10162 10161 10158 ] final   49.04 input  -65.29 | X-H torsion
[ 10718 10713 10712 10709 ] final  -94.78 input   66.30 | X-H torsion
[ 10763 10752 10751 10750 ] final  142.21 input  -60.55 | X-H torsion
[ 11005 11000 10999 10996 ] final   60.46 input  -57.11 | X-H torsion

> <Gold.Protein.ActiveResidues>
 VAL166  LYS551  ARG553  GLY616  TRP617  ASP618  TYR619  PRO620  LYS621  CYS622 
 ASP623  PHE694  ASN695  SER759  ASP760  ASP761  ALA762  ILE779  LEU786  VAL792 
 PHE793  MET794  SER795  GLU796  ALA797  LYS798  CYS799  TRP800  GLU811  SER814 

> <Gold.Protein.RotatedAtoms>
  150.7045  134.1205  159.4032 H   0  0  0  0  0  0  0  0  0  0  0  0  # atno 6907 bound_to 6896
  151.9191  135.0303  160.0530 H   0  0  0  0  0  0  0  0  0  0  0  0  # atno 6908 bound_to 6896
  152.2271  133.4993  159.5231 H   0  0  0  0  0  0  0  0  0  0  0  0  # atno 6909 bound_to 6896
  146.1734  139.7070  142.8951 H   0  0  0  0  0  0  0  0  0  0  0  0  # atno 7974 bound_to 7965
  155.7582  140.3487  155.5184 H   0  0  0  0  0  0  0  0  0  0  0  0  # atno 8008 bound_to 7997
  155.8939  140.1022  157.1419 H   0  0  0  0  0  0  0  0  0  0  0  0  # atno 8009 bound_to 7997
  154.4036  140.1299  156.4338 H   0  0  0  0  0  0  0  0  0  0  0  0  # atno 8010 bound_to 7997
  140.2870  144.3090  150.6250 H   0  0  0  0  0  0  0  0  0  0  0  0  # atno 10167 bound_to 10162
  156.0032  130.5082  150.5977 H   0  0  0  0  0  0  0  0  0  0  0  0  # atno 10718 bound_to 10713
  153.9521  135.2969  155.3438 H   0  0  0  0  0  0  0  0  0  0  0  0  # atno 10763 bound_to 10752
  154.7421  135.5020  153.9143 H   0  0  0  0  0  0  0  0  0  0  0  0  # atno 10764 bound_to 10752
  153.0989  135.6729  153.9819 H   0  0  0  0  0  0  0  0  0  0  0  0  # atno 10765 bound_to 10752
  140.0230  134.6124  155.9612 H   0  0  0  0  0  0  0  0  0  0  0  0  # atno 11005 bound_to 11000
  145.4277  141.0412  143.2928 LP  0  0  0  0  0  0  0  0  0  0  0  0  # atno 17320 bound_to 7965
  144.8199  139.5811  143.6992 LP  0  0  0  0  0  0  0  0  0  0  0  0  # atno 17321 bound_to 7965
  140.5764  143.2176  151.7508 LP  0  0  0  0  0  0  0  0  0  0  0  0  # atno 17342 bound_to 10162
  139.4947  144.4144  152.0046 LP  0  0  0  0  0  0  0  0  0  0  0  0  # atno 17343 bound_to 10162
  157.3832  131.0784  151.1459 LP  0  0  0  0  0  0  0  0  0  0  0  0  # atno 17370 bound_to 10713
  157.2175  130.6466  149.5798 LP  0  0  0  0  0  0  0  0  0  0  0  0  # atno 17371 bound_to 10713
  141.1786  133.6543  156.4926 LP  0  0  0  0  0  0  0  0  0  0  0  0  # atno 17394 bound_to 11000
  140.4354  134.7064  157.4964 LP  0  0  0  0  0  0  0  0  0  0  0  0  # atno 17395 bound_to 11000

$$$$
