AV-unprocessed.smi:2083|AV-procd|sdf|8496|dock5
  -GOLD-   2272011203D 1   1.00000     0.00000
 Structure written by MMmdl.
 45 46  0  0  0  0  0  0  0  0  2 V2000
  149.4802  131.4956  154.9591 C   0  0  0  0  0  0  0  0  0  0  0  0
  149.8272  132.7812  155.6281 C   0  0  0  0  0  0  0  0  0  0  0  0
  150.3282  133.9652  155.1647 C   0  0  0  0  0  0  0  0  0  0  0  0
  150.4178  134.7563  156.3405 C   0  0  0  0  0  0  0  0  0  0  0  0
  150.9031  136.0876  156.2863 N   0  0  0  0  0  0  0  0  0  0  0  0
  151.3954  136.8194  157.3001 C   0  0  0  0  0  0  0  0  0  0  0  0
  151.5184  136.4315  158.4623 O   0  0  0  0  0  0  0  0  0  0  0  0
  151.7452  138.0484  156.8935 N   0  0  0  0  0  0  0  0  0  0  0  0
  152.3219  139.0773  157.7548 C   0  0  0  0  0  0  0  0  0  0  0  0
  151.5128  140.4061  157.7465 C   0  0  2  0  0  0  0  0  0  0  0  0
  151.2221  140.8416  156.2922 C   0  0  0  0  0  0  0  0  0  0  0  0
  152.1653  141.5310  158.4963 N   0  3  2  0  0  0  0  0  0  0  0  0
  152.5520  141.2356  159.9073 C   0  0  0  0  0  0  0  0  0  0  0  0
  153.3189  142.4063  160.5447 C   0  0  0  0  0  0  0  0  0  0  0  0
  152.5175  143.7084  160.4678 C   0  0  0  0  0  0  0  0  0  0  0  0
  152.1273  143.9938  159.0107 C   0  0  2  0  0  0  0  0  0  0  0  0
  151.3104  145.2885  158.8934 C   0  0  0  0  0  0  0  0  0  0  0  0
  151.3656  142.7889  158.4247 C   0  0  0  0  0  0  0  0  0  0  0  0
  150.0054  134.1151  157.4234 N   0  0  0  0  0  0  0  0  0  0  0  0
  149.6257  132.8455  156.9723 O   0  0  0  0  0  0  0  0  0  0  0  0
  149.5184  131.5980  153.8747 H   0  0  0  0  0  0  0  0  0  0  0  0
  148.4750  131.1751  155.2330 H   0  0  0  0  0  0  0  0  0  0  0  0
  150.1776  130.7099  155.2491 H   0  0  0  0  0  0  0  0  0  0  0  0
  150.5890  134.2200  154.1482 H   0  0  0  0  0  0  0  0  0  0  0  0
  150.8712  136.5277  155.3787 H   0  0  0  0  0  0  0  0  0  0  0  0
  151.6117  138.2867  155.9214 H   0  0  0  0  0  0  0  0  0  0  0  0
  152.3870  138.6550  158.7585 H   0  0  0  0  0  0  0  0  0  0  0  0
  153.3442  139.2575  157.4204 H   0  0  0  0  0  0  0  0  0  0  0  0
  150.5602  140.2023  158.2383 H   0  0  0  0  0  0  0  0  0  0  0  0
  150.6928  140.0680  155.7360 H   0  0  0  0  0  0  0  0  0  0  0  0
  152.1469  141.0561  155.7560 H   0  0  0  0  0  0  0  0  0  0  0  0
  150.5970  141.7310  156.2359 H   0  0  0  0  0  0  0  0  0  0  0  0
  151.6601  141.0028  160.4916 H   0  0  0  0  0  0  0  0  0  0  0  0
  153.2108  140.3696  159.9570 H   0  0  0  0  0  0  0  0  0  0  0  0
  153.5524  142.1749  161.5845 H   0  0  0  0  0  0  0  0  0  0  0  0
  154.2749  142.5358  160.0360 H   0  0  0  0  0  0  0  0  0  0  0  0
  151.6235  143.6286  161.0883 H   0  0  0  0  0  0  0  0  0  0  0  0
  153.1072  144.5320  160.8724 H   0  0  0  0  0  0  0  0  0  0  0  0
  153.0426  144.1302  158.4325 H   0  0  0  0  0  0  0  0  0  0  0  0
  150.3739  145.2188  159.4477 H   0  0  0  0  0  0  0  0  0  0  0  0
  151.0663  145.5066  157.8535 H   0  0  0  0  0  0  0  0  0  0  0  0
  151.8667  146.1404  159.2857 H   0  0  0  0  0  0  0  0  0  0  0  0
  151.1016  143.0177  157.3938 H   0  0  0  0  0  0  0  0  0  0  0  0
  150.4242  142.6473  158.9586 H   0  0  0  0  0  0  0  0  0  0  0  0
  153.0341  141.7120  158.0142 H   0  0  0  0  0  0  0  0  0  0  0  0
  1  2  1  0  0  0  0
  1 21  1  0  0  0  0
  1 22  1  0  0  0  0
  1 23  1  0  0  0  0
  2 20  1  0  0  0  0
  2  3  2  0  0  0  0
  3  4  1  0  0  0  0
  3 24  1  0  0  0  0
  4  5  1  0  0  0  0
  4 19  2  0  0  0  0
  5  6  1  0  0  0  0
  5 25  1  0  0  0  0
  6  7  2  0  0  0  0
  6  8  1  0  0  0  0
  8  9  1  0  0  0  0
  8 26  1  0  0  0  0
  9 10  1  0  0  0  0
  9 27  1  0  0  0  0
  9 28  1  0  0  0  0
 10 11  1  0  0  0  0
 10 12  1  0  0  0  0
 10 29  1  0  0  0  0
 11 30  1  0  0  0  0
 11 31  1  0  0  0  0
 11 32  1  0  0  0  0
 12 18  1  0  0  0  0
 12 13  1  0  0  0  0
 12 45  1  0  0  0  0
 13 14  1  0  0  0  0
 13 33  1  0  0  0  0
 13 34  1  0  0  0  0
 14 15  1  0  0  0  0
 14 35  1  0  0  0  0
 14 36  1  0  0  0  0
 15 16  1  0  0  0  0
 15 37  1  0  0  0  0
 15 38  1  0  0  0  0
 16 17  1  0  0  0  0
 16 18  1  0  0  0  0
 16 39  1  0  0  0  0
 17 40  1  0  0  0  0
 17 41  1  0  0  0  0
 17 42  1  0  0  0  0
 18 43  1  0  0  0  0
 18 44  1  0  0  0  0
 19 20  1  0  0  0  0
M  CHG  1  12   1
M  END
> <s_m_source_file>
AV-unprocessed.smi

> <i_m_source_file_index>
2083

> <i_lp_mmshare_version>
43012

> <i_f3d_flags>
0

> <s_epik_input>
W0NIM11jMVtjSF1jKG5vMSlbTkhdQyg9TylbTkhdW0NIMl1bQ0BIXShbQ0gzXSlOMltDSDJdW0NIMl1bQ0gyXVtDQEBIXShbQ0gzXSlbQ0gyXTI=

> <s_epik_cmdline>
J2VwaWtfcHl0aG9uJywgJy1waCcsICc3LjAnLCAnLXRuJywgJzgnLCAnLW1hJywgJzIwMCcsICctbWV0YWxfYmluZGluZycsICctaW1hZScsICc8aW5maWxlLm1hZT4nLCAnLW9tYWUnLCAnPG91dGZpbGUubWFlPic=

> <r_epik_Ionization_Penalty>
0.00216453

> <r_epik_Ionization_Penalty_Charging>
0.00212879

> <r_epik_Ionization_Penalty_Neutral>
3.57418e-05

> <r_epik_State_Penalty>
0.00146033

> <r_epik_Charging_Adjusted_Penalty>
0.00358912

> <i_epik_Tot_Q>
1

> <i_epik_Tot_abs_Q>
1

> <r_epik_Metal_State_Penalty>
0.0215827

> <b_epik_Metal_Only>
0

> <s_lp_Force_Field>
OPLS_2005

> <r_lp_Energy>
18.748

> <b_lp_Chiralities_Consistent>
1

> <s_lp_Variant>
AV-unprocessed.smi:2083-7

> <Gold.Version>
5.8.1

> <Gold.Id.Protein>
6NUR|6NUR_protein|mol2

> <Gold.PLP.Fitness>
40.7074

> <Gold.PLP.PLP>
-36.5566

> <Gold.PLP.part.hbond>
-2.0000

> <Gold.PLP.part.metal>
0.0000

> <Gold.PLP.part.buried>
-4.9568

> <Gold.PLP.part.nonpolar>
-29.9991

> <Gold.PLP.part.repulsive>
0.2713

> <Gold.PLP.ligand.clash>
0.0000

> <Gold.PLP.ligand.torsion>
0.1638

> <Gold.PLP.Chemscore.Hbond>
1.4720

> <Gold.PLP.Chemscore.CHOScore>
0.0000

> <Gold.PLP.Chemscore.Metal>
0.0000

> <Gold.Chemscore.Hbonds>
donor molecule, donor type, donor heavy atom, donor atom, acceptor molecule, acceptor atom, score
      P1  H  6896  6908       L1    19  0.88
      P1  H  6896  6909       L1     7  0.59

> <Gold.PLP.Chemscore.Internal.Correction>
0.0623

> <Gold.Rescore>
     Score         DG    S(hbond)    S(metal)    S(lipo)     H(rot)  DE(clash)    DE(int)     intcor
     15.91     -17.23       1.34        0.00      95.95       1.55       0.00       1.32       ----

> <Gold.Chemscore.Fitness>
15.9114

> <Gold.Chemscore.DG>
-17.2323

> <Gold.Chemscore.ZeroCoef>
-5.4800

> <Gold.Chemscore.Hbond>
1.3435

> <Gold.Chemscore.Metal>
0.0000

> <Gold.Chemscore.Lipo>
95.9496

> <Gold.Chemscore.Internal_Hbond>
0.0000

> <Gold.Chemscore.DEClash>
0.0000

> <Gold.Chemscore.DEInternal>
1.3209

> <Gold.Chemscore.Rot>
1.5474

> <Gold.Chemscore.Internal.Correction>
   9.000000E+99

> <Gold.Chemscore.Hbonds>
donor molecule, donor type, donor heavy atom, donor atom, acceptor molecule, acceptor atom, score
      P1  H  6896  6908       L1    19  0.36
      P1  H  6896  6909       L1     7  0.57

> <Gold.Chemscore.Hbond.Weighted>
-4.4874

> <Gold.Chemscore.Metal.Weighted>
-0.0000

> <Gold.Chemscore.Lipo.Weighted>
-11.2261

> <Gold.Chemscore.Internal_Hbond.Weighted>
0.0000

> <Gold.Chemscore.DEClash.Weighted>
0.0000

> <Gold.Chemscore.DEInternal.Weighted>
1.3209

> <Gold.Chemscore.Rot.Weighted>
3.9612

> <Gold.Chemscore.Internal.Correction.Weighted>
   9.000000E+99

> <Gold.Protein.RotatedTorsions>
[ 6907 6896 6895 6894 ] final  116.42 input  -60.11 | X-H torsion
[ 7974 7965 7964 7962 ] final -129.70 input  175.53 | X-H torsion
[ 8008 7997 7996 7995 ] final  169.11 input   59.86 | X-H torsion
[ 10167 10162 10161 10158 ] final   82.49 input  -65.29 | X-H torsion
[ 10718 10713 10712 10709 ] final -147.94 input   66.30 | X-H torsion
[ 10763 10752 10751 10750 ] final   10.60 input  -60.55 | X-H torsion
[ 11005 11000 10999 10996 ] final  164.06 input  -57.11 | X-H torsion

> <Gold.Protein.ActiveResidues>
 VAL166  LYS551  ARG553  GLY616  TRP617  ASP618  TYR619  PRO620  LYS621  CYS622 
 ASP623  PHE694  ASN695  SER759  ASP760  ASP761  ALA762  ILE779  LEU786  VAL792 
 PHE793  MET794  SER795  GLU796  ALA797  LYS798  CYS799  TRP800  GLU811  SER814 

> <Gold.Protein.RotatedAtoms>
  152.4679  133.7963  159.6928 H   0  0  0  0  0  0  0  0  0  0  0  0  # atno 6907 bound_to 6896
  150.8653  133.7575  159.2985 H   0  0  0  0  0  0  0  0  0  0  0  0  # atno 6908 bound_to 6896
  151.5127  135.1068  159.9910 H   0  0  0  0  0  0  0  0  0  0  0  0  # atno 6909 bound_to 6896
  144.9547  140.7382  143.4766 H   0  0  0  0  0  0  0  0  0  0  0  0  # atno 7974 bound_to 7965
  156.1487  140.1573  156.8805 H   0  0  0  0  0  0  0  0  0  0  0  0  # atno 8008 bound_to 7997
  154.5051  140.0815  156.7915 H   0  0  0  0  0  0  0  0  0  0  0  0  # atno 8009 bound_to 7997
  155.3939  140.3411  155.4255 H   0  0  0  0  0  0  0  0  0  0  0  0  # atno 8010 bound_to 7997
  139.9283  144.6168  150.8370 H   0  0  0  0  0  0  0  0  0  0  0  0  # atno 10167 bound_to 10162
  156.4138  130.7995  151.2214 H   0  0  0  0  0  0  0  0  0  0  0  0  # atno 10718 bound_to 10713
  153.2015  135.6856  153.8225 H   0  0  0  0  0  0  0  0  0  0  0  0  # atno 10763 bound_to 10752
  153.7490  135.3226  155.3319 H   0  0  0  0  0  0  0  0  0  0  0  0  # atno 10764 bound_to 10752
  154.8174  135.4676  154.0783 H   0  0  0  0  0  0  0  0  0  0  0  0  # atno 10765 bound_to 10752
  140.2421  134.8043  157.3421 H   0  0  0  0  0  0  0  0  0  0  0  0  # atno 11005 bound_to 11000
  145.2791  139.1925  143.4801 LP  0  0  0  0  0  0  0  0  0  0  0  0  # atno 17320 bound_to 7965
  146.3333  140.2750  142.8607 LP  0  0  0  0  0  0  0  0  0  0  0  0  # atno 17321 bound_to 7965
  140.7644  143.3248  151.2540 LP  0  0  0  0  0  0  0  0  0  0  0  0  # atno 17342 bound_to 10162
  139.6804  143.9865  152.2805 LP  0  0  0  0  0  0  0  0  0  0  0  0  # atno 17343 bound_to 10162
  157.7507  131.0249  150.3897 LP  0  0  0  0  0  0  0  0  0  0  0  0  # atno 17370 bound_to 10713
  156.4200  130.3951  149.6831 LP  0  0  0  0  0  0  0  0  0  0  0  0  # atno 17371 bound_to 10713
  140.1643  134.4689  155.7874 LP  0  0  0  0  0  0  0  0  0  0  0  0  # atno 17394 bound_to 11000
  141.2209  133.6914  156.7597 LP  0  0  0  0  0  0  0  0  0  0  0  0  # atno 17395 bound_to 11000

$$$$
