AV-unprocessed.smi:1234|AV-procd|sdf|5173|dock6
  -GOLD-   22720 4243D 1   1.00000     0.00000
 Structure written by MMmdl.
 33 34  0  0  0  0  0  0  0  0  1 V2000
  155.1621  141.4015  163.5450 O   0  0  0  0  0  0  0  0  0  0  0  0
  155.4841  140.2128  163.5513 C   0  0  0  0  0  0  0  0  0  0  0  0
  155.5853  139.4699  162.4397 N   0  0  0  0  0  0  0  0  0  0  0  0
  155.3486  139.9574  161.0854 C   0  0  0  0  0  0  0  0  0  0  0  0
  153.9928  139.4702  160.5353 C   0  0  0  0  0  0  0  0  0  0  0  0
  153.2830  140.5038  159.6446 C   0  0  0  0  0  0  0  0  0  0  0  0
  153.0633  140.2451  158.4602 O   0  0  0  0  0  0  0  0  0  0  0  0
  152.9197  141.6795  160.1979 N   0  0  0  0  0  0  0  0  0  0  0  0
  152.2607  142.7852  159.5031 C   0  0  0  0  0  0  0  0  0  0  0  0
  152.2785  143.9586  160.4837 C   0  0  0  0  0  0  0  0  0  0  0  0
  152.3582  143.3001  161.8541 C   0  0  0  0  0  0  0  0  0  0  0  0
  153.1421  142.0119  161.6039 C   0  0  0  0  0  0  0  0  0  0  0  0
  155.7777  139.4921  164.6480 N   0  0  0  0  0  0  0  0  0  0  0  0
  155.8005  139.9206  166.0017 C   0  0  0  0  0  0  0  0  0  0  0  0
  156.2118  139.1486  167.0200 N   0  0  0  0  0  0  0  0  0  0  0  0
  156.1300  139.8092  168.2387 N   0  0  0  0  0  0  0  0  0  0  0  0
  155.6616  141.0516  168.0921 C   0  0  0  0  0  0  0  0  0  0  0  0
  155.2764  141.5376  166.4500 S   0  0  0  0  0  0  0  0  0  0  0  0
  155.8554  138.5018  162.5340 H   0  0  0  0  0  0  0  0  0  0  0  0
  155.4044  141.0475  161.0692 H   0  0  0  0  0  0  0  0  0  0  0  0
  156.1623  139.5951  160.4564 H   0  0  0  0  0  0  0  0  0  0  0  0
  154.1427  138.5574  159.9579 H   0  0  0  0  0  0  0  0  0  0  0  0
  153.3343  139.2171  161.3672 H   0  0  0  0  0  0  0  0  0  0  0  0
  152.7625  143.0483  158.5712 H   0  0  0  0  0  0  0  0  0  0  0  0
  151.2339  142.4994  159.2698 H   0  0  0  0  0  0  0  0  0  0  0  0
  153.1728  144.5607  160.3175 H   0  0  0  0  0  0  0  0  0  0  0  0
  151.4122  144.6120  160.3775 H   0  0  0  0  0  0  0  0  0  0  0  0
  152.8229  143.9394  162.6053 H   0  0  0  0  0  0  0  0  0  0  0  0
  151.3530  143.0550  162.1995 H   0  0  0  0  0  0  0  0  0  0  0  0
  152.8154  141.2133  162.2717 H   0  0  0  0  0  0  0  0  0  0  0  0
  154.2090  142.1737  161.7652 H   0  0  0  0  0  0  0  0  0  0  0  0
  156.0245  138.5253  164.4961 H   0  0  0  0  0  0  0  0  0  0  0  0
  155.5422  141.6864  168.9577 H   0  0  0  0  0  0  0  0  0  0  0  0
  1  2  2  0  0  0  0
  2  3  1  0  0  0  0
  2 13  1  0  0  0  0
  3  4  1  0  0  0  0
  3 19  1  0  0  0  0
  4  5  1  0  0  0  0
  4 20  1  0  0  0  0
  4 21  1  0  0  0  0
  5  6  1  0  0  0  0
  5 22  1  0  0  0  0
  5 23  1  0  0  0  0
  6  7  2  0  0  0  0
  6  8  1  0  0  0  0
  8 12  1  0  0  0  0
  8  9  1  0  0  0  0
  9 10  1  0  0  0  0
  9 24  1  0  0  0  0
  9 25  1  0  0  0  0
 10 11  1  0  0  0  0
 10 26  1  0  0  0  0
 10 27  1  0  0  0  0
 11 12  1  0  0  0  0
 11 28  1  0  0  0  0
 11 29  1  0  0  0  0
 12 30  1  0  0  0  0
 12 31  1  0  0  0  0
 13 14  1  0  0  0  0
 13 32  1  0  0  0  0
 14 18  1  0  0  0  0
 14 15  2  0  0  0  0
 15 16  1  0  0  0  0
 16 17  2  0  0  0  0
 17 18  1  0  0  0  0
 17 33  1  0  0  0  0
M  END
> <s_m_source_file>
AV-unprocessed.smi

> <i_m_source_file_index>
1234

> <i_lp_mmshare_version>
43012

> <i_f3d_flags>
0

> <s_epik_input>
czFbY0hdbm5jMVtOSF1DKD1PKVtOSF1bQ0gyXVtDSDJdQyg9TylOMltDSDJdW0NIMl1bQ0gyXVtDSDJdMg==

> <s_epik_cmdline>
J2VwaWtfcHl0aG9uJywgJy1waCcsICc3LjAnLCAnLXRuJywgJzgnLCAnLW1hJywgJzIwMCcsICctbWV0YWxfYmluZGluZycsICctaW1hZScsICc8aW5maWxlLm1hZT4nLCAnLW9tYWUnLCAnPG91dGZpbGUubWFlPic=

> <r_lp_tautomer_probability>
1

> <r_epik_Ionization_Penalty>
0.00246339

> <r_epik_Ionization_Penalty_Charging>
0

> <r_epik_Ionization_Penalty_Neutral>
0.00246339

> <r_epik_State_Penalty>
-0

> <r_epik_Charging_Adjusted_Penalty>
0

> <i_epik_Tot_Q>
0

> <i_epik_Tot_abs_Q>
0

> <r_epik_Metal_State_Penalty>
0.351039

> <b_epik_Metal_Only>
0

> <s_lp_Force_Field>
OPLS_2005

> <r_lp_Energy>
26.1559

> <b_lp_Chiralities_Consistent>
1

> <s_lp_Variant>
AV-unprocessed.smi:1234-1

> <Gold.Version>
5.8.1

> <Gold.Id.Protein>
6NUR|6NUR_protein|mol2

> <Gold.PLP.Fitness>
42.2334

> <Gold.PLP.PLP>
-40.0549

> <Gold.PLP.part.hbond>
-3.8594

> <Gold.PLP.part.metal>
0.0000

> <Gold.PLP.part.buried>
-5.4130

> <Gold.PLP.part.nonpolar>
-30.2000

> <Gold.PLP.part.repulsive>
0.2034

> <Gold.PLP.ligand.clash>
0.0000

> <Gold.PLP.ligand.torsion>
0.3558

> <Gold.PLP.Chemscore.Hbond>
0.9600

> <Gold.PLP.Chemscore.CHOScore>
0.0000

> <Gold.PLP.Chemscore.Metal>
0.0000

> <Gold.Chemscore.Hbonds>
donor molecule, donor type, donor heavy atom, donor atom, acceptor molecule, acceptor atom, score
      P1  H  7997  8008       L1     7  0.71

> <Gold.PLP.Chemscore.Internal.Correction>
0.0100

> <Gold.Rescore>
     Score         DG    S(hbond)    S(metal)    S(lipo)     H(rot)  DE(clash)    DE(int)     intcor
      9.47     -12.43       0.99        0.00      70.18       1.79       1.40       1.55       ----

> <Gold.Chemscore.Fitness>
9.4701

> <Gold.Chemscore.DG>
-12.4291

> <Gold.Chemscore.ZeroCoef>
-5.4800

> <Gold.Chemscore.Hbond>
0.9915

> <Gold.Chemscore.Metal>
0.0000

> <Gold.Chemscore.Lipo>
70.1805

> <Gold.Chemscore.Internal_Hbond>
0.0000

> <Gold.Chemscore.DEClash>
1.4046

> <Gold.Chemscore.DEInternal>
1.5544

> <Gold.Chemscore.Rot>
1.7865

> <Gold.Chemscore.Internal.Correction>
   9.000000E+99

> <Gold.Chemscore.Hbonds>
donor molecule, donor type, donor heavy atom, donor atom, acceptor molecule, acceptor atom, score
      P1  H  7997  8008       L1     7  0.67

> <Gold.Chemscore.Hbond.Weighted>
-3.3115

> <Gold.Chemscore.Metal.Weighted>
-0.0000

> <Gold.Chemscore.Lipo.Weighted>
-8.2111

> <Gold.Chemscore.Internal_Hbond.Weighted>
0.0000

> <Gold.Chemscore.DEClash.Weighted>
1.4046

> <Gold.Chemscore.DEInternal.Weighted>
1.5544

> <Gold.Chemscore.Rot.Weighted>
4.5735

> <Gold.Chemscore.Internal.Correction.Weighted>
   9.000000E+99

> <Gold.Protein.RotatedTorsions>
[ 6907 6896 6895 6894 ] final   47.92 input  -60.11 | X-H torsion
[ 7974 7965 7964 7962 ] final  147.38 input  175.53 | X-H torsion
[ 8008 7997 7996 7995 ] final  -94.91 input   59.86 | X-H torsion
[ 10167 10162 10161 10158 ] final  -42.39 input  -65.29 | X-H torsion
[ 10718 10713 10712 10709 ] final  167.89 input   66.30 | X-H torsion
[ 10763 10752 10751 10750 ] final   -1.63 input  -60.55 | X-H torsion
[ 11005 11000 10999 10996 ] final  167.93 input  -57.11 | X-H torsion

> <Gold.Protein.ActiveResidues>
 VAL166  LYS551  ARG553  GLY616  TRP617  ASP618  TYR619  PRO620  LYS621  CYS622 
 ASP623  PHE694  ASN695  SER759  ASP760  ASP761  ALA762  ILE779  LEU786  VAL792 
 PHE793  MET794  SER795  GLU796  ALA797  LYS798  CYS799  TRP800  GLU811  SER814 

> <Gold.Protein.RotatedAtoms>
  152.2735  134.7906  160.0409 H   0  0  0  0  0  0  0  0  0  0  0  0  # atno 6907 bound_to 6896
  151.8511  133.3435  159.3681 H   0  0  0  0  0  0  0  0  0  0  0  0  # atno 6908 bound_to 6896
  150.7161  134.5226  159.5705 H   0  0  0  0  0  0  0  0  0  0  0  0  # atno 6909 bound_to 6896
  144.8596  139.6021  143.5936 H   0  0  0  0  0  0  0  0  0  0  0  0  # atno 7974 bound_to 7965
  154.7545  140.0485  157.0921 H   0  0  0  0  0  0  0  0  0  0  0  0  # atno 8008 bound_to 7997
  155.0015  140.3125  155.4846 H   0  0  0  0  0  0  0  0  0  0  0  0  # atno 8009 bound_to 7997
  156.2892  140.2200  156.5125 H   0  0  0  0  0  0  0  0  0  0  0  0  # atno 8010 bound_to 7997
  140.6971  143.3040  151.3202 H   0  0  0  0  0  0  0  0  0  0  0  0  # atno 10167 bound_to 10162
  157.0450  131.0297  151.2700 H   0  0  0  0  0  0  0  0  0  0  0  0  # atno 10718 bound_to 10713
  153.3473  135.6984  153.6817 H   0  0  0  0  0  0  0  0  0  0  0  0  # atno 10763 bound_to 10752
  153.5558  135.3544  155.2779 H   0  0  0  0  0  0  0  0  0  0  0  0  # atno 10764 bound_to 10752
  154.8647  135.4237  154.2701 H   0  0  0  0  0  0  0  0  0  0  0  0  # atno 10765 bound_to 10752
  140.2819  134.7743  157.3765 H   0  0  0  0  0  0  0  0  0  0  0  0  # atno 11005 bound_to 11000
  146.2850  139.6980  142.9202 LP  0  0  0  0  0  0  0  0  0  0  0  0  # atno 17320 bound_to 7965
  145.4338  141.0417  143.2896 LP  0  0  0  0  0  0  0  0  0  0  0  0  # atno 17321 bound_to 7965
  139.6439  144.0487  152.2576 LP  0  0  0  0  0  0  0  0  0  0  0  0  # atno 17342 bound_to 10162
  140.0001  144.6299  150.7737 LP  0  0  0  0  0  0  0  0  0  0  0  0  # atno 17343 bound_to 10162
  157.5075  130.7918  149.7669 LP  0  0  0  0  0  0  0  0  0  0  0  0  # atno 17370 bound_to 10713
  156.0026  130.3872  150.2549 LP  0  0  0  0  0  0  0  0  0  0  0  0  # atno 17371 bound_to 10713
  140.1275  134.5138  155.8132 LP  0  0  0  0  0  0  0  0  0  0  0  0  # atno 17394 bound_to 11000
  141.2161  133.6778  156.6979 LP  0  0  0  0  0  0  0  0  0  0  0  0  # atno 17395 bound_to 11000

$$$$
