AV-unprocessed.smi:3193|AV-procd|sdf|12205|dock5
  -GOLD-   2272018 43D 1   1.00000     0.00000
 Structure written by MMmdl.
 41 42  0  0  0  0  0  0  0  0  3 V2000
  152.2879  144.6429  159.0806 C   0  0  0  0  0  0  0  0  0  0  0  0
  152.1963  143.1562  159.4695 C   0  0  2  0  0  0  0  0  0  0  0  0
  153.5490  142.6926  160.0507 C   0  0  0  0  0  0  0  0  0  0  0  0
  153.5082  141.2294  160.5105 C   0  0  0  0  0  0  0  0  0  0  0  0
  153.0764  140.3107  159.3627 C   0  0  0  0  0  0  0  0  0  0  0  0
  151.7260  140.7567  158.7849 C   0  0  0  0  0  0  0  0  0  0  0  0
  151.7503  142.2248  158.3030 C   0  0  1  0  0  0  0  0  0  0  0  0
  150.3708  142.5918  157.7093 C   0  0  0  0  0  0  0  0  0  0  0  0
  150.2775  142.2635  156.2721 N   0  3  0  0  0  0  0  0  0  0  0  0
  149.8970  140.8645  155.9961 C   0  0  0  0  0  0  0  0  0  0  0  0
  149.6119  140.6540  154.5022 C   0  0  0  0  0  0  0  0  0  0  0  0
  148.2403  141.0285  154.1490 N   0  0  0  0  0  0  0  0  0  0  0  0
  147.6981  142.2884  154.1378 C   0  0  0  0  0  0  0  0  0  0  0  0
  146.3927  142.1491  153.7420 C   0  0  0  0  0  0  0  0  0  0  0  0
  146.1926  140.8112  153.5303 N   0  3  0  0  0  0  0  0  0  0  0  0
  147.3171  140.1313  153.7779 C   0  0  0  0  0  0  0  0  0  0  0  0
  152.9388  144.7900  158.2182 H   0  0  0  0  0  0  0  0  0  0  0  0
  152.6900  145.2371  159.9018 H   0  0  0  0  0  0  0  0  0  0  0  0
  151.3095  145.0606  158.8464 H   0  0  0  0  0  0  0  0  0  0  0  0
  151.4553  143.0775  160.2668 H   0  0  0  0  0  0  0  0  0  0  0  0
  154.3332  142.8161  159.3022 H   0  0  0  0  0  0  0  0  0  0  0  0
  153.8297  143.3235  160.8950 H   0  0  0  0  0  0  0  0  0  0  0  0
  154.4883  140.9273  160.8812 H   0  0  0  0  0  0  0  0  0  0  0  0
  152.8147  141.1256  161.3459 H   0  0  0  0  0  0  0  0  0  0  0  0
  153.8344  140.3199  158.5784 H   0  0  0  0  0  0  0  0  0  0  0  0
  153.0088  139.2815  159.7163 H   0  0  0  0  0  0  0  0  0  0  0  0
  151.4602  140.0953  157.9591 H   0  0  0  0  0  0  0  0  0  0  0  0
  150.9498  140.6298  159.5410 H   0  0  0  0  0  0  0  0  0  0  0  0
  152.4932  142.2865  157.5056 H   0  0  0  0  0  0  0  0  0  0  0  0
  149.5817  142.0348  158.2165 H   0  0  0  0  0  0  0  0  0  0  0  0
  150.1593  143.6499  157.8705 H   0  0  0  0  0  0  0  0  0  0  0  0
  149.5856  142.8712  155.8567 H   0  0  0  0  0  0  0  0  0  0  0  0
  150.6997  140.2016  156.3224 H   0  0  0  0  0  0  0  0  0  0  0  0
  149.0120  140.6139  156.5826 H   0  0  0  0  0  0  0  0  0  0  0  0
  150.2941  141.2455  153.8893 H   0  0  0  0  0  0  0  0  0  0  0  0
  149.7550  139.6086  154.2251 H   0  0  0  0  0  0  0  0  0  0  0  0
  148.2644  143.1687  154.4059 H   0  0  0  0  0  0  0  0  0  0  0  0
  145.6111  142.8816  153.6006 H   0  0  0  0  0  0  0  0  0  0  0  0
  147.4504  139.0671  153.6941 H   0  0  0  0  0  0  0  0  0  0  0  0
  151.1718  142.4518  155.8414 H   0  0  0  0  0  0  0  0  0  0  0  0
  145.3193  140.3940  153.2316 H   0  0  0  0  0  0  0  0  0  0  0  0
  1  2  1  0  0  0  0
  1 17  1  0  0  0  0
  1 18  1  0  0  0  0
  1 19  1  0  0  0  0
  2  7  1  0  0  0  0
  2  3  1  0  0  0  0
  2 20  1  0  0  0  0
  3  4  1  0  0  0  0
  3 21  1  0  0  0  0
  3 22  1  0  0  0  0
  4  5  1  0  0  0  0
  4 23  1  0  0  0  0
  4 24  1  0  0  0  0
  5  6  1  0  0  0  0
  5 25  1  0  0  0  0
  5 26  1  0  0  0  0
  6  7  1  0  0  0  0
  6 27  1  0  0  0  0
  6 28  1  0  0  0  0
  7  8  1  0  0  0  0
  7 29  1  0  0  0  0
  8  9  1  0  0  0  0
  8 30  1  0  0  0  0
  8 31  1  0  0  0  0
  9 10  1  0  0  0  0
  9 32  1  0  0  0  0
  9 40  1  0  0  0  0
 10 11  1  0  0  0  0
 10 33  1  0  0  0  0
 10 34  1  0  0  0  0
 11 12  1  0  0  0  0
 11 35  1  0  0  0  0
 11 36  1  0  0  0  0
 12 16  1  0  0  0  0
 12 13  1  0  0  0  0
 13 14  2  0  0  0  0
 13 37  1  0  0  0  0
 14 15  1  0  0  0  0
 14 38  1  0  0  0  0
 15 16  2  0  0  0  0
 15 41  1  0  0  0  0
 16 39  1  0  0  0  0
M  CHG  1   9   1
M  CHG  1  15   1
M  END
> <s_m_source_file>
AV-unprocessed.smi

> <i_m_source_file_index>
3193

> <i_lp_mmshare_version>
43012

> <i_f3d_flags>
0

> <s_epik_input>
W0NIM11bQ0BASF0xW0NIMl1bQ0gyXVtDSDJdW0NIMl1bQ0BIXTFbQ0gyXVtOSF1bQ0gyXVtDSDJdbjJbY0hdW2NIXW5bY0hdMg==

> <s_epik_cmdline>
J2VwaWtfcHl0aG9uJywgJy1waCcsICc3LjAnLCAnLXRuJywgJzgnLCAnLW1hJywgJzIwMCcsICctbWV0YWxfYmluZGluZycsICctaW1hZScsICc8aW5maWxlLm1hZT4nLCAnLW9tYWUnLCAnPG91dGZpbGUubWFlPic=

> <r_lp_tautomer_probability>
1

> <r_epik_Ionization_Penalty>
1.50262

> <r_epik_Ionization_Penalty_Charging>
0.00193432

> <r_epik_Ionization_Penalty_Neutral>
1.50068

> <r_epik_State_Penalty>
1.11854

> <r_epik_Charging_Adjusted_Penalty>
1.12048

> <i_epik_Tot_Q>
2

> <i_epik_Tot_abs_Q>
2

> <r_epik_Metal_State_Penalty>
5.11322

> <b_epik_Metal_Only>
0

> <s_lp_Force_Field>
OPLS_2005

> <r_lp_Energy>
26.3387

> <b_lp_Chiralities_Consistent>
1

> <s_lp_Variant>
AV-unprocessed.smi:3193-5

> <Gold.Version>
5.8.1

> <Gold.Id.Protein>
6NUR|6NUR_protein|mol2

> <Gold.PLP.Fitness>
53.0831

> <Gold.PLP.PLP>
-39.6943

> <Gold.PLP.part.hbond>
-2.0000

> <Gold.PLP.part.metal>
0.0000

> <Gold.PLP.part.buried>
-1.8800

> <Gold.PLP.part.nonpolar>
-35.3656

> <Gold.PLP.part.repulsive>
0.1017

> <Gold.PLP.ligand.clash>
0.0000

> <Gold.PLP.ligand.torsion>
0.7134

> <Gold.PLP.Chemscore.Hbond>
3.9200

> <Gold.PLP.Chemscore.CHOScore>
1.0000

> <Gold.PLP.Chemscore.Metal>
0.0000

> <Gold.Chemscore.Hbonds>
donor molecule, donor type, donor heavy atom, donor atom, acceptor molecule, acceptor atom, score
      L1  H     9    32       P1  8028  1.89
      L1  H    15    41       P1 10175  2.00
      L1  C    13    37       P1  8028  1.00

> <Gold.PLP.Chemscore.Internal.Correction>
0.0556

> <Gold.Rescore>
     Score         DG    S(hbond)    S(metal)    S(lipo)     H(rot)  DE(clash)    DE(int)     intcor
     18.17     -19.06       1.86        0.00     106.16       1.98       0.11       0.79       ----

> <Gold.Chemscore.Fitness>
18.1673

> <Gold.Chemscore.DG>
-19.0616

> <Gold.Chemscore.ZeroCoef>
-5.4800

> <Gold.Chemscore.Hbond>
1.8633

> <Gold.Chemscore.Metal>
0.0000

> <Gold.Chemscore.Lipo>
106.1553

> <Gold.Chemscore.Internal_Hbond>
0.0000

> <Gold.Chemscore.DEClash>
0.1084

> <Gold.Chemscore.DEInternal>
0.7858

> <Gold.Chemscore.Rot>
1.9774

> <Gold.Chemscore.Internal.Correction>
   9.000000E+99

> <Gold.Chemscore.Hbonds>
donor molecule, donor type, donor heavy atom, donor atom, acceptor molecule, acceptor atom, score
      L1  H     9    32       P1  8028  0.89
      L1  H    15    41       P1 10175  0.94

> <Gold.Chemscore.Hbond.Weighted>
-6.2236

> <Gold.Chemscore.Metal.Weighted>
-0.0000

> <Gold.Chemscore.Lipo.Weighted>
-12.4202

> <Gold.Chemscore.Internal_Hbond.Weighted>
0.0000

> <Gold.Chemscore.DEClash.Weighted>
0.1084

> <Gold.Chemscore.DEInternal.Weighted>
0.7858

> <Gold.Chemscore.Rot.Weighted>
5.0622

> <Gold.Chemscore.Internal.Correction.Weighted>
   9.000000E+99

> <Gold.Protein.RotatedTorsions>
[ 6907 6896 6895 6894 ] final  -15.88 input  -60.11 | X-H torsion
[ 7974 7965 7964 7962 ] final   68.40 input  175.53 | X-H torsion
[ 8008 7997 7996 7995 ] final    4.03 input   59.86 | X-H torsion
[ 10167 10162 10161 10158 ] final -168.00 input  -65.29 | X-H torsion
[ 10718 10713 10712 10709 ] final  116.65 input   66.30 | X-H torsion
[ 10763 10752 10751 10750 ] final  -28.01 input  -60.55 | X-H torsion
[ 11005 11000 10999 10996 ] final -177.96 input  -57.11 | X-H torsion

> <Gold.Protein.ActiveResidues>
 VAL166  LYS551  ARG553  GLY616  TRP617  ASP618  TYR619  PRO620  LYS621  CYS622 
 ASP623  PHE694  ASN695  SER759  ASP760  ASP761  ALA762  ILE779  LEU786  VAL792 
 PHE793  MET794  SER795  GLU796  ALA797  LYS798  CYS799  TRP800  GLU811  SER814 

> <Gold.Protein.RotatedAtoms>
  151.3172  135.0809  159.9292 H   0  0  0  0  0  0  0  0  0  0  0  0  # atno 6907 bound_to 6896
  152.5265  133.9675  159.7757 H   0  0  0  0  0  0  0  0  0  0  0  0  # atno 6908 bound_to 6896
  150.9990  133.6023  159.2728 H   0  0  0  0  0  0  0  0  0  0  0  0  # atno 6909 bound_to 6896
  145.8030  139.2992  143.1143 H   0  0  0  0  0  0  0  0  0  0  0  0  # atno 7974 bound_to 7965
  154.7109  140.2692  155.6630 H   0  0  0  0  0  0  0  0  0  0  0  0  # atno 8008 bound_to 7997
  156.2795  140.2753  156.1675 H   0  0  0  0  0  0  0  0  0  0  0  0  # atno 8009 bound_to 7997
  155.0636  140.0371  157.2575 H   0  0  0  0  0  0  0  0  0  0  0  0  # atno 8010 bound_to 7997
  139.6013  144.1005  152.1746 H   0  0  0  0  0  0  0  0  0  0  0  0  # atno 10167 bound_to 10162
  157.6147  131.1028  150.7503 H   0  0  0  0  0  0  0  0  0  0  0  0  # atno 10718 bound_to 10713
  153.7414  135.6932  153.4966 H   0  0  0  0  0  0  0  0  0  0  0  0  # atno 10763 bound_to 10752
  153.2067  135.4417  155.0330 H   0  0  0  0  0  0  0  0  0  0  0  0  # atno 10764 bound_to 10752
  154.8219  135.3426  154.6939 H   0  0  0  0  0  0  0  0  0  0  0  0  # atno 10765 bound_to 10752
  140.4351  134.6483  157.4730 H   0  0  0  0  0  0  0  0  0  0  0  0  # atno 11005 bound_to 11000
  145.9857  140.8645  143.0092 LP  0  0  0  0  0  0  0  0  0  0  0  0  # atno 17320 bound_to 7965
  144.6766  140.2144  143.7373 LP  0  0  0  0  0  0  0  0  0  0  0  0  # atno 17321 bound_to 7965
  140.0602  144.5863  150.7269 LP  0  0  0  0  0  0  0  0  0  0  0  0  # atno 17342 bound_to 10162
  140.7252  143.2628  151.4146 LP  0  0  0  0  0  0  0  0  0  0  0  0  # atno 17343 bound_to 10162
  156.7873  130.4879  149.5390 LP  0  0  0  0  0  0  0  0  0  0  0  0  # atno 17370 bound_to 10713
  156.1263  130.6146  151.0269 LP  0  0  0  0  0  0  0  0  0  0  0  0  # atno 17371 bound_to 10713
  140.0108  134.6693  155.9384 LP  0  0  0  0  0  0  0  0  0  0  0  0  # atno 17394 bound_to 11000
  141.1729  133.6538  156.4720 LP  0  0  0  0  0  0  0  0  0  0  0  0  # atno 17395 bound_to 11000

$$$$
