AV-unprocessed.smi:1115|AV-procd|sdf|4803|dock6
  -GOLD-   22720 3353D 1   1.00000     0.00000
 Structure written by MMmdl.
 50 51  0  0  0  0  0  0  0  0  1 V2000
  151.5380  145.5882  160.0217 C   0  0  0  0  0  0  0  0  0  0  0  0
  152.0542  144.4067  159.3380 N   0  0  0  0  0  0  0  0  0  0  0  0
  152.1091  144.3796  157.8816 C   0  0  0  0  0  0  0  0  0  0  0  0
  152.6239  143.3529  160.0890 C   0  0  0  0  0  0  0  0  0  0  0  0
  152.6768  143.3978  161.5046 C   0  0  0  0  0  0  0  0  0  0  0  0
  153.2536  142.3237  162.2091 C   0  0  0  0  0  0  0  0  0  0  0  0
  153.7741  141.2277  161.4835 C   0  0  0  0  0  0  0  0  0  0  0  0
  154.3586  140.0769  162.0777 N   0  0  0  0  0  0  0  0  0  0  0  0
  154.2674  138.7946  161.6860 C   0  0  0  0  0  0  0  0  0  0  0  0
  153.6060  138.3874  160.7311 O   0  0  0  0  0  0  0  0  0  0  0  0
  154.9752  137.9936  162.4947 N   0  0  0  0  0  0  0  0  0  0  0  0
  155.0630  136.5367  162.3960 C   0  0  0  0  0  0  0  0  0  0  0  0
  154.9162  135.8288  163.7757 C   0  0  0  0  0  0  0  0  0  0  0  0
  156.2565  136.0395  164.5254 C   0  0  0  0  0  0  0  0  0  0  0  0
  153.8285  136.5939  164.5680 C   0  0  0  0  0  0  0  0  0  0  0  0
  154.6116  134.3783  163.6193 N   0  0  0  0  0  0  0  0  0  0  0  0
  154.3526  133.6633  164.8748 C   0  0  0  0  0  0  0  0  0  0  0  0
  153.9233  132.2064  164.6333 C   0  0  0  0  0  0  0  0  0  0  0  0
  154.9191  131.5334  163.8731 O   0  0  0  0  0  0  0  0  0  0  0  0
  155.1605  132.1606  162.6197 C   0  0  0  0  0  0  0  0  0  0  0  0
  155.5985  133.6183  162.8434 C   0  0  0  0  0  0  0  0  0  0  0  0
  153.6661  141.2658  160.0799 C   0  0  0  0  0  0  0  0  0  0  0  0
  153.1155  142.2932  159.4010 N   0  0  0  0  0  0  0  0  0  0  0  0
  152.3407  146.1053  160.5484 H   0  0  0  0  0  0  0  0  0  0  0  0
  150.7705  145.3103  160.7448 H   0  0  0  0  0  0  0  0  0  0  0  0
  151.0909  146.2913  159.3189 H   0  0  0  0  0  0  0  0  0  0  0  0
  153.1412  144.3012  157.5382 H   0  0  0  0  0  0  0  0  0  0  0  0
  151.6846  145.2867  157.4514 H   0  0  0  0  0  0  0  0  0  0  0  0
  151.5450  143.5314  157.4922 H   0  0  0  0  0  0  0  0  0  0  0  0
  152.2840  144.2321  162.0658 H   0  0  0  0  0  0  0  0  0  0  0  0
  153.2705  142.3578  163.2872 H   0  0  0  0  0  0  0  0  0  0  0  0
  154.8650  140.2436  162.9350 H   0  0  0  0  0  0  0  0  0  0  0  0
  155.4746  138.4205  163.2611 H   0  0  0  0  0  0  0  0  0  0  0  0
  154.3193  136.1548  161.6940 H   0  0  0  0  0  0  0  0  0  0  0  0
  156.0186  136.2935  161.9322 H   0  0  0  0  0  0  0  0  0  0  0  0
  156.5798  137.0802  164.4822 H   0  0  0  0  0  0  0  0  0  0  0  0
  157.0566  135.4330  164.0998 H   0  0  0  0  0  0  0  0  0  0  0  0
  156.1817  135.7888  165.5835 H   0  0  0  0  0  0  0  0  0  0  0  0
  154.0918  137.6470  164.6755 H   0  0  0  0  0  0  0  0  0  0  0  0
  153.6982  136.1997  165.5756 H   0  0  0  0  0  0  0  0  0  0  0  0
  152.8587  136.5629  164.0720 H   0  0  0  0  0  0  0  0  0  0  0  0
  155.2451  133.6658  165.5007 H   0  0  0  0  0  0  0  0  0  0  0  0
  153.5641  134.1501  165.4457 H   0  0  0  0  0  0  0  0  0  0  0  0
  153.7905  131.6885  165.5833 H   0  0  0  0  0  0  0  0  0  0  0  0
  152.9665  132.1672  164.1103 H   0  0  0  0  0  0  0  0  0  0  0  0
  155.9369  131.6090  162.0895 H   0  0  0  0  0  0  0  0  0  0  0  0
  154.2605  132.1185  162.0041 H   0  0  0  0  0  0  0  0  0  0  0  0
  155.7546  134.0692  161.8651 H   0  0  0  0  0  0  0  0  0  0  0  0
  156.5626  133.6215  163.3521 H   0  0  0  0  0  0  0  0  0  0  0  0
  154.0364  140.4479  159.4786 H   0  0  0  0  0  0  0  0  0  0  0  0
  1  2  1  0  0  0  0
  1 24  1  0  0  0  0
  1 25  1  0  0  0  0
  1 26  1  0  0  0  0
  2  3  1  0  0  0  0
  2  4  1  0  0  0  0
  3 27  1  0  0  0  0
  3 28  1  0  0  0  0
  3 29  1  0  0  0  0
  4 23  1  0  0  0  0
  4  5  2  0  0  0  0
  5  6  1  0  0  0  0
  5 30  1  0  0  0  0
  6  7  2  0  0  0  0
  6 31  1  0  0  0  0
  7  8  1  0  0  0  0
  7 22  1  0  0  0  0
  8  9  1  0  0  0  0
  8 32  1  0  0  0  0
  9 10  2  0  0  0  0
  9 11  1  0  0  0  0
 11 12  1  0  0  0  0
 11 33  1  0  0  0  0
 12 13  1  0  0  0  0
 12 34  1  0  0  0  0
 12 35  1  0  0  0  0
 13 14  1  0  0  0  0
 13 15  1  0  0  0  0
 13 16  1  0  0  0  0
 14 36  1  0  0  0  0
 14 37  1  0  0  0  0
 14 38  1  0  0  0  0
 15 39  1  0  0  0  0
 15 40  1  0  0  0  0
 15 41  1  0  0  0  0
 16 21  1  0  0  0  0
 16 17  1  0  0  0  0
 17 18  1  0  0  0  0
 17 42  1  0  0  0  0
 17 43  1  0  0  0  0
 18 19  1  0  0  0  0
 18 44  1  0  0  0  0
 18 45  1  0  0  0  0
 19 20  1  0  0  0  0
 20 21  1  0  0  0  0
 20 46  1  0  0  0  0
 20 47  1  0  0  0  0
 21 48  1  0  0  0  0
 21 49  1  0  0  0  0
 22 23  2  0  0  0  0
 22 50  1  0  0  0  0
M  END
> <s_m_source_file>
AV-unprocessed.smi

> <i_m_source_file_index>
1115

> <i_lp_mmshare_version>
43012

> <i_f3d_flags>
0

> <s_epik_input>
W0NIM11OKFtDSDNdKWMxW2NIXVtjSF1jKFtjSF1uMSlbTkhdQyg9TylbTkhdW0NIMl1DKFtDSDNdKShbQ0gzXSlOMltDSDJdW0NIMl1PW0NIMl1bQ0gyXTI=

> <s_epik_cmdline>
J2VwaWtfcHl0aG9uJywgJy1waCcsICc3LjAnLCAnLXRuJywgJzgnLCAnLW1hJywgJzIwMCcsICctbWV0YWxfYmluZGluZycsICctaW1hZScsICc8aW5maWxlLm1hZT4nLCAnLW9tYWUnLCAnPG91dGZpbGUubWFlPic=

> <r_lp_tautomer_probability>
1

> <r_epik_Ionization_Penalty>
0.880664

> <r_epik_Ionization_Penalty_Charging>
0

> <r_epik_Ionization_Penalty_Neutral>
0.880664

> <r_epik_State_Penalty>
0.865003

> <r_epik_Charging_Adjusted_Penalty>
0.865003

> <i_epik_Tot_Q>
0

> <i_epik_Tot_abs_Q>
0

> <r_epik_Metal_State_Penalty>
0.539426

> <b_epik_Metal_Only>
0

> <s_lp_Force_Field>
OPLS_2005

> <r_lp_Energy>
45.7519

> <b_lp_Chiralities_Consistent>
1

> <s_lp_Variant>
AV-unprocessed.smi:1115-2

> <Gold.Version>
5.8.1

> <Gold.Id.Protein>
6NUR|6NUR_protein|mol2

> <Gold.PLP.Fitness>
51.3538

> <Gold.PLP.PLP>
-52.5126

> <Gold.PLP.part.hbond>
0.0000

> <Gold.PLP.part.metal>
0.0000

> <Gold.PLP.part.buried>
-6.9007

> <Gold.PLP.part.nonpolar>
-46.4453

> <Gold.PLP.part.repulsive>
0.0369

> <Gold.PLP.ligand.clash>
0.0000

> <Gold.PLP.ligand.torsion>
0.6131

> <Gold.PLP.Chemscore.Hbond>
0.0000

> <Gold.PLP.Chemscore.CHOScore>
0.0000

> <Gold.PLP.Chemscore.Metal>
0.0000

> <Gold.PLP.Chemscore.Internal.Correction>
0.0675

> <Gold.Rescore>
     Score         DG    S(hbond)    S(metal)    S(lipo)     H(rot)  DE(clash)    DE(int)     intcor
     14.56     -16.35       0.00        0.00     123.99       1.42       0.13       1.66       ----

> <Gold.Chemscore.Fitness>
14.5581

> <Gold.Chemscore.DG>
-16.3474

> <Gold.Chemscore.ZeroCoef>
-5.4800

> <Gold.Chemscore.Hbond>
0.0000

> <Gold.Chemscore.Metal>
0.0000

> <Gold.Chemscore.Lipo>
123.9905

> <Gold.Chemscore.Internal_Hbond>
0.0000

> <Gold.Chemscore.DEClash>
0.1258

> <Gold.Chemscore.DEInternal>
1.6634

> <Gold.Chemscore.Rot>
1.4217

> <Gold.Chemscore.Internal.Correction>
   9.000000E+99

> <Gold.Chemscore.Hbond.Weighted>
-0.0000

> <Gold.Chemscore.Metal.Weighted>
-0.0000

> <Gold.Chemscore.Lipo.Weighted>
-14.5069

> <Gold.Chemscore.Internal_Hbond.Weighted>
0.0000

> <Gold.Chemscore.DEClash.Weighted>
0.1258

> <Gold.Chemscore.DEInternal.Weighted>
1.6634

> <Gold.Chemscore.Rot.Weighted>
3.6395

> <Gold.Chemscore.Internal.Correction.Weighted>
   9.000000E+99

> <Gold.Protein.RotatedTorsions>
[ 6907 6896 6895 6894 ] final  151.95 input  -60.11 | X-H torsion
[ 7974 7965 7964 7962 ] final   14.26 input  175.53 | X-H torsion
[ 8008 7997 7996 7995 ] final  130.74 input   59.86 | X-H torsion
[ 10167 10162 10161 10158 ] final   47.25 input  -65.29 | X-H torsion
[ 10718 10713 10712 10709 ] final   15.26 input   66.30 | X-H torsion
[ 10763 10752 10751 10750 ] final  -42.02 input  -60.55 | X-H torsion
[ 11005 11000 10999 10996 ] final   82.36 input  -57.11 | X-H torsion

> <Gold.Protein.ActiveResidues>
 VAL166  LYS551  ARG553  GLY616  TRP617  ASP618  TYR619  PRO620  LYS621  CYS622 
 ASP623  PHE694  ASN695  SER759  ASP760  ASP761  ALA762  ILE779  LEU786  VAL792 
 PHE793  MET794  SER795  GLU796  ALA797  LYS798  CYS799  TRP800  GLU811  SER814 

> <Gold.Protein.RotatedAtoms>
  152.0936  133.4213  159.4554 H   0  0  0  0  0  0  0  0  0  0  0  0  # atno 6907 bound_to 6896
  150.6863  134.2843  159.4649 H   0  0  0  0  0  0  0  0  0  0  0  0  # atno 6908 bound_to 6896
  152.0697  134.9541  160.0625 H   0  0  0  0  0  0  0  0  0  0  0  0  # atno 6909 bound_to 6896
  146.2309  139.9068  142.8530 H   0  0  0  0  0  0  0  0  0  0  0  0  # atno 7974 bound_to 7965
  156.2959  140.2588  156.2811 H   0  0  0  0  0  0  0  0  0  0  0  0  # atno 8008 bound_to 7997
  154.9601  140.0392  157.2204 H   0  0  0  0  0  0  0  0  0  0  0  0  # atno 8009 bound_to 7997
  154.7955  140.2819  155.5964 H   0  0  0  0  0  0  0  0  0  0  0  0  # atno 8010 bound_to 7997
  140.3055  144.2883  150.6210 H   0  0  0  0  0  0  0  0  0  0  0  0  # atno 10167 bound_to 10162
  157.0510  130.6270  149.5768 H   0  0  0  0  0  0  0  0  0  0  0  0  # atno 10718 bound_to 10713
  153.9721  135.6727  153.4747 H   0  0  0  0  0  0  0  0  0  0  0  0  # atno 10763 bound_to 10752
  153.0788  135.4934  154.8456 H   0  0  0  0  0  0  0  0  0  0  0  0  # atno 10764 bound_to 10752
  154.7213  135.3118  154.9003 H   0  0  0  0  0  0  0  0  0  0  0  0  # atno 10765 bound_to 10752
  139.9066  134.8066  156.2164 H   0  0  0  0  0  0  0  0  0  0  0  0  # atno 11005 bound_to 11000
  145.2269  140.9957  143.4013 LP  0  0  0  0  0  0  0  0  0  0  0  0  # atno 17320 bound_to 7965
  144.9563  139.4028  143.6378 LP  0  0  0  0  0  0  0  0  0  0  0  0  # atno 17321 bound_to 7965
  140.5614  143.2192  151.7759 LP  0  0  0  0  0  0  0  0  0  0  0  0  # atno 17342 bound_to 10162
  139.4905  144.4344  151.9836 LP  0  0  0  0  0  0  0  0  0  0  0  0  # atno 17343 bound_to 10162
  156.0008  130.5086  150.7654 LP  0  0  0  0  0  0  0  0  0  0  0  0  # atno 17370 bound_to 10713
  157.5030  131.0920  151.0291 LP  0  0  0  0  0  0  0  0  0  0  0  0  # atno 17371 bound_to 10713
  141.0433  133.6926  156.1637 LP  0  0  0  0  0  0  0  0  0  0  0  0  # atno 17394 bound_to 11000
  140.6922  134.4653  157.5588 LP  0  0  0  0  0  0  0  0  0  0  0  0  # atno 17395 bound_to 11000

$$$$
