AV-unprocessed.smi:1911|AV-procd|sdf|7744|dock6
  -GOLD-   22720 9483D 1   1.00000     0.00000
 Structure written by MMmdl.
 51 53  0  0  0  0  0  0  0  0  3 V2000
  142.9563  132.0727  149.1831 N   0  5  0  0  0  0  0  0  0  0  0  0
  144.0663  132.4187  149.8659 C   0  0  0  0  0  0  0  0  0  0  0  0
  145.2375  132.2011  149.5641 O   0  0  0  0  0  0  0  0  0  0  0  0
  143.7440  133.1711  151.1617 C   0  0  0  0  0  0  0  0  0  0  0  0
  144.7520  134.2304  151.4226 N   0  3  2  0  0  0  0  0  0  0  0  0
  144.7843  134.6410  152.8490 C   0  0  0  0  0  0  0  0  0  0  0  0
  145.9314  135.6294  153.1181 C   0  0  0  0  0  0  0  0  0  0  0  0
  145.8253  136.8609  152.2054 C   0  0  1  0  0  0  0  0  0  0  0  0
  146.9629  137.7486  152.4304 N   0  0  0  0  0  0  0  0  0  0  0  0
  147.2254  138.3883  153.5794 C   0  0  0  0  0  0  0  0  0  0  0  0
  146.5066  138.3137  154.5758 O   0  0  0  0  0  0  0  0  0  0  0  0
  148.3470  139.1228  153.4836 N   0  0  0  0  0  0  0  0  0  0  0  0
  148.9919  139.8837  154.4961 C   0  0  0  0  0  0  0  0  0  0  0  0
  150.3971  139.8300  154.5750 C   0  0  0  0  0  0  0  0  0  0  0  0
  151.0596  140.5566  155.5825 C   0  0  0  0  0  0  0  0  0  0  0  0
  150.2939  141.3179  156.4970 C   0  0  0  0  0  0  0  0  0  0  0  0
  150.9100  142.0554  157.5275 N   0  0  0  0  0  0  0  0  0  0  0  0
  152.0351  141.5423  158.2916 C   0  0  0  0  0  0  0  0  0  0  0  0
  152.4398  142.6967  159.2082 C   0  0  0  0  0  0  0  0  0  0  0  0
  152.0861  143.9369  158.3871 C   0  0  0  0  0  0  0  0  0  0  0  0
  150.8513  143.5104  157.5858 C   0  0  0  0  0  0  0  0  0  0  0  0
  148.9421  141.3556  156.4331 N   0  0  0  0  0  0  0  0  0  0  0  0
  148.3110  140.6592  155.4645 C   0  0  0  0  0  0  0  0  0  0  0  0
  145.7648  136.4073  150.7361 C   0  0  0  0  0  0  0  0  0  0  0  0
  144.6228  135.4014  150.5139 C   0  0  0  0  0  0  0  0  0  0  0  0
  142.1892  132.7523  149.1146 H   0  0  0  0  0  0  0  0  0  0  0  0
  142.7418  133.6008  151.1198 H   0  0  0  0  0  0  0  0  0  0  0  0
  143.7362  132.4439  151.9756 H   0  0  0  0  0  0  0  0  0  0  0  0
  143.8272  135.0890  153.1210 H   0  0  0  0  0  0  0  0  0  0  0  0
  144.9152  133.7620  153.4812 H   0  0  0  0  0  0  0  0  0  0  0  0
  145.9150  135.9357  154.1646 H   0  0  0  0  0  0  0  0  0  0  0  0
  146.8864  135.1271  152.9569 H   0  0  0  0  0  0  0  0  0  0  0  0
  144.9020  137.3886  152.4531 H   0  0  0  0  0  0  0  0  0  0  0  0
  147.6019  137.8758  151.6590 H   0  0  0  0  0  0  0  0  0  0  0  0
  148.7752  139.1669  152.5705 H   0  0  0  0  0  0  0  0  0  0  0  0
  150.9662  139.2410  153.8706 H   0  0  0  0  0  0  0  0  0  0  0  0
  152.1370  140.5164  155.6387 H   0  0  0  0  0  0  0  0  0  0  0  0
  151.7650  140.6542  158.8636 H   0  0  0  0  0  0  0  0  0  0  0  0
  152.8484  141.2855  157.6113 H   0  0  0  0  0  0  0  0  0  0  0  0
  151.8368  142.6752  160.1168 H   0  0  0  0  0  0  0  0  0  0  0  0
  153.4899  142.6601  159.4986 H   0  0  0  0  0  0  0  0  0  0  0  0
  151.9079  144.8195  159.0017 H   0  0  0  0  0  0  0  0  0  0  0  0
  152.9045  144.1650  157.7030 H   0  0  0  0  0  0  0  0  0  0  0  0
  150.8498  143.9681  156.5957 H   0  0  0  0  0  0  0  0  0  0  0  0
  149.9355  143.8038  158.0999 H   0  0  0  0  0  0  0  0  0  0  0  0
  147.2345  140.7191  155.4967 H   0  0  0  0  0  0  0  0  0  0  0  0
  145.6267  137.2681  150.0806 H   0  0  0  0  0  0  0  0  0  0  0  0
  146.7122  135.9487  150.4486 H   0  0  0  0  0  0  0  0  0  0  0  0
  144.6347  135.0738  149.4740 H   0  0  0  0  0  0  0  0  0  0  0  0
  143.6597  135.8866  150.6796 H   0  0  0  0  0  0  0  0  0  0  0  0
  145.6454  133.7997  151.2273 H   0  0  0  0  0  0  0  0  0  0  0  0
  1  2  1  0  0  0  0
  1 26  1  0  0  0  0
  2  3  2  0  0  0  0
  2  4  1  0  0  0  0
  4  5  1  0  0  0  0
  4 27  1  0  0  0  0
  4 28  1  0  0  0  0
  5 25  1  0  0  0  0
  5  6  1  0  0  0  0
  5 51  1  0  0  0  0
  6  7  1  0  0  0  0
  6 29  1  0  0  0  0
  6 30  1  0  0  0  0
  7  8  1  0  0  0  0
  7 31  1  0  0  0  0
  7 32  1  0  0  0  0
  8  9  1  0  0  0  0
  8 24  1  0  0  0  0
  8 33  1  0  0  0  0
  9 10  1  0  0  0  0
  9 34  1  0  0  0  0
 10 11  2  0  0  0  0
 10 12  1  0  0  0  0
 12 13  1  0  0  0  0
 12 35  1  0  0  0  0
 13 23  1  0  0  0  0
 13 14  2  0  0  0  0
 14 15  1  0  0  0  0
 14 36  1  0  0  0  0
 15 16  2  0  0  0  0
 15 37  1  0  0  0  0
 16 17  1  0  0  0  0
 16 22  1  0  0  0  0
 17 21  1  0  0  0  0
 17 18  1  0  0  0  0
 18 19  1  0  0  0  0
 18 38  1  0  0  0  0
 18 39  1  0  0  0  0
 19 20  1  0  0  0  0
 19 40  1  0  0  0  0
 19 41  1  0  0  0  0
 20 21  1  0  0  0  0
 20 42  1  0  0  0  0
 20 43  1  0  0  0  0
 21 44  1  0  0  0  0
 21 45  1  0  0  0  0
 22 23  2  0  0  0  0
 23 46  1  0  0  0  0
 24 25  1  0  0  0  0
 24 47  1  0  0  0  0
 24 48  1  0  0  0  0
 25 49  1  0  0  0  0
 25 50  1  0  0  0  0
M  CHG  1   1  -1
M  CHG  1   5   1
M  END
> <s_m_source_file>
AV-unprocessed.smi

> <i_m_source_file_index>
1911

> <i_lp_mmshare_version>
43012

> <i_f3d_flags>
0

> <s_epik_input>
W05IMl1DKD1PKVtDSDJdTjFbQ0gyXVtDSDJdW0NIXShbQ0gyXVtDSDJdMSlbTkhdQyg9TylbTkhdYzJbY0hdW2NIXWMobltjSF0yKU4zW0NIMl1bQ0gyXVtDSDJdW0NIMl0z

> <s_epik_cmdline>
J2VwaWtfcHl0aG9uJywgJy1waCcsICc3LjAnLCAnLXRuJywgJzgnLCAnLW1hJywgJzIwMCcsICctbWV0YWxfYmluZGluZycsICctaW1hZScsICc8aW5maWxlLm1hZT4nLCAnLW9tYWUnLCAnPG91dGZpbGUubWFlPic=

> <r_lp_tautomer_probability>
1

> <r_epik_Ionization_Penalty>
5.80652

> <r_epik_Ionization_Penalty_Charging>
5.7288

> <r_epik_Ionization_Penalty_Neutral>
0.0777157

> <r_epik_State_Penalty>
6.60246

> <r_epik_Charging_Adjusted_Penalty>
12.3313

> <i_epik_Tot_Q>
0

> <i_epik_Tot_abs_Q>
2

> <r_epik_Metal_State_Penalty>
2.64988

> <b_epik_Metal_Only>
1

> <s_lp_Force_Field>
OPLS_2005

> <r_lp_Energy>
33.5559

> <b_lp_Chiralities_Consistent>
1

> <s_lp_Variant>
AV-unprocessed.smi:1911-7

> <Gold.Version>
5.8.1

> <Gold.Id.Protein>
6NUR|6NUR_protein|mol2

> <Gold.PLP.Fitness>
52.7176

> <Gold.PLP.PLP>
-46.5700

> <Gold.PLP.part.hbond>
-5.0034

> <Gold.PLP.part.metal>
0.0000

> <Gold.PLP.part.buried>
-2.3041

> <Gold.PLP.part.nonpolar>
-39.7834

> <Gold.PLP.part.repulsive>
0.4405

> <Gold.PLP.ligand.clash>
0.0000

> <Gold.PLP.ligand.torsion>
1.7596

> <Gold.PLP.Chemscore.Hbond>
3.1680

> <Gold.PLP.Chemscore.CHOScore>
0.0000

> <Gold.PLP.Chemscore.Metal>
0.0000

> <Gold.Chemscore.Hbonds>
donor molecule, donor type, donor heavy atom, donor atom, acceptor molecule, acceptor atom, score
      L1  H     1    26       P1 10186  0.88
      L1  H     9    34       P1  7948  0.08
      L1  H    12    35       P1  7957  1.00
      P1  H 10785 10796       L1     1  1.00

> <Gold.PLP.Chemscore.Internal.Correction>
0.1629

> <Gold.Rescore>
     Score         DG    S(hbond)    S(metal)    S(lipo)     H(rot)  DE(clash)    DE(int)     intcor
     18.56     -21.21       2.73        0.00      97.63       1.88       0.85       1.80       ----

> <Gold.Chemscore.Fitness>
18.5599

> <Gold.Chemscore.DG>
-21.2060

> <Gold.Chemscore.ZeroCoef>
-5.4800

> <Gold.Chemscore.Hbond>
2.7289

> <Gold.Chemscore.Metal>
0.0000

> <Gold.Chemscore.Lipo>
97.6271

> <Gold.Chemscore.Internal_Hbond>
0.0000

> <Gold.Chemscore.DEClash>
0.8487

> <Gold.Chemscore.DEInternal>
1.7975

> <Gold.Chemscore.Rot>
1.8793

> <Gold.Chemscore.Internal.Correction>
   9.000000E+99

> <Gold.Chemscore.Hbonds>
donor molecule, donor type, donor heavy atom, donor atom, acceptor molecule, acceptor atom, score
      L1  H     1    26       P1 10186  0.85
      L1  H     9    34       P1  7948  0.10
      L1  H    12    35       P1  7957  0.98
      P1  H 10785 10796       L1     1  0.48

> <Gold.Chemscore.Hbond.Weighted>
-9.1145

> <Gold.Chemscore.Metal.Weighted>
-0.0000

> <Gold.Chemscore.Lipo.Weighted>
-11.4224

> <Gold.Chemscore.Internal_Hbond.Weighted>
0.0000

> <Gold.Chemscore.DEClash.Weighted>
0.8487

> <Gold.Chemscore.DEInternal.Weighted>
1.7975

> <Gold.Chemscore.Rot.Weighted>
4.8109

> <Gold.Chemscore.Internal.Correction.Weighted>
   9.000000E+99

> <Gold.Protein.RotatedTorsions>
[ 6907 6896 6895 6894 ] final  153.54 input  -60.11 | X-H torsion
[ 7974 7965 7964 7962 ] final    0.50 input  175.53 | X-H torsion
[ 8008 7997 7996 7995 ] final   18.12 input   59.86 | X-H torsion
[ 10167 10162 10161 10158 ] final -121.51 input  -65.29 | X-H torsion
[ 10718 10713 10712 10709 ] final   84.23 input   66.30 | X-H torsion
[ 10763 10752 10751 10750 ] final  115.67 input  -60.55 | X-H torsion
[ 11005 11000 10999 10996 ] final  117.12 input  -57.11 | X-H torsion

> <Gold.Protein.ActiveResidues>
 VAL166  LYS551  ARG553  GLY616  TRP617  ASP618  TYR619  PRO620  LYS621  CYS622 
 ASP623  PHE694  ASN695  SER759  ASP760  ASP761  ALA762  ILE779  LEU786  VAL792 
 PHE793  MET794  SER795  GLU796  ALA797  LYS798  CYS799  TRP800  GLU811  SER814 

> <Gold.Protein.RotatedAtoms>
  152.0713  133.4108  159.4459 H   0  0  0  0  0  0  0  0  0  0  0  0  # atno 6907 bound_to 6896
  150.6863  134.3089  159.4747 H   0  0  0  0  0  0  0  0  0  0  0  0  # atno 6908 bound_to 6896
  152.0921  134.9400  160.0622 H   0  0  0  0  0  0  0  0  0  0  0  0  # atno 6909 bound_to 6896
  146.2435  140.1129  142.8343 H   0  0  0  0  0  0  0  0  0  0  0  0  # atno 7974 bound_to 7965
  154.9014  140.3001  155.5316 H   0  0  0  0  0  0  0  0  0  0  0  0  # atno 8008 bound_to 7997
  156.3018  140.2406  156.3977 H   0  0  0  0  0  0  0  0  0  0  0  0  # atno 8009 bound_to 7997
  154.8517  140.0409  157.1597 H   0  0  0  0  0  0  0  0  0  0  0  0  # atno 8010 bound_to 7997
  140.0242  143.5313  152.2206 H   0  0  0  0  0  0  0  0  0  0  0  0  # atno 10167 bound_to 10162
  157.6894  131.0124  150.2642 H   0  0  0  0  0  0  0  0  0  0  0  0  # atno 10718 bound_to 10713
  153.5258  135.3588  155.2653 H   0  0  0  0  0  0  0  0  0  0  0  0  # atno 10763 bound_to 10752
  154.8731  135.4056  154.3208 H   0  0  0  0  0  0  0  0  0  0  0  0  # atno 10764 bound_to 10752
  153.3887  135.7071  153.6578 H   0  0  0  0  0  0  0  0  0  0  0  0  # atno 10765 bound_to 10752
  139.9064  134.9606  156.7302 H   0  0  0  0  0  0  0  0  0  0  0  0  # atno 11005 bound_to 11000
  145.0472  140.8990  143.5017 LP  0  0  0  0  0  0  0  0  0  0  0  0  # atno 17320 bound_to 7965
  145.1220  139.2687  143.5584 LP  0  0  0  0  0  0  0  0  0  0  0  0  # atno 17321 bound_to 7965
  139.6119  144.7610  151.2932 LP  0  0  0  0  0  0  0  0  0  0  0  0  # atno 17342 bound_to 10162
  140.7329  143.6808  150.8002 LP  0  0  0  0  0  0  0  0  0  0  0  0  # atno 17343 bound_to 10162
  156.3216  130.3786  149.7570 LP  0  0  0  0  0  0  0  0  0  0  0  0  # atno 17370 bound_to 10713
  156.5139  130.8184  151.3179 LP  0  0  0  0  0  0  0  0  0  0  0  0  # atno 17371 bound_to 10713
  140.6931  133.9372  155.7978 LP  0  0  0  0  0  0  0  0  0  0  0  0  # atno 17394 bound_to 11000
  141.0427  134.0599  157.3882 LP  0  0  0  0  0  0  0  0  0  0  0  0  # atno 17395 bound_to 11000

$$$$
