AV-unprocessed.smi:2100|AV-procd|sdf|8575|dock2
  -GOLD-   2272011303D 1   1.00000     0.00000
 Structure written by MMmdl.
 41 42  0  0  0  0  0  0  0  0  1 V2000
  150.8262  141.8314  156.3793 C   0  0  0  0  0  0  0  0  0  0  0  0
  151.4196  140.4213  156.2889 C   0  0  1  0  0  0  0  0  0  0  0  0
  150.7970  139.4683  157.3237 C   0  0  0  0  0  0  0  0  0  0  0  0
  151.2824  138.0949  157.1309 N   0  0  0  0  0  0  0  0  0  0  0  0
  150.9758  136.9672  158.4094 S   0  0  0  0  0  0  0  0  0  0  0  0
  150.4218  135.7339  157.8293 O   0  0  0  0  0  0  0  0  0  0  0  0
  152.1559  136.9366  159.2864 O   0  0  0  0  0  0  0  0  0  0  0  0
  149.7043  137.7961  159.2277 N   0  0  0  0  0  0  0  0  0  0  0  0
  148.3467  137.7668  158.6806 C   0  0  0  0  0  0  0  0  0  0  0  0
  147.7368  136.3589  158.7831 C   0  0  0  0  0  0  0  0  0  0  0  0
  147.4939  135.9048  160.2137 C   0  0  0  0  0  0  0  0  0  0  0  0
  147.3249  134.5355  160.5115 C   0  0  0  0  0  0  0  0  0  0  0  0
  147.1054  134.1607  161.8514 C   0  0  0  0  0  0  0  0  0  0  0  0
  147.0568  135.1650  162.8371 C   0  0  0  0  0  0  0  0  0  0  0  0
  147.2368  136.5042  162.4384 C   0  0  0  0  0  0  0  0  0  0  0  0
  147.4534  136.8732  161.1576 N   0  0  0  0  0  0  0  0  0  0  0  0
  151.1246  137.6167  155.7463 C   0  0  0  0  0  0  0  0  0  0  0  0
  151.6959  138.6238  154.7302 C   0  0  2  0  0  0  0  0  0  0  0  0
  153.2323  138.6062  154.6563 C   0  0  0  0  0  0  0  0  0  0  0  0
  151.1831  139.9307  154.9745 O   0  0  0  0  0  0  0  0  0  0  0  0
  150.9900  142.2636  157.3667 H   0  0  0  0  0  0  0  0  0  0  0  0
  149.7522  141.8208  156.1917 H   0  0  0  0  0  0  0  0  0  0  0  0
  151.2858  142.4947  155.6461 H   0  0  0  0  0  0  0  0  0  0  0  0
  152.4923  140.4990  156.4657 H   0  0  0  0  0  0  0  0  0  0  0  0
  151.0439  139.8079  158.3298 H   0  0  0  0  0  0  0  0  0  0  0  0
  149.7090  139.4707  157.2432 H   0  0  0  0  0  0  0  0  0  0  0  0
  149.9874  138.7123  159.5761 H   0  0  0  0  0  0  0  0  0  0  0  0
  147.7194  138.4868  159.2070 H   0  0  0  0  0  0  0  0  0  0  0  0
  148.3887  138.0815  157.6376 H   0  0  0  0  0  0  0  0  0  0  0  0
  146.7876  136.3411  158.2465 H   0  0  0  0  0  0  0  0  0  0  0  0
  148.3780  135.6338  158.2793 H   0  0  0  0  0  0  0  0  0  0  0  0
  147.3615  133.7875  159.7333 H   0  0  0  0  0  0  0  0  0  0  0  0
  146.9717  133.1225  162.1168 H   0  0  0  0  0  0  0  0  0  0  0  0
  146.8866  134.9150  163.8738 H   0  0  0  0  0  0  0  0  0  0  0  0
  147.2061  137.3005  163.1674 H   0  0  0  0  0  0  0  0  0  0  0  0
  151.6045  136.6466  155.6213 H   0  0  0  0  0  0  0  0  0  0  0  0
  150.0616  137.4655  155.5543 H   0  0  0  0  0  0  0  0  0  0  0  0
  151.3323  138.3389  153.7425 H   0  0  0  0  0  0  0  0  0  0  0  0
  153.5849  137.6380  154.3041 H   0  0  0  0  0  0  0  0  0  0  0  0
  153.6963  138.7849  155.6258 H   0  0  0  0  0  0  0  0  0  0  0  0
  153.5985  139.3618  153.9615 H   0  0  0  0  0  0  0  0  0  0  0  0
  1  2  1  0  0  0  0
  1 21  1  0  0  0  0
  1 22  1  0  0  0  0
  1 23  1  0  0  0  0
  2 20  1  0  0  0  0
  2  3  1  0  0  0  0
  2 24  1  0  0  0  0
  3  4  1  0  0  0  0
  3 25  1  0  0  0  0
  3 26  1  0  0  0  0
  4  5  1  0  0  0  0
  4 17  1  0  0  0  0
  5  6  2  0  0  0  0
  5  7  2  0  0  0  0
  5  8  1  0  0  0  0
  8  9  1  0  0  0  0
  8 27  1  0  0  0  0
  9 10  1  0  0  0  0
  9 28  1  0  0  0  0
  9 29  1  0  0  0  0
 10 11  1  0  0  0  0
 10 30  1  0  0  0  0
 10 31  1  0  0  0  0
 11 16  1  0  0  0  0
 11 12  2  0  0  0  0
 12 13  1  0  0  0  0
 12 32  1  0  0  0  0
 13 14  2  0  0  0  0
 13 33  1  0  0  0  0
 14 15  1  0  0  0  0
 14 34  1  0  0  0  0
 15 16  2  0  0  0  0
 15 35  1  0  0  0  0
 17 18  1  0  0  0  0
 17 36  1  0  0  0  0
 17 37  1  0  0  0  0
 18 19  1  0  0  0  0
 18 20  1  0  0  0  0
 18 38  1  0  0  0  0
 19 39  1  0  0  0  0
 19 40  1  0  0  0  0
 19 41  1  0  0  0  0
M  END
> <s_m_source_file>
AV-unprocessed.smi

> <i_m_source_file_index>
2100

> <i_lp_mmshare_version>
43012

> <i_f3d_flags>
0

> <s_epik_input>
W0NIM11bQ0BASF0xW0NIMl1OKFtDSDJdW0NASF0oTzEpW0NIM10pUyg9TykoPU8pW05IXVtDSDJdW0NIMl1jMltjSF1bY0hdW2NIXVtjSF1uMg==

> <s_epik_cmdline>
J2VwaWtfcHl0aG9uJywgJy1waCcsICc3LjAnLCAnLXRuJywgJzgnLCAnLW1hJywgJzIwMCcsICctbWV0YWxfYmluZGluZycsICctaW1hZScsICc8aW5maWxlLm1hZT4nLCAnLW9tYWUnLCAnPG91dGZpbGUubWFlPic=

> <r_epik_Ionization_Penalty>
0.085378

> <r_epik_Ionization_Penalty_Charging>
0

> <r_epik_Ionization_Penalty_Neutral>
0.085378

> <r_epik_State_Penalty>
0.0441186

> <r_epik_Charging_Adjusted_Penalty>
0.0441186

> <i_epik_Tot_Q>
0

> <i_epik_Tot_abs_Q>
0

> <r_epik_Metal_State_Penalty>
0.24397

> <b_epik_Metal_Only>
0

> <s_lp_Force_Field>
OPLS_2005

> <r_lp_Energy>
8.75792

> <b_lp_Chiralities_Consistent>
1

> <s_lp_Variant>
AV-unprocessed.smi:2100-3

> <Gold.Version>
5.8.1

> <Gold.Id.Protein>
6NUR|6NUR_protein|mol2

> <Gold.PLP.Fitness>
47.4062

> <Gold.PLP.PLP>
-38.8291

> <Gold.PLP.part.hbond>
-6.0000

> <Gold.PLP.part.metal>
0.0000

> <Gold.PLP.part.buried>
-4.8884

> <Gold.PLP.part.nonpolar>
-30.0465

> <Gold.PLP.part.repulsive>
0.0460

> <Gold.PLP.ligand.clash>
0.0000

> <Gold.PLP.ligand.torsion>
1.0522

> <Gold.PLP.Chemscore.Hbond>
3.2965

> <Gold.PLP.Chemscore.CHOScore>
0.0000

> <Gold.PLP.Chemscore.Metal>
0.0000

> <Gold.Chemscore.Hbonds>
donor molecule, donor type, donor heavy atom, donor atom, acceptor molecule, acceptor atom, score
      P1  H  6896  6907       L1     7  0.80
      P1  H  6896  6909       L1     6  0.37
      P1  H  6931  6943       L1    16  0.21
      P1  H  6934  6947       L1    16  0.63
      P1  H  7989  7998       L1    20  1.00

> <Gold.PLP.Chemscore.Internal.Correction>
0.7919

> <Gold.Rescore>
     Score         DG    S(hbond)    S(metal)    S(lipo)     H(rot)  DE(clash)    DE(int)     intcor
     14.31     -17.54       1.96        0.00      84.50       1.71       0.04       3.19       ----

> <Gold.Chemscore.Fitness>
14.3091

> <Gold.Chemscore.DG>
-17.5373

> <Gold.Chemscore.ZeroCoef>
-5.4800

> <Gold.Chemscore.Hbond>
1.9574

> <Gold.Chemscore.Metal>
0.0000

> <Gold.Chemscore.Lipo>
84.5028

> <Gold.Chemscore.Internal_Hbond>
0.0000

> <Gold.Chemscore.DEClash>
0.0370

> <Gold.Chemscore.DEInternal>
3.1913

> <Gold.Chemscore.Rot>
1.7060

> <Gold.Chemscore.Internal.Correction>
   9.000000E+99

> <Gold.Chemscore.Hbonds>
donor molecule, donor type, donor heavy atom, donor atom, acceptor molecule, acceptor atom, score
      P1  H  6896  6907       L1     7  0.22
      P1  H  6896  6909       L1     6  0.14
      P1  H  6931  6943       L1    16  0.01
      P1  H  6934  6947       L1    16  0.44
      P1  H  7989  7998       L1    20  0.44

> <Gold.Chemscore.Hbond.Weighted>
-6.5378

> <Gold.Chemscore.Metal.Weighted>
-0.0000

> <Gold.Chemscore.Lipo.Weighted>
-9.8868

> <Gold.Chemscore.Internal_Hbond.Weighted>
0.0000

> <Gold.Chemscore.DEClash.Weighted>
0.0370

> <Gold.Chemscore.DEInternal.Weighted>
3.1913

> <Gold.Chemscore.Rot.Weighted>
4.3674

> <Gold.Chemscore.Internal.Correction.Weighted>
   9.000000E+99

> <Gold.Protein.RotatedTorsions>
[ 6907 6896 6895 6894 ] final   30.98 input  -60.11 | X-H torsion
[ 7974 7965 7964 7962 ] final -173.05 input  175.53 | X-H torsion
[ 8008 7997 7996 7995 ] final  -15.80 input   59.86 | X-H torsion
[ 10167 10162 10161 10158 ] final   64.18 input  -65.29 | X-H torsion
[ 10718 10713 10712 10709 ] final  159.03 input   66.30 | X-H torsion
[ 10763 10752 10751 10750 ] final   34.81 input  -60.55 | X-H torsion
[ 11005 11000 10999 10996 ] final  -12.55 input  -57.11 | X-H torsion

> <Gold.Protein.ActiveResidues>
 VAL166  LYS551  ARG553  GLY616  TRP617  ASP618  TYR619  PRO620  LYS621  CYS622 
 ASP623  PHE694  ASN695  SER759  ASP760  ASP761  ALA762  ILE779  LEU786  VAL792 
 PHE793  MET794  SER795  GLU796  ALA797  LYS798  CYS799  TRP800  GLU811  SER814 

> <Gold.Protein.RotatedAtoms>
  152.0538  134.9637  160.0574 H   0  0  0  0  0  0  0  0  0  0  0  0  # atno 6907 bound_to 6896
  152.1028  133.4254  159.4603 H   0  0  0  0  0  0  0  0  0  0  0  0  # atno 6908 bound_to 6896
  150.6840  134.2659  159.4612 H   0  0  0  0  0  0  0  0  0  0  0  0  # atno 6909 bound_to 6896
  144.7141  140.1681  143.6370 H   0  0  0  0  0  0  0  0  0  0  0  0  # atno 7974 bound_to 7965
  154.5102  140.2186  155.9172 H   0  0  0  0  0  0  0  0  0  0  0  0  # atno 8008 bound_to 7997
  156.1543  140.3155  155.8665 H   0  0  0  0  0  0  0  0  0  0  0  0  # atno 8009 bound_to 7997
  155.3878  140.0476  157.3032 H   0  0  0  0  0  0  0  0  0  0  0  0  # atno 8010 bound_to 7997
  140.1249  144.4697  150.6898 H   0  0  0  0  0  0  0  0  0  0  0  0  # atno 10167 bound_to 10162
  157.1698  131.0607  151.2189 H   0  0  0  0  0  0  0  0  0  0  0  0  # atno 10718 bound_to 10713
  153.0147  135.6350  154.1727 H   0  0  0  0  0  0  0  0  0  0  0  0  # atno 10763 bound_to 10752
  154.1467  135.2831  155.3148 H   0  0  0  0  0  0  0  0  0  0  0  0  # atno 10764 bound_to 10752
  154.6084  135.5564  153.7508 H   0  0  0  0  0  0  0  0  0  0  0  0  # atno 10765 bound_to 10752
  140.7669  133.8470  155.9173 H   0  0  0  0  0  0  0  0  0  0  0  0  # atno 11005 bound_to 11000
  145.8969  139.2408  143.1516 LP  0  0  0  0  0  0  0  0  0  0  0  0  # atno 17320 bound_to 7965
  145.9849  140.8652  143.0096 LP  0  0  0  0  0  0  0  0  0  0  0  0  # atno 17321 bound_to 7965
  140.6850  143.2345  151.5283 LP  0  0  0  0  0  0  0  0  0  0  0  0  # atno 17342 bound_to 10162
  139.5549  144.2301  152.1595 LP  0  0  0  0  0  0  0  0  0  0  0  0  # atno 17343 bound_to 10162
  157.4054  130.7356  149.6798 LP  0  0  0  0  0  0  0  0  0  0  0  0  # atno 17370 bound_to 10713
  155.9740  130.4109  150.3956 LP  0  0  0  0  0  0  0  0  0  0  0  0  # atno 17371 bound_to 10713
  140.9610  134.1655  157.4653 LP  0  0  0  0  0  0  0  0  0  0  0  0  # atno 17394 bound_to 11000
  139.8762  134.9945  156.5695 LP  0  0  0  0  0  0  0  0  0  0  0  0  # atno 17395 bound_to 11000

$$$$
