AV-unprocessed.smi:1680|AV-procd|sdf|6740|dock5
  -GOLD-   22720 7493D 1   1.00000     0.00000
 Structure written by MMmdl.
 38 39  0  0  0  0  0  0  0  0  3 V2000
  150.7220  141.2124  156.1658 C   0  0  0  0  0  0  0  0  0  0  0  0
  151.5259  139.9817  155.7406 C   0  0  0  0  0  0  0  0  0  0  0  0
  152.6382  139.8162  156.2411 O   0  0  0  0  0  0  0  0  0  0  0  0
  150.9965  139.1230  154.8363 N   0  0  0  0  0  0  0  0  0  0  0  0
  149.6523  139.2873  154.2759 C   0  0  0  0  0  0  0  0  0  0  0  0
  148.7556  138.1390  154.7730 C   0  0  0  0  0  0  0  0  0  0  0  0
  149.3407  136.8099  154.4505 N   0  3  0  0  0  0  0  0  0  0  0  0
  148.4782  135.6942  154.9122 C   0  0  0  0  0  0  0  0  0  0  0  0
  148.8416  135.2170  156.3308 C   0  0  0  0  0  0  0  0  0  0  0  0
  148.1455  135.9984  157.3460 N   0  0  0  0  0  0  0  0  0  0  0  0
  148.6586  136.3850  158.5227 C   0  0  0  0  0  0  0  0  0  0  0  0
  149.8182  136.0835  158.8151 O   0  0  0  0  0  0  0  0  0  0  0  0
  147.7952  137.0894  159.2875 N   0  5  0  0  0  0  0  0  0  0  0  0
  147.4827  136.6566  160.5203 C   0  0  0  0  0  0  0  0  0  0  0  0
  147.1693  137.4985  161.5180 N   0  0  0  0  0  0  0  0  0  0  0  0
  146.8736  136.8486  162.7085 N   0  0  0  0  0  0  0  0  0  0  0  0
  146.9651  135.5255  162.5754 C   0  0  0  0  0  0  0  0  0  0  0  0
  147.4167  134.9535  160.9833 S   0  0  0  0  0  0  0  0  0  0  0  0
  150.7585  136.6851  154.8901 C   0  0  0  0  0  0  0  0  0  0  0  0
  151.6099  137.8677  154.3916 C   0  0  0  0  0  0  0  0  0  0  0  0
  150.5101  141.8522  155.3087 H   0  0  0  0  0  0  0  0  0  0  0  0
  151.2806  141.8043  156.8920 H   0  0  0  0  0  0  0  0  0  0  0  0
  149.7810  140.9178  156.6315 H   0  0  0  0  0  0  0  0  0  0  0  0
  149.1988  140.2456  154.5328 H   0  0  0  0  0  0  0  0  0  0  0  0
  149.7137  139.2707  153.1868 H   0  0  0  0  0  0  0  0  0  0  0  0
  148.6160  138.2195  155.8524 H   0  0  0  0  0  0  0  0  0  0  0  0
  147.7686  138.2258  154.3174 H   0  0  0  0  0  0  0  0  0  0  0  0
  147.4292  135.9895  154.8595 H   0  0  0  0  0  0  0  0  0  0  0  0
  148.5953  134.8546  154.2254 H   0  0  0  0  0  0  0  0  0  0  0  0
  148.6120  134.1569  156.4515 H   0  0  0  0  0  0  0  0  0  0  0  0
  149.9089  135.3276  156.5176 H   0  0  0  0  0  0  0  0  0  0  0  0
  147.1945  136.2713  157.1439 H   0  0  0  0  0  0  0  0  0  0  0  0
  146.7626  134.8827  163.4189 H   0  0  0  0  0  0  0  0  0  0  0  0
  150.7973  136.6381  155.9798 H   0  0  0  0  0  0  0  0  0  0  0  0
  151.1897  135.7567  154.5177 H   0  0  0  0  0  0  0  0  0  0  0  0
  151.6509  137.8617  153.3013 H   0  0  0  0  0  0  0  0  0  0  0  0
  152.6400  137.7412  154.7212 H   0  0  0  0  0  0  0  0  0  0  0  0
  149.3491  136.7574  153.4418 H   0  0  0  0  0  0  0  0  0  0  0  0
  1  2  1  0  0  0  0
  1 21  1  0  0  0  0
  1 22  1  0  0  0  0
  1 23  1  0  0  0  0
  2  3  2  0  0  0  0
  2  4  1  0  0  0  0
  4 20  1  0  0  0  0
  4  5  1  0  0  0  0
  5  6  1  0  0  0  0
  5 24  1  0  0  0  0
  5 25  1  0  0  0  0
  6  7  1  0  0  0  0
  6 26  1  0  0  0  0
  6 27  1  0  0  0  0
  7  8  1  0  0  0  0
  7 19  1  0  0  0  0
  7 38  1  0  0  0  0
  8  9  1  0  0  0  0
  8 28  1  0  0  0  0
  8 29  1  0  0  0  0
  9 10  1  0  0  0  0
  9 30  1  0  0  0  0
  9 31  1  0  0  0  0
 10 11  1  0  0  0  0
 10 32  1  0  0  0  0
 11 12  2  0  0  0  0
 11 13  1  0  0  0  0
 13 14  1  0  0  0  0
 14 18  1  0  0  0  0
 14 15  2  0  0  0  0
 15 16  1  0  0  0  0
 16 17  2  0  0  0  0
 17 18  1  0  0  0  0
 17 33  1  0  0  0  0
 19 20  1  0  0  0  0
 19 34  1  0  0  0  0
 19 35  1  0  0  0  0
 20 36  1  0  0  0  0
 20 37  1  0  0  0  0
M  CHG  1   7   1
M  CHG  1  13  -1
M  END
> <s_m_source_file>
AV-unprocessed.smi

> <i_m_source_file_index>
1680

> <i_lp_mmshare_version>
43012

> <i_f3d_flags>
0

> <s_epik_input>
W0NIM11DKD1PKU4xW0NIMl1bQ0gyXU4oW0NIMl1bQ0gyXTEpW0NIMl1bQ0gyXVtOSF1DKD1PKVtOSF1jMm5uW2NIXXMy

> <s_epik_cmdline>
J2VwaWtfcHl0aG9uJywgJy1waCcsICc3LjAnLCAnLXRuJywgJzgnLCAnLW1hJywgJzIwMCcsICctbWV0YWxfYmluZGluZycsICctaW1hZScsICc8aW5maWxlLm1hZT4nLCAnLW9tYWUnLCAnPG91dGZpbGUubWFlPic=

> <r_lp_tautomer_probability>
1

> <r_epik_Ionization_Penalty>
3.68953

> <r_epik_Ionization_Penalty_Charging>
3.65812

> <r_epik_Ionization_Penalty_Neutral>
0.0314116

> <r_epik_State_Penalty>
3.68215

> <r_epik_Charging_Adjusted_Penalty>
7.34027

> <i_epik_Tot_Q>
0

> <i_epik_Tot_abs_Q>
2

> <r_epik_Metal_State_Penalty>
1.11495

> <b_epik_Metal_Only>
1

> <s_lp_Force_Field>
OPLS_2005

> <r_lp_Energy>
32.4697

> <b_lp_Chiralities_Consistent>
1

> <s_lp_Variant>
AV-unprocessed.smi:1680-4

> <Gold.Version>
5.8.1

> <Gold.Id.Protein>
6NUR|6NUR_protein|mol2

> <Gold.PLP.Fitness>
48.4805

> <Gold.PLP.PLP>
-33.8632

> <Gold.PLP.part.hbond>
-5.0000

> <Gold.PLP.part.metal>
0.0000

> <Gold.PLP.part.buried>
-3.6205

> <Gold.PLP.part.nonpolar>
-25.6499

> <Gold.PLP.part.repulsive>
0.0439

> <Gold.PLP.ligand.clash>
0.0000

> <Gold.PLP.ligand.torsion>
1.3810

> <Gold.PLP.Chemscore.Hbond>
5.7760

> <Gold.PLP.Chemscore.CHOScore>
0.0000

> <Gold.PLP.Chemscore.Metal>
0.0000

> <Gold.Chemscore.Hbonds>
donor molecule, donor type, donor heavy atom, donor atom, acceptor molecule, acceptor atom, score
      L1  H     7    38       P1  7948  2.00
      P1  H  6896  6909       L1    12  1.00
      P1  H  6931  6943       L1    15  0.69
      P1  H  6934  6947       L1    15  0.93
      P1  H  7997  8009       L1     3  1.00

> <Gold.PLP.Chemscore.Internal.Correction>
0.0514

> <Gold.Rescore>
     Score         DG    S(hbond)    S(metal)    S(lipo)     H(rot)  DE(clash)    DE(int)     intcor
     18.41     -19.79       3.78        0.00      53.77       1.80       0.11       1.26       ----

> <Gold.Chemscore.Fitness>
18.4144

> <Gold.Chemscore.DG>
-19.7866

> <Gold.Chemscore.ZeroCoef>
-5.4800

> <Gold.Chemscore.Hbond>
3.7796

> <Gold.Chemscore.Metal>
0.0000

> <Gold.Chemscore.Lipo>
53.7724

> <Gold.Chemscore.Internal_Hbond>
0.0000

> <Gold.Chemscore.DEClash>
0.1109

> <Gold.Chemscore.DEInternal>
1.2612

> <Gold.Chemscore.Rot>
1.8003

> <Gold.Chemscore.Internal.Correction>
   9.000000E+99

> <Gold.Chemscore.Hbonds>
donor molecule, donor type, donor heavy atom, donor atom, acceptor molecule, acceptor atom, score
      L1  H     7    38       P1  7948  0.92
      P1  H  6896  6909       L1    12  1.00
      P1  H  6931  6943       L1    15  0.06
      P1  H  6934  6947       L1    15  0.63
      P1  H  7997  8009       L1     3  1.00

> <Gold.Chemscore.Hbond.Weighted>
-12.6240

> <Gold.Chemscore.Metal.Weighted>
-0.0000

> <Gold.Chemscore.Lipo.Weighted>
-6.2914

> <Gold.Chemscore.Internal_Hbond.Weighted>
0.0000

> <Gold.Chemscore.DEClash.Weighted>
0.1109

> <Gold.Chemscore.DEInternal.Weighted>
1.2612

> <Gold.Chemscore.Rot.Weighted>
4.6088

> <Gold.Chemscore.Internal.Correction.Weighted>
   9.000000E+99

> <Gold.Protein.RotatedTorsions>
[ 6907 6896 6895 6894 ] final   57.06 input  -60.11 | X-H torsion
[ 7974 7965 7964 7962 ] final  114.98 input  175.53 | X-H torsion
[ 8008 7997 7996 7995 ] final -156.71 input   59.86 | X-H torsion
[ 10167 10162 10161 10158 ] final   65.62 input  -65.29 | X-H torsion
[ 10718 10713 10712 10709 ] final -112.10 input   66.30 | X-H torsion
[ 10763 10752 10751 10750 ] final  141.04 input  -60.55 | X-H torsion
[ 11005 11000 10999 10996 ] final  156.74 input  -57.11 | X-H torsion

> <Gold.Protein.ActiveResidues>
 VAL166  LYS551  ARG553  GLY616  TRP617  ASP618  TYR619  PRO620  LYS621  CYS622 
 ASP623  PHE694  ASN695  SER759  ASP760  ASP761  ALA762  ILE779  LEU786  VAL792 
 PHE793  MET794  SER795  GLU796  ALA797  LYS798  CYS799  TRP800  GLU811  SER814 

> <Gold.Protein.RotatedAtoms>
  152.3695  134.6755  160.0180 H   0  0  0  0  0  0  0  0  0  0  0  0  # atno 6907 bound_to 6896
  151.7052  133.3306  159.3285 H   0  0  0  0  0  0  0  0  0  0  0  0  # atno 6908 bound_to 6896
  150.7663  134.6515  159.6335 H   0  0  0  0  0  0  0  0  0  0  0  0  # atno 6909 bound_to 6896
  145.1977  139.2968  143.4335 H   0  0  0  0  0  0  0  0  0  0  0  0  # atno 7974 bound_to 7965
  155.7214  140.0790  157.2329 H   0  0  0  0  0  0  0  0  0  0  0  0  # atno 8008 bound_to 7997
  154.4044  140.1612  156.2460 H   0  0  0  0  0  0  0  0  0  0  0  0  # atno 8009 bound_to 7997
  155.9193  140.3399  155.6163 H   0  0  0  0  0  0  0  0  0  0  0  0  # atno 8010 bound_to 7997
  140.1093  144.4833  150.6988 H   0  0  0  0  0  0  0  0  0  0  0  0  # atno 10167 bound_to 10162
  156.0686  130.5902  150.8464 H   0  0  0  0  0  0  0  0  0  0  0  0  # atno 10718 bound_to 10713
  153.9327  135.2988  155.3445 H   0  0  0  0  0  0  0  0  0  0  0  0  # atno 10763 bound_to 10752
  154.7518  135.4976  153.9306 H   0  0  0  0  0  0  0  0  0  0  0  0  # atno 10764 bound_to 10752
  153.1083  135.6752  153.9651 H   0  0  0  0  0  0  0  0  0  0  0  0  # atno 10765 bound_to 10752
  140.1704  134.8547  157.2683 H   0  0  0  0  0  0  0  0  0  0  0  0  # atno 11005 bound_to 11000
  146.3424  140.2211  142.8591 LP  0  0  0  0  0  0  0  0  0  0  0  0  # atno 17320 bound_to 7965
  144.9979  140.8605  143.5300 LP  0  0  0  0  0  0  0  0  0  0  0  0  # atno 17321 bound_to 7965
  140.6934  143.2389  151.5067 LP  0  0  0  0  0  0  0  0  0  0  0  0  # atno 17342 bound_to 10162
  139.5628  144.2115  152.1718 LP  0  0  0  0  0  0  0  0  0  0  0  0  # atno 17343 bound_to 10162
  157.5743  131.0946  150.9370 LP  0  0  0  0  0  0  0  0  0  0  0  0  # atno 17370 bound_to 10713
  156.9579  130.5444  149.5285 LP  0  0  0  0  0  0  0  0  0  0  0  0  # atno 17371 bound_to 10713
  140.2384  134.3824  155.7491 LP  0  0  0  0  0  0  0  0  0  0  0  0  # atno 17394 bound_to 11000
  141.2217  133.7252  156.8751 LP  0  0  0  0  0  0  0  0  0  0  0  0  # atno 17395 bound_to 11000

$$$$
