AV-unprocessed.smi:1376|AV-procd|sdf|5591|dock5
  -GOLD-   22720 5193D 1   1.00000     0.00000
 Structure written by MMmdl.
 42 43  0  0  0  0  0  0  0  0  1 V2000
  151.5120  141.1179  157.8330 O   0  0  0  0  0  0  0  0  0  0  0  0
  151.2117  142.2342  157.4085 C   0  0  0  0  0  0  0  0  0  0  0  0
  151.9223  143.4884  157.9355 C   0  0  0  0  0  0  0  0  0  0  0  0
  152.1855  143.4340  159.3830 N   0  0  0  0  0  0  0  0  0  0  0  0
  152.9524  142.3513  159.8578 C   0  0  0  0  0  0  0  0  0  0  0  0
  153.2484  142.2079  161.1593 C   0  0  0  0  0  0  0  0  0  0  0  0
  152.7574  143.2010  162.0846 C   0  0  0  0  0  0  0  0  0  0  0  0
  152.0267  144.2430  161.6406 C   0  0  0  0  0  0  0  0  0  0  0  0
  151.7031  144.4056  160.2184 C   0  0  0  0  0  0  0  0  0  0  0  0
  151.0384  145.3557  159.8036 O   0  0  0  0  0  0  0  0  0  0  0  0
  150.2522  142.4412  156.4939 N   0  0  0  0  0  0  0  0  0  0  0  0
  149.4587  141.3997  155.8483 C   0  0  1  0  0  0  0  0  0  0  0  0
  148.6991  141.9735  154.6359 C   0  0  0  0  0  0  0  0  0  0  0  0
  147.9243  140.8757  153.8902 C   0  0  0  0  0  0  0  0  0  0  0  0
  148.8532  139.7253  153.4719 C   0  0  0  0  0  0  0  0  0  0  0  0
  149.5967  139.1369  154.6831 C   0  0  1  0  0  0  0  0  0  0  0  0
  150.4755  138.1312  154.1956 O   0  0  0  0  0  0  0  0  0  0  0  0
  151.3587  137.5949  155.1717 C   0  0  0  0  0  0  0  0  0  0  0  0
  150.7401  136.3288  155.7755 C   0  0  0  0  0  0  0  0  0  0  0  0
  150.5522  135.4287  154.8111 F   0  0  0  0  0  0  0  0  0  0  0  0
  151.5563  135.8095  156.6920 F   0  0  0  0  0  0  0  0  0  0  0  0
  149.5627  136.6109  156.3324 F   0  0  0  0  0  0  0  0  0  0  0  0
  150.3800  140.2413  155.4229 C   0  0  0  0  0  0  0  0  0  0  0  0
  152.8579  143.6391  157.3930 H   0  0  0  0  0  0  0  0  0  0  0  0
  151.3073  144.3546  157.6885 H   0  0  0  0  0  0  0  0  0  0  0  0
  153.2873  141.6566  159.1011 H   0  0  0  0  0  0  0  0  0  0  0  0
  153.8414  141.3738  161.5047 H   0  0  0  0  0  0  0  0  0  0  0  0
  152.9783  143.1097  163.1379 H   0  0  0  0  0  0  0  0  0  0  0  0
  151.6688  144.9770  162.3476 H   0  0  0  0  0  0  0  0  0  0  0  0
  150.0666  143.3928  156.2122 H   0  0  0  0  0  0  0  0  0  0  0  0
  148.7335  141.0043  156.5626 H   0  0  0  0  0  0  0  0  0  0  0  0
  148.0085  142.7538  154.9583 H   0  0  0  0  0  0  0  0  0  0  0  0
  149.4026  142.4475  153.9498 H   0  0  0  0  0  0  0  0  0  0  0  0
  147.1301  140.4899  154.5304 H   0  0  0  0  0  0  0  0  0  0  0  0
  147.4358  141.2975  153.0113 H   0  0  0  0  0  0  0  0  0  0  0  0
  148.2749  138.9448  152.9765 H   0  0  0  0  0  0  0  0  0  0  0  0
  149.5745  140.0882  152.7382 H   0  0  0  0  0  0  0  0  0  0  0  0
  148.8592  138.6929  155.3544 H   0  0  0  0  0  0  0  0  0  0  0  0
  152.3255  137.3538  154.7300 H   0  0  0  0  0  0  0  0  0  0  0  0
  151.5340  138.3297  155.9590 H   0  0  0  0  0  0  0  0  0  0  0  0
  151.1710  140.6193  154.7735 H   0  0  0  0  0  0  0  0  0  0  0  0
  150.8734  139.8336  156.3050 H   0  0  0  0  0  0  0  0  0  0  0  0
  1  2  2  0  0  0  0
  2  3  1  0  0  0  0
  2 11  1  0  0  0  0
  3  4  1  0  0  0  0
  3 24  1  0  0  0  0
  3 25  1  0  0  0  0
  4  9  1  0  0  0  0
  4  5  1  0  0  0  0
  5  6  2  0  0  0  0
  5 26  1  0  0  0  0
  6  7  1  0  0  0  0
  6 27  1  0  0  0  0
  7  8  2  0  0  0  0
  7 28  1  0  0  0  0
  8  9  1  0  0  0  0
  8 29  1  0  0  0  0
  9 10  2  0  0  0  0
 11 12  1  0  0  0  0
 11 30  1  0  0  0  0
 12 23  1  0  0  0  0
 12 13  1  0  0  0  0
 12 31  1  0  0  0  0
 13 14  1  0  0  0  0
 13 32  1  0  0  0  0
 13 33  1  0  0  0  0
 14 15  1  0  0  0  0
 14 34  1  0  0  0  0
 14 35  1  0  0  0  0
 15 16  1  0  0  0  0
 15 36  1  0  0  0  0
 15 37  1  0  0  0  0
 16 17  1  0  0  0  0
 16 23  1  0  0  0  0
 16 38  1  0  0  0  0
 17 18  1  0  0  0  0
 18 19  1  0  0  0  0
 18 39  1  0  0  0  0
 18 40  1  0  0  0  0
 19 20  1  0  0  0  0
 19 21  1  0  0  0  0
 19 22  1  0  0  0  0
 23 41  1  0  0  0  0
 23 42  1  0  0  0  0
M  END
> <s_m_source_file>
AV-unprocessed.smi

> <i_m_source_file_index>
1376

> <i_lp_mmshare_version>
43012

> <i_f3d_flags>
0

> <s_epik_input>
Tz1jMVtjSF1bY0hdW2NIXVtjSF1uMVtDSDJdQyg9TylbTkhdW0NAQEhdMltDSDJdW0NIMl1bQ0gyXVtDQEhdKFtDSDJdMilPW0NIMl1DKEYpKEYpRg==

> <s_epik_cmdline>
J2VwaWtfcHl0aG9uJywgJy1waCcsICc3LjAnLCAnLXRuJywgJzgnLCAnLW1hJywgJzIwMCcsICctbWV0YWxfYmluZGluZycsICctaW1hZScsICc8aW5maWxlLm1hZT4nLCAnLW9tYWUnLCAnPG91dGZpbGUubWFlPic=

> <r_lp_tautomer_probability>
1

> <r_epik_Ionization_Penalty>
4.08567e-07

> <r_epik_Ionization_Penalty_Charging>
3.90028e-07

> <r_epik_Ionization_Penalty_Neutral>
1.85393e-08

> <r_epik_State_Penalty>
-0

> <r_epik_Charging_Adjusted_Penalty>
3.90028e-07

> <i_epik_Tot_Q>
0

> <i_epik_Tot_abs_Q>
0

> <r_epik_Metal_State_Penalty>
-0

> <b_epik_Metal_Only>
0

> <s_lp_Force_Field>
OPLS_2005

> <r_lp_Energy>
18.2113

> <b_lp_Chiralities_Consistent>
1

> <s_lp_Variant>
AV-unprocessed.smi:1376-2

> <Gold.Version>
5.8.1

> <Gold.Id.Protein>
6NUR|6NUR_protein|mol2

> <Gold.PLP.Fitness>
49.5377

> <Gold.PLP.PLP>
-47.9647

> <Gold.PLP.part.hbond>
-1.0000

> <Gold.PLP.part.metal>
0.0000

> <Gold.PLP.part.buried>
-0.2230

> <Gold.PLP.part.nonpolar>
-46.3077

> <Gold.PLP.part.repulsive>
0.4773

> <Gold.PLP.ligand.clash>
0.0000

> <Gold.PLP.ligand.torsion>
0.7262

> <Gold.PLP.Chemscore.Hbond>
0.9920

> <Gold.PLP.Chemscore.CHOScore>
0.0000

> <Gold.PLP.Chemscore.Metal>
0.0000

> <Gold.Chemscore.Hbonds>
donor molecule, donor type, donor heavy atom, donor atom, acceptor molecule, acceptor atom, score
      L1  H    11    30       P1  8028  1.00

> <Gold.PLP.Chemscore.Internal.Correction>
0.0495

> <Gold.Rescore>
     Score         DG    S(hbond)    S(metal)    S(lipo)     H(rot)  DE(clash)    DE(int)     intcor
     12.56     -15.26       1.00        0.00     102.79       2.18       0.49       2.21       ----

> <Gold.Chemscore.Fitness>
12.5551

> <Gold.Chemscore.DG>
-15.2619

> <Gold.Chemscore.ZeroCoef>
-5.4800

> <Gold.Chemscore.Hbond>
0.9985

> <Gold.Chemscore.Metal>
0.0000

> <Gold.Chemscore.Lipo>
102.7949

> <Gold.Chemscore.Internal_Hbond>
0.0000

> <Gold.Chemscore.DEClash>
0.4930

> <Gold.Chemscore.DEInternal>
2.2138

> <Gold.Chemscore.Rot>
2.1797

> <Gold.Chemscore.Internal.Correction>
   9.000000E+99

> <Gold.Chemscore.Hbonds>
donor molecule, donor type, donor heavy atom, donor atom, acceptor molecule, acceptor atom, score
      L1  H    11    30       P1  8028  0.95

> <Gold.Chemscore.Hbond.Weighted>
-3.3351

> <Gold.Chemscore.Metal.Weighted>
-0.0000

> <Gold.Chemscore.Lipo.Weighted>
-12.0270

> <Gold.Chemscore.Internal_Hbond.Weighted>
0.0000

> <Gold.Chemscore.DEClash.Weighted>
0.4930

> <Gold.Chemscore.DEInternal.Weighted>
2.2138

> <Gold.Chemscore.Rot.Weighted>
5.5802

> <Gold.Chemscore.Internal.Correction.Weighted>
   9.000000E+99

> <Gold.Protein.RotatedTorsions>
[ 6907 6896 6895 6894 ] final   -8.94 input  -60.11 | X-H torsion
[ 7974 7965 7964 7962 ] final   -3.76 input  175.53 | X-H torsion
[ 8008 7997 7996 7995 ] final -174.78 input   59.86 | X-H torsion
[ 10167 10162 10161 10158 ] final  -60.01 input  -65.29 | X-H torsion
[ 10718 10713 10712 10709 ] final   28.58 input   66.30 | X-H torsion
[ 10763 10752 10751 10750 ] final   55.77 input  -60.55 | X-H torsion
[ 11005 11000 10999 10996 ] final  173.42 input  -57.11 | X-H torsion

> <Gold.Protein.ActiveResidues>
 VAL166  LYS551  ARG553  GLY616  TRP617  ASP618  TYR619  PRO620  LYS621  CYS622 
 ASP623  PHE694  ASN695  SER759  ASP760  ASP761  ALA762  ILE779  LEU786  VAL792 
 PHE793  MET794  SER795  GLU796  ALA797  LYS798  CYS799  TRP800  GLU811  SER814 

> <Gold.Protein.RotatedAtoms>
  151.4256  135.1003  159.9626 H   0  0  0  0  0  0  0  0  0  0  0  0  # atno 6907 bound_to 6896
  152.4973  133.8666  159.7287 H   0  0  0  0  0  0  0  0  0  0  0  0  # atno 6908 bound_to 6896
  150.9192  133.6844  159.2864 H   0  0  0  0  0  0  0  0  0  0  0  0  # atno 6909 bound_to 6896
  146.2384  140.1769  142.8332 H   0  0  0  0  0  0  0  0  0  0  0  0  # atno 7974 bound_to 7965
  155.9744  140.1169  157.0783 H   0  0  0  0  0  0  0  0  0  0  0  0  # atno 8008 bound_to 7997
  154.4165  140.1157  156.5417 H   0  0  0  0  0  0  0  0  0  0  0  0  # atno 8009 bound_to 7997
  155.6554  140.3473  155.4765 H   0  0  0  0  0  0  0  0  0  0  0  0  # atno 8010 bound_to 7997
  140.6099  143.2384  151.5734 H   0  0  0  0  0  0  0  0  0  0  0  0  # atno 10167 bound_to 10162
  157.2353  130.7043  149.6333 H   0  0  0  0  0  0  0  0  0  0  0  0  # atno 10718 bound_to 10713
  152.9821  135.5699  154.5120 H   0  0  0  0  0  0  0  0  0  0  0  0  # atno 10763 bound_to 10752
  154.4622  135.2782  155.1706 H   0  0  0  0  0  0  0  0  0  0  0  0  # atno 10764 bound_to 10752
  154.3289  135.6253  153.5595 H   0  0  0  0  0  0  0  0  0  0  0  0  # atno 10765 bound_to 10752
  140.3403  134.7282  157.4198 H   0  0  0  0  0  0  0  0  0  0  0  0  # atno 11005 bound_to 11000
  144.9966  140.8594  143.5307 LP  0  0  0  0  0  0  0  0  0  0  0  0  # atno 17320 bound_to 7965
  145.1782  139.2366  143.5306 LP  0  0  0  0  0  0  0  0  0  0  0  0  # atno 17321 bound_to 7965
  139.5353  144.2799  152.1238 LP  0  0  0  0  0  0  0  0  0  0  0  0  # atno 17342 bound_to 10162
  140.1996  144.4671  150.6438 LP  0  0  0  0  0  0  0  0  0  0  0  0  # atno 17343 bound_to 10162
  155.9673  130.4475  150.5584 LP  0  0  0  0  0  0  0  0  0  0  0  0  # atno 17370 bound_to 10713
  157.3435  131.0721  151.1769 LP  0  0  0  0  0  0  0  0  0  0  0  0  # atno 17371 bound_to 10713
  140.0786  134.5762  155.8564 LP  0  0  0  0  0  0  0  0  0  0  0  0  # atno 17394 bound_to 11000
  141.2040  133.6636  156.6096 LP  0  0  0  0  0  0  0  0  0  0  0  0  # atno 17395 bound_to 11000

$$$$
