AV-unprocessed.smi:2473|AV-procd|sdf|9749|dock4
  -GOLD-   2272013393D 1   1.00000     0.00000
 Structure written by MMmdl.
 47 48  0  0  0  0  0  0  0  0  1 V2000
  149.9099  141.0992  157.4142 C   0  0  0  0  0  0  0  0  0  0  0  0
  151.1860  141.6550  158.0621 C   0  0  2  0  0  0  0  0  0  0  0  0
  151.8804  140.5893  158.9267 C   0  0  0  0  0  0  0  0  0  0  0  0
  153.1680  141.1360  159.5740 C   0  0  2  0  0  0  0  0  0  0  0  0
  153.8354  140.0545  160.4335 C   0  0  0  0  0  0  0  0  0  0  0  0
  154.0730  140.2670  161.6228 O   0  0  0  0  0  0  0  0  0  0  0  0
  154.1031  138.8875  159.8252 N   0  0  0  0  0  0  0  0  0  0  0  0
  154.6110  137.6857  160.4823 C   0  0  0  0  0  0  0  0  0  0  0  0
  153.6727  137.1931  161.6018 C   0  0  0  0  0  0  0  0  0  0  0  0
  154.2662  136.1180  162.4649 C   0  0  0  0  0  0  0  0  0  0  0  0
  154.6018  134.9153  162.0084 N   0  0  0  0  0  0  0  0  0  0  0  0
  155.1423  134.2556  163.1065 C   0  0  0  0  0  0  0  0  0  0  0  0
  155.1096  135.0873  164.1993 C   0  0  0  0  0  0  0  0  0  0  0  0
  154.5432  136.2815  163.7745 N   0  0  0  0  0  0  0  0  0  0  0  0
  154.3149  137.4519  164.6007 C   0  0  0  0  0  0  0  0  0  0  0  0
  152.8516  142.3956  160.4109 C   0  0  0  0  0  0  0  0  0  0  0  0
  152.1342  143.5078  159.6052 C   0  0  0  0  0  0  0  0  0  0  0  0
  151.6758  144.6095  160.5809 C   0  0  0  0  0  0  0  0  0  0  0  0
  153.0922  144.1557  158.5814 C   0  0  0  0  0  0  0  0  0  0  0  0
  150.8873  142.9151  158.9011 C   0  0  0  0  0  0  0  0  0  0  0  0
  149.1822  140.7959  158.1674 H   0  0  0  0  0  0  0  0  0  0  0  0
  150.1311  140.2290  156.7957 H   0  0  0  0  0  0  0  0  0  0  0  0
  149.4371  141.8454  156.7751 H   0  0  0  0  0  0  0  0  0  0  0  0
  151.8616  141.9271  157.2510 H   0  0  0  0  0  0  0  0  0  0  0  0
  151.1904  140.2438  159.6988 H   0  0  0  0  0  0  0  0  0  0  0  0
  152.1139  139.7178  158.3143 H   0  0  0  0  0  0  0  0  0  0  0  0
  153.8630  141.4058  158.7779 H   0  0  0  0  0  0  0  0  0  0  0  0
  153.8820  138.8077  158.8432 H   0  0  0  0  0  0  0  0  0  0  0  0
  154.7223  136.9052  159.7297 H   0  0  0  0  0  0  0  0  0  0  0  0
  155.6097  137.8602  160.8858 H   0  0  0  0  0  0  0  0  0  0  0  0
  153.3659  138.0345  162.2231 H   0  0  0  0  0  0  0  0  0  0  0  0
  152.7557  136.8051  161.1575 H   0  0  0  0  0  0  0  0  0  0  0  0
  155.5097  133.2434  163.0260 H   0  0  0  0  0  0  0  0  0  0  0  0
  155.4363  134.9326  165.2170 H   0  0  0  0  0  0  0  0  0  0  0  0
  154.7290  137.2951  165.5969 H   0  0  0  0  0  0  0  0  0  0  0  0
  153.2445  137.6382  164.6888 H   0  0  0  0  0  0  0  0  0  0  0  0
  154.7964  138.3227  164.1565 H   0  0  0  0  0  0  0  0  0  0  0  0
  152.2205  142.1100  161.2547 H   0  0  0  0  0  0  0  0  0  0  0  0
  153.7705  142.7902  160.8474 H   0  0  0  0  0  0  0  0  0  0  0  0
  151.1574  145.4138  160.0577 H   0  0  0  0  0  0  0  0  0  0  0  0
  152.5224  145.0521  161.1069 H   0  0  0  0  0  0  0  0  0  0  0  0
  150.9922  144.2181  161.3354 H   0  0  0  0  0  0  0  0  0  0  0  0
  152.5967  144.9558  158.0304 H   0  0  0  0  0  0  0  0  0  0  0  0
  153.4659  143.4450  157.8461 H   0  0  0  0  0  0  0  0  0  0  0  0
  153.9603  144.5917  159.0766 H   0  0  0  0  0  0  0  0  0  0  0  0
  150.4229  143.6748  158.2708 H   0  0  0  0  0  0  0  0  0  0  0  0
  150.1410  142.6575  159.6544 H   0  0  0  0  0  0  0  0  0  0  0  0
  1  2  1  0  0  0  0
  1 21  1  0  0  0  0
  1 22  1  0  0  0  0
  1 23  1  0  0  0  0
  2 20  1  0  0  0  0
  2  3  1  0  0  0  0
  2 24  1  0  0  0  0
  3  4  1  0  0  0  0
  3 25  1  0  0  0  0
  3 26  1  0  0  0  0
  4  5  1  0  0  0  0
  4 16  1  0  0  0  0
  4 27  1  0  0  0  0
  5  6  2  0  0  0  0
  5  7  1  0  0  0  0
  7  8  1  0  0  0  0
  7 28  1  0  0  0  0
  8  9  1  0  0  0  0
  8 29  1  0  0  0  0
  8 30  1  0  0  0  0
  9 10  1  0  0  0  0
  9 31  1  0  0  0  0
  9 32  1  0  0  0  0
 10 14  1  0  0  0  0
 10 11  2  0  0  0  0
 11 12  1  0  0  0  0
 12 13  2  0  0  0  0
 12 33  1  0  0  0  0
 13 14  1  0  0  0  0
 13 34  1  0  0  0  0
 14 15  1  0  0  0  0
 15 35  1  0  0  0  0
 15 36  1  0  0  0  0
 15 37  1  0  0  0  0
 16 17  1  0  0  0  0
 16 38  1  0  0  0  0
 16 39  1  0  0  0  0
 17 18  1  0  0  0  0
 17 19  1  0  0  0  0
 17 20  1  0  0  0  0
 18 40  1  0  0  0  0
 18 41  1  0  0  0  0
 18 42  1  0  0  0  0
 19 43  1  0  0  0  0
 19 44  1  0  0  0  0
 19 45  1  0  0  0  0
 20 46  1  0  0  0  0
 20 47  1  0  0  0  0
M  END
> <s_m_source_file>
AV-unprocessed.smi

> <i_m_source_file_index>
2473

> <i_lp_mmshare_version>
43012

> <i_f3d_flags>
0

> <s_epik_input>
W0NIM11bQ0BASF0oW0NIMl0xKVtDSDJdW0NASF0oW0NIMl1DMShbQ0gzXSlbQ0gzXSlDKD1PKVtOSF1bQ0gyXVtDSDJdYzJuW2NIXVtjSF1uMltDSDNd

> <s_epik_cmdline>
J2VwaWtfcHl0aG9uJywgJy1waCcsICc3LjAnLCAnLXRuJywgJzgnLCAnLW1hJywgJzIwMCcsICctbWV0YWxfYmluZGluZycsICctaW1hZScsICc8aW5maWxlLm1hZT4nLCAnLW9tYWUnLCAnPG91dGZpbGUubWFlPic=

> <r_lp_tautomer_probability>
1

> <r_epik_Ionization_Penalty>
1.22858

> <r_epik_Ionization_Penalty_Charging>
1.22858

> <r_epik_Ionization_Penalty_Neutral>
2.12671e-08

> <r_epik_State_Penalty>
1.2965

> <r_epik_Charging_Adjusted_Penalty>
2.52508

> <i_epik_Tot_Q>
0

> <i_epik_Tot_abs_Q>
0

> <r_epik_Metal_State_Penalty>
0.411461

> <b_epik_Metal_Only>
0

> <s_lp_Force_Field>
OPLS_2005

> <r_lp_Energy>
12.8127

> <b_lp_Chiralities_Consistent>
1

> <s_lp_Variant>
AV-unprocessed.smi:2473-7

> <Gold.Version>
5.8.1

> <Gold.Id.Protein>
6NUR|6NUR_protein|mol2

> <Gold.PLP.Fitness>
42.8625

> <Gold.PLP.PLP>
-43.0046

> <Gold.PLP.part.hbond>
0.0000

> <Gold.PLP.part.metal>
0.0000

> <Gold.PLP.part.buried>
-6.0155

> <Gold.PLP.part.nonpolar>
-37.5934

> <Gold.PLP.part.repulsive>
0.0568

> <Gold.PLP.ligand.clash>
0.0000

> <Gold.PLP.ligand.torsion>
0.0790

> <Gold.PLP.Chemscore.Hbond>
0.0000

> <Gold.PLP.Chemscore.CHOScore>
0.0000

> <Gold.PLP.Chemscore.Metal>
0.0000

> <Gold.PLP.Chemscore.Internal.Correction>
0.0160

> <Gold.Rescore>
     Score         DG    S(hbond)    S(metal)    S(lipo)     H(rot)  DE(clash)    DE(int)     intcor
     15.32     -15.40       0.00        0.00     117.87       1.51       0.04       0.04       ----

> <Gold.Chemscore.Fitness>
15.3225

> <Gold.Chemscore.DG>
-15.4029

> <Gold.Chemscore.ZeroCoef>
-5.4800

> <Gold.Chemscore.Hbond>
0.0000

> <Gold.Chemscore.Metal>
0.0000

> <Gold.Chemscore.Lipo>
117.8704

> <Gold.Chemscore.Internal_Hbond>
0.0000

> <Gold.Chemscore.DEClash>
0.0411

> <Gold.Chemscore.DEInternal>
0.0393

> <Gold.Chemscore.Rot>
1.5109

> <Gold.Chemscore.Internal.Correction>
   9.000000E+99

> <Gold.Chemscore.Hbond.Weighted>
-0.0000

> <Gold.Chemscore.Metal.Weighted>
-0.0000

> <Gold.Chemscore.Lipo.Weighted>
-13.7908

> <Gold.Chemscore.Internal_Hbond.Weighted>
0.0000

> <Gold.Chemscore.DEClash.Weighted>
0.0411

> <Gold.Chemscore.DEInternal.Weighted>
0.0393

> <Gold.Chemscore.Rot.Weighted>
3.8680

> <Gold.Chemscore.Internal.Correction.Weighted>
   9.000000E+99

> <Gold.Protein.RotatedTorsions>
[ 6907 6896 6895 6894 ] final  -86.83 input  -60.11 | X-H torsion
[ 7974 7965 7964 7962 ] final -163.38 input  175.53 | X-H torsion
[ 8008 7997 7996 7995 ] final -113.11 input   59.86 | X-H torsion
[ 10167 10162 10161 10158 ] final  -84.98 input  -65.29 | X-H torsion
[ 10718 10713 10712 10709 ] final   50.83 input   66.30 | X-H torsion
[ 10763 10752 10751 10750 ] final  132.10 input  -60.55 | X-H torsion
[ 11005 11000 10999 10996 ] final  134.14 input  -57.11 | X-H torsion

> <Gold.Protein.ActiveResidues>
 VAL166  LYS551  ARG553  GLY616  TRP617  ASP618  TYR619  PRO620  LYS621  CYS622 
 ASP623  PHE694  ASN695  SER759  ASP760  ASP761  ALA762  ILE779  LEU786  VAL792 
 PHE793  MET794  SER795  GLU796  ALA797  LYS798  CYS799  TRP800  GLU811  SER814 

> <Gold.Protein.RotatedAtoms>
  150.6866  134.2990  159.4698 H   0  0  0  0  0  0  0  0  0  0  0  0  # atno 6907 bound_to 6896
  152.0887  134.9419  160.0581 H   0  0  0  0  0  0  0  0  0  0  0  0  # atno 6908 bound_to 6896
  152.0743  133.4087  159.4510 H   0  0  0  0  0  0  0  0  0  0  0  0  # atno 6909 bound_to 6896
  144.7328  140.3115  143.6187 H   0  0  0  0  0  0  0  0  0  0  0  0  # atno 7974 bound_to 7965
  155.0156  140.0393  157.2417 H   0  0  0  0  0  0  0  0  0  0  0  0  # atno 8008 bound_to 7997
  154.7422  140.2751  155.6340 H   0  0  0  0  0  0  0  0  0  0  0  0  # atno 8009 bound_to 7997
  156.2867  140.2663  156.2153 H   0  0  0  0  0  0  0  0  0  0  0  0  # atno 8010 bound_to 7997
  140.4081  143.2634  151.9054 H   0  0  0  0  0  0  0  0  0  0  0  0  # atno 10167 bound_to 10162
  157.4922  130.8383  149.8216 H   0  0  0  0  0  0  0  0  0  0  0  0  # atno 10718 bound_to 10713
  153.7852  135.3163  155.3371 H   0  0  0  0  0  0  0  0  0  0  0  0  # atno 10763 bound_to 10752
  154.8146  135.4644  154.0612 H   0  0  0  0  0  0  0  0  0  0  0  0  # atno 10764 bound_to 10752
  153.1913  135.6909  153.8435 H   0  0  0  0  0  0  0  0  0  0  0  0  # atno 10765 bound_to 10752
  139.9896  134.9520  156.9825 H   0  0  0  0  0  0  0  0  0  0  0  0  # atno 11005 bound_to 11000
  145.7660  139.1840  143.2240 LP  0  0  0  0  0  0  0  0  0  0  0  0  # atno 17320 bound_to 7965
  146.0949  140.7612  142.9577 LP  0  0  0  0  0  0  0  0  0  0  0  0  # atno 17321 bound_to 7965
  139.4783  144.5565  151.8305 LP  0  0  0  0  0  0  0  0  0  0  0  0  # atno 17342 bound_to 10162
  140.4667  144.1644  150.5912 LP  0  0  0  0  0  0  0  0  0  0  0  0  # atno 17343 bound_to 10162
  156.0180  130.3806  150.2050 LP  0  0  0  0  0  0  0  0  0  0  0  0  # atno 17370 bound_to 10713
  157.0239  130.9987  151.3332 LP  0  0  0  0  0  0  0  0  0  0  0  0  # atno 17371 bound_to 10713
  140.4934  134.1170  155.7237 LP  0  0  0  0  0  0  0  0  0  0  0  0  # atno 17394 bound_to 11000
  141.1554  133.8891  157.1990 LP  0  0  0  0  0  0  0  0  0  0  0  0  # atno 17395 bound_to 11000

$$$$
