AV-unprocessed.smi:276|AV-procd|sdf|2079|dock3
  -GOLD-   2262021343D 1   1.00000     0.00000
 Structure written by MMmdl.
 57 61  0  0  0  0  0  0  0  0  1 V2000
  151.5376  143.4717  158.0803 C   0  0  0  0  0  0  0  0  0  0  0  0
  151.7997  142.1567  157.6211 O   0  0  0  0  0  0  0  0  0  0  0  0
  150.6742  141.2988  157.7290 C   0  0  1  0  0  0  0  0  0  0  0  0
  149.4892  141.8022  156.9003 C   0  0  0  0  0  0  0  0  0  0  0  0
  149.1757  140.3314  156.5987 C   0  0  1  0  0  0  0  0  0  0  0  0
  148.6587  140.1209  155.2442 N   0  0  0  0  0  0  0  0  0  0  0  0
  148.1004  141.2939  154.5838 C   0  0  0  0  0  0  0  0  0  0  0  0
  147.8381  139.0592  155.0767 C   0  0  0  0  0  0  0  0  0  0  0  0
  147.5853  138.3007  156.1727 N   0  0  0  0  0  0  0  0  0  0  0  0
  146.7780  137.2399  156.0823 C   0  0  0  0  0  0  0  0  0  0  0  0
  146.1396  136.7655  155.0108 N   0  0  0  0  0  0  0  0  0  0  0  0
  146.4105  137.5125  153.9026 C   0  0  0  0  0  0  0  0  0  0  0  0
  147.2459  138.6634  153.8427 C   0  0  0  0  0  0  0  0  0  0  0  0
  147.2921  139.1435  152.5386 N   0  0  0  0  0  0  0  0  0  0  0  0
  146.5183  138.3324  151.8706 C   0  0  0  0  0  0  0  0  0  0  0  0
  145.9490  137.3235  152.6129 N   0  0  0  0  0  0  0  0  0  0  0  0
  145.0585  136.2815  152.1342 C   0  0  0  0  0  0  0  0  0  0  0  0
  145.7172  135.3965  151.0579 C   0  0  2  0  0  0  0  0  0  0  0  0
  145.2179  135.7627  149.7853 O   0  0  0  0  0  0  0  0  0  0  0  0
  145.4464  133.8984  151.2883 C   0  0  1  0  0  0  0  0  0  0  0  0
  143.9938  133.4751  151.0700 C   0  0  0  0  0  0  0  0  0  0  0  0
  144.1027  131.9906  150.7635 C   0  0  0  0  0  0  0  0  0  0  0  0
  145.5653  131.8039  150.3499 C   0  0  0  0  0  0  0  0  0  0  0  0
  146.1205  133.1123  150.3174 O   0  0  0  0  0  0  0  0  0  0  0  0
  150.6857  140.0490  156.8217 C   0  0  0  0  0  0  0  0  0  0  0  0
  151.1782  138.6965  157.3547 C   0  0  0  0  0  0  0  0  0  0  0  0
  151.8571  138.4361  156.0060 C   0  0  0  0  0  0  0  0  0  0  0  0
  151.6975  139.9214  155.6645 C   0  0  0  0  0  0  0  0  0  0  0  0
  152.4295  144.0858  157.9569 H   0  0  0  0  0  0  0  0  0  0  0  0
  151.2702  143.4810  159.1369 H   0  0  0  0  0  0  0  0  0  0  0  0
  150.7300  143.9339  157.5112 H   0  0  0  0  0  0  0  0  0  0  0  0
  150.3800  141.0819  158.7585 H   0  0  0  0  0  0  0  0  0  0  0  0
  148.7218  142.3256  157.4707 H   0  0  0  0  0  0  0  0  0  0  0  0
  149.7980  142.3705  156.0206 H   0  0  0  0  0  0  0  0  0  0  0  0
  148.5553  139.9029  157.3871 H   0  0  0  0  0  0  0  0  0  0  0  0
  147.2274  141.6620  155.1245 H   0  0  0  0  0  0  0  0  0  0  0  0
  147.8003  141.0659  153.5598 H   0  0  0  0  0  0  0  0  0  0  0  0
  148.8357  142.0973  154.5388 H   0  0  0  0  0  0  0  0  0  0  0  0
  146.6199  136.6935  157.0004 H   0  0  0  0  0  0  0  0  0  0  0  0
  146.3457  138.4448  150.8102 H   0  0  0  0  0  0  0  0  0  0  0  0
  144.7583  135.6763  152.9903 H   0  0  0  0  0  0  0  0  0  0  0  0
  144.1505  136.7459  151.7471 H   0  0  0  0  0  0  0  0  0  0  0  0
  146.7941  135.5707  151.0586 H   0  0  0  0  0  0  0  0  0  0  0  0
  145.7929  135.4089  149.1241 H   0  0  0  0  0  0  0  0  0  0  0  0
  145.7794  133.5946  152.2829 H   0  0  0  0  0  0  0  0  0  0  0  0
  143.3575  133.6847  151.9303 H   0  0  0  0  0  0  0  0  0  0  0  0
  143.5756  133.9955  150.2071 H   0  0  0  0  0  0  0  0  0  0  0  0
  143.8776  131.3898  151.6454 H   0  0  0  0  0  0  0  0  0  0  0  0
  143.4123  131.6983  149.9717 H   0  0  0  0  0  0  0  0  0  0  0  0
  146.0993  131.2031  151.0873 H   0  0  0  0  0  0  0  0  0  0  0  0
  145.6652  131.3180  149.3791 H   0  0  0  0  0  0  0  0  0  0  0  0
  151.8926  138.7970  158.1723 H   0  0  0  0  0  0  0  0  0  0  0  0
  150.3875  137.9891  157.6034 H   0  0  0  0  0  0  0  0  0  0  0  0
  152.8924  138.1025  156.0816 H   0  0  0  0  0  0  0  0  0  0  0  0
  151.2738  137.7826  155.3571 H   0  0  0  0  0  0  0  0  0  0  0  0
  151.3026  140.1173  154.6683 H   0  0  0  0  0  0  0  0  0  0  0  0
  152.6197  140.4783  155.8313 H   0  0  0  0  0  0  0  0  0  0  0  0
  1  2  1  0  0  0  0
  1 29  1  0  0  0  0
  1 30  1  0  0  0  0
  1 31  1  0  0  0  0
  2  3  1  0  0  0  0
  3 25  1  0  0  0  0
  3  4  1  0  0  0  0
  3 32  1  0  0  0  0
  4  5  1  0  0  0  0
  4 33  1  0  0  0  0
  4 34  1  0  0  0  0
  5  6  1  0  0  0  0
  5 25  1  0  0  0  0
  5 35  1  0  0  0  0
  6  7  1  0  0  0  0
  6  8  1  0  0  0  0
  7 36  1  0  0  0  0
  7 37  1  0  0  0  0
  7 38  1  0  0  0  0
  8 13  1  0  0  0  0
  8  9  2  0  0  0  0
  9 10  1  0  0  0  0
 10 11  2  0  0  0  0
 10 39  1  0  0  0  0
 11 12  1  0  0  0  0
 12 16  1  0  0  0  0
 12 13  2  0  0  0  0
 13 14  1  0  0  0  0
 14 15  2  0  0  0  0
 15 16  1  0  0  0  0
 15 40  1  0  0  0  0
 16 17  1  0  0  0  0
 17 18  1  0  0  0  0
 17 41  1  0  0  0  0
 17 42  1  0  0  0  0
 18 19  1  0  0  0  0
 18 20  1  0  0  0  0
 18 43  1  0  0  0  0
 19 44  1  0  0  0  0
 20 24  1  0  0  0  0
 20 21  1  0  0  0  0
 20 45  1  0  0  0  0
 21 22  1  0  0  0  0
 21 46  1  0  0  0  0
 21 47  1  0  0  0  0
 22 23  1  0  0  0  0
 22 48  1  0  0  0  0
 22 49  1  0  0  0  0
 23 24  1  0  0  0  0
 23 50  1  0  0  0  0
 23 51  1  0  0  0  0
 25 28  1  0  0  0  0
 25 26  1  0  0  0  0
 26 27  1  0  0  0  0
 26 52  1  0  0  0  0
 26 53  1  0  0  0  0
 27 28  1  0  0  0  0
 27 54  1  0  0  0  0
 27 55  1  0  0  0  0
 28 56  1  0  0  0  0
 28 57  1  0  0  0  0
M  END
> <s_m_source_file>
AV-unprocessed.smi

> <i_m_source_file_index>
276

> <i_lp_mmshare_version>
43012

> <i_f3d_flags>
0

> <s_epik_input>
W0NIMl0xW0NIMl1bQ0gyXUMxMltDQEhdKE9bQ0gzXSlbQ0gyXVtDQEhdMk4oW0NIM10pYyhuW2NIXW4zKWMoYzM0KW5bY0hdbjRbQ0gyXVtDQEhdKFtPSF0pW0NAQEhdNVtDSDJdW0NIMl1bQ0gyXU81

> <s_epik_cmdline>
J2VwaWtfcHl0aG9uJywgJy1waCcsICc3LjAnLCAnLXRuJywgJzgnLCAnLW1hJywgJzIwMCcsICctbWV0YWxfYmluZGluZycsICctaW1hZScsICc8aW5maWxlLm1hZT4nLCAnLW9tYWUnLCAnPG91dGZpbGUubWFlPic=

> <r_lp_tautomer_probability>
1

> <r_epik_Ionization_Penalty>
0.00204117

> <r_epik_Ionization_Penalty_Charging>
0

> <r_epik_Ionization_Penalty_Neutral>
0.00204117

> <r_epik_State_Penalty>
0.00127401

> <r_epik_Charging_Adjusted_Penalty>
0.00127401

> <i_epik_Tot_Q>
0

> <i_epik_Tot_abs_Q>
0

> <r_epik_Metal_State_Penalty>
-0

> <b_epik_Metal_Only>
0

> <s_lp_Force_Field>
OPLS_2005

> <r_lp_Energy>
54.7762

> <b_lp_Chiralities_Consistent>
1

> <s_lp_Variant>
AV-unprocessed.smi:276-10

> <Gold.Version>
5.8.1

> <Gold.Id.Protein>
6NUR|6NUR_protein|mol2

> <Gold.PLP.Fitness>
41.6081

> <Gold.PLP.PLP>
-39.3108

> <Gold.PLP.part.hbond>
-2.0000

> <Gold.PLP.part.metal>
0.0000

> <Gold.PLP.part.buried>
-6.8195

> <Gold.PLP.part.nonpolar>
-33.2327

> <Gold.PLP.part.repulsive>
2.3664

> <Gold.PLP.ligand.clash>
0.0605

> <Gold.PLP.ligand.torsion>
2.1049

> <Gold.PLP.Chemscore.Hbond>
1.0000

> <Gold.PLP.Chemscore.CHOScore>
0.9512

> <Gold.PLP.Chemscore.Metal>
0.0000

> <Gold.Chemscore.Hbonds>
donor molecule, donor type, donor heavy atom, donor atom, acceptor molecule, acceptor atom, score
      L1  H    19    44       P1  7921  1.00
      L1  C    15    40       P1 10171  0.58

> <Gold.PLP.Chemscore.Internal.Correction>
0.7142

> <Gold.Rescore>
     Score         DG    S(hbond)    S(metal)    S(lipo)     H(rot)  DE(clash)    DE(int)     intcor
     11.19     -13.32       1.00        0.00      98.04       2.72       0.19       1.93       ----

> <Gold.Chemscore.Fitness>
11.1944

> <Gold.Chemscore.DG>
-13.3185

> <Gold.Chemscore.ZeroCoef>
-5.4800

> <Gold.Chemscore.Hbond>
0.9951

> <Gold.Chemscore.Metal>
0.0000

> <Gold.Chemscore.Lipo>
98.0427

> <Gold.Chemscore.Internal_Hbond>
0.0000

> <Gold.Chemscore.DEClash>
0.1909

> <Gold.Chemscore.DEInternal>
1.9332

> <Gold.Chemscore.Rot>
2.7172

> <Gold.Chemscore.Internal.Correction>
   9.000000E+99

> <Gold.Chemscore.Hbonds>
donor molecule, donor type, donor heavy atom, donor atom, acceptor molecule, acceptor atom, score
      L1  H    19    44       P1  7921  0.97

> <Gold.Chemscore.Hbond.Weighted>
-3.3235

> <Gold.Chemscore.Metal.Weighted>
-0.0000

> <Gold.Chemscore.Lipo.Weighted>
-11.4710

> <Gold.Chemscore.Internal_Hbond.Weighted>
0.0000

> <Gold.Chemscore.DEClash.Weighted>
0.1909

> <Gold.Chemscore.DEInternal.Weighted>
1.9332

> <Gold.Chemscore.Rot.Weighted>
6.9560

> <Gold.Chemscore.Internal.Correction.Weighted>
   9.000000E+99

> <Gold.Protein.RotatedTorsions>
[ 6907 6896 6895 6894 ] final  -34.70 input  -60.11 | X-H torsion
[ 7974 7965 7964 7962 ] final    6.43 input  175.53 | X-H torsion
[ 8008 7997 7996 7995 ] final  -34.49 input   59.86 | X-H torsion
[ 10167 10162 10161 10158 ] final  -53.40 input  -65.29 | X-H torsion
[ 10718 10713 10712 10709 ] final -138.27 input   66.30 | X-H torsion
[ 10763 10752 10751 10750 ] final   32.81 input  -60.55 | X-H torsion
[ 11005 11000 10999 10996 ] final  134.40 input  -57.11 | X-H torsion

> <Gold.Protein.ActiveResidues>
 VAL166  LYS551  ARG553  GLY616  TRP617  ASP618  TYR619  PRO620  LYS621  CYS622 
 ASP623  PHE694  ASN695  SER759  ASP760  ASP761  ALA762  ILE779  LEU786  VAL792 
 PHE793  MET794  SER795  GLU796  ALA797  LYS798  CYS799  TRP800  GLU811  SER814 

> <Gold.Protein.RotatedAtoms>
  151.0493  134.9662  159.8202 H   0  0  0  0  0  0  0  0  0  0  0  0  # atno 6907 bound_to 6896
  152.5378  134.2558  159.8926 H   0  0  0  0  0  0  0  0  0  0  0  0  # atno 6908 bound_to 6896
  151.2573  133.4277  159.2648 H   0  0  0  0  0  0  0  0  0  0  0  0  # atno 6909 bound_to 6896
  146.2435  140.0234  142.8396 H   0  0  0  0  0  0  0  0  0  0  0  0  # atno 7974 bound_to 7965
  154.4119  140.1682  156.2058 H   0  0  0  0  0  0  0  0  0  0  0  0  # atno 8008 bound_to 7997
  155.9486  140.3402  155.6365 H   0  0  0  0  0  0  0  0  0  0  0  0  # atno 8009 bound_to 7997
  155.6899  140.0732  157.2443 H   0  0  0  0  0  0  0  0  0  0  0  0  # atno 8010 bound_to 7997
  140.6487  143.2552  151.4786 H   0  0  0  0  0  0  0  0  0  0  0  0  # atno 10167 bound_to 10162
  156.2975  130.7410  151.1453 H   0  0  0  0  0  0  0  0  0  0  0  0  # atno 10718 bound_to 10713
  153.0243  135.6403  154.1413 H   0  0  0  0  0  0  0  0  0  0  0  0  # atno 10763 bound_to 10752
  154.1144  135.2851  155.3225 H   0  0  0  0  0  0  0  0  0  0  0  0  # atno 10764 bound_to 10752
  154.6309  135.5493  153.7741 H   0  0  0  0  0  0  0  0  0  0  0  0  # atno 10765 bound_to 10752
  139.9912  134.9514  156.9861 H   0  0  0  0  0  0  0  0  0  0  0  0  # atno 11005 bound_to 11000
  145.1220  140.9468  143.4595 LP  0  0  0  0  0  0  0  0  0  0  0  0  # atno 17320 bound_to 7965
  145.0472  139.3211  143.5947 LP  0  0  0  0  0  0  0  0  0  0  0  0  # atno 17321 bound_to 7965
  139.5700  144.1952  152.1822 LP  0  0  0  0  0  0  0  0  0  0  0  0  # atno 17342 bound_to 10162
  140.1245  144.5344  150.6841 LP  0  0  0  0  0  0  0  0  0  0  0  0  # atno 17343 bound_to 10162
  157.7359  131.0567  150.5443 LP  0  0  0  0  0  0  0  0  0  0  0  0  # atno 17370 bound_to 10713
  156.5566  130.4245  149.6082 LP  0  0  0  0  0  0  0  0  0  0  0  0  # atno 17371 bound_to 10713
  140.4904  134.1199  155.7232 LP  0  0  0  0  0  0  0  0  0  0  0  0  # atno 17394 bound_to 11000
  141.1568  133.8868  157.1956 LP  0  0  0  0  0  0  0  0  0  0  0  0  # atno 17395 bound_to 11000

$$$$
