AV-unprocessed.smi:1157|AV-procd|sdf|4906|dock10
  -GOLD-   22720 3483D 1   1.00000     0.00000
 Structure written by MMmdl.
 54 56  0  0  0  0  0  0  0  0  1 V2000
  149.2962  134.2450  156.5815 C   0  0  0  0  0  0  0  0  0  0  0  0
  149.3226  133.6860  155.1358 C   0  0  0  0  0  0  0  0  0  0  0  0
  147.9753  134.0625  154.4736 C   0  0  0  0  0  0  0  0  0  0  0  0
  150.4388  134.4696  154.3878 C   0  0  0  0  0  0  0  0  0  0  0  0
  150.2354  135.9136  154.4512 N   0  0  0  0  0  0  0  0  0  0  0  0
  150.8420  136.7297  155.3214 C   0  0  0  0  0  0  0  0  0  0  0  0
  151.6516  136.3410  156.1632 O   0  0  0  0  0  0  0  0  0  0  0  0
  150.4334  137.9998  155.1616 N   0  0  0  0  0  0  0  0  0  0  0  0
  150.8430  139.1547  155.8803 C   0  0  0  0  0  0  0  0  0  0  0  0
  150.5033  140.4788  155.5183 C   0  0  0  0  0  0  0  0  0  0  0  0
  150.9556  141.5429  156.3219 C   0  0  0  0  0  0  0  0  0  0  0  0
  151.7327  141.2594  157.4699 C   0  0  0  0  0  0  0  0  0  0  0  0
  152.2033  142.2962  158.2998 N   0  0  0  0  0  0  0  0  0  0  0  0
  151.5884  143.6147  158.3018 C   0  0  0  0  0  0  0  0  0  0  0  0
  152.2942  144.3682  159.4278 C   0  0  0  0  0  0  0  0  0  0  0  0
  152.6072  143.2656  160.4393 C   0  0  0  0  0  0  0  0  0  0  0  0
  152.8498  142.0220  159.5759 C   0  0  0  0  0  0  0  0  0  0  0  0
  152.0385  139.9889  157.8260 N   0  0  0  0  0  0  0  0  0  0  0  0
  151.6019  138.9725  157.0533 C   0  0  0  0  0  0  0  0  0  0  0  0
  149.5852  132.2192  155.1331 N   0  0  0  0  0  0  0  0  0  0  0  0
  150.9393  131.8346  155.5492 C   0  0  0  0  0  0  0  0  0  0  0  0
  151.1032  130.3084  155.6445 C   0  0  0  0  0  0  0  0  0  0  0  0
  150.7783  129.7133  154.3941 O   0  0  0  0  0  0  0  0  0  0  0  0
  149.4509  130.0124  153.9797 C   0  0  0  0  0  0  0  0  0  0  0  0
  149.2710  131.5363  153.8727 C   0  0  0  0  0  0  0  0  0  0  0  0
  149.2747  135.3355  156.5885 H   0  0  0  0  0  0  0  0  0  0  0  0
  150.1731  133.9343  157.1506 H   0  0  0  0  0  0  0  0  0  0  0  0
  148.4133  133.9227  157.1334 H   0  0  0  0  0  0  0  0  0  0  0  0
  147.8136  135.1407  154.5033 H   0  0  0  0  0  0  0  0  0  0  0  0
  147.1250  133.6048  154.9787 H   0  0  0  0  0  0  0  0  0  0  0  0
  147.9354  133.7692  153.4247 H   0  0  0  0  0  0  0  0  0  0  0  0
  151.4257  134.2321  154.7864 H   0  0  0  0  0  0  0  0  0  0  0  0
  150.4726  134.1642  153.3402 H   0  0  0  0  0  0  0  0  0  0  0  0
  149.5774  136.3089  153.7953 H   0  0  0  0  0  0  0  0  0  0  0  0
  149.6971  138.1479  154.4869 H   0  0  0  0  0  0  0  0  0  0  0  0
  149.8953  140.6989  154.6548 H   0  0  0  0  0  0  0  0  0  0  0  0
  150.6922  142.5549  156.0528 H   0  0  0  0  0  0  0  0  0  0  0  0
  151.7094  144.1179  157.3418 H   0  0  0  0  0  0  0  0  0  0  0  0
  150.5220  143.5196  158.5115 H   0  0  0  0  0  0  0  0  0  0  0  0
  153.2237  144.8019  159.0563 H   0  0  0  0  0  0  0  0  0  0  0  0
  151.6883  145.1728  159.8449 H   0  0  0  0  0  0  0  0  0  0  0  0
  153.4543  143.5057  161.0823 H   0  0  0  0  0  0  0  0  0  0  0  0
  151.7383  143.1021  161.0780 H   0  0  0  0  0  0  0  0  0  0  0  0
  152.4489  141.1298  160.0584 H   0  0  0  0  0  0  0  0  0  0  0  0
  153.9161  141.8713  159.4050 H   0  0  0  0  0  0  0  0  0  0  0  0
  151.8741  137.9800  157.3820 H   0  0  0  0  0  0  0  0  0  0  0  0
  151.6746  132.2228  154.8444 H   0  0  0  0  0  0  0  0  0  0  0  0
  151.1821  132.2548  156.5235 H   0  0  0  0  0  0  0  0  0  0  0  0
  152.1309  130.0534  155.9036 H   0  0  0  0  0  0  0  0  0  0  0  0
  150.4642  129.8995  156.4288 H   0  0  0  0  0  0  0  0  0  0  0  0
  149.2646  129.5405  153.0148 H   0  0  0  0  0  0  0  0  0  0  0  0
  148.7367  129.5878  154.6872 H   0  0  0  0  0  0  0  0  0  0  0  0
  148.2418  131.7263  153.5733 H   0  0  0  0  0  0  0  0  0  0  0  0
  149.9090  131.9097  153.0716 H   0  0  0  0  0  0  0  0  0  0  0  0
  1  2  1  0  0  0  0
  1 26  1  0  0  0  0
  1 27  1  0  0  0  0
  1 28  1  0  0  0  0
  2  3  1  0  0  0  0
  2  4  1  0  0  0  0
  2 20  1  0  0  0  0
  3 29  1  0  0  0  0
  3 30  1  0  0  0  0
  3 31  1  0  0  0  0
  4  5  1  0  0  0  0
  4 32  1  0  0  0  0
  4 33  1  0  0  0  0
  5  6  1  0  0  0  0
  5 34  1  0  0  0  0
  6  7  2  0  0  0  0
  6  8  1  0  0  0  0
  8  9  1  0  0  0  0
  8 35  1  0  0  0  0
  9 19  1  0  0  0  0
  9 10  2  0  0  0  0
 10 11  1  0  0  0  0
 10 36  1  0  0  0  0
 11 12  2  0  0  0  0
 11 37  1  0  0  0  0
 12 13  1  0  0  0  0
 12 18  1  0  0  0  0
 13 17  1  0  0  0  0
 13 14  1  0  0  0  0
 14 15  1  0  0  0  0
 14 38  1  0  0  0  0
 14 39  1  0  0  0  0
 15 16  1  0  0  0  0
 15 40  1  0  0  0  0
 15 41  1  0  0  0  0
 16 17  1  0  0  0  0
 16 42  1  0  0  0  0
 16 43  1  0  0  0  0
 17 44  1  0  0  0  0
 17 45  1  0  0  0  0
 18 19  2  0  0  0  0
 19 46  1  0  0  0  0
 20 25  1  0  0  0  0
 20 21  1  0  0  0  0
 21 22  1  0  0  0  0
 21 47  1  0  0  0  0
 21 48  1  0  0  0  0
 22 23  1  0  0  0  0
 22 49  1  0  0  0  0
 22 50  1  0  0  0  0
 23 24  1  0  0  0  0
 24 25  1  0  0  0  0
 24 51  1  0  0  0  0
 24 52  1  0  0  0  0
 25 53  1  0  0  0  0
 25 54  1  0  0  0  0
M  END
> <s_m_source_file>
AV-unprocessed.smi

> <i_m_source_file_index>
1157

> <i_lp_mmshare_version>
43012

> <i_f3d_flags>
0

> <s_epik_input>
W0NIMl0xW0NIMl1PW0NIMl1bQ0gyXU4xQyhbQ0gzXSkoW0NIM10pW0NIMl1bTkhdQyg9TylbTkhdYzJbY0hdW2NIXWMobltjSF0yKU4zW0NIMl1bQ0gyXVtDSDJdW0NIMl0z

> <s_epik_cmdline>
J2VwaWtfcHl0aG9uJywgJy1waCcsICc3LjAnLCAnLXRuJywgJzgnLCAnLW1hJywgJzIwMCcsICctbWV0YWxfYmluZGluZycsICctaW1hZScsICc8aW5maWxlLm1hZT4nLCAnLW9tYWUnLCAnPG91dGZpbGUubWFlPic=

> <r_lp_tautomer_probability>
1

> <r_epik_Ionization_Penalty>
0.366523

> <r_epik_Ionization_Penalty_Charging>
0

> <r_epik_Ionization_Penalty_Neutral>
0.366523

> <r_epik_State_Penalty>
0.351681

> <r_epik_Charging_Adjusted_Penalty>
0.351681

> <i_epik_Tot_Q>
0

> <i_epik_Tot_abs_Q>
0

> <r_epik_Metal_State_Penalty>
0.334658

> <b_epik_Metal_Only>
0

> <s_lp_Force_Field>
OPLS_2005

> <r_lp_Energy>
67.3279

> <b_lp_Chiralities_Consistent>
1

> <s_lp_Variant>
AV-unprocessed.smi:1157-1

> <Gold.Version>
5.8.1

> <Gold.Id.Protein>
6NUR|6NUR_protein|mol2

> <Gold.PLP.Fitness>
46.3916

> <Gold.PLP.PLP>
-41.9237

> <Gold.PLP.part.hbond>
-2.6772

> <Gold.PLP.part.metal>
0.0000

> <Gold.PLP.part.buried>
-6.0412

> <Gold.PLP.part.nonpolar>
-33.5366

> <Gold.PLP.part.repulsive>
0.2256

> <Gold.PLP.ligand.clash>
0.0000

> <Gold.PLP.ligand.torsion>
0.5750

> <Gold.PLP.Chemscore.Hbond>
1.7905

> <Gold.PLP.Chemscore.CHOScore>
0.0000

> <Gold.PLP.Chemscore.Metal>
0.0000

> <Gold.Chemscore.Hbonds>
donor molecule, donor type, donor heavy atom, donor atom, acceptor molecule, acceptor atom, score
      L1  H     5    34       P1  7948  0.85
      P1  H 10752 10764       L1     7  0.98

> <Gold.PLP.Chemscore.Internal.Correction>
0.2464

> <Gold.Rescore>
     Score         DG    S(hbond)    S(metal)    S(lipo)     H(rot)  DE(clash)    DE(int)     intcor
     17.29     -19.32       1.37        0.00     109.43       1.38       0.17       1.86       ----

> <Gold.Chemscore.Fitness>
17.2928

> <Gold.Chemscore.DG>
-19.3222

> <Gold.Chemscore.ZeroCoef>
-5.4800

> <Gold.Chemscore.Hbond>
1.3696

> <Gold.Chemscore.Metal>
0.0000

> <Gold.Chemscore.Lipo>
109.4323

> <Gold.Chemscore.Internal_Hbond>
0.0000

> <Gold.Chemscore.DEClash>
0.1663

> <Gold.Chemscore.DEInternal>
1.8631

> <Gold.Chemscore.Rot>
1.3812

> <Gold.Chemscore.Internal.Correction>
   9.000000E+99

> <Gold.Chemscore.Hbonds>
donor molecule, donor type, donor heavy atom, donor atom, acceptor molecule, acceptor atom, score
      L1  H     5    34       P1  7948  0.48
      P1  H 10752 10764       L1     7  0.32

> <Gold.Chemscore.Hbond.Weighted>
-4.5744

> <Gold.Chemscore.Metal.Weighted>
-0.0000

> <Gold.Chemscore.Lipo.Weighted>
-12.8036

> <Gold.Chemscore.Internal_Hbond.Weighted>
0.0000

> <Gold.Chemscore.DEClash.Weighted>
0.1663

> <Gold.Chemscore.DEInternal.Weighted>
1.8631

> <Gold.Chemscore.Rot.Weighted>
3.5358

> <Gold.Chemscore.Internal.Correction.Weighted>
   9.000000E+99

> <Gold.Protein.RotatedTorsions>
[ 6907 6896 6895 6894 ] final -128.28 input  -60.11 | X-H torsion
[ 7974 7965 7964 7962 ] final  116.15 input  175.53 | X-H torsion
[ 8008 7997 7996 7995 ] final  139.99 input   59.86 | X-H torsion
[ 10167 10162 10161 10158 ] final  112.64 input  -65.29 | X-H torsion
[ 10718 10713 10712 10709 ] final   99.37 input   66.30 | X-H torsion
[ 10763 10752 10751 10750 ] final  -33.14 input  -60.55 | X-H torsion
[ 11005 11000 10999 10996 ] final   51.56 input  -57.11 | X-H torsion

> <Gold.Protein.ActiveResidues>
 VAL166  LYS551  ARG553  GLY616  TRP617  ASP618  TYR619  PRO620  LYS621  CYS622 
 ASP623  PHE694  ASN695  SER759  ASP760  ASP761  ALA762  ILE779  LEU786  VAL792 
 PHE793  MET794  SER795  GLU796  ALA797  LYS798  CYS799  TRP800  GLU811  SER814 

> <Gold.Protein.RotatedAtoms>
  150.9162  133.6936  159.2842 H   0  0  0  0  0  0  0  0  0  0  0  0  # atno 6907 bound_to 6896
  151.4406  135.1018  159.9679 H   0  0  0  0  0  0  0  0  0  0  0  0  # atno 6908 bound_to 6896
  152.4956  133.8571  159.7286 H   0  0  0  0  0  0  0  0  0  0  0  0  # atno 6909 bound_to 6896
  145.1832  139.3039  143.4407 H   0  0  0  0  0  0  0  0  0  0  0  0  # atno 7974 bound_to 7965
  156.2984  140.2353  156.4328 H   0  0  0  0  0  0  0  0  0  0  0  0  # atno 8008 bound_to 7997
  154.8255  140.0435  157.1461 H   0  0  0  0  0  0  0  0  0  0  0  0  # atno 8009 bound_to 7997
  154.9267  140.3011  155.5192 H   0  0  0  0  0  0  0  0  0  0  0  0  # atno 8010 bound_to 7997
  139.6520  144.7128  151.2029 H   0  0  0  0  0  0  0  0  0  0  0  0  # atno 10167 bound_to 10162
  157.6877  131.0667  150.4938 H   0  0  0  0  0  0  0  0  0  0  0  0  # atno 10718 bound_to 10713
  153.8254  135.6870  153.4821 H   0  0  0  0  0  0  0  0  0  0  0  0  # atno 10763 bound_to 10752
  153.1543  135.4605  154.9680 H   0  0  0  0  0  0  0  0  0  0  0  0  # atno 10764 bound_to 10752
  154.7910  135.3301  154.7722 H   0  0  0  0  0  0  0  0  0  0  0  0  # atno 10765 bound_to 10752
  140.0922  134.5194  155.8841 H   0  0  0  0  0  0  0  0  0  0  0  0  # atno 11005 bound_to 11000
  146.3449  140.2019  142.8589 LP  0  0  0  0  0  0  0  0  0  0  0  0  # atno 17320 bound_to 7965
  145.0115  140.8718  143.5221 LP  0  0  0  0  0  0  0  0  0  0  0  0  # atno 17321 bound_to 7965
  140.7542  143.6134  150.8583 LP  0  0  0  0  0  0  0  0  0  0  0  0  # atno 17342 bound_to 10162
  139.9783  143.5980  152.2951 LP  0  0  0  0  0  0  0  0  0  0  0  0  # atno 17343 bound_to 10162
  156.5263  130.4174  149.6224 LP  0  0  0  0  0  0  0  0  0  0  0  0  # atno 17370 bound_to 10713
  156.3109  130.7228  151.2121 LP  0  0  0  0  0  0  0  0  0  0  0  0  # atno 17371 bound_to 10713
  141.2081  133.6670  156.6350 LP  0  0  0  0  0  0  0  0  0  0  0  0  # atno 17394 bound_to 11000
  140.3336  134.7908  157.4345 LP  0  0  0  0  0  0  0  0  0  0  0  0  # atno 17395 bound_to 11000

$$$$
