AV-unprocessed.smi:1819|AV-procd|sdf|7383|dock10
  -GOLD-   22720 9 53D 1   1.00000     0.00000
 Structure written by MMmdl.
 28 28  0  0  0  0  0  0  0  0  2 V2000
  149.4756  141.3636  154.0686 O   0  0  0  0  0  0  0  0  0  0  0  0
  149.9015  140.4079  154.7184 C   0  0  0  0  0  0  0  0  0  0  0  0
  149.6110  138.9726  154.2645 C   0  0  0  0  0  0  0  0  0  0  0  0
  150.1993  137.9753  155.1724 N   0  0  0  0  0  0  0  0  0  0  0  0
  149.3383  137.3060  156.0599 C   0  0  0  0  0  0  0  0  0  0  0  0
  149.7922  136.3838  156.9300 C   0  0  0  0  0  0  0  0  0  0  0  0
  151.2189  136.0845  156.9372 C   0  0  0  0  0  0  0  0  0  0  0  0
  151.6503  135.2418  157.7216 O   0  0  0  0  0  0  0  0  0  0  0  0
  152.0144  136.7640  156.0600 N   0  5  0  0  0  0  0  0  0  0  0  0
  151.5393  137.7011  155.1822 C   0  0  0  0  0  0  0  0  0  0  0  0
  152.2755  138.3051  154.4005 O   0  0  0  0  0  0  0  0  0  0  0  0
  150.6383  140.5395  155.8319 N   0  0  0  0  0  0  0  0  0  0  0  0
  150.9739  141.8015  156.4831 C   0  0  0  0  0  0  0  0  0  0  0  0
  150.7510  141.7273  158.0025 C   0  0  0  0  0  0  0  0  0  0  0  0
  150.3677  143.3461  158.7348 S   0  0  0  0  0  0  0  0  0  0  0  0
  152.0324  144.0553  158.8458 C   0  0  0  0  0  0  0  0  0  0  0  0
  152.4971  144.3087  157.6237 F   0  0  0  0  0  0  0  0  0  0  0  0
  152.0044  145.1940  159.5370 F   0  0  0  0  0  0  0  0  0  0  0  0
  152.8586  143.2001  159.4472 F   0  0  0  0  0  0  0  0  0  0  0  0
  148.5292  138.8479  154.2027 H   0  0  0  0  0  0  0  0  0  0  0  0
  149.9780  138.8140  153.2484 H   0  0  0  0  0  0  0  0  0  0  0  0
  148.2984  137.5904  155.9954 H   0  0  0  0  0  0  0  0  0  0  0  0
  149.1183  135.8807  157.6076 H   0  0  0  0  0  0  0  0  0  0  0  0
  150.9453  139.6951  156.2922 H   0  0  0  0  0  0  0  0  0  0  0  0
  152.0272  142.0001  156.2844 H   0  0  0  0  0  0  0  0  0  0  0  0
  150.4207  142.6385  156.0541 H   0  0  0  0  0  0  0  0  0  0  0  0
  149.9455  141.0288  158.2319 H   0  0  0  0  0  0  0  0  0  0  0  0
  151.6496  141.3420  158.4842 H   0  0  0  0  0  0  0  0  0  0  0  0
  1  2  2  0  0  0  0
  2  3  1  0  0  0  0
  2 12  1  0  0  0  0
  3  4  1  0  0  0  0
  3 20  1  0  0  0  0
  3 21  1  0  0  0  0
  4 10  1  0  0  0  0
  4  5  1  0  0  0  0
  5  6  2  0  0  0  0
  5 22  1  0  0  0  0
  6  7  1  0  0  0  0
  6 23  1  0  0  0  0
  7  8  2  0  0  0  0
  7  9  1  0  0  0  0
  9 10  1  0  0  0  0
 10 11  2  0  0  0  0
 12 13  1  0  0  0  0
 12 24  1  0  0  0  0
 13 14  1  0  0  0  0
 13 25  1  0  0  0  0
 13 26  1  0  0  0  0
 14 15  1  0  0  0  0
 14 27  1  0  0  0  0
 14 28  1  0  0  0  0
 15 16  1  0  0  0  0
 16 17  1  0  0  0  0
 16 18  1  0  0  0  0
 16 19  1  0  0  0  0
M  CHG  1   9  -1
M  END
> <s_m_source_file>
AV-unprocessed.smi

> <i_m_source_file_index>
1819

> <i_lp_mmshare_version>
43012

> <i_f3d_flags>
0

> <s_epik_input>
RkMoRikoRilTW0NIMl1bQ0gyXVtOSF1DKD1PKVtDSDJdbjFbY0hdW2NIXWMoPU8pW25IXWMxPU8=

> <s_epik_cmdline>
J2VwaWtfcHl0aG9uJywgJy1waCcsICc3LjAnLCAnLXRuJywgJzgnLCAnLW1hJywgJzIwMCcsICctbWV0YWxfYmluZGluZycsICctaW1hZScsICc8aW5maWxlLm1hZT4nLCAnLW9tYWUnLCAnPG91dGZpbGUubWFlPic=

> <r_lp_tautomer_probability>
0.999537

> <r_epik_Ionization_Penalty>
3.04617

> <r_epik_Ionization_Penalty_Charging>
2.49125e-08

> <r_epik_Ionization_Penalty_Neutral>
3.04617

> <r_epik_State_Penalty>
3.04516

> <r_epik_Charging_Adjusted_Penalty>
3.04516

> <i_epik_Tot_Q>
-1

> <i_epik_Tot_abs_Q>
1

> <r_epik_Metal_State_Penalty>
0.457105

> <b_epik_Metal_Only>
1

> <s_lp_Force_Field>
OPLS_2005

> <r_lp_Energy>
9.91428

> <b_lp_Chiralities_Consistent>
1

> <s_lp_Variant>
AV-unprocessed.smi:1819-2

> <Gold.Version>
5.8.1

> <Gold.Id.Protein>
6NUR|6NUR_protein|mol2

> <Gold.PLP.Fitness>
44.7058

> <Gold.PLP.PLP>
-37.8101

> <Gold.PLP.part.hbond>
-4.0000

> <Gold.PLP.part.metal>
0.0000

> <Gold.PLP.part.buried>
-3.1871

> <Gold.PLP.part.nonpolar>
-30.7227

> <Gold.PLP.part.repulsive>
0.4056

> <Gold.PLP.ligand.clash>
0.0000

> <Gold.PLP.ligand.torsion>
0.5969

> <Gold.PLP.Chemscore.Hbond>
2.6720

> <Gold.PLP.Chemscore.CHOScore>
0.0000

> <Gold.PLP.Chemscore.Metal>
0.0000

> <Gold.Chemscore.Hbonds>
donor molecule, donor type, donor heavy atom, donor atom, acceptor molecule, acceptor atom, score
      P1  H  8011  8017       L1     1  0.68
      P1  H 10752 10764       L1     9  2.00

> <Gold.PLP.Chemscore.Internal.Correction>
0.0736

> <Gold.Rescore>
     Score         DG    S(hbond)    S(metal)    S(lipo)     H(rot)  DE(clash)    DE(int)     intcor
      5.75      -6.62       1.00        0.00      44.17       2.88       0.10       0.77       ----

> <Gold.Chemscore.Fitness>
5.7539

> <Gold.Chemscore.DG>
-6.6182

> <Gold.Chemscore.ZeroCoef>
-5.4800

> <Gold.Chemscore.Hbond>
0.9971

> <Gold.Chemscore.Metal>
0.0000

> <Gold.Chemscore.Lipo>
44.1721

> <Gold.Chemscore.Internal_Hbond>
0.0000

> <Gold.Chemscore.DEClash>
0.0964

> <Gold.Chemscore.DEInternal>
0.7679

> <Gold.Chemscore.Rot>
2.8751

> <Gold.Chemscore.Internal.Correction>
   9.000000E+99

> <Gold.Chemscore.Hbonds>
donor molecule, donor type, donor heavy atom, donor atom, acceptor molecule, acceptor atom, score
      P1  H  6896  6908       L1     8  0.02
      P1  H  8011  8017       L1     1  0.65
      P1  H 10752 10764       L1     9  0.24

> <Gold.Chemscore.Hbond.Weighted>
-3.3304

> <Gold.Chemscore.Metal.Weighted>
-0.0000

> <Gold.Chemscore.Lipo.Weighted>
-5.1681

> <Gold.Chemscore.Internal_Hbond.Weighted>
0.0000

> <Gold.Chemscore.DEClash.Weighted>
0.0964

> <Gold.Chemscore.DEInternal.Weighted>
0.7679

> <Gold.Chemscore.Rot.Weighted>
7.3603

> <Gold.Chemscore.Internal.Correction.Weighted>
   9.000000E+99

> <Gold.Protein.RotatedTorsions>
[ 6907 6896 6895 6894 ] final  178.84 input  -60.11 | X-H torsion
[ 7974 7965 7964 7962 ] final   13.21 input  175.53 | X-H torsion
[ 8008 7997 7996 7995 ] final  -23.58 input   59.86 | X-H torsion
[ 10167 10162 10161 10158 ] final   40.77 input  -65.29 | X-H torsion
[ 10718 10713 10712 10709 ] final  149.64 input   66.30 | X-H torsion
[ 10763 10752 10751 10750 ] final  -47.25 input  -60.55 | X-H torsion
[ 11005 11000 10999 10996 ] final  176.16 input  -57.11 | X-H torsion

> <Gold.Protein.ActiveResidues>
 VAL166  LYS551  ARG553  GLY616  TRP617  ASP618  TYR619  PRO620  LYS621  CYS622 
 ASP623  PHE694  ASN695  SER759  ASP760  ASP761  ALA762  ILE779  LEU786  VAL792 
 PHE793  MET794  SER795  GLU796  ALA797  LYS798  CYS799  TRP800  GLU811  SER814 

> <Gold.Protein.RotatedAtoms>
  151.6813  133.3312  159.3219 H   0  0  0  0  0  0  0  0  0  0  0  0  # atno 6907 bound_to 6896
  150.7821  134.6778  159.6437 H   0  0  0  0  0  0  0  0  0  0  0  0  # atno 6908 bound_to 6896
  152.3882  134.6487  160.0170 H   0  0  0  0  0  0  0  0  0  0  0  0  # atno 6909 bound_to 6896
  146.2334  139.9223  142.8508 H   0  0  0  0  0  0  0  0  0  0  0  0  # atno 7974 bound_to 7965
  154.4577  140.1977  156.0332 H   0  0  0  0  0  0  0  0  0  0  0  0  # atno 8008 bound_to 7997
  156.0779  140.3275  155.7628 H   0  0  0  0  0  0  0  0  0  0  0  0  # atno 8009 bound_to 7997
  155.5159  140.0565  157.2906 H   0  0  0  0  0  0  0  0  0  0  0  0  # atno 8010 bound_to 7997
  140.3709  144.2106  150.6133 H   0  0  0  0  0  0  0  0  0  0  0  0  # atno 10167 bound_to 10162
  157.2936  131.0858  151.1443 H   0  0  0  0  0  0  0  0  0  0  0  0  # atno 10718 bound_to 10713
  154.0582  135.6621  153.4808 H   0  0  0  0  0  0  0  0  0  0  0  0  # atno 10763 bound_to 10752
  153.0437  135.5128  154.7684 H   0  0  0  0  0  0  0  0  0  0  0  0  # atno 10764 bound_to 10752
  154.6712  135.3030  154.9705 H   0  0  0  0  0  0  0  0  0  0  0  0  # atno 10765 bound_to 10752
  140.3701  134.7037  157.4386 H   0  0  0  0  0  0  0  0  0  0  0  0  # atno 11005 bound_to 11000
  145.2125  140.9901  143.4092 LP  0  0  0  0  0  0  0  0  0  0  0  0  # atno 17320 bound_to 7965
  144.9679  139.3910  143.6323 LP  0  0  0  0  0  0  0  0  0  0  0  0  # atno 17321 bound_to 7965
  140.5034  143.2311  151.8644 LP  0  0  0  0  0  0  0  0  0  0  0  0  # atno 17342 bound_to 10162
  139.4804  144.5033  151.9031 LP  0  0  0  0  0  0  0  0  0  0  0  0  # atno 17343 bound_to 10162
  157.2830  130.6759  149.6075 LP  0  0  0  0  0  0  0  0  0  0  0  0  # atno 17370 bound_to 10713
  155.9668  130.4444  150.5460 LP  0  0  0  0  0  0  0  0  0  0  0  0  # atno 17371 bound_to 10713
  140.0559  134.6065  155.8806 LP  0  0  0  0  0  0  0  0  0  0  0  0  # atno 17394 bound_to 11000
  141.1957  133.6588  156.5657 LP  0  0  0  0  0  0  0  0  0  0  0  0  # atno 17395 bound_to 11000

$$$$
