AV-unprocessed.smi:526|AV-procd|sdf|2811|dock4
  -GOLD-   2262023293D 1   1.00000     0.00000
 Structure written by MMmdl.
 30 30  0  0  0  0  0  0  0  0  2 V2000
  153.0212  143.0252  159.9561 C   0  0  0  0  0  0  0  0  0  0  0  0
  152.0077  143.6078  160.6179 C   0  0  0  0  0  0  0  0  0  0  0  0
  152.0029  143.7353  162.1296 C   0  0  0  0  0  0  0  0  0  0  0  0
  150.7995  144.1786  159.8988 C   0  0  0  0  0  0  0  0  0  0  0  0
  151.1280  144.5145  158.1449 S   0  0  0  0  0  0  0  0  0  0  0  0
  151.1232  142.8347  157.4550 C   0  0  0  0  0  0  0  0  0  0  0  0
  151.6903  141.7625  157.9070 N   0  0  0  0  0  0  0  0  0  0  0  0
  151.5560  140.5527  157.2144 C   0  0  0  0  0  0  0  0  0  0  0  0
  152.2560  139.3572  157.8367 C   0  0  0  0  0  0  0  0  0  0  0  0
  150.8380  140.4707  156.0588 C   0  0  0  0  0  0  0  0  0  0  0  0
  150.6645  139.1673  155.2767 C   0  0  0  0  0  0  0  0  0  0  0  0
  151.9712  138.4315  154.9565 C   0  0  0  0  0  0  0  0  0  0  0  0
  151.8598  137.2886  154.4622 O   0  0  0  0  0  0  0  0  0  0  0  0
  153.0545  139.0056  155.2077 O   0  5  0  0  0  0  0  0  0  0  0  0
  150.1939  141.6856  155.5315 C   0  0  0  0  0  0  0  0  0  0  0  0
  149.5267  141.7332  154.4991 O   0  0  0  0  0  0  0  0  0  0  0  0
  150.3801  142.7991  156.2745 N   0  0  0  0  0  0  0  0  0  0  0  0
  149.9514  143.6532  155.9492 H   0  0  0  0  0  0  0  0  0  0  0  0
  153.8757  142.6230  160.4803 H   0  0  0  0  0  0  0  0  0  0  0  0
  153.0130  142.9418  158.8791 H   0  0  0  0  0  0  0  0  0  0  0  0
  151.1313  143.2320  162.5485 H   0  0  0  0  0  0  0  0  0  0  0  0
  151.9704  144.7834  162.4272 H   0  0  0  0  0  0  0  0  0  0  0  0
  152.8954  143.2880  162.5688 H   0  0  0  0  0  0  0  0  0  0  0  0
  149.9640  143.4807  159.9672 H   0  0  0  0  0  0  0  0  0  0  0  0
  150.4879  145.0986  160.3944 H   0  0  0  0  0  0  0  0  0  0  0  0
  153.0343  138.9816  157.1721 H   0  0  0  0  0  0  0  0  0  0  0  0
  151.5451  138.5533  158.0289 H   0  0  0  0  0  0  0  0  0  0  0  0
  152.7245  139.6214  158.7854 H   0  0  0  0  0  0  0  0  0  0  0  0
  150.0030  138.4829  155.8087 H   0  0  0  0  0  0  0  0  0  0  0  0
  150.1549  139.3814  154.3372 H   0  0  0  0  0  0  0  0  0  0  0  0
  1  2  2  0  0  0  0
  1 19  1  0  0  0  0
  1 20  1  0  0  0  0
  2  3  1  0  0  0  0
  2  4  1  0  0  0  0
  3 21  1  0  0  0  0
  3 22  1  0  0  0  0
  3 23  1  0  0  0  0
  4  5  1  0  0  0  0
  4 24  1  0  0  0  0
  4 25  1  0  0  0  0
  5  6  1  0  0  0  0
  6 17  1  0  0  0  0
  6  7  2  0  0  0  0
  7  8  1  0  0  0  0
  8  9  1  0  0  0  0
  8 10  2  0  0  0  0
  9 26  1  0  0  0  0
  9 27  1  0  0  0  0
  9 28  1  0  0  0  0
 10 11  1  0  0  0  0
 10 15  1  0  0  0  0
 11 12  1  0  0  0  0
 11 29  1  0  0  0  0
 11 30  1  0  0  0  0
 12 13  2  0  0  0  0
 12 14  1  0  0  0  0
 15 16  2  0  0  0  0
 15 17  1  0  0  0  0
 17 18  1  0  0  0  0
M  CHG  1  14  -1
M  END
> <s_m_source_file>
AV-unprocessed.smi

> <i_m_source_file_index>
526

> <i_lp_mmshare_version>
43012

> <i_f3d_flags>
0

> <s_epik_input>
W0NIMl09QyhbQ0gzXSlbQ0gyXVNjMW5jKFtDSDNdKWMoYyg9TylbbkhdMSlbQ0gyXUMoPU8pW09IXQ==

> <s_epik_cmdline>
J2VwaWtfcHl0aG9uJywgJy1waCcsICc3LjAnLCAnLXRuJywgJzgnLCAnLW1hJywgJzIwMCcsICctbWV0YWxfYmluZGluZycsICctaW1hZScsICc8aW5maWxlLm1hZT4nLCAnLW9tYWUnLCAnPG91dGZpbGUubWFlPic=

> <r_lp_tautomer_probability>
0.660323

> <r_epik_Ionization_Penalty>
0.000759783

> <r_epik_Ionization_Penalty_Charging>
0.000714454

> <r_epik_Ionization_Penalty_Neutral>
4.53284e-05

> <r_epik_State_Penalty>
0.230805

> <r_epik_Charging_Adjusted_Penalty>
0.231519

> <i_epik_Tot_Q>
-1

> <i_epik_Tot_abs_Q>
1

> <r_epik_Metal_State_Penalty>
0.34438

> <b_epik_Metal_Only>
0

> <s_lp_Force_Field>
OPLS_2005

> <r_lp_Energy>
1.72321

> <b_lp_Chiralities_Consistent>
1

> <s_lp_Variant>
AV-unprocessed.smi:526-1

> <Gold.Version>
5.8.1

> <Gold.Id.Protein>
6NUR|6NUR_protein|mol2

> <Gold.PLP.Fitness>
54.2370

> <Gold.PLP.PLP>
-40.1085

> <Gold.PLP.part.hbond>
-5.0000

> <Gold.PLP.part.metal>
0.0000

> <Gold.PLP.part.buried>
-3.5433

> <Gold.PLP.part.nonpolar>
-30.1485

> <Gold.PLP.part.repulsive>
0.4726

> <Gold.PLP.ligand.clash>
0.0000

> <Gold.PLP.ligand.torsion>
0.6501

> <Gold.PLP.Chemscore.Hbond>
5.1348

> <Gold.PLP.Chemscore.CHOScore>
0.0000

> <Gold.PLP.Chemscore.Metal>
0.0000

> <Gold.Chemscore.Hbonds>
donor molecule, donor type, donor heavy atom, donor atom, acceptor molecule, acceptor atom, score
      L1  H    17    18       P1  8028  0.99
      P1  H  7997  8008       L1    14  2.00
      P1  H  8011  8017       L1    16  0.17
      P1  H 10752 10765       L1    13  1.98

> <Gold.PLP.Chemscore.Internal.Correction>
0.0243

> <Gold.Rescore>
     Score         DG    S(hbond)    S(metal)    S(lipo)     H(rot)  DE(clash)    DE(int)     intcor
     13.27     -18.20       2.75        0.00      81.42       2.34       0.75       4.17       ----

> <Gold.Chemscore.Fitness>
13.2690

> <Gold.Chemscore.DG>
-18.1958

> <Gold.Chemscore.ZeroCoef>
-5.4800

> <Gold.Chemscore.Hbond>
2.7499

> <Gold.Chemscore.Metal>
0.0000

> <Gold.Chemscore.Lipo>
81.4249

> <Gold.Chemscore.Internal_Hbond>
0.0000

> <Gold.Chemscore.DEClash>
0.7541

> <Gold.Chemscore.DEInternal>
4.1727

> <Gold.Chemscore.Rot>
2.3420

> <Gold.Chemscore.Internal.Correction>
   9.000000E+99

> <Gold.Chemscore.Hbonds>
donor molecule, donor type, donor heavy atom, donor atom, acceptor molecule, acceptor atom, score
      L1  H    17    18       P1  8028  0.92
      P1  H  7997  8008       L1    14  0.98
      P1  H  8011  8017       L1    16  0.17
      P1  H 10752 10765       L1    13  0.93

> <Gold.Chemscore.Hbond.Weighted>
-9.1846

> <Gold.Chemscore.Metal.Weighted>
-0.0000

> <Gold.Chemscore.Lipo.Weighted>
-9.5267

> <Gold.Chemscore.Internal_Hbond.Weighted>
0.0000

> <Gold.Chemscore.DEClash.Weighted>
0.7541

> <Gold.Chemscore.DEInternal.Weighted>
4.1727

> <Gold.Chemscore.Rot.Weighted>
5.9955

> <Gold.Chemscore.Internal.Correction.Weighted>
   9.000000E+99

> <Gold.Protein.RotatedTorsions>
[ 6907 6896 6895 6894 ] final   67.54 input  -60.11 | X-H torsion
[ 7974 7965 7964 7962 ] final  127.01 input  175.53 | X-H torsion
[ 8008 7997 7996 7995 ] final  -28.54 input   59.86 | X-H torsion
[ 10167 10162 10161 10158 ] final  151.05 input  -65.29 | X-H torsion
[ 10718 10713 10712 10709 ] final  -73.06 input   66.30 | X-H torsion
[ 10763 10752 10751 10750 ] final  167.25 input  -60.55 | X-H torsion
[ 11005 11000 10999 10996 ] final  -48.14 input  -57.11 | X-H torsion

> <Gold.Protein.ActiveResidues>
 VAL166  LYS551  ARG553  GLY616  TRP617  ASP618  TYR619  PRO620  LYS621  CYS622 
 ASP623  PHE694  ASN695  SER759  ASP760  ASP761  ALA762  ILE779  LEU786  VAL792 
 PHE793  MET794  SER795  GLU796  ALA797  LYS798  CYS799  TRP800  GLU811  SER814 

> <Gold.Protein.RotatedAtoms>
  152.4559  134.5292  159.9805 H   0  0  0  0  0  0  0  0  0  0  0  0  # atno 6907 bound_to 6896
  151.5353  133.3436  159.2933 H   0  0  0  0  0  0  0  0  0  0  0  0  # atno 6908 bound_to 6896
  150.8503  134.7857  159.7066 H   0  0  0  0  0  0  0  0  0  0  0  0  # atno 6909 bound_to 6896
  145.0554  139.3849  143.5033 H   0  0  0  0  0  0  0  0  0  0  0  0  # atno 7974 bound_to 7965
  154.4328  140.1842  156.1106 H   0  0  0  0  0  0  0  0  0  0  0  0  # atno 8008 bound_to 7997
  156.0221  140.3339  155.7024 H   0  0  0  0  0  0  0  0  0  0  0  0  # atno 8009 bound_to 7997
  155.5961  140.0636  157.2736 H   0  0  0  0  0  0  0  0  0  0  0  0  # atno 8010 bound_to 7997
  139.4844  144.5473  151.7462 H   0  0  0  0  0  0  0  0  0  0  0  0  # atno 10167 bound_to 10162
  156.0295  130.4386  150.2686 H   0  0  0  0  0  0  0  0  0  0  0  0  # atno 10718 bound_to 10713
  154.3511  135.2753  155.2371 H   0  0  0  0  0  0  0  0  0  0  0  0  # atno 10763 bound_to 10752
  154.4600  135.5909  153.6253 H   0  0  0  0  0  0  0  0  0  0  0  0  # atno 10764 bound_to 10752
  152.9850  135.6062  154.3722 H   0  0  0  0  0  0  0  0  0  0  0  0  # atno 10765 bound_to 10752
  141.0683  133.6687  156.3398 H   0  0  0  0  0  0  0  0  0  0  0  0  # atno 11005 bound_to 11000
  146.3521  140.0225  142.8657 LP  0  0  0  0  0  0  0  0  0  0  0  0  # atno 17320 bound_to 7965
  145.1475  140.9605  143.4452 LP  0  0  0  0  0  0  0  0  0  0  0  0  # atno 17321 bound_to 7965
  140.5021  144.1153  150.5973 LP  0  0  0  0  0  0  0  0  0  0  0  0  # atno 17342 bound_to 10162
  140.4050  143.2685  151.9902 LP  0  0  0  0  0  0  0  0  0  0  0  0  # atno 17343 bound_to 10162
  157.0789  131.0137  151.3164 LP  0  0  0  0  0  0  0  0  0  0  0  0  # atno 17370 bound_to 10713
  157.4943  130.7841  149.7539 LP  0  0  0  0  0  0  0  0  0  0  0  0  # atno 17371 bound_to 10713
  140.5727  134.5824  157.5461 LP  0  0  0  0  0  0  0  0  0  0  0  0  # atno 17394 bound_to 11000
  139.9498  134.7637  156.0475 LP  0  0  0  0  0  0  0  0  0  0  0  0  # atno 17395 bound_to 11000

$$$$
