AV-unprocessed.smi:252|AV-procd|sdf|1940|dock8
  -GOLD-   2262021 63D 1   1.00000     0.00000
 Structure written by MMmdl.
 56 59  0  0  0  0  0  0  0  0  1 V2000
  148.6674  127.8066  151.7073 C   0  0  0  0  0  0  0  0  0  0  0  0
  147.2093  127.6710  151.2443 C   0  0  0  0  0  0  0  0  0  0  0  0
  146.3080  128.7802  151.7938 C   0  0  0  0  0  0  0  0  0  0  0  0
  145.4368  128.5164  152.6226 O   0  0  0  0  0  0  0  0  0  0  0  0
  146.5311  130.0159  151.3143 N   0  0  0  0  0  0  0  0  0  0  0  0
  145.8290  131.2500  151.6695 C   0  0  2  0  0  0  0  0  0  0  0  0
  145.0264  131.8381  150.4903 C   0  0  0  0  0  0  0  0  0  0  0  0
  144.2781  133.1000  150.9441 C   0  0  0  0  0  0  0  0  0  0  0  0
  145.2473  134.1185  151.5661 C   0  0  0  0  0  0  0  0  0  0  0  0
  146.0167  133.5122  152.6532 N   0  0  0  0  0  0  0  0  0  0  0  0
  146.6113  134.3998  153.4903 C   0  0  0  0  0  0  0  0  0  0  0  0
  145.8886  135.4215  154.0228 N   0  0  0  0  0  0  0  0  0  0  0  0
  146.4629  136.2900  154.8608 C   0  0  0  0  0  0  0  0  0  0  0  0
  147.7249  136.3232  155.2926 N   0  0  0  0  0  0  0  0  0  0  0  0
  148.4577  135.3058  154.7564 C   0  0  0  0  0  0  0  0  0  0  0  0
  147.9854  134.3126  153.8523 C   0  0  0  0  0  0  0  0  0  0  0  0
  149.0239  133.4549  153.5080 N   0  0  0  0  0  0  0  0  0  0  0  0
  150.0469  133.9067  154.1801 C   0  0  0  0  0  0  0  0  0  0  0  0
  149.7936  135.0089  154.9648 N   0  0  0  0  0  0  0  0  0  0  0  0
  150.7424  135.7041  155.8205 C   0  0  0  0  0  0  0  0  0  0  0  0
  151.3587  136.9587  155.1570 C   0  0  1  0  0  0  0  0  0  0  0  0
  152.1693  136.5428  154.0694 O   0  0  0  0  0  0  0  0  0  0  0  0
  150.3317  137.9545  154.6383 C   0  0  0  0  0  0  0  0  0  0  0  0
  151.1195  139.2581  154.6122 C   0  0  0  0  0  0  0  0  0  0  0  0
  151.9738  139.1892  155.7465 O   0  0  0  0  0  0  0  0  0  0  0  0
  152.1686  137.8315  156.1411 C   0  0  2  0  0  0  0  0  0  0  0  0
  153.6651  137.5081  156.2776 C   0  0  0  0  0  0  0  0  0  0  0  0
  146.7667  132.3086  152.2887 C   0  0  0  0  0  0  0  0  0  0  0  0
  149.2841  127.0195  151.2732 H   0  0  0  0  0  0  0  0  0  0  0  0
  148.7528  127.7284  152.7917 H   0  0  0  0  0  0  0  0  0  0  0  0
  149.0927  128.7640  151.4038 H   0  0  0  0  0  0  0  0  0  0  0  0
  147.1755  127.6757  150.1539 H   0  0  0  0  0  0  0  0  0  0  0  0
  146.8083  126.7093  151.5648 H   0  0  0  0  0  0  0  0  0  0  0  0
  147.2691  130.1134  150.6319 H   0  0  0  0  0  0  0  0  0  0  0  0
  145.1124  130.9607  152.4395 H   0  0  0  0  0  0  0  0  0  0  0  0
  145.6885  132.0968  149.6635 H   0  0  0  0  0  0  0  0  0  0  0  0
  144.3183  131.1026  150.1071 H   0  0  0  0  0  0  0  0  0  0  0  0
  143.7558  133.5496  150.0994 H   0  0  0  0  0  0  0  0  0  0  0  0
  143.5138  132.8311  151.6745 H   0  0  0  0  0  0  0  0  0  0  0  0
  145.9426  134.4787  150.8066 H   0  0  0  0  0  0  0  0  0  0  0  0
  144.6851  134.9866  151.9082 H   0  0  0  0  0  0  0  0  0  0  0  0
  145.8177  137.0678  155.2422 H   0  0  0  0  0  0  0  0  0  0  0  0
  151.0201  133.4404  154.1264 H   0  0  0  0  0  0  0  0  0  0  0  0
  150.2233  135.9798  156.7393 H   0  0  0  0  0  0  0  0  0  0  0  0
  151.5271  135.0046  156.1119 H   0  0  0  0  0  0  0  0  0  0  0  0
  151.6131  136.4029  153.3184 H   0  0  0  0  0  0  0  0  0  0  0  0
  149.9103  137.6883  153.6680 H   0  0  0  0  0  0  0  0  0  0  0  0
  149.5080  138.0486  155.3473 H   0  0  0  0  0  0  0  0  0  0  0  0
  151.7312  139.3180  153.7110 H   0  0  0  0  0  0  0  0  0  0  0  0
  150.4777  140.1385  154.6458 H   0  0  0  0  0  0  0  0  0  0  0  0
  151.7143  137.7522  157.1298 H   0  0  0  0  0  0  0  0  0  0  0  0
  153.8160  136.4686  156.5701 H   0  0  0  0  0  0  0  0  0  0  0  0
  154.1267  138.1367  157.0392 H   0  0  0  0  0  0  0  0  0  0  0  0
  154.2024  137.6790  155.3445 H   0  0  0  0  0  0  0  0  0  0  0  0
  147.2504  131.8916  153.1733 H   0  0  0  0  0  0  0  0  0  0  0  0
  147.5557  132.5848  151.5884 H   0  0  0  0  0  0  0  0  0  0  0  0
  1  2  1  0  0  0  0
  1 29  1  0  0  0  0
  1 30  1  0  0  0  0
  1 31  1  0  0  0  0
  2  3  1  0  0  0  0
  2 32  1  0  0  0  0
  2 33  1  0  0  0  0
  3  4  2  0  0  0  0
  3  5  1  0  0  0  0
  5  6  1  0  0  0  0
  5 34  1  0  0  0  0
  6 28  1  0  0  0  0
  6  7  1  0  0  0  0
  6 35  1  0  0  0  0
  7  8  1  0  0  0  0
  7 36  1  0  0  0  0
  7 37  1  0  0  0  0
  8  9  1  0  0  0  0
  8 38  1  0  0  0  0
  8 39  1  0  0  0  0
  9 10  1  0  0  0  0
  9 40  1  0  0  0  0
  9 41  1  0  0  0  0
 10 11  1  0  0  0  0
 10 28  1  0  0  0  0
 11 16  1  0  0  0  0
 11 12  2  0  0  0  0
 12 13  1  0  0  0  0
 13 14  2  0  0  0  0
 13 42  1  0  0  0  0
 14 15  1  0  0  0  0
 15 19  1  0  0  0  0
 15 16  2  0  0  0  0
 16 17  1  0  0  0  0
 17 18  2  0  0  0  0
 18 19  1  0  0  0  0
 18 43  1  0  0  0  0
 19 20  1  0  0  0  0
 20 21  1  0  0  0  0
 20 44  1  0  0  0  0
 20 45  1  0  0  0  0
 21 26  1  0  0  0  0
 21 22  1  0  0  0  0
 21 23  1  0  0  0  0
 22 46  1  0  0  0  0
 23 24  1  0  0  0  0
 23 47  1  0  0  0  0
 23 48  1  0  0  0  0
 24 25  1  0  0  0  0
 24 49  1  0  0  0  0
 24 50  1  0  0  0  0
 25 26  1  0  0  0  0
 26 27  1  0  0  0  0
 26 51  1  0  0  0  0
 27 52  1  0  0  0  0
 27 53  1  0  0  0  0
 27 54  1  0  0  0  0
 28 55  1  0  0  0  0
 28 56  1  0  0  0  0
M  END
> <s_m_source_file>
AV-unprocessed.smi

> <i_m_source_file_index>
252

> <i_lp_mmshare_version>
43012

> <i_f3d_flags>
0

> <s_epik_input>
W0NIM11bQ0gyXUMoPU8pW05IXVtDQEBIXTFbQ0gyXVtDSDJdW0NIMl1OKFtDSDJdMSljKG5bY0hdbjIpYyhjMjMpbltjSF1uM1tDSDJdW0NAQF00KFtPSF0pW0NIMl1bQ0gyXU9bQ0BIXTRbQ0gzXQ==

> <s_epik_cmdline>
J2VwaWtfcHl0aG9uJywgJy1waCcsICc3LjAnLCAnLXRuJywgJzgnLCAnLW1hJywgJzIwMCcsICctbWV0YWxfYmluZGluZycsICctaW1hZScsICc8aW5maWxlLm1hZT4nLCAnLW9tYWUnLCAnPG91dGZpbGUubWFlPic=

> <r_lp_tautomer_probability>
1

> <r_epik_Ionization_Penalty>
0.00182575

> <r_epik_Ionization_Penalty_Charging>
0

> <r_epik_Ionization_Penalty_Neutral>
0.00182575

> <r_epik_State_Penalty>
0.00104524

> <r_epik_Charging_Adjusted_Penalty>
0.00104524

> <i_epik_Tot_Q>
0

> <i_epik_Tot_abs_Q>
0

> <r_epik_Metal_State_Penalty>
-0

> <b_epik_Metal_Only>
0

> <s_lp_Force_Field>
OPLS_2005

> <r_lp_Energy>
36.8902

> <b_lp_Chiralities_Consistent>
1

> <s_lp_Variant>
AV-unprocessed.smi:252-5

> <Gold.Version>
5.8.1

> <Gold.Id.Protein>
6NUR|6NUR_protein|mol2

> <Gold.PLP.Fitness>
49.1847

> <Gold.PLP.PLP>
-41.0438

> <Gold.PLP.part.hbond>
-3.0000

> <Gold.PLP.part.metal>
0.0000

> <Gold.PLP.part.buried>
-4.9165

> <Gold.PLP.part.nonpolar>
-33.9967

> <Gold.PLP.part.repulsive>
0.7441

> <Gold.PLP.ligand.clash>
0.0000

> <Gold.PLP.ligand.torsion>
0.6471

> <Gold.PLP.Chemscore.Hbond>
2.9840

> <Gold.PLP.Chemscore.CHOScore>
0.0000

> <Gold.PLP.Chemscore.Metal>
0.0000

> <Gold.Chemscore.Hbonds>
donor molecule, donor type, donor heavy atom, donor atom, acceptor molecule, acceptor atom, score
      L1  H     5    34       P1 10747  0.93
      L1  H    22    46       P1  7949  1.00
      P1  H 10752 10764       L1    22  0.11

> <Gold.PLP.Chemscore.Internal.Correction>
0.4831

> <Gold.Rescore>
     Score         DG    S(hbond)    S(metal)    S(lipo)     H(rot)  DE(clash)    DE(int)     intcor
     13.92     -16.54       2.19        0.00      91.16       2.70       0.59       2.02       ----

> <Gold.Chemscore.Fitness>
13.9226

> <Gold.Chemscore.DG>
-16.5367

> <Gold.Chemscore.ZeroCoef>
-5.4800

> <Gold.Chemscore.Hbond>
2.1895

> <Gold.Chemscore.Metal>
0.0000

> <Gold.Chemscore.Lipo>
91.1641

> <Gold.Chemscore.Internal_Hbond>
0.0000

> <Gold.Chemscore.DEClash>
0.5946

> <Gold.Chemscore.DEInternal>
2.0195

> <Gold.Chemscore.Rot>
2.7041

> <Gold.Chemscore.Internal.Correction>
   9.000000E+99

> <Gold.Chemscore.Hbonds>
donor molecule, donor type, donor heavy atom, donor atom, acceptor molecule, acceptor atom, score
      L1  H     5    34       P1 10747  0.91
      L1  H    22    46       P1  7949  0.93
      P1  H 10752 10764       L1    22  0.11

> <Gold.Chemscore.Hbond.Weighted>
-7.3130

> <Gold.Chemscore.Metal.Weighted>
-0.0000

> <Gold.Chemscore.Lipo.Weighted>
-10.6662

> <Gold.Chemscore.Internal_Hbond.Weighted>
0.0000

> <Gold.Chemscore.DEClash.Weighted>
0.5946

> <Gold.Chemscore.DEInternal.Weighted>
2.0195

> <Gold.Chemscore.Rot.Weighted>
6.9225

> <Gold.Chemscore.Internal.Correction.Weighted>
   9.000000E+99

> <Gold.Protein.RotatedTorsions>
[ 6907 6896 6895 6894 ] final  -55.24 input  -60.11 | X-H torsion
[ 7974 7965 7964 7962 ] final   94.21 input  175.53 | X-H torsion
[ 8008 7997 7996 7995 ] final -147.58 input   59.86 | X-H torsion
[ 10167 10162 10161 10158 ] final  139.67 input  -65.29 | X-H torsion
[ 10718 10713 10712 10709 ] final -117.95 input   66.30 | X-H torsion
[ 10763 10752 10751 10750 ] final  -86.31 input  -60.55 | X-H torsion
[ 11005 11000 10999 10996 ] final -175.68 input  -57.11 | X-H torsion

> <Gold.Protein.ActiveResidues>
 VAL166  LYS551  ARG553  GLY616  TRP617  ASP618  TYR619  PRO620  LYS621  CYS622 
 ASP623  PHE694  ASN695  SER759  ASP760  ASP761  ALA762  ILE779  LEU786  VAL792 
 PHE793  MET794  SER795  GLU796  ALA797  LYS798  CYS799  TRP800  GLU811  SER814 

> <Gold.Protein.RotatedAtoms>
  150.8269  134.7504  159.6819 H   0  0  0  0  0  0  0  0  0  0  0  0  # atno 6907 bound_to 6896
  152.4378  134.5647  159.9914 H   0  0  0  0  0  0  0  0  0  0  0  0  # atno 6908 bound_to 6896
  151.5818  133.3339  159.3046 H   0  0  0  0  0  0  0  0  0  0  0  0  # atno 6909 bound_to 6896
  145.4686  139.2283  143.2947 H   0  0  0  0  0  0  0  0  0  0  0  0  # atno 7974 bound_to 7965
  155.5779  140.0640  157.2790 H   0  0  0  0  0  0  0  0  0  0  0  0  # atno 8008 bound_to 7997
  154.4341  140.1857  156.0992 H   0  0  0  0  0  0  0  0  0  0  0  0  # atno 8009 bound_to 7997
  156.0327  140.3304  155.7161 H   0  0  0  0  0  0  0  0  0  0  0  0  # atno 8010 bound_to 7997
  139.5072  144.6280  151.5888 H   0  0  0  0  0  0  0  0  0  0  0  0  # atno 10167 bound_to 10162
  156.1071  130.6219  150.9229 H   0  0  0  0  0  0  0  0  0  0  0  0  # atno 10718 bound_to 10713
  154.6210  135.5454  153.7575 H   0  0  0  0  0  0  0  0  0  0  0  0  # atno 10763 bound_to 10752
  153.0238  135.6412  154.1441 H   0  0  0  0  0  0  0  0  0  0  0  0  # atno 10764 bound_to 10752
  154.1375  135.2910  155.3149 H   0  0  0  0  0  0  0  0  0  0  0  0  # atno 10765 bound_to 10752
  140.4606  134.6258  157.4841 H   0  0  0  0  0  0  0  0  0  0  0  0  # atno 11005 bound_to 11000
  146.2410  140.5462  142.8934 LP  0  0  0  0  0  0  0  0  0  0  0  0  # atno 17320 bound_to 7965
  144.7959  140.6121  143.6510 LP  0  0  0  0  0  0  0  0  0  0  0  0  # atno 17321 bound_to 7965
  140.6004  143.9620  150.6382 LP  0  0  0  0  0  0  0  0  0  0  0  0  # atno 17342 bound_to 10162
  140.2830  143.3376  152.1133 LP  0  0  0  0  0  0  0  0  0  0  0  0  # atno 17343 bound_to 10162
  157.6248  131.0926  150.8554 LP  0  0  0  0  0  0  0  0  0  0  0  0  # atno 17370 bound_to 10713
  156.8671  130.5133  149.5299 LP  0  0  0  0  0  0  0  0  0  0  0  0  # atno 17371 bound_to 10713
  139.9948  134.6928  155.9628 LP  0  0  0  0  0  0  0  0  0  0  0  0  # atno 17394 bound_to 11000
  141.1623  133.6538  156.4361 LP  0  0  0  0  0  0  0  0  0  0  0  0  # atno 17395 bound_to 11000

$$$$
