AV-unprocessed.smi:112|AV-procd|sdf|1083|dock9
  -GOLD-   2262018173D 1   1.00000     0.00000
 Structure written by MMmdl.
 54 57  0  0  0  0  0  0  0  0  3 V2000
  143.9959  137.4141  155.7484 C   0  0  0  0  0  0  0  0  0  0  0  0
  144.8068  137.6748  154.4884 C   0  0  0  0  0  0  0  0  0  0  0  0
  144.9138  136.7579  153.4992 C   0  0  0  0  0  0  0  0  0  0  0  0
  145.6418  136.9653  152.3412 N   0  0  0  0  0  0  0  0  0  0  0  0
  145.7149  135.9293  151.2401 C   0  0  2  0  0  0  0  0  0  0  0  0
  144.3064  135.5739  150.7418 C   0  0  0  0  0  0  0  0  0  0  0  0
  144.3554  134.0614  150.6477 C   0  0  1  0  0  0  0  0  0  0  0  0
  144.8097  133.6545  149.3705 O   0  0  0  0  0  0  0  0  0  0  0  0
  145.3486  133.7028  151.7599 C   0  0  1  0  0  0  0  0  0  0  0  0
  146.0362  132.3301  151.6646 C   0  0  0  0  0  0  0  0  0  0  0  0
  146.7986  132.2449  150.4795 O   0  0  0  0  0  0  0  0  0  0  0  0
  146.3048  134.7580  151.7267 O   0  0  0  0  0  0  0  0  0  0  0  0
  146.3074  138.1920  152.1470 C   0  0  0  0  0  0  0  0  0  0  0  0
  146.9353  138.4108  151.1082 O   0  0  0  0  0  0  0  0  0  0  0  0
  146.2243  139.1672  153.1661 N   0  0  0  0  0  0  0  0  0  0  0  0
  146.9098  140.4633  152.9610 C   0  0  0  0  0  0  0  0  0  0  0  0
  147.7242  140.9356  154.1857 C   0  0  0  0  0  0  0  0  0  0  0  0
  147.3460  141.9318  154.8033 O   0  0  0  0  0  0  0  0  0  0  0  0
  148.8273  140.2237  154.5263 N   0  0  0  0  0  0  0  0  0  0  0  0
  149.2769  139.0237  153.7989 C   0  0  0  0  0  0  0  0  0  0  0  0
  150.5578  138.5383  154.5122 C   0  0  0  0  0  0  0  0  0  0  0  0
  150.7302  139.5381  155.6173 C   0  0  0  0  0  0  0  0  0  0  0  0
  151.7579  139.5609  156.5755 C   0  0  0  0  0  0  0  0  0  0  0  0
  151.7630  140.5901  157.5497 C   0  0  0  0  0  0  0  0  0  0  0  0
  152.8288  140.6480  158.5699 N   0  3  0  0  0  0  0  0  0  0  0  0
  152.8757  141.6276  159.3070 O   0  0  0  0  0  0  0  0  0  0  0  0
  153.6218  139.7142  158.6352 O   0  5  0  0  0  0  0  0  0  0  0  0
  150.7298  141.5645  157.5297 C   0  0  0  0  0  0  0  0  0  0  0  0
  149.7043  141.5258  156.5597 C   0  0  0  0  0  0  0  0  0  0  0  0
  149.7198  140.4924  155.5980 C   0  0  0  0  0  0  0  0  0  0  0  0
  145.4816  138.9682  154.3557 C   0  0  0  0  0  0  0  0  0  0  0  0
  145.4151  139.8542  155.2101 O   0  0  0  0  0  0  0  0  0  0  0  0
  143.5557  136.4166  155.7493 H   0  0  0  0  0  0  0  0  0  0  0  0
  143.1838  138.1368  155.8347 H   0  0  0  0  0  0  0  0  0  0  0  0
  144.6269  137.4997  156.6338 H   0  0  0  0  0  0  0  0  0  0  0  0
  144.3948  135.8212  153.6324 H   0  0  0  0  0  0  0  0  0  0  0  0
  146.3654  136.3416  150.4668 H   0  0  0  0  0  0  0  0  0  0  0  0
  143.5684  135.8742  151.4878 H   0  0  0  0  0  0  0  0  0  0  0  0
  144.0773  136.0783  149.8022 H   0  0  0  0  0  0  0  0  0  0  0  0
  143.3765  133.6139  150.8219 H   0  0  0  0  0  0  0  0  0  0  0  0
  145.2925  134.3690  148.9834 H   0  0  0  0  0  0  0  0  0  0  0  0
  144.8286  133.7714  152.7168 H   0  0  0  0  0  0  0  0  0  0  0  0
  146.6738  132.1391  152.5280 H   0  0  0  0  0  0  0  0  0  0  0  0
  145.2848  131.5407  151.6454 H   0  0  0  0  0  0  0  0  0  0  0  0
  147.4061  131.5257  150.5639 H   0  0  0  0  0  0  0  0  0  0  0  0
  147.5699  140.4152  152.0940 H   0  0  0  0  0  0  0  0  0  0  0  0
  146.1826  141.2334  152.6998 H   0  0  0  0  0  0  0  0  0  0  0  0
  148.5120  138.2465  153.8238 H   0  0  0  0  0  0  0  0  0  0  0  0
  149.4923  139.2598  152.7560 H   0  0  0  0  0  0  0  0  0  0  0  0
  150.4405  137.5339  154.9202 H   0  0  0  0  0  0  0  0  0  0  0  0
  151.4223  138.5509  153.8474 H   0  0  0  0  0  0  0  0  0  0  0  0
  152.5247  138.8005  156.5562 H   0  0  0  0  0  0  0  0  0  0  0  0
  150.7134  142.3576  158.2627 H   0  0  0  0  0  0  0  0  0  0  0  0
  148.9395  142.2859  156.5797 H   0  0  0  0  0  0  0  0  0  0  0  0
  1  2  1  0  0  0  0
  1 33  1  0  0  0  0
  1 34  1  0  0  0  0
  1 35  1  0  0  0  0
  2 31  1  0  0  0  0
  2  3  2  0  0  0  0
  3  4  1  0  0  0  0
  3 36  1  0  0  0  0
  4  5  1  0  0  0  0
  4 13  1  0  0  0  0
  5 12  1  0  0  0  0
  5  6  1  0  0  0  0
  5 37  1  0  0  0  0
  6  7  1  0  0  0  0
  6 38  1  0  0  0  0
  6 39  1  0  0  0  0
  7  8  1  0  0  0  0
  7  9  1  0  0  0  0
  7 40  1  0  0  0  0
  8 41  1  0  0  0  0
  9 10  1  0  0  0  0
  9 12  1  0  0  0  0
  9 42  1  0  0  0  0
 10 11  1  0  0  0  0
 10 43  1  0  0  0  0
 10 44  1  0  0  0  0
 11 45  1  0  0  0  0
 13 14  2  0  0  0  0
 13 15  1  0  0  0  0
 15 16  1  0  0  0  0
 15 31  1  0  0  0  0
 16 17  1  0  0  0  0
 16 46  1  0  0  0  0
 16 47  1  0  0  0  0
 17 18  2  0  0  0  0
 17 19  1  0  0  0  0
 19 30  1  0  0  0  0
 19 20  1  0  0  0  0
 20 21  1  0  0  0  0
 20 48  1  0  0  0  0
 20 49  1  0  0  0  0
 21 22  1  0  0  0  0
 21 50  1  0  0  0  0
 21 51  1  0  0  0  0
 22 30  2  0  0  0  0
 22 23  1  0  0  0  0
 23 24  2  0  0  0  0
 23 52  1  0  0  0  0
 24 25  1  0  0  0  0
 24 28  1  0  0  0  0
 25 26  2  0  0  0  0
 25 27  1  0  0  0  0
 28 29  2  0  0  0  0
 28 53  1  0  0  0  0
 29 30  1  0  0  0  0
 29 54  1  0  0  0  0
 31 32  2  0  0  0  0
M  CHG  1  25   1
M  CHG  1  27  -1
M  END
> <s_m_source_file>
AV-unprocessed.smi

> <i_m_source_file_index>
112

> <i_lp_mmshare_version>
43012

> <i_f3d_flags>
0

> <s_epik_input>
W09IXVtDSDJdW0NAQEhdKE8xKVtDQEhdKFtPSF0pW0NIMl1bQ0BIXTFuKFtjSF1jMltDSDNdKWMoPU8pbihjMj1PKVtDSDJdQyg9TylOKFtDSDJdW0NIMl0zKWMoYzM0KVtjSF1bY0hdYyhbY0hdNClbTitdKD1PKVtPLV0=

> <s_epik_cmdline>
J2VwaWtfcHl0aG9uJywgJy1waCcsICc3LjAnLCAnLXRuJywgJzgnLCAnLW1hJywgJzIwMCcsICctbWV0YWxfYmluZGluZycsICctaW1hZScsICc8aW5maWxlLm1hZT4nLCAnLW9tYWUnLCAnPG91dGZpbGUubWFlPic=

> <r_lp_tautomer_probability>
1

> <r_epik_Ionization_Penalty>
2.5696e-07

> <r_epik_Ionization_Penalty_Charging>
1.04886e-08

> <r_epik_Ionization_Penalty_Neutral>
2.46472e-07

> <r_epik_State_Penalty>
-0

> <r_epik_Charging_Adjusted_Penalty>
1.04886e-08

> <i_epik_Tot_Q>
0

> <i_epik_Tot_abs_Q>
2

> <r_epik_Metal_State_Penalty>
-0

> <b_epik_Metal_Only>
0

> <s_epik_Chemistry_Notes>
This compound contains an acetal/aminal-like group ( X-CH(R)-Y where X, Y are N, S, or O) that may be acid/base labile, releasing an aldehyde.

> <s_lp_Force_Field>
OPLS_2005

> <r_lp_Energy>
59.5699

> <b_lp_Chiralities_Consistent>
1

> <s_lp_Variant>
AV-unprocessed.smi:112-1

> <Gold.Version>
5.8.1

> <Gold.Id.Protein>
6NUR|6NUR_protein|mol2

> <Gold.PLP.Fitness>
53.1891

> <Gold.PLP.PLP>
-42.1692

> <Gold.PLP.part.hbond>
-3.7928

> <Gold.PLP.part.metal>
0.0000

> <Gold.PLP.part.buried>
-2.1723

> <Gold.PLP.part.nonpolar>
-40.4605

> <Gold.PLP.part.repulsive>
2.8442

> <Gold.PLP.ligand.clash>
0.0770

> <Gold.PLP.ligand.torsion>
0.2459

> <Gold.PLP.Chemscore.Hbond>
3.8560

> <Gold.PLP.Chemscore.CHOScore>
0.0000

> <Gold.PLP.Chemscore.Metal>
0.0000

> <Gold.Chemscore.Hbonds>
donor molecule, donor type, donor heavy atom, donor atom, acceptor molecule, acceptor atom, score
      L1  H     8    41       P1  7921  0.85
      L1  H    11    45       P1 10747  0.99
      P1  H  7954  7966       L1    14  1.00
      P1  H  7997  8010       L1    27  1.00

> <Gold.PLP.Chemscore.Internal.Correction>
0.0209

> <Gold.Rescore>
     Score         DG    S(hbond)    S(metal)    S(lipo)     H(rot)  DE(clash)    DE(int)     intcor
     13.25     -19.55       3.75        0.00      85.12       3.29       1.92       4.39       ----

> <Gold.Chemscore.Fitness>
13.2465

> <Gold.Chemscore.DG>
-19.5510

> <Gold.Chemscore.ZeroCoef>
-5.4800

> <Gold.Chemscore.Hbond>
3.7541

> <Gold.Chemscore.Metal>
0.0000

> <Gold.Chemscore.Lipo>
85.1169

> <Gold.Chemscore.Internal_Hbond>
0.0000

> <Gold.Chemscore.DEClash>
1.9183

> <Gold.Chemscore.DEInternal>
4.3861

> <Gold.Chemscore.Rot>
3.2916

> <Gold.Chemscore.Internal.Correction>
   9.000000E+99

> <Gold.Chemscore.Hbonds>
donor molecule, donor type, donor heavy atom, donor atom, acceptor molecule, acceptor atom, score
      L1  H     8    41       P1  7921  0.84
      L1  H    11    45       P1 10747  0.93
      P1  H  7954  7966       L1    14  0.99
      P1  H  7997  8010       L1    27  0.53

> <Gold.Chemscore.Hbond.Weighted>
-12.5388

> <Gold.Chemscore.Metal.Weighted>
-0.0000

> <Gold.Chemscore.Lipo.Weighted>
-9.9587

> <Gold.Chemscore.Internal_Hbond.Weighted>
0.0000

> <Gold.Chemscore.DEClash.Weighted>
1.9183

> <Gold.Chemscore.DEInternal.Weighted>
4.3861

> <Gold.Chemscore.Rot.Weighted>
8.4265

> <Gold.Chemscore.Internal.Correction.Weighted>
   9.000000E+99

> <Gold.Protein.RotatedTorsions>
[ 6907 6896 6895 6894 ] final  -19.30 input  -60.11 | X-H torsion
[ 7974 7965 7964 7962 ] final -108.20 input  175.53 | X-H torsion
[ 8008 7997 7996 7995 ] final   10.13 input   59.86 | X-H torsion
[ 10167 10162 10161 10158 ] final  145.45 input  -65.29 | X-H torsion
[ 10718 10713 10712 10709 ] final   44.27 input   66.30 | X-H torsion
[ 10763 10752 10751 10750 ] final  -48.94 input  -60.55 | X-H torsion
[ 11005 11000 10999 10996 ] final   94.97 input  -57.11 | X-H torsion

> <Gold.Protein.ActiveResidues>
 VAL166  LYS551  ARG553  GLY616  TRP617  ASP618  TYR619  PRO620  LYS621  CYS622 
 ASP623  PHE694  ASN695  SER759  ASP760  ASP761  ALA762  ILE779  LEU786  VAL792 
 PHE793  MET794  SER795  GLU796  ALA797  LYS798  CYS799  TRP800  GLU811  SER814 

> <Gold.Protein.RotatedAtoms>
  151.2653  135.0667  159.9113 H   0  0  0  0  0  0  0  0  0  0  0  0  # atno 6907 bound_to 6896
  152.5359  134.0188  159.7982 H   0  0  0  0  0  0  0  0  0  0  0  0  # atno 6908 bound_to 6896
  151.0417  133.5650  159.2681 H   0  0  0  0  0  0  0  0  0  0  0  0  # atno 6909 bound_to 6896
  145.1959  140.9035  143.3398 H   0  0  0  0  0  0  0  0  0  0  0  0  # atno 7974 bound_to 7965
  154.7893  140.2833  155.6004 H   0  0  0  0  0  0  0  0  0  0  0  0  # atno 8008 bound_to 7997
  156.2962  140.2608  156.2665 H   0  0  0  0  0  0  0  0  0  0  0  0  # atno 8009 bound_to 7997
  154.9690  140.0376  157.2215 H   0  0  0  0  0  0  0  0  0  0  0  0  # atno 8010 bound_to 7997
  139.4926  144.5901  151.6699 H   0  0  0  0  0  0  0  0  0  0  0  0  # atno 10167 bound_to 10162
  157.4250  130.7991  149.7550 H   0  0  0  0  0  0  0  0  0  0  0  0  # atno 10718 bound_to 10713
  154.0860  135.6584  153.4845 H   0  0  0  0  0  0  0  0  0  0  0  0  # atno 10763 bound_to 10752
  153.0339  135.5191  154.7427 H   0  0  0  0  0  0  0  0  0  0  0  0  # atno 10764 bound_to 10752
  154.6537  135.3005  154.9923 H   0  0  0  0  0  0  0  0  0  0  0  0  # atno 10765 bound_to 10752
  139.8793  134.8874  156.3943 H   0  0  0  0  0  0  0  0  0  0  0  0  # atno 11005 bound_to 11000
  144.9995  139.3611  143.6174 LP  0  0  0  0  0  0  0  0  0  0  0  0  # atno 17320 bound_to 7965
  146.3427  139.9213  142.8766 LP  0  0  0  0  0  0  0  0  0  0  0  0  # atno 17321 bound_to 7965
  140.5526  144.0401  150.6133 LP  0  0  0  0  0  0  0  0  0  0  0  0  # atno 17342 bound_to 10162
  140.3460  143.2991  152.0538 LP  0  0  0  0  0  0  0  0  0  0  0  0  # atno 17343 bound_to 10162
  155.9893  130.3952  150.3077 LP  0  0  0  0  0  0  0  0  0  0  0  0  # atno 17370 bound_to 10713
  157.1229  131.0251  151.3002 LP  0  0  0  0  0  0  0  0  0  0  0  0  # atno 17371 bound_to 10713
  140.9311  133.7578  156.0026 LP  0  0  0  0  0  0  0  0  0  0  0  0  # atno 17394 bound_to 11000
  140.8329  134.3157  157.5342 LP  0  0  0  0  0  0  0  0  0  0  0  0  # atno 17395 bound_to 11000

$$$$
