AV-unprocessed.smi:2468|AV-procd|sdf|9731|dock5
  -GOLD-   2272013373D 1   1.00000     0.00000
 Structure written by MMmdl.
 32 33  0  0  0  0  0  0  0  0  1 V2000
  152.8174  143.9747  161.5269 C   0  0  0  0  0  0  0  0  0  0  0  0
  152.0655  143.5172  160.2908 C   0  0  0  0  0  0  0  0  0  0  0  0
  151.0547  144.3196  159.8915 N   0  0  0  0  0  0  0  0  0  0  0  0
  150.3594  143.9645  158.7918 C   0  0  0  0  0  0  0  0  0  0  0  0
  150.6295  142.8013  158.0462 C   0  0  0  0  0  0  0  0  0  0  0  0
  151.6771  141.9489  158.4709 C   0  0  0  0  0  0  0  0  0  0  0  0
  152.0481  140.7576  157.7867 N   0  0  0  0  0  0  0  0  0  0  0  0
  151.4346  140.1419  156.7595 C   0  0  0  0  0  0  0  0  0  0  0  0
  150.4133  140.5505  156.2067 O   0  0  0  0  0  0  0  0  0  0  0  0
  152.0956  138.8381  156.2808 C   0  0  2  0  0  0  0  0  0  0  0  0
  153.2824  139.1939  155.5689 O   0  0  0  0  0  0  0  0  0  0  0  0
  153.2169  138.7477  154.2169 C   0  0  0  0  0  0  0  0  0  0  0  0
  151.7371  138.5129  153.9388 C   0  0  0  0  0  0  0  0  0  0  0  0
  151.2669  137.9977  155.2838 C   0  0  2  0  0  0  0  0  0  0  0  0
  149.7381  137.9868  155.4662 C   0  0  0  0  0  0  0  0  0  0  0  0
  152.4201  142.3263  159.6143 C   0  0  0  0  0  0  0  0  0  0  0  0
  153.7338  141.3485  160.1791 Cl  0  0  0  0  0  0  0  0  0  0  0  0
  152.7999  143.1988  162.2926 H   0  0  0  0  0  0  0  0  0  0  0  0
  152.3774  144.8771  161.9535 H   0  0  0  0  0  0  0  0  0  0  0  0
  153.8567  144.1913  161.2785 H   0  0  0  0  0  0  0  0  0  0  0  0
  149.5660  144.6329  158.4916 H   0  0  0  0  0  0  0  0  0  0  0  0
  150.0403  142.5978  157.1658 H   0  0  0  0  0  0  0  0  0  0  0  0
  152.8395  140.2681  158.1792 H   0  0  0  0  0  0  0  0  0  0  0  0
  152.3666  138.2273  157.1437 H   0  0  0  0  0  0  0  0  0  0  0  0
  153.6628  139.4720  153.5349 H   0  0  0  0  0  0  0  0  0  0  0  0
  153.7725  137.8130  154.1300 H   0  0  0  0  0  0  0  0  0  0  0  0
  151.2433  139.4521  153.6866 H   0  0  0  0  0  0  0  0  0  0  0  0
  151.5662  137.8069  153.1256 H   0  0  0  0  0  0  0  0  0  0  0  0
  151.6077  136.9651  155.3775 H   0  0  0  0  0  0  0  0  0  0  0  0
  149.2968  138.9696  155.2997 H   0  0  0  0  0  0  0  0  0  0  0  0
  149.4670  137.6618  156.4710 H   0  0  0  0  0  0  0  0  0  0  0  0
  149.2717  137.2995  154.7601 H   0  0  0  0  0  0  0  0  0  0  0  0
  1  2  1  0  0  0  0
  1 18  1  0  0  0  0
  1 19  1  0  0  0  0
  1 20  1  0  0  0  0
  2 16  1  0  0  0  0
  2  3  2  0  0  0  0
  3  4  1  0  0  0  0
  4  5  2  0  0  0  0
  4 21  1  0  0  0  0
  5  6  1  0  0  0  0
  5 22  1  0  0  0  0
  6  7  1  0  0  0  0
  6 16  2  0  0  0  0
  7  8  1  0  0  0  0
  7 23  1  0  0  0  0
  8  9  2  0  0  0  0
  8 10  1  0  0  0  0
 10 14  1  0  0  0  0
 10 11  1  0  0  0  0
 10 24  1  0  0  0  0
 11 12  1  0  0  0  0
 12 13  1  0  0  0  0
 12 25  1  0  0  0  0
 12 26  1  0  0  0  0
 13 14  1  0  0  0  0
 13 27  1  0  0  0  0
 13 28  1  0  0  0  0
 14 15  1  0  0  0  0
 14 29  1  0  0  0  0
 15 30  1  0  0  0  0
 15 31  1  0  0  0  0
 15 32  1  0  0  0  0
 16 17  1  0  0  0  0
M  END
> <s_m_source_file>
AV-unprocessed.smi

> <i_m_source_file_index>
2468

> <i_lp_mmshare_version>
43012

> <i_f3d_flags>
0

> <s_epik_input>
W0NIM11jMW5bY0hdW2NIXWMoYzFDbClbTkhdQyg9TylbQ0BASF0yT1tDSDJdW0NIMl1bQ0BIXTJbQ0gzXQ==

> <s_epik_cmdline>
J2VwaWtfcHl0aG9uJywgJy1waCcsICc3LjAnLCAnLXRuJywgJzgnLCAnLW1hJywgJzIwMCcsICctbWV0YWxfYmluZGluZycsICctaW1hZScsICc8aW5maWxlLm1hZT4nLCAnLW9tYWUnLCAnPG91dGZpbGUubWFlPic=

> <r_epik_Ionization_Penalty>
0.000361027

> <r_epik_Ionization_Penalty_Charging>
0

> <r_epik_Ionization_Penalty_Neutral>
0.000361027

> <r_epik_State_Penalty>
0.000217849

> <r_epik_Charging_Adjusted_Penalty>
0.000217849

> <i_epik_Tot_Q>
0

> <i_epik_Tot_abs_Q>
0

> <r_epik_Metal_State_Penalty>
-0

> <b_epik_Metal_Only>
0

> <s_lp_Force_Field>
OPLS_2005

> <r_lp_Energy>
25.639

> <b_lp_Chiralities_Consistent>
1

> <s_lp_Variant>
AV-unprocessed.smi:2468-3

> <Gold.Version>
5.8.1

> <Gold.Id.Protein>
6NUR|6NUR_protein|mol2

> <Gold.PLP.Fitness>
37.5596

> <Gold.PLP.PLP>
-31.8189

> <Gold.PLP.part.hbond>
-0.9237

> <Gold.PLP.part.metal>
0.0000

> <Gold.PLP.part.buried>
-6.4163

> <Gold.PLP.part.nonpolar>
-25.5585

> <Gold.PLP.part.repulsive>
0.2133

> <Gold.PLP.ligand.clash>
0.0000

> <Gold.PLP.ligand.torsion>
0.2780

> <Gold.PLP.Chemscore.Hbond>
1.0000

> <Gold.PLP.Chemscore.CHOScore>
1.0952

> <Gold.PLP.Chemscore.Metal>
0.0000

> <Gold.Chemscore.Hbonds>
donor molecule, donor type, donor heavy atom, donor atom, acceptor molecule, acceptor atom, score
      P1  H  7997  8010       L1    11  1.00
      L1  C     4    21       P1  8028  0.02
      L1  C     4    21       P1  8029  1.00

> <Gold.PLP.Chemscore.Internal.Correction>
0.0109

> <Gold.Rescore>
     Score         DG    S(hbond)    S(metal)    S(lipo)     H(rot)  DE(clash)    DE(int)     intcor
     14.24     -17.51       0.92        0.00      98.41       1.00       0.21       3.06       ----

> <Gold.Chemscore.Fitness>
14.2368

> <Gold.Chemscore.DG>
-17.5067

> <Gold.Chemscore.ZeroCoef>
-5.4800

> <Gold.Chemscore.Hbond>
0.9200

> <Gold.Chemscore.Metal>
0.0000

> <Gold.Chemscore.Lipo>
98.4096

> <Gold.Chemscore.Internal_Hbond>
0.0000

> <Gold.Chemscore.DEClash>
0.2083

> <Gold.Chemscore.DEInternal>
3.0616

> <Gold.Chemscore.Rot>
1.0000

> <Gold.Chemscore.Internal.Correction>
   9.000000E+99

> <Gold.Chemscore.Hbonds>
donor molecule, donor type, donor heavy atom, donor atom, acceptor molecule, acceptor atom, score
      P1  H  7997  8010       L1    11  0.92

> <Gold.Chemscore.Hbond.Weighted>
-3.0728

> <Gold.Chemscore.Metal.Weighted>
-0.0000

> <Gold.Chemscore.Lipo.Weighted>
-11.5139

> <Gold.Chemscore.Internal_Hbond.Weighted>
0.0000

> <Gold.Chemscore.DEClash.Weighted>
0.2083

> <Gold.Chemscore.DEInternal.Weighted>
3.0616

> <Gold.Chemscore.Rot.Weighted>
2.5600

> <Gold.Chemscore.Internal.Correction.Weighted>
   9.000000E+99

> <Gold.Protein.RotatedTorsions>
[ 6907 6896 6895 6894 ] final  134.07 input  -60.11 | X-H torsion
[ 7974 7965 7964 7962 ] final  -14.05 input  175.53 | X-H torsion
[ 8008 7997 7996 7995 ] final   80.19 input   59.86 | X-H torsion
[ 10167 10162 10161 10158 ] final -127.07 input  -65.29 | X-H torsion
[ 10718 10713 10712 10709 ] final  164.15 input   66.30 | X-H torsion
[ 10763 10752 10751 10750 ] final  167.88 input  -60.55 | X-H torsion
[ 11005 11000 10999 10996 ] final  -37.11 input  -57.11 | X-H torsion

> <Gold.Protein.ActiveResidues>
 VAL166  LYS551  ARG553  GLY616  TRP617  ASP618  TYR619  PRO620  LYS621  CYS622 
 ASP623  PHE694  ASN695  SER759  ASP760  ASP761  ALA762  ILE779  LEU786  VAL792 
 PHE793  MET794  SER795  GLU796  ALA797  LYS798  CYS799  TRP800  GLU811  SER814 

> <Gold.Protein.RotatedAtoms>
  152.3152  133.5795  159.5707 H   0  0  0  0  0  0  0  0  0  0  0  0  # atno 6907 bound_to 6896
  150.7343  134.0093  159.3673 H   0  0  0  0  0  0  0  0  0  0  0  0  # atno 6908 bound_to 6896
  151.7983  135.0717  160.0447 H   0  0  0  0  0  0  0  0  0  0  0  0  # atno 6909 bound_to 6896
  146.2090  140.3293  142.8397 H   0  0  0  0  0  0  0  0  0  0  0  0  # atno 7974 bound_to 7965
  155.8801  140.3444  155.5882 H   0  0  0  0  0  0  0  0  0  0  0  0  # atno 8008 bound_to 7997
  155.7729  140.0848  157.2118 H   0  0  0  0  0  0  0  0  0  0  0  0  # atno 8009 bound_to 7997
  154.4024  140.1515  156.2950 H   0  0  0  0  0  0  0  0  0  0  0  0  # atno 8010 bound_to 7997
  139.9647  143.5911  152.2433 H   0  0  0  0  0  0  0  0  0  0  0  0  # atno 10167 bound_to 10162
  157.0984  131.0436  151.2508 H   0  0  0  0  0  0  0  0  0  0  0  0  # atno 10718 bound_to 10713
  154.3604  135.2753  155.2323 H   0  0  0  0  0  0  0  0  0  0  0  0  # atno 10763 bound_to 10752
  154.4514  135.5930  153.6197 H   0  0  0  0  0  0  0  0  0  0  0  0  # atno 10764 bound_to 10752
  152.9844  135.6042  154.3824 H   0  0  0  0  0  0  0  0  0  0  0  0  # atno 10765 bound_to 10752
  140.9926  133.6997  156.1878 H   0  0  0  0  0  0  0  0  0  0  0  0  # atno 11005 bound_to 11000
  144.8864  140.7467  143.5954 LP  0  0  0  0  0  0  0  0  0  0  0  0  # atno 17320 bound_to 7965
  145.3214  139.1787  143.4586 LP  0  0  0  0  0  0  0  0  0  0  0  0  # atno 17321 bound_to 7965
  139.6527  144.7661  151.2117 LP  0  0  0  0  0  0  0  0  0  0  0  0  # atno 17342 bound_to 10162
  140.7542  143.6135  150.8582 LP  0  0  0  0  0  0  0  0  0  0  0  0  # atno 17343 bound_to 10162
  157.4662  130.7682  149.7281 LP  0  0  0  0  0  0  0  0  0  0  0  0  # atno 17370 bound_to 10713
  155.9880  130.3963  150.3140 LP  0  0  0  0  0  0  0  0  0  0  0  0  # atno 17371 bound_to 10713
  140.7016  134.4558  157.5586 LP  0  0  0  0  0  0  0  0  0  0  0  0  # atno 17394 bound_to 11000
  139.8999  134.8580  156.1939 LP  0  0  0  0  0  0  0  0  0  0  0  0  # atno 17395 bound_to 11000

$$$$
