AV-unprocessed.smi:1906|AV-procd|sdf|7728|dock10
  -GOLD-   22720 9473D 1   1.00000     0.00000
 Structure written by MMmdl.
 35 37  0  0  0  0  0  0  0  0  1 V2000
  152.2490  138.4580  158.9660 C   0  0  0  0  0  0  0  0  0  0  0  0
  152.0958  139.9451  159.0095 C   0  0  0  0  0  0  0  0  0  0  0  0
  152.7750  140.7011  159.8721 N   0  0  0  0  0  0  0  0  0  0  0  0
  152.3397  141.9759  159.5663 C   0  0  0  0  0  0  0  0  0  0  0  0
  152.6864  143.2248  160.1291 C   0  0  0  0  0  0  0  0  0  0  0  0
  152.1032  144.4134  159.6429 C   0  0  0  0  0  0  0  0  0  0  0  0
  151.1672  144.3705  158.5893 C   0  0  0  0  0  0  0  0  0  0  0  0
  150.8074  143.1364  158.0147 C   0  0  0  0  0  0  0  0  0  0  0  0
  151.3913  141.9530  158.5046 C   0  0  0  0  0  0  0  0  0  0  0  0
  151.2551  140.6080  158.1762 N   0  0  0  0  0  0  0  0  0  0  0  0
  150.3816  140.0614  157.1461 C   0  0  0  0  0  0  0  0  0  0  0  0
  150.5272  140.8012  155.8008 C   0  0  1  0  0  0  0  0  0  0  0  0
  151.6909  140.3235  155.1571 O   0  0  0  0  0  0  0  0  0  0  0  0
  149.2858  140.6705  154.9288 C   0  0  0  0  0  0  0  0  0  0  0  0
  149.0085  139.4685  154.2405 C   0  0  0  0  0  0  0  0  0  0  0  0
  147.8449  139.3527  153.4554 C   0  0  0  0  0  0  0  0  0  0  0  0
  146.9516  140.4364  153.3546 C   0  0  0  0  0  0  0  0  0  0  0  0
  147.2223  141.6366  154.0389 C   0  0  0  0  0  0  0  0  0  0  0  0
  146.3624  142.6781  153.9450 F   0  0  0  0  0  0  0  0  0  0  0  0
  148.3861  141.7532  154.8231 C   0  0  0  0  0  0  0  0  0  0  0  0
  152.9503  138.1233  159.7309 H   0  0  0  0  0  0  0  0  0  0  0  0
  152.6284  138.1457  157.9929 H   0  0  0  0  0  0  0  0  0  0  0  0
  151.2905  137.9726  159.1466 H   0  0  0  0  0  0  0  0  0  0  0  0
  153.4025  143.2683  160.9362 H   0  0  0  0  0  0  0  0  0  0  0  0
  152.3763  145.3626  160.0801 H   0  0  0  0  0  0  0  0  0  0  0  0
  150.7253  145.2852  158.2219 H   0  0  0  0  0  0  0  0  0  0  0  0
  150.0909  143.0994  157.2075 H   0  0  0  0  0  0  0  0  0  0  0  0
  150.6425  139.0096  157.0210 H   0  0  0  0  0  0  0  0  0  0  0  0
  149.3459  140.0781  157.4858 H   0  0  0  0  0  0  0  0  0  0  0  0
  150.7016  141.8606  155.9925 H   0  0  0  0  0  0  0  0  0  0  0  0
  151.6300  139.3829  155.0890 H   0  0  0  0  0  0  0  0  0  0  0  0
  149.6823  138.6279  154.3189 H   0  0  0  0  0  0  0  0  0  0  0  0
  147.6357  138.4311  152.9328 H   0  0  0  0  0  0  0  0  0  0  0  0
  146.0584  140.3465  152.7542 H   0  0  0  0  0  0  0  0  0  0  0  0
  148.5814  142.6749  155.3520 H   0  0  0  0  0  0  0  0  0  0  0  0
  1  2  1  0  0  0  0
  1 21  1  0  0  0  0
  1 22  1  0  0  0  0
  1 23  1  0  0  0  0
  2 10  1  0  0  0  0
  2  3  2  0  0  0  0
  3  4  1  0  0  0  0
  4  9  2  0  0  0  0
  4  5  1  0  0  0  0
  5  6  2  0  0  0  0
  5 24  1  0  0  0  0
  6  7  1  0  0  0  0
  6 25  1  0  0  0  0
  7  8  2  0  0  0  0
  7 26  1  0  0  0  0
  8  9  1  0  0  0  0
  8 27  1  0  0  0  0
  9 10  1  0  0  0  0
 10 11  1  0  0  0  0
 11 12  1  0  0  0  0
 11 28  1  0  0  0  0
 11 29  1  0  0  0  0
 12 13  1  0  0  0  0
 12 14  1  0  0  0  0
 12 30  1  0  0  0  0
 13 31  1  0  0  0  0
 14 20  1  0  0  0  0
 14 15  2  0  0  0  0
 15 16  1  0  0  0  0
 15 32  1  0  0  0  0
 16 17  2  0  0  0  0
 16 33  1  0  0  0  0
 17 18  1  0  0  0  0
 17 34  1  0  0  0  0
 18 19  1  0  0  0  0
 18 20  2  0  0  0  0
 20 35  1  0  0  0  0
M  END
> <s_m_source_file>
AV-unprocessed.smi

> <i_m_source_file_index>
1906

> <i_lp_mmshare_version>
43012

> <i_f3d_flags>
0

> <s_epik_input>
W2NIXTFbY0hdW2NIXVtjSF1jKGMxMiluKGMobjIpW0NIM10pW0NIMl1bQ0BIXShbT0hdKWMzW2NIXVtjSF1bY0hdYyhGKVtjSF0z

> <s_epik_cmdline>
J2VwaWtfcHl0aG9uJywgJy1waCcsICc3LjAnLCAnLXRuJywgJzgnLCAnLW1hJywgJzIwMCcsICctbWV0YWxfYmluZGluZycsICctaW1hZScsICc8aW5maWxlLm1hZT4nLCAnLW9tYWUnLCAnPG91dGZpbGUubWFlPic=

> <r_epik_Ionization_Penalty>
0.129664

> <r_epik_Ionization_Penalty_Charging>
0

> <r_epik_Ionization_Penalty_Neutral>
0.129664

> <r_epik_State_Penalty>
0.119073

> <r_epik_Charging_Adjusted_Penalty>
0.119073

> <i_epik_Tot_Q>
0

> <i_epik_Tot_abs_Q>
0

> <r_epik_Metal_State_Penalty>
0.000131867

> <b_epik_Metal_Only>
0

> <s_lp_Force_Field>
OPLS_2005

> <r_lp_Energy>
11.7028

> <b_lp_Chiralities_Consistent>
1

> <s_lp_Variant>
AV-unprocessed.smi:1906-2

> <Gold.Version>
5.8.1

> <Gold.Id.Protein>
6NUR|6NUR_protein|mol2

> <Gold.PLP.Fitness>
50.2200

> <Gold.PLP.PLP>
-48.9699

> <Gold.PLP.part.hbond>
-1.0000

> <Gold.PLP.part.metal>
0.0000

> <Gold.PLP.part.buried>
-3.7480

> <Gold.PLP.part.nonpolar>
-43.5882

> <Gold.PLP.part.repulsive>
0.0000

> <Gold.PLP.ligand.clash>
0.0000

> <Gold.PLP.ligand.torsion>
0.7017

> <Gold.PLP.Chemscore.Hbond>
0.8800

> <Gold.PLP.Chemscore.CHOScore>
0.0000

> <Gold.PLP.Chemscore.Metal>
0.0000

> <Gold.Chemscore.Hbonds>
donor molecule, donor type, donor heavy atom, donor atom, acceptor molecule, acceptor atom, score
      P1  H  7989  7998       L1    13  0.86

> <Gold.PLP.Chemscore.Internal.Correction>
0.0134

> <Gold.Rescore>
     Score         DG    S(hbond)    S(metal)    S(lipo)     H(rot)  DE(clash)    DE(int)     intcor
     16.94     -17.23       0.80        0.00     116.89       1.79       0.00       0.29       ----

> <Gold.Chemscore.Fitness>
16.9394

> <Gold.Chemscore.DG>
-17.2265

> <Gold.Chemscore.ZeroCoef>
-5.4800

> <Gold.Chemscore.Hbond>
0.7964

> <Gold.Chemscore.Metal>
0.0000

> <Gold.Chemscore.Lipo>
116.8855

> <Gold.Chemscore.Internal_Hbond>
0.0000

> <Gold.Chemscore.DEClash>
0.0000

> <Gold.Chemscore.DEInternal>
0.2871

> <Gold.Chemscore.Rot>
1.7926

> <Gold.Chemscore.Internal.Correction>
   9.000000E+99

> <Gold.Chemscore.Hbonds>
donor molecule, donor type, donor heavy atom, donor atom, acceptor molecule, acceptor atom, score
      P1  H  7989  7998       L1    13  0.28

> <Gold.Chemscore.Hbond.Weighted>
-2.6599

> <Gold.Chemscore.Metal.Weighted>
-0.0000

> <Gold.Chemscore.Lipo.Weighted>
-13.6756

> <Gold.Chemscore.Internal_Hbond.Weighted>
0.0000

> <Gold.Chemscore.DEClash.Weighted>
0.0000

> <Gold.Chemscore.DEInternal.Weighted>
0.2871

> <Gold.Chemscore.Rot.Weighted>
4.5890

> <Gold.Chemscore.Internal.Correction.Weighted>
   9.000000E+99

> <Gold.Protein.RotatedTorsions>
[ 6907 6896 6895 6894 ] final  124.71 input  -60.11 | X-H torsion
[ 7974 7965 7964 7962 ] final  -42.96 input  175.53 | X-H torsion
[ 8008 7997 7996 7995 ] final -133.21 input   59.86 | X-H torsion
[ 10167 10162 10161 10158 ] final   81.39 input  -65.29 | X-H torsion
[ 10718 10713 10712 10709 ] final  121.10 input   66.30 | X-H torsion
[ 10763 10752 10751 10750 ] final  168.17 input  -60.55 | X-H torsion
[ 11005 11000 10999 10996 ] final   53.05 input  -57.11 | X-H torsion

> <Gold.Protein.ActiveResidues>
 VAL166  LYS551  ARG553  GLY616  TRP617  ASP618  TYR619  PRO620  LYS621  CYS622 
 ASP623  PHE694  ASN695  SER759  ASP760  ASP761  ALA762  ILE779  LEU786  VAL792 
 PHE793  MET794  SER795  GLU796  ALA797  LYS798  CYS799  TRP800  GLU811  SER814 

> <Gold.Protein.RotatedAtoms>
  152.4055  133.6882  159.6352 H   0  0  0  0  0  0  0  0  0  0  0  0  # atno 6907 bound_to 6896
  150.7940  133.8717  159.3269 H   0  0  0  0  0  0  0  0  0  0  0  0  # atno 6908 bound_to 6896
  151.6472  135.1007  160.0205 H   0  0  0  0  0  0  0  0  0  0  0  0  # atno 6909 bound_to 6896
  146.0065  140.7013  142.9245 H   0  0  0  0  0  0  0  0  0  0  0  0  # atno 7974 bound_to 7965
  155.3417  140.0472  157.3045 H   0  0  0  0  0  0  0  0  0  0  0  0  # atno 8008 bound_to 7997
  154.5274  140.2245  155.8830 H   0  0  0  0  0  0  0  0  0  0  0  0  # atno 8009 bound_to 7997
  156.1753  140.3086  155.9054 H   0  0  0  0  0  0  0  0  0  0  0  0  # atno 8010 bound_to 7997
  139.9397  144.6098  150.8264 H   0  0  0  0  0  0  0  0  0  0  0  0  # atno 10167 bound_to 10162
  157.5843  131.1071  150.8126 H   0  0  0  0  0  0  0  0  0  0  0  0  # atno 10718 bound_to 10713
  154.3646  135.2753  155.2301 H   0  0  0  0  0  0  0  0  0  0  0  0  # atno 10763 bound_to 10752
  154.4474  135.5939  153.6173 H   0  0  0  0  0  0  0  0  0  0  0  0  # atno 10764 bound_to 10752
  152.9841  135.6033  154.3870 H   0  0  0  0  0  0  0  0  0  0  0  0  # atno 10765 bound_to 10752
  140.0799  134.5353  155.8958 H   0  0  0  0  0  0  0  0  0  0  0  0  # atno 11005 bound_to 11000
  144.6938  140.3325  143.7213 LP  0  0  0  0  0  0  0  0  0  0  0  0  # atno 17320 bound_to 7965
  145.7407  139.1763  143.2377 LP  0  0  0  0  0  0  0  0  0  0  0  0  # atno 17321 bound_to 7965
  140.7614  143.3174  151.2701 LP  0  0  0  0  0  0  0  0  0  0  0  0  # atno 17342 bound_to 10162
  139.6714  144.0013  152.2755 LP  0  0  0  0  0  0  0  0  0  0  0  0  # atno 17343 bound_to 10162
  156.8565  130.5098  149.5307 LP  0  0  0  0  0  0  0  0  0  0  0  0  # atno 17370 bound_to 10713
  156.0890  130.5881  150.9700 LP  0  0  0  0  0  0  0  0  0  0  0  0  # atno 17371 bound_to 10713
  141.2043  133.6638  156.6112 LP  0  0  0  0  0  0  0  0  0  0  0  0  # atno 17394 bound_to 11000
  140.3503  134.7774  157.4462 LP  0  0  0  0  0  0  0  0  0  0  0  0  # atno 17395 bound_to 11000

$$$$
