AV-unprocessed.smi:2346|AV-procd|sdf|9365|dock2
  -GOLD-   2272012583D 1   1.00000     0.00000
 Structure written by MMmdl.
 44 46  0  0  0  0  0  0  0  0  1 V2000
  155.1927  133.5713  160.1607 C   0  0  0  0  0  0  0  0  0  0  0  0
  154.4531  134.7662  159.9555 O   0  0  0  0  0  0  0  0  0  0  0  0
  154.4592  135.7209  160.9518 C   0  0  0  0  0  0  0  0  0  0  0  0
  155.2255  135.6099  162.1401 C   0  0  0  0  0  0  0  0  0  0  0  0
  155.1850  136.6248  163.1159 C   0  0  0  0  0  0  0  0  0  0  0  0
  155.9746  136.5012  164.3298 C   0  0  0  0  0  0  0  0  0  0  0  0
  156.6033  136.4028  165.2961 N   0  0  0  0  0  0  0  0  0  0  0  0
  154.3781  137.7589  162.9129 C   0  0  0  0  0  0  0  0  0  0  0  0
  153.6140  137.8778  161.7383 C   0  0  0  0  0  0  0  0  0  0  0  0
  153.6483  136.8619  160.7496 C   0  0  0  0  0  0  0  0  0  0  0  0
  152.9256  136.9135  159.5751 O   0  0  0  0  0  0  0  0  0  0  0  0
  152.2083  138.1015  159.2729 C   0  0  0  0  0  0  0  0  0  0  0  0
  152.9120  138.8132  158.1113 C   0  0  0  0  0  0  0  0  0  0  0  0
  152.2940  140.0952  157.8044 N   0  0  0  0  0  0  0  0  0  0  0  0
  151.5986  140.4632  156.6951 C   0  0  0  0  0  0  0  0  0  0  0  0
  151.3625  139.5401  155.5296 C   0  0  2  0  0  0  0  0  0  0  0  0
  152.6783  139.0406  154.9163 C   0  0  0  0  0  0  0  0  0  0  0  0
  150.6055  140.1585  154.5093 O   0  0  0  0  0  0  0  0  0  0  0  0
  151.1332  141.7146  156.6980 N   0  0  0  0  0  0  0  0  0  0  0  0
  151.5740  142.2058  157.9098 C   0  0  0  0  0  0  0  0  0  0  0  0
  151.4070  143.4796  158.4988 C   0  0  0  0  0  0  0  0  0  0  0  0
  151.9583  143.7574  159.7667 C   0  0  0  0  0  0  0  0  0  0  0  0
  152.6835  142.7680  160.4614 C   0  0  0  0  0  0  0  0  0  0  0  0
  152.8606  141.4921  159.8923 C   0  0  0  0  0  0  0  0  0  0  0  0
  152.3068  141.2188  158.6266 C   0  0  0  0  0  0  0  0  0  0  0  0
  155.0826  132.9266  159.2888 H   0  0  0  0  0  0  0  0  0  0  0  0
  154.8252  133.0189  161.0266 H   0  0  0  0  0  0  0  0  0  0  0  0
  156.2569  133.7759  160.2858 H   0  0  0  0  0  0  0  0  0  0  0  0
  155.8534  134.7501  162.3213 H   0  0  0  0  0  0  0  0  0  0  0  0
  154.3400  138.5436  163.6551 H   0  0  0  0  0  0  0  0  0  0  0  0
  153.0076  138.7628  161.6203 H   0  0  0  0  0  0  0  0  0  0  0  0
  151.1822  137.8606  158.9899 H   0  0  0  0  0  0  0  0  0  0  0  0
  152.1797  138.7526  160.1465 H   0  0  0  0  0  0  0  0  0  0  0  0
  153.9707  138.9601  158.3229 H   0  0  0  0  0  0  0  0  0  0  0  0
  152.8740  138.1856  157.2206 H   0  0  0  0  0  0  0  0  0  0  0  0
  150.7886  138.6728  155.8493 H   0  0  0  0  0  0  0  0  0  0  0  0
  153.2866  138.5196  155.6554 H   0  0  0  0  0  0  0  0  0  0  0  0
  153.2723  139.8668  154.5239 H   0  0  0  0  0  0  0  0  0  0  0  0
  152.4913  138.3475  154.0955 H   0  0  0  0  0  0  0  0  0  0  0  0
  150.3005  139.4890  153.9163 H   0  0  0  0  0  0  0  0  0  0  0  0
  150.8543  144.2443  157.9737 H   0  0  0  0  0  0  0  0  0  0  0  0
  151.8244  144.7342  160.2082 H   0  0  0  0  0  0  0  0  0  0  0  0
  153.1036  142.9892  161.4316 H   0  0  0  0  0  0  0  0  0  0  0  0
  153.4163  140.7344  160.4241 H   0  0  0  0  0  0  0  0  0  0  0  0
  1  2  1  0  0  0  0
  1 26  1  0  0  0  0
  1 27  1  0  0  0  0
  1 28  1  0  0  0  0
  2  3  1  0  0  0  0
  3 10  1  0  0  0  0
  3  4  2  0  0  0  0
  4  5  1  0  0  0  0
  4 29  1  0  0  0  0
  5  6  1  0  0  0  0
  5  8  2  0  0  0  0
  6  7  3  0  0  0  0
  8  9  1  0  0  0  0
  8 30  1  0  0  0  0
  9 10  2  0  0  0  0
  9 31  1  0  0  0  0
 10 11  1  0  0  0  0
 11 12  1  0  0  0  0
 12 13  1  0  0  0  0
 12 32  1  0  0  0  0
 12 33  1  0  0  0  0
 13 14  1  0  0  0  0
 13 34  1  0  0  0  0
 13 35  1  0  0  0  0
 14 25  1  0  0  0  0
 14 15  1  0  0  0  0
 15 16  1  0  0  0  0
 15 19  2  0  0  0  0
 16 17  1  0  0  0  0
 16 18  1  0  0  0  0
 16 36  1  0  0  0  0
 17 37  1  0  0  0  0
 17 38  1  0  0  0  0
 17 39  1  0  0  0  0
 18 40  1  0  0  0  0
 19 20  1  0  0  0  0
 20 25  2  0  0  0  0
 20 21  1  0  0  0  0
 21 22  2  0  0  0  0
 21 41  1  0  0  0  0
 22 23  1  0  0  0  0
 22 42  1  0  0  0  0
 23 24  2  0  0  0  0
 23 43  1  0  0  0  0
 24 25  1  0  0  0  0
 24 44  1  0  0  0  0
M  END
> <s_m_source_file>
AV-unprocessed.smi

> <i_m_source_file_index>
2346

> <i_lp_mmshare_version>
43012

> <i_f3d_flags>
0

> <s_epik_input>
W0NIM11PYzFbY0hdYyhDI04pW2NIXVtjSF1jMU9bQ0gyXVtDSDJdbihjKG4yKVtDQEhdKFtDSDNdKVtPSF0pYyhjMjMpW2NIXVtjSF1bY0hdW2NIXTM=

> <s_epik_cmdline>
J2VwaWtfcHl0aG9uJywgJy1waCcsICc3LjAnLCAnLXRuJywgJzgnLCAnLW1hJywgJzIwMCcsICctbWV0YWxfYmluZGluZycsICctaW1hZScsICc8aW5maWxlLm1hZT4nLCAnLW9tYWUnLCAnPG91dGZpbGUubWFlPic=

> <r_epik_Ionization_Penalty>
0.0419826

> <r_epik_Ionization_Penalty_Charging>
0

> <r_epik_Ionization_Penalty_Neutral>
0.0419826

> <r_epik_State_Penalty>
0.0354317

> <r_epik_Charging_Adjusted_Penalty>
0.0354317

> <i_epik_Tot_Q>
0

> <i_epik_Tot_abs_Q>
0

> <r_epik_Metal_State_Penalty>
3.65115e-05

> <b_epik_Metal_Only>
0

> <s_lp_Force_Field>
OPLS_2005

> <r_lp_Energy>
19.3722

> <b_lp_Chiralities_Consistent>
1

> <s_lp_Variant>
AV-unprocessed.smi:2346-1

> <Gold.Version>
5.8.1

> <Gold.Id.Protein>
6NUR|6NUR_protein|mol2

> <Gold.PLP.Fitness>
49.7872

> <Gold.PLP.PLP>
-44.5784

> <Gold.PLP.part.hbond>
-2.7325

> <Gold.PLP.part.metal>
0.0000

> <Gold.PLP.part.buried>
-5.7332

> <Gold.PLP.part.nonpolar>
-36.5173

> <Gold.PLP.part.repulsive>
0.1360

> <Gold.PLP.ligand.clash>
0.0000

> <Gold.PLP.ligand.torsion>
0.4634

> <Gold.PLP.Chemscore.Hbond>
2.0000

> <Gold.PLP.Chemscore.CHOScore>
0.0000

> <Gold.PLP.Chemscore.Metal>
0.0000

> <Gold.Chemscore.Hbonds>
donor molecule, donor type, donor heavy atom, donor atom, acceptor molecule, acceptor atom, score
      P1  H  6896  6907       L1     2  0.85
      P1  H  7989  7998       L1    18  0.85

> <Gold.PLP.Chemscore.Internal.Correction>
0.1356

> <Gold.Rescore>
     Score         DG    S(hbond)    S(metal)    S(lipo)     H(rot)  DE(clash)    DE(int)     intcor
     18.86     -19.39       1.79        0.00     123.94       2.57       0.13       0.41       ----

> <Gold.Chemscore.Fitness>
18.8615

> <Gold.Chemscore.DG>
-19.3938

> <Gold.Chemscore.ZeroCoef>
-5.4800

> <Gold.Chemscore.Hbond>
1.7925

> <Gold.Chemscore.Metal>
0.0000

> <Gold.Chemscore.Lipo>
123.9418

> <Gold.Chemscore.Internal_Hbond>
0.0000

> <Gold.Chemscore.DEClash>
0.1270

> <Gold.Chemscore.DEInternal>
0.4053

> <Gold.Chemscore.Rot>
2.5681

> <Gold.Chemscore.Internal.Correction>
   9.000000E+99

> <Gold.Chemscore.Hbonds>
donor molecule, donor type, donor heavy atom, donor atom, acceptor molecule, acceptor atom, score
      P1  H  6896  6907       L1     2  0.12
      P1  H  7989  7998       L1    18  0.09

> <Gold.Chemscore.Hbond.Weighted>
-5.9869

> <Gold.Chemscore.Metal.Weighted>
-0.0000

> <Gold.Chemscore.Lipo.Weighted>
-14.5012

> <Gold.Chemscore.Internal_Hbond.Weighted>
0.0000

> <Gold.Chemscore.DEClash.Weighted>
0.1270

> <Gold.Chemscore.DEInternal.Weighted>
0.4053

> <Gold.Chemscore.Rot.Weighted>
6.5743

> <Gold.Chemscore.Internal.Correction.Weighted>
   9.000000E+99

> <Gold.Protein.RotatedTorsions>
[ 6907 6896 6895 6894 ] final   74.26 input  -60.11 | X-H torsion
[ 7974 7965 7964 7962 ] final   -2.36 input  175.53 | X-H torsion
[ 8008 7997 7996 7995 ] final   42.35 input   59.86 | X-H torsion
[ 10167 10162 10161 10158 ] final   44.34 input  -65.29 | X-H torsion
[ 10718 10713 10712 10709 ] final -172.29 input   66.30 | X-H torsion
[ 10763 10752 10751 10750 ] final  149.36 input  -60.55 | X-H torsion
[ 11005 11000 10999 10996 ] final  108.18 input  -57.11 | X-H torsion

> <Gold.Protein.ActiveResidues>
 VAL166  LYS551  ARG553  GLY616  TRP617  ASP618  TYR619  PRO620  LYS621  CYS622 
 ASP623  PHE694  ASN695  SER759  ASP760  ASP761  ALA762  ILE779  LEU786  VAL792 
 PHE793  MET794  SER795  GLU796  ALA797  LYS798  CYS799  TRP800  GLU811  SER814 

> <Gold.Protein.RotatedAtoms>
  152.4967  134.4297  159.9507 H   0  0  0  0  0  0  0  0  0  0  0  0  # atno 6907 bound_to 6896
  151.4275  133.3674  159.2772 H   0  0  0  0  0  0  0  0  0  0  0  0  # atno 6908 bound_to 6896
  150.9178  134.8619  159.7528 H   0  0  0  0  0  0  0  0  0  0  0  0  # atno 6909 bound_to 6896
  146.2405  140.1558  142.8333 H   0  0  0  0  0  0  0  0  0  0  0  0  # atno 7974 bound_to 7965
  155.2846  140.3375  155.4256 H   0  0  0  0  0  0  0  0  0  0  0  0  # atno 8008 bound_to 7997
  156.2074  140.1756  156.7811 H   0  0  0  0  0  0  0  0  0  0  0  0  # atno 8009 bound_to 7997
  154.5639  140.0682  156.8846 H   0  0  0  0  0  0  0  0  0  0  0  0  # atno 8010 bound_to 7997
  140.3353  144.2538  150.6162 H   0  0  0  0  0  0  0  0  0  0  0  0  # atno 10167 bound_to 10162
  156.7534  130.9386  151.3115 H   0  0  0  0  0  0  0  0  0  0  0  0  # atno 10718 bound_to 10713
  154.0698  135.2867  155.3310 H   0  0  0  0  0  0  0  0  0  0  0  0  # atno 10763 bound_to 10752
  154.6754  135.5284  153.8195 H   0  0  0  0  0  0  0  0  0  0  0  0  # atno 10764 bound_to 10752
  153.0489  135.6568  154.0881 H   0  0  0  0  0  0  0  0  0  0  0  0  # atno 10765 bound_to 10752
  139.8840  134.9423  156.5933 H   0  0  0  0  0  0  0  0  0  0  0  0  # atno 11005 bound_to 11000
  145.0130  140.8730  143.5213 LP  0  0  0  0  0  0  0  0  0  0  0  0  # atno 17320 bound_to 7965
  145.1595  139.2467  143.5399 LP  0  0  0  0  0  0  0  0  0  0  0  0  # atno 17321 bound_to 7965
  140.5359  143.2233  151.8163 LP  0  0  0  0  0  0  0  0  0  0  0  0  # atno 17342 bound_to 10162
  139.4849  144.4661  151.9482 LP  0  0  0  0  0  0  0  0  0  0  0  0  # atno 17343 bound_to 10162
  157.6767  130.9101  150.0167 LP  0  0  0  0  0  0  0  0  0  0  0  0  # atno 17370 bound_to 10713
  156.1386  130.3642  149.9617 LP  0  0  0  0  0  0  0  0  0  0  0  0  # atno 17371 bound_to 10713
  140.7939  133.8560  155.8669 LP  0  0  0  0  0  0  0  0  0  0  0  0  # atno 17394 bound_to 11000
  140.9653  134.1602  157.4621 LP  0  0  0  0  0  0  0  0  0  0  0  0  # atno 17395 bound_to 11000

$$$$
