AV-unprocessed.smi:1817|AV-procd|sdf|7369|dock4
  -GOLD-   22720 9 33D 1   1.00000     0.00000
 Structure written by MMmdl.
 43 44  0  0  0  0  0  0  0  0  2 V2000
  145.8412  132.4380  150.3964 C   0  0  0  0  0  0  0  0  0  0  0  0
  145.8870  131.4474  151.5687 C   0  0  0  0  0  0  0  0  0  0  0  0
  147.2105  131.4163  152.2395 N   0  3  0  0  0  0  0  0  0  0  0  0
  147.3633  130.3015  153.2085 C   0  0  0  0  0  0  0  0  0  0  0  0
  148.7718  130.3255  153.8392 C   0  0  0  0  0  0  0  0  0  0  0  0
  149.0357  131.5883  154.5450 N   0  0  0  0  0  0  0  0  0  0  0  0
  148.2417  131.8137  155.7750 C   0  0  1  0  0  0  0  0  0  0  0  0
  148.5406  130.7147  156.8237 C   0  0  0  0  0  0  0  0  0  0  0  0
  148.5210  133.2267  156.3577 C   0  0  0  0  0  0  0  0  0  0  0  0
  147.8802  133.4470  157.6523 N   0  0  0  0  0  0  0  0  0  0  0  0
  148.3054  134.2992  158.5970 C   0  0  0  0  0  0  0  0  0  0  0  0
  149.3153  134.9929  158.4814 O   0  0  0  0  0  0  0  0  0  0  0  0
  147.4931  134.2830  159.6661 N   0  0  0  0  0  0  0  0  0  0  0  0
  147.6132  135.0319  160.8636 C   0  0  0  0  0  0  0  0  0  0  0  0
  148.3152  136.1706  160.8240 N   0  0  0  0  0  0  0  0  0  0  0  0
  148.3524  136.8023  162.0612 N   0  0  0  0  0  0  0  0  0  0  0  0
  147.6756  136.1146  162.9861 C   0  0  0  0  0  0  0  0  0  0  0  0
  146.9245  134.6261  162.4388 S   0  0  0  0  0  0  0  0  0  0  0  0
  148.9487  132.6460  153.5272 C   0  0  0  0  0  0  0  0  0  0  0  0
  147.5477  132.7098  152.8827 C   0  0  0  0  0  0  0  0  0  0  0  0
  144.8320  132.5012  149.9890 H   0  0  0  0  0  0  0  0  0  0  0  0
  146.4986  132.1386  149.5808 H   0  0  0  0  0  0  0  0  0  0  0  0
  146.1312  133.4399  150.7144 H   0  0  0  0  0  0  0  0  0  0  0  0
  145.1305  131.7521  152.2932 H   0  0  0  0  0  0  0  0  0  0  0  0
  145.6118  130.4452  151.2367 H   0  0  0  0  0  0  0  0  0  0  0  0
  146.5881  130.3536  153.9737 H   0  0  0  0  0  0  0  0  0  0  0  0
  147.2304  129.3486  152.6973 H   0  0  0  0  0  0  0  0  0  0  0  0
  148.9193  129.4649  154.4888 H   0  0  0  0  0  0  0  0  0  0  0  0
  149.5174  130.2063  153.0515 H   0  0  0  0  0  0  0  0  0  0  0  0
  147.1802  131.7582  155.5375 H   0  0  0  0  0  0  0  0  0  0  0  0
  148.0137  130.8913  157.7604 H   0  0  0  0  0  0  0  0  0  0  0  0
  149.6056  130.6622  157.0526 H   0  0  0  0  0  0  0  0  0  0  0  0
  148.2114  129.7289  156.4989 H   0  0  0  0  0  0  0  0  0  0  0  0
  149.5959  133.4086  156.4117 H   0  0  0  0  0  0  0  0  0  0  0  0
  148.1109  134.0021  155.7134 H   0  0  0  0  0  0  0  0  0  0  0  0
  147.0415  132.9166  157.8381 H   0  0  0  0  0  0  0  0  0  0  0  0
  146.6972  133.6640  159.6215 H   0  0  0  0  0  0  0  0  0  0  0  0
  147.6191  136.4865  163.9982 H   0  0  0  0  0  0  0  0  0  0  0  0
  149.2338  133.6159  153.9293 H   0  0  0  0  0  0  0  0  0  0  0  0
  149.6890  132.4414  152.7521 H   0  0  0  0  0  0  0  0  0  0  0  0
  147.5412  133.4963  152.1274 H   0  0  0  0  0  0  0  0  0  0  0  0
  146.7867  132.9782  153.6162 H   0  0  0  0  0  0  0  0  0  0  0  0
  147.9016  131.2735  151.5170 H   0  0  0  0  0  0  0  0  0  0  0  0
  1  2  1  0  0  0  0
  1 21  1  0  0  0  0
  1 22  1  0  0  0  0
  1 23  1  0  0  0  0
  2  3  1  0  0  0  0
  2 24  1  0  0  0  0
  2 25  1  0  0  0  0
  3 20  1  0  0  0  0
  3  4  1  0  0  0  0
  3 43  1  0  0  0  0
  4  5  1  0  0  0  0
  4 26  1  0  0  0  0
  4 27  1  0  0  0  0
  5  6  1  0  0  0  0
  5 28  1  0  0  0  0
  5 29  1  0  0  0  0
  6  7  1  0  0  0  0
  6 19  1  0  0  0  0
  7  8  1  0  0  0  0
  7  9  1  0  0  0  0
  7 30  1  0  0  0  0
  8 31  1  0  0  0  0
  8 32  1  0  0  0  0
  8 33  1  0  0  0  0
  9 10  1  0  0  0  0
  9 34  1  0  0  0  0
  9 35  1  0  0  0  0
 10 11  1  0  0  0  0
 10 36  1  0  0  0  0
 11 12  2  0  0  0  0
 11 13  1  0  0  0  0
 13 14  1  0  0  0  0
 13 37  1  0  0  0  0
 14 18  1  0  0  0  0
 14 15  2  0  0  0  0
 15 16  1  0  0  0  0
 16 17  2  0  0  0  0
 17 18  1  0  0  0  0
 17 38  1  0  0  0  0
 19 20  1  0  0  0  0
 19 39  1  0  0  0  0
 19 40  1  0  0  0  0
 20 41  1  0  0  0  0
 20 42  1  0  0  0  0
M  CHG  1   3   1
M  END
> <s_m_source_file>
AV-unprocessed.smi

> <i_m_source_file_index>
1817

> <i_lp_mmshare_version>
43012

> <i_f3d_flags>
0

> <s_epik_input>
W0NIM11bQ0gyXU4xW0NIMl1bQ0gyXU4oW0NIMl1bQ0gyXTEpW0NASF0oW0NIM10pW0NIMl1bTkhdQyg9TylbTkhdYzJubltjSF1zMg==

> <s_epik_cmdline>
J2VwaWtfcHl0aG9uJywgJy1waCcsICc3LjAnLCAnLXRuJywgJzgnLCAnLW1hJywgJzIwMCcsICctbWV0YWxfYmluZGluZycsICctaW1hZScsICc8aW5maWxlLm1hZT4nLCAnLW9tYWUnLCAnPG91dGZpbGUubWFlPic=

> <r_lp_tautomer_probability>
1

> <r_epik_Ionization_Penalty>
0.0474318

> <r_epik_Ionization_Penalty_Charging>
0.0451959

> <r_epik_Ionization_Penalty_Neutral>
0.00223598

> <r_epik_State_Penalty>
0.165541

> <r_epik_Charging_Adjusted_Penalty>
0.210737

> <i_epik_Tot_Q>
1

> <i_epik_Tot_abs_Q>
1

> <r_epik_Metal_State_Penalty>
0.500395

> <b_epik_Metal_Only>
0

> <s_lp_Force_Field>
OPLS_2005

> <r_lp_Energy>
20.492

> <b_lp_Chiralities_Consistent>
1

> <s_lp_Variant>
AV-unprocessed.smi:1817-2

> <Gold.Version>
5.8.1

> <Gold.Id.Protein>
6NUR|6NUR_protein|mol2

> <Gold.PLP.Fitness>
39.9915

> <Gold.PLP.PLP>
-31.7453

> <Gold.PLP.part.hbond>
-3.1688

> <Gold.PLP.part.metal>
0.0000

> <Gold.PLP.part.buried>
-5.7645

> <Gold.PLP.part.nonpolar>
-23.4662

> <Gold.PLP.part.repulsive>
0.1305

> <Gold.PLP.ligand.clash>
0.0000

> <Gold.PLP.ligand.torsion>
0.4046

> <Gold.PLP.Chemscore.Hbond>
3.0000

> <Gold.PLP.Chemscore.CHOScore>
0.0000

> <Gold.PLP.Chemscore.Metal>
0.0000

> <Gold.Chemscore.Hbonds>
donor molecule, donor type, donor heavy atom, donor atom, acceptor molecule, acceptor atom, score
      L1  H     3    43       P1 10747  1.00
      P1  H  6896  6908       L1    12  1.00
      P1  H  6931  6943       L1    16  1.00

> <Gold.PLP.Chemscore.Internal.Correction>
0.0553

> <Gold.Rescore>
     Score         DG    S(hbond)    S(metal)    S(lipo)     H(rot)  DE(clash)    DE(int)     intcor
     16.75     -18.62       2.97        0.00      69.46       1.92       0.01       1.86       ----

> <Gold.Chemscore.Fitness>
16.7523

> <Gold.Chemscore.DG>
-18.6208

> <Gold.Chemscore.ZeroCoef>
-5.4800

> <Gold.Chemscore.Hbond>
2.9724

> <Gold.Chemscore.Metal>
0.0000

> <Gold.Chemscore.Lipo>
69.4613

> <Gold.Chemscore.Internal_Hbond>
0.0000

> <Gold.Chemscore.DEClash>
0.0108

> <Gold.Chemscore.DEInternal>
1.8577

> <Gold.Chemscore.Rot>
1.9196

> <Gold.Chemscore.Internal.Correction>
   9.000000E+99

> <Gold.Chemscore.Hbonds>
donor molecule, donor type, donor heavy atom, donor atom, acceptor molecule, acceptor atom, score
      L1  H     3    43       P1 10747  1.00
      P1  H  6896  6908       L1    12  0.58
      P1  H  6931  6943       L1    16  0.73

> <Gold.Chemscore.Hbond.Weighted>
-9.9279

> <Gold.Chemscore.Metal.Weighted>
-0.0000

> <Gold.Chemscore.Lipo.Weighted>
-8.1270

> <Gold.Chemscore.Internal_Hbond.Weighted>
0.0000

> <Gold.Chemscore.DEClash.Weighted>
0.0108

> <Gold.Chemscore.DEInternal.Weighted>
1.8577

> <Gold.Chemscore.Rot.Weighted>
4.9141

> <Gold.Chemscore.Internal.Correction.Weighted>
   9.000000E+99

> <Gold.Protein.RotatedTorsions>
[ 6907 6896 6895 6894 ] final  140.62 input  -60.11 | X-H torsion
[ 7974 7965 7964 7962 ] final  133.14 input  175.53 | X-H torsion
[ 8008 7997 7996 7995 ] final   77.64 input   59.86 | X-H torsion
[ 10167 10162 10161 10158 ] final -136.63 input  -65.29 | X-H torsion
[ 10718 10713 10712 10709 ] final   84.61 input   66.30 | X-H torsion
[ 10763 10752 10751 10750 ] final    3.21 input  -60.55 | X-H torsion
[ 11005 11000 10999 10996 ] final  -83.26 input  -57.11 | X-H torsion

> <Gold.Protein.ActiveResidues>
 VAL166  LYS551  ARG553  GLY616  TRP617  ASP618  TYR619  PRO620  LYS621  CYS622 
 ASP623  PHE694  ASN695  SER759  ASP760  ASP761  ALA762  ILE779  LEU786  VAL792 
 PHE793  MET794  SER795  GLU796  ALA797  LYS798  CYS799  TRP800  GLU811  SER814 

> <Gold.Protein.RotatedAtoms>
  152.2408  133.5134  159.5268 H   0  0  0  0  0  0  0  0  0  0  0  0  # atno 6907 bound_to 6896
  150.7064  134.1091  159.4002 H   0  0  0  0  0  0  0  0  0  0  0  0  # atno 6908 bound_to 6896
  151.9012  135.0377  160.0557 H   0  0  0  0  0  0  0  0  0  0  0  0  # atno 6909 bound_to 6896
  144.9896  139.4420  143.5346 H   0  0  0  0  0  0  0  0  0  0  0  0  # atno 7974 bound_to 7965
  155.8444  140.3461  155.5653 H   0  0  0  0  0  0  0  0  0  0  0  0  # atno 8008 bound_to 7997
  155.8106  140.0898  157.1926 H   0  0  0  0  0  0  0  0  0  0  0  0  # atno 8009 bound_to 7997
  154.4006  140.1448  156.3369 H   0  0  0  0  0  0  0  0  0  0  0  0  # atno 8010 bound_to 7997
  139.8658  143.7019  152.2645 H   0  0  0  0  0  0  0  0  0  0  0  0  # atno 10167 bound_to 10162
  157.6901  131.0140  150.2698 H   0  0  0  0  0  0  0  0  0  0  0  0  # atno 10718 bound_to 10713
  153.2861  135.6944  153.7338 H   0  0  0  0  0  0  0  0  0  0  0  0  # atno 10763 bound_to 10752
  153.6307  135.3410  155.3041 H   0  0  0  0  0  0  0  0  0  0  0  0  # atno 10764 bound_to 10752
  154.8510  135.4408  154.1929 H   0  0  0  0  0  0  0  0  0  0  0  0  # atno 10765 bound_to 10752
  141.1659  133.7285  156.8693 H   0  0  0  0  0  0  0  0  0  0  0  0  # atno 11005 bound_to 11000
  146.3428  139.9219  142.8765 LP  0  0  0  0  0  0  0  0  0  0  0  0  # atno 17320 bound_to 7965
  145.2304  140.9971  143.3994 LP  0  0  0  0  0  0  0  0  0  0  0  0  # atno 17321 bound_to 7965
  139.7330  144.7578  151.0772 LP  0  0  0  0  0  0  0  0  0  0  0  0  # atno 17342 bound_to 10162
  140.7768  143.5065  150.9706 LP  0  0  0  0  0  0  0  0  0  0  0  0  # atno 17343 bound_to 10162
  156.3263  130.3793  149.7530 LP  0  0  0  0  0  0  0  0  0  0  0  0  # atno 17370 bound_to 10713
  156.5084  130.8161  151.3159 LP  0  0  0  0  0  0  0  0  0  0  0  0  # atno 17371 bound_to 10713
  140.1793  134.9045  157.2929 LP  0  0  0  0  0  0  0  0  0  0  0  0  # atno 17394 bound_to 11000
  140.2413  134.3792  155.7479 LP  0  0  0  0  0  0  0  0  0  0  0  0  # atno 17395 bound_to 11000

$$$$
