AV-unprocessed.smi:1053|AV-procd|sdf|4617|dock1
  -GOLD-   22720 3113D 1   1.00000     0.00000
 Structure written by MMmdl.
 38 39  0  0  0  0  0  0  0  0  2 V2000
  147.2756  128.4667  151.8436 C   0  0  0  0  0  0  0  0  0  0  0  0
  146.2911  129.6021  152.1568 C   0  0  0  0  0  0  0  0  0  0  0  0
  146.8967  130.9463  151.9850 N   0  3  1  0  0  0  0  0  0  0  0  0
  145.9373  131.9276  151.4255 C   0  0  0  0  0  0  0  0  0  0  0  0
  146.6176  133.2907  151.2246 C   0  0  0  0  0  0  0  0  0  0  0  0
  147.1603  133.7321  152.4615 O   0  0  0  0  0  0  0  0  0  0  0  0
  148.1659  132.8545  152.9579 C   0  0  1  0  0  0  0  0  0  0  0  0
  148.7614  133.4554  154.2424 C   0  0  0  0  0  0  0  0  0  0  0  0
  149.3766  134.7558  154.0108 N   0  0  0  0  0  0  0  0  0  0  0  0
  150.3017  135.3549  154.8467 C   0  0  0  0  0  0  0  0  0  0  0  0
  150.8442  134.6244  155.8275 N   0  0  0  0  0  0  0  0  0  0  0  0
  151.7444  135.2383  156.6252 C   0  0  0  0  0  0  0  0  0  0  0  0
  152.1011  136.5882  156.4391 C   0  0  0  0  0  0  0  0  0  0  0  0
  151.4663  137.2624  155.3720 C   0  0  0  0  0  0  0  0  0  0  0  0
  151.7528  138.7219  155.0523 C   0  0  0  0  0  0  0  0  0  0  0  0
  152.9810  138.8382  154.5470 F   0  0  0  0  0  0  0  0  0  0  0  0
  150.8832  139.2088  154.1664 F   0  0  0  0  0  0  0  0  0  0  0  0
  151.6744  139.4506  156.1660 F   0  0  0  0  0  0  0  0  0  0  0  0
  150.5657  136.6353  154.5795 N   0  0  0  0  0  0  0  0  0  0  0  0
  147.5195  131.4801  153.2223 C   0  0  0  0  0  0  0  0  0  0  0  0
  146.7708  127.5012  151.8860 H   0  0  0  0  0  0  0  0  0  0  0  0
  148.0995  128.4302  152.5558 H   0  0  0  0  0  0  0  0  0  0  0  0
  147.6972  128.5745  150.8438 H   0  0  0  0  0  0  0  0  0  0  0  0
  145.4437  129.5055  151.4767 H   0  0  0  0  0  0  0  0  0  0  0  0
  145.8910  129.4967  153.1661 H   0  0  0  0  0  0  0  0  0  0  0  0
  145.5498  131.5681  150.4715 H   0  0  0  0  0  0  0  0  0  0  0  0
  145.0858  132.0321  152.0998 H   0  0  0  0  0  0  0  0  0  0  0  0
  147.4010  133.2314  150.4672 H   0  0  0  0  0  0  0  0  0  0  0  0
  145.8921  134.0255  150.8754 H   0  0  0  0  0  0  0  0  0  0  0  0
  148.9587  132.7435  152.2152 H   0  0  0  0  0  0  0  0  0  0  0  0
  148.0087  133.5159  155.0294 H   0  0  0  0  0  0  0  0  0  0  0  0
  149.5443  132.7974  154.6201 H   0  0  0  0  0  0  0  0  0  0  0  0
  149.0220  135.3167  153.2497 H   0  0  0  0  0  0  0  0  0  0  0  0
  152.1819  134.6487  157.4173 H   0  0  0  0  0  0  0  0  0  0  0  0
  152.8220  137.0714  157.0817 H   0  0  0  0  0  0  0  0  0  0  0  0
  146.7626  131.5646  154.0040 H   0  0  0  0  0  0  0  0  0  0  0  0
  148.2803  130.7909  153.5874 H   0  0  0  0  0  0  0  0  0  0  0  0
  147.6331  130.8477  151.3005 H   0  0  0  0  0  0  0  0  0  0  0  0
  1  2  1  0  0  0  0
  1 21  1  0  0  0  0
  1 22  1  0  0  0  0
  1 23  1  0  0  0  0
  2  3  1  0  0  0  0
  2 24  1  0  0  0  0
  2 25  1  0  0  0  0
  3 20  1  0  0  0  0
  3  4  1  0  0  0  0
  3 38  1  0  0  0  0
  4  5  1  0  0  0  0
  4 26  1  0  0  0  0
  4 27  1  0  0  0  0
  5  6  1  0  0  0  0
  5 28  1  0  0  0  0
  5 29  1  0  0  0  0
  6  7  1  0  0  0  0
  7  8  1  0  0  0  0
  7 20  1  0  0  0  0
  7 30  1  0  0  0  0
  8  9  1  0  0  0  0
  8 31  1  0  0  0  0
  8 32  1  0  0  0  0
  9 10  1  0  0  0  0
  9 33  1  0  0  0  0
 10 19  1  0  0  0  0
 10 11  2  0  0  0  0
 11 12  1  0  0  0  0
 12 13  2  0  0  0  0
 12 34  1  0  0  0  0
 13 14  1  0  0  0  0
 13 35  1  0  0  0  0
 14 15  1  0  0  0  0
 14 19  2  0  0  0  0
 15 16  1  0  0  0  0
 15 17  1  0  0  0  0
 15 18  1  0  0  0  0
 20 36  1  0  0  0  0
 20 37  1  0  0  0  0
M  CHG  1   3   1
M  END
> <s_m_source_file>
AV-unprocessed.smi

> <i_m_source_file_index>
1053

> <i_lp_mmshare_version>
43012

> <i_f3d_flags>
0

> <s_epik_input>
W0NIM11bQ0gyXU4xW0NIMl1bQ0gyXU9bQ0BIXShbQ0gyXTEpW0NIMl1bTkhdYzJuW2NIXVtjSF1jKG4yKUMoRikoRilG

> <s_epik_cmdline>
J2VwaWtfcHl0aG9uJywgJy1waCcsICc3LjAnLCAnLXRuJywgJzgnLCAnLW1hJywgJzIwMCcsICctbWV0YWxfYmluZGluZycsICctaW1hZScsICc8aW5maWxlLm1hZT4nLCAnLW9tYWUnLCAnPG91dGZpbGUubWFlPic=

> <r_lp_tautomer_probability>
1

> <r_epik_Ionization_Penalty>
0.178506

> <r_epik_Ionization_Penalty_Charging>
0.178504

> <r_epik_Ionization_Penalty_Neutral>
2.47619e-06

> <r_epik_State_Penalty>
0.167974

> <r_epik_Charging_Adjusted_Penalty>
0.346478

> <i_epik_Tot_Q>
1

> <i_epik_Tot_abs_Q>
1

> <r_epik_Metal_State_Penalty>
0.167974

> <b_epik_Metal_Only>
0

> <s_lp_Force_Field>
OPLS_2005

> <r_lp_Energy>
10.9386

> <b_lp_Chiralities_Consistent>
1

> <s_lp_Variant>
AV-unprocessed.smi:1053-1

> <Gold.Version>
5.8.1

> <Gold.Id.Protein>
6NUR|6NUR_protein|mol2

> <Gold.PLP.Fitness>
40.2100

> <Gold.PLP.PLP>
-36.0355

> <Gold.PLP.part.hbond>
-2.0000

> <Gold.PLP.part.metal>
0.0000

> <Gold.PLP.part.buried>
-2.6390

> <Gold.PLP.part.nonpolar>
-32.0633

> <Gold.PLP.part.repulsive>
0.3941

> <Gold.PLP.ligand.clash>
0.0000

> <Gold.PLP.ligand.torsion>
0.9303

> <Gold.PLP.Chemscore.Hbond>
2.0000

> <Gold.PLP.Chemscore.CHOScore>
0.0000

> <Gold.PLP.Chemscore.Metal>
0.0000

> <Gold.Chemscore.Hbonds>
donor molecule, donor type, donor heavy atom, donor atom, acceptor molecule, acceptor atom, score
      L1  H     3    38       P1 10747  1.00
      L1  H     9    33       P1  7948  1.00

> <Gold.PLP.Chemscore.Internal.Correction>
0.0351

> <Gold.Rescore>
     Score         DG    S(hbond)    S(metal)    S(lipo)     H(rot)  DE(clash)    DE(int)     intcor
     14.75     -15.69       1.84        0.00      68.90       1.55       0.11       0.84       ----

> <Gold.Chemscore.Fitness>
14.7468

> <Gold.Chemscore.DG>
-15.6908

> <Gold.Chemscore.ZeroCoef>
-5.4800

> <Gold.Chemscore.Hbond>
1.8353

> <Gold.Chemscore.Metal>
0.0000

> <Gold.Chemscore.Lipo>
68.9006

> <Gold.Chemscore.Internal_Hbond>
0.0000

> <Gold.Chemscore.DEClash>
0.1084

> <Gold.Chemscore.DEInternal>
0.8356

> <Gold.Chemscore.Rot>
1.5549

> <Gold.Chemscore.Internal.Correction>
   9.000000E+99

> <Gold.Chemscore.Hbonds>
donor molecule, donor type, donor heavy atom, donor atom, acceptor molecule, acceptor atom, score
      L1  H     3    38       P1 10747  1.00
      L1  H     9    33       P1  7948  0.44

> <Gold.Chemscore.Hbond.Weighted>
-6.1300

> <Gold.Chemscore.Metal.Weighted>
-0.0000

> <Gold.Chemscore.Lipo.Weighted>
-8.0614

> <Gold.Chemscore.Internal_Hbond.Weighted>
0.0000

> <Gold.Chemscore.DEClash.Weighted>
0.1084

> <Gold.Chemscore.DEInternal.Weighted>
0.8356

> <Gold.Chemscore.Rot.Weighted>
3.9806

> <Gold.Chemscore.Internal.Correction.Weighted>
   9.000000E+99

> <Gold.Protein.RotatedTorsions>
[ 6907 6896 6895 6894 ] final  -82.90 input  -60.11 | X-H torsion
[ 7974 7965 7964 7962 ] final   88.92 input  175.53 | X-H torsion
[ 8008 7997 7996 7995 ] final  -60.13 input   59.86 | X-H torsion
[ 10167 10162 10161 10158 ] final -128.50 input  -65.29 | X-H torsion
[ 10718 10713 10712 10709 ] final  143.93 input   66.30 | X-H torsion
[ 10763 10752 10751 10750 ] final -176.15 input  -60.55 | X-H torsion
[ 11005 11000 10999 10996 ] final  170.33 input  -57.11 | X-H torsion

> <Gold.Protein.ActiveResidues>
 VAL166  LYS551  ARG553  GLY616  TRP617  ASP618  TYR619  PRO620  LYS621  CYS622 
 ASP623  PHE694  ASN695  SER759  ASP760  ASP761  ALA762  ILE779  LEU786  VAL792 
 PHE793  MET794  SER795  GLU796  ALA797  LYS798  CYS799  TRP800  GLU811  SER814 

> <Gold.Protein.RotatedAtoms>
  150.6891  134.3594  159.4943 H   0  0  0  0  0  0  0  0  0  0  0  0  # atno 6907 bound_to 6896
  152.1425  134.9049  160.0562 H   0  0  0  0  0  0  0  0  0  0  0  0  # atno 6908 bound_to 6896
  152.0177  133.3851  159.4282 H   0  0  0  0  0  0  0  0  0  0  0  0  # atno 6909 bound_to 6896
  145.5393  139.2287  143.2575 H   0  0  0  0  0  0  0  0  0  0  0  0  # atno 7974 bound_to 7965
  154.4384  140.1046  156.6224 H   0  0  0  0  0  0  0  0  0  0  0  0  # atno 8008 bound_to 7997
  155.5692  140.3489  155.4492 H   0  0  0  0  0  0  0  0  0  0  0  0  # atno 8009 bound_to 7997
  156.0402  140.1280  157.0153 H   0  0  0  0  0  0  0  0  0  0  0  0  # atno 8010 bound_to 7997
  139.9497  143.6070  152.2479 H   0  0  0  0  0  0  0  0  0  0  0  0  # atno 10167 bound_to 10162
  157.3632  131.0968  151.0896 H   0  0  0  0  0  0  0  0  0  0  0  0  # atno 10718 bound_to 10713
  154.5758  135.2832  155.0782 H   0  0  0  0  0  0  0  0  0  0  0  0  # atno 10763 bound_to 10752
  154.2137  135.6403  153.5127 H   0  0  0  0  0  0  0  0  0  0  0  0  # atno 10764 bound_to 10752
  153.0072  135.5498  154.6396 H   0  0  0  0  0  0  0  0  0  0  0  0  # atno 10765 bound_to 10752
  140.3072  134.7546  157.3963 H   0  0  0  0  0  0  0  0  0  0  0  0  # atno 11005 bound_to 11000
  146.1992  140.6212  142.9110 LP  0  0  0  0  0  0  0  0  0  0  0  0  # atno 17320 bound_to 7965
  144.7585  140.5366  143.6752 LP  0  0  0  0  0  0  0  0  0  0  0  0  # atno 17321 bound_to 7965
  139.6638  144.7662  151.1911 LP  0  0  0  0  0  0  0  0  0  0  0  0  # atno 17342 bound_to 10162
  140.7586  143.5969  150.8739 LP  0  0  0  0  0  0  0  0  0  0  0  0  # atno 17343 bound_to 10162
  157.2029  130.6402  149.5745 LP  0  0  0  0  0  0  0  0  0  0  0  0  # atno 17370 bound_to 10713
  155.9741  130.4685  150.6362 LP  0  0  0  0  0  0  0  0  0  0  0  0  # atno 17371 bound_to 10713
  140.1056  134.5413  155.8312 LP  0  0  0  0  0  0  0  0  0  0  0  0  # atno 17394 bound_to 11000
  141.2116  133.6708  156.6593 LP  0  0  0  0  0  0  0  0  0  0  0  0  # atno 17395 bound_to 11000

$$$$
