AV-unprocessed.smi:1970|AV-procd|sdf|7960|dock8
  -GOLD-   2272010133D 1   1.00000     0.00000
 Structure written by MMmdl.
 33 34  0  0  0  0  0  0  0  0  1 V2000
  152.5245  139.8913  155.2292 O   0  0  0  0  0  0  0  0  0  0  0  0
  151.3397  139.6139  155.4147 C   0  0  0  0  0  0  0  0  0  0  0  0
  150.5778  138.7857  154.3769 C   0  0  0  0  0  0  0  0  0  0  0  0
  149.1622  139.1576  154.3420 N   0  0  0  0  0  0  0  0  0  0  0  0
  148.1516  138.1113  154.4543 C   0  0  0  0  0  0  0  0  0  0  0  0
  146.5813  138.8529  153.9410 S   0  0  0  0  0  0  0  0  0  0  0  0
  147.2048  140.5288  154.1512 C   0  0  0  0  0  0  0  0  0  0  0  0
  148.7187  140.4195  154.2044 C   0  0  0  0  0  0  0  0  0  0  0  0
  149.4368  141.4152  154.1193 O   0  0  0  0  0  0  0  0  0  0  0  0
  150.6501  139.9971  156.5007 N   0  0  0  0  0  0  0  0  0  0  0  0
  151.1660  140.8326  157.5828 C   0  0  0  0  0  0  0  0  0  0  0  0
  150.3000  142.0856  157.8289 C   0  0  0  0  0  0  0  0  0  0  0  0
  150.9522  143.1153  158.7367 C   0  0  0  0  0  0  0  0  0  0  0  0
  151.1908  144.4311  158.2844 C   0  0  0  0  0  0  0  0  0  0  0  0
  151.8376  145.3324  159.1515 C   0  0  0  0  0  0  0  0  0  0  0  0
  152.2118  144.8887  160.4342 C   0  0  0  0  0  0  0  0  0  0  0  0
  151.9186  143.5585  160.7951 C   0  0  0  0  0  0  0  0  0  0  0  0
  151.3003  142.6857  159.9706 N   0  0  0  0  0  0  0  0  0  0  0  0
  151.0261  138.9576  153.3974 H   0  0  0  0  0  0  0  0  0  0  0  0
  150.6873  137.7183  154.5784 H   0  0  0  0  0  0  0  0  0  0  0  0
  148.3860  137.2516  153.8258 H   0  0  0  0  0  0  0  0  0  0  0  0
  148.0819  137.7765  155.4895 H   0  0  0  0  0  0  0  0  0  0  0  0
  146.8823  141.1646  153.3266 H   0  0  0  0  0  0  0  0  0  0  0  0
  146.8336  140.9511  155.0851 H   0  0  0  0  0  0  0  0  0  0  0  0
  149.6830  139.7140  156.5683 H   0  0  0  0  0  0  0  0  0  0  0  0
  151.1859  140.2262  158.4884 H   0  0  0  0  0  0  0  0  0  0  0  0
  152.2008  141.1191  157.3878 H   0  0  0  0  0  0  0  0  0  0  0  0
  150.0545  142.5542  156.8750 H   0  0  0  0  0  0  0  0  0  0  0  0
  149.3483  141.7878  158.2704 H   0  0  0  0  0  0  0  0  0  0  0  0
  150.9008  144.7391  157.2909 H   0  0  0  0  0  0  0  0  0  0  0  0
  152.0465  146.3441  158.8369 H   0  0  0  0  0  0  0  0  0  0  0  0
  152.7112  145.5515  161.1253 H   0  0  0  0  0  0  0  0  0  0  0  0
  152.1890  143.1848  161.7715 H   0  0  0  0  0  0  0  0  0  0  0  0
  1  2  2  0  0  0  0
  2  3  1  0  0  0  0
  2 10  1  0  0  0  0
  3  4  1  0  0  0  0
  3 19  1  0  0  0  0
  3 20  1  0  0  0  0
  4  8  1  0  0  0  0
  4  5  1  0  0  0  0
  5  6  1  0  0  0  0
  5 21  1  0  0  0  0
  5 22  1  0  0  0  0
  6  7  1  0  0  0  0
  7  8  1  0  0  0  0
  7 23  1  0  0  0  0
  7 24  1  0  0  0  0
  8  9  2  0  0  0  0
 10 11  1  0  0  0  0
 10 25  1  0  0  0  0
 11 12  1  0  0  0  0
 11 26  1  0  0  0  0
 11 27  1  0  0  0  0
 12 13  1  0  0  0  0
 12 28  1  0  0  0  0
 12 29  1  0  0  0  0
 13 18  1  0  0  0  0
 13 14  2  0  0  0  0
 14 15  1  0  0  0  0
 14 30  1  0  0  0  0
 15 16  2  0  0  0  0
 15 31  1  0  0  0  0
 16 17  1  0  0  0  0
 16 32  1  0  0  0  0
 17 18  2  0  0  0  0
 17 33  1  0  0  0  0
M  END
> <s_m_source_file>
AV-unprocessed.smi

> <i_m_source_file_index>
1970

> <i_lp_mmshare_version>
43012

> <i_f3d_flags>
0

> <s_epik_input>
Tz1DMVtDSDJdU1tDSDJdTjFbQ0gyXUMoPU8pW05IXVtDSDJdW0NIMl1jMltjSF1bY0hdW2NIXVtjSF1uMg==

> <s_epik_cmdline>
J2VwaWtfcHl0aG9uJywgJy1waCcsICc3LjAnLCAnLXRuJywgJzgnLCAnLW1hJywgJzIwMCcsICctbWV0YWxfYmluZGluZycsICctaW1hZScsICc8aW5maWxlLm1hZT4nLCAnLW9tYWUnLCAnPG91dGZpbGUubWFlPic=

> <r_epik_Ionization_Penalty>
0.0255556

> <r_epik_Ionization_Penalty_Charging>
0

> <r_epik_Ionization_Penalty_Neutral>
0.0255556

> <r_epik_State_Penalty>
0.0208108

> <r_epik_Charging_Adjusted_Penalty>
0.0208108

> <i_epik_Tot_Q>
0

> <i_epik_Tot_abs_Q>
0

> <r_epik_Metal_State_Penalty>
0.0199448

> <b_epik_Metal_Only>
0

> <s_epik_Chemistry_Notes>
This compound contains an acetal/aminal-like group ( X-CH(R)-Y where X, Y are N, S, or O) that may be acid/base labile, releasing an aldehyde.

> <s_lp_Force_Field>
OPLS_2005

> <r_lp_Energy>
5.35786

> <b_lp_Chiralities_Consistent>
1

> <s_lp_Variant>
AV-unprocessed.smi:1970-1

> <Gold.Version>
5.8.1

> <Gold.Id.Protein>
6NUR|6NUR_protein|mol2

> <Gold.PLP.Fitness>
43.9305

> <Gold.PLP.PLP>
-39.3714

> <Gold.PLP.part.hbond>
-5.0000

> <Gold.PLP.part.metal>
0.0000

> <Gold.PLP.part.buried>
-3.7438

> <Gold.PLP.part.nonpolar>
-31.0062

> <Gold.PLP.part.repulsive>
0.2763

> <Gold.PLP.ligand.clash>
0.0000

> <Gold.PLP.ligand.torsion>
0.4862

> <Gold.PLP.Chemscore.Hbond>
1.8378

> <Gold.PLP.Chemscore.CHOScore>
0.0000

> <Gold.PLP.Chemscore.Metal>
0.0000

> <Gold.Chemscore.Hbonds>
donor molecule, donor type, donor heavy atom, donor atom, acceptor molecule, acceptor atom, score
      P1  H  7989  7998       L1     9  0.08
      P1  H  7997  8008       L1     1  0.91
      P1  H  8011  8017       L1     9  0.61

> <Gold.PLP.Chemscore.Internal.Correction>
0.0182

> <Gold.Rescore>
     Score         DG    S(hbond)    S(metal)    S(lipo)     H(rot)  DE(clash)    DE(int)     intcor
     15.73     -17.84       2.05        0.00      89.14       1.92       0.63       1.47       ----

> <Gold.Chemscore.Fitness>
15.7285

> <Gold.Chemscore.DG>
-17.8355

> <Gold.Chemscore.ZeroCoef>
-5.4800

> <Gold.Chemscore.Hbond>
2.0494

> <Gold.Chemscore.Metal>
0.0000

> <Gold.Chemscore.Lipo>
89.1414

> <Gold.Chemscore.Internal_Hbond>
0.0000

> <Gold.Chemscore.DEClash>
0.6343

> <Gold.Chemscore.DEInternal>
1.4727

> <Gold.Chemscore.Rot>
1.9215

> <Gold.Chemscore.Internal.Correction>
   9.000000E+99

> <Gold.Chemscore.Hbonds>
donor molecule, donor type, donor heavy atom, donor atom, acceptor molecule, acceptor atom, score
      P1  H  7989  7998       L1     9  0.07
      P1  H  7997  8008       L1     1  0.87
      P1  H  8011  8017       L1     9  0.58

> <Gold.Chemscore.Hbond.Weighted>
-6.8449

> <Gold.Chemscore.Metal.Weighted>
-0.0000

> <Gold.Chemscore.Lipo.Weighted>
-10.4295

> <Gold.Chemscore.Internal_Hbond.Weighted>
0.0000

> <Gold.Chemscore.DEClash.Weighted>
0.6343

> <Gold.Chemscore.DEInternal.Weighted>
1.4727

> <Gold.Chemscore.Rot.Weighted>
4.9190

> <Gold.Chemscore.Internal.Correction.Weighted>
   9.000000E+99

> <Gold.Protein.RotatedTorsions>
[ 6907 6896 6895 6894 ] final -116.69 input  -60.11 | X-H torsion
[ 7974 7965 7964 7962 ] final  -86.93 input  175.53 | X-H torsion
[ 8008 7997 7996 7995 ] final  -32.65 input   59.86 | X-H torsion
[ 10167 10162 10161 10158 ] final   -8.51 input  -65.29 | X-H torsion
[ 10718 10713 10712 10709 ] final   13.85 input   66.30 | X-H torsion
[ 10763 10752 10751 10750 ] final   79.08 input  -60.55 | X-H torsion
[ 11005 11000 10999 10996 ] final  138.91 input  -57.11 | X-H torsion

> <Gold.Protein.ActiveResidues>
 VAL166  LYS551  ARG553  GLY616  TRP617  ASP618  TYR619  PRO620  LYS621  CYS622 
 ASP623  PHE694  ASN695  SER759  ASP760  ASP761  ALA762  ILE779  LEU786  VAL792 
 PHE793  MET794  SER795  GLU796  ALA797  LYS798  CYS799  TRP800  GLU811  SER814 

> <Gold.Protein.RotatedAtoms>
  150.8076  133.8481  159.3197 H   0  0  0  0  0  0  0  0  0  0  0  0  # atno 6907 bound_to 6896
  151.6275  135.1024  160.0124 H   0  0  0  0  0  0  0  0  0  0  0  0  # atno 6908 bound_to 6896
  152.4167  133.7010  159.6481 H   0  0  0  0  0  0  0  0  0  0  0  0  # atno 6909 bound_to 6896
  145.4733  140.9559  143.1905 H   0  0  0  0  0  0  0  0  0  0  0  0  # atno 7974 bound_to 7965
  154.4173  140.1732  156.1761 H   0  0  0  0  0  0  0  0  0  0  0  0  # atno 8008 bound_to 7997
  155.9721  140.3385  155.6561 H   0  0  0  0  0  0  0  0  0  0  0  0  # atno 8009 bound_to 7997
  155.6612  140.0701  157.2544 H   0  0  0  0  0  0  0  0  0  0  0  0  # atno 8010 bound_to 7997
  140.7061  143.5961  150.8844 H   0  0  0  0  0  0  0  0  0  0  0  0  # atno 10167 bound_to 10162
  157.0306  130.6191  149.5735 H   0  0  0  0  0  0  0  0  0  0  0  0  # atno 10718 bound_to 10713
  153.0924  135.4853  154.8715 H   0  0  0  0  0  0  0  0  0  0  0  0  # atno 10763 bound_to 10752
  154.7285  135.3055  154.8933 H   0  0  0  0  0  0  0  0  0  0  0  0  # atno 10764 bound_to 10752
  153.9576  135.6816  153.4798 H   0  0  0  0  0  0  0  0  0  0  0  0  # atno 10765 bound_to 10752
  140.0217  134.9393  157.0487 H   0  0  0  0  0  0  0  0  0  0  0  0  # atno 11005 bound_to 11000
  144.7932  139.6286  143.7104 LP  0  0  0  0  0  0  0  0  0  0  0  0  # atno 17320 bound_to 7965
  146.2384  139.5951  142.9508 LP  0  0  0  0  0  0  0  0  0  0  0  0  # atno 17321 bound_to 7965
  139.9686  143.6082  152.2980 LP  0  0  0  0  0  0  0  0  0  0  0  0  # atno 17342 bound_to 10162
  139.6661  144.7662  151.1871 LP  0  0  0  0  0  0  0  0  0  0  0  0  # atno 17343 bound_to 10162
  156.0071  130.5158  150.7865 LP  0  0  0  0  0  0  0  0  0  0  0  0  # atno 17370 bound_to 10713
  157.5180  131.0930  151.0114 LP  0  0  0  0  0  0  0  0  0  0  0  0  # atno 17371 bound_to 10713
  140.4376  134.1715  155.7171 LP  0  0  0  0  0  0  0  0  0  0  0  0  # atno 17394 bound_to 11000
  141.1778  133.8478  157.1363 LP  0  0  0  0  0  0  0  0  0  0  0  0  # atno 17395 bound_to 11000

$$$$
