AV-unprocessed.smi:881|AV-procd|sdf|4036|dock5
  -GOLD-   22720 1533D 1   1.00000     0.00000
 Structure written by MMmdl.
 31 32  0  0  0  0  0  0  0  0  2 V2000
  150.9451  140.6406  155.2920 O   0  0  0  0  0  0  0  0  0  0  0  0
  150.2806  141.6784  155.3395 C   0  0  0  0  0  0  0  0  0  0  0  0
  149.2430  142.0023  154.5341 N   0  5  0  0  0  0  0  0  0  0  0  0
  148.4145  141.0439  154.0877 C   0  0  0  0  0  0  0  0  0  0  0  0
  148.7440  139.7424  154.1093 N   0  0  0  0  0  0  0  0  0  0  0  0
  147.7463  138.9181  153.6069 N   0  0  0  0  0  0  0  0  0  0  0  0
  146.6807  139.6221  153.2257 C   0  0  0  0  0  0  0  0  0  0  0  0
  146.7977  141.3548  153.4486 S   0  0  0  0  0  0  0  0  0  0  0  0
  150.5640  142.6160  156.2560 N   0  0  0  0  0  0  0  0  0  0  0  0
  151.6270  142.5581  157.2584 C   0  0  0  0  0  0  0  0  0  0  0  0
  151.3896  141.3457  158.1828 C   0  0  0  0  0  0  0  0  0  0  0  0
  152.4081  141.1796  159.3238 C   0  0  0  0  0  0  0  0  0  0  0  0
  152.2012  142.1955  160.4586 C   0  0  0  0  0  0  0  0  0  0  0  0
  152.9034  143.5511  160.2672 C   0  0  0  0  0  0  0  0  0  0  0  0
  152.9625  144.0980  158.8300 C   0  0  0  0  0  0  0  0  0  0  0  0
  151.6838  143.9126  157.9954 C   0  0  0  0  0  0  0  0  0  0  0  0
  145.8194  139.1179  152.8136 H   0  0  0  0  0  0  0  0  0  0  0  0
  149.9894  143.4457  156.2549 H   0  0  0  0  0  0  0  0  0  0  0  0
  152.5781  142.4211  156.7404 H   0  0  0  0  0  0  0  0  0  0  0  0
  150.3814  141.3876  158.5978 H   0  0  0  0  0  0  0  0  0  0  0  0
  151.4160  140.4396  157.5761 H   0  0  0  0  0  0  0  0  0  0  0  0
  152.2734  140.1811  159.7406 H   0  0  0  0  0  0  0  0  0  0  0  0
  153.4314  141.2087  158.9479 H   0  0  0  0  0  0  0  0  0  0  0  0
  151.1330  142.3564  160.6085 H   0  0  0  0  0  0  0  0  0  0  0  0
  152.5582  141.7620  161.3933 H   0  0  0  0  0  0  0  0  0  0  0  0
  152.4108  144.2824  160.9090 H   0  0  0  0  0  0  0  0  0  0  0  0
  153.9256  143.4775  160.6407 H   0  0  0  0  0  0  0  0  0  0  0  0
  153.1929  145.1624  158.8891 H   0  0  0  0  0  0  0  0  0  0  0  0
  153.8075  143.6533  158.3029 H   0  0  0  0  0  0  0  0  0  0  0  0
  151.6681  144.7049  157.2453 H   0  0  0  0  0  0  0  0  0  0  0  0
  150.7942  144.0661  158.6077 H   0  0  0  0  0  0  0  0  0  0  0  0
  1  2  2  0  0  0  0
  2  3  1  0  0  0  0
  2  9  1  0  0  0  0
  3  4  1  0  0  0  0
  4  8  1  0  0  0  0
  4  5  2  0  0  0  0
  5  6  1  0  0  0  0
  6  7  2  0  0  0  0
  7  8  1  0  0  0  0
  7 17  1  0  0  0  0
  9 10  1  0  0  0  0
  9 18  1  0  0  0  0
 10 16  1  0  0  0  0
 10 11  1  0  0  0  0
 10 19  1  0  0  0  0
 11 12  1  0  0  0  0
 11 20  1  0  0  0  0
 11 21  1  0  0  0  0
 12 13  1  0  0  0  0
 12 22  1  0  0  0  0
 12 23  1  0  0  0  0
 13 14  1  0  0  0  0
 13 24  1  0  0  0  0
 13 25  1  0  0  0  0
 14 15  1  0  0  0  0
 14 26  1  0  0  0  0
 14 27  1  0  0  0  0
 15 16  1  0  0  0  0
 15 28  1  0  0  0  0
 15 29  1  0  0  0  0
 16 30  1  0  0  0  0
 16 31  1  0  0  0  0
M  CHG  1   3  -1
M  END
> <s_m_source_file>
AV-unprocessed.smi

> <i_m_source_file_index>
881

> <i_lp_mmshare_version>
43012

> <i_f3d_flags>
0

> <s_epik_input>
czFbY0hdbm5jMVtOSF1DKD1PKVtOSF1bQ0hdMltDSDJdW0NIMl1bQ0gyXVtDSDJdW0NIMl1bQ0gyXTI=

> <s_epik_cmdline>
J2VwaWtfcHl0aG9uJywgJy1waCcsICc3LjAnLCAnLXRuJywgJzgnLCAnLW1hJywgJzIwMCcsICctbWV0YWxfYmluZGluZycsICctaW1hZScsICc8aW5maWxlLm1hZT4nLCAnLW9tYWUnLCAnPG91dGZpbGUubWFlPic=

> <r_lp_tautomer_probability>
1

> <r_epik_Ionization_Penalty>
4.55263

> <r_epik_Ionization_Penalty_Charging>
4.50588

> <r_epik_Ionization_Penalty_Neutral>
0.0467569

> <r_epik_State_Penalty>
4.50558

> <r_epik_Charging_Adjusted_Penalty>
9.01146

> <i_epik_Tot_Q>
-1

> <i_epik_Tot_abs_Q>
1

> <r_epik_Metal_State_Penalty>
0.822218

> <b_epik_Metal_Only>
1

> <s_lp_Force_Field>
OPLS_2005

> <r_lp_Energy>
12.3928

> <b_lp_Chiralities_Consistent>
1

> <s_lp_Variant>
AV-unprocessed.smi:881-2

> <Gold.Version>
5.8.1

> <Gold.Id.Protein>
6NUR|6NUR_protein|mol2

> <Gold.PLP.Fitness>
37.0643

> <Gold.PLP.PLP>
-29.9780

> <Gold.PLP.part.hbond>
-3.1587

> <Gold.PLP.part.metal>
0.0000

> <Gold.PLP.part.buried>
-3.4662

> <Gold.PLP.part.nonpolar>
-24.1451

> <Gold.PLP.part.repulsive>
1.9877

> <Gold.PLP.ligand.clash>
0.0000

> <Gold.PLP.ligand.torsion>
0.3286

> <Gold.PLP.Chemscore.Hbond>
1.8107

> <Gold.PLP.Chemscore.CHOScore>
0.7658

> <Gold.PLP.Chemscore.Metal>
0.0000

> <Gold.Chemscore.Hbonds>
donor molecule, donor type, donor heavy atom, donor atom, acceptor molecule, acceptor atom, score
      L1  H     9    18       P1  8028  1.00
      P1  H  7989  7998       L1     1  0.76
      P1  H  8011  8017       L1     3  0.05
      L1  C     7    17       P1 10175  0.73

> <Gold.PLP.Chemscore.Internal.Correction>
0.0138

> <Gold.Rescore>
     Score         DG    S(hbond)    S(metal)    S(lipo)     H(rot)  DE(clash)    DE(int)     intcor
     14.18     -17.64       1.33        0.00      87.89       1.00       0.60       2.86       ----

> <Gold.Chemscore.Fitness>
14.1813

> <Gold.Chemscore.DG>
-17.6412

> <Gold.Chemscore.ZeroCoef>
-5.4800

> <Gold.Chemscore.Hbond>
1.3288

> <Gold.Chemscore.Metal>
0.0000

> <Gold.Chemscore.Lipo>
87.8891

> <Gold.Chemscore.Internal_Hbond>
0.0000

> <Gold.Chemscore.DEClash>
0.6016

> <Gold.Chemscore.DEInternal>
2.8583

> <Gold.Chemscore.Rot>
1.0000

> <Gold.Chemscore.Internal.Correction>
   9.000000E+99

> <Gold.Chemscore.Hbonds>
donor molecule, donor type, donor heavy atom, donor atom, acceptor molecule, acceptor atom, score
      L1  H     9    18       P1  8028  1.00
      P1  H  7989  7998       L1     1  0.13

> <Gold.Chemscore.Hbond.Weighted>
-4.4382

> <Gold.Chemscore.Metal.Weighted>
-0.0000

> <Gold.Chemscore.Lipo.Weighted>
-10.2830

> <Gold.Chemscore.Internal_Hbond.Weighted>
0.0000

> <Gold.Chemscore.DEClash.Weighted>
0.6016

> <Gold.Chemscore.DEInternal.Weighted>
2.8583

> <Gold.Chemscore.Rot.Weighted>
2.5600

> <Gold.Chemscore.Internal.Correction.Weighted>
   9.000000E+99

> <Gold.Protein.RotatedTorsions>
[ 6907 6896 6895 6894 ] final -175.94 input  -60.11 | X-H torsion
[ 7974 7965 7964 7962 ] final   92.98 input  175.53 | X-H torsion
[ 8008 7997 7996 7995 ] final  -47.56 input   59.86 | X-H torsion
[ 10167 10162 10161 10158 ] final    4.64 input  -65.29 | X-H torsion
[ 10718 10713 10712 10709 ] final  -21.02 input   66.30 | X-H torsion
[ 10763 10752 10751 10750 ] final -112.06 input  -60.55 | X-H torsion
[ 11005 11000 10999 10996 ] final   95.01 input  -57.11 | X-H torsion

> <Gold.Protein.ActiveResidues>
 VAL166  LYS551  ARG553  GLY616  TRP617  ASP618  TYR619  PRO620  LYS621  CYS622 
 ASP623  PHE694  ASN695  SER759  ASP760  ASP761  ALA762  ILE779  LEU786  VAL792 
 PHE793  MET794  SER795  GLU796  ALA797  LYS798  CYS799  TRP800  GLU811  SER814 

> <Gold.Protein.RotatedAtoms>
  151.5968  133.3360  159.3038 H   0  0  0  0  0  0  0  0  0  0  0  0  # atno 6907 bound_to 6896
  150.8230  134.7450  159.6800 H   0  0  0  0  0  0  0  0  0  0  0  0  # atno 6908 bound_to 6896
  152.4322  134.5762  159.9986 H   0  0  0  0  0  0  0  0  0  0  0  0  # atno 6909 bound_to 6896
  145.4850  139.2277  143.2861 H   0  0  0  0  0  0  0  0  0  0  0  0  # atno 7974 bound_to 7965
  154.4018  140.1343  156.4195 H   0  0  0  0  0  0  0  0  0  0  0  0  # atno 8008 bound_to 7997
  155.7656  140.3485  155.5200 H   0  0  0  0  0  0  0  0  0  0  0  0  # atno 8009 bound_to 7997
  155.8817  140.0988  157.1471 H   0  0  0  0  0  0  0  0  0  0  0  0  # atno 8010 bound_to 7997
  140.6524  143.7512  150.7597 H   0  0  0  0  0  0  0  0  0  0  0  0  # atno 10167 bound_to 10162
  156.5239  130.4639  149.6582 H   0  0  0  0  0  0  0  0  0  0  0  0  # atno 10718 bound_to 10713
  154.8331  135.4505  154.1135 H   0  0  0  0  0  0  0  0  0  0  0  0  # atno 10763 bound_to 10752
  153.2390  135.6914  153.7810 H   0  0  0  0  0  0  0  0  0  0  0  0  # atno 10764 bound_to 10752
  153.7165  135.3348  155.3233 H   0  0  0  0  0  0  0  0  0  0  0  0  # atno 10765 bound_to 10752
  139.8793  134.8876  156.3947 H   0  0  0  0  0  0  0  0  0  0  0  0  # atno 11005 bound_to 11000
  146.2318  140.5639  142.8972 LP  0  0  0  0  0  0  0  0  0  0  0  0  # atno 17320 bound_to 7965
  144.7867  140.5950  143.6569 LP  0  0  0  0  0  0  0  0  0  0  0  0  # atno 17321 bound_to 7965
  140.1165  143.4651  152.2339 LP  0  0  0  0  0  0  0  0  0  0  0  0  # atno 17342 bound_to 10162
  139.5741  144.7478  151.3812 LP  0  0  0  0  0  0  0  0  0  0  0  0  # atno 17343 bound_to 10162
  156.3123  130.7236  151.2131 LP  0  0  0  0  0  0  0  0  0  0  0  0  # atno 17370 bound_to 10713
  157.7432  131.0478  150.4961 LP  0  0  0  0  0  0  0  0  0  0  0  0  # atno 17371 bound_to 10713
  140.9308  133.7580  156.0022 LP  0  0  0  0  0  0  0  0  0  0  0  0  # atno 17394 bound_to 11000
  140.8332  134.3153  157.5341 LP  0  0  0  0  0  0  0  0  0  0  0  0  # atno 17395 bound_to 11000

$$$$
