AV-unprocessed.smi:1244|AV-procd|sdf|5230|dock6
  -GOLD-   22720 4333D 1   1.00000     0.00000
 Structure written by MMmdl.
 55 57  0  0  0  0  0  0  0  0  2 V2000
  151.2573  140.8072  157.5212 C   0  0  0  0  0  0  0  0  0  0  0  0
  151.7284  140.6170  156.0689 C   0  0  1  0  0  0  0  0  0  0  0  0
  152.0388  139.1475  155.7215 C   0  0  0  0  0  0  0  0  0  0  0  0
  150.8300  138.3438  155.5969 N   0  0  0  0  0  0  0  0  0  0  0  0
  151.1382  136.9400  155.3188 C   0  0  0  0  0  0  0  0  0  0  0  0
  149.9942  135.9497  155.6255 C   0  0  0  0  0  0  0  0  0  0  0  0
  149.5487  135.2577  154.4209 N   0  0  0  0  0  0  0  0  0  0  0  0
  149.1982  133.9667  154.3614 C   0  0  0  0  0  0  0  0  0  0  0  0
  149.3943  133.1547  155.2658 O   0  0  0  0  0  0  0  0  0  0  0  0
  148.5631  133.6928  153.2128 N   0  0  0  0  0  0  0  0  0  0  0  0
  147.8289  132.5122  152.9404 C   0  0  0  0  0  0  0  0  0  0  0  0
  148.2291  131.2886  153.5299 C   0  0  0  0  0  0  0  0  0  0  0  0
  147.4984  130.1149  153.2677 C   0  0  0  0  0  0  0  0  0  0  0  0
  146.3805  130.1881  152.4186 C   0  0  0  0  0  0  0  0  0  0  0  0
  146.0319  131.3706  151.8689 N   0  3  0  0  0  0  0  0  0  0  0  0
  146.6980  132.5348  152.0734 C   0  0  0  0  0  0  0  0  0  0  0  0
  146.2078  133.7037  151.4427 N   0  0  0  0  0  0  0  0  0  0  0  0
  145.1935  133.5870  150.4009 C   0  0  0  0  0  0  0  0  0  0  0  0
  144.5643  134.9739  150.2746 C   0  0  0  0  0  0  0  0  0  0  0  0
  144.6921  135.5408  151.6829 C   0  0  0  0  0  0  0  0  0  0  0  0
  146.0074  134.9460  152.1897 C   0  0  0  0  0  0  0  0  0  0  0  0
  149.9564  138.9444  154.5959 C   0  0  0  0  0  0  0  0  0  0  0  0
  149.5953  140.3963  154.9596 C   0  0  2  0  0  0  0  0  0  0  0  0
  148.7554  141.0726  153.8709 C   0  0  0  0  0  0  0  0  0  0  0  0
  150.7905  141.1563  155.1348 O   0  0  0  0  0  0  0  0  0  0  0  0
  152.0314  140.4987  158.2243 H   0  0  0  0  0  0  0  0  0  0  0  0
  150.3678  140.2179  157.7410 H   0  0  0  0  0  0  0  0  0  0  0  0
  151.0244  141.8528  157.7225 H   0  0  0  0  0  0  0  0  0  0  0  0
  152.6466  141.1931  155.9513 H   0  0  0  0  0  0  0  0  0  0  0  0
  152.5966  139.1117  154.7841 H   0  0  0  0  0  0  0  0  0  0  0  0
  152.6932  138.7244  156.4849 H   0  0  0  0  0  0  0  0  0  0  0  0
  151.4567  136.8245  154.2819 H   0  0  0  0  0  0  0  0  0  0  0  0
  151.9961  136.6462  155.9255 H   0  0  0  0  0  0  0  0  0  0  0  0
  150.3271  135.1996  156.3427 H   0  0  0  0  0  0  0  0  0  0  0  0
  149.1573  136.4697  156.0941 H   0  0  0  0  0  0  0  0  0  0  0  0
  149.3639  135.8370  153.6150 H   0  0  0  0  0  0  0  0  0  0  0  0
  148.3890  134.4768  152.6016 H   0  0  0  0  0  0  0  0  0  0  0  0
  149.0900  131.2455  154.1813 H   0  0  0  0  0  0  0  0  0  0  0  0
  147.7900  129.1751  153.7135 H   0  0  0  0  0  0  0  0  0  0  0  0
  145.7579  129.3430  152.1631 H   0  0  0  0  0  0  0  0  0  0  0  0
  145.6164  133.2841  149.4438 H   0  0  0  0  0  0  0  0  0  0  0  0
  144.4474  132.8492  150.6999 H   0  0  0  0  0  0  0  0  0  0  0  0
  145.1434  135.5828  149.5790 H   0  0  0  0  0  0  0  0  0  0  0  0
  143.5344  134.9421  149.9176 H   0  0  0  0  0  0  0  0  0  0  0  0
  144.6828  136.6307  151.7071 H   0  0  0  0  0  0  0  0  0  0  0  0
  143.8649  135.1830  152.2973 H   0  0  0  0  0  0  0  0  0  0  0  0
  145.9753  134.8294  153.2723 H   0  0  0  0  0  0  0  0  0  0  0  0
  146.8366  135.6152  151.9597 H   0  0  0  0  0  0  0  0  0  0  0  0
  150.4415  138.9176  153.6187 H   0  0  0  0  0  0  0  0  0  0  0  0
  149.0363  138.3677  154.5038 H   0  0  0  0  0  0  0  0  0  0  0  0
  149.0232  140.4052  155.8880 H   0  0  0  0  0  0  0  0  0  0  0  0
  147.8202  140.5367  153.7065 H   0  0  0  0  0  0  0  0  0  0  0  0
  149.2930  141.1077  152.9227 H   0  0  0  0  0  0  0  0  0  0  0  0
  148.5067  142.0965  154.1510 H   0  0  0  0  0  0  0  0  0  0  0  0
  145.2150  131.3886  151.2581 H   0  0  0  0  0  0  0  0  0  0  0  0
  1  2  1  0  0  0  0
  1 26  1  0  0  0  0
  1 27  1  0  0  0  0
  1 28  1  0  0  0  0
  2 25  1  0  0  0  0
  2  3  1  0  0  0  0
  2 29  1  0  0  0  0
  3  4  1  0  0  0  0
  3 30  1  0  0  0  0
  3 31  1  0  0  0  0
  4  5  1  0  0  0  0
  4 22  1  0  0  0  0
  5  6  1  0  0  0  0
  5 32  1  0  0  0  0
  5 33  1  0  0  0  0
  6  7  1  0  0  0  0
  6 34  1  0  0  0  0
  6 35  1  0  0  0  0
  7  8  1  0  0  0  0
  7 36  1  0  0  0  0
  8  9  2  0  0  0  0
  8 10  1  0  0  0  0
 10 11  1  0  0  0  0
 10 37  1  0  0  0  0
 11 16  1  0  0  0  0
 11 12  2  0  0  0  0
 12 13  1  0  0  0  0
 12 38  1  0  0  0  0
 13 14  2  0  0  0  0
 13 39  1  0  0  0  0
 14 15  1  0  0  0  0
 14 40  1  0  0  0  0
 15 16  2  0  0  0  0
 15 55  1  0  0  0  0
 16 17  1  0  0  0  0
 17 21  1  0  0  0  0
 17 18  1  0  0  0  0
 18 19  1  0  0  0  0
 18 41  1  0  0  0  0
 18 42  1  0  0  0  0
 19 20  1  0  0  0  0
 19 43  1  0  0  0  0
 19 44  1  0  0  0  0
 20 21  1  0  0  0  0
 20 45  1  0  0  0  0
 20 46  1  0  0  0  0
 21 47  1  0  0  0  0
 21 48  1  0  0  0  0
 22 23  1  0  0  0  0
 22 49  1  0  0  0  0
 22 50  1  0  0  0  0
 23 24  1  0  0  0  0
 23 25  1  0  0  0  0
 23 51  1  0  0  0  0
 24 52  1  0  0  0  0
 24 53  1  0  0  0  0
 24 54  1  0  0  0  0
M  CHG  1  15   1
M  END
> <s_m_source_file>
AV-unprocessed.smi

> <i_m_source_file_index>
1244

> <i_lp_mmshare_version>
43012

> <i_f3d_flags>
0

> <s_epik_input>
W0NIM11bQ0BASF0xW0NIMl1OKFtDSDJdW0NASF0oTzEpW0NIM10pW0NIMl1bQ0gyXVtOSF1DKD1PKVtOSF1jMltjSF1bY0hdW2NIXW5jMk4zW0NIMl1bQ0gyXVtDSDJdW0NIMl0z

> <s_epik_cmdline>
J2VwaWtfcHl0aG9uJywgJy1waCcsICc3LjAnLCAnLXRuJywgJzgnLCAnLW1hJywgJzIwMCcsICctbWV0YWxfYmluZGluZycsICctaW1hZScsICc8aW5maWxlLm1hZT4nLCAnLW9tYWUnLCAnPG91dGZpbGUubWFlPic=

> <r_epik_Ionization_Penalty>
1.38385

> <r_epik_Ionization_Penalty_Charging>
1.11784

> <r_epik_Ionization_Penalty_Neutral>
0.26601

> <r_epik_State_Penalty>
1.46794

> <r_epik_Charging_Adjusted_Penalty>
2.58578

> <i_epik_Tot_Q>
1

> <i_epik_Tot_abs_Q>
1

> <r_epik_Metal_State_Penalty>
1.54908

> <b_epik_Metal_Only>
0

> <s_lp_Force_Field>
OPLS_2005

> <r_lp_Energy>
60.8331

> <b_lp_Chiralities_Consistent>
1

> <s_lp_Variant>
AV-unprocessed.smi:1244-10

> <Gold.Version>
5.8.1

> <Gold.Id.Protein>
6NUR|6NUR_protein|mol2

> <Gold.PLP.Fitness>
50.2175

> <Gold.PLP.PLP>
-44.1266

> <Gold.PLP.part.hbond>
-3.0000

> <Gold.PLP.part.metal>
0.0000

> <Gold.PLP.part.buried>
-4.5144

> <Gold.PLP.part.nonpolar>
-36.6624

> <Gold.PLP.part.repulsive>
0.1656

> <Gold.PLP.ligand.clash>
0.0000

> <Gold.PLP.ligand.torsion>
1.3247

> <Gold.PLP.Chemscore.Hbond>
2.5680

> <Gold.PLP.Chemscore.CHOScore>
0.0000

> <Gold.PLP.Chemscore.Metal>
0.0000

> <Gold.Chemscore.Hbonds>
donor molecule, donor type, donor heavy atom, donor atom, acceptor molecule, acceptor atom, score
      L1  H     7    36       P1  7948  1.00
      L1  H    10    37       P1  7948  0.84
      P1  H  7989  7998       L1    25  0.62

> <Gold.PLP.Chemscore.Internal.Correction>
1.0364

> <Gold.Rescore>
     Score         DG    S(hbond)    S(metal)    S(lipo)     H(rot)  DE(clash)    DE(int)     intcor
     14.57     -18.14       1.54        0.00      94.98       1.40       0.03       3.55       ----

> <Gold.Chemscore.Fitness>
14.5697

> <Gold.Chemscore.DG>
-18.1443

> <Gold.Chemscore.ZeroCoef>
-5.4800

> <Gold.Chemscore.Hbond>
1.5394

> <Gold.Chemscore.Metal>
0.0000

> <Gold.Chemscore.Lipo>
94.9801

> <Gold.Chemscore.Internal_Hbond>
0.0000

> <Gold.Chemscore.DEClash>
0.0291

> <Gold.Chemscore.DEInternal>
3.5455

> <Gold.Chemscore.Rot>
1.4023

> <Gold.Chemscore.Internal.Correction>
   9.000000E+99

> <Gold.Chemscore.Hbonds>
donor molecule, donor type, donor heavy atom, donor atom, acceptor molecule, acceptor atom, score
      L1  H     7    36       P1  7948  0.55
      L1  H    10    37       P1  7948  0.14
      P1  H  7989  7998       L1    25  0.09

> <Gold.Chemscore.Hbond.Weighted>
-5.1416

> <Gold.Chemscore.Metal.Weighted>
-0.0000

> <Gold.Chemscore.Lipo.Weighted>
-11.1127

> <Gold.Chemscore.Internal_Hbond.Weighted>
0.0000

> <Gold.Chemscore.DEClash.Weighted>
0.0291

> <Gold.Chemscore.DEInternal.Weighted>
3.5455

> <Gold.Chemscore.Rot.Weighted>
3.5899

> <Gold.Chemscore.Internal.Correction.Weighted>
   9.000000E+99

> <Gold.Protein.RotatedTorsions>
[ 6907 6896 6895 6894 ] final  -11.70 input  -60.11 | X-H torsion
[ 7974 7965 7964 7962 ] final  129.78 input  175.53 | X-H torsion
[ 8008 7997 7996 7995 ] final   29.79 input   59.86 | X-H torsion
[ 10167 10162 10161 10158 ] final   12.98 input  -65.29 | X-H torsion
[ 10718 10713 10712 10709 ] final  -46.28 input   66.30 | X-H torsion
[ 10763 10752 10751 10750 ] final  -49.51 input  -60.55 | X-H torsion
[ 11005 11000 10999 10996 ] final  152.33 input  -57.11 | X-H torsion

> <Gold.Protein.ActiveResidues>
 VAL166  LYS551  ARG553  GLY616  TRP617  ASP618  TYR619  PRO620  LYS621  CYS622 
 ASP623  PHE694  ASN695  SER759  ASP760  ASP761  ALA762  ILE779  LEU786  VAL792 
 PHE793  MET794  SER795  GLU796  ALA797  LYS798  CYS799  TRP800  GLU811  SER814 

> <Gold.Protein.RotatedAtoms>
  151.3821  135.0941  159.9499 H   0  0  0  0  0  0  0  0  0  0  0  0  # atno 6907 bound_to 6896
  152.5105  133.9062  159.7475 H   0  0  0  0  0  0  0  0  0  0  0  0  # atno 6908 bound_to 6896
  150.9497  133.6508  159.2803 H   0  0  0  0  0  0  0  0  0  0  0  0  # atno 6909 bound_to 6896
  145.0249  139.4098  143.5178 H   0  0  0  0  0  0  0  0  0  0  0  0  # atno 7974 bound_to 7965
  155.0801  140.3209  155.4604 H   0  0  0  0  0  0  0  0  0  0  0  0  # atno 8008 bound_to 7997
  156.2769  140.2096  156.5875 H   0  0  0  0  0  0  0  0  0  0  0  0  # atno 8009 bound_to 7997
  154.6985  140.0509  157.0422 H   0  0  0  0  0  0  0  0  0  0  0  0  # atno 8010 bound_to 7997
  140.6033  143.8560  150.6987 H   0  0  0  0  0  0  0  0  0  0  0  0  # atno 10167 bound_to 10162
  156.2198  130.4165  149.9007 H   0  0  0  0  0  0  0  0  0  0  0  0  # atno 10718 bound_to 10713
  154.0953  135.6571  153.4859 H   0  0  0  0  0  0  0  0  0  0  0  0  # atno 10763 bound_to 10752
  153.0307  135.5212  154.7340 H   0  0  0  0  0  0  0  0  0  0  0  0  # atno 10764 bound_to 10752
  154.6476  135.2997  154.9996 H   0  0  0  0  0  0  0  0  0  0  0  0  # atno 10765 bound_to 10752
  140.1298  134.8809  157.2188 H   0  0  0  0  0  0  0  0  0  0  0  0  # atno 11005 bound_to 11000
  146.3491  139.9768  142.8700 LP  0  0  0  0  0  0  0  0  0  0  0  0  # atno 17320 bound_to 7965
  145.1846  140.9783  143.4246 LP  0  0  0  0  0  0  0  0  0  0  0  0  # atno 17321 bound_to 7965
  140.2111  143.3882  152.1717 LP  0  0  0  0  0  0  0  0  0  0  0  0  # atno 17342 bound_to 10162
  139.5306  144.7155  151.5069 LP  0  0  0  0  0  0  0  0  0  0  0  0  # atno 17343 bound_to 10162
  156.6657  130.8800  151.3554 LP  0  0  0  0  0  0  0  0  0  0  0  0  # atno 17370 bound_to 10713
  157.7082  130.9409  150.1000 LP  0  0  0  0  0  0  0  0  0  0  0  0  # atno 17371 bound_to 10713
  140.2857  134.3299  155.7330 LP  0  0  0  0  0  0  0  0  0  0  0  0  # atno 17394 bound_to 11000
  141.2168  133.7504  156.9429 LP  0  0  0  0  0  0  0  0  0  0  0  0  # atno 17395 bound_to 11000

$$$$
