AV-unprocessed.smi:393|AV-procd|sdf|2484|dock2
  -GOLD-   2262022423D 1   1.00000     0.00000
 Structure written by MMmdl.
 43 44  0  0  0  0  0  0  0  0  1 V2000
  145.0968  135.5611  151.0887 C   0  0  0  0  0  0  0  0  0  0  0  0
  145.9687  136.8104  150.9218 C   0  0  0  0  0  0  0  0  0  0  0  0
  145.9615  137.7045  152.1699 C   0  0  0  0  0  0  0  0  0  0  0  0
  146.9114  138.9075  152.0371 C   0  0  0  0  0  0  0  0  0  0  0  0
  147.1148  139.6304  153.3702 C   0  0  0  0  0  0  0  0  0  0  0  0
  146.3687  139.3977  154.3214 O   0  0  0  0  0  0  0  0  0  0  0  0
  148.1350  140.4998  153.4302 N   0  0  0  0  0  0  0  0  0  0  0  0
  148.5291  141.2438  154.6227 C   0  0  0  0  0  0  0  0  0  0  0  0
  149.8577  140.8134  155.2331 C   0  0  0  0  0  0  0  0  0  0  0  0
  150.5807  139.7556  154.6487 C   0  0  0  0  0  0  0  0  0  0  0  0
  151.8080  139.3814  155.2254 C   0  0  0  0  0  0  0  0  0  0  0  0
  152.3262  139.9814  156.3170 N   0  0  0  0  0  0  0  0  0  0  0  0
  151.6349  140.9916  156.9002 C   0  0  0  0  0  0  0  0  0  0  0  0
  152.1885  141.6093  158.0428 N   0  0  0  0  0  0  0  0  0  0  0  0
  151.4911  142.7985  158.5263 C   0  0  0  0  0  0  0  0  0  0  0  0
  152.3591  143.5477  159.5519 C   0  0  0  0  0  0  0  0  0  0  0  0
  152.7362  142.6638  160.6022 O   0  0  0  0  0  0  0  0  0  0  0  0
  153.5111  141.5708  160.1204 C   0  0  0  0  0  0  0  0  0  0  0  0
  152.6830  140.7503  159.1172 C   0  0  0  0  0  0  0  0  0  0  0  0
  150.3934  141.4343  156.3843 C   0  0  0  0  0  0  0  0  0  0  0  0
  145.1297  134.9408  150.1928 H   0  0  0  0  0  0  0  0  0  0  0  0
  144.0558  135.8296  151.2694 H   0  0  0  0  0  0  0  0  0  0  0  0
  145.4370  134.9527  151.9271 H   0  0  0  0  0  0  0  0  0  0  0  0
  146.9911  136.5063  150.6952 H   0  0  0  0  0  0  0  0  0  0  0  0
  145.6183  137.3814  150.0614 H   0  0  0  0  0  0  0  0  0  0  0  0
  144.9447  138.0544  152.3548 H   0  0  0  0  0  0  0  0  0  0  0  0
  146.2456  137.1099  153.0400 H   0  0  0  0  0  0  0  0  0  0  0  0
  147.8748  138.5753  151.6470 H   0  0  0  0  0  0  0  0  0  0  0  0
  146.5123  139.6211  151.3157 H   0  0  0  0  0  0  0  0  0  0  0  0
  148.6966  140.6333  152.6020 H   0  0  0  0  0  0  0  0  0  0  0  0
  148.6031  142.2978  154.3546 H   0  0  0  0  0  0  0  0  0  0  0  0
  147.7415  141.1712  155.3746 H   0  0  0  0  0  0  0  0  0  0  0  0
  150.2090  139.2449  153.7723 H   0  0  0  0  0  0  0  0  0  0  0  0
  152.3907  138.5789  154.7981 H   0  0  0  0  0  0  0  0  0  0  0  0
  151.2372  143.4788  157.7148 H   0  0  0  0  0  0  0  0  0  0  0  0
  150.5519  142.4911  158.9877 H   0  0  0  0  0  0  0  0  0  0  0  0
  153.2479  143.9658  159.0769 H   0  0  0  0  0  0  0  0  0  0  0  0
  151.8020  144.3837  159.9747 H   0  0  0  0  0  0  0  0  0  0  0  0
  154.4292  141.9378  159.6583 H   0  0  0  0  0  0  0  0  0  0  0  0
  153.8067  140.9458  160.9629 H   0  0  0  0  0  0  0  0  0  0  0  0
  151.8374  140.2831  159.6243 H   0  0  0  0  0  0  0  0  0  0  0  0
  153.3018  139.9509  158.7078 H   0  0  0  0  0  0  0  0  0  0  0  0
  149.8680  142.2530  156.8523 H   0  0  0  0  0  0  0  0  0  0  0  0
  1  2  1  0  0  0  0
  1 21  1  0  0  0  0
  1 22  1  0  0  0  0
  1 23  1  0  0  0  0
  2  3  1  0  0  0  0
  2 24  1  0  0  0  0
  2 25  1  0  0  0  0
  3  4  1  0  0  0  0
  3 26  1  0  0  0  0
  3 27  1  0  0  0  0
  4  5  1  0  0  0  0
  4 28  1  0  0  0  0
  4 29  1  0  0  0  0
  5  6  2  0  0  0  0
  5  7  1  0  0  0  0
  7  8  1  0  0  0  0
  7 30  1  0  0  0  0
  8  9  1  0  0  0  0
  8 31  1  0  0  0  0
  8 32  1  0  0  0  0
  9 20  1  0  0  0  0
  9 10  2  0  0  0  0
 10 11  1  0  0  0  0
 10 33  1  0  0  0  0
 11 12  2  0  0  0  0
 11 34  1  0  0  0  0
 12 13  1  0  0  0  0
 13 14  1  0  0  0  0
 13 20  2  0  0  0  0
 14 19  1  0  0  0  0
 14 15  1  0  0  0  0
 15 16  1  0  0  0  0
 15 35  1  0  0  0  0
 15 36  1  0  0  0  0
 16 17  1  0  0  0  0
 16 37  1  0  0  0  0
 16 38  1  0  0  0  0
 17 18  1  0  0  0  0
 18 19  1  0  0  0  0
 18 39  1  0  0  0  0
 18 40  1  0  0  0  0
 19 41  1  0  0  0  0
 19 42  1  0  0  0  0
 20 43  1  0  0  0  0
M  END
> <s_m_source_file>
AV-unprocessed.smi

> <i_m_source_file_index>
393

> <i_lp_mmshare_version>
43012

> <i_f3d_flags>
0

> <s_epik_input>
W0NIM11bQ0gyXVtDSDJdW0NIMl1DKD1PKVtOSF1bQ0gyXWMxW2NIXVtjSF1uYyhbY0hdMSlOMltDSDJdW0NIMl1PW0NIMl1bQ0gyXTI=

> <s_epik_cmdline>
J2VwaWtfcHl0aG9uJywgJy1waCcsICc3LjAnLCAnLXRuJywgJzgnLCAnLW1hJywgJzIwMCcsICctbWV0YWxfYmluZGluZycsICctaW1hZScsICc8aW5maWxlLm1hZT4nLCAnLW9tYWUnLCAnPG91dGZpbGUubWFlPic=

> <r_lp_tautomer_probability>
1

> <r_epik_Ionization_Penalty>
0.00585334

> <r_epik_Ionization_Penalty_Charging>
0

> <r_epik_Ionization_Penalty_Neutral>
0.00585334

> <r_epik_State_Penalty>
0.00430121

> <r_epik_Charging_Adjusted_Penalty>
0.00430121

> <i_epik_Tot_Q>
0

> <i_epik_Tot_abs_Q>
0

> <r_epik_Metal_State_Penalty>
-0

> <b_epik_Metal_Only>
0

> <s_lp_Force_Field>
OPLS_2005

> <r_lp_Energy>
14.3492

> <b_lp_Chiralities_Consistent>
1

> <s_lp_Variant>
AV-unprocessed.smi:393-1

> <Gold.Version>
5.8.1

> <Gold.Id.Protein>
6NUR|6NUR_protein|mol2

> <Gold.PLP.Fitness>
47.2676

> <Gold.PLP.PLP>
-41.9163

> <Gold.PLP.part.hbond>
-1.9688

> <Gold.PLP.part.metal>
0.0000

> <Gold.PLP.part.buried>
0.3783

> <Gold.PLP.part.nonpolar>
-40.9543

> <Gold.PLP.part.repulsive>
0.2496

> <Gold.PLP.ligand.clash>
0.0000

> <Gold.PLP.ligand.torsion>
0.4271

> <Gold.PLP.Chemscore.Hbond>
1.9425

> <Gold.PLP.Chemscore.CHOScore>
0.0000

> <Gold.PLP.Chemscore.Metal>
0.0000

> <Gold.Chemscore.Hbonds>
donor molecule, donor type, donor heavy atom, donor atom, acceptor molecule, acceptor atom, score
      L1  H     7    30       P1  7957  1.00
      P1  H  7997  8008       L1    12  1.00

> <Gold.PLP.Chemscore.Internal.Correction>
0.3780

> <Gold.Rescore>
     Score         DG    S(hbond)    S(metal)    S(lipo)     H(rot)  DE(clash)    DE(int)     intcor
     18.26     -18.97       1.74        0.00     104.44       1.77       0.31       0.41       ----

> <Gold.Chemscore.Fitness>
18.2588

> <Gold.Chemscore.DG>
-18.9750

> <Gold.Chemscore.ZeroCoef>
-5.4800

> <Gold.Chemscore.Hbond>
1.7372

> <Gold.Chemscore.Metal>
0.0000

> <Gold.Chemscore.Lipo>
104.4434

> <Gold.Chemscore.Internal_Hbond>
0.0000

> <Gold.Chemscore.DEClash>
0.3111

> <Gold.Chemscore.DEInternal>
0.4051

> <Gold.Chemscore.Rot>
1.7684

> <Gold.Chemscore.Internal.Correction>
   9.000000E+99

> <Gold.Chemscore.Hbonds>
donor molecule, donor type, donor heavy atom, donor atom, acceptor molecule, acceptor atom, score
      L1  H     7    30       P1  7957  0.98
      P1  H  7997  8008       L1    12  0.82

> <Gold.Chemscore.Hbond.Weighted>
-5.8021

> <Gold.Chemscore.Metal.Weighted>
-0.0000

> <Gold.Chemscore.Lipo.Weighted>
-12.2199

> <Gold.Chemscore.Internal_Hbond.Weighted>
0.0000

> <Gold.Chemscore.DEClash.Weighted>
0.3111

> <Gold.Chemscore.DEInternal.Weighted>
0.4051

> <Gold.Chemscore.Rot.Weighted>
4.5271

> <Gold.Chemscore.Internal.Correction.Weighted>
   9.000000E+99

> <Gold.Protein.RotatedTorsions>
[ 6907 6896 6895 6894 ] final -100.59 input  -60.11 | X-H torsion
[ 7974 7965 7964 7962 ] final  -64.39 input  175.53 | X-H torsion
[ 8008 7997 7996 7995 ] final  -44.02 input   59.86 | X-H torsion
[ 10167 10162 10161 10158 ] final  -53.86 input  -65.29 | X-H torsion
[ 10718 10713 10712 10709 ] final  107.76 input   66.30 | X-H torsion
[ 10763 10752 10751 10750 ] final  -37.92 input  -60.55 | X-H torsion
[ 11005 11000 10999 10996 ] final  -83.04 input  -57.11 | X-H torsion

> <Gold.Protein.ActiveResidues>
 VAL166  LYS551  ARG553  GLY616  TRP617  ASP618  TYR619  PRO620  LYS621  CYS622 
 ASP623  PHE694  ASN695  SER759  ASP760  ASP761  ALA762  ILE779  LEU786  VAL792 
 PHE793  MET794  SER795  GLU796  ALA797  LYS798  CYS799  TRP800  GLU811  SER814 

> <Gold.Protein.RotatedAtoms>
  150.7122  134.0864  159.3915 H   0  0  0  0  0  0  0  0  0  0  0  0  # atno 6907 bound_to 6896
  151.8848  135.0437  160.0501 H   0  0  0  0  0  0  0  0  0  0  0  0  # atno 6908 bound_to 6896
  152.2539  133.5203  159.5378 H   0  0  0  0  0  0  0  0  0  0  0  0  # atno 6909 bound_to 6896
  145.7673  140.8831  143.0398 H   0  0  0  0  0  0  0  0  0  0  0  0  # atno 7974 bound_to 7965
  154.3997  140.1433  156.3614 H   0  0  0  0  0  0  0  0  0  0  0  0  # atno 8008 bound_to 7997
  155.8178  140.3470  155.5475 H   0  0  0  0  0  0  0  0  0  0  0  0  # atno 8009 bound_to 7997
  155.8320  140.0913  157.1777 H   0  0  0  0  0  0  0  0  0  0  0  0  # atno 8010 bound_to 7997
  140.6462  143.2537  151.4853 H   0  0  0  0  0  0  0  0  0  0  0  0  # atno 10167 bound_to 10162
  157.6615  131.0879  150.6205 H   0  0  0  0  0  0  0  0  0  0  0  0  # atno 10718 bound_to 10713
  153.9042  135.6799  153.4754 H   0  0  0  0  0  0  0  0  0  0  0  0  # atno 10763 bound_to 10752
  153.1113  135.4782  154.9037 H   0  0  0  0  0  0  0  0  0  0  0  0  # atno 10764 bound_to 10752
  154.7560  135.3197  154.8424 H   0  0  0  0  0  0  0  0  0  0  0  0  # atno 10765 bound_to 10752
  141.1660  133.7274  156.8662 H   0  0  0  0  0  0  0  0  0  0  0  0  # atno 11005 bound_to 11000
  144.6819  139.9807  143.7483 LP  0  0  0  0  0  0  0  0  0  0  0  0  # atno 17320 bound_to 7965
  146.0204  139.3246  143.0816 LP  0  0  0  0  0  0  0  0  0  0  0  0  # atno 17321 bound_to 7965
  139.5673  144.2012  152.1784 LP  0  0  0  0  0  0  0  0  0  0  0  0  # atno 17342 bound_to 10162
  140.1298  144.5298  150.6810 LP  0  0  0  0  0  0  0  0  0  0  0  0  # atno 17343 bound_to 10162
  156.6508  130.4484  149.5720 LP  0  0  0  0  0  0  0  0  0  0  0  0  # atno 17370 bound_to 10713
  156.2139  130.6696  151.1298 LP  0  0  0  0  0  0  0  0  0  0  0  0  # atno 17371 bound_to 10713
  140.1814  134.9031  157.2952 LP  0  0  0  0  0  0  0  0  0  0  0  0  # atno 17394 bound_to 11000
  140.2391  134.3817  155.7488 LP  0  0  0  0  0  0  0  0  0  0  0  0  # atno 17395 bound_to 11000

$$$$
