AV-unprocessed.smi:287|AV-procd|sdf|2181|dock5
  -GOLD-   2262021553D 1   1.00000     0.00000
 Structure written by MMmdl.
 55 58  0  0  0  0  0  0  0  0  1 V2000
  154.5699  140.8660  160.6061 C   0  0  0  0  0  0  0  0  0  0  0  0
  153.5129  141.7151  159.9874 C   0  0  0  0  0  0  0  0  0  0  0  0
  152.7146  141.5785  158.8894 C   0  0  0  0  0  0  0  0  0  0  0  0
  151.8941  142.7433  158.8111 C   0  0  0  0  0  0  0  0  0  0  0  0
  150.8516  143.0251  157.7375 C   0  0  1  0  0  0  0  0  0  0  0  0
  149.4394  142.9361  158.3411 C   0  0  0  0  0  0  0  0  0  0  0  0
  150.9450  144.3324  157.2053 O   0  0  0  0  0  0  0  0  0  0  0  0
  150.9785  142.0601  156.5375 C   0  0  0  0  0  0  0  0  0  0  0  0
  149.8460  142.1397  155.6238 N   0  0  0  0  0  0  0  0  0  0  0  0
  149.0964  141.0520  155.3473 C   0  0  0  0  0  0  0  0  0  0  0  0
  147.9608  141.2902  154.6484 N   0  0  0  0  0  0  0  0  0  0  0  0
  147.1481  140.2817  154.3214 C   0  0  0  0  0  0  0  0  0  0  0  0
  147.2837  138.9812  154.5874 N   0  0  0  0  0  0  0  0  0  0  0  0
  148.4263  138.7330  155.2903 C   0  0  0  0  0  0  0  0  0  0  0  0
  149.3810  139.7021  155.7122 C   0  0  0  0  0  0  0  0  0  0  0  0
  150.4008  139.0619  156.4091 N   0  0  0  0  0  0  0  0  0  0  0  0
  150.0649  137.8006  156.3956 C   0  0  0  0  0  0  0  0  0  0  0  0
  148.8941  137.5132  155.7276 N   0  0  0  0  0  0  0  0  0  0  0  0
  148.2108  136.1960  155.5216 C   0  0  2  0  0  0  0  0  0  0  0  0
  147.7949  135.7194  156.7665 O   0  0  0  0  0  0  0  0  0  0  0  0
  148.7719  134.8200  157.2806 C   0  0  1  0  0  0  0  0  0  0  0  0
  148.1993  133.9593  158.4203 C   0  0  0  0  0  0  0  0  0  0  0  0
  149.1254  132.9562  158.7806 O   0  0  0  0  0  0  0  0  0  0  0  0
  149.1896  134.0590  156.0166 C   0  0  1  0  0  0  0  0  0  0  0  0
  148.2514  133.0376  155.7174 O   0  0  0  0  0  0  0  0  0  0  0  0
  149.2119  135.1660  154.9627 C   0  0  1  0  0  0  0  0  0  0  0  0
  148.8749  134.7005  153.6692 O   0  0  0  0  0  0  0  0  0  0  0  0
  152.2642  143.5062  159.8932 C   0  0  0  0  0  0  0  0  0  0  0  0
  151.8301  144.8309  160.4286 C   0  0  0  0  0  0  0  0  0  0  0  0
  153.2446  142.8897  160.6106 O   0  0  0  0  0  0  0  0  0  0  0  0
  147.3624  136.4175  154.8729 H   0  0  0  0  0  0  0  0  0  0  0  0
  149.6333  135.3873  157.6386 H   0  0  0  0  0  0  0  0  0  0  0  0
  150.1701  133.5951  156.1296 H   0  0  0  0  0  0  0  0  0  0  0  0
  150.2090  135.6082  154.9287 H   0  0  0  0  0  0  0  0  0  0  0  0
  154.8933  140.0845  159.9181 H   0  0  0  0  0  0  0  0  0  0  0  0
  154.1985  140.3871  161.5121 H   0  0  0  0  0  0  0  0  0  0  0  0
  155.4421  141.4638  160.8716 H   0  0  0  0  0  0  0  0  0  0  0  0
  152.7200  140.7374  158.2122 H   0  0  0  0  0  0  0  0  0  0  0  0
  149.2417  141.9421  158.7438 H   0  0  0  0  0  0  0  0  0  0  0  0
  148.6710  143.1436  157.5951 H   0  0  0  0  0  0  0  0  0  0  0  0
  149.3110  143.6507  159.1554 H   0  0  0  0  0  0  0  0  0  0  0  0
  150.1329  144.5358  156.7669 H   0  0  0  0  0  0  0  0  0  0  0  0
  151.8682  142.3345  155.9692 H   0  0  0  0  0  0  0  0  0  0  0  0
  151.1219  141.0336  156.8783 H   0  0  0  0  0  0  0  0  0  0  0  0
  149.6793  143.0474  155.2132 H   0  0  0  0  0  0  0  0  0  0  0  0
  146.2624  140.5566  153.7678 H   0  0  0  0  0  0  0  0  0  0  0  0
  150.6715  137.0465  156.8759 H   0  0  0  0  0  0  0  0  0  0  0  0
  147.9434  134.5661  159.2895 H   0  0  0  0  0  0  0  0  0  0  0  0
  147.2881  133.4593  158.0908 H   0  0  0  0  0  0  0  0  0  0  0  0
  148.8925  132.6261  159.6349 H   0  0  0  0  0  0  0  0  0  0  0  0
  148.7238  132.2267  155.6030 H   0  0  0  0  0  0  0  0  0  0  0  0
  148.7461  135.4504  153.1082 H   0  0  0  0  0  0  0  0  0  0  0  0
  150.7635  144.8263  160.6533 H   0  0  0  0  0  0  0  0  0  0  0  0
  152.0216  145.6214  159.7027 H   0  0  0  0  0  0  0  0  0  0  0  0
  152.3644  145.0814  161.3455 H   0  0  0  0  0  0  0  0  0  0  0  0
  1  2  1  0  0  0  0
  1 35  1  0  0  0  0
  1 36  1  0  0  0  0
  1 37  1  0  0  0  0
  2 30  1  0  0  0  0
  2  3  2  0  0  0  0
  3  4  1  0  0  0  0
  3 38  1  0  0  0  0
  4  5  1  0  0  0  0
  4 28  2  0  0  0  0
  5  6  1  0  0  0  0
  5  7  1  0  0  0  0
  5  8  1  0  0  0  0
  6 39  1  0  0  0  0
  6 40  1  0  0  0  0
  6 41  1  0  0  0  0
  7 42  1  0  0  0  0
  8  9  1  0  0  0  0
  8 43  1  0  0  0  0
  8 44  1  0  0  0  0
  9 10  1  0  0  0  0
  9 45  1  0  0  0  0
 10 15  1  0  0  0  0
 10 11  2  0  0  0  0
 11 12  1  0  0  0  0
 12 13  2  0  0  0  0
 12 46  1  0  0  0  0
 13 14  1  0  0  0  0
 14 18  1  0  0  0  0
 14 15  2  0  0  0  0
 15 16  1  0  0  0  0
 16 17  2  0  0  0  0
 17 18  1  0  0  0  0
 17 47  1  0  0  0  0
 18 19  1  0  0  0  0
 19 31  1  0  0  0  0
 19 26  1  0  0  0  0
 19 20  1  0  0  0  0
 20 21  1  0  0  0  0
 21 32  1  0  0  0  0
 21 22  1  0  0  0  0
 21 24  1  0  0  0  0
 22 23  1  0  0  0  0
 22 48  1  0  0  0  0
 22 49  1  0  0  0  0
 23 50  1  0  0  0  0
 24 33  1  0  0  0  0
 24 25  1  0  0  0  0
 24 26  1  0  0  0  0
 25 51  1  0  0  0  0
 26 34  1  0  0  0  0
 26 27  1  0  0  0  0
 27 52  1  0  0  0  0
 28 29  1  0  0  0  0
 28 30  1  0  0  0  0
 29 53  1  0  0  0  0
 29 54  1  0  0  0  0
 29 55  1  0  0  0  0
M  END
> <s_m_source_file>
AV-unprocessed.smi

> <i_m_source_file_index>
287

> <i_lp_mmshare_version>
43012

> <i_f3d_flags>
0

> <s_epik_input>
W0NIM11jMVtjSF1jKGMobzEpW0NIM10pW0NAQF0oW0NIM10pKFtPSF0pW0NIMl1bTkhdYyhuW2NIXW4yKWMoYzIzKW5bY0hdbjNbQ0BASF00T1tDQEhdKFtDSDJdW09IXSlbQ0BASF0oW09IXSlbQ0BIXTRbT0hd

> <s_epik_cmdline>
J2VwaWtfcHl0aG9uJywgJy1waCcsICc3LjAnLCAnLXRuJywgJzgnLCAnLW1hJywgJzIwMCcsICctbWV0YWxfYmluZGluZycsICctaW1hZScsICc8aW5maWxlLm1hZT4nLCAnLW9tYWUnLCAnPG91dGZpbGUubWFlPic=

> <r_lp_tautomer_probability>
1

> <r_epik_Ionization_Penalty>
0.000992612

> <r_epik_Ionization_Penalty_Charging>
0

> <r_epik_Ionization_Penalty_Neutral>
0.000992612

> <r_epik_State_Penalty>
-0

> <r_epik_Charging_Adjusted_Penalty>
0

> <i_epik_Tot_Q>
0

> <i_epik_Tot_abs_Q>
0

> <r_epik_Metal_State_Penalty>
-0

> <b_epik_Metal_Only>
0

> <s_epik_Chemistry_Notes>
This compound contains an acetal/aminal-like group ( X-CH(R)-Y where X, Y are N, S, or O) that may be acid/base labile, releasing an aldehyde.

> <s_lp_Force_Field>
OPLS_2005

> <r_lp_Energy>
45.0467

> <b_lp_Chiralities_Consistent>
1

> <s_lp_Variant>
AV-unprocessed.smi:287-5

> <Gold.Version>
5.8.1

> <Gold.Id.Protein>
6NUR|6NUR_protein|mol2

> <Gold.PLP.Fitness>
48.2299

> <Gold.PLP.PLP>
-37.6807

> <Gold.PLP.part.hbond>
-3.7681

> <Gold.PLP.part.metal>
0.0000

> <Gold.PLP.part.buried>
-5.1214

> <Gold.PLP.part.nonpolar>
-28.7837

> <Gold.PLP.part.repulsive>
0.3914

> <Gold.PLP.ligand.clash>
0.0000

> <Gold.PLP.ligand.torsion>
0.6415

> <Gold.PLP.Chemscore.Hbond>
3.7680

> <Gold.PLP.Chemscore.CHOScore>
0.1323

> <Gold.PLP.Chemscore.Metal>
0.0000

> <Gold.Chemscore.Hbonds>
donor molecule, donor type, donor heavy atom, donor atom, acceptor molecule, acceptor atom, score
      L1  H     7    42       P1  8028  1.00
      L1  H     9    45       P1  8028  0.82
      L1  H    27    52       P1  7948  0.83
      P1  H  6896  6908       L1    23  0.85
      L1  C    12    46       P1 10175  0.12

> <Gold.PLP.Chemscore.Internal.Correction>
0.1312

> <Gold.Rescore>
     Score         DG    S(hbond)    S(metal)    S(lipo)     H(rot)  DE(clash)    DE(int)     intcor
     13.11     -14.44       3.13        0.00     102.64       5.27       0.12       1.22       ----

> <Gold.Chemscore.Fitness>
13.1056

> <Gold.Chemscore.DG>
-14.4431

> <Gold.Chemscore.ZeroCoef>
-5.4800

> <Gold.Chemscore.Hbond>
3.1253

> <Gold.Chemscore.Metal>
0.0000

> <Gold.Chemscore.Lipo>
102.6356

> <Gold.Chemscore.Internal_Hbond>
0.0000

> <Gold.Chemscore.DEClash>
0.1161

> <Gold.Chemscore.DEInternal>
1.2214

> <Gold.Chemscore.Rot>
5.2672

> <Gold.Chemscore.Internal.Correction>
   9.000000E+99

> <Gold.Chemscore.Hbonds>
donor molecule, donor type, donor heavy atom, donor atom, acceptor molecule, acceptor atom, score
      L1  H     7    42       P1  8028  0.82
      L1  H     9    45       P1  8028  0.81
      L1  H    27    52       P1  7948  0.66
      P1  H  6896  6908       L1    23  0.09

> <Gold.Chemscore.Hbond.Weighted>
-10.4387

> <Gold.Chemscore.Metal.Weighted>
-0.0000

> <Gold.Chemscore.Lipo.Weighted>
-12.0084

> <Gold.Chemscore.Internal_Hbond.Weighted>
0.0000

> <Gold.Chemscore.DEClash.Weighted>
0.1161

> <Gold.Chemscore.DEInternal.Weighted>
1.2214

> <Gold.Chemscore.Rot.Weighted>
13.4839

> <Gold.Chemscore.Internal.Correction.Weighted>
   9.000000E+99

> <Gold.Protein.RotatedTorsions>
[ 6907 6896 6895 6894 ] final  123.90 input  -60.11 | X-H torsion
[ 7974 7965 7964 7962 ] final  163.30 input  175.53 | X-H torsion
[ 8008 7997 7996 7995 ] final  -54.50 input   59.86 | X-H torsion
[ 10167 10162 10161 10158 ] final  167.76 input  -65.29 | X-H torsion
[ 10718 10713 10712 10709 ] final  125.76 input   66.30 | X-H torsion
[ 10763 10752 10751 10750 ] final  -33.42 input  -60.55 | X-H torsion
[ 11005 11000 10999 10996 ] final -135.51 input  -57.11 | X-H torsion

> <Gold.Protein.ActiveResidues>
 VAL166  LYS551  ARG553  GLY616  TRP617  ASP618  TYR619  PRO620  LYS621  CYS622 
 ASP623  PHE694  ASN695  SER759  ASP760  ASP761  ALA762  ILE779  LEU786  VAL792 
 PHE793  MET794  SER795  GLU796  ALA797  LYS798  CYS799  TRP800  GLU811  SER814 

> <Gold.Protein.RotatedAtoms>
  152.4123  133.6983  159.6408 H   0  0  0  0  0  0  0  0  0  0  0  0  # atno 6907 bound_to 6896
  150.8002  133.8602  159.3238 H   0  0  0  0  0  0  0  0  0  0  0  0  # atno 6908 bound_to 6896
  151.6341  135.1021  160.0179 H   0  0  0  0  0  0  0  0  0  0  0  0  # atno 6909 bound_to 6896
  144.7596  139.8163  143.6337 H   0  0  0  0  0  0  0  0  0  0  0  0  # atno 7974 bound_to 7965
  154.4164  140.1175  156.5325 H   0  0  0  0  0  0  0  0  0  0  0  0  # atno 8008 bound_to 7997
  155.6591  140.3496  155.4757 H   0  0  0  0  0  0  0  0  0  0  0  0  # atno 8009 bound_to 7997
  155.9728  140.1145  157.0786 H   0  0  0  0  0  0  0  0  0  0  0  0  # atno 8010 bound_to 7997
  139.4952  144.3887  151.9541 H   0  0  0  0  0  0  0  0  0  0  0  0  # atno 10167 bound_to 10162
  157.5476  131.1095  150.8755 H   0  0  0  0  0  0  0  0  0  0  0  0  # atno 10718 bound_to 10713
  153.8300  135.6867  153.4816 H   0  0  0  0  0  0  0  0  0  0  0  0  # atno 10763 bound_to 10752
  153.1517  135.4615  154.9644 H   0  0  0  0  0  0  0  0  0  0  0  0  # atno 10764 bound_to 10752
  154.7891  135.3295  154.7764 H   0  0  0  0  0  0  0  0  0  0  0  0  # atno 10765 bound_to 10752
  140.8891  134.1834  157.4539 H   0  0  0  0  0  0  0  0  0  0  0  0  # atno 11005 bound_to 11000
  146.1645  139.4771  142.9967 LP  0  0  0  0  0  0  0  0  0  0  0  0  # atno 17320 bound_to 7965
  145.6663  141.0228  143.1681 LP  0  0  0  0  0  0  0  0  0  0  0  0  # atno 17321 bound_to 7965
  140.3324  144.3300  150.5984 LP  0  0  0  0  0  0  0  0  0  0  0  0  # atno 17342 bound_to 10162
  140.5634  143.2189  151.7726 LP  0  0  0  0  0  0  0  0  0  0  0  0  # atno 17343 bound_to 10162
  156.9289  130.5342  149.5279 LP  0  0  0  0  0  0  0  0  0  0  0  0  # atno 17370 bound_to 10713
  156.0549  130.5612  150.9070 LP  0  0  0  0  0  0  0  0  0  0  0  0  # atno 17371 bound_to 10713
  139.8727  134.9851  156.5267 LP  0  0  0  0  0  0  0  0  0  0  0  0  # atno 17394 bound_to 11000
  140.8368  133.8236  155.9036 LP  0  0  0  0  0  0  0  0  0  0  0  0  # atno 17395 bound_to 11000

$$$$
