AV-unprocessed.smi:2986|AV-procd|sdf|11383|dock10
  -GOLD-   2272016303D 1   1.00000     0.00000
 Structure written by MMmdl.
 41 43  0  0  0  0  0  0  0  0  2 V2000
  149.8863  139.1931  154.6581 C   0  0  0  0  0  0  0  0  0  0  0  0
  150.7725  140.1998  155.1133 O   0  0  0  0  0  0  0  0  0  0  0  0
  150.1914  141.0270  156.1087 C   0  0  0  0  0  0  0  0  0  0  0  0
  151.2184  142.0618  156.5879 C   0  0  0  0  0  0  0  0  0  0  0  0
  151.6722  141.7921  157.9441 N   0  0  0  0  0  0  0  0  0  0  0  0
  152.0661  140.6087  158.4768 C   0  0  0  0  0  0  0  0  0  0  0  0
  152.0495  139.0973  157.5641 S   0  0  0  0  0  0  0  0  0  0  0  0
  152.7635  137.9800  158.8167 C   0  0  0  0  0  0  0  0  0  0  0  0
  153.3728  136.7008  158.2328 C   0  0  0  0  0  0  0  0  0  0  0  0
  153.4683  136.5854  157.0102 O   0  0  0  0  0  0  0  0  0  0  0  0
  153.7611  135.8388  159.2043 N   0  5  0  0  0  0  0  0  0  0  0  0
  154.4215  136.2969  160.2771 C   0  0  0  0  0  0  0  0  0  0  0  0
  153.8383  136.7416  161.4947 C   0  0  0  0  0  0  0  0  0  0  0  0
  154.9207  137.1099  162.2421 C   0  0  0  0  0  0  0  0  0  0  0  0
  155.0605  137.6608  163.6194 C   0  0  0  0  0  0  0  0  0  0  0  0
  156.0684  136.9184  161.5376 O   0  0  0  0  0  0  0  0  0  0  0  0
  155.7396  136.4027  160.2784 N   0  0  0  0  0  0  0  0  0  0  0  0
  152.4789  140.6537  159.7437 N   0  0  0  0  0  0  0  0  0  0  0  0
  152.2986  141.9808  160.0763 C   0  0  0  0  0  0  0  0  0  0  0  0
  152.5349  142.6623  161.2916 C   0  0  0  0  0  0  0  0  0  0  0  0
  152.2784  144.0451  161.3957 C   0  0  0  0  0  0  0  0  0  0  0  0
  151.7867  144.7652  160.2877 C   0  0  0  0  0  0  0  0  0  0  0  0
  151.5457  144.1052  159.0674 C   0  0  0  0  0  0  0  0  0  0  0  0
  151.7980  142.7233  158.9702 C   0  0  0  0  0  0  0  0  0  0  0  0
  150.3787  138.5896  153.8957 H   0  0  0  0  0  0  0  0  0  0  0  0
  148.9893  139.6277  154.2158 H   0  0  0  0  0  0  0  0  0  0  0  0
  149.5899  138.5307  155.4723 H   0  0  0  0  0  0  0  0  0  0  0  0
  149.3156  141.5366  155.7045 H   0  0  0  0  0  0  0  0  0  0  0  0
  149.8546  140.4190  156.9500 H   0  0  0  0  0  0  0  0  0  0  0  0
  152.0830  142.0649  155.9240 H   0  0  0  0  0  0  0  0  0  0  0  0
  150.7958  143.0635  156.5370 H   0  0  0  0  0  0  0  0  0  0  0  0
  153.4920  138.5268  159.4161 H   0  0  0  0  0  0  0  0  0  0  0  0
  151.9669  137.6959  159.5043 H   0  0  0  0  0  0  0  0  0  0  0  0
  152.7963  136.7785  161.7747 H   0  0  0  0  0  0  0  0  0  0  0  0
  155.0687  138.7505  163.5992 H   0  0  0  0  0  0  0  0  0  0  0  0
  155.9877  137.3226  164.0824 H   0  0  0  0  0  0  0  0  0  0  0  0
  154.2320  137.3398  164.2510 H   0  0  0  0  0  0  0  0  0  0  0  0
  152.9106  142.1177  162.1449 H   0  0  0  0  0  0  0  0  0  0  0  0
  152.4602  144.5549  162.3303 H   0  0  0  0  0  0  0  0  0  0  0  0
  151.5939  145.8242  160.3750 H   0  0  0  0  0  0  0  0  0  0  0  0
  151.1702  144.6535  158.2165 H   0  0  0  0  0  0  0  0  0  0  0  0
  1  2  1  0  0  0  0
  1 25  1  0  0  0  0
  1 26  1  0  0  0  0
  1 27  1  0  0  0  0
  2  3  1  0  0  0  0
  3  4  1  0  0  0  0
  3 28  1  0  0  0  0
  3 29  1  0  0  0  0
  4  5  1  0  0  0  0
  4 30  1  0  0  0  0
  4 31  1  0  0  0  0
  5 24  1  0  0  0  0
  5  6  1  0  0  0  0
  6  7  1  0  0  0  0
  6 18  2  0  0  0  0
  7  8  1  0  0  0  0
  8  9  1  0  0  0  0
  8 32  1  0  0  0  0
  8 33  1  0  0  0  0
  9 10  2  0  0  0  0
  9 11  1  0  0  0  0
 11 12  1  0  0  0  0
 12 17  2  0  0  0  0
 12 13  1  0  0  0  0
 13 14  2  0  0  0  0
 13 34  1  0  0  0  0
 14 15  1  0  0  0  0
 14 16  1  0  0  0  0
 15 35  1  0  0  0  0
 15 36  1  0  0  0  0
 15 37  1  0  0  0  0
 16 17  1  0  0  0  0
 18 19  1  0  0  0  0
 19 24  2  0  0  0  0
 19 20  1  0  0  0  0
 20 21  2  0  0  0  0
 20 38  1  0  0  0  0
 21 22  1  0  0  0  0
 21 39  1  0  0  0  0
 22 23  2  0  0  0  0
 22 40  1  0  0  0  0
 23 24  1  0  0  0  0
 23 41  1  0  0  0  0
M  CHG  1  11  -1
M  END
> <s_m_source_file>
AV-unprocessed.smi

> <i_m_source_file_index>
2986

> <i_lp_mmshare_version>
43012

> <i_f3d_flags>
0

> <s_epik_input>
W2NIXTFbY0hdW2NIXVtjSF1jKGMxMiluKFtDSDJdW0NIMl1PW0NIM10pYyhuMilTW0NIMl1DKD1PKVtOSF1jM1tjSF1jKFtDSDNdKW9uMw==

> <s_epik_cmdline>
J2VwaWtfcHl0aG9uJywgJy1waCcsICc3LjAnLCAnLXRuJywgJzgnLCAnLW1hJywgJzIwMCcsICctbWV0YWxfYmluZGluZycsICctaW1hZScsICc8aW5maWxlLm1hZT4nLCAnLW9tYWUnLCAnPG91dGZpbGUubWFlPic=

> <r_epik_Ionization_Penalty>
4.21562

> <r_epik_Ionization_Penalty_Charging>
4.18608

> <r_epik_Ionization_Penalty_Neutral>
0.0295463

> <r_epik_State_Penalty>
4.20602

> <r_epik_Charging_Adjusted_Penalty>
8.3921

> <i_epik_Tot_Q>
-1

> <i_epik_Tot_abs_Q>
1

> <r_epik_Metal_State_Penalty>
0.721027

> <b_epik_Metal_Only>
1

> <s_lp_Force_Field>
OPLS_2005

> <r_lp_Energy>
2.9865

> <b_lp_Chiralities_Consistent>
1

> <s_lp_Variant>
AV-unprocessed.smi:2986-3

> <Gold.Version>
5.8.1

> <Gold.Id.Protein>
6NUR|6NUR_protein|mol2

> <Gold.PLP.Fitness>
53.8475

> <Gold.PLP.PLP>
-45.1298

> <Gold.PLP.part.hbond>
-3.0000

> <Gold.PLP.part.metal>
0.0000

> <Gold.PLP.part.buried>
-7.3071

> <Gold.PLP.part.nonpolar>
-35.1814

> <Gold.PLP.part.repulsive>
0.0506

> <Gold.PLP.ligand.clash>
0.0000

> <Gold.PLP.ligand.torsion>
1.7921

> <Gold.PLP.Chemscore.Hbond>
4.0000

> <Gold.PLP.Chemscore.CHOScore>
0.0000

> <Gold.PLP.Chemscore.Metal>
0.0000

> <Gold.Chemscore.Hbonds>
donor molecule, donor type, donor heavy atom, donor atom, acceptor molecule, acceptor atom, score
      P1  H  6896  6907       L1    11  2.00
      P1  H  7989  7998       L1     2  1.00
      P1  H 10752 10765       L1    10  0.91

> <Gold.PLP.Chemscore.Internal.Correction>
0.3019

> <Gold.Rescore>
     Score         DG    S(hbond)    S(metal)    S(lipo)     H(rot)  DE(clash)    DE(int)     intcor
     20.06     -21.90       2.54        0.00     116.20       2.21       0.13       1.71       ----

> <Gold.Chemscore.Fitness>
20.0557

> <Gold.Chemscore.DG>
-21.8998

> <Gold.Chemscore.ZeroCoef>
-5.4800

> <Gold.Chemscore.Hbond>
2.5376

> <Gold.Chemscore.Metal>
0.0000

> <Gold.Chemscore.Lipo>
116.1975

> <Gold.Chemscore.Internal_Hbond>
0.0000

> <Gold.Chemscore.DEClash>
0.1334

> <Gold.Chemscore.DEInternal>
1.7107

> <Gold.Chemscore.Rot>
2.2073

> <Gold.Chemscore.Internal.Correction>
   9.000000E+99

> <Gold.Chemscore.Hbonds>
donor molecule, donor type, donor heavy atom, donor atom, acceptor molecule, acceptor atom, score
      P1  H  6896  6907       L1    11  0.30
      P1  H  7989  7998       L1     2  0.49
      P1  H 10752 10765       L1    10  0.84

> <Gold.Chemscore.Hbond.Weighted>
-8.4755

> <Gold.Chemscore.Metal.Weighted>
-0.0000

> <Gold.Chemscore.Lipo.Weighted>
-13.5951

> <Gold.Chemscore.Internal_Hbond.Weighted>
0.0000

> <Gold.Chemscore.DEClash.Weighted>
0.1334

> <Gold.Chemscore.DEInternal.Weighted>
1.7107

> <Gold.Chemscore.Rot.Weighted>
5.6508

> <Gold.Chemscore.Internal.Correction.Weighted>
   9.000000E+99

> <Gold.Protein.RotatedTorsions>
[ 6907 6896 6895 6894 ] final   48.10 input  -60.11 | X-H torsion
[ 7974 7965 7964 7962 ] final  -38.10 input  175.53 | X-H torsion
[ 8008 7997 7996 7995 ] final -154.26 input   59.86 | X-H torsion
[ 10167 10162 10161 10158 ] final  -93.63 input  -65.29 | X-H torsion
[ 10718 10713 10712 10709 ] final  134.96 input   66.30 | X-H torsion
[ 10763 10752 10751 10750 ] final -102.91 input  -60.55 | X-H torsion
[ 11005 11000 10999 10996 ] final  151.56 input  -57.11 | X-H torsion

> <Gold.Protein.ActiveResidues>
 VAL166  LYS551  ARG553  GLY616  TRP617  ASP618  TYR619  PRO620  LYS621  CYS622 
 ASP623  PHE694  ASN695  SER759  ASP760  ASP761  ALA762  ILE779  LEU786  VAL792 
 PHE793  MET794  SER795  GLU796  ALA797  LYS798  CYS799  TRP800  GLU811  SER814 

> <Gold.Protein.RotatedAtoms>
  152.2756  134.7885  160.0405 H   0  0  0  0  0  0  0  0  0  0  0  0  # atno 6907 bound_to 6896
  151.8482  133.3430  159.3673 H   0  0  0  0  0  0  0  0  0  0  0  0  # atno 6908 bound_to 6896
  150.7169  134.5253  159.5718 H   0  0  0  0  0  0  0  0  0  0  0  0  # atno 6909 bound_to 6896
  146.0516  140.6473  142.9039 H   0  0  0  0  0  0  0  0  0  0  0  0  # atno 7974 bound_to 7965
  155.6836  140.0747  157.2475 H   0  0  0  0  0  0  0  0  0  0  0  0  # atno 8008 bound_to 7997
  154.4101  140.1677  156.2061 H   0  0  0  0  0  0  0  0  0  0  0  0  # atno 8009 bound_to 7997
  155.9513  140.3377  155.6413 H   0  0  0  0  0  0  0  0  0  0  0  0  # atno 8010 bound_to 7997
  140.3227  143.3040  152.0028 H   0  0  0  0  0  0  0  0  0  0  0  0  # atno 10167 bound_to 10162
  157.4619  131.1074  150.9909 H   0  0  0  0  0  0  0  0  0  0  0  0  # atno 10718 bound_to 10713
  154.7769  135.4843  153.9762 H   0  0  0  0  0  0  0  0  0  0  0  0  # atno 10763 bound_to 10752
  153.1440  135.6778  153.8990 H   0  0  0  0  0  0  0  0  0  0  0  0  # atno 10764 bound_to 10752
  153.8655  135.3150  155.3418 H   0  0  0  0  0  0  0  0  0  0  0  0  # atno 10765 bound_to 10752
  140.1230  134.8851  157.2098 H   0  0  0  0  0  0  0  0  0  0  0  0  # atno 11005 bound_to 11000
  144.7126  140.4093  143.7069 LP  0  0  0  0  0  0  0  0  0  0  0  0  # atno 17320 bound_to 7965
  145.6714  139.1600  143.2752 LP  0  0  0  0  0  0  0  0  0  0  0  0  # atno 17321 bound_to 7965
  139.4871  144.6298  151.7093 LP  0  0  0  0  0  0  0  0  0  0  0  0  # atno 17342 bound_to 10162
  140.5469  144.0489  150.6110 LP  0  0  0  0  0  0  0  0  0  0  0  0  # atno 17343 bound_to 10162
  157.0703  130.5861  149.5401 LP  0  0  0  0  0  0  0  0  0  0  0  0  # atno 17370 bound_to 10713
  156.0033  130.5115  150.7740 LP  0  0  0  0  0  0  0  0  0  0  0  0  # atno 17371 bound_to 10713
  140.2940  134.3207  155.7307 LP  0  0  0  0  0  0  0  0  0  0  0  0  # atno 17394 bound_to 11000
  141.2155  133.7552  156.9545 LP  0  0  0  0  0  0  0  0  0  0  0  0  # atno 17395 bound_to 11000

$$$$
