AV-unprocessed.smi:1579|AV-procd|sdf|6354|dock2
  -GOLD-   22720 6573D 1   1.00000     0.00000
 Structure written by MMmdl.
 47 48  0  0  0  0  0  0  0  0  2 V2000
  150.9582  144.9350  159.9627 C   0  0  0  0  0  0  0  0  0  0  0  0
  151.4763  143.6575  159.3586 C   0  0  0  0  0  0  0  0  0  0  0  0
  151.0885  143.3850  158.1560 N   0  0  0  0  0  0  0  0  0  0  0  0
  151.5016  142.2373  157.5082 N   0  0  0  0  0  0  0  0  0  0  0  0
  150.9501  142.0910  156.1542 C   0  0  0  0  0  0  0  0  0  0  0  0
  150.2305  140.7398  155.9504 C   0  0  2  0  0  0  0  0  0  0  0  0
  151.1956  139.8141  155.4908 O   0  0  0  0  0  0  0  0  0  0  0  0
  149.0734  140.8115  154.9286 C   0  0  0  0  0  0  0  0  0  0  0  0
  148.0050  141.7664  155.3205 N   0  3  2  0  0  0  0  0  0  0  0  0
  147.4247  141.4363  156.6478 C   0  0  0  0  0  0  0  0  0  0  0  0
  146.4173  142.5072  157.0980 C   0  0  0  0  0  0  0  0  0  0  0  0
  145.2984  142.6922  156.0597 C   0  0  1  0  0  0  0  0  0  0  0  0
  144.2997  143.7770  156.4867 C   0  0  0  0  0  0  0  0  0  0  0  0
  145.9276  143.0010  154.6910 C   0  0  0  0  0  0  0  0  0  0  0  0
  146.9454  141.9208  154.2875 C   0  0  0  0  0  0  0  0  0  0  0  0
  152.3438  141.3064  158.0421 C   0  0  0  0  0  0  0  0  0  0  0  0
  152.7102  140.3084  157.4199 O   0  0  0  0  0  0  0  0  0  0  0  0
  152.7757  141.6184  159.4061 C   0  0  0  0  0  0  0  0  0  0  0  0
  153.6521  140.6638  160.0043 C   0  0  0  0  0  0  0  0  0  0  0  0
  154.3476  139.8811  160.4977 N   0  0  0  0  0  0  0  0  0  0  0  0
  152.3728  142.7399  160.0540 C   0  0  0  0  0  0  0  0  0  0  0  0
  152.7948  143.1098  161.4693 C   0  0  0  0  0  0  0  0  0  0  0  0
  150.4225  144.7357  160.8910 H   0  0  0  0  0  0  0  0  0  0  0  0
  150.2714  145.4538  159.2921 H   0  0  0  0  0  0  0  0  0  0  0  0
  151.7785  145.6177  160.1849 H   0  0  0  0  0  0  0  0  0  0  0  0
  150.2833  142.9160  155.8971 H   0  0  0  0  0  0  0  0  0  0  0  0
  151.7759  142.1700  155.4442 H   0  0  0  0  0  0  0  0  0  0  0  0
  149.8736  140.3899  156.9182 H   0  0  0  0  0  0  0  0  0  0  0  0
  150.8844  139.4145  154.6933 H   0  0  0  0  0  0  0  0  0  0  0  0
  149.4393  141.0973  153.9425 H   0  0  0  0  0  0  0  0  0  0  0  0
  148.6537  139.8106  154.8165 H   0  0  0  0  0  0  0  0  0  0  0  0
  146.9420  140.4586  156.6031 H   0  0  0  0  0  0  0  0  0  0  0  0
  148.2206  141.3637  157.3900 H   0  0  0  0  0  0  0  0  0  0  0  0
  145.9905  142.2263  158.0616 H   0  0  0  0  0  0  0  0  0  0  0  0
  146.9380  143.4530  157.2555 H   0  0  0  0  0  0  0  0  0  0  0  0
  144.7509  141.7520  155.9773 H   0  0  0  0  0  0  0  0  0  0  0  0
  144.7851  144.7486  156.5856 H   0  0  0  0  0  0  0  0  0  0  0  0
  143.8436  143.5336  157.4468 H   0  0  0  0  0  0  0  0  0  0  0  0
  143.4955  143.8791  155.7575 H   0  0  0  0  0  0  0  0  0  0  0  0
  145.1494  143.0730  153.9302 H   0  0  0  0  0  0  0  0  0  0  0  0
  146.4211  143.9737  154.7199 H   0  0  0  0  0  0  0  0  0  0  0  0
  147.3836  142.1946  153.3288 H   0  0  0  0  0  0  0  0  0  0  0  0
  146.4379  140.9662  154.1391 H   0  0  0  0  0  0  0  0  0  0  0  0
  153.5204  142.4085  161.8804 H   0  0  0  0  0  0  0  0  0  0  0  0
  151.9309  143.1162  162.1346 H   0  0  0  0  0  0  0  0  0  0  0  0
  153.2528  144.0990  161.4899 H   0  0  0  0  0  0  0  0  0  0  0  0
  148.4511  142.6659  155.4273 H   0  0  0  0  0  0  0  0  0  0  0  0
  1  2  1  0  0  0  0
  1 23  1  0  0  0  0
  1 24  1  0  0  0  0
  1 25  1  0  0  0  0
  2 21  1  0  0  0  0
  2  3  2  0  0  0  0
  3  4  1  0  0  0  0
  4  5  1  0  0  0  0
  4 16  1  0  0  0  0
  5  6  1  0  0  0  0
  5 26  1  0  0  0  0
  5 27  1  0  0  0  0
  6  7  1  0  0  0  0
  6  8  1  0  0  0  0
  6 28  1  0  0  0  0
  7 29  1  0  0  0  0
  8  9  1  0  0  0  0
  8 30  1  0  0  0  0
  8 31  1  0  0  0  0
  9 15  1  0  0  0  0
  9 10  1  0  0  0  0
  9 47  1  0  0  0  0
 10 11  1  0  0  0  0
 10 32  1  0  0  0  0
 10 33  1  0  0  0  0
 11 12  1  0  0  0  0
 11 34  1  0  0  0  0
 11 35  1  0  0  0  0
 12 13  1  0  0  0  0
 12 14  1  0  0  0  0
 12 36  1  0  0  0  0
 13 37  1  0  0  0  0
 13 38  1  0  0  0  0
 13 39  1  0  0  0  0
 14 15  1  0  0  0  0
 14 40  1  0  0  0  0
 14 41  1  0  0  0  0
 15 42  1  0  0  0  0
 15 43  1  0  0  0  0
 16 17  2  0  0  0  0
 16 18  1  0  0  0  0
 18 19  1  0  0  0  0
 18 21  2  0  0  0  0
 19 20  3  0  0  0  0
 21 22  1  0  0  0  0
 22 44  1  0  0  0  0
 22 45  1  0  0  0  0
 22 46  1  0  0  0  0
M  CHG  1   9   1
M  END
> <s_m_source_file>
AV-unprocessed.smi

> <i_m_source_file_index>
1579

> <i_lp_mmshare_version>
43012

> <i_f3d_flags>
0

> <s_epik_input>
TiNDYyhjMVtDSDNdKWMoPU8pbihuYzFbQ0gzXSlbQ0gyXVtDQEhdKFtPSF0pW0NIMl1OMltDSDJdW0NIMl1bQ0hdKFtDSDNdKVtDSDJdW0NIMl0y

> <s_epik_cmdline>
J2VwaWtfcHl0aG9uJywgJy1waCcsICc3LjAnLCAnLXRuJywgJzgnLCAnLW1hJywgJzIwMCcsICctbWV0YWxfYmluZGluZycsICctaW1hZScsICc8aW5maWxlLm1hZT4nLCAnLW9tYWUnLCAnPG91dGZpbGUubWFlPic=

> <r_epik_Ionization_Penalty>
0.00136816

> <r_epik_Ionization_Penalty_Charging>
0.00136813

> <r_epik_Ionization_Penalty_Neutral>
3.19884e-08

> <r_epik_State_Penalty>
0.000910892

> <r_epik_Charging_Adjusted_Penalty>
0.00227902

> <i_epik_Tot_Q>
1

> <i_epik_Tot_abs_Q>
1

> <r_epik_Metal_State_Penalty>
-0

> <b_epik_Metal_Only>
0

> <s_lp_Force_Field>
OPLS_2005

> <r_lp_Energy>
36.6054

> <b_lp_Chiralities_Consistent>
1

> <s_lp_Variant>
AV-unprocessed.smi:1579-1

> <Gold.Version>
5.8.1

> <Gold.Id.Protein>
6NUR|6NUR_protein|mol2

> <Gold.PLP.Fitness>
53.1086

> <Gold.PLP.PLP>
-44.9034

> <Gold.PLP.part.hbond>
-2.0000

> <Gold.PLP.part.metal>
0.0000

> <Gold.PLP.part.buried>
-8.5550

> <Gold.PLP.part.nonpolar>
-33.7120

> <Gold.PLP.part.repulsive>
0.2308

> <Gold.PLP.ligand.clash>
0.0000

> <Gold.PLP.ligand.torsion>
0.4108

> <Gold.PLP.Chemscore.Hbond>
2.9833

> <Gold.PLP.Chemscore.CHOScore>
0.0000

> <Gold.PLP.Chemscore.Metal>
0.0000

> <Gold.Chemscore.Hbonds>
donor molecule, donor type, donor heavy atom, donor atom, acceptor molecule, acceptor atom, score
      L1  H     9    47       P1  8028  1.66
      P1  H  7997  8010       L1    17  0.94

> <Gold.PLP.Chemscore.Internal.Correction>
0.0769

> <Gold.Rescore>
     Score         DG    S(hbond)    S(metal)    S(lipo)     H(rot)  DE(clash)    DE(int)     intcor
     15.29     -17.31       1.91        0.00      94.13       2.17       0.05       1.97       ----

> <Gold.Chemscore.Fitness>
15.2881

> <Gold.Chemscore.DG>
-17.3096

> <Gold.Chemscore.ZeroCoef>
-5.4800

> <Gold.Chemscore.Hbond>
1.9089

> <Gold.Chemscore.Metal>
0.0000

> <Gold.Chemscore.Lipo>
94.1274

> <Gold.Chemscore.Internal_Hbond>
0.0000

> <Gold.Chemscore.DEClash>
0.0504

> <Gold.Chemscore.DEInternal>
1.9711

> <Gold.Chemscore.Rot>
2.1715

> <Gold.Chemscore.Internal.Correction>
   9.000000E+99

> <Gold.Chemscore.Hbonds>
donor molecule, donor type, donor heavy atom, donor atom, acceptor molecule, acceptor atom, score
      L1  H     9    47       P1  8028  0.82
      P1  H  7997  8010       L1    17  0.90

> <Gold.Chemscore.Hbond.Weighted>
-6.3758

> <Gold.Chemscore.Metal.Weighted>
-0.0000

> <Gold.Chemscore.Lipo.Weighted>
-11.0129

> <Gold.Chemscore.Internal_Hbond.Weighted>
0.0000

> <Gold.Chemscore.DEClash.Weighted>
0.0504

> <Gold.Chemscore.DEInternal.Weighted>
1.9711

> <Gold.Chemscore.Rot.Weighted>
5.5591

> <Gold.Chemscore.Internal.Correction.Weighted>
   9.000000E+99

> <Gold.Protein.RotatedTorsions>
[ 6907 6896 6895 6894 ] final  101.45 input  -60.11 | X-H torsion
[ 7974 7965 7964 7962 ] final  -15.57 input  175.53 | X-H torsion
[ 8008 7997 7996 7995 ] final   49.78 input   59.86 | X-H torsion
[ 10167 10162 10161 10158 ] final   57.05 input  -65.29 | X-H torsion
[ 10718 10713 10712 10709 ] final   24.32 input   66.30 | X-H torsion
[ 10763 10752 10751 10750 ] final -139.66 input  -60.55 | X-H torsion
[ 11005 11000 10999 10996 ] final   47.22 input  -57.11 | X-H torsion

> <Gold.Protein.ActiveResidues>
 VAL166  LYS551  ARG553  GLY616  TRP617  ASP618  TYR619  PRO620  LYS621  CYS622 
 ASP623  PHE694  ASN695  SER759  ASP760  ASP761  ALA762  ILE779  LEU786  VAL792 
 PHE793  MET794  SER795  GLU796  ALA797  LYS798  CYS799  TRP800  GLU811  SER814 

> <Gold.Protein.RotatedAtoms>
  152.5349  134.0124  159.7944 H   0  0  0  0  0  0  0  0  0  0  0  0  # atno 6907 bound_to 6896
  151.0324  133.5770  159.2666 H   0  0  0  0  0  0  0  0  0  0  0  0  # atno 6908 bound_to 6896
  151.2770  135.0709  159.9209 H   0  0  0  0  0  0  0  0  0  0  0  0  # atno 6909 bound_to 6896
  146.2026  140.3512  142.8418 H   0  0  0  0  0  0  0  0  0  0  0  0  # atno 7974 bound_to 7965
  155.4078  140.3441  155.4261 H   0  0  0  0  0  0  0  0  0  0  0  0  # atno 8008 bound_to 7997
  156.1466  140.1558  156.8868 H   0  0  0  0  0  0  0  0  0  0  0  0  # atno 8009 bound_to 7997
  154.5016  140.0813  156.7790 H   0  0  0  0  0  0  0  0  0  0  0  0  # atno 8010 bound_to 7997
  140.2021  144.3977  150.6524 H   0  0  0  0  0  0  0  0  0  0  0  0  # atno 10167 bound_to 10162
  157.1782  130.6790  149.6103 H   0  0  0  0  0  0  0  0  0  0  0  0  # atno 10718 bound_to 10713
  154.8602  135.3576  154.5582 H   0  0  0  0  0  0  0  0  0  0  0  0  # atno 10763 bound_to 10752
  153.6198  135.7006  153.5319 H   0  0  0  0  0  0  0  0  0  0  0  0  # atno 10764 bound_to 10752
  153.3138  135.4171  155.1319 H   0  0  0  0  0  0  0  0  0  0  0  0  # atno 10765 bound_to 10752
  140.1298  134.4720  155.8530 H   0  0  0  0  0  0  0  0  0  0  0  0  # atno 11005 bound_to 11000
  144.8718  140.7282  143.6042 LP  0  0  0  0  0  0  0  0  0  0  0  0  # atno 17320 bound_to 7965
  145.3432  139.1726  143.4474 LP  0  0  0  0  0  0  0  0  0  0  0  0  # atno 17321 bound_to 7965
  140.6383  143.2199  151.6347 LP  0  0  0  0  0  0  0  0  0  0  0  0  # atno 17342 bound_to 10162
  139.5213  144.3197  152.0921 LP  0  0  0  0  0  0  0  0  0  0  0  0  # atno 17343 bound_to 10162
  155.9728  130.4656  150.6258 LP  0  0  0  0  0  0  0  0  0  0  0  0  # atno 17370 bound_to 10713
  157.3978  131.0805  151.1336 LP  0  0  0  0  0  0  0  0  0  0  0  0  # atno 17371 bound_to 10713
  141.2168  133.6792  156.7048 LP  0  0  0  0  0  0  0  0  0  0  0  0  # atno 17394 bound_to 11000
  140.2856  134.8281  157.3972 LP  0  0  0  0  0  0  0  0  0  0  0  0  # atno 17395 bound_to 11000

$$$$
