AV-unprocessed.smi:1686|AV-procd|sdf|6762|dock10
  -GOLD-   22720 7523D 1   1.00000     0.00000
 Structure written by MMmdl.
 41 43  0  0  0  0  0  0  0  0  1 V2000
  145.3330  142.2379  155.7855 C   0  0  0  0  0  0  0  0  0  0  0  0
  145.9653  140.9125  155.4711 C   0  0  0  0  0  0  0  0  0  0  0  0
  145.2731  139.7986  155.6703 N   0  0  0  0  0  0  0  0  0  0  0  0
  146.1065  138.7423  155.2850 O   0  0  0  0  0  0  0  0  0  0  0  0
  147.2723  139.2884  154.8703 C   0  0  0  0  0  0  0  0  0  0  0  0
  148.5802  138.3349  154.2916 Cl  0  0  0  0  0  0  0  0  0  0  0  0
  147.2689  140.6512  154.9557 C   0  0  0  0  0  0  0  0  0  0  0  0
  148.3490  141.6385  154.5832 C   0  0  0  0  0  0  0  0  0  0  0  0
  149.6505  141.2799  155.3029 C   0  0  0  0  0  0  0  0  0  0  0  0
  150.3253  140.3261  154.9175 O   0  0  0  0  0  0  0  0  0  0  0  0
  149.9948  142.0674  156.3339 N   0  0  0  0  0  0  0  0  0  0  0  0
  151.2520  142.0172  157.0748 C   0  0  2  0  0  0  0  0  0  0  0  0
  151.5745  140.5488  157.3990 C   0  0  0  0  0  0  0  0  0  0  0  0
  151.1243  142.9054  158.3372 C   0  0  2  0  0  0  0  0  0  0  0  0
  150.8165  144.3927  158.0225 C   0  0  0  0  0  0  0  0  0  0  0  0
  151.9156  145.1515  158.7854 C   0  0  1  0  0  0  0  0  0  0  0  0
  151.6708  145.0279  160.3000 C   0  0  0  0  0  0  0  0  0  0  0  0
  152.0456  143.5614  160.5837 C   0  0  0  0  0  0  0  0  0  0  0  0
  152.4151  143.0273  159.1860 C   0  0  2  0  0  0  0  0  0  0  0  0
  153.1159  144.2380  158.5779 C   0  0  0  0  0  0  0  0  0  0  0  0
  145.6690  143.0094  155.0926 H   0  0  0  0  0  0  0  0  0  0  0  0
  145.5896  142.5618  156.7942 H   0  0  0  0  0  0  0  0  0  0  0  0
  144.2455  142.1893  155.7178 H   0  0  0  0  0  0  0  0  0  0  0  0
  148.5344  141.6460  153.5089 H   0  0  0  0  0  0  0  0  0  0  0  0
  148.0602  142.6564  154.8484 H   0  0  0  0  0  0  0  0  0  0  0  0
  149.3639  142.8175  156.5758 H   0  0  0  0  0  0  0  0  0  0  0  0
  152.0580  142.4137  156.4553 H   0  0  0  0  0  0  0  0  0  0  0  0
  152.5432  140.4451  157.8861 H   0  0  0  0  0  0  0  0  0  0  0  0
  151.6097  139.9474  156.4900 H   0  0  0  0  0  0  0  0  0  0  0  0
  150.8221  140.1120  158.0560 H   0  0  0  0  0  0  0  0  0  0  0  0
  150.3230  142.4948  158.9540 H   0  0  0  0  0  0  0  0  0  0  0  0
  150.9005  144.6053  156.9557 H   0  0  0  0  0  0  0  0  0  0  0  0
  149.8132  144.6845  158.3355 H   0  0  0  0  0  0  0  0  0  0  0  0
  152.0539  146.1783  158.4458 H   0  0  0  0  0  0  0  0  0  0  0  0
  152.3198  145.7046  160.8574 H   0  0  0  0  0  0  0  0  0  0  0  0
  150.6384  145.2539  160.5696 H   0  0  0  0  0  0  0  0  0  0  0  0
  152.9034  143.5103  161.2554 H   0  0  0  0  0  0  0  0  0  0  0  0
  151.2299  143.0029  161.0441 H   0  0  0  0  0  0  0  0  0  0  0  0
  153.0224  142.1242  159.2280 H   0  0  0  0  0  0  0  0  0  0  0  0
  153.3851  144.1063  157.5287 H   0  0  0  0  0  0  0  0  0  0  0  0
  154.0000  144.5513  159.1362 H   0  0  0  0  0  0  0  0  0  0  0  0
  1  2  1  0  0  0  0
  1 21  1  0  0  0  0
  1 22  1  0  0  0  0
  1 23  1  0  0  0  0
  2  7  1  0  0  0  0
  2  3  2  0  0  0  0
  3  4  1  0  0  0  0
  4  5  1  0  0  0  0
  5  6  1  0  0  0  0
  5  7  2  0  0  0  0
  7  8  1  0  0  0  0
  8  9  1  0  0  0  0
  8 24  1  0  0  0  0
  8 25  1  0  0  0  0
  9 10  2  0  0  0  0
  9 11  1  0  0  0  0
 11 12  1  0  0  0  0
 11 26  1  0  0  0  0
 12 13  1  0  0  0  0
 12 14  1  0  0  0  0
 12 27  1  0  0  0  0
 13 28  1  0  0  0  0
 13 29  1  0  0  0  0
 13 30  1  0  0  0  0
 14 19  1  0  0  0  0
 14 15  1  0  0  0  0
 14 31  1  0  0  0  0
 15 16  1  0  0  0  0
 15 32  1  0  0  0  0
 15 33  1  0  0  0  0
 16 20  1  0  0  0  0
 16 17  1  0  0  0  0
 16 34  1  0  0  0  0
 17 18  1  0  0  0  0
 17 35  1  0  0  0  0
 17 36  1  0  0  0  0
 18 19  1  0  0  0  0
 18 37  1  0  0  0  0
 18 38  1  0  0  0  0
 19 20  1  0  0  0  0
 19 39  1  0  0  0  0
 20 40  1  0  0  0  0
 20 41  1  0  0  0  0
M  END
> <s_m_source_file>
AV-unprocessed.smi

> <i_m_source_file_index>
1686

> <i_lp_mmshare_version>
43012

> <i_f3d_flags>
0

> <s_epik_input>
W0NIM11jMW5vYyhDbCljMVtDSDJdQyg9TylbTkhdW0NASF0oW0NIM10pW0NASF0oW0NIMl1bQ0BIXTIzKVtDQEhdKFtDSDJdMylbQ0gyXVtDSDJdMg==

> <s_epik_cmdline>
J2VwaWtfcHl0aG9uJywgJy1waCcsICc3LjAnLCAnLXRuJywgJzgnLCAnLW1hJywgJzIwMCcsICctbWV0YWxfYmluZGluZycsICctaW1hZScsICc8aW5maWxlLm1hZT4nLCAnLW9tYWUnLCAnPG91dGZpbGUubWFlPic=

> <r_lp_tautomer_probability>
1

> <r_epik_Ionization_Penalty>
2.01576e-08

> <r_epik_Ionization_Penalty_Charging>
0

> <r_epik_Ionization_Penalty_Neutral>
2.01576e-08

> <r_epik_State_Penalty>
-0

> <r_epik_Charging_Adjusted_Penalty>
0

> <i_epik_Tot_Q>
0

> <i_epik_Tot_abs_Q>
0

> <r_epik_Metal_State_Penalty>
-0

> <b_epik_Metal_Only>
0

> <s_lp_Force_Field>
OPLS_2005

> <r_lp_Energy>
45.7389

> <b_lp_Chiralities_Consistent>
1

> <s_lp_Variant>
AV-unprocessed.smi:1686-5

> <Gold.Version>
5.8.1

> <Gold.Id.Protein>
6NUR|6NUR_protein|mol2

> <Gold.PLP.Fitness>
46.8787

> <Gold.PLP.PLP>
-41.6117

> <Gold.PLP.part.hbond>
-2.0000

> <Gold.PLP.part.metal>
0.0000

> <Gold.PLP.part.buried>
-2.7379

> <Gold.PLP.part.nonpolar>
-37.8754

> <Gold.PLP.part.repulsive>
1.4035

> <Gold.PLP.ligand.clash>
0.0000

> <Gold.PLP.ligand.torsion>
0.3675

> <Gold.PLP.Chemscore.Hbond>
1.9920

> <Gold.PLP.Chemscore.CHOScore>
0.0000

> <Gold.PLP.Chemscore.Metal>
0.0000

> <Gold.Chemscore.Hbonds>
donor molecule, donor type, donor heavy atom, donor atom, acceptor molecule, acceptor atom, score
      L1  H    11    26       P1  8028  0.45
      P1  H  7989  7998       L1    10  1.00

> <Gold.PLP.Chemscore.Internal.Correction>
0.0261

> <Gold.Rescore>
     Score         DG    S(hbond)    S(metal)    S(lipo)     H(rot)  DE(clash)    DE(int)     intcor
     17.64     -21.03       1.37        0.00     125.72       1.46       0.26       3.12       ----

> <Gold.Chemscore.Fitness>
17.6447

> <Gold.Chemscore.DG>
-21.0261

> <Gold.Chemscore.ZeroCoef>
-5.4800

> <Gold.Chemscore.Hbond>
1.3734

> <Gold.Chemscore.Metal>
0.0000

> <Gold.Chemscore.Lipo>
125.7161

> <Gold.Chemscore.Internal_Hbond>
0.0000

> <Gold.Chemscore.DEClash>
0.2593

> <Gold.Chemscore.DEInternal>
3.1222

> <Gold.Chemscore.Rot>
1.4648

> <Gold.Chemscore.Internal.Correction>
   9.000000E+99

> <Gold.Chemscore.Hbonds>
donor molecule, donor type, donor heavy atom, donor atom, acceptor molecule, acceptor atom, score
      L1  H    11    26       P1  8028  0.45
      P1  H  7989  7998       L1    10  0.74

> <Gold.Chemscore.Hbond.Weighted>
-4.5873

> <Gold.Chemscore.Metal.Weighted>
-0.0000

> <Gold.Chemscore.Lipo.Weighted>
-14.7088

> <Gold.Chemscore.Internal_Hbond.Weighted>
0.0000

> <Gold.Chemscore.DEClash.Weighted>
0.2593

> <Gold.Chemscore.DEInternal.Weighted>
3.1222

> <Gold.Chemscore.Rot.Weighted>
3.7500

> <Gold.Chemscore.Internal.Correction.Weighted>
   9.000000E+99

> <Gold.Protein.RotatedTorsions>
[ 6907 6896 6895 6894 ] final -128.94 input  -60.11 | X-H torsion
[ 7974 7965 7964 7962 ] final   87.45 input  175.53 | X-H torsion
[ 8008 7997 7996 7995 ] final   -5.95 input   59.86 | X-H torsion
[ 10167 10162 10161 10158 ] final  -92.53 input  -65.29 | X-H torsion
[ 10718 10713 10712 10709 ] final  -30.81 input   66.30 | X-H torsion
[ 10763 10752 10751 10750 ] final -173.26 input  -60.55 | X-H torsion
[ 11005 11000 10999 10996 ] final -172.08 input  -57.11 | X-H torsion

> <Gold.Protein.ActiveResidues>
 VAL166  LYS551  ARG553  GLY616  TRP617  ASP618  TYR619  PRO620  LYS621  CYS622 
 ASP623  PHE694  ASN695  SER759  ASP760  ASP761  ALA762  ILE779  LEU786  VAL792 
 PHE793  MET794  SER795  GLU796  ALA797  LYS798  CYS799  TRP800  GLU811  SER814 

> <Gold.Protein.RotatedAtoms>
  150.9233  133.6854  159.2826 H   0  0  0  0  0  0  0  0  0  0  0  0  # atno 6907 bound_to 6896
  151.4301  135.1007  159.9649 H   0  0  0  0  0  0  0  0  0  0  0  0  # atno 6908 bound_to 6896
  152.4990  133.8665  159.7332 H   0  0  0  0  0  0  0  0  0  0  0  0  # atno 6909 bound_to 6896
  145.5589  139.2302  143.2471 H   0  0  0  0  0  0  0  0  0  0  0  0  # atno 7974 bound_to 7965
  154.5987  140.2445  155.7822 H   0  0  0  0  0  0  0  0  0  0  0  0  # atno 8008 bound_to 7997
  156.2296  140.2971  156.0108 H   0  0  0  0  0  0  0  0  0  0  0  0  # atno 8009 bound_to 7997
  155.2248  140.0401  157.2944 H   0  0  0  0  0  0  0  0  0  0  0  0  # atno 8010 bound_to 7997
  140.3338  143.2980  151.9912 H   0  0  0  0  0  0  0  0  0  0  0  0  # atno 10167 bound_to 10162
  156.3952  130.4380  149.7364 H   0  0  0  0  0  0  0  0  0  0  0  0  # atno 10718 bound_to 10713
  154.6099  135.2863  155.0443 H   0  0  0  0  0  0  0  0  0  0  0  0  # atno 10763 bound_to 10752
  154.1677  135.6477  153.5005 H   0  0  0  0  0  0  0  0  0  0  0  0  # atno 10764 bound_to 10752
  153.0191  135.5393  154.6849 H   0  0  0  0  0  0  0  0  0  0  0  0  # atno 10765 bound_to 10752
  140.5010  134.5894  157.4987 H   0  0  0  0  0  0  0  0  0  0  0  0  # atno 11005 bound_to 11000
  146.1865  140.6413  142.9165 LP  0  0  0  0  0  0  0  0  0  0  0  0  # atno 17320 bound_to 7965
  144.7493  140.5149  143.6813 LP  0  0  0  0  0  0  0  0  0  0  0  0  # atno 17321 bound_to 7965
  139.4852  144.6213  151.7250 LP  0  0  0  0  0  0  0  0  0  0  0  0  # atno 17342 bound_to 10162
  140.5372  144.0636  150.6075 LP  0  0  0  0  0  0  0  0  0  0  0  0  # atno 17343 bound_to 10162
  156.4402  130.7857  151.2878 LP  0  0  0  0  0  0  0  0  0  0  0  0  # atno 17370 bound_to 10713
  157.7501  131.0127  150.3395 LP  0  0  0  0  0  0  0  0  0  0  0  0  # atno 17371 bound_to 10713
  139.9713  134.7288  156.0035 LP  0  0  0  0  0  0  0  0  0  0  0  0  # atno 17394 bound_to 11000
  141.1435  133.6560  156.3800 LP  0  0  0  0  0  0  0  0  0  0  0  0  # atno 17395 bound_to 11000

$$$$
