AV-unprocessed.smi:1060|AV-procd|sdf|4658|dock6
  -GOLD-   22720 3173D 1   1.00000     0.00000
 Structure written by MMmdl.
 36 37  0  0  0  0  0  0  0  0  2 V2000
  147.9804  137.8992  156.5016 O   0  0  0  0  0  0  0  0  0  0  0  0
  148.3708  138.5044  157.4996 C   0  0  0  0  0  0  0  0  0  0  0  0
  148.6002  140.0154  157.4286 C   0  0  0  0  0  0  0  0  0  0  0  0
  149.9458  140.3099  157.7722 O   0  0  0  0  0  0  0  0  0  0  0  0
  150.3451  141.6084  157.3692 C   0  0  0  0  0  0  0  0  0  0  0  0
  151.0713  142.2859  158.5376 C   0  0  2  0  0  0  0  0  0  0  0  0
  151.6275  143.6666  158.2020 C   0  0  0  0  0  0  0  0  0  0  0  0
  152.7175  143.8543  159.2426 C   0  0  0  0  0  0  0  0  0  0  0  0
  153.0714  142.4251  159.6668 C   0  0  0  0  0  0  0  0  0  0  0  0
  152.2502  141.5731  158.8772 O   0  0  0  0  0  0  0  0  0  0  0  0
  148.6303  137.9512  158.7008 N   0  0  0  0  0  0  0  0  0  0  0  0
  148.5427  136.6126  159.1246 C   0  0  0  0  0  0  0  0  0  0  0  0
  148.0396  136.1952  160.3201 C   0  0  0  0  0  0  0  0  0  0  0  0
  147.9760  134.7874  160.6922 C   0  0  0  0  0  0  0  0  0  0  0  0
  147.5055  134.2934  162.0489 C   0  0  0  0  0  0  0  0  0  0  0  0
  147.6587  132.9724  162.1293 F   0  0  0  0  0  0  0  0  0  0  0  0
  148.2099  134.8536  163.0325 F   0  0  0  0  0  0  0  0  0  0  0  0
  146.2169  134.5754  162.2415 F   0  0  0  0  0  0  0  0  0  0  0  0
  148.4917  133.9618  159.7125 C   0  0  0  0  0  0  0  0  0  0  0  0
  148.9882  134.2891  158.4998 N   0  5  0  0  0  0  0  0  0  0  0  0
  149.0398  135.6080  158.1607 C   0  0  0  0  0  0  0  0  0  0  0  0
  149.4881  135.9750  157.0739 O   0  0  0  0  0  0  0  0  0  0  0  0
  148.3831  140.3717  156.4201 H   0  0  0  0  0  0  0  0  0  0  0  0
  147.9144  140.5114  158.1171 H   0  0  0  0  0  0  0  0  0  0  0  0
  150.9880  141.5653  156.4886 H   0  0  0  0  0  0  0  0  0  0  0  0
  149.4587  142.1861  157.1031 H   0  0  0  0  0  0  0  0  0  0  0  0
  150.4185  142.3535  159.4101 H   0  0  0  0  0  0  0  0  0  0  0  0
  152.0692  143.6623  157.2044 H   0  0  0  0  0  0  0  0  0  0  0  0
  150.8689  144.4492  158.2336 H   0  0  0  0  0  0  0  0  0  0  0  0
  153.5752  144.3910  158.8357 H   0  0  0  0  0  0  0  0  0  0  0  0
  152.3424  144.4180  160.0974 H   0  0  0  0  0  0  0  0  0  0  0  0
  154.1243  142.1935  159.5054 H   0  0  0  0  0  0  0  0  0  0  0  0
  152.8475  142.2709  160.7229 H   0  0  0  0  0  0  0  0  0  0  0  0
  148.9317  138.5890  159.4234 H   0  0  0  0  0  0  0  0  0  0  0  0
  147.6592  136.8960  161.0428 H   0  0  0  0  0  0  0  0  0  0  0  0
  148.5117  132.8745  159.9398 H   0  0  0  0  0  0  0  0  0  0  0  0
  1  2  2  0  0  0  0
  2  3  1  0  0  0  0
  2 11  1  0  0  0  0
  3  4  1  0  0  0  0
  3 23  1  0  0  0  0
  3 24  1  0  0  0  0
  4  5  1  0  0  0  0
  5  6  1  0  0  0  0
  5 25  1  0  0  0  0
  5 26  1  0  0  0  0
  6 10  1  0  0  0  0
  6  7  1  0  0  0  0
  6 27  1  0  0  0  0
  7  8  1  0  0  0  0
  7 28  1  0  0  0  0
  7 29  1  0  0  0  0
  8  9  1  0  0  0  0
  8 30  1  0  0  0  0
  8 31  1  0  0  0  0
  9 10  1  0  0  0  0
  9 32  1  0  0  0  0
  9 33  1  0  0  0  0
 11 12  1  0  0  0  0
 11 34  1  0  0  0  0
 12 21  1  0  0  0  0
 12 13  2  0  0  0  0
 13 14  1  0  0  0  0
 13 35  1  0  0  0  0
 14 15  1  0  0  0  0
 14 19  2  0  0  0  0
 15 16  1  0  0  0  0
 15 17  1  0  0  0  0
 15 18  1  0  0  0  0
 19 20  1  0  0  0  0
 19 36  1  0  0  0  0
 20 21  1  0  0  0  0
 21 22  2  0  0  0  0
M  CHG  1  20  -1
M  END
> <s_m_source_file>
AV-unprocessed.smi

> <i_m_source_file_index>
1060

> <i_lp_mmshare_version>
43012

> <i_f3d_flags>
0

> <s_epik_input>
Tz1jMVtuSF1bY0hdYyhDKEYpKEYpRilbY0hdYzFbTkhdQyg9TylbQ0gyXU9bQ0gyXVtDQEBIXTJbQ0gyXVtDSDJdW0NIMl1PMg==

> <s_epik_cmdline>
J2VwaWtfcHl0aG9uJywgJy1waCcsICc3LjAnLCAnLXRuJywgJzgnLCAnLW1hJywgJzIwMCcsICctbWV0YWxfYmluZGluZycsICctaW1hZScsICc8aW5maWxlLm1hZT4nLCAnLW9tYWUnLCAnPG91dGZpbGUubWFlPic=

> <r_epik_Ionization_Penalty>
2.50578

> <r_epik_Ionization_Penalty_Charging>
0.0523173

> <r_epik_Ionization_Penalty_Neutral>
2.45346

> <r_epik_State_Penalty>
2.61512

> <r_epik_Charging_Adjusted_Penalty>
2.66744

> <i_epik_Tot_Q>
-1

> <i_epik_Tot_abs_Q>
1

> <r_epik_Metal_State_Penalty>
0.513209

> <b_epik_Metal_Only>
0

> <s_lp_Force_Field>
OPLS_2005

> <r_lp_Energy>
34.3401

> <b_lp_Chiralities_Consistent>
1

> <s_lp_Variant>
AV-unprocessed.smi:1060-3

> <Gold.Version>
5.8.1

> <Gold.Id.Protein>
6NUR|6NUR_protein|mol2

> <Gold.PLP.Fitness>
43.5129

> <Gold.PLP.PLP>
-39.2074

> <Gold.PLP.part.hbond>
-1.0000

> <Gold.PLP.part.metal>
0.0000

> <Gold.PLP.part.buried>
-4.3343

> <Gold.PLP.part.nonpolar>
-35.5990

> <Gold.PLP.part.repulsive>
0.2185

> <Gold.PLP.ligand.clash>
0.3229

> <Gold.PLP.ligand.torsion>
0.7773

> <Gold.PLP.Chemscore.Hbond>
2.0000

> <Gold.PLP.Chemscore.CHOScore>
0.0000

> <Gold.PLP.Chemscore.Metal>
0.0000

> <Gold.Chemscore.Hbonds>
donor molecule, donor type, donor heavy atom, donor atom, acceptor molecule, acceptor atom, score
      P1  H  6896  6907       L1    20  0.21

> <Gold.PLP.Chemscore.Internal.Correction>
0.1829

> <Gold.Rescore>
     Score         DG    S(hbond)    S(metal)    S(lipo)     H(rot)  DE(clash)    DE(int)     intcor
     10.60     -12.46       0.64        0.00      83.46       1.92       0.12       1.73       ----

> <Gold.Chemscore.Fitness>
10.6019

> <Gold.Chemscore.DG>
-12.4561

> <Gold.Chemscore.ZeroCoef>
-5.4800

> <Gold.Chemscore.Hbond>
0.6359

> <Gold.Chemscore.Metal>
0.0000

> <Gold.Chemscore.Lipo>
83.4602

> <Gold.Chemscore.Internal_Hbond>
0.0000

> <Gold.Chemscore.DEClash>
0.1198

> <Gold.Chemscore.DEInternal>
1.7344

> <Gold.Chemscore.Rot>
1.9190

> <Gold.Chemscore.Internal.Correction>
   9.000000E+99

> <Gold.Chemscore.Hbond.Weighted>
-2.1239

> <Gold.Chemscore.Metal.Weighted>
-0.0000

> <Gold.Chemscore.Lipo.Weighted>
-9.7648

> <Gold.Chemscore.Internal_Hbond.Weighted>
0.0000

> <Gold.Chemscore.DEClash.Weighted>
0.1198

> <Gold.Chemscore.DEInternal.Weighted>
1.7344

> <Gold.Chemscore.Rot.Weighted>
4.9126

> <Gold.Chemscore.Internal.Correction.Weighted>
   9.000000E+99

> <Gold.Protein.RotatedTorsions>
[ 6907 6896 6895 6894 ] final  -84.66 input  -60.11 | X-H torsion
[ 7974 7965 7964 7962 ] final  -63.00 input  175.53 | X-H torsion
[ 8008 7997 7996 7995 ] final -159.74 input   59.86 | X-H torsion
[ 10167 10162 10161 10158 ] final -156.07 input  -65.29 | X-H torsion
[ 10718 10713 10712 10709 ] final  -18.09 input   66.30 | X-H torsion
[ 10763 10752 10751 10750 ] final  111.28 input  -60.55 | X-H torsion
[ 11005 11000 10999 10996 ] final  146.91 input  -57.11 | X-H torsion

> <Gold.Protein.ActiveResidues>
 VAL166  LYS551  ARG553  GLY616  TRP617  ASP618  TYR619  PRO620  LYS621  CYS622 
 ASP623  PHE694  ASN695  SER759  ASP760  ASP761  ALA762  ILE779  LEU786  VAL792 
 PHE793  MET794  SER795  GLU796  ALA797  LYS798  CYS799  TRP800  GLU811  SER814 

> <Gold.Protein.RotatedAtoms>
  150.6875  134.3324  159.4832 H   0  0  0  0  0  0  0  0  0  0  0  0  # atno 6907 bound_to 6896
  152.1187  134.9219  160.0573 H   0  0  0  0  0  0  0  0  0  0  0  0  # atno 6908 bound_to 6896
  152.0433  133.3952  159.4383 H   0  0  0  0  0  0  0  0  0  0  0  0  # atno 6909 bound_to 6896
  145.7844  140.8744  143.0313 H   0  0  0  0  0  0  0  0  0  0  0  0  # atno 7974 bound_to 7965
  155.7670  140.0847  157.2127 H   0  0  0  0  0  0  0  0  0  0  0  0  # atno 8008 bound_to 7997
  154.3999  140.1532  156.2955 H   0  0  0  0  0  0  0  0  0  0  0  0  # atno 8009 bound_to 7997
  155.8784  140.3422  155.5873 H   0  0  0  0  0  0  0  0  0  0  0  0  # atno 8010 bound_to 7997
  139.6880  143.9468  152.2371 H   0  0  0  0  0  0  0  0  0  0  0  0  # atno 10167 bound_to 10162
  156.5644  130.4734  149.6391 H   0  0  0  0  0  0  0  0  0  0  0  0  # atno 10718 bound_to 10713
  153.4611  135.3722  155.2339 H   0  0  0  0  0  0  0  0  0  0  0  0  # atno 10763 bound_to 10752
  154.8757  135.3909  154.3923 H   0  0  0  0  0  0  0  0  0  0  0  0  # atno 10764 bound_to 10752
  153.4497  135.7085  153.6181 H   0  0  0  0  0  0  0  0  0  0  0  0  # atno 10765 bound_to 10752
  140.0832  134.9085  157.1534 H   0  0  0  0  0  0  0  0  0  0  0  0  # atno 11005 bound_to 11000
  144.6791  140.0034  143.7484 LP  0  0  0  0  0  0  0  0  0  0  0  0  # atno 17320 bound_to 7965
  146.0041  139.3115  143.0910 LP  0  0  0  0  0  0  0  0  0  0  0  0  # atno 17321 bound_to 7965
  139.9276  144.6761  150.8396 LP  0  0  0  0  0  0  0  0  0  0  0  0  # atno 17342 bound_to 10162
  140.7674  143.3331  151.2368 LP  0  0  0  0  0  0  0  0  0  0  0  0  # atno 17343 bound_to 10162
  156.2770  130.7049  151.1862 LP  0  0  0  0  0  0  0  0  0  0  0  0  # atno 17370 bound_to 10713
  157.7361  131.0565  150.5430 LP  0  0  0  0  0  0  0  0  0  0  0  0  # atno 17371 bound_to 10713
  140.3457  134.2654  155.7205 LP  0  0  0  0  0  0  0  0  0  0  0  0  # atno 17394 bound_to 11000
  141.2054  133.7862  157.0236 LP  0  0  0  0  0  0  0  0  0  0  0  0  # atno 17395 bound_to 11000

$$$$
