AV-unprocessed.smi:102|AV-procd|sdf|954|dock3
  -GOLD-   2262017483D 1   1.00000     0.00000
 Structure written by MMmdl.
 44 45  0  0  0  0  0  0  0  0  1 V2000
  153.3398  137.0790  158.7766 C   0  0  0  0  0  0  0  0  0  0  0  0
  152.5934  137.1671  157.4521 C   0  0  0  0  0  0  0  0  0  0  0  0
  152.5428  136.2115  156.6776 O   0  0  0  0  0  0  0  0  0  0  0  0
  152.0319  138.3708  157.2594 O   0  0  0  0  0  0  0  0  0  0  0  0
  151.3808  138.6530  156.0316 C   0  0  0  0  0  0  0  0  0  0  0  0
  151.3536  140.1716  155.8006 C   0  0  1  0  0  0  0  0  0  0  0  0
  150.4292  140.4831  154.7602 O   0  0  0  0  0  0  0  0  0  0  0  0
  149.1981  140.9057  155.2717 C   0  0  1  0  0  0  0  0  0  0  0  0
  148.0952  139.9721  154.8087 N   0  0  0  0  0  0  0  0  0  0  0  0
  148.1446  138.5967  155.0041 C   0  0  0  0  0  0  0  0  0  0  0  0
  147.1595  137.7598  154.6010 C   0  0  0  0  0  0  0  0  0  0  0  0
  147.2775  136.4401  154.8261 F   0  0  0  0  0  0  0  0  0  0  0  0
  145.9756  138.2749  153.9193 C   0  0  0  0  0  0  0  0  0  0  0  0
  145.0301  137.5971  153.5221 O   0  0  0  0  0  0  0  0  0  0  0  0
  145.9764  139.6597  153.7288 N   0  0  0  0  0  0  0  0  0  0  0  0
  146.9856  140.5328  154.1380 C   0  0  0  0  0  0  0  0  0  0  0  0
  146.8848  141.7394  153.9197 O   0  0  0  0  0  0  0  0  0  0  0  0
  149.3276  140.9782  156.8089 C   0  0  1  0  0  0  0  0  0  0  0  0
  148.6980  139.8734  157.4539 O   0  0  0  0  0  0  0  0  0  0  0  0
  147.3662  139.8491  157.6176 C   0  0  0  0  0  0  0  0  0  0  0  0
  146.8778  138.5182  158.1728 C   0  0  0  0  0  0  0  0  0  0  0  0
  146.5877  140.7693  157.3686 O   0  0  0  0  0  0  0  0  0  0  0  0
  150.8302  140.9237  157.0275 C   0  0  2  0  0  0  0  0  0  0  0  0
  151.3435  142.2489  157.0939 O   0  0  0  0  0  0  0  0  0  0  0  0
  151.0527  143.0399  158.1422 C   0  0  0  0  0  0  0  0  0  0  0  0
  151.9546  144.2649  158.2126 C   0  0  0  0  0  0  0  0  0  0  0  0
  150.1741  142.8386  158.9809 O   0  0  0  0  0  0  0  0  0  0  0  0
  145.1797  140.0610  153.2557 H   0  0  0  0  0  0  0  0  0  0  0  0
  154.0163  137.9266  158.8894 H   0  0  0  0  0  0  0  0  0  0  0  0
  153.9259  136.1608  158.8249 H   0  0  0  0  0  0  0  0  0  0  0  0
  152.6350  137.0838  159.6081 H   0  0  0  0  0  0  0  0  0  0  0  0
  151.8744  138.1504  155.1992 H   0  0  0  0  0  0  0  0  0  0  0  0
  150.3630  138.2649  156.0841 H   0  0  0  0  0  0  0  0  0  0  0  0
  152.3546  140.5088  155.5280 H   0  0  0  0  0  0  0  0  0  0  0  0
  148.9674  141.8724  154.8200 H   0  0  0  0  0  0  0  0  0  0  0  0
  148.9950  138.1472  155.4913 H   0  0  0  0  0  0  0  0  0  0  0  0
  148.8928  141.9178  157.1543 H   0  0  0  0  0  0  0  0  0  0  0  0
  147.2717  137.6923  157.5799 H   0  0  0  0  0  0  0  0  0  0  0  0
  145.7889  138.4700  158.1520 H   0  0  0  0  0  0  0  0  0  0  0  0
  147.2104  138.3945  159.2034 H   0  0  0  0  0  0  0  0  0  0  0  0
  151.0680  140.3992  157.9546 H   0  0  0  0  0  0  0  0  0  0  0  0
  151.9554  144.7917  157.2581 H   0  0  0  0  0  0  0  0  0  0  0  0
  152.9770  143.9676  158.4461 H   0  0  0  0  0  0  0  0  0  0  0  0
  151.6091  144.9516  158.9857 H   0  0  0  0  0  0  0  0  0  0  0  0
  1  2  1  0  0  0  0
  1 29  1  0  0  0  0
  1 30  1  0  0  0  0
  1 31  1  0  0  0  0
  2  3  2  0  0  0  0
  2  4  1  0  0  0  0
  4  5  1  0  0  0  0
  5  6  1  0  0  0  0
  5 32  1  0  0  0  0
  5 33  1  0  0  0  0
  6 23  1  0  0  0  0
  6  7  1  0  0  0  0
  6 34  1  0  0  0  0
  7  8  1  0  0  0  0
  8  9  1  0  0  0  0
  8 18  1  0  0  0  0
  8 35  1  0  0  0  0
  9 16  1  0  0  0  0
  9 10  1  0  0  0  0
 10 11  2  0  0  0  0
 10 36  1  0  0  0  0
 11 12  1  0  0  0  0
 11 13  1  0  0  0  0
 13 14  2  0  0  0  0
 13 15  1  0  0  0  0
 15 28  1  0  0  0  0
 15 16  1  0  0  0  0
 16 17  2  0  0  0  0
 18 19  1  0  0  0  0
 18 23  1  0  0  0  0
 18 37  1  0  0  0  0
 19 20  1  0  0  0  0
 20 21  1  0  0  0  0
 20 22  2  0  0  0  0
 21 38  1  0  0  0  0
 21 39  1  0  0  0  0
 21 40  1  0  0  0  0
 23 24  1  0  0  0  0
 23 41  1  0  0  0  0
 24 25  1  0  0  0  0
 25 26  1  0  0  0  0
 25 27  2  0  0  0  0
 26 42  1  0  0  0  0
 26 43  1  0  0  0  0
 26 44  1  0  0  0  0
M  END
> <s_m_source_file>
AV-unprocessed.smi

> <i_m_source_file_index>
102

> <i_lp_mmshare_version>
43012

> <i_f3d_flags>
0

> <s_epik_input>
W0NIM11DKD1PKU9bQ0gyXVtDQEBIXTFPW0NASF0oW0NAQEhdKE9DKD1PKVtDSDNdKVtDQEhdMU9DKD1PKVtDSDNdKW4yW2NIXWMoRiljKD1PKVtuSF1jMj1P

> <s_epik_cmdline>
J2VwaWtfcHl0aG9uJywgJy1waCcsICc3LjAnLCAnLXRuJywgJzgnLCAnLW1hJywgJzIwMCcsICctbWV0YWxfYmluZGluZycsICctaW1hZScsICc8aW5maWxlLm1hZT4nLCAnLW9tYWUnLCAnPG91dGZpbGUubWFlPic=

> <r_lp_tautomer_probability>
0.999537

> <r_epik_Ionization_Penalty>
0.058267

> <r_epik_Ionization_Penalty_Charging>
0.058267

> <r_epik_Ionization_Penalty_Neutral>
6.57791e-16

> <r_epik_State_Penalty>
0.0503774

> <r_epik_Charging_Adjusted_Penalty>
0.108644

> <i_epik_Tot_Q>
0

> <i_epik_Tot_abs_Q>
0

> <r_epik_Metal_State_Penalty>
2.6644

> <b_epik_Metal_Only>
0

> <s_epik_Chemistry_Notes>
This compound has an ester and may undergo hydrolysis at high or low pH. This compound contains an acetal/aminal-like group ( X-CH(R)-Y where X, Y are N, S, or O) that may be acid/base labile, releasing an aldehyde.

> <s_lp_Force_Field>
OPLS_2005

> <r_lp_Energy>
14.5716

> <b_lp_Chiralities_Consistent>
1

> <s_lp_Variant>
AV-unprocessed.smi:102-10

> <Gold.Version>
5.8.1

> <Gold.Id.Protein>
6NUR|6NUR_protein|mol2

> <Gold.PLP.Fitness>
35.8027

> <Gold.PLP.PLP>
-28.0027

> <Gold.PLP.part.hbond>
-3.4133

> <Gold.PLP.part.metal>
0.0000

> <Gold.PLP.part.buried>
-3.8738

> <Gold.PLP.part.nonpolar>
-21.1606

> <Gold.PLP.part.repulsive>
0.6376

> <Gold.PLP.ligand.clash>
0.0000

> <Gold.PLP.ligand.torsion>
0.6639

> <Gold.PLP.Chemscore.Hbond>
3.0000

> <Gold.PLP.Chemscore.CHOScore>
0.0000

> <Gold.PLP.Chemscore.Metal>
0.0000

> <Gold.Chemscore.Hbonds>
donor molecule, donor type, donor heavy atom, donor atom, acceptor molecule, acceptor atom, score
      L1  H    15    28       P1 10175  1.00
      P1  H  7989  7998       L1     7  0.90
      P1  H 10752 10764       L1     3  1.00

> <Gold.PLP.Chemscore.Internal.Correction>
0.1278

> <Gold.Rescore>
     Score         DG    S(hbond)    S(metal)    S(lipo)     H(rot)  DE(clash)    DE(int)     intcor
      7.02      -9.55       2.80        0.00      43.50       4.05       0.17       2.36       ----

> <Gold.Chemscore.Fitness>
7.0216

> <Gold.Chemscore.DG>
-9.5499

> <Gold.Chemscore.ZeroCoef>
-5.4800

> <Gold.Chemscore.Hbond>
2.8004

> <Gold.Chemscore.Metal>
0.0000

> <Gold.Chemscore.Lipo>
43.5022

> <Gold.Chemscore.Internal_Hbond>
0.0000

> <Gold.Chemscore.DEClash>
0.1725

> <Gold.Chemscore.DEInternal>
2.3558

> <Gold.Chemscore.Rot>
4.0520

> <Gold.Chemscore.Internal.Correction>
   9.000000E+99

> <Gold.Chemscore.Hbonds>
donor molecule, donor type, donor heavy atom, donor atom, acceptor molecule, acceptor atom, score
      L1  H    15    28       P1 10175  1.00
      P1  H  7989  7998       L1     7  0.17
      P1  H 10752 10764       L1     3  1.00

> <Gold.Chemscore.Hbond.Weighted>
-9.3534

> <Gold.Chemscore.Metal.Weighted>
-0.0000

> <Gold.Chemscore.Lipo.Weighted>
-5.0898

> <Gold.Chemscore.Internal_Hbond.Weighted>
0.0000

> <Gold.Chemscore.DEClash.Weighted>
0.1725

> <Gold.Chemscore.DEInternal.Weighted>
2.3558

> <Gold.Chemscore.Rot.Weighted>
10.3732

> <Gold.Chemscore.Internal.Correction.Weighted>
   9.000000E+99

> <Gold.Protein.RotatedTorsions>
[ 6907 6896 6895 6894 ] final -126.75 input  -60.11 | X-H torsion
[ 7974 7965 7964 7962 ] final   44.77 input  175.53 | X-H torsion
[ 8008 7997 7996 7995 ] final  -58.66 input   59.86 | X-H torsion
[ 10167 10162 10161 10158 ] final  146.79 input  -65.29 | X-H torsion
[ 10718 10713 10712 10709 ] final  123.43 input   66.30 | X-H torsion
[ 10763 10752 10751 10750 ] final  -13.40 input  -60.55 | X-H torsion
[ 11005 11000 10999 10996 ] final  -84.74 input  -57.11 | X-H torsion

> <Gold.Protein.ActiveResidues>
 VAL166  LYS551  ARG553  GLY616  TRP617  ASP618  TYR619  PRO620  LYS621  CYS622 
 ASP623  PHE694  ASN695  SER759  ASP760  ASP761  ALA762  ILE779  LEU786  VAL792 
 PHE793  MET794  SER795  GLU796  ALA797  LYS798  CYS799  TRP800  GLU811  SER814 

> <Gold.Protein.RotatedAtoms>
  150.9001  133.7129  159.2881 H   0  0  0  0  0  0  0  0  0  0  0  0  # atno 6907 bound_to 6896
  151.4651  135.1040  159.9745 H   0  0  0  0  0  0  0  0  0  0  0  0  # atno 6908 bound_to 6896
  152.4872  133.8355  159.7180 H   0  0  0  0  0  0  0  0  0  0  0  0  # atno 6909 bound_to 6896
  146.0539  139.5038  142.9701 H   0  0  0  0  0  0  0  0  0  0  0  0  # atno 7974 bound_to 7965
  154.4318  140.1079  156.5993 H   0  0  0  0  0  0  0  0  0  0  0  0  # atno 8008 bound_to 7997
  155.5928  140.3492  155.4552 H   0  0  0  0  0  0  0  0  0  0  0  0  # atno 8009 bound_to 7997
  156.0233  140.1244  157.0324 H   0  0  0  0  0  0  0  0  0  0  0  0  # atno 8010 bound_to 7997
  139.4901  144.5803  151.6884 H   0  0  0  0  0  0  0  0  0  0  0  0  # atno 10167 bound_to 10162
  157.5665  131.1086  150.8444 H   0  0  0  0  0  0  0  0  0  0  0  0  # atno 10718 bound_to 10713
  153.5127  135.7016  153.5772 H   0  0  0  0  0  0  0  0  0  0  0  0  # atno 10763 bound_to 10752
  153.3856  135.3909  155.1887 H   0  0  0  0  0  0  0  0  0  0  0  0  # atno 10764 bound_to 10752
  154.8702  135.3845  154.4608 H   0  0  0  0  0  0  0  0  0  0  0  0  # atno 10765 bound_to 10752
  141.1648  133.7362  156.8912 H   0  0  0  0  0  0  0  0  0  0  0  0  # atno 11005 bound_to 11000
  145.6677  141.0224  143.1675 LP  0  0  0  0  0  0  0  0  0  0  0  0  # atno 17320 bound_to 7965
  144.7137  139.8274  143.7406 LP  0  0  0  0  0  0  0  0  0  0  0  0  # atno 17321 bound_to 7965
  140.5408  144.0582  150.6087 LP  0  0  0  0  0  0  0  0  0  0  0  0  # atno 17342 bound_to 10162
  140.3604  143.2911  152.0390 LP  0  0  0  0  0  0  0  0  0  0  0  0  # atno 17343 bound_to 10162
  156.8927  130.5218  149.5285 LP  0  0  0  0  0  0  0  0  0  0  0  0  # atno 17370 bound_to 10713
  156.0713  130.5745  150.9389 LP  0  0  0  0  0  0  0  0  0  0  0  0  # atno 17371 bound_to 10713
  140.1647  134.9141  157.2759 LP  0  0  0  0  0  0  0  0  0  0  0  0  # atno 17394 bound_to 11000
  140.2570  134.3615  155.7420 LP  0  0  0  0  0  0  0  0  0  0  0  0  # atno 17395 bound_to 11000

$$$$
