AV-unprocessed.smi:35|AV-procd|sdf|278|dock6
  -GOLD-   2262016 53D 1   1.00000     0.00000
 Structure written by MMmdl.
 28 29  0  0  0  0  0  0  0  0  2 V2000
  151.4864  135.3452  157.5486 O   0  0  0  0  0  0  0  0  0  0  0  0
  151.2421  136.3546  156.8905 C   0  0  0  0  0  0  0  0  0  0  0  0
  151.9063  137.5329  157.0665 N   0  5  0  0  0  0  0  0  0  0  0  0
  151.6218  138.6548  156.3423 C   0  0  0  0  0  0  0  0  0  0  0  0
  152.2275  139.7173  156.4855 O   0  0  0  0  0  0  0  0  0  0  0  0
  150.5793  138.6079  155.3747 N   0  0  0  0  0  0  0  0  0  0  0  0
  150.2723  139.8626  154.5747 C   0  0  1  0  0  0  0  0  0  0  0  0
  149.3459  139.5622  153.5705 O   0  0  0  0  0  0  0  0  0  0  0  0
  148.0353  139.9093  154.0077 C   0  0  2  0  0  0  0  0  0  0  0  0
  147.0555  139.9910  152.8248 C   0  0  0  0  0  0  0  0  0  0  0  0
  147.1583  138.8250  152.0363 O   0  0  0  0  0  0  0  0  0  0  0  0
  148.2912  141.2216  154.7549 C   0  0  2  0  0  0  0  0  0  0  0  0
  148.3849  142.3033  153.8415 O   0  0  0  0  0  0  0  0  0  0  0  0
  149.6125  140.9365  155.4685 C   0  0  2  0  0  0  0  0  0  0  0  0
  150.4054  142.0976  155.6306 O   0  0  0  0  0  0  0  0  0  0  0  0
  149.9091  137.4140  155.1540 C   0  0  0  0  0  0  0  0  0  0  0  0
  150.1998  136.3088  155.8694 C   0  0  0  0  0  0  0  0  0  0  0  0
  149.1560  134.6775  155.4495 Br  0  0  0  0  0  0  0  0  0  0  0  0
  151.2216  140.1600  154.1256 H   0  0  0  0  0  0  0  0  0  0  0  0
  147.6837  139.1715  154.7314 H   0  0  0  0  0  0  0  0  0  0  0  0
  146.0300  140.0506  153.1903 H   0  0  0  0  0  0  0  0  0  0  0  0
  147.2374  140.8765  152.2149 H   0  0  0  0  0  0  0  0  0  0  0  0
  147.9195  138.9078  151.4820 H   0  0  0  0  0  0  0  0  0  0  0  0
  147.4937  141.4454  155.4640 H   0  0  0  0  0  0  0  0  0  0  0  0
  148.8347  143.0141  154.2729 H   0  0  0  0  0  0  0  0  0  0  0  0
  149.4020  140.5100  156.4505 H   0  0  0  0  0  0  0  0  0  0  0  0
  149.8933  142.8423  155.3515 H   0  0  0  0  0  0  0  0  0  0  0  0
  149.1401  137.3436  154.4006 H   0  0  0  0  0  0  0  0  0  0  0  0
  1  2  2  0  0  0  0
  2 17  1  0  0  0  0
  2  3  1  0  0  0  0
  3  4  1  0  0  0  0
  4  5  2  0  0  0  0
  4  6  1  0  0  0  0
  6  7  1  0  0  0  0
  6 16  1  0  0  0  0
  7 14  1  0  0  0  0
  7  8  1  0  0  0  0
  7 19  1  0  0  0  0
  8  9  1  0  0  0  0
  9 10  1  0  0  0  0
  9 12  1  0  0  0  0
  9 20  1  0  0  0  0
 10 11  1  0  0  0  0
 10 21  1  0  0  0  0
 10 22  1  0  0  0  0
 11 23  1  0  0  0  0
 12 13  1  0  0  0  0
 12 14  1  0  0  0  0
 12 24  1  0  0  0  0
 13 25  1  0  0  0  0
 14 15  1  0  0  0  0
 14 26  1  0  0  0  0
 15 27  1  0  0  0  0
 16 17  2  0  0  0  0
 16 28  1  0  0  0  0
 17 18  1  0  0  0  0
M  CHG  1   3  -1
M  END
> <s_m_source_file>
AV-unprocessed.smi

> <i_m_source_file_index>
35

> <i_lp_mmshare_version>
43012

> <i_f3d_flags>
0

> <s_epik_input>
Tz1jMVtuSF1jKD1PKW4oW2NIXWMxQnIpW0NAQEhdMk9bQ0BASF0oW0NIMl1bT0hdKVtDQEBIXShbT0hdKVtDQEhdMltPSF0=

> <s_epik_cmdline>
J2VwaWtfcHl0aG9uJywgJy1waCcsICc3LjAnLCAnLXRuJywgJzgnLCAnLW1hJywgJzIwMCcsICctbWV0YWxfYmluZGluZycsICctaW1hZScsICc8aW5maWxlLm1hZT4nLCAnLW9tYWUnLCAnPG91dGZpbGUubWFlPic=

> <r_epik_Ionization_Penalty>
1.06112

> <r_epik_Ionization_Penalty_Charging>
2.1796e-09

> <r_epik_Ionization_Penalty_Neutral>
1.06112

> <r_epik_State_Penalty>
1.11484

> <r_epik_Charging_Adjusted_Penalty>
1.11484

> <i_epik_Tot_Q>
-1

> <i_epik_Tot_abs_Q>
1

> <r_epik_Metal_State_Penalty>
0.0032876

> <b_epik_Metal_Only>
0

> <s_epik_Chemistry_Notes>
This compound contains an acetal/aminal-like group ( X-CH(R)-Y where X, Y are N, S, or O) that may be acid/base labile, releasing an aldehyde.

> <s_lp_Force_Field>
OPLS_2005

> <r_lp_Energy>
41.3474

> <b_lp_Chiralities_Consistent>
1

> <s_lp_Variant>
AV-unprocessed.smi:35-32

> <Gold.Version>
5.8.1

> <Gold.Id.Protein>
6NUR|6NUR_protein|mol2

> <Gold.PLP.Fitness>
39.4558

> <Gold.PLP.PLP>
-23.9427

> <Gold.PLP.part.hbond>
-6.9305

> <Gold.PLP.part.metal>
0.0000

> <Gold.PLP.part.buried>
1.3522

> <Gold.PLP.part.nonpolar>
-22.0551

> <Gold.PLP.part.repulsive>
4.9987

> <Gold.PLP.ligand.clash>
0.0000

> <Gold.PLP.ligand.torsion>
0.1997

> <Gold.PLP.Chemscore.Hbond>
4.3507

> <Gold.PLP.Chemscore.CHOScore>
0.9469

> <Gold.PLP.Chemscore.Metal>
0.0000

> <Gold.Chemscore.Hbonds>
donor molecule, donor type, donor heavy atom, donor atom, acceptor molecule, acceptor atom, score
      L1  H    11    23       P1  7957  0.90
      L1  H    13    25       P1  8028  0.65
      L1  H    15    27       P1  8028  0.70
      P1  H  7997  8010       L1     5  0.70
      P1  H  8011  8017       L1    13  0.10
      L1  C    16    28       P1  7948  0.43

> <Gold.PLP.Chemscore.Internal.Correction>
0.0197

> <Gold.Rescore>
     Score         DG    S(hbond)    S(metal)    S(lipo)     H(rot)  DE(clash)    DE(int)     intcor
     11.49     -13.55       3.82        0.00      39.26       3.63       1.81       0.25       ----

> <Gold.Chemscore.Fitness>
11.4895

> <Gold.Chemscore.DG>
-13.5463

> <Gold.Chemscore.ZeroCoef>
-5.4800

> <Gold.Chemscore.Hbond>
3.8190

> <Gold.Chemscore.Metal>
0.0000

> <Gold.Chemscore.Lipo>
39.2611

> <Gold.Chemscore.Internal_Hbond>
0.0000

> <Gold.Chemscore.DEClash>
1.8101

> <Gold.Chemscore.DEInternal>
0.2467

> <Gold.Chemscore.Rot>
3.6261

> <Gold.Chemscore.Internal.Correction>
   9.000000E+99

> <Gold.Chemscore.Hbonds>
donor molecule, donor type, donor heavy atom, donor atom, acceptor molecule, acceptor atom, score
      L1  H    11    23       P1  7957  0.62
      L1  H    13    25       P1  8028  0.62
      L1  H    15    27       P1  8028  0.69
      P1  H  7997  8010       L1     5  0.71

> <Gold.Chemscore.Hbond.Weighted>
-12.7555

> <Gold.Chemscore.Metal.Weighted>
-0.0000

> <Gold.Chemscore.Lipo.Weighted>
-4.5935

> <Gold.Chemscore.Internal_Hbond.Weighted>
0.0000

> <Gold.Chemscore.DEClash.Weighted>
1.8101

> <Gold.Chemscore.DEInternal.Weighted>
0.2467

> <Gold.Chemscore.Rot.Weighted>
9.2828

> <Gold.Chemscore.Internal.Correction.Weighted>
   9.000000E+99

> <Gold.Protein.RotatedTorsions>
[ 6907 6896 6895 6894 ] final -124.17 input  -60.11 | X-H torsion
[ 7974 7965 7964 7962 ] final  141.91 input  175.53 | X-H torsion
[ 8008 7997 7996 7995 ] final   77.29 input   59.86 | X-H torsion
[ 10167 10162 10161 10158 ] final  174.84 input  -65.29 | X-H torsion
[ 10718 10713 10712 10709 ] final  -60.14 input   66.30 | X-H torsion
[ 10763 10752 10751 10750 ] final   10.59 input  -60.55 | X-H torsion
[ 11005 11000 10999 10996 ] final  131.15 input  -57.11 | X-H torsion

> <Gold.Protein.ActiveResidues>
 VAL166  LYS551  ARG553  GLY616  TRP617  ASP618  TYR619  PRO620  LYS621  CYS622 
 ASP623  PHE694  ASN695  SER759  ASP760  ASP761  ALA762  ILE779  LEU786  VAL792 
 PHE793  MET794  SER795  GLU796  ALA797  LYS798  CYS799  TRP800  GLU811  SER814 

> <Gold.Protein.RotatedAtoms>
  150.8742  133.7462  159.2951 H   0  0  0  0  0  0  0  0  0  0  0  0  # atno 6907 bound_to 6896
  151.5064  135.1062  159.9852 H   0  0  0  0  0  0  0  0  0  0  0  0  # atno 6908 bound_to 6896
  152.4716  133.7998  159.7002 H   0  0  0  0  0  0  0  0  0  0  0  0  # atno 6909 bound_to 6896
  144.9054  139.5365  143.5734 H   0  0  0  0  0  0  0  0  0  0  0  0  # atno 7974 bound_to 7965
  155.8395  140.3463  155.5623 H   0  0  0  0  0  0  0  0  0  0  0  0  # atno 8008 bound_to 7997
  155.8156  140.0905  157.1898 H   0  0  0  0  0  0  0  0  0  0  0  0  # atno 8009 bound_to 7997
  154.4005  140.1439  156.3426 H   0  0  0  0  0  0  0  0  0  0  0  0  # atno 8010 bound_to 7997
  139.5156  144.3100  152.0300 H   0  0  0  0  0  0  0  0  0  0  0  0  # atno 10167 bound_to 10162
  156.1012  130.4186  150.0812 H   0  0  0  0  0  0  0  0  0  0  0  0  # atno 10718 bound_to 10713
  153.2016  135.6857  153.8224 H   0  0  0  0  0  0  0  0  0  0  0  0  # atno 10763 bound_to 10752
  153.7488  135.3227  155.3318 H   0  0  0  0  0  0  0  0  0  0  0  0  # atno 10764 bound_to 10752
  154.8174  135.4676  154.0785 H   0  0  0  0  0  0  0  0  0  0  0  0  # atno 10765 bound_to 10752
  139.9713  134.9576  156.9397 H   0  0  0  0  0  0  0  0  0  0  0  0  # atno 11005 bound_to 11000
  146.3131  139.7817  142.9005 LP  0  0  0  0  0  0  0  0  0  0  0  0  # atno 17320 bound_to 7965
  145.3545  141.0314  143.3320 LP  0  0  0  0  0  0  0  0  0  0  0  0  # atno 17321 bound_to 7965
  140.2545  144.4133  150.6209 LP  0  0  0  0  0  0  0  0  0  0  0  0  # atno 17342 bound_to 10162
  140.6201  143.2175  151.6711 LP  0  0  0  0  0  0  0  0  0  0  0  0  # atno 17343 bound_to 10162
  156.8799  130.9553  151.3600 LP  0  0  0  0  0  0  0  0  0  0  0  0  # atno 17370 bound_to 10713
  157.6182  130.8635  149.9064 LP  0  0  0  0  0  0  0  0  0  0  0  0  # atno 17371 bound_to 10713
  140.5287  134.0835  155.7310 LP  0  0  0  0  0  0  0  0  0  0  0  0  # atno 17394 bound_to 11000
  141.1393  133.9167  157.2363 LP  0  0  0  0  0  0  0  0  0  0  0  0  # atno 17395 bound_to 11000

$$$$
