AV-unprocessed.smi:996|AV-procd|sdf|4347|dock2
  -GOLD-   22720 2243D 1   1.00000     0.00000
 Structure written by MMmdl.
 22 23  0  0  0  0  0  0  0  0  1 V2000
  153.2394  139.3856  158.0811 O   0  0  0  0  0  0  0  0  0  0  0  0
  153.0523  140.3404  158.8331 C   0  0  0  0  0  0  0  0  0  0  0  0
  153.5722  140.4629  160.0963 O   0  0  0  0  0  0  0  0  0  0  0  0
  153.1422  141.6384  160.6390 C   0  0  0  0  0  0  0  0  0  0  0  0
  153.4076  142.1841  161.9062 C   0  0  0  0  0  0  0  0  0  0  0  0
  152.8197  143.4322  162.2199 C   0  0  0  0  0  0  0  0  0  0  0  0
  151.9928  144.1013  161.2812 C   0  0  0  0  0  0  0  0  0  0  0  0
  151.7389  143.5352  160.0106 C   0  0  0  0  0  0  0  0  0  0  0  0
  152.3394  142.2958  159.7309 C   0  0  0  0  0  0  0  0  0  0  0  0
  152.2893  141.4872  158.5985 N   0  0  0  0  0  0  0  0  0  0  0  0
  151.5414  141.7680  157.3774 C   0  0  0  0  0  0  0  0  0  0  0  0
  150.0486  141.9628  157.6765 C   0  0  0  0  0  0  0  0  0  0  0  0
  149.3646  142.2981  156.4891 O   0  0  0  0  0  0  0  0  0  0  0  0
  154.0368  141.6679  162.6160 H   0  0  0  0  0  0  0  0  0  0  0  0
  153.0020  143.8804  163.1857 H   0  0  0  0  0  0  0  0  0  0  0  0
  151.5523  145.0530  161.5394 H   0  0  0  0  0  0  0  0  0  0  0  0
  151.1096  144.0360  159.2899 H   0  0  0  0  0  0  0  0  0  0  0  0
  151.9511  142.6584  156.8987 H   0  0  0  0  0  0  0  0  0  0  0  0
  151.6791  140.9502  156.6681 H   0  0  0  0  0  0  0  0  0  0  0  0
  149.6148  141.0529  158.0925 H   0  0  0  0  0  0  0  0  0  0  0  0
  149.9021  142.7597  158.4063 H   0  0  0  0  0  0  0  0  0  0  0  0
  149.4553  143.2272  156.3418 H   0  0  0  0  0  0  0  0  0  0  0  0
  1  2  2  0  0  0  0
  2 10  1  0  0  0  0
  2  3  1  0  0  0  0
  3  4  1  0  0  0  0
  4  9  2  0  0  0  0
  4  5  1  0  0  0  0
  5  6  2  0  0  0  0
  5 14  1  0  0  0  0
  6  7  1  0  0  0  0
  6 15  1  0  0  0  0
  7  8  2  0  0  0  0
  7 16  1  0  0  0  0
  8  9  1  0  0  0  0
  8 17  1  0  0  0  0
  9 10  1  0  0  0  0
 10 11  1  0  0  0  0
 11 12  1  0  0  0  0
 11 18  1  0  0  0  0
 11 19  1  0  0  0  0
 12 13  1  0  0  0  0
 12 20  1  0  0  0  0
 12 21  1  0  0  0  0
 13 22  1  0  0  0  0
M  END
> <s_m_source_file>
AV-unprocessed.smi

> <i_m_source_file_index>
996

> <i_lp_mmshare_version>
43012

> <i_f3d_flags>
0

> <s_epik_input>
W09IXVtDSDJdW0NIMl1uKGMoPU8pbzEpYyhjMTIpW2NIXVtjSF1bY0hdW2NIXTI=

> <s_epik_cmdline>
J2VwaWtfcHl0aG9uJywgJy1waCcsICc3LjAnLCAnLXRuJywgJzgnLCAnLW1hJywgJzIwMCcsICctbWV0YWxfYmluZGluZycsICctaW1hZScsICc8aW5maWxlLm1hZT4nLCAnLW9tYWUnLCAnPG91dGZpbGUubWFlPic=

> <r_lp_tautomer_probability>
1

> <r_epik_Ionization_Penalty>
1.98202e-07

> <r_epik_Ionization_Penalty_Charging>
1.40767e-14

> <r_epik_Ionization_Penalty_Neutral>
1.98202e-07

> <r_epik_State_Penalty>
-0

> <r_epik_Charging_Adjusted_Penalty>
1.40767e-14

> <i_epik_Tot_Q>
0

> <i_epik_Tot_abs_Q>
0

> <r_epik_Metal_State_Penalty>
-0

> <b_epik_Metal_Only>
0

> <s_lp_Force_Field>
OPLS_2005

> <r_lp_Energy>
24.1442

> <b_lp_Chiralities_Consistent>
1

> <s_lp_Variant>
AV-unprocessed.smi:996-1

> <Gold.Version>
5.8.1

> <Gold.Id.Protein>
6NUR|6NUR_protein|mol2

> <Gold.PLP.Fitness>
38.2647

> <Gold.PLP.PLP>
-32.2767

> <Gold.PLP.part.hbond>
-2.0000

> <Gold.PLP.part.metal>
0.0000

> <Gold.PLP.part.buried>
-4.4416

> <Gold.PLP.part.nonpolar>
-24.7484

> <Gold.PLP.part.repulsive>
0.0000

> <Gold.PLP.ligand.clash>
0.0000

> <Gold.PLP.ligand.torsion>
0.0067

> <Gold.PLP.Chemscore.Hbond>
2.0000

> <Gold.PLP.Chemscore.CHOScore>
0.0000

> <Gold.PLP.Chemscore.Metal>
0.0000

> <Gold.Chemscore.Hbonds>
donor molecule, donor type, donor heavy atom, donor atom, acceptor molecule, acceptor atom, score
      L1  H    13    22       P1  8028  1.00
      P1  H  7997  8008       L1     1  1.00

> <Gold.PLP.Chemscore.Internal.Correction>
0.0013

> <Gold.Rescore>
     Score         DG    S(hbond)    S(metal)    S(lipo)     H(rot)  DE(clash)    DE(int)     intcor
     16.63     -16.67       1.91        0.00      80.28       1.79       0.03       0.01       ----

> <Gold.Chemscore.Fitness>
16.6259

> <Gold.Chemscore.DG>
-16.6673

> <Gold.Chemscore.ZeroCoef>
-5.4800

> <Gold.Chemscore.Hbond>
1.9097

> <Gold.Chemscore.Metal>
0.0000

> <Gold.Chemscore.Lipo>
80.2760

> <Gold.Chemscore.Internal_Hbond>
0.0000

> <Gold.Chemscore.DEClash>
0.0289

> <Gold.Chemscore.DEInternal>
0.0125

> <Gold.Chemscore.Rot>
1.7903

> <Gold.Chemscore.Internal.Correction>
   9.000000E+99

> <Gold.Chemscore.Hbonds>
donor molecule, donor type, donor heavy atom, donor atom, acceptor molecule, acceptor atom, score
      L1  H    13    22       P1  8028  0.95
      P1  H  7997  8008       L1     1  0.40

> <Gold.Chemscore.Hbond.Weighted>
-6.3783

> <Gold.Chemscore.Metal.Weighted>
-0.0000

> <Gold.Chemscore.Lipo.Weighted>
-9.3923

> <Gold.Chemscore.Internal_Hbond.Weighted>
0.0000

> <Gold.Chemscore.DEClash.Weighted>
0.0289

> <Gold.Chemscore.DEInternal.Weighted>
0.0125

> <Gold.Chemscore.Rot.Weighted>
4.5833

> <Gold.Chemscore.Internal.Correction.Weighted>
   9.000000E+99

> <Gold.Protein.RotatedTorsions>
[ 6907 6896 6895 6894 ] final  -12.52 input  -60.11 | X-H torsion
[ 7974 7965 7964 7962 ] final -176.41 input  175.53 | X-H torsion
[ 8008 7997 7996 7995 ] final  -74.96 input   59.86 | X-H torsion
[ 10167 10162 10161 10158 ] final -173.28 input  -65.29 | X-H torsion
[ 10718 10713 10712 10709 ] final -166.65 input   66.30 | X-H torsion
[ 10763 10752 10751 10750 ] final  -26.76 input  -60.55 | X-H torsion
[ 11005 11000 10999 10996 ] final    7.89 input  -57.11 | X-H torsion

> <Gold.Protein.ActiveResidues>
 VAL166  LYS551  ARG553  GLY616  TRP617  ASP618  TYR619  PRO620  LYS621  CYS622 
 ASP623  PHE694  ASN695  SER759  ASP760  ASP761  ALA762  ILE779  LEU786  VAL792 
 PHE793  MET794  SER795  GLU796  ALA797  LYS798  CYS799  TRP800  GLU811  SER814 

> <Gold.Protein.RotatedAtoms>
  151.3693  135.0919  159.9459 H   0  0  0  0  0  0  0  0  0  0  0  0  # atno 6907 bound_to 6896
  152.5140  133.9181  159.7531 H   0  0  0  0  0  0  0  0  0  0  0  0  # atno 6908 bound_to 6896
  150.9591  133.6410  159.2787 H   0  0  0  0  0  0  0  0  0  0  0  0  # atno 6909 bound_to 6896
  144.7127  140.1174  143.6407 H   0  0  0  0  0  0  0  0  0  0  0  0  # atno 7974 bound_to 7965
  154.5375  140.0752  156.8453 H   0  0  0  0  0  0  0  0  0  0  0  0  # atno 8008 bound_to 7997
  155.3247  140.3398  155.4222 H   0  0  0  0  0  0  0  0  0  0  0  0  # atno 8009 bound_to 7997
  156.1843  140.1663  156.8202 H   0  0  0  0  0  0  0  0  0  0  0  0  # atno 8010 bound_to 7997
  139.5697  144.1671  152.1365 H   0  0  0  0  0  0  0  0  0  0  0  0  # atno 10167 bound_to 10162
  156.6710  130.9084  151.3043 H   0  0  0  0  0  0  0  0  0  0  0  0  # atno 10718 bound_to 10713
  153.7211  135.6945  153.5012 H   0  0  0  0  0  0  0  0  0  0  0  0  # atno 10763 bound_to 10752
  153.2203  135.4372  155.0480 H   0  0  0  0  0  0  0  0  0  0  0  0  # atno 10764 bound_to 10752
  154.8284  135.3459  154.6745 H   0  0  0  0  0  0  0  0  0  0  0  0  # atno 10765 bound_to 10752
  140.5431  134.0355  155.7911 H   0  0  0  0  0  0  0  0  0  0  0  0  # atno 11005 bound_to 11000
  145.9401  139.2663  143.1274 LP  0  0  0  0  0  0  0  0  0  0  0  0  # atno 17320 bound_to 7965
  145.9433  140.8963  143.0296 LP  0  0  0  0  0  0  0  0  0  0  0  0  # atno 17321 bound_to 7965
  140.1201  144.5380  150.6868 LP  0  0  0  0  0  0  0  0  0  0  0  0  # atno 17342 bound_to 10162
  140.6981  143.2417  151.4943 LP  0  0  0  0  0  0  0  0  0  0  0  0  # atno 17343 bound_to 10162
  157.7077  130.9404  150.0985 LP  0  0  0  0  0  0  0  0  0  0  0  0  # atno 17370 bound_to 10713
  156.1939  130.3656  149.8874 LP  0  0  0  0  0  0  0  0  0  0  0  0  # atno 17371 bound_to 10713
  141.1215  133.9453  157.2720 LP  0  0  0  0  0  0  0  0  0  0  0  0  # atno 17394 bound_to 11000
  139.9493  135.0178  156.8947 LP  0  0  0  0  0  0  0  0  0  0  0  0  # atno 17395 bound_to 11000

$$$$
