AV-unprocessed.smi:3033|AV-procd|sdf|11575|dock3
  -GOLD-   2272016543D 1   1.00000     0.00000
 Structure written by MMmdl.
 32 33  0  0  0  0  0  0  0  0  2 V2000
  153.1601  142.6790  162.0654 C   0  0  0  0  0  0  0  0  0  0  0  0
  152.9033  141.9532  160.8721 O   0  0  0  0  0  0  0  0  0  0  0  0
  152.4376  142.6496  159.7775 C   0  0  0  0  0  0  0  0  0  0  0  0
  152.7451  144.0069  159.5075 C   0  0  0  0  0  0  0  0  0  0  0  0
  152.2305  144.6380  158.3588 C   0  0  0  0  0  0  0  0  0  0  0  0
  151.4048  143.9262  157.4696 C   0  0  0  0  0  0  0  0  0  0  0  0
  151.0843  142.5779  157.7277 C   0  0  0  0  0  0  0  0  0  0  0  0
  150.2009  141.8097  156.7564 C   0  0  2  0  0  0  0  0  0  0  0  0
  148.9392  142.4313  156.6060 O   0  0  0  0  0  0  0  0  0  0  0  0
  149.9835  140.3586  157.2358 C   0  0  0  0  0  0  0  0  0  0  0  0
  151.2441  139.6059  157.3066 N   0  0  0  0  0  0  0  0  0  0  0  0
  151.5527  138.9719  158.5216 C   0  0  0  0  0  0  0  0  0  0  0  0
  152.6799  138.2529  158.6867 C   0  0  0  0  0  0  0  0  0  0  0  0
  153.0319  137.4814  160.1921 Cl  0  0  0  0  0  0  0  0  0  0  0  0
  153.5952  138.1425  157.5524 C   0  0  0  0  0  0  0  0  0  0  0  0
  154.6354  137.4963  157.6696 O   0  0  0  0  0  0  0  0  0  0  0  0
  153.2467  138.7730  156.3925 N   0  5  0  0  0  0  0  0  0  0  0  0
  152.0946  139.4967  156.2430 C   0  0  0  0  0  0  0  0  0  0  0  0
  151.7967  140.0490  155.1832 O   0  0  0  0  0  0  0  0  0  0  0  0
  151.6055  141.9496  158.8799 C   0  0  0  0  0  0  0  0  0  0  0  0
  153.5392  141.9970  162.8265 H   0  0  0  0  0  0  0  0  0  0  0  0
  152.2511  143.1378  162.4567 H   0  0  0  0  0  0  0  0  0  0  0  0
  153.9154  143.4503  161.9084 H   0  0  0  0  0  0  0  0  0  0  0  0
  153.3755  144.5860  160.1649 H   0  0  0  0  0  0  0  0  0  0  0  0
  152.4723  145.6712  158.1579 H   0  0  0  0  0  0  0  0  0  0  0  0
  151.0214  144.4183  156.5875 H   0  0  0  0  0  0  0  0  0  0  0  0
  150.6861  141.8135  155.7794 H   0  0  0  0  0  0  0  0  0  0  0  0
  149.0745  143.3632  156.5282 H   0  0  0  0  0  0  0  0  0  0  0  0
  149.5355  140.3670  158.2312 H   0  0  0  0  0  0  0  0  0  0  0  0
  149.2491  139.8512  156.6082 H   0  0  0  0  0  0  0  0  0  0  0  0
  150.8183  139.1011  159.3033 H   0  0  0  0  0  0  0  0  0  0  0  0
  151.3699  140.9139  159.0775 H   0  0  0  0  0  0  0  0  0  0  0  0
  1  2  1  0  0  0  0
  1 21  1  0  0  0  0
  1 22  1  0  0  0  0
  1 23  1  0  0  0  0
  2  3  1  0  0  0  0
  3 20  1  0  0  0  0
  3  4  2  0  0  0  0
  4  5  1  0  0  0  0
  4 24  1  0  0  0  0
  5  6  2  0  0  0  0
  5 25  1  0  0  0  0
  6  7  1  0  0  0  0
  6 26  1  0  0  0  0
  7  8  1  0  0  0  0
  7 20  2  0  0  0  0
  8  9  1  0  0  0  0
  8 10  1  0  0  0  0
  8 27  1  0  0  0  0
  9 28  1  0  0  0  0
 10 11  1  0  0  0  0
 10 29  1  0  0  0  0
 10 30  1  0  0  0  0
 11 18  1  0  0  0  0
 11 12  1  0  0  0  0
 12 13  2  0  0  0  0
 12 31  1  0  0  0  0
 13 14  1  0  0  0  0
 13 15  1  0  0  0  0
 15 16  2  0  0  0  0
 15 17  1  0  0  0  0
 17 18  1  0  0  0  0
 18 19  2  0  0  0  0
 20 32  1  0  0  0  0
M  CHG  1  17  -1
M  END
> <s_m_source_file>
AV-unprocessed.smi

> <i_m_source_file_index>
3033

> <i_lp_mmshare_version>
43012

> <i_f3d_flags>
0

> <s_epik_input>
W0NIM11PYzFbY0hdW2NIXVtjSF1jKFtjSF0xKVtDQEhdKFtPSF0pW0NIMl1uMltjSF1jKENsKWMoPU8pW25IXWMyPU8=

> <s_epik_cmdline>
J2VwaWtfcHl0aG9uJywgJy1waCcsICc3LjAnLCAnLXRuJywgJzgnLCAnLW1hJywgJzIwMCcsICctbWV0YWxfYmluZGluZycsICctaW1hZScsICc8aW5maWxlLm1hZT4nLCAnLW9tYWUnLCAnPG91dGZpbGUubWFlPic=

> <r_lp_tautomer_probability>
1

> <r_epik_Ionization_Penalty>
1.7979

> <r_epik_Ionization_Penalty_Charging>
3.23819e-08

> <r_epik_Ionization_Penalty_Neutral>
1.7979

> <r_epik_State_Penalty>
1.91135

> <r_epik_Charging_Adjusted_Penalty>
1.91135

> <i_epik_Tot_Q>
-1

> <i_epik_Tot_abs_Q>
1

> <r_epik_Metal_State_Penalty>
0.014155

> <b_epik_Metal_Only>
0

> <s_lp_Force_Field>
OPLS_2005

> <r_lp_Energy>
24.094

> <b_lp_Chiralities_Consistent>
1

> <s_lp_Variant>
AV-unprocessed.smi:3033-3

> <Gold.Version>
5.8.1

> <Gold.Id.Protein>
6NUR|6NUR_protein|mol2

> <Gold.PLP.Fitness>
51.0154

> <Gold.PLP.PLP>
-40.0769

> <Gold.PLP.part.hbond>
-2.7461

> <Gold.PLP.part.metal>
0.0000

> <Gold.PLP.part.buried>
-4.7053

> <Gold.PLP.part.nonpolar>
-33.9374

> <Gold.PLP.part.repulsive>
0.0417

> <Gold.PLP.ligand.clash>
0.0119

> <Gold.PLP.ligand.torsion>
0.4222

> <Gold.PLP.Chemscore.Hbond>
3.9280

> <Gold.PLP.Chemscore.CHOScore>
0.0000

> <Gold.PLP.Chemscore.Metal>
0.0000

> <Gold.Chemscore.Hbonds>
donor molecule, donor type, donor heavy atom, donor atom, acceptor molecule, acceptor atom, score
      L1  H     9    28       P1  8028  0.98
      P1  H  7989  7998       L1    19  0.91
      P1  H  7997  8008       L1    17  1.61

> <Gold.PLP.Chemscore.Internal.Correction>
0.0108

> <Gold.Rescore>
     Score         DG    S(hbond)    S(metal)    S(lipo)     H(rot)  DE(clash)    DE(int)     intcor
     17.90     -19.69       2.62        0.00     100.22       2.45       0.00       1.79       ----

> <Gold.Chemscore.Fitness>
17.8957

> <Gold.Chemscore.DG>
-19.6852

> <Gold.Chemscore.ZeroCoef>
-5.4800

> <Gold.Chemscore.Hbond>
2.6195

> <Gold.Chemscore.Metal>
0.0000

> <Gold.Chemscore.Lipo>
100.2194

> <Gold.Chemscore.Internal_Hbond>
0.0000

> <Gold.Chemscore.DEClash>
0.0021

> <Gold.Chemscore.DEInternal>
1.7874

> <Gold.Chemscore.Rot>
2.4491

> <Gold.Chemscore.Internal.Correction>
   9.000000E+99

> <Gold.Chemscore.Hbonds>
donor molecule, donor type, donor heavy atom, donor atom, acceptor molecule, acceptor atom, score
      L1  H     9    28       P1  8028  0.91
      P1  H  7989  7998       L1    19  0.90
      P1  H  7997  8008       L1    17  0.03

> <Gold.Chemscore.Hbond.Weighted>
-8.7491

> <Gold.Chemscore.Metal.Weighted>
-0.0000

> <Gold.Chemscore.Lipo.Weighted>
-11.7257

> <Gold.Chemscore.Internal_Hbond.Weighted>
0.0000

> <Gold.Chemscore.DEClash.Weighted>
0.0021

> <Gold.Chemscore.DEInternal.Weighted>
1.7874

> <Gold.Chemscore.Rot.Weighted>
6.2696

> <Gold.Chemscore.Internal.Correction.Weighted>
   9.000000E+99

> <Gold.Protein.RotatedTorsions>
[ 6907 6896 6895 6894 ] final   39.64 input  -60.11 | X-H torsion
[ 7974 7965 7964 7962 ] final -137.76 input  175.53 | X-H torsion
[ 8008 7997 7996 7995 ] final  -53.73 input   59.86 | X-H torsion
[ 10167 10162 10161 10158 ] final -175.09 input  -65.29 | X-H torsion
[ 10718 10713 10712 10709 ] final  140.65 input   66.30 | X-H torsion
[ 10763 10752 10751 10750 ] final  178.43 input  -60.55 | X-H torsion
[ 11005 11000 10999 10996 ] final  151.09 input  -57.11 | X-H torsion

> <Gold.Protein.ActiveResidues>
 VAL166  LYS551  ARG553  GLY616  TRP617  ASP618  TYR619  PRO620  LYS621  CYS622 
 ASP623  PHE694  ASN695  SER759  ASP760  ASP761  ALA762  ILE779  LEU786  VAL792 
 PHE793  MET794  SER795  GLU796  ALA797  LYS798  CYS799  TRP800  GLU811  SER814 

> <Gold.Protein.RotatedAtoms>
  152.1722  134.8824  160.0533 H   0  0  0  0  0  0  0  0  0  0  0  0  # atno 6907 bound_to 6896
  151.9780  133.3743  159.4104 H   0  0  0  0  0  0  0  0  0  0  0  0  # atno 6908 bound_to 6896
  150.6903  134.3992  159.5155 H   0  0  0  0  0  0  0  0  0  0  0  0  # atno 6909 bound_to 6896
  144.8815  140.6514  143.5203 H   0  0  0  0  0  0  0  0  0  0  0  0  # atno 7974 bound_to 7965
  154.4141  140.1193  156.5201 H   0  0  0  0  0  0  0  0  0  0  0  0  # atno 8008 bound_to 7997
  155.6711  140.3496  155.4799 H   0  0  0  0  0  0  0  0  0  0  0  0  # atno 8009 bound_to 7997
  155.9632  140.1127  157.0867 H   0  0  0  0  0  0  0  0  0  0  0  0  # atno 8010 bound_to 7997
  139.5599  144.1895  152.1222 H   0  0  0  0  0  0  0  0  0  0  0  0  # atno 10167 bound_to 10162
  157.4009  131.1016  151.0553 H   0  0  0  0  0  0  0  0  0  0  0  0  # atno 10718 bound_to 10713
  154.5076  135.2787  155.1369 H   0  0  0  0  0  0  0  0  0  0  0  0  # atno 10763 bound_to 10752
  154.2977  135.6254  153.5415 H   0  0  0  0  0  0  0  0  0  0  0  0  # atno 10764 bound_to 10752
  152.9913  135.5689  154.5534 H   0  0  0  0  0  0  0  0  0  0  0  0  # atno 10765 bound_to 10752
  140.1188  134.8877  157.2043 H   0  0  0  0  0  0  0  0  0  0  0  0  # atno 11005 bound_to 11000
  145.3946  139.1609  143.4210 LP  0  0  0  0  0  0  0  0  0  0  0  0  # atno 17320 bound_to 7965
  146.2997  140.4038  142.8708 LP  0  0  0  0  0  0  0  0  0  0  0  0  # atno 17321 bound_to 7965
  140.1406  144.5205  150.6746 LP  0  0  0  0  0  0  0  0  0  0  0  0  # atno 17342 bound_to 10162
  140.6878  143.2359  151.5214 LP  0  0  0  0  0  0  0  0  0  0  0  0  # atno 17343 bound_to 10162
  157.1552  130.6201  149.5594 LP  0  0  0  0  0  0  0  0  0  0  0  0  # atno 17370 bound_to 10713
  155.9823  130.4835  150.6873 LP  0  0  0  0  0  0  0  0  0  0  0  0  # atno 17371 bound_to 10713
  140.2992  134.3151  155.7294 LP  0  0  0  0  0  0  0  0  0  0  0  0  # atno 17394 bound_to 11000
  141.2147  133.7581  156.9616 LP  0  0  0  0  0  0  0  0  0  0  0  0  # atno 17395 bound_to 11000

$$$$
