AV-unprocessed.smi:55|AV-procd|sdf|565|dock4
  -GOLD-   2262016473D 1   1.00000     0.00000
 Structure written by MMmdl.
 31 32  0  0  0  0  0  0  0  0  1 V2000
  153.8787  142.8189  163.7845 C   0  0  0  0  0  0  0  0  0  0  0  0
  153.9226  142.0717  162.4619 C   0  0  0  0  0  0  0  0  0  0  0  0
  153.3505  142.5593  161.3315 C   0  0  0  0  0  0  0  0  0  0  0  0
  153.3740  141.9023  160.1093 N   0  0  0  0  0  0  0  0  0  0  0  0
  152.7135  142.5014  158.8882 C   0  0  2  0  0  0  0  0  0  0  0  0
  152.1976  143.9139  159.1827 C   0  0  0  0  0  0  0  0  0  0  0  0
  150.8739  143.9323  158.4441 C   0  0  1  0  0  0  0  0  0  0  0  0
  151.0592  144.3319  157.0988 O   0  0  0  0  0  0  0  0  0  0  0  0
  150.4185  142.4707  158.5626 C   0  0  1  0  0  0  0  0  0  0  0  0
  149.4131  141.9667  157.5128 C   0  0  0  0  0  0  0  0  0  0  0  0
  149.8537  142.2980  156.2130 O   0  0  0  0  0  0  0  0  0  0  0  0
  151.6216  141.7064  158.5261 O   0  0  0  0  0  0  0  0  0  0  0  0
  154.0422  140.6644  160.0039 C   0  0  0  0  0  0  0  0  0  0  0  0
  154.1312  140.0357  158.9501 O   0  0  0  0  0  0  0  0  0  0  0  0
  154.6266  140.1609  161.1649 N   0  0  0  0  0  0  0  0  0  0  0  0
  154.6148  140.7810  162.4168 C   0  0  0  0  0  0  0  0  0  0  0  0
  155.1658  140.2342  163.3708 O   0  0  0  0  0  0  0  0  0  0  0  0
  153.4266  142.4671  158.0634 H   0  0  0  0  0  0  0  0  0  0  0  0
  150.1615  144.6148  158.9084 H   0  0  0  0  0  0  0  0  0  0  0  0
  149.9882  142.3292  159.5551 H   0  0  0  0  0  0  0  0  0  0  0  0
  155.1029  139.2734  161.0947 H   0  0  0  0  0  0  0  0  0  0  0  0
  153.3382  143.7619  163.6984 H   0  0  0  0  0  0  0  0  0  0  0  0
  154.8890  143.0427  164.1289 H   0  0  0  0  0  0  0  0  0  0  0  0
  153.3819  142.2171  164.5463 H   0  0  0  0  0  0  0  0  0  0  0  0
  152.8536  143.5158  161.3898 H   0  0  0  0  0  0  0  0  0  0  0  0
  152.0256  144.0268  160.2542 H   0  0  0  0  0  0  0  0  0  0  0  0
  152.9087  144.6751  158.8594 H   0  0  0  0  0  0  0  0  0  0  0  0
  150.2280  144.6248  156.7567 H   0  0  0  0  0  0  0  0  0  0  0  0
  149.2591  140.8901  157.5877 H   0  0  0  0  0  0  0  0  0  0  0  0
  148.4428  142.4369  157.6741 H   0  0  0  0  0  0  0  0  0  0  0  0
  149.3569  143.0421  155.9081 H   0  0  0  0  0  0  0  0  0  0  0  0
  1  2  1  0  0  0  0
  1 22  1  0  0  0  0
  1 23  1  0  0  0  0
  1 24  1  0  0  0  0
  2 16  1  0  0  0  0
  2  3  2  0  0  0  0
  3  4  1  0  0  0  0
  3 25  1  0  0  0  0
  4  5  1  0  0  0  0
  4 13  1  0  0  0  0
  5 18  1  0  0  0  0
  5 12  1  0  0  0  0
  5  6  1  0  0  0  0
  6  7  1  0  0  0  0
  6 26  1  0  0  0  0
  6 27  1  0  0  0  0
  7 19  1  0  0  0  0
  7  8  1  0  0  0  0
  7  9  1  0  0  0  0
  8 28  1  0  0  0  0
  9 20  1  0  0  0  0
  9 10  1  0  0  0  0
  9 12  1  0  0  0  0
 10 11  1  0  0  0  0
 10 29  1  0  0  0  0
 10 30  1  0  0  0  0
 11 31  1  0  0  0  0
 13 14  2  0  0  0  0
 13 15  1  0  0  0  0
 15 21  1  0  0  0  0
 15 16  1  0  0  0  0
 16 17  2  0  0  0  0
M  END
> <s_m_source_file>
AV-unprocessed.smi

> <i_m_source_file_index>
55

> <i_lp_mmshare_version>
43012

> <i_f3d_flags>
0

> <s_epik_input>
Tz1jMVtuSF1jKD1PKW4oW2NIXWMxW0NIM10pW0NAQEhdMltDSDJdW0NAQEhdKFtPSF0pW0NAQEhdKE8yKVtDSDJdW09IXQ==

> <s_epik_cmdline>
J2VwaWtfcHl0aG9uJywgJy1waCcsICc3LjAnLCAnLXRuJywgJzgnLCAnLW1hJywgJzIwMCcsICctbWV0YWxfYmluZGluZycsICctaW1hZScsICc8aW5maWxlLm1hZT4nLCAnLW9tYWUnLCAnPG91dGZpbGUubWFlPic=

> <r_lp_tautomer_probability>
0.999537

> <r_epik_Ionization_Penalty>
0.00121888

> <r_epik_Ionization_Penalty_Charging>
0.00121876

> <r_epik_Ionization_Penalty_Neutral>
1.19946e-07

> <r_epik_State_Penalty>
0.000805124

> <r_epik_Charging_Adjusted_Penalty>
0.00202389

> <i_epik_Tot_Q>
0

> <i_epik_Tot_abs_Q>
0

> <r_epik_Metal_State_Penalty>
0.662472

> <b_epik_Metal_Only>
0

> <s_epik_Chemistry_Notes>
This compound contains an acetal/aminal-like group ( X-CH(R)-Y where X, Y are N, S, or O) that may be acid/base labile, releasing an aldehyde.

> <s_lp_Force_Field>
OPLS_2005

> <r_lp_Energy>
27.6975

> <b_lp_Chiralities_Consistent>
1

> <s_lp_Variant>
AV-unprocessed.smi:55-5

> <Gold.Version>
5.8.1

> <Gold.Id.Protein>
6NUR|6NUR_protein|mol2

> <Gold.PLP.Fitness>
43.7902

> <Gold.PLP.PLP>
-35.0989

> <Gold.PLP.part.hbond>
-3.0000

> <Gold.PLP.part.metal>
0.0000

> <Gold.PLP.part.buried>
-1.4641

> <Gold.PLP.part.nonpolar>
-28.2183

> <Gold.PLP.part.repulsive>
0.0086

> <Gold.PLP.ligand.clash>
0.0000

> <Gold.PLP.ligand.torsion>
0.1555

> <Gold.PLP.Chemscore.Hbond>
3.0000

> <Gold.PLP.Chemscore.CHOScore>
0.0000

> <Gold.PLP.Chemscore.Metal>
0.0000

> <Gold.Chemscore.Hbonds>
donor molecule, donor type, donor heavy atom, donor atom, acceptor molecule, acceptor atom, score
      L1  H     8    28       P1  8028  1.00
      L1  H    11    31       P1  8028  1.00
      P1  H  7997  8009       L1    14  1.00

> <Gold.PLP.Chemscore.Internal.Correction>
0.0022

> <Gold.Rescore>
     Score         DG    S(hbond)    S(metal)    S(lipo)     H(rot)  DE(clash)    DE(int)     intcor
     16.30     -16.76       2.96        0.00      71.44       2.73       0.17       0.29       ----

> <Gold.Chemscore.Fitness>
16.3040

> <Gold.Chemscore.DG>
-16.7607

> <Gold.Chemscore.ZeroCoef>
-5.4800

> <Gold.Chemscore.Hbond>
2.9637

> <Gold.Chemscore.Metal>
0.0000

> <Gold.Chemscore.Lipo>
71.4430

> <Gold.Chemscore.Internal_Hbond>
0.0000

> <Gold.Chemscore.DEClash>
0.1657

> <Gold.Chemscore.DEInternal>
0.2909

> <Gold.Chemscore.Rot>
2.7253

> <Gold.Chemscore.Internal.Correction>
   9.000000E+99

> <Gold.Chemscore.Hbonds>
donor molecule, donor type, donor heavy atom, donor atom, acceptor molecule, acceptor atom, score
      L1  H     8    28       P1  8028  0.78
      L1  H    11    31       P1  8028  1.00
      P1  H  7997  8009       L1    14  0.95

> <Gold.Chemscore.Hbond.Weighted>
-9.8987

> <Gold.Chemscore.Metal.Weighted>
-0.0000

> <Gold.Chemscore.Lipo.Weighted>
-8.3588

> <Gold.Chemscore.Internal_Hbond.Weighted>
0.0000

> <Gold.Chemscore.DEClash.Weighted>
0.1657

> <Gold.Chemscore.DEInternal.Weighted>
0.2909

> <Gold.Chemscore.Rot.Weighted>
6.9769

> <Gold.Chemscore.Internal.Correction.Weighted>
   9.000000E+99

> <Gold.Protein.RotatedTorsions>
[ 6907 6896 6895 6894 ] final   44.36 input  -60.11 | X-H torsion
[ 7974 7965 7964 7962 ] final   55.37 input  175.53 | X-H torsion
[ 8008 7997 7996 7995 ] final  131.70 input   59.86 | X-H torsion
[ 10167 10162 10161 10158 ] final   87.99 input  -65.29 | X-H torsion
[ 10718 10713 10712 10709 ] final   35.02 input   66.30 | X-H torsion
[ 10763 10752 10751 10750 ] final -140.80 input  -60.55 | X-H torsion
[ 11005 11000 10999 10996 ] final  166.44 input  -57.11 | X-H torsion

> <Gold.Protein.ActiveResidues>
 VAL166  LYS551  ARG553  GLY616  TRP617  ASP618  TYR619  PRO620  LYS621  CYS622 
 ASP623  PHE694  ASN695  SER759  ASP760  ASP761  ALA762  ILE779  LEU786  VAL792 
 PHE793  MET794  SER795  GLU796  ALA797  LYS798  CYS799  TRP800  GLU811  SER814 

> <Gold.Protein.RotatedAtoms>
  152.2315  134.8317  160.0472 H   0  0  0  0  0  0  0  0  0  0  0  0  # atno 6907 bound_to 6896
  151.9064  133.3545  159.3856 H   0  0  0  0  0  0  0  0  0  0  0  0  # atno 6908 bound_to 6896
  150.7027  134.4702  159.5466 H   0  0  0  0  0  0  0  0  0  0  0  0  # atno 6909 bound_to 6896
  145.9511  139.3973  143.0305 H   0  0  0  0  0  0  0  0  0  0  0  0  # atno 7974 bound_to 7965
  156.2973  140.2565  156.2969 H   0  0  0  0  0  0  0  0  0  0  0  0  # atno 8008 bound_to 7997
  154.9455  140.0395  157.2137 H   0  0  0  0  0  0  0  0  0  0  0  0  # atno 8009 bound_to 7997
  154.8085  140.2840  155.5874 H   0  0  0  0  0  0  0  0  0  0  0  0  # atno 8010 bound_to 7997
  139.8718  144.6489  150.8941 H   0  0  0  0  0  0  0  0  0  0  0  0  # atno 10167 bound_to 10162
  157.3175  130.7431  149.6764 H   0  0  0  0  0  0  0  0  0  0  0  0  # atno 10718 bound_to 10713
  154.8566  135.3542  154.5766 H   0  0  0  0  0  0  0  0  0  0  0  0  # atno 10763 bound_to 10752
  153.6378  135.6999  153.5257 H   0  0  0  0  0  0  0  0  0  0  0  0  # atno 10764 bound_to 10752
  153.2996  135.4210  155.1200 H   0  0  0  0  0  0  0  0  0  0  0  0  # atno 10765 bound_to 10752
  140.2664  134.7861  157.3636 H   0  0  0  0  0  0  0  0  0  0  0  0  # atno 11005 bound_to 11000
  145.8169  140.9698  143.0919 LP  0  0  0  0  0  0  0  0  0  0  0  0  # atno 17320 bound_to 7965
  144.6796  139.9992  143.7484 LP  0  0  0  0  0  0  0  0  0  0  0  0  # atno 17321 bound_to 7965
  140.7759  143.3658  151.1742 LP  0  0  0  0  0  0  0  0  0  0  0  0  # atno 17342 bound_to 10162
  139.7277  143.9122  152.3008 LP  0  0  0  0  0  0  0  0  0  0  0  0  # atno 17343 bound_to 10162
  155.9683  130.4233  150.4556 LP  0  0  0  0  0  0  0  0  0  0  0  0  # atno 17370 bound_to 10713
  157.2565  131.0558  151.2347 LP  0  0  0  0  0  0  0  0  0  0  0  0  # atno 17371 bound_to 10713
  140.1415  134.4966  155.8028 LP  0  0  0  0  0  0  0  0  0  0  0  0  # atno 17394 bound_to 11000
  141.2183  133.6827  156.7218 LP  0  0  0  0  0  0  0  0  0  0  0  0  # atno 17395 bound_to 11000

$$$$
