AV-unprocessed.smi:150|AV-procd|sdf|1243|dock9
  -GOLD-   2262018463D 1   1.00000     0.00000
 Structure written by MMmdl.
 55 57  0  0  0  0  0  0  0  0  1 V2000
  152.7573  142.5358  161.3695 C   0  0  0  0  0  0  0  0  0  0  0  0
  153.1154  141.4257  160.3693 C   0  0  0  0  0  0  0  0  0  0  0  0
  154.5686  140.9678  160.5817 C   0  0  0  0  0  0  0  0  0  0  0  0
  152.8430  141.8962  158.9231 C   0  0  0  0  0  0  0  0  0  0  0  0
  151.3673  141.8388  158.4372 C   0  0  1  0  0  0  0  0  0  0  0  0
  150.8934  143.1051  157.6818 C   0  0  0  0  0  0  0  0  0  0  0  0
  149.5766  142.9514  157.1972 O   0  0  0  0  0  0  0  0  0  0  0  0
  151.0922  140.6111  157.6741 N   0  0  0  0  0  0  0  0  0  0  0  0
  151.7349  140.4568  156.3724 C   0  0  0  0  0  0  0  0  0  0  0  0
  150.7787  139.4345  158.2806 C   0  0  0  0  0  0  0  0  0  0  0  0
  151.7170  138.7596  158.9956 N   0  0  0  0  0  0  0  0  0  0  0  0
  151.4181  137.5963  159.5805 C   0  0  0  0  0  0  0  0  0  0  0  0
  150.2610  136.9330  159.5742 N   0  0  0  0  0  0  0  0  0  0  0  0
  149.3148  137.5985  158.8527 C   0  0  0  0  0  0  0  0  0  0  0  0
  149.4869  138.8424  158.1810 C   0  0  0  0  0  0  0  0  0  0  0  0
  148.2971  139.2143  157.5657 N   0  0  0  0  0  0  0  0  0  0  0  0
  147.4721  138.2453  157.8531 C   0  0  0  0  0  0  0  0  0  0  0  0
  148.0026  137.2283  158.6140 N   0  0  0  0  0  0  0  0  0  0  0  0
  147.3115  136.0333  159.0746 C   0  0  0  0  0  0  0  0  0  0  0  0
  146.9027  136.0754  160.5684 C   0  0  0  0  0  0  0  0  0  0  0  0
  146.1426  137.2527  160.7772 O   0  0  0  0  0  0  0  0  0  0  0  0
  146.0202  134.8595  160.9156 C   0  0  0  0  0  0  0  0  0  0  0  0
  145.7306  134.7632  162.4240 C   0  0  0  0  0  0  0  0  0  0  0  0
  146.9519  134.7401  163.1524 O   0  0  0  0  0  0  0  0  0  0  0  0
  147.7095  135.9330  162.9922 C   0  0  0  0  0  0  0  0  0  0  0  0
  148.1196  136.1071  161.5190 C   0  0  0  0  0  0  0  0  0  0  0  0
  153.3749  143.4217  161.2175 H   0  0  0  0  0  0  0  0  0  0  0  0
  152.9025  142.2019  162.3974 H   0  0  0  0  0  0  0  0  0  0  0  0
  151.7139  142.8359  161.2685 H   0  0  0  0  0  0  0  0  0  0  0  0
  152.4592  140.5857  160.5937 H   0  0  0  0  0  0  0  0  0  0  0  0
  155.2747  141.7588  160.3276 H   0  0  0  0  0  0  0  0  0  0  0  0
  154.8106  140.0952  159.9759 H   0  0  0  0  0  0  0  0  0  0  0  0
  154.7423  140.6901  161.6216 H   0  0  0  0  0  0  0  0  0  0  0  0
  153.2212  142.9131  158.8238 H   0  0  0  0  0  0  0  0  0  0  0  0
  153.4526  141.2903  158.2512 H   0  0  0  0  0  0  0  0  0  0  0  0
  150.7399  141.7376  159.3226 H   0  0  0  0  0  0  0  0  0  0  0  0
  150.9406  143.9901  158.3166 H   0  0  0  0  0  0  0  0  0  0  0  0
  151.5286  143.3009  156.8175 H   0  0  0  0  0  0  0  0  0  0  0  0
  149.3797  143.6798  156.6282 H   0  0  0  0  0  0  0  0  0  0  0  0
  150.9845  140.4349  155.5822 H   0  0  0  0  0  0  0  0  0  0  0  0
  152.3176  139.5358  156.3200 H   0  0  0  0  0  0  0  0  0  0  0  0
  152.4112  141.2865  156.1646 H   0  0  0  0  0  0  0  0  0  0  0  0
  152.2217  137.1299  160.1311 H   0  0  0  0  0  0  0  0  0  0  0  0
  146.4475  138.2429  157.5106 H   0  0  0  0  0  0  0  0  0  0  0  0
  146.4336  135.8805  158.4451 H   0  0  0  0  0  0  0  0  0  0  0  0
  147.9654  135.1793  158.8922 H   0  0  0  0  0  0  0  0  0  0  0  0
  145.2495  137.0058  160.9623 H   0  0  0  0  0  0  0  0  0  0  0  0
  145.0840  134.8936  160.3566 H   0  0  0  0  0  0  0  0  0  0  0  0
  146.5276  133.9454  160.6045 H   0  0  0  0  0  0  0  0  0  0  0  0
  145.1077  135.5934  162.7602 H   0  0  0  0  0  0  0  0  0  0  0  0
  145.1777  133.8486  162.6389 H   0  0  0  0  0  0  0  0  0  0  0  0
  147.1362  136.7915  163.3450 H   0  0  0  0  0  0  0  0  0  0  0  0
  148.5985  135.8700  163.6198 H   0  0  0  0  0  0  0  0  0  0  0  0
  148.8044  135.3011  161.2523 H   0  0  0  0  0  0  0  0  0  0  0  0
  148.6792  137.0362  161.4052 H   0  0  0  0  0  0  0  0  0  0  0  0
  1  2  1  0  0  0  0
  1 27  1  0  0  0  0
  1 28  1  0  0  0  0
  1 29  1  0  0  0  0
  2  3  1  0  0  0  0
  2  4  1  0  0  0  0
  2 30  1  0  0  0  0
  3 31  1  0  0  0  0
  3 32  1  0  0  0  0
  3 33  1  0  0  0  0
  4  5  1  0  0  0  0
  4 34  1  0  0  0  0
  4 35  1  0  0  0  0
  5  6  1  0  0  0  0
  5  8  1  0  0  0  0
  5 36  1  0  0  0  0
  6  7  1  0  0  0  0
  6 37  1  0  0  0  0
  6 38  1  0  0  0  0
  7 39  1  0  0  0  0
  8  9  1  0  0  0  0
  8 10  1  0  0  0  0
  9 40  1  0  0  0  0
  9 41  1  0  0  0  0
  9 42  1  0  0  0  0
 10 15  1  0  0  0  0
 10 11  2  0  0  0  0
 11 12  1  0  0  0  0
 12 13  2  0  0  0  0
 12 43  1  0  0  0  0
 13 14  1  0  0  0  0
 14 18  1  0  0  0  0
 14 15  2  0  0  0  0
 15 16  1  0  0  0  0
 16 17  2  0  0  0  0
 17 18  1  0  0  0  0
 17 44  1  0  0  0  0
 18 19  1  0  0  0  0
 19 20  1  0  0  0  0
 19 45  1  0  0  0  0
 19 46  1  0  0  0  0
 20 26  1  0  0  0  0
 20 21  1  0  0  0  0
 20 22  1  0  0  0  0
 21 47  1  0  0  0  0
 22 23  1  0  0  0  0
 22 48  1  0  0  0  0
 22 49  1  0  0  0  0
 23 24  1  0  0  0  0
 23 50  1  0  0  0  0
 23 51  1  0  0  0  0
 24 25  1  0  0  0  0
 25 26  1  0  0  0  0
 25 52  1  0  0  0  0
 25 53  1  0  0  0  0
 26 54  1  0  0  0  0
 26 55  1  0  0  0  0
M  END
> <s_m_source_file>
AV-unprocessed.smi

> <i_m_source_file_index>
150

> <i_lp_mmshare_version>
43012

> <i_f3d_flags>
0

> <s_epik_input>
W0NIM11bQ0hdKFtDSDNdKVtDSDJdW0NASF0oW0NIMl1bT0hdKU4oW0NIM10pYyhuW2NIXW4xKWMoYzEyKW5bY0hdbjJbQ0gyXUMzKFtPSF0pW0NIMl1bQ0gyXU9bQ0gyXVtDSDJdMw==

> <s_epik_cmdline>
J2VwaWtfcHl0aG9uJywgJy1waCcsICc3LjAnLCAnLXRuJywgJzgnLCAnLW1hJywgJzIwMCcsICctbWV0YWxfYmluZGluZycsICctaW1hZScsICc8aW5maWxlLm1hZT4nLCAnLW9tYWUnLCAnPG91dGZpbGUubWFlPic=

> <r_lp_tautomer_probability>
1

> <r_epik_Ionization_Penalty>
0.00548416

> <r_epik_Ionization_Penalty_Charging>
0

> <r_epik_Ionization_Penalty_Neutral>
0.00548416

> <r_epik_State_Penalty>
0.0038135

> <r_epik_Charging_Adjusted_Penalty>
0.0038135

> <i_epik_Tot_Q>
0

> <i_epik_Tot_abs_Q>
0

> <r_epik_Metal_State_Penalty>
-0

> <b_epik_Metal_Only>
0

> <s_lp_Force_Field>
OPLS_2005

> <r_lp_Energy>
26.5114

> <b_lp_Chiralities_Consistent>
1

> <s_lp_Variant>
AV-unprocessed.smi:150-2

> <Gold.Version>
5.8.1

> <Gold.Id.Protein>
6NUR|6NUR_protein|mol2

> <Gold.PLP.Fitness>
49.5657

> <Gold.PLP.PLP>
-45.1874

> <Gold.PLP.part.hbond>
-3.5007

> <Gold.PLP.part.metal>
0.0000

> <Gold.PLP.part.buried>
-7.4906

> <Gold.PLP.part.nonpolar>
-35.0095

> <Gold.PLP.part.repulsive>
0.0000

> <Gold.PLP.ligand.clash>
0.0000

> <Gold.PLP.ligand.torsion>
2.8472

> <Gold.PLP.Chemscore.Hbond>
3.0000

> <Gold.PLP.Chemscore.CHOScore>
0.0000

> <Gold.PLP.Chemscore.Metal>
0.0000

> <Gold.Chemscore.Hbonds>
donor molecule, donor type, donor heavy atom, donor atom, acceptor molecule, acceptor atom, score
      L1  H     7    39       P1  8028  0.93
      P1  H  6896  6908       L1    13  0.79
      P1  H  6934  6947       L1    21  0.96

> <Gold.PLP.Chemscore.Internal.Correction>
1.0728

> <Gold.Rescore>
     Score         DG    S(hbond)    S(metal)    S(lipo)     H(rot)  DE(clash)    DE(int)     intcor
     13.99     -17.56       2.43        0.00     108.28       3.40       0.26       3.30       ----

> <Gold.Chemscore.Fitness>
13.9944

> <Gold.Chemscore.DG>
-17.5591

> <Gold.Chemscore.ZeroCoef>
-5.4800

> <Gold.Chemscore.Hbond>
2.4292

> <Gold.Chemscore.Metal>
0.0000

> <Gold.Chemscore.Lipo>
108.2757

> <Gold.Chemscore.Internal_Hbond>
0.0000

> <Gold.Chemscore.DEClash>
0.2640

> <Gold.Chemscore.DEInternal>
3.3007

> <Gold.Chemscore.Rot>
3.3995

> <Gold.Chemscore.Internal.Correction>
   9.000000E+99

> <Gold.Chemscore.Hbonds>
donor molecule, donor type, donor heavy atom, donor atom, acceptor molecule, acceptor atom, score
      L1  H     7    39       P1  8028  0.87
      P1  H  6896  6908       L1    13  0.13
      P1  H  6934  6947       L1    21  0.87

> <Gold.Chemscore.Hbond.Weighted>
-8.1137

> <Gold.Chemscore.Metal.Weighted>
-0.0000

> <Gold.Chemscore.Lipo.Weighted>
-12.6683

> <Gold.Chemscore.Internal_Hbond.Weighted>
0.0000

> <Gold.Chemscore.DEClash.Weighted>
0.2640

> <Gold.Chemscore.DEInternal.Weighted>
3.3007

> <Gold.Chemscore.Rot.Weighted>
8.7028

> <Gold.Chemscore.Internal.Correction.Weighted>
   9.000000E+99

> <Gold.Protein.RotatedTorsions>
[ 6907 6896 6895 6894 ] final -152.88 input  -60.11 | X-H torsion
[ 7974 7965 7964 7962 ] final   41.57 input  175.53 | X-H torsion
[ 8008 7997 7996 7995 ] final   10.69 input   59.86 | X-H torsion
[ 10167 10162 10161 10158 ] final  -12.24 input  -65.29 | X-H torsion
[ 10718 10713 10712 10709 ] final -135.23 input   66.30 | X-H torsion
[ 10763 10752 10751 10750 ] final  124.22 input  -60.55 | X-H torsion
[ 11005 11000 10999 10996 ] final   46.67 input  -57.11 | X-H torsion

> <Gold.Protein.ActiveResidues>
 VAL166  LYS551  ARG553  GLY616  TRP617  ASP618  TYR619  PRO620  LYS621  CYS622 
 ASP623  PHE694  ASN695  SER759  ASP760  ASP761  ALA762  ILE779  LEU786  VAL792 
 PHE793  MET794  SER795  GLU796  ALA797  LYS798  CYS799  TRP800  GLU811  SER814 

> <Gold.Protein.RotatedAtoms>
  151.2343  133.4433  159.2604 H   0  0  0  0  0  0  0  0  0  0  0  0  # atno 6907 bound_to 6896
  151.0765  134.9831  159.8345 H   0  0  0  0  0  0  0  0  0  0  0  0  # atno 6908 bound_to 6896
  152.5419  134.2286  159.8868 H   0  0  0  0  0  0  0  0  0  0  0  0  # atno 6909 bound_to 6896
  146.0813  139.5401  142.9535 H   0  0  0  0  0  0  0  0  0  0  0  0  # atno 7974 bound_to 7965
  154.7968  140.2845  155.5950 H   0  0  0  0  0  0  0  0  0  0  0  0  # atno 8008 bound_to 7997
  156.2972  140.2594  156.2757 H   0  0  0  0  0  0  0  0  0  0  0  0  # atno 8009 bound_to 7997
  154.9605  140.0377  157.2177 H   0  0  0  0  0  0  0  0  0  0  0  0  # atno 8010 bound_to 7997
  140.7157  143.5554  150.9255 H   0  0  0  0  0  0  0  0  0  0  0  0  # atno 10167 bound_to 10162
  156.2639  130.7226  151.1170 H   0  0  0  0  0  0  0  0  0  0  0  0  # atno 10718 bound_to 10713
  153.6580  135.3351  155.3119 H   0  0  0  0  0  0  0  0  0  0  0  0  # atno 10763 bound_to 10752
  154.8522  135.4357  154.1834 H   0  0  0  0  0  0  0  0  0  0  0  0  # atno 10764 bound_to 10752
  153.2794  135.7007  153.7476 H   0  0  0  0  0  0  0  0  0  0  0  0  # atno 10765 bound_to 10752
  140.1348  134.4659  155.8494 H   0  0  0  0  0  0  0  0  0  0  0  0  # atno 11005 bound_to 11000
  145.6213  141.0322  143.1913 LP  0  0  0  0  0  0  0  0  0  0  0  0  # atno 17320 bound_to 7965
  144.7295  139.7770  143.7352 LP  0  0  0  0  0  0  0  0  0  0  0  0  # atno 17321 bound_to 7965
  139.9278  143.6529  152.3083 LP  0  0  0  0  0  0  0  0  0  0  0  0  # atno 17342 bound_to 10162
  139.6969  144.7640  151.1341 LP  0  0  0  0  0  0  0  0  0  0  0  0  # atno 17343 bound_to 10162
  157.7260  131.0649  150.5927 LP  0  0  0  0  0  0  0  0  0  0  0  0  # atno 17370 bound_to 10713
  156.6017  130.4356  149.5894 LP  0  0  0  0  0  0  0  0  0  0  0  0  # atno 17371 bound_to 10713
  141.2176  133.6810  156.7136 LP  0  0  0  0  0  0  0  0  0  0  0  0  # atno 17394 bound_to 11000
  140.2797  134.8327  157.3922 LP  0  0  0  0  0  0  0  0  0  0  0  0  # atno 17395 bound_to 11000

$$$$
