AV-unprocessed.smi:9|AV-procd|sdf|52|dock4
  -GOLD-   2262015173D 1   1.00000     0.00000
 Structure written by MMmdl.
 35 37  0  0  0  0  0  0  0  0  1 V2000
  153.6386  135.9867  159.9889 O   0  0  0  0  0  0  0  0  0  0  0  0
  153.8005  137.0227  160.6300 C   0  0  0  0  0  0  0  0  0  0  0  0
  154.1429  137.0492  161.9412 N   0  0  0  0  0  0  0  0  0  0  0  0
  154.3303  138.2483  162.6756 C   0  0  0  0  0  0  0  0  0  0  0  0
  154.7090  137.9547  164.1187 C   0  0  0  0  0  0  0  0  0  0  0  0
  155.7819  137.1649  164.1843 F   0  0  0  0  0  0  0  0  0  0  0  0
  154.9871  139.0863  164.7665 F   0  0  0  0  0  0  0  0  0  0  0  0
  153.7062  137.3430  164.7496 F   0  0  0  0  0  0  0  0  0  0  0  0
  154.2026  139.4636  162.2081 N   0  0  0  0  0  0  0  0  0  0  0  0
  153.8487  139.4583  160.8736 C   0  0  0  0  0  0  0  0  0  0  0  0
  153.6417  138.3804  160.0528 C   0  0  0  0  0  0  0  0  0  0  0  0
  153.3063  138.7825  158.7658 N   0  0  0  0  0  0  0  0  0  0  0  0
  153.3239  140.1097  158.8701 C   0  0  0  0  0  0  0  0  0  0  0  0
  153.6266  140.5880  160.0928 N   0  0  0  0  0  0  0  0  0  0  0  0
  153.7152  141.9863  160.4910 C   0  0  0  0  0  0  0  0  0  0  0  0
  152.4789  142.8398  160.1069 C   0  0  2  0  0  0  0  0  0  0  0  0
  151.3508  141.9847  160.1290 O   0  0  0  0  0  0  0  0  0  0  0  0
  152.6173  143.4639  158.7004 C   0  0  0  0  0  0  0  0  0  0  0  0
  151.5302  144.5097  158.4329 C   0  0  0  0  0  0  0  0  0  0  0  0
  151.4862  145.5304  159.5753 C   0  0  0  0  0  0  0  0  0  0  0  0
  151.2244  144.8513  160.7954 O   0  0  0  0  0  0  0  0  0  0  0  0
  152.2463  143.9334  161.1768 C   0  0  0  0  0  0  0  0  0  0  0  0
  154.2710  136.1665  162.4143 H   0  0  0  0  0  0  0  0  0  0  0  0
  153.1033  140.7554  158.0326 H   0  0  0  0  0  0  0  0  0  0  0  0
  153.8863  142.0277  161.5677 H   0  0  0  0  0  0  0  0  0  0  0  0
  154.6104  142.4060  160.0301 H   0  0  0  0  0  0  0  0  0  0  0  0
  151.5608  141.2027  159.6416 H   0  0  0  0  0  0  0  0  0  0  0  0
  153.5912  143.9484  158.6183 H   0  0  0  0  0  0  0  0  0  0  0  0
  152.5895  142.6969  157.9256 H   0  0  0  0  0  0  0  0  0  0  0  0
  151.7203  145.0130  157.4846 H   0  0  0  0  0  0  0  0  0  0  0  0
  150.5590  144.0228  158.3388 H   0  0  0  0  0  0  0  0  0  0  0  0
  152.4214  146.0884  159.6435 H   0  0  0  0  0  0  0  0  0  0  0  0
  150.6923  146.2563  159.3989 H   0  0  0  0  0  0  0  0  0  0  0  0
  151.9805  143.4859  162.1355 H   0  0  0  0  0  0  0  0  0  0  0  0
  153.1658  144.4963  161.3453 H   0  0  0  0  0  0  0  0  0  0  0  0
  1  2  2  0  0  0  0
  2 11  1  0  0  0  0
  2  3  1  0  0  0  0
  3 23  1  0  0  0  0
  3  4  1  0  0  0  0
  4  5  1  0  0  0  0
  4  9  2  0  0  0  0
  5  6  1  0  0  0  0
  5  7  1  0  0  0  0
  5  8  1  0  0  0  0
  9 10  1  0  0  0  0
 10 14  1  0  0  0  0
 10 11  2  0  0  0  0
 11 12  1  0  0  0  0
 12 13  2  0  0  0  0
 13 14  1  0  0  0  0
 13 24  1  0  0  0  0
 14 15  1  0  0  0  0
 15 16  1  0  0  0  0
 15 25  1  0  0  0  0
 15 26  1  0  0  0  0
 16 22  1  0  0  0  0
 16 17  1  0  0  0  0
 16 18  1  0  0  0  0
 17 27  1  0  0  0  0
 18 19  1  0  0  0  0
 18 28  1  0  0  0  0
 18 29  1  0  0  0  0
 19 20  1  0  0  0  0
 19 30  1  0  0  0  0
 19 31  1  0  0  0  0
 20 21  1  0  0  0  0
 20 32  1  0  0  0  0
 20 33  1  0  0  0  0
 21 22  1  0  0  0  0
 22 34  1  0  0  0  0
 22 35  1  0  0  0  0
M  END
> <s_m_source_file>
AV-unprocessed.smi

> <i_m_source_file_index>
9

> <i_lp_mmshare_version>
43012

> <i_f3d_flags>
0

> <s_epik_input>
RkMoRikoRiljKG4xKVtuSF1jKD1PKWMoYzEyKW5bY0hdbjJbQ0gyXVtDQEBdMyhbT0hdKVtDSDJdW0NIMl1bQ0gyXU9bQ0gyXTM=

> <s_epik_cmdline>
J2VwaWtfcHl0aG9uJywgJy1waCcsICc3LjAnLCAnLXRuJywgJzgnLCAnLW1hJywgJzIwMCcsICctbWV0YWxfYmluZGluZycsICctaW1hZScsICc8aW5maWxlLm1hZT4nLCAnLW9tYWUnLCAnPG91dGZpbGUubWFlPic=

> <r_lp_tautomer_probability>
0.85571

> <r_epik_Ionization_Penalty>
0.770127

> <r_epik_Ionization_Penalty_Charging>
0.770101

> <r_epik_Ionization_Penalty_Neutral>
2.64604e-05

> <r_epik_State_Penalty>
2.30539

> <r_epik_Charging_Adjusted_Penalty>
3.07549

> <i_epik_Tot_Q>
0

> <i_epik_Tot_abs_Q>
0

> <r_epik_Metal_State_Penalty>
2.4903

> <b_epik_Metal_Only>
0

> <s_lp_Force_Field>
OPLS_2005

> <r_lp_Energy>
27.1686

> <b_lp_Chiralities_Consistent>
1

> <s_lp_Variant>
AV-unprocessed.smi:9-4

> <Gold.Version>
5.8.1

> <Gold.Id.Protein>
6NUR|6NUR_protein|mol2

> <Gold.PLP.Fitness>
47.0688

> <Gold.PLP.PLP>
-45.5777

> <Gold.PLP.part.hbond>
-2.1105

> <Gold.PLP.part.metal>
0.0000

> <Gold.PLP.part.buried>
-4.2643

> <Gold.PLP.part.nonpolar>
-39.1665

> <Gold.PLP.part.repulsive>
0.2538

> <Gold.PLP.ligand.clash>
0.0354

> <Gold.PLP.ligand.torsion>
0.7394

> <Gold.PLP.Chemscore.Hbond>
1.0000

> <Gold.PLP.Chemscore.CHOScore>
0.0000

> <Gold.PLP.Chemscore.Metal>
0.0000

> <Gold.Chemscore.Hbonds>
donor molecule, donor type, donor heavy atom, donor atom, acceptor molecule, acceptor atom, score
      P1  H  6896  6908       L1     1  1.00

> <Gold.PLP.Chemscore.Internal.Correction>
0.0054

> <Gold.Rescore>
     Score         DG    S(hbond)    S(metal)    S(lipo)     H(rot)  DE(clash)    DE(int)     intcor
     12.51     -13.04       1.09        0.00      80.22       2.14       0.30       0.23       ----

> <Gold.Chemscore.Fitness>
12.5085

> <Gold.Chemscore.DG>
-13.0376

> <Gold.Chemscore.ZeroCoef>
-5.4800

> <Gold.Chemscore.Hbond>
1.0908

> <Gold.Chemscore.Metal>
0.0000

> <Gold.Chemscore.Lipo>
80.2194

> <Gold.Chemscore.Internal_Hbond>
0.0000

> <Gold.Chemscore.DEClash>
0.2957

> <Gold.Chemscore.DEInternal>
0.2334

> <Gold.Chemscore.Rot>
2.1373

> <Gold.Chemscore.Internal.Correction>
   9.000000E+99

> <Gold.Chemscore.Hbonds>
donor molecule, donor type, donor heavy atom, donor atom, acceptor molecule, acceptor atom, score
      P1  H  6896  6908       L1     1  1.00

> <Gold.Chemscore.Hbond.Weighted>
-3.6433

> <Gold.Chemscore.Metal.Weighted>
-0.0000

> <Gold.Chemscore.Lipo.Weighted>
-9.3857

> <Gold.Chemscore.Internal_Hbond.Weighted>
0.0000

> <Gold.Chemscore.DEClash.Weighted>
0.2957

> <Gold.Chemscore.DEInternal.Weighted>
0.2334

> <Gold.Chemscore.Rot.Weighted>
5.4714

> <Gold.Chemscore.Internal.Correction.Weighted>
   9.000000E+99

> <Gold.Protein.RotatedTorsions>
[ 6907 6896 6895 6894 ] final  -59.19 input  -60.11 | X-H torsion
[ 7974 7965 7964 7962 ] final  -78.62 input  175.53 | X-H torsion
[ 8008 7997 7996 7995 ] final  -55.58 input   59.86 | X-H torsion
[ 10167 10162 10161 10158 ] final  101.98 input  -65.29 | X-H torsion
[ 10718 10713 10712 10709 ] final  124.56 input   66.30 | X-H torsion
[ 10763 10752 10751 10750 ] final -104.13 input  -60.55 | X-H torsion
[ 11005 11000 10999 10996 ] final -157.13 input  -57.11 | X-H torsion

> <Gold.Protein.ActiveResidues>
 VAL166  LYS551  ARG553  GLY616  TRP617  ASP618  TYR619  PRO620  LYS621  CYS622 
 ASP623  PHE694  ASN695  SER759  ASP760  ASP761  ALA762  ILE779  LEU786  VAL792 
 PHE793  MET794  SER795  GLU796  ALA797  LYS798  CYS799  TRP800  GLU811  SER814 

> <Gold.Protein.RotatedAtoms>
  150.7949  134.7000  159.6544 H   0  0  0  0  0  0  0  0  0  0  0  0  # atno 6907 bound_to 6896
  152.4060  134.6203  160.0059 H   0  0  0  0  0  0  0  0  0  0  0  0  # atno 6908 bound_to 6896
  151.6461  133.3286  159.3177 H   0  0  0  0  0  0  0  0  0  0  0  0  # atno 6909 bound_to 6896
  145.5840  140.9443  143.1328 H   0  0  0  0  0  0  0  0  0  0  0  0  # atno 7974 bound_to 7965
  154.4200  140.1149  156.5499 H   0  0  0  0  0  0  0  0  0  0  0  0  # atno 8008 bound_to 7997
  155.6420  140.3496  155.4699 H   0  0  0  0  0  0  0  0  0  0  0  0  # atno 8009 bound_to 7997
  155.9863  140.1170  157.0670 H   0  0  0  0  0  0  0  0  0  0  0  0  # atno 8010 bound_to 7997
  139.7390  144.7016  151.0605 H   0  0  0  0  0  0  0  0  0  0  0  0  # atno 10167 bound_to 10162
  157.5575  131.1091  150.8596 H   0  0  0  0  0  0  0  0  0  0  0  0  # atno 10718 bound_to 10713
  154.7856  135.4797  153.9939 H   0  0  0  0  0  0  0  0  0  0  0  0  # atno 10763 bound_to 10752
  153.1556  135.6799  153.8824 H   0  0  0  0  0  0  0  0  0  0  0  0  # atno 10764 bound_to 10752
  153.8455  135.3174  155.3407 H   0  0  0  0  0  0  0  0  0  0  0  0  # atno 10765 bound_to 10752
  140.6680  134.4278  157.5232 H   0  0  0  0  0  0  0  0  0  0  0  0  # atno 11005 bound_to 11000
  144.7381  139.7527  143.7321 LP  0  0  0  0  0  0  0  0  0  0  0  0  # atno 17320 bound_to 7965
  146.1695  139.4840  142.9936 LP  0  0  0  0  0  0  0  0  0  0  0  0  # atno 17321 bound_to 7965
  140.7783  143.4948  150.9847 LP  0  0  0  0  0  0  0  0  0  0  0  0  # atno 17342 bound_to 10162
  139.8636  143.7282  152.3171 LP  0  0  0  0  0  0  0  0  0  0  0  0  # atno 17343 bound_to 10162
  156.9103  130.5278  149.5280 LP  0  0  0  0  0  0  0  0  0  0  0  0  # atno 17370 bound_to 10713
  156.0632  130.5680  150.9235 LP  0  0  0  0  0  0  0  0  0  0  0  0  # atno 17371 bound_to 10713
  139.8991  134.8599  156.1974 LP  0  0  0  0  0  0  0  0  0  0  0  0  # atno 17394 bound_to 11000
  141.0414  133.6935  156.1605 LP  0  0  0  0  0  0  0  0  0  0  0  0  # atno 17395 bound_to 11000

$$$$
