AV-unprocessed.smi:1491|AV-procd|sdf|6033|dock1
  -GOLD-   22720 6133D 1   1.00000     0.00000
 Structure written by MMmdl.
 39 40  0  0  0  0  0  0  0  0  2 V2000
  144.5517  136.4694  153.0170 O   0  0  0  0  0  0  0  0  0  0  0  0
  145.7434  136.3885  152.7174 C   0  0  0  0  0  0  0  0  0  0  0  0
  146.6387  137.3633  152.9311 N   0  0  0  0  0  0  0  0  0  0  0  0
  146.3459  138.6554  153.5452 C   0  0  0  0  0  0  0  0  0  0  0  0
  147.1100  139.8111  152.8709 C   0  0  0  0  0  0  0  0  0  0  0  0
  147.9216  140.5854  153.8158 N   0  0  0  0  0  0  0  0  0  0  0  0
  149.0624  140.1771  154.4579 C   0  0  0  0  0  0  0  0  0  0  0  0
  149.4790  141.2347  155.2247 C   0  0  0  0  0  0  0  0  0  0  0  0
  148.5721  142.2405  155.0236 N   0  3  0  0  0  0  0  0  0  0  0  0
  147.6232  141.8425  154.1699 C   0  0  0  0  0  0  0  0  0  0  0  0
  146.3050  135.3093  152.1558 N   0  0  0  0  0  0  0  0  0  0  0  0
  145.6041  134.0694  151.8364 C   0  0  2  0  0  0  0  0  0  0  0  0
  146.6018  133.0424  151.2713 C   0  0  0  0  0  0  0  0  0  0  0  0
  145.8996  131.7299  150.8812 C   0  0  0  0  0  0  0  0  0  0  0  0
  144.7292  131.9617  149.9068 C   0  0  2  0  0  0  0  0  0  0  0  0
  145.2243  132.3497  148.6404 O   0  0  0  0  0  0  0  0  0  0  0  0
  143.7500  133.0252  150.4392 C   0  0  0  0  0  0  0  0  0  0  0  0
  144.4628  134.3306  150.8334 C   0  0  0  0  0  0  0  0  0  0  0  0
  147.5937  137.2017  152.6456 H   0  0  0  0  0  0  0  0  0  0  0  0
  145.2747  138.8282  153.4408 H   0  0  0  0  0  0  0  0  0  0  0  0
  146.5444  138.6321  154.6182 H   0  0  0  0  0  0  0  0  0  0  0  0
  147.7540  139.4395  152.0722 H   0  0  0  0  0  0  0  0  0  0  0  0
  146.4045  140.5041  152.4113 H   0  0  0  0  0  0  0  0  0  0  0  0
  149.4866  139.1934  154.3179 H   0  0  0  0  0  0  0  0  0  0  0  0
  150.3311  141.3443  155.8798 H   0  0  0  0  0  0  0  0  0  0  0  0
  146.7884  142.4266  153.8255 H   0  0  0  0  0  0  0  0  0  0  0  0
  147.2912  135.3409  151.9415 H   0  0  0  0  0  0  0  0  0  0  0  0
  145.1791  133.6564  152.7536 H   0  0  0  0  0  0  0  0  0  0  0  0
  147.1076  133.4577  150.3983 H   0  0  0  0  0  0  0  0  0  0  0  0
  147.3801  132.8344  152.0065 H   0  0  0  0  0  0  0  0  0  0  0  0
  146.6193  131.0335  150.4491 H   0  0  0  0  0  0  0  0  0  0  0  0
  145.5197  131.2512  151.7847 H   0  0  0  0  0  0  0  0  0  0  0  0
  144.1933  131.0227  149.7643 H   0  0  0  0  0  0  0  0  0  0  0  0
  145.2940  133.2919  148.6212 H   0  0  0  0  0  0  0  0  0  0  0  0
  142.9741  133.2299  149.7006 H   0  0  0  0  0  0  0  0  0  0  0  0
  143.2365  132.6267  151.3153 H   0  0  0  0  0  0  0  0  0  0  0  0
  143.7371  135.0240  151.2603 H   0  0  0  0  0  0  0  0  0  0  0  0
  144.8591  134.8142  149.9393 H   0  0  0  0  0  0  0  0  0  0  0  0
  148.6127  143.1551  155.4558 H   0  0  0  0  0  0  0  0  0  0  0  0
  1  2  2  0  0  0  0
  2  3  1  0  0  0  0
  2 11  1  0  0  0  0
  3  4  1  0  0  0  0
  3 19  1  0  0  0  0
  4  5  1  0  0  0  0
  4 20  1  0  0  0  0
  4 21  1  0  0  0  0
  5  6  1  0  0  0  0
  5 22  1  0  0  0  0
  5 23  1  0  0  0  0
  6 10  1  0  0  0  0
  6  7  1  0  0  0  0
  7  8  2  0  0  0  0
  7 24  1  0  0  0  0
  8  9  1  0  0  0  0
  8 25  1  0  0  0  0
  9 10  2  0  0  0  0
  9 39  1  0  0  0  0
 10 26  1  0  0  0  0
 11 12  1  0  0  0  0
 11 27  1  0  0  0  0
 12 18  1  0  0  0  0
 12 13  1  0  0  0  0
 12 28  1  0  0  0  0
 13 14  1  0  0  0  0
 13 29  1  0  0  0  0
 13 30  1  0  0  0  0
 14 15  1  0  0  0  0
 14 31  1  0  0  0  0
 14 32  1  0  0  0  0
 15 16  1  0  0  0  0
 15 17  1  0  0  0  0
 15 33  1  0  0  0  0
 16 34  1  0  0  0  0
 17 18  1  0  0  0  0
 17 35  1  0  0  0  0
 17 36  1  0  0  0  0
 18 37  1  0  0  0  0
 18 38  1  0  0  0  0
M  CHG  1   9   1
M  END
> <s_m_source_file>
AV-unprocessed.smi

> <i_m_source_file_index>
1491

> <i_lp_mmshare_version>
43012

> <i_f3d_flags>
0

> <s_epik_input>
W0NIMl0xW0NIMl1bQ0BIXShbT0hdKVtDSDJdW0NIMl1bQ0BIXTFbTkhdQyg9TylbTkhdW0NIMl1bQ0gyXW4yW2NIXVtjSF1uW2NIXTI=

> <s_epik_cmdline>
J2VwaWtfcHl0aG9uJywgJy1waCcsICc3LjAnLCAnLXRuJywgJzgnLCAnLW1hJywgJzIwMCcsICctbWV0YWxfYmluZGluZycsICctaW1hZScsICc8aW5maWxlLm1hZT4nLCAnLW9tYWUnLCAnPG91dGZpbGUubWFlPic=

> <r_lp_tautomer_probability>
1

> <r_epik_Ionization_Penalty>
0.254652

> <r_epik_Ionization_Penalty_Charging>
0

> <r_epik_Ionization_Penalty_Neutral>
0.254652

> <r_epik_State_Penalty>
0.246077

> <r_epik_Charging_Adjusted_Penalty>
0.246077

> <i_epik_Tot_Q>
1

> <i_epik_Tot_abs_Q>
1

> <r_epik_Metal_State_Penalty>
0.536042

> <b_epik_Metal_Only>
0

> <s_lp_Force_Field>
OPLS_2005

> <r_lp_Energy>
9.89821

> <b_lp_Chiralities_Consistent>
1

> <s_lp_Variant>
AV-unprocessed.smi:1491-2

> <Gold.Version>
5.8.1

> <Gold.Id.Protein>
6NUR|6NUR_protein|mol2

> <Gold.PLP.Fitness>
48.9292

> <Gold.PLP.PLP>
-35.5023

> <Gold.PLP.part.hbond>
-5.0000

> <Gold.PLP.part.metal>
0.0000

> <Gold.PLP.part.buried>
-1.8406

> <Gold.PLP.part.nonpolar>
-29.6653

> <Gold.PLP.part.repulsive>
0.3801

> <Gold.PLP.ligand.clash>
0.0000

> <Gold.PLP.ligand.torsion>
0.6152

> <Gold.PLP.Chemscore.Hbond>
4.8800

> <Gold.PLP.Chemscore.CHOScore>
0.0000

> <Gold.PLP.Chemscore.Metal>
0.0000

> <Gold.Chemscore.Hbonds>
donor molecule, donor type, donor heavy atom, donor atom, acceptor molecule, acceptor atom, score
      L1  H     3    19       P1  7948  1.00
      L1  H     9    39       P1  8028  2.00
      L1  H    11    27       P1  7948  1.00
      L1  H    16    34       P1  7921  0.83

> <Gold.PLP.Chemscore.Internal.Correction>
0.0172

> <Gold.Rescore>
     Score         DG    S(hbond)    S(metal)    S(lipo)     H(rot)  DE(clash)    DE(int)     intcor
     16.35     -18.07       3.21        0.00      73.95       2.65       0.31       1.41       ----

> <Gold.Chemscore.Fitness>
16.3513

> <Gold.Chemscore.DG>
-18.0720

> <Gold.Chemscore.ZeroCoef>
-5.4800

> <Gold.Chemscore.Hbond>
3.2136

> <Gold.Chemscore.Metal>
0.0000

> <Gold.Chemscore.Lipo>
73.9484

> <Gold.Chemscore.Internal_Hbond>
0.0000

> <Gold.Chemscore.DEClash>
0.3107

> <Gold.Chemscore.DEInternal>
1.4101

> <Gold.Chemscore.Rot>
2.6536

> <Gold.Chemscore.Internal.Correction>
   9.000000E+99

> <Gold.Chemscore.Hbonds>
donor molecule, donor type, donor heavy atom, donor atom, acceptor molecule, acceptor atom, score
      L1  H     3    19       P1  7948  0.98
      L1  H     9    39       P1  8028  0.97
      L1  H    11    27       P1  7948  0.97
      L1  H    16    34       P1  7921  0.24

> <Gold.Chemscore.Hbond.Weighted>
-10.7334

> <Gold.Chemscore.Metal.Weighted>
-0.0000

> <Gold.Chemscore.Lipo.Weighted>
-8.6520

> <Gold.Chemscore.Internal_Hbond.Weighted>
0.0000

> <Gold.Chemscore.DEClash.Weighted>
0.3107

> <Gold.Chemscore.DEInternal.Weighted>
1.4101

> <Gold.Chemscore.Rot.Weighted>
6.7933

> <Gold.Chemscore.Internal.Correction.Weighted>
   9.000000E+99

> <Gold.Protein.RotatedTorsions>
[ 6907 6896 6895 6894 ] final  -55.32 input  -60.11 | X-H torsion
[ 7974 7965 7964 7962 ] final -136.64 input  175.53 | X-H torsion
[ 8008 7997 7996 7995 ] final -110.80 input   59.86 | X-H torsion
[ 10167 10162 10161 10158 ] final   69.66 input  -65.29 | X-H torsion
[ 10718 10713 10712 10709 ] final -145.27 input   66.30 | X-H torsion
[ 10763 10752 10751 10750 ] final  132.40 input  -60.55 | X-H torsion
[ 11005 11000 10999 10996 ] final   61.02 input  -57.11 | X-H torsion

> <Gold.Protein.ActiveResidues>
 VAL166  LYS551  ARG553  GLY616  TRP617  ASP618  TYR619  PRO620  LYS621  CYS622 
 ASP623  PHE694  ASN695  SER759  ASP760  ASP761  ALA762  ILE779  LEU786  VAL792 
 PHE793  MET794  SER795  GLU796  ALA797  LYS798  CYS799  TRP800  GLU811  SER814 

> <Gold.Protein.RotatedAtoms>
  150.8261  134.7493  159.6813 H   0  0  0  0  0  0  0  0  0  0  0  0  # atno 6907 bound_to 6896
  152.4372  134.5660  159.9917 H   0  0  0  0  0  0  0  0  0  0  0  0  # atno 6908 bound_to 6896
  151.5832  133.3337  159.3048 H   0  0  0  0  0  0  0  0  0  0  0  0  # atno 6909 bound_to 6896
  144.8910  140.6641  143.5145 H   0  0  0  0  0  0  0  0  0  0  0  0  # atno 7974 bound_to 7965
  154.9801  140.0396  157.2274 H   0  0  0  0  0  0  0  0  0  0  0  0  # atno 8008 bound_to 7997
  154.7722  140.2804  155.6107 H   0  0  0  0  0  0  0  0  0  0  0  0  # atno 8009 bound_to 7997
  156.2923  140.2608  156.2527 H   0  0  0  0  0  0  0  0  0  0  0  0  # atno 8010 bound_to 7997
  140.0653  144.5198  150.7265 H   0  0  0  0  0  0  0  0  0  0  0  0  # atno 10167 bound_to 10162
  156.3804  130.7834  151.2025 H   0  0  0  0  0  0  0  0  0  0  0  0  # atno 10718 bound_to 10713
  153.7901  135.3156  155.3377 H   0  0  0  0  0  0  0  0  0  0  0  0  # atno 10763 bound_to 10752
  154.8129  135.4655  154.0567 H   0  0  0  0  0  0  0  0  0  0  0  0  # atno 10764 bound_to 10752
  153.1883  135.6904  153.8473 H   0  0  0  0  0  0  0  0  0  0  0  0  # atno 10765 bound_to 10752
  140.0191  134.6181  155.9666 H   0  0  0  0  0  0  0  0  0  0  0  0  # atno 11005 bound_to 11000
  145.3784  139.1642  143.4294 LP  0  0  0  0  0  0  0  0  0  0  0  0  # atno 17320 bound_to 7965
  146.3053  140.3862  142.8689 LP  0  0  0  0  0  0  0  0  0  0  0  0  # atno 17321 bound_to 7965
  140.7152  143.2538  151.4457 LP  0  0  0  0  0  0  0  0  0  0  0  0  # atno 17342 bound_to 10162
  139.5868  144.1586  152.2039 LP  0  0  0  0  0  0  0  0  0  0  0  0  # atno 17343 bound_to 10162
  157.7492  131.0346  150.4324 LP  0  0  0  0  0  0  0  0  0  0  0  0  # atno 17370 bound_to 10713
  156.4566  130.4023  149.6602 LP  0  0  0  0  0  0  0  0  0  0  0  0  # atno 17371 bound_to 10713
  141.1762  133.6540  156.4838 LP  0  0  0  0  0  0  0  0  0  0  0  0  # atno 17394 bound_to 11000
  140.4419  134.7007  157.4996 LP  0  0  0  0  0  0  0  0  0  0  0  0  # atno 17395 bound_to 11000

$$$$
