AV-unprocessed.smi:1908|AV-procd|sdf|7734|dock4
  -GOLD-   22720 9473D 1   1.00000     0.00000
 Structure written by MMmdl.
 27 27  0  0  0  0  0  0  0  0  2 V2000
  152.8027  144.6537  158.2692 C   0  0  0  0  0  0  0  0  0  0  0  0
  151.3188  144.8798  158.5867 C   0  0  0  0  0  0  0  0  0  0  0  0
  151.0512  144.8586  160.0995 C   0  0  0  0  0  0  0  0  0  0  0  0
  150.5175  143.8623  157.9135 N   0  0  0  0  0  0  0  0  0  0  0  0
  150.4489  142.5683  158.2627 C   0  0  0  0  0  0  0  0  0  0  0  0
  151.0890  142.0849  159.1975 O   0  0  0  0  0  0  0  0  0  0  0  0
  149.5408  141.6823  157.3997 C   0  0  0  0  0  0  0  0  0  0  0  0
  150.2990  140.7357  156.5660 N   0  0  0  0  0  0  0  0  0  0  0  0
  151.2022  139.8720  157.2106 C   0  0  0  0  0  0  0  0  0  0  0  0
  151.9321  138.9694  156.5280 C   0  0  0  0  0  0  0  0  0  0  0  0
  151.7673  138.9003  155.0814 C   0  0  0  0  0  0  0  0  0  0  0  0
  152.4284  138.0844  154.4416 O   0  0  0  0  0  0  0  0  0  0  0  0
  150.8758  139.7569  154.5024 N   0  5  0  0  0  0  0  0  0  0  0  0
  150.1389  140.6690  155.2097 C   0  0  0  0  0  0  0  0  0  0  0  0
  149.3379  141.4316  154.6675 O   0  0  0  0  0  0  0  0  0  0  0  0
  153.4236  145.4194  158.7352 H   0  0  0  0  0  0  0  0  0  0  0  0
  152.9840  144.6932  157.1945 H   0  0  0  0  0  0  0  0  0  0  0  0
  153.1443  143.6831  158.6301 H   0  0  0  0  0  0  0  0  0  0  0  0
  151.0453  145.8629  158.1998 H   0  0  0  0  0  0  0  0  0  0  0  0
  151.6391  145.6208  160.6112 H   0  0  0  0  0  0  0  0  0  0  0  0
  151.3087  143.8924  160.5344 H   0  0  0  0  0  0  0  0  0  0  0  0
  150.0009  145.0545  160.3182 H   0  0  0  0  0  0  0  0  0  0  0  0
  149.9569  144.1679  157.1314 H   0  0  0  0  0  0  0  0  0  0  0  0
  148.8326  141.1430  158.0320 H   0  0  0  0  0  0  0  0  0  0  0  0
  148.9280  142.3335  156.7754 H   0  0  0  0  0  0  0  0  0  0  0  0
  151.2584  139.9826  158.2834 H   0  0  0  0  0  0  0  0  0  0  0  0
  152.6192  138.3105  157.0380 H   0  0  0  0  0  0  0  0  0  0  0  0
  1  2  1  0  0  0  0
  1 16  1  0  0  0  0
  1 17  1  0  0  0  0
  1 18  1  0  0  0  0
  2  3  1  0  0  0  0
  2  4  1  0  0  0  0
  2 19  1  0  0  0  0
  3 20  1  0  0  0  0
  3 21  1  0  0  0  0
  3 22  1  0  0  0  0
  4  5  1  0  0  0  0
  4 23  1  0  0  0  0
  5  6  2  0  0  0  0
  5  7  1  0  0  0  0
  7  8  1  0  0  0  0
  7 24  1  0  0  0  0
  7 25  1  0  0  0  0
  8 14  1  0  0  0  0
  8  9  1  0  0  0  0
  9 10  2  0  0  0  0
  9 26  1  0  0  0  0
 10 11  1  0  0  0  0
 10 27  1  0  0  0  0
 11 12  2  0  0  0  0
 11 13  1  0  0  0  0
 13 14  1  0  0  0  0
 14 15  2  0  0  0  0
M  CHG  1  13  -1
M  END
> <s_m_source_file>
AV-unprocessed.smi

> <i_m_source_file_index>
1908

> <i_lp_mmshare_version>
43012

> <i_f3d_flags>
0

> <s_epik_input>
W0NIM11bQ0hdKFtDSDNdKVtOSF1DKD1PKVtDSDJdbjFbY0hdW2NIXWMoPU8pW25IXWMxPU8=

> <s_epik_cmdline>
J2VwaWtfcHl0aG9uJywgJy1waCcsICc3LjAnLCAnLXRuJywgJzgnLCAnLW1hJywgJzIwMCcsICctbWV0YWxfYmluZGluZycsICctaW1hZScsICc8aW5maWxlLm1hZT4nLCAnLW9tYWUnLCAnPG91dGZpbGUubWFlPic=

> <r_lp_tautomer_probability>
0.999537

> <r_epik_Ionization_Penalty>
3.07884

> <r_epik_Ionization_Penalty_Charging>
2.69291e-08

> <r_epik_Ionization_Penalty_Neutral>
3.07884

> <r_epik_State_Penalty>
3.07787

> <r_epik_Charging_Adjusted_Penalty>
3.07787

> <i_epik_Tot_Q>
-1

> <i_epik_Tot_abs_Q>
1

> <r_epik_Metal_State_Penalty>
0.459857

> <b_epik_Metal_Only>
1

> <s_lp_Force_Field>
OPLS_2005

> <r_lp_Energy>
10.6939

> <b_lp_Chiralities_Consistent>
1

> <s_lp_Variant>
AV-unprocessed.smi:1908-2

> <Gold.Version>
5.8.1

> <Gold.Id.Protein>
6NUR|6NUR_protein|mol2

> <Gold.PLP.Fitness>
37.3562

> <Gold.PLP.PLP>
-32.2395

> <Gold.PLP.part.hbond>
-3.5585

> <Gold.PLP.part.metal>
0.0000

> <Gold.PLP.part.buried>
-4.8714

> <Gold.PLP.part.nonpolar>
-23.5830

> <Gold.PLP.part.repulsive>
0.3713

> <Gold.PLP.ligand.clash>
0.0000

> <Gold.PLP.ligand.torsion>
0.2210

> <Gold.PLP.Chemscore.Hbond>
1.8500

> <Gold.PLP.Chemscore.CHOScore>
0.0000

> <Gold.PLP.Chemscore.Metal>
0.0000

> <Gold.Chemscore.Hbonds>
donor molecule, donor type, donor heavy atom, donor atom, acceptor molecule, acceptor atom, score
      L1  H     4    23       P1  8028  1.00
      P1  H  7989  7998       L1    13  0.85

> <Gold.PLP.Chemscore.Internal.Correction>
0.0087

> <Gold.Rescore>
     Score         DG    S(hbond)    S(metal)    S(lipo)     H(rot)  DE(clash)    DE(int)     intcor
     10.13     -13.05       1.71        0.00      53.58       1.72       0.53       2.39       ----

> <Gold.Chemscore.Fitness>
10.1272

> <Gold.Chemscore.DG>
-13.0505

> <Gold.Chemscore.ZeroCoef>
-5.4800

> <Gold.Chemscore.Hbond>
1.7107

> <Gold.Chemscore.Metal>
0.0000

> <Gold.Chemscore.Lipo>
53.5830

> <Gold.Chemscore.Internal_Hbond>
0.0000

> <Gold.Chemscore.DEClash>
0.5309

> <Gold.Chemscore.DEInternal>
2.3924

> <Gold.Chemscore.Rot>
1.7236

> <Gold.Chemscore.Internal.Correction>
   9.000000E+99

> <Gold.Chemscore.Hbonds>
donor molecule, donor type, donor heavy atom, donor atom, acceptor molecule, acceptor atom, score
      L1  H     4    23       P1  8028  0.74
      P1  H  7989  7998       L1    13  0.12
      P1  H 10752 10763       L1    12  0.01

> <Gold.Chemscore.Hbond.Weighted>
-5.7137

> <Gold.Chemscore.Metal.Weighted>
-0.0000

> <Gold.Chemscore.Lipo.Weighted>
-6.2692

> <Gold.Chemscore.Internal_Hbond.Weighted>
0.0000

> <Gold.Chemscore.DEClash.Weighted>
0.5309

> <Gold.Chemscore.DEInternal.Weighted>
2.3924

> <Gold.Chemscore.Rot.Weighted>
4.4124

> <Gold.Chemscore.Internal.Correction.Weighted>
   9.000000E+99

> <Gold.Protein.RotatedTorsions>
[ 6907 6896 6895 6894 ] final  -37.05 input  -60.11 | X-H torsion
[ 7974 7965 7964 7962 ] final  102.56 input  175.53 | X-H torsion
[ 8008 7997 7996 7995 ] final -137.96 input   59.86 | X-H torsion
[ 10167 10162 10161 10158 ] final -135.92 input  -65.29 | X-H torsion
[ 10718 10713 10712 10709 ] final  137.71 input   66.30 | X-H torsion
[ 10763 10752 10751 10750 ] final   49.74 input  -60.55 | X-H torsion
[ 11005 11000 10999 10996 ] final  -64.71 input  -57.11 | X-H torsion

> <Gold.Protein.ActiveResidues>
 VAL166  LYS551  ARG553  GLY616  TRP617  ASP618  TYR619  PRO620  LYS621  CYS622 
 ASP623  PHE694  ASN695  SER759  ASP760  ASP761  ALA762  ILE779  LEU786  VAL792 
 PHE793  MET794  SER795  GLU796  ALA797  LYS798  CYS799  TRP800  GLU811  SER814 

> <Gold.Protein.RotatedAtoms>
  151.0195  134.9458  159.8051 H   0  0  0  0  0  0  0  0  0  0  0  0  # atno 6907 bound_to 6896
  152.5321  134.2923  159.9057 H   0  0  0  0  0  0  0  0  0  0  0  0  # atno 6908 bound_to 6896
  151.2930  133.4115  159.2668 H   0  0  0  0  0  0  0  0  0  0  0  0  # atno 6909 bound_to 6896
  145.3575  139.2425  143.3524 H   0  0  0  0  0  0  0  0  0  0  0  0  # atno 7974 bound_to 7965
  155.4204  140.0518  157.3026 H   0  0  0  0  0  0  0  0  0  0  0  0  # atno 8008 bound_to 7997
  154.4905  140.2118  155.9518 H   0  0  0  0  0  0  0  0  0  0  0  0  # atno 8009 bound_to 7997
  156.1335  140.3167  155.8391 H   0  0  0  0  0  0  0  0  0  0  0  0  # atno 8010 bound_to 7997
  139.8730  143.6934  152.2637 H   0  0  0  0  0  0  0  0  0  0  0  0  # atno 10167 bound_to 10162
  157.4332  131.1050  151.0227 H   0  0  0  0  0  0  0  0  0  0  0  0  # atno 10718 bound_to 10713
  152.9786  135.5902  154.4138 H   0  0  0  0  0  0  0  0  0  0  0  0  # atno 10763 bound_to 10752
  154.3770  135.2767  155.2235 H   0  0  0  0  0  0  0  0  0  0  0  0  # atno 10764 bound_to 10752
  154.4166  135.6069  153.6039 H   0  0  0  0  0  0  0  0  0  0  0  0  # atno 10765 bound_to 10752
  141.1433  133.6670  156.5874 H   0  0  0  0  0  0  0  0  0  0  0  0  # atno 11005 bound_to 11000
  146.2941  140.4203  142.8728 LP  0  0  0  0  0  0  0  0  0  0  0  0  # atno 17320 bound_to 7965
  144.8671  140.7221  143.6070 LP  0  0  0  0  0  0  0  0  0  0  0  0  # atno 17321 bound_to 7965
  139.7266  144.7591  151.0868 LP  0  0  0  0  0  0  0  0  0  0  0  0  # atno 17342 bound_to 10162
  140.7757  143.5140  150.9618 LP  0  0  0  0  0  0  0  0  0  0  0  0  # atno 17343 bound_to 10162
  157.1116  130.6024  149.5483 LP  0  0  0  0  0  0  0  0  0  0  0  0  # atno 17370 bound_to 10713
  155.9921  130.4977  150.7325 LP  0  0  0  0  0  0  0  0  0  0  0  0  # atno 17371 bound_to 10713
  140.3790  134.7540  157.4648 LP  0  0  0  0  0  0  0  0  0  0  0  0  # atno 17394 bound_to 11000
  140.0652  134.5939  155.8703 LP  0  0  0  0  0  0  0  0  0  0  0  0  # atno 17395 bound_to 11000

$$$$
