AV-unprocessed.smi:91|AV-procd|sdf|838|dock10
  -GOLD-   2262017273D 1   1.00000     0.00000
 Structure written by MMmdl.
 60 63  0  0  0  0  0  0  0  0  1 V2000
  152.0149  144.2119  157.6147 C   0  0  0  0  0  0  0  0  0  0  0  0
  151.7266  142.8258  157.5222 O   0  0  0  0  0  0  0  0  0  0  0  0
  151.1534  142.4291  156.2826 C   0  0  0  0  0  0  0  0  0  0  0  0
  150.9769  140.9043  156.1731 C   0  0  1  0  0  0  0  0  0  0  0  0
  149.7339  140.5268  155.3470 C   0  0  0  0  0  0  0  0  0  0  0  0
  149.7003  139.0895  155.1308 N   0  0  0  0  0  0  0  0  0  0  0  0
  148.5189  138.6464  154.6500 C   0  0  0  0  0  0  0  0  0  0  0  0
  147.6549  139.5876  154.1962 N   0  0  0  0  0  0  0  0  0  0  0  0
  146.4712  139.2239  153.6941 C   0  0  0  0  0  0  0  0  0  0  0  0
  145.9689  137.9964  153.5466 N   0  0  0  0  0  0  0  0  0  0  0  0
  146.8421  137.0462  153.9877 C   0  0  0  0  0  0  0  0  0  0  0  0
  148.1286  137.2799  154.5516 C   0  0  0  0  0  0  0  0  0  0  0  0
  148.7298  136.0675  154.8702 N   0  0  0  0  0  0  0  0  0  0  0  0
  147.8498  135.1706  154.5182 C   0  0  0  0  0  0  0  0  0  0  0  0
  146.6905  135.6707  153.9723 N   0  0  0  0  0  0  0  0  0  0  0  0
  145.5599  134.8980  153.4875 C   0  0  0  0  0  0  0  0  0  0  0  0
  145.5171  134.7883  151.9429 C   0  0  2  0  0  0  0  0  0  0  0  0
  145.3382  136.1620  151.2511 C   0  0  0  0  0  0  0  0  0  0  0  0
  144.0555  136.7008  151.4963 O   0  0  0  0  0  0  0  0  0  0  0  0
  144.4648  133.7509  151.4757 C   0  0  1  0  0  0  0  0  0  0  0  0
  144.2857  133.6520  149.9709 C   0  0  0  0  0  0  0  0  0  0  0  0
  143.5970  132.3007  149.8194 C   0  0  0  0  0  0  0  0  0  0  0  0
  144.1221  131.4870  150.8616 O   0  0  0  0  0  0  0  0  0  0  0  0
  144.8098  132.2956  151.8114 C   0  0  0  0  0  0  0  0  0  0  0  0
  150.9058  138.5857  154.4870 C   0  0  0  0  0  0  0  0  0  0  0  0
  152.1577  138.9667  155.3072 C   0  0  0  0  0  0  0  0  0  0  0  0
  152.2430  138.1828  156.6344 C   0  0  0  0  0  0  0  0  0  0  0  0
  153.4238  138.6960  154.4797 C   0  0  0  0  0  0  0  0  0  0  0  0
  152.1468  140.3811  155.5394 O   0  0  0  0  0  0  0  0  0  0  0  0
  152.3888  144.4365  158.6137 H   0  0  0  0  0  0  0  0  0  0  0  0
  151.1210  144.8148  157.4501 H   0  0  0  0  0  0  0  0  0  0  0  0
  152.7804  144.5168  156.9016 H   0  0  0  0  0  0  0  0  0  0  0  0
  150.1765  142.9071  156.2048 H   0  0  0  0  0  0  0  0  0  0  0  0
  151.7469  142.8112  155.4506 H   0  0  0  0  0  0  0  0  0  0  0  0
  150.8975  140.4821  157.1735 H   0  0  0  0  0  0  0  0  0  0  0  0
  148.8296  140.8515  155.8637 H   0  0  0  0  0  0  0  0  0  0  0  0
  149.7527  141.0335  154.3808 H   0  0  0  0  0  0  0  0  0  0  0  0
  145.8366  140.0318  153.3611 H   0  0  0  0  0  0  0  0  0  0  0  0
  148.0265  134.1117  154.6399 H   0  0  0  0  0  0  0  0  0  0  0  0
  145.6215  133.9088  153.9412 H   0  0  0  0  0  0  0  0  0  0  0  0
  144.6402  135.3494  153.8613 H   0  0  0  0  0  0  0  0  0  0  0  0
  146.4933  134.4155  151.6291 H   0  0  0  0  0  0  0  0  0  0  0  0
  146.0881  136.8746  151.5941 H   0  0  0  0  0  0  0  0  0  0  0  0
  145.4809  136.0766  150.1742 H   0  0  0  0  0  0  0  0  0  0  0  0
  143.8785  137.3649  150.8475 H   0  0  0  0  0  0  0  0  0  0  0  0
  143.4968  133.9856  151.9219 H   0  0  0  0  0  0  0  0  0  0  0  0
  143.6958  134.4676  149.5517 H   0  0  0  0  0  0  0  0  0  0  0  0
  145.2549  133.6368  149.4700 H   0  0  0  0  0  0  0  0  0  0  0  0
  142.5215  132.4038  149.9679 H   0  0  0  0  0  0  0  0  0  0  0  0
  143.7632  131.8535  148.8391 H   0  0  0  0  0  0  0  0  0  0  0  0
  145.8795  132.1145  151.6989 H   0  0  0  0  0  0  0  0  0  0  0  0
  144.5286  132.0256  152.8297 H   0  0  0  0  0  0  0  0  0  0  0  0
  150.8423  137.5037  154.3625 H   0  0  0  0  0  0  0  0  0  0  0  0
  150.9879  139.0204  153.4907 H   0  0  0  0  0  0  0  0  0  0  0  0
  152.3735  137.1163  156.4487 H   0  0  0  0  0  0  0  0  0  0  0  0
  151.3445  138.2888  157.2417 H   0  0  0  0  0  0  0  0  0  0  0  0
  153.0892  138.5182  157.2344 H   0  0  0  0  0  0  0  0  0  0  0  0
  153.5154  137.6389  154.2280 H   0  0  0  0  0  0  0  0  0  0  0  0
  154.3218  138.9858  155.0264 H   0  0  0  0  0  0  0  0  0  0  0  0
  153.4135  139.2588  153.5457 H   0  0  0  0  0  0  0  0  0  0  0  0
  1  2  1  0  0  0  0
  1 30  1  0  0  0  0
  1 31  1  0  0  0  0
  1 32  1  0  0  0  0
  2  3  1  0  0  0  0
  3  4  1  0  0  0  0
  3 33  1  0  0  0  0
  3 34  1  0  0  0  0
  4 29  1  0  0  0  0
  4  5  1  0  0  0  0
  4 35  1  0  0  0  0
  5  6  1  0  0  0  0
  5 36  1  0  0  0  0
  5 37  1  0  0  0  0
  6  7  1  0  0  0  0
  6 25  1  0  0  0  0
  7 12  1  0  0  0  0
  7  8  2  0  0  0  0
  8  9  1  0  0  0  0
  9 10  2  0  0  0  0
  9 38  1  0  0  0  0
 10 11  1  0  0  0  0
 11 15  1  0  0  0  0
 11 12  2  0  0  0  0
 12 13  1  0  0  0  0
 13 14  2  0  0  0  0
 14 15  1  0  0  0  0
 14 39  1  0  0  0  0
 15 16  1  0  0  0  0
 16 17  1  0  0  0  0
 16 40  1  0  0  0  0
 16 41  1  0  0  0  0
 17 18  1  0  0  0  0
 17 20  1  0  0  0  0
 17 42  1  0  0  0  0
 18 19  1  0  0  0  0
 18 43  1  0  0  0  0
 18 44  1  0  0  0  0
 19 45  1  0  0  0  0
 20 24  1  0  0  0  0
 20 21  1  0  0  0  0
 20 46  1  0  0  0  0
 21 22  1  0  0  0  0
 21 47  1  0  0  0  0
 21 48  1  0  0  0  0
 22 23  1  0  0  0  0
 22 49  1  0  0  0  0
 22 50  1  0  0  0  0
 23 24  1  0  0  0  0
 24 51  1  0  0  0  0
 24 52  1  0  0  0  0
 25 26  1  0  0  0  0
 25 53  1  0  0  0  0
 25 54  1  0  0  0  0
 26 27  1  0  0  0  0
 26 28  1  0  0  0  0
 26 29  1  0  0  0  0
 27 55  1  0  0  0  0
 27 56  1  0  0  0  0
 27 57  1  0  0  0  0
 28 58  1  0  0  0  0
 28 59  1  0  0  0  0
 28 60  1  0  0  0  0
M  END
> <s_m_source_file>
AV-unprocessed.smi

> <i_m_source_file_index>
91

> <i_lp_mmshare_version>
43012

> <i_f3d_flags>
0

> <s_epik_input>
W0NIM11PW0NIMl1bQ0BASF0oTzEpW0NIMl1OKFtDSDJdQzEoW0NIM10pW0NIM10pYyhuW2NIXW4yKWMoYzIzKW5bY0hdbjNbQ0gyXVtDQEhdKFtDSDJdW09IXSlbQ0BASF00W0NIMl1bQ0gyXU9bQ0gyXTQ=

> <s_epik_cmdline>
J2VwaWtfcHl0aG9uJywgJy1waCcsICc3LjAnLCAnLXRuJywgJzgnLCAnLW1hJywgJzIwMCcsICctbWV0YWxfYmluZGluZycsICctaW1hZScsICc8aW5maWxlLm1hZT4nLCAnLW9tYWUnLCAnPG91dGZpbGUubWFlPic=

> <r_lp_tautomer_probability>
1

> <r_epik_Ionization_Penalty>
8.63591e-05

> <r_epik_Ionization_Penalty_Charging>
0

> <r_epik_Ionization_Penalty_Neutral>
8.63591e-05

> <r_epik_State_Penalty>
-0

> <r_epik_Charging_Adjusted_Penalty>
0

> <i_epik_Tot_Q>
0

> <i_epik_Tot_abs_Q>
0

> <r_epik_Metal_State_Penalty>
-0

> <b_epik_Metal_Only>
0

> <s_lp_Force_Field>
OPLS_2005

> <r_lp_Energy>
49.535

> <b_lp_Chiralities_Consistent>
1

> <s_lp_Variant>
AV-unprocessed.smi:91-6

> <Gold.Version>
5.8.1

> <Gold.Id.Protein>
6NUR|6NUR_protein|mol2

> <Gold.PLP.Fitness>
43.4121

> <Gold.PLP.PLP>
-38.6681

> <Gold.PLP.part.hbond>
-1.8697

> <Gold.PLP.part.metal>
0.0000

> <Gold.PLP.part.buried>
-0.3270

> <Gold.PLP.part.nonpolar>
-35.7626

> <Gold.PLP.part.repulsive>
0.7280

> <Gold.PLP.ligand.clash>
0.0000

> <Gold.PLP.ligand.torsion>
0.9748

> <Gold.PLP.Chemscore.Hbond>
1.1174

> <Gold.PLP.Chemscore.CHOScore>
1.0000

> <Gold.PLP.Chemscore.Metal>
0.0000

> <Gold.Chemscore.Hbonds>
donor molecule, donor type, donor heavy atom, donor atom, acceptor molecule, acceptor atom, score
      L1  H    19    45       P1 10171  1.00
      P1  H  7989  7998       L1    29  0.33
      L1  C     9    38       P1 10175  1.00

> <Gold.PLP.Chemscore.Internal.Correction>
0.3415

> <Gold.Rescore>
     Score         DG    S(hbond)    S(metal)    S(lipo)     H(rot)  DE(clash)    DE(int)     intcor
     10.46     -12.10       1.00        0.00      94.32       3.03       0.01       1.63       ----

> <Gold.Chemscore.Fitness>
10.4585

> <Gold.Chemscore.DG>
-12.0957

> <Gold.Chemscore.ZeroCoef>
-5.4800

> <Gold.Chemscore.Hbond>
0.9979

> <Gold.Chemscore.Metal>
0.0000

> <Gold.Chemscore.Lipo>
94.3202

> <Gold.Chemscore.Internal_Hbond>
0.0000

> <Gold.Chemscore.DEClash>
0.0109

> <Gold.Chemscore.DEInternal>
1.6263

> <Gold.Chemscore.Rot>
3.0284

> <Gold.Chemscore.Internal.Correction>
   9.000000E+99

> <Gold.Chemscore.Hbonds>
donor molecule, donor type, donor heavy atom, donor atom, acceptor molecule, acceptor atom, score
      L1  H    19    45       P1 10171  0.98
      P1  H  7989  7998       L1    29  0.01

> <Gold.Chemscore.Hbond.Weighted>
-3.3330

> <Gold.Chemscore.Metal.Weighted>
-0.0000

> <Gold.Chemscore.Lipo.Weighted>
-11.0355

> <Gold.Chemscore.Internal_Hbond.Weighted>
0.0000

> <Gold.Chemscore.DEClash.Weighted>
0.0109

> <Gold.Chemscore.DEInternal.Weighted>
1.6263

> <Gold.Chemscore.Rot.Weighted>
7.7528

> <Gold.Chemscore.Internal.Correction.Weighted>
   9.000000E+99

> <Gold.Protein.RotatedTorsions>
[ 6907 6896 6895 6894 ] final -134.36 input  -60.11 | X-H torsion
[ 7974 7965 7964 7962 ] final  175.07 input  175.53 | X-H torsion
[ 8008 7997 7996 7995 ] final   13.33 input   59.86 | X-H torsion
[ 10167 10162 10161 10158 ] final  153.22 input  -65.29 | X-H torsion
[ 10718 10713 10712 10709 ] final   10.49 input   66.30 | X-H torsion
[ 10763 10752 10751 10750 ] final    9.91 input  -60.55 | X-H torsion
[ 11005 11000 10999 10996 ] final  147.74 input  -57.11 | X-H torsion

> <Gold.Protein.ActiveResidues>
 VAL166  LYS551  ARG553  GLY616  TRP617  ASP618  TYR619  PRO620  LYS621  CYS622 
 ASP623  PHE694  ASN695  SER759  ASP760  ASP761  ALA762  ILE779  LEU786  VAL792 
 PHE793  MET794  SER795  GLU796  ALA797  LYS798  CYS799  TRP800  GLU811  SER814 

> <Gold.Protein.RotatedAtoms>
  150.9850  133.6207  159.2716 H   0  0  0  0  0  0  0  0  0  0  0  0  # atno 6907 bound_to 6896
  151.3448  135.0870  159.9393 H   0  0  0  0  0  0  0  0  0  0  0  0  # atno 6908 bound_to 6896
  152.5228  133.9454  159.7701 H   0  0  0  0  0  0  0  0  0  0  0  0  # atno 6909 bound_to 6896
  144.7209  139.9891  143.6439 H   0  0  0  0  0  0  0  0  0  0  0  0  # atno 7974 bound_to 7965
  154.8330  140.2902  155.5710 H   0  0  0  0  0  0  0  0  0  0  0  0  # atno 8008 bound_to 7997
  156.3007  140.2528  156.3190 H   0  0  0  0  0  0  0  0  0  0  0  0  # atno 8009 bound_to 7997
  154.9210  140.0386  157.1987 H   0  0  0  0  0  0  0  0  0  0  0  0  # atno 8010 bound_to 7997
  139.4828  144.5291  151.7752 H   0  0  0  0  0  0  0  0  0  0  0  0  # atno 10167 bound_to 10162
  156.9817  130.6008  149.5677 H   0  0  0  0  0  0  0  0  0  0  0  0  # atno 10718 bound_to 10713
  153.2089  135.6866  153.8139 H   0  0  0  0  0  0  0  0  0  0  0  0  # atno 10763 bound_to 10752
  153.7379  135.3242  155.3299 H   0  0  0  0  0  0  0  0  0  0  0  0  # atno 10764 bound_to 10752
  154.8211  135.4651  154.0887 H   0  0  0  0  0  0  0  0  0  0  0  0  # atno 10765 bound_to 10752
  140.0901  134.9046  157.1637 H   0  0  0  0  0  0  0  0  0  0  0  0  # atno 11005 bound_to 11000
  146.0426  139.3436  143.0688 LP  0  0  0  0  0  0  0  0  0  0  0  0  # atno 17320 bound_to 7965
  145.8315  140.9628  143.0846 LP  0  0  0  0  0  0  0  0  0  0  0  0  # atno 17321 bound_to 7965
  140.4815  144.1443  150.5933 LP  0  0  0  0  0  0  0  0  0  0  0  0  # atno 17342 bound_to 10162
  140.4272  143.2584  151.9641 LP  0  0  0  0  0  0  0  0  0  0  0  0  # atno 17343 bound_to 10162
  156.0242  130.5336  150.8359 LP  0  0  0  0  0  0  0  0  0  0  0  0  # atno 17370 bound_to 10713
  157.5521  131.0944  150.9680 LP  0  0  0  0  0  0  0  0  0  0  0  0  # atno 17371 bound_to 10713
  140.3364  134.2752  155.7219 LP  0  0  0  0  0  0  0  0  0  0  0  0  # atno 17394 bound_to 11000
  141.2075  133.7804  157.0115 LP  0  0  0  0  0  0  0  0  0  0  0  0  # atno 17395 bound_to 11000

$$$$
