AV-unprocessed.smi:826|AV-procd|sdf|3854|dock9
  -GOLD-   22720 1303D 1   1.00000     0.00000
 Structure written by MMmdl.
 38 39  0  0  0  0  0  0  0  0  2 V2000
  145.6475  134.1690  161.5560 C   0  0  0  0  0  0  0  0  0  0  0  0
  146.7632  135.0399  161.0896 C   0  0  0  0  0  0  0  0  0  0  0  0
  146.9101  136.3053  161.4896 N   0  0  0  0  0  0  0  0  0  0  0  0
  148.0198  136.9092  160.9160 N   0  0  0  0  0  0  0  0  0  0  0  0
  148.6878  136.0988  160.0828 C   0  0  0  0  0  0  0  0  0  0  0  0
  149.7919  136.4916  159.4263 N   0  5  0  0  0  0  0  0  0  0  0  0
  149.7245  137.5134  158.5428 C   0  0  0  0  0  0  0  0  0  0  0  0
  148.6958  138.0054  158.0724 O   0  0  0  0  0  0  0  0  0  0  0  0
  150.9231  137.9945  158.1788 N   0  0  0  0  0  0  0  0  0  0  0  0
  151.1595  139.0942  157.2440 C   0  0  2  0  0  0  0  0  0  0  0  0
  151.7648  138.5058  155.9584 C   0  0  0  0  0  0  0  0  0  0  0  0
  152.1627  140.0955  157.8377 C   0  0  0  0  0  0  0  0  0  0  0  0
  153.2742  139.7219  158.2166 O   0  0  0  0  0  0  0  0  0  0  0  0
  151.7557  141.3721  157.9020 N   0  0  0  0  0  0  0  0  0  0  0  0
  152.5418  142.4753  158.4459 C   0  0  0  0  0  0  0  0  0  0  0  0
  152.6783  142.3769  159.9799 C   0  0  0  0  0  0  0  0  0  0  0  0
  152.3193  143.7598  160.5259 C   0  0  0  0  0  0  0  0  0  0  0  0
  151.3230  144.3141  159.5130 C   0  0  0  0  0  0  0  0  0  0  0  0
  151.8518  143.8230  158.1648 C   0  0  0  0  0  0  0  0  0  0  0  0
  147.9885  134.4845  159.9620 S   0  0  0  0  0  0  0  0  0  0  0  0
  144.7952  134.2665  160.8838 H   0  0  0  0  0  0  0  0  0  0  0  0
  145.3367  134.4532  162.5619 H   0  0  0  0  0  0  0  0  0  0  0  0
  145.9655  133.1265  161.5716 H   0  0  0  0  0  0  0  0  0  0  0  0
  151.7379  137.5681  158.5944 H   0  0  0  0  0  0  0  0  0  0  0  0
  150.2168  139.5915  157.0066 H   0  0  0  0  0  0  0  0  0  0  0  0
  151.9675  139.2857  155.2231 H   0  0  0  0  0  0  0  0  0  0  0  0
  151.0785  137.7952  155.4965 H   0  0  0  0  0  0  0  0  0  0  0  0
  152.7004  137.9788  156.1524 H   0  0  0  0  0  0  0  0  0  0  0  0
  150.8265  141.5898  157.5725 H   0  0  0  0  0  0  0  0  0  0  0  0
  153.5280  142.4806  157.9784 H   0  0  0  0  0  0  0  0  0  0  0  0
  151.9753  141.6452  160.3823 H   0  0  0  0  0  0  0  0  0  0  0  0
  153.6769  142.0625  160.2848 H   0  0  0  0  0  0  0  0  0  0  0  0
  151.9141  143.7192  161.5373 H   0  0  0  0  0  0  0  0  0  0  0  0
  153.2094  144.3900  160.5475 H   0  0  0  0  0  0  0  0  0  0  0  0
  150.3358  143.8884  159.6986 H   0  0  0  0  0  0  0  0  0  0  0  0
  151.2337  145.3998  159.5596 H   0  0  0  0  0  0  0  0  0  0  0  0
  152.5913  144.5328  157.7916 H   0  0  0  0  0  0  0  0  0  0  0  0
  151.0633  143.7598  157.4136 H   0  0  0  0  0  0  0  0  0  0  0  0
  1  2  1  0  0  0  0
  1 21  1  0  0  0  0
  1 22  1  0  0  0  0
  1 23  1  0  0  0  0
  2 20  1  0  0  0  0
  2  3  2  0  0  0  0
  3  4  1  0  0  0  0
  4  5  2  0  0  0  0
  5  6  1  0  0  0  0
  5 20  1  0  0  0  0
  6  7  1  0  0  0  0
  7  8  2  0  0  0  0
  7  9  1  0  0  0  0
  9 10  1  0  0  0  0
  9 24  1  0  0  0  0
 10 11  1  0  0  0  0
 10 12  1  0  0  0  0
 10 25  1  0  0  0  0
 11 26  1  0  0  0  0
 11 27  1  0  0  0  0
 11 28  1  0  0  0  0
 12 13  2  0  0  0  0
 12 14  1  0  0  0  0
 14 15  1  0  0  0  0
 14 29  1  0  0  0  0
 15 19  1  0  0  0  0
 15 16  1  0  0  0  0
 15 30  1  0  0  0  0
 16 17  1  0  0  0  0
 16 31  1  0  0  0  0
 16 32  1  0  0  0  0
 17 18  1  0  0  0  0
 17 33  1  0  0  0  0
 17 34  1  0  0  0  0
 18 19  1  0  0  0  0
 18 35  1  0  0  0  0
 18 36  1  0  0  0  0
 19 37  1  0  0  0  0
 19 38  1  0  0  0  0
M  CHG  1   6  -1
M  END
> <s_m_source_file>
AV-unprocessed.smi

> <i_m_source_file_index>
826

> <i_lp_mmshare_version>
43012

> <i_f3d_flags>
0

> <s_epik_input>
W0NIM11jMW5uYyhzMSlbTkhdQyg9TylbTkhdW0NASF0oW0NIM10pQyg9TylbTkhdW0NIXTJbQ0gyXVtDSDJdW0NIMl1bQ0gyXTI=

> <s_epik_cmdline>
J2VwaWtfcHl0aG9uJywgJy1waCcsICc3LjAnLCAnLXRuJywgJzgnLCAnLW1hJywgJzIwMCcsICctbWV0YWxfYmluZGluZycsICctaW1hZScsICc8aW5maWxlLm1hZT4nLCAnLW9tYWUnLCAnPG91dGZpbGUubWFlPic=

> <r_lp_tautomer_probability>
1

> <r_epik_Ionization_Penalty>
3.15008

> <r_epik_Ionization_Penalty_Charging>
3.01509

> <r_epik_Ionization_Penalty_Neutral>
0.134987

> <r_epik_State_Penalty>
3.01143

> <r_epik_Charging_Adjusted_Penalty>
6.02652

> <i_epik_Tot_Q>
-1

> <i_epik_Tot_abs_Q>
1

> <r_epik_Metal_State_Penalty>
0.454645

> <b_epik_Metal_Only>
1

> <s_lp_Force_Field>
OPLS_2005

> <r_lp_Energy>
15.3268

> <b_lp_Chiralities_Consistent>
1

> <s_lp_Variant>
AV-unprocessed.smi:826-3

> <Gold.Version>
5.8.1

> <Gold.Id.Protein>
6NUR|6NUR_protein|mol2

> <Gold.PLP.Fitness>
47.2254

> <Gold.PLP.PLP>
-36.7412

> <Gold.PLP.part.hbond>
-4.0010

> <Gold.PLP.part.metal>
0.0000

> <Gold.PLP.part.buried>
-5.2365

> <Gold.PLP.part.nonpolar>
-28.2522

> <Gold.PLP.part.repulsive>
0.1855

> <Gold.PLP.ligand.clash>
0.0000

> <Gold.PLP.ligand.torsion>
0.8559

> <Gold.PLP.Chemscore.Hbond>
4.0498

> <Gold.PLP.Chemscore.CHOScore>
0.0000

> <Gold.PLP.Chemscore.Metal>
0.0000

> <Gold.Chemscore.Hbonds>
donor molecule, donor type, donor heavy atom, donor atom, acceptor molecule, acceptor atom, score
      P1  H  6896  6907       L1     6  2.00
      P1  H  6931  6943       L1     4  1.00
      P1  H  6934  6947       L1     4  0.27
      P1  H  7997  8010       L1    13  1.00

> <Gold.PLP.Chemscore.Internal.Correction>
0.0464

> <Gold.Rescore>
     Score         DG    S(hbond)    S(metal)    S(lipo)     H(rot)  DE(clash)    DE(int)     intcor
     19.67     -20.61       2.81        0.00      84.43       1.62       0.01       0.92       ----

> <Gold.Chemscore.Fitness>
19.6727

> <Gold.Chemscore.DG>
-20.6064

> <Gold.Chemscore.ZeroCoef>
-5.4800

> <Gold.Chemscore.Hbond>
2.8130

> <Gold.Chemscore.Metal>
0.0000

> <Gold.Chemscore.Lipo>
84.4306

> <Gold.Chemscore.Internal_Hbond>
0.0000

> <Gold.Chemscore.DEClash>
0.0093

> <Gold.Chemscore.DEInternal>
0.9244

> <Gold.Chemscore.Rot>
1.6201

> <Gold.Chemscore.Internal.Correction>
   9.000000E+99

> <Gold.Chemscore.Hbonds>
donor molecule, donor type, donor heavy atom, donor atom, acceptor molecule, acceptor atom, score
      P1  H  6896  6907       L1     6  0.30
      P1  H  6931  6943       L1     4  0.90
      P1  H  6934  6947       L1     4  0.05
      P1  H  7997  8010       L1    13  0.85

> <Gold.Chemscore.Hbond.Weighted>
-9.3955

> <Gold.Chemscore.Metal.Weighted>
-0.0000

> <Gold.Chemscore.Lipo.Weighted>
-9.8784

> <Gold.Chemscore.Internal_Hbond.Weighted>
0.0000

> <Gold.Chemscore.DEClash.Weighted>
0.0093

> <Gold.Chemscore.DEInternal.Weighted>
0.9244

> <Gold.Chemscore.Rot.Weighted>
4.1475

> <Gold.Chemscore.Internal.Correction.Weighted>
   9.000000E+99

> <Gold.Protein.RotatedTorsions>
[ 6907 6896 6895 6894 ] final  -36.69 input  -60.11 | X-H torsion
[ 7974 7965 7964 7962 ] final  143.34 input  175.53 | X-H torsion
[ 8008 7997 7996 7995 ] final   35.88 input   59.86 | X-H torsion
[ 10167 10162 10161 10158 ] final   16.69 input  -65.29 | X-H torsion
[ 10718 10713 10712 10709 ] final  -69.85 input   66.30 | X-H torsion
[ 10763 10752 10751 10750 ] final  -23.35 input  -60.55 | X-H torsion
[ 11005 11000 10999 10996 ] final  102.72 input  -57.11 | X-H torsion

> <Gold.Protein.ActiveResidues>
 VAL166  LYS551  ARG553  GLY616  TRP617  ASP618  TYR619  PRO620  LYS621  CYS622 
 ASP623  PHE694  ASN695  SER759  ASP760  ASP761  ALA762  ILE779  LEU786  VAL792 
 PHE793  MET794  SER795  GLU796  ALA797  LYS798  CYS799  TRP800  GLU811  SER814 

> <Gold.Protein.RotatedAtoms>
  151.0241  134.9491  159.8075 H   0  0  0  0  0  0  0  0  0  0  0  0  # atno 6907 bound_to 6896
  152.5331  134.2866  159.9037 H   0  0  0  0  0  0  0  0  0  0  0  0  # atno 6908 bound_to 6896
  151.2873  133.4139  159.2665 H   0  0  0  0  0  0  0  0  0  0  0  0  # atno 6909 bound_to 6896
  144.8929  139.5532  143.5790 H   0  0  0  0  0  0  0  0  0  0  0  0  # atno 7974 bound_to 7965
  155.1782  140.3297  155.4380 H   0  0  0  0  0  0  0  0  0  0  0  0  # atno 8008 bound_to 7997
  156.2486  140.1931  156.6832 H   0  0  0  0  0  0  0  0  0  0  0  0  # atno 8009 bound_to 7997
  154.6289  140.0585  156.9694 H   0  0  0  0  0  0  0  0  0  0  0  0  # atno 8010 bound_to 7997
  140.5779  143.9037  150.6765 H   0  0  0  0  0  0  0  0  0  0  0  0  # atno 10167 bound_to 10162
  156.0435  130.4320  150.2209 H   0  0  0  0  0  0  0  0  0  0  0  0  # atno 10718 bound_to 10713
  153.6664  135.6974  153.5161 H   0  0  0  0  0  0  0  0  0  0  0  0  # atno 10763 bound_to 10752
  153.2591  135.4250  155.0875 H   0  0  0  0  0  0  0  0  0  0  0  0  # atno 10764 bound_to 10752
  154.8438  135.3550  154.6209 H   0  0  0  0  0  0  0  0  0  0  0  0  # atno 10765 bound_to 10752
  139.8779  134.9235  156.5100 H   0  0  0  0  0  0  0  0  0  0  0  0  # atno 11005 bound_to 11000
  146.3064  139.7595  142.9053 LP  0  0  0  0  0  0  0  0  0  0  0  0  # atno 17320 bound_to 7965
  145.3751  141.0349  143.3209 LP  0  0  0  0  0  0  0  0  0  0  0  0  # atno 17321 bound_to 7965
  140.2529  143.3580  152.1390 LP  0  0  0  0  0  0  0  0  0  0  0  0  # atno 17342 bound_to 10162
  139.5153  144.6961  151.5627 LP  0  0  0  0  0  0  0  0  0  0  0  0  # atno 17343 bound_to 10162
  157.0301  131.0005  151.3314 LP  0  0  0  0  0  0  0  0  0  0  0  0  # atno 17370 bound_to 10713
  157.5283  130.8042  149.7887 LP  0  0  0  0  0  0  0  0  0  0  0  0  # atno 17371 bound_to 10713
  140.8527  133.8120  155.9185 LP  0  0  0  0  0  0  0  0  0  0  0  0  # atno 17394 bound_to 11000
  140.9128  134.2239  157.4975 LP  0  0  0  0  0  0  0  0  0  0  0  0  # atno 17395 bound_to 11000

$$$$
