AV-unprocessed.smi:1508|AV-procd|sdf|6086|dock5
  -GOLD-   22720 6213D 1   1.00000     0.00000
 Structure written by MMmdl.
 38 39  0  0  0  0  0  0  0  0  2 V2000
  149.8951  130.3464  155.2205 C   0  0  0  0  0  0  0  0  0  0  0  0
  148.7219  130.5451  154.2478 C   0  0  0  0  0  0  0  0  0  0  0  0
  148.6475  131.9524  153.5953 C   0  0  2  0  0  0  0  0  0  0  0  0
  148.3831  133.0731  154.6382 C   0  0  0  0  0  0  0  0  0  0  0  0
  149.0129  134.3417  154.2848 N   0  0  0  0  0  0  0  0  0  0  0  0
  149.8903  135.0009  155.0547 C   0  0  0  0  0  0  0  0  0  0  0  0
  150.2611  134.5932  156.1553 O   0  0  0  0  0  0  0  0  0  0  0  0
  150.2910  136.1417  154.4711 N   0  0  0  0  0  0  0  0  0  0  0  0
  151.1919  137.1107  154.9794 C   0  0  0  0  0  0  0  0  0  0  0  0
  152.0519  136.7299  155.9313 N   0  0  0  0  0  0  0  0  0  0  0  0
  152.8764  137.7730  156.3353 N   0  0  0  0  0  0  0  0  0  0  0  0
  152.6048  138.9010  155.6720 C   0  0  0  0  0  0  0  0  0  0  0  0
  151.3146  138.8023  154.4866 S   0  0  0  0  0  0  0  0  0  0  0  0
  147.6517  132.0054  152.4843 N   0  3  0  0  0  0  0  0  0  0  0  0
  146.3174  131.4356  152.8020 C   0  0  0  0  0  0  0  0  0  0  0  0
  145.2704  132.2856  152.0681 C   0  0  0  0  0  0  0  0  0  0  0  0
  146.0773  133.2112  151.1648 C   0  0  0  0  0  0  0  0  0  0  0  0
  147.4053  133.3422  151.9007 C   0  0  0  0  0  0  0  0  0  0  0  0
  149.8546  129.3543  155.6703 H   0  0  0  0  0  0  0  0  0  0  0  0
  149.8732  131.0745  156.0314 H   0  0  0  0  0  0  0  0  0  0  0  0
  150.8564  130.4336  154.7146 H   0  0  0  0  0  0  0  0  0  0  0  0
  148.7860  129.7848  153.4691 H   0  0  0  0  0  0  0  0  0  0  0  0
  147.7894  130.3209  154.7656 H   0  0  0  0  0  0  0  0  0  0  0  0
  149.6227  132.1406  153.1430 H   0  0  0  0  0  0  0  0  0  0  0  0
  147.3150  133.2508  154.7688 H   0  0  0  0  0  0  0  0  0  0  0  0
  148.7543  132.7733  155.6182 H   0  0  0  0  0  0  0  0  0  0  0  0
  148.7622  134.7447  153.3932 H   0  0  0  0  0  0  0  0  0  0  0  0
  149.9035  136.3469  153.5619 H   0  0  0  0  0  0  0  0  0  0  0  0
  153.1691  139.7975  155.8819 H   0  0  0  0  0  0  0  0  0  0  0  0
  146.2815  130.3939  152.4818 H   0  0  0  0  0  0  0  0  0  0  0  0
  146.1168  131.4617  153.8744 H   0  0  0  0  0  0  0  0  0  0  0  0
  144.5574  131.6798  151.5078 H   0  0  0  0  0  0  0  0  0  0  0  0
  144.7054  132.8766  152.7903 H   0  0  0  0  0  0  0  0  0  0  0  0
  146.2369  132.7369  150.1953 H   0  0  0  0  0  0  0  0  0  0  0  0
  145.5891  134.1713  150.9950 H   0  0  0  0  0  0  0  0  0  0  0  0
  147.3140  134.0822  152.6978 H   0  0  0  0  0  0  0  0  0  0  0  0
  148.2083  133.6551  151.2331 H   0  0  0  0  0  0  0  0  0  0  0  0
  148.0212  131.4436  151.7306 H   0  0  0  0  0  0  0  0  0  0  0  0
  1  2  1  0  0  0  0
  1 19  1  0  0  0  0
  1 20  1  0  0  0  0
  1 21  1  0  0  0  0
  2  3  1  0  0  0  0
  2 22  1  0  0  0  0
  2 23  1  0  0  0  0
  3  4  1  0  0  0  0
  3 14  1  0  0  0  0
  3 24  1  0  0  0  0
  4  5  1  0  0  0  0
  4 25  1  0  0  0  0
  4 26  1  0  0  0  0
  5  6  1  0  0  0  0
  5 27  1  0  0  0  0
  6  7  2  0  0  0  0
  6  8  1  0  0  0  0
  8  9  1  0  0  0  0
  8 28  1  0  0  0  0
  9 13  1  0  0  0  0
  9 10  2  0  0  0  0
 10 11  1  0  0  0  0
 11 12  2  0  0  0  0
 12 13  1  0  0  0  0
 12 29  1  0  0  0  0
 14 18  1  0  0  0  0
 14 15  1  0  0  0  0
 14 38  1  0  0  0  0
 15 16  1  0  0  0  0
 15 30  1  0  0  0  0
 15 31  1  0  0  0  0
 16 17  1  0  0  0  0
 16 32  1  0  0  0  0
 16 33  1  0  0  0  0
 17 18  1  0  0  0  0
 17 34  1  0  0  0  0
 17 35  1  0  0  0  0
 18 36  1  0  0  0  0
 18 37  1  0  0  0  0
M  CHG  1  14   1
M  END
> <s_m_source_file>
AV-unprocessed.smi

> <i_m_source_file_index>
1508

> <i_lp_mmshare_version>
43012

> <i_f3d_flags>
0

> <s_epik_input>
W0NIMl0xW0NIMl1bQ0gyXVtDSDJdTjFbQ0BIXShbQ0gyXVtDSDNdKVtDSDJdW05IXUMoPU8pW05IXWMybm5bY0hdczI=

> <s_epik_cmdline>
J2VwaWtfcHl0aG9uJywgJy1waCcsICc3LjAnLCAnLXRuJywgJzgnLCAnLW1hJywgJzIwMCcsICctbWV0YWxfYmluZGluZycsICctaW1hZScsICc8aW5maWxlLm1hZT4nLCAnLW9tYWUnLCAnPG91dGZpbGUubWFlPic=

> <r_lp_tautomer_probability>
1

> <r_epik_Ionization_Penalty>
0.00193711

> <r_epik_Ionization_Penalty_Charging>
0.00115997

> <r_epik_Ionization_Penalty_Neutral>
0.000777142

> <r_epik_State_Penalty>
-0

> <r_epik_Charging_Adjusted_Penalty>
0.00115997

> <i_epik_Tot_Q>
1

> <i_epik_Tot_abs_Q>
1

> <r_epik_Metal_State_Penalty>
0.264283

> <b_epik_Metal_Only>
0

> <s_lp_Force_Field>
OPLS_2005

> <r_lp_Energy>
30.1882

> <b_lp_Chiralities_Consistent>
1

> <s_lp_Variant>
AV-unprocessed.smi:1508-1

> <Gold.Version>
5.8.1

> <Gold.Id.Protein>
6NUR|6NUR_protein|mol2

> <Gold.PLP.Fitness>
44.0997

> <Gold.PLP.PLP>
-33.4562

> <Gold.PLP.part.hbond>
-5.1107

> <Gold.PLP.part.metal>
0.0000

> <Gold.PLP.part.buried>
-2.5207

> <Gold.PLP.part.nonpolar>
-24.8389

> <Gold.PLP.part.repulsive>
0.1558

> <Gold.PLP.ligand.clash>
0.0000

> <Gold.PLP.ligand.torsion>
0.6598

> <Gold.PLP.Chemscore.Hbond>
3.9440

> <Gold.PLP.Chemscore.CHOScore>
0.0000

> <Gold.PLP.Chemscore.Metal>
0.0000

> <Gold.Chemscore.Hbonds>
donor molecule, donor type, donor heavy atom, donor atom, acceptor molecule, acceptor atom, score
      L1  H     5    27       P1  7948  0.81
      L1  H     8    28       P1  7948  0.85
      L1  H    14    38       P1 10747  1.00
      P1  H 10752 10763       L1    10  0.95

> <Gold.PLP.Chemscore.Internal.Correction>
0.1309

> <Gold.Rescore>
     Score         DG    S(hbond)    S(metal)    S(lipo)     H(rot)  DE(clash)    DE(int)     intcor
     15.02     -16.99       2.70        0.00      62.63       1.89       0.03       1.93       ----

> <Gold.Chemscore.Fitness>
15.0235

> <Gold.Chemscore.DG>
-16.9874

> <Gold.Chemscore.ZeroCoef>
-5.4800

> <Gold.Chemscore.Hbond>
2.7038

> <Gold.Chemscore.Metal>
0.0000

> <Gold.Chemscore.Lipo>
62.6302

> <Gold.Chemscore.Internal_Hbond>
0.0000

> <Gold.Chemscore.DEClash>
0.0316

> <Gold.Chemscore.DEInternal>
1.9323

> <Gold.Chemscore.Rot>
1.8950

> <Gold.Chemscore.Internal.Correction>
   9.000000E+99

> <Gold.Chemscore.Hbonds>
donor molecule, donor type, donor heavy atom, donor atom, acceptor molecule, acceptor atom, score
      L1  H     5    27       P1  7948  0.27
      L1  H     8    28       P1  7948  0.15
      L1  H    14    38       P1 10747  1.00
      P1  H 10752 10763       L1    10  0.14

> <Gold.Chemscore.Hbond.Weighted>
-9.0307

> <Gold.Chemscore.Metal.Weighted>
-0.0000

> <Gold.Chemscore.Lipo.Weighted>
-7.3277

> <Gold.Chemscore.Internal_Hbond.Weighted>
0.0000

> <Gold.Chemscore.DEClash.Weighted>
0.0316

> <Gold.Chemscore.DEInternal.Weighted>
1.9323

> <Gold.Chemscore.Rot.Weighted>
4.8511

> <Gold.Chemscore.Internal.Correction.Weighted>
   9.000000E+99

> <Gold.Protein.RotatedTorsions>
[ 6907 6896 6895 6894 ] final  -70.20 input  -60.11 | X-H torsion
[ 7974 7965 7964 7962 ] final  -80.59 input  175.53 | X-H torsion
[ 8008 7997 7996 7995 ] final   17.34 input   59.86 | X-H torsion
[ 10167 10162 10161 10158 ] final  127.57 input  -65.29 | X-H torsion
[ 10718 10713 10712 10709 ] final    9.45 input   66.30 | X-H torsion
[ 10763 10752 10751 10750 ] final   81.12 input  -60.55 | X-H torsion
[ 11005 11000 10999 10996 ] final  -40.84 input  -57.11 | X-H torsion

> <Gold.Protein.ActiveResidues>
 VAL166  LYS551  ARG553  GLY616  TRP617  ASP618  TYR619  PRO620  LYS621  CYS622 
 ASP623  PHE694  ASN695  SER759  ASP760  ASP761  ALA762  ILE779  LEU786  VAL792 
 PHE793  MET794  SER795  GLU796  ALA797  LYS798  CYS799  TRP800  GLU811  SER814 

> <Gold.Protein.RotatedAtoms>
  150.7269  134.5488  159.5783 H   0  0  0  0  0  0  0  0  0  0  0  0  # atno 6907 bound_to 6896
  152.2980  134.7641  160.0373 H   0  0  0  0  0  0  0  0  0  0  0  0  # atno 6908 bound_to 6896
  151.8232  133.3362  159.3627 H   0  0  0  0  0  0  0  0  0  0  0  0  # atno 6909 bound_to 6896
  145.5579  140.9487  143.1463 H   0  0  0  0  0  0  0  0  0  0  0  0  # atno 7974 bound_to 7965
  154.8901  140.2985  155.5376 H   0  0  0  0  0  0  0  0  0  0  0  0  # atno 8008 bound_to 7997
  156.3021  140.2426  156.3849 H   0  0  0  0  0  0  0  0  0  0  0  0  # atno 8009 bound_to 7997
  154.8628  140.0404  157.1664 H   0  0  0  0  0  0  0  0  0  0  0  0  # atno 8010 bound_to 7997
  139.5571  144.6856  151.4149 H   0  0  0  0  0  0  0  0  0  0  0  0  # atno 10167 bound_to 10162
  156.9665  130.5953  149.5665 H   0  0  0  0  0  0  0  0  0  0  0  0  # atno 10718 bound_to 10713
  153.1090  135.4777  154.9002 H   0  0  0  0  0  0  0  0  0  0  0  0  # atno 10763 bound_to 10752
  154.7461  135.3094  154.8645 H   0  0  0  0  0  0  0  0  0  0  0  0  # atno 10764 bound_to 10752
  153.9239  135.6852  153.4800 H   0  0  0  0  0  0  0  0  0  0  0  0  # atno 10765 bound_to 10752
  141.0203  133.6866  156.2375 H   0  0  0  0  0  0  0  0  0  0  0  0  # atno 11005 bound_to 11000
  144.7497  139.7225  143.7278 LP  0  0  0  0  0  0  0  0  0  0  0  0  # atno 17320 bound_to 7965
  146.1872  139.5093  142.9828 LP  0  0  0  0  0  0  0  0  0  0  0  0  # atno 17321 bound_to 7965
  140.6846  143.8003  150.7168 LP  0  0  0  0  0  0  0  0  0  0  0  0  # atno 17342 bound_to 10162
  140.1467  143.4393  152.2158 LP  0  0  0  0  0  0  0  0  0  0  0  0  # atno 17343 bound_to 10162
  156.0300  130.5392  150.8510 LP  0  0  0  0  0  0  0  0  0  0  0  0  # atno 17370 bound_to 10713
  157.5622  131.0946  150.9542 LP  0  0  0  0  0  0  0  0  0  0  0  0  # atno 17371 bound_to 10713
  140.6584  134.4993  157.5582 LP  0  0  0  0  0  0  0  0  0  0  0  0  # atno 17394 bound_to 11000
  139.9142  134.8281  156.1423 LP  0  0  0  0  0  0  0  0  0  0  0  0  # atno 17395 bound_to 11000

$$$$
