AV-unprocessed.smi:148|AV-procd|sdf|1208|dock7
  -GOLD-   2262018383D 1   1.00000     0.00000
 Structure written by MMmdl.
 63 67  0  0  0  0  0  0  0  0  1 V2000
  147.1062  139.4200  151.7563 O   0  0  0  0  0  0  0  0  0  0  0  0
  146.4860  140.3442  152.6258 C   0  0  0  0  0  0  0  0  0  0  0  0
  147.4519  140.7971  153.7443 C   0  0  2  0  0  0  0  0  0  0  0  0
  148.0574  139.5813  154.4927 C   0  0  0  0  0  0  0  0  0  0  0  0
  148.9734  139.9707  155.5503 N   0  0  0  0  0  0  0  0  0  0  0  0
  148.6592  140.6322  156.7171 C   0  0  0  0  0  0  0  0  0  0  0  0
  149.6691  140.8792  157.5067 N   0  0  0  0  0  0  0  0  0  0  0  0
  150.7602  140.3515  156.8289 C   0  0  0  0  0  0  0  0  0  0  0  0
  152.1511  140.2822  157.1007 C   0  0  0  0  0  0  0  0  0  0  0  0
  152.6842  140.7984  158.2294 N   0  0  0  0  0  0  0  0  0  0  0  0
  151.9727  142.0245  158.5977 C   0  0  0  0  0  0  0  0  0  0  0  0
  152.7145  142.7950  159.6936 C   0  0  0  0  0  0  0  0  0  0  0  0
  152.9337  141.8876  160.9047 C   0  0  0  0  0  0  0  0  0  0  0  0
  153.6797  140.6178  160.4756 C   0  0  0  0  0  0  0  0  0  0  0  0
  152.9602  139.8523  159.3312 C   0  0  2  0  0  0  0  0  0  0  0  0
  153.8052  138.6031  158.8955 C   0  0  1  0  0  0  0  0  0  0  0  0
  154.6340  137.9473  160.0172 C   0  0  0  0  0  0  0  0  0  0  0  0
  155.0076  136.5456  159.5210 C   0  0  0  0  0  0  0  0  0  0  0  0
  154.0633  136.2402  158.3533 C   0  0  0  0  0  0  0  0  0  0  0  0
  153.0456  137.3851  158.3197 C   0  0  1  0  0  0  0  0  0  0  0  0
  151.9413  137.0351  159.1333 O   0  0  0  0  0  0  0  0  0  0  0  0
  152.9515  139.6694  156.1885 N   0  0  0  0  0  0  0  0  0  0  0  0
  152.4217  139.1733  155.0661 C   0  0  0  0  0  0  0  0  0  0  0  0
  151.1460  139.1782  154.6713 N   0  0  0  0  0  0  0  0  0  0  0  0
  150.3428  139.7797  155.5957 C   0  0  0  0  0  0  0  0  0  0  0  0
  146.7977  141.8393  154.6926 C   0  0  2  0  0  0  0  0  0  0  0  0
  145.8149  141.2679  155.7170 C   0  0  0  0  0  0  0  0  0  0  0  0
  144.5620  142.1276  155.5533 C   0  0  0  0  0  0  0  0  0  0  0  0
  145.0493  143.3366  154.9949 O   0  0  0  0  0  0  0  0  0  0  0  0
  146.0088  142.9705  154.0175 C   0  0  0  0  0  0  0  0  0  0  0  0
  147.9825  139.7221  151.5709 H   0  0  0  0  0  0  0  0  0  0  0  0
  146.1269  141.1981  152.0510 H   0  0  0  0  0  0  0  0  0  0  0  0
  145.6079  139.8514  153.0427 H   0  0  0  0  0  0  0  0  0  0  0  0
  148.2794  141.3127  153.2544 H   0  0  0  0  0  0  0  0  0  0  0  0
  147.2814  138.9668  154.9470 H   0  0  0  0  0  0  0  0  0  0  0  0
  148.5959  138.9332  153.8017 H   0  0  0  0  0  0  0  0  0  0  0  0
  147.6501  140.9258  156.9678 H   0  0  0  0  0  0  0  0  0  0  0  0
  151.8557  142.6654  157.7221 H   0  0  0  0  0  0  0  0  0  0  0  0
  150.9689  141.7741  158.9447 H   0  0  0  0  0  0  0  0  0  0  0  0
  153.6741  143.1481  159.3137 H   0  0  0  0  0  0  0  0  0  0  0  0
  152.1454  143.6789  159.9827 H   0  0  0  0  0  0  0  0  0  0  0  0
  153.4984  142.4151  161.6739 H   0  0  0  0  0  0  0  0  0  0  0  0
  151.9732  141.6207  161.3471 H   0  0  0  0  0  0  0  0  0  0  0  0
  154.6884  140.8855  160.1575 H   0  0  0  0  0  0  0  0  0  0  0  0
  153.7901  139.9861  161.3565 H   0  0  0  0  0  0  0  0  0  0  0  0
  152.0010  139.5128  159.7241 H   0  0  0  0  0  0  0  0  0  0  0  0
  154.5184  138.9342  158.1381 H   0  0  0  0  0  0  0  0  0  0  0  0
  155.5205  138.5277  160.2752 H   0  0  0  0  0  0  0  0  0  0  0  0
  154.0284  137.8548  160.9199 H   0  0  0  0  0  0  0  0  0  0  0  0
  156.0442  136.5171  159.1830 H   0  0  0  0  0  0  0  0  0  0  0  0
  154.9048  135.8121  160.3213 H   0  0  0  0  0  0  0  0  0  0  0  0
  154.6360  136.2426  157.4250 H   0  0  0  0  0  0  0  0  0  0  0  0
  153.5956  135.2583  158.4366 H   0  0  0  0  0  0  0  0  0  0  0  0
  152.6964  137.5366  157.3005 H   0  0  0  0  0  0  0  0  0  0  0  0
  151.2990  137.7261  159.0792 H   0  0  0  0  0  0  0  0  0  0  0  0
  153.1207  138.7096  154.3860 H   0  0  0  0  0  0  0  0  0  0  0  0
  147.5889  142.3116  155.2765 H   0  0  0  0  0  0  0  0  0  0  0  0
  145.5974  140.2083  155.5842 H   0  0  0  0  0  0  0  0  0  0  0  0
  146.2218  141.3859  156.7222 H   0  0  0  0  0  0  0  0  0  0  0  0
  143.8636  141.6627  154.8552 H   0  0  0  0  0  0  0  0  0  0  0  0
  144.0412  142.2985  156.4959 H   0  0  0  0  0  0  0  0  0  0  0  0
  146.6409  143.8157  153.7440 H   0  0  0  0  0  0  0  0  0  0  0  0
  145.4817  142.6395  153.1234 H   0  0  0  0  0  0  0  0  0  0  0  0
  1  2  1  0  0  0  0
  1 31  1  0  0  0  0
  2  3  1  0  0  0  0
  2 32  1  0  0  0  0
  2 33  1  0  0  0  0
  3  4  1  0  0  0  0
  3 26  1  0  0  0  0
  3 34  1  0  0  0  0
  4  5  1  0  0  0  0
  4 35  1  0  0  0  0
  4 36  1  0  0  0  0
  5 25  1  0  0  0  0
  5  6  1  0  0  0  0
  6  7  2  0  0  0  0
  6 37  1  0  0  0  0
  7  8  1  0  0  0  0
  8 25  2  0  0  0  0
  8  9  1  0  0  0  0
  9 10  1  0  0  0  0
  9 22  2  0  0  0  0
 10 15  1  0  0  0  0
 10 11  1  0  0  0  0
 11 12  1  0  0  0  0
 11 38  1  0  0  0  0
 11 39  1  0  0  0  0
 12 13  1  0  0  0  0
 12 40  1  0  0  0  0
 12 41  1  0  0  0  0
 13 14  1  0  0  0  0
 13 42  1  0  0  0  0
 13 43  1  0  0  0  0
 14 15  1  0  0  0  0
 14 44  1  0  0  0  0
 14 45  1  0  0  0  0
 15 16  1  0  0  0  0
 15 46  1  0  0  0  0
 16 20  1  0  0  0  0
 16 17  1  0  0  0  0
 16 47  1  0  0  0  0
 17 18  1  0  0  0  0
 17 48  1  0  0  0  0
 17 49  1  0  0  0  0
 18 19  1  0  0  0  0
 18 50  1  0  0  0  0
 18 51  1  0  0  0  0
 19 20  1  0  0  0  0
 19 52  1  0  0  0  0
 19 53  1  0  0  0  0
 20 21  1  0  0  0  0
 20 54  1  0  0  0  0
 21 55  1  0  0  0  0
 22 23  1  0  0  0  0
 23 24  2  0  0  0  0
 23 56  1  0  0  0  0
 24 25  1  0  0  0  0
 26 30  1  0  0  0  0
 26 27  1  0  0  0  0
 26 57  1  0  0  0  0
 27 28  1  0  0  0  0
 27 58  1  0  0  0  0
 27 59  1  0  0  0  0
 28 29  1  0  0  0  0
 28 60  1  0  0  0  0
 28 61  1  0  0  0  0
 29 30  1  0  0  0  0
 30 62  1  0  0  0  0
 30 63  1  0  0  0  0
M  END
> <s_m_source_file>
AV-unprocessed.smi

> <i_m_source_file_index>
148

> <i_lp_mmshare_version>
43012

> <i_f3d_flags>
0

> <s_epik_input>
W0NIMl0xT1tDSDJdW0NIMl1bQ0BIXTFbQ0BIXShbQ0gyXVtPSF0pW0NIMl1uKFtjSF1uMiljKGMyMyluW2NIXW5jM040W0NIMl1bQ0gyXVtDSDJdW0NIMl1bQ0BIXTRbQ0BASF01W0NIMl1bQ0gyXVtDSDJdW0NASF01W09IXQ==

> <s_epik_cmdline>
J2VwaWtfcHl0aG9uJywgJy1waCcsICc3LjAnLCAnLXRuJywgJzgnLCAnLW1hJywgJzIwMCcsICctbWV0YWxfYmluZGluZycsICctaW1hZScsICc8aW5maWxlLm1hZT4nLCAnLW9tYWUnLCAnPG91dGZpbGUubWFlPic=

> <r_lp_tautomer_probability>
1

> <r_epik_Ionization_Penalty>
0.00556303

> <r_epik_Ionization_Penalty_Charging>
0

> <r_epik_Ionization_Penalty_Neutral>
0.00556303

> <r_epik_State_Penalty>
0.00401767

> <r_epik_Charging_Adjusted_Penalty>
0.00401767

> <i_epik_Tot_Q>
0

> <i_epik_Tot_abs_Q>
0

> <r_epik_Metal_State_Penalty>
-0

> <b_epik_Metal_Only>
0

> <s_lp_Force_Field>
OPLS_2005

> <r_lp_Energy>
70.8238

> <b_lp_Chiralities_Consistent>
1

> <s_lp_Variant>
AV-unprocessed.smi:148-7

> <Gold.Version>
5.8.1

> <Gold.Id.Protein>
6NUR|6NUR_protein|mol2

> <Gold.PLP.Fitness>
51.7850

> <Gold.PLP.PLP>
-45.9838

> <Gold.PLP.part.hbond>
-3.8343

> <Gold.PLP.part.metal>
0.0000

> <Gold.PLP.part.buried>
-4.7292

> <Gold.PLP.part.nonpolar>
-38.8951

> <Gold.PLP.part.repulsive>
0.3417

> <Gold.PLP.ligand.clash>
1.0893

> <Gold.PLP.ligand.torsion>
1.5330

> <Gold.PLP.Chemscore.Hbond>
3.0843

> <Gold.PLP.Chemscore.CHOScore>
0.0000

> <Gold.PLP.Chemscore.Metal>
0.0000

> <Gold.Chemscore.Hbonds>
donor molecule, donor type, donor heavy atom, donor atom, acceptor molecule, acceptor atom, score
      L1  H     1    31       P1  7957  1.00
      P1  H  6896  6908       L1    21  0.81
      P1  H  7989  7998       L1    24  0.28
      P1  H  7997  8010       L1    22  1.00

> <Gold.PLP.Chemscore.Internal.Correction>
0.7037

> <Gold.Rescore>
     Score         DG    S(hbond)    S(metal)    S(lipo)     H(rot)  DE(clash)    DE(int)     intcor
     13.14     -17.80       2.52        0.00     105.93       3.32       0.03       4.63       ----

> <Gold.Chemscore.Fitness>
13.1355

> <Gold.Chemscore.DG>
-17.7959

> <Gold.Chemscore.ZeroCoef>
-5.4800

> <Gold.Chemscore.Hbond>
2.5216

> <Gold.Chemscore.Metal>
0.0000

> <Gold.Chemscore.Lipo>
105.9290

> <Gold.Chemscore.Internal_Hbond>
0.0000

> <Gold.Chemscore.DEClash>
0.0285

> <Gold.Chemscore.DEInternal>
4.6319

> <Gold.Chemscore.Rot>
3.3203

> <Gold.Chemscore.Internal.Correction>
   9.000000E+99

> <Gold.Chemscore.Hbonds>
donor molecule, donor type, donor heavy atom, donor atom, acceptor molecule, acceptor atom, score
      L1  H     1    31       P1  7957  1.00
      P1  H  6896  6908       L1    21  0.74
      P1  H  7997  8010       L1    22  0.40

> <Gold.Chemscore.Hbond.Weighted>
-8.4222

> <Gold.Chemscore.Metal.Weighted>
-0.0000

> <Gold.Chemscore.Lipo.Weighted>
-12.3937

> <Gold.Chemscore.Internal_Hbond.Weighted>
0.0000

> <Gold.Chemscore.DEClash.Weighted>
0.0285

> <Gold.Chemscore.DEInternal.Weighted>
4.6319

> <Gold.Chemscore.Rot.Weighted>
8.5000

> <Gold.Chemscore.Internal.Correction.Weighted>
   9.000000E+99

> <Gold.Protein.RotatedTorsions>
[ 6907 6896 6895 6894 ] final -105.77 input  -60.11 | X-H torsion
[ 7974 7965 7964 7962 ] final -163.90 input  175.53 | X-H torsion
[ 8008 7997 7996 7995 ] final   60.17 input   59.86 | X-H torsion
[ 10167 10162 10161 10158 ] final -106.82 input  -65.29 | X-H torsion
[ 10718 10713 10712 10709 ] final   70.89 input   66.30 | X-H torsion
[ 10763 10752 10751 10750 ] final  -25.89 input  -60.55 | X-H torsion
[ 11005 11000 10999 10996 ] final  -21.19 input  -57.11 | X-H torsion

> <Gold.Protein.ActiveResidues>
 VAL166  LYS551  ARG553  GLY616  TRP617  ASP618  TYR619  PRO620  LYS621  CYS622 
 ASP623  PHE694  ASN695  SER759  ASP760  ASP761  ALA762  ILE779  LEU786  VAL792 
 PHE793  MET794  SER795  GLU796  ALA797  LYS798  CYS799  TRP800  GLU811  SER814 

> <Gold.Protein.RotatedAtoms>
  150.7354  134.0076  159.3658 H   0  0  0  0  0  0  0  0  0  0  0  0  # atno 6907 bound_to 6896
  151.8034  135.0700  160.0412 H   0  0  0  0  0  0  0  0  0  0  0  0  # atno 6908 bound_to 6896
  152.3124  133.5730  159.5726 H   0  0  0  0  0  0  0  0  0  0  0  0  # atno 6909 bound_to 6896
  144.7312  140.3040  143.6199 H   0  0  0  0  0  0  0  0  0  0  0  0  # atno 7974 bound_to 7965
  155.5780  140.3491  155.4533 H   0  0  0  0  0  0  0  0  0  0  0  0  # atno 8008 bound_to 7997
  156.0394  140.1292  157.0197 H   0  0  0  0  0  0  0  0  0  0  0  0  # atno 8009 bound_to 7997
  154.4385  140.1027  156.6201 H   0  0  0  0  0  0  0  0  0  0  0  0  # atno 8010 bound_to 7997
  140.1837  143.3946  152.1261 H   0  0  0  0  0  0  0  0  0  0  0  0  # atno 10167 bound_to 10162
  157.6424  130.9500  150.0714 H   0  0  0  0  0  0  0  0  0  0  0  0  # atno 10718 bound_to 10713
  153.7072  135.6953  153.5047 H   0  0  0  0  0  0  0  0  0  0  0  0  # atno 10763 bound_to 10752
  153.2299  135.4341  155.0583 H   0  0  0  0  0  0  0  0  0  0  0  0  # atno 10764 bound_to 10752
  154.8326  135.3481  154.6610 H   0  0  0  0  0  0  0  0  0  0  0  0  # atno 10765 bound_to 10752
  140.8537  133.7838  155.9995 H   0  0  0  0  0  0  0  0  0  0  0  0  # atno 11005 bound_to 11000
  145.7732  139.1864  143.2200 LP  0  0  0  0  0  0  0  0  0  0  0  0  # atno 17320 bound_to 7965
  146.0894  140.7673  142.9603 LP  0  0  0  0  0  0  0  0  0  0  0  0  # atno 17321 bound_to 7965
  139.5285  144.7131  151.5141 LP  0  0  0  0  0  0  0  0  0  0  0  0  # atno 17342 bound_to 10162
  140.6503  143.8711  150.6778 LP  0  0  0  0  0  0  0  0  0  0  0  0  # atno 17343 bound_to 10162
  156.1717  130.3646  149.9156 LP  0  0  0  0  0  0  0  0  0  0  0  0  # atno 17370 bound_to 10713
  156.7130  130.8977  151.3611 LP  0  0  0  0  0  0  0  0  0  0  0  0  # atno 17371 bound_to 10713
  140.8761  134.2667  157.5167 LP  0  0  0  0  0  0  0  0  0  0  0  0  # atno 17394 bound_to 11000
  139.8704  134.9592  156.4323 LP  0  0  0  0  0  0  0  0  0  0  0  0  # atno 17395 bound_to 11000

$$$$
