AV-unprocessed.smi:2637|AV-procd|sdf|10261|dock5
  -GOLD-   2272014273D 1   1.00000     0.00000
 Structure written by MMmdl.
 40 41  0  0  0  0  0  0  0  0  1 V2000
  150.8618  141.9550  156.5172 C   0  0  0  0  0  0  0  0  0  0  0  0
  150.5165  140.8041  155.6189 C   0  0  0  0  0  0  0  0  0  0  0  0
  149.3092  140.5894  154.8925 C   0  0  0  0  0  0  0  0  0  0  0  0
  149.5475  139.4019  154.2560 C   0  0  0  0  0  0  0  0  0  0  0  0
  148.7376  138.7041  153.4158 N   0  0  0  0  0  0  0  0  0  0  0  0
  147.4083  138.8119  153.2465 C   0  0  0  0  0  0  0  0  0  0  0  0
  146.6745  139.6023  153.8404 O   0  0  0  0  0  0  0  0  0  0  0  0
  146.9650  137.9308  152.3378 N   0  0  0  0  0  0  0  0  0  0  0  0
  145.5745  137.7655  151.9244 C   0  0  0  0  0  0  0  0  0  0  0  0
  145.1259  136.2950  151.9798 C   0  0  0  0  0  0  0  0  0  0  0  0
  145.6796  135.4276  150.8331 C   0  0  0  0  0  0  0  0  0  0  0  0
  145.4345  134.0020  151.0715 N   0  0  0  0  0  0  0  0  0  0  0  0
  144.6735  133.2269  150.2860 C   0  0  0  0  0  0  0  0  0  0  0  0
  144.0738  133.5819  149.2716 O   0  0  0  0  0  0  0  0  0  0  0  0
  144.6359  131.7951  150.8034 C   0  0  0  0  0  0  0  0  0  0  0  0
  145.5324  131.8515  152.0444 C   0  0  0  0  0  0  0  0  0  0  0  0
  145.9688  133.3096  152.0875 C   0  0  0  0  0  0  0  0  0  0  0  0
  146.7208  133.7522  152.9556 O   0  0  0  0  0  0  0  0  0  0  0  0
  150.8070  138.9602  154.5956 N   0  0  0  0  0  0  0  0  0  0  0  0
  151.5086  137.7623  154.1768 C   0  0  0  0  0  0  0  0  0  0  0  0
  151.4034  139.8320  155.4372 N   0  0  0  0  0  0  0  0  0  0  0  0
  150.0632  142.6970  156.5317 H   0  0  0  0  0  0  0  0  0  0  0  0
  151.7722  142.4543  156.1845 H   0  0  0  0  0  0  0  0  0  0  0  0
  151.0203  141.6183  157.5420 H   0  0  0  0  0  0  0  0  0  0  0  0
  148.4298  141.2148  154.8589 H   0  0  0  0  0  0  0  0  0  0  0  0
  149.2022  138.0077  152.8520 H   0  0  0  0  0  0  0  0  0  0  0  0
  147.6405  137.3196  151.9026 H   0  0  0  0  0  0  0  0  0  0  0  0
  144.9054  138.3904  152.5184 H   0  0  0  0  0  0  0  0  0  0  0  0
  145.4926  138.1272  150.8992 H   0  0  0  0  0  0  0  0  0  0  0  0
  145.4475  135.8715  152.9323 H   0  0  0  0  0  0  0  0  0  0  0  0
  144.0359  136.2502  151.9826 H   0  0  0  0  0  0  0  0  0  0  0  0
  145.2268  135.7171  149.8840 H   0  0  0  0  0  0  0  0  0  0  0  0
  146.7488  135.6112  150.7139 H   0  0  0  0  0  0  0  0  0  0  0  0
  143.6144  131.5063  151.0530 H   0  0  0  0  0  0  0  0  0  0  0  0
  145.0239  131.1063  150.0521 H   0  0  0  0  0  0  0  0  0  0  0  0
  144.9880  131.5879  152.9517 H   0  0  0  0  0  0  0  0  0  0  0  0
  146.3987  131.1960  151.9499 H   0  0  0  0  0  0  0  0  0  0  0  0
  150.8427  136.9014  154.2443 H   0  0  0  0  0  0  0  0  0  0  0  0
  152.3765  137.5845  154.8133 H   0  0  0  0  0  0  0  0  0  0  0  0
  151.8414  137.8766  153.1448 H   0  0  0  0  0  0  0  0  0  0  0  0
  1  2  1  0  0  0  0
  1 22  1  0  0  0  0
  1 23  1  0  0  0  0
  1 24  1  0  0  0  0
  2 21  2  0  0  0  0
  2  3  1  0  0  0  0
  3  4  2  0  0  0  0
  3 25  1  0  0  0  0
  4  5  1  0  0  0  0
  4 19  1  0  0  0  0
  5  6  1  0  0  0  0
  5 26  1  0  0  0  0
  6  7  2  0  0  0  0
  6  8  1  0  0  0  0
  8  9  1  0  0  0  0
  8 27  1  0  0  0  0
  9 10  1  0  0  0  0
  9 28  1  0  0  0  0
  9 29  1  0  0  0  0
 10 11  1  0  0  0  0
 10 30  1  0  0  0  0
 10 31  1  0  0  0  0
 11 12  1  0  0  0  0
 11 32  1  0  0  0  0
 11 33  1  0  0  0  0
 12 17  1  0  0  0  0
 12 13  1  0  0  0  0
 13 14  2  0  0  0  0
 13 15  1  0  0  0  0
 15 16  1  0  0  0  0
 15 34  1  0  0  0  0
 15 35  1  0  0  0  0
 16 17  1  0  0  0  0
 16 36  1  0  0  0  0
 16 37  1  0  0  0  0
 17 18  2  0  0  0  0
 19 20  1  0  0  0  0
 19 21  1  0  0  0  0
 20 38  1  0  0  0  0
 20 39  1  0  0  0  0
 20 40  1  0  0  0  0
M  END
> <s_m_source_file>
AV-unprocessed.smi

> <i_m_source_file_index>
2637

> <i_lp_mmshare_version>
43012

> <i_f3d_flags>
0

> <s_epik_input>
W0NIM11jMVtjSF1jKG4objEpW0NIM10pW05IXUMoPU8pW05IXVtDSDJdW0NIMl1bQ0gyXU4yQyg9TylbQ0gyXVtDSDJdQzI9Tw==

> <s_epik_cmdline>
J2VwaWtfcHl0aG9uJywgJy1waCcsICc3LjAnLCAnLXRuJywgJzgnLCAnLW1hJywgJzIwMCcsICctbWV0YWxfYmluZGluZycsICctaW1hZScsICc8aW5maWxlLm1hZT4nLCAnLW9tYWUnLCAnPG91dGZpbGUubWFlPic=

> <r_lp_tautomer_probability>
1

> <r_epik_Ionization_Penalty>
9.41646e-05

> <r_epik_Ionization_Penalty_Charging>
0

> <r_epik_Ionization_Penalty_Neutral>
9.41646e-05

> <r_epik_State_Penalty>
-0

> <r_epik_Charging_Adjusted_Penalty>
0

> <i_epik_Tot_Q>
0

> <i_epik_Tot_abs_Q>
0

> <r_epik_Metal_State_Penalty>
-0

> <b_epik_Metal_Only>
0

> <s_lp_Force_Field>
OPLS_2005

> <r_lp_Energy>
13.5658

> <b_lp_Chiralities_Consistent>
1

> <s_lp_Variant>
AV-unprocessed.smi:2637-1

> <Gold.Version>
5.8.1

> <Gold.Id.Protein>
6NUR|6NUR_protein|mol2

> <Gold.PLP.Fitness>
44.8513

> <Gold.PLP.PLP>
-39.4780

> <Gold.PLP.part.hbond>
-3.8162

> <Gold.PLP.part.metal>
0.0000

> <Gold.PLP.part.buried>
-3.5785

> <Gold.PLP.part.nonpolar>
-33.6374

> <Gold.PLP.part.repulsive>
1.8521

> <Gold.PLP.ligand.clash>
0.0000

> <Gold.PLP.ligand.torsion>
0.2128

> <Gold.PLP.Chemscore.Hbond>
1.9120

> <Gold.PLP.Chemscore.CHOScore>
0.0000

> <Gold.PLP.Chemscore.Metal>
0.0000

> <Gold.Chemscore.Hbonds>
donor molecule, donor type, donor heavy atom, donor atom, acceptor molecule, acceptor atom, score
      L1  H     5    26       P1  7948  0.91
      L1  H     8    27       P1  7948  1.00

> <Gold.PLP.Chemscore.Internal.Correction>
0.0629

> <Gold.Rescore>
     Score         DG    S(hbond)    S(metal)    S(lipo)     H(rot)  DE(clash)    DE(int)     intcor
     13.11     -13.76       1.92        0.00      61.43       2.07       0.21       0.44       ----

> <Gold.Chemscore.Fitness>
13.1140

> <Gold.Chemscore.DG>
-13.7639

> <Gold.Chemscore.ZeroCoef>
-5.4800

> <Gold.Chemscore.Hbond>
1.9150

> <Gold.Chemscore.Metal>
0.0000

> <Gold.Chemscore.Lipo>
61.4289

> <Gold.Chemscore.Internal_Hbond>
0.0000

> <Gold.Chemscore.DEClash>
0.2079

> <Gold.Chemscore.DEInternal>
0.4421

> <Gold.Chemscore.Rot>
2.0701

> <Gold.Chemscore.Internal.Correction>
   9.000000E+99

> <Gold.Chemscore.Hbonds>
donor molecule, donor type, donor heavy atom, donor atom, acceptor molecule, acceptor atom, score
      L1  H     5    26       P1  7948  0.83
      L1  H     8    27       P1  7948  0.99

> <Gold.Chemscore.Hbond.Weighted>
-6.3962

> <Gold.Chemscore.Metal.Weighted>
-0.0000

> <Gold.Chemscore.Lipo.Weighted>
-7.1872

> <Gold.Chemscore.Internal_Hbond.Weighted>
0.0000

> <Gold.Chemscore.DEClash.Weighted>
0.2079

> <Gold.Chemscore.DEInternal.Weighted>
0.4421

> <Gold.Chemscore.Rot.Weighted>
5.2995

> <Gold.Chemscore.Internal.Correction.Weighted>
   9.000000E+99

> <Gold.Protein.RotatedTorsions>
[ 6907 6896 6895 6894 ] final  166.01 input  -60.11 | X-H torsion
[ 7974 7965 7964 7962 ] final  -29.95 input  175.53 | X-H torsion
[ 8008 7997 7996 7995 ] final -174.09 input   59.86 | X-H torsion
[ 10167 10162 10161 10158 ] final -158.89 input  -65.29 | X-H torsion
[ 10718 10713 10712 10709 ] final  141.65 input   66.30 | X-H torsion
[ 10763 10752 10751 10750 ] final -140.36 input  -60.55 | X-H torsion
[ 11005 11000 10999 10996 ] final  -82.32 input  -57.11 | X-H torsion

> <Gold.Protein.ActiveResidues>
 VAL166  LYS551  ARG553  GLY616  TRP617  ASP618  TYR619  PRO620  LYS621  CYS622 
 ASP623  PHE694  ASN695  SER759  ASP760  ASP761  ALA762  ILE779  LEU786  VAL792 
 PHE793  MET794  SER795  GLU796  ALA797  LYS798  CYS799  TRP800  GLU811  SER814 

> <Gold.Protein.RotatedAtoms>
  151.8855  133.3504  159.3780 H   0  0  0  0  0  0  0  0  0  0  0  0  # atno 6907 bound_to 6896
  150.7116  134.4976  159.5555 H   0  0  0  0  0  0  0  0  0  0  0  0  # atno 6908 bound_to 6896
  152.2536  134.8107  160.0493 H   0  0  0  0  0  0  0  0  0  0  0  0  # atno 6909 bound_to 6896
  146.1179  140.5478  142.8749 H   0  0  0  0  0  0  0  0  0  0  0  0  # atno 7974 bound_to 7965
  155.9657  140.1153  157.0857 H   0  0  0  0  0  0  0  0  0  0  0  0  # atno 8008 bound_to 7997
  154.4143  140.1173  156.5306 H   0  0  0  0  0  0  0  0  0  0  0  0  # atno 8009 bound_to 7997
  155.6662  140.3473  155.4803 H   0  0  0  0  0  0  0  0  0  0  0  0  # atno 8010 bound_to 7997
  139.6657  143.9833  152.2253 H   0  0  0  0  0  0  0  0  0  0  0  0  # atno 10167 bound_to 10162
  157.3896  131.1003  151.0659 H   0  0  0  0  0  0  0  0  0  0  0  0  # atno 10718 bound_to 10713
  154.8581  135.3555  154.5695 H   0  0  0  0  0  0  0  0  0  0  0  0  # atno 10763 bound_to 10752
  153.6308  135.7002  153.5281 H   0  0  0  0  0  0  0  0  0  0  0  0  # atno 10764 bound_to 10752
  153.3051  135.4195  155.1246 H   0  0  0  0  0  0  0  0  0  0  0  0  # atno 10765 bound_to 10752
  141.1663  133.7239  156.8554 H   0  0  0  0  0  0  0  0  0  0  0  0  # atno 11005 bound_to 11000
  144.7569  140.5330  143.6762 LP  0  0  0  0  0  0  0  0  0  0  0  0  # atno 17320 bound_to 7965
  145.5529  139.1477  143.3384 LP  0  0  0  0  0  0  0  0  0  0  0  0  # atno 17321 bound_to 7965
  139.9584  144.6574  150.8103 LP  0  0  0  0  0  0  0  0  0  0  0  0  # atno 17342 bound_to 10162
  140.7598  143.3138  151.2782 LP  0  0  0  0  0  0  0  0  0  0  0  0  # atno 17343 bound_to 10162
  157.1698  130.6262  149.5637 LP  0  0  0  0  0  0  0  0  0  0  0  0  # atno 17370 bound_to 10713
  155.9795  130.4789  150.6719 LP  0  0  0  0  0  0  0  0  0  0  0  0  # atno 17371 bound_to 10713
  140.1886  134.8982  157.3034 LP  0  0  0  0  0  0  0  0  0  0  0  0  # atno 17394 bound_to 11000
  140.2315  134.3903  155.7520 LP  0  0  0  0  0  0  0  0  0  0  0  0  # atno 17395 bound_to 11000

$$$$
