AV-unprocessed.smi:1966|AV-procd|sdf|7952|dock2
  -GOLD-   2272010123D 1   1.00000     0.00000
 Structure written by MMmdl.
 53 54  0  0  0  0  0  0  0  0  1 V2000
  142.6111  137.3211  153.0112 C   0  0  0  0  0  0  0  0  0  0  0  0
  144.1071  137.0369  153.0889 C   0  0  0  0  0  0  0  0  0  0  0  0
  144.5077  135.8932  153.3031 O   0  0  0  0  0  0  0  0  0  0  0  0
  144.9233  138.0875  152.9091 N   0  0  0  0  0  0  0  0  0  0  0  0
  146.3869  138.0418  152.9495 C   0  0  2  0  0  0  0  0  0  0  0  0
  146.8876  139.0591  153.9939 C   0  0  0  0  0  0  0  0  0  0  0  0
  146.0815  139.7743  154.5906 O   0  0  0  0  0  0  0  0  0  0  0  0
  148.2191  139.0888  154.1873 N   0  0  0  0  0  0  0  0  0  0  0  0
  148.9644  139.9381  155.0481 C   0  0  0  0  0  0  0  0  0  0  0  0
  150.3122  140.3050  154.8235 C   0  0  0  0  0  0  0  0  0  0  0  0
  150.9576  141.1336  155.7610 C   0  0  0  0  0  0  0  0  0  0  0  0
  150.2410  141.5634  156.8965 C   0  0  0  0  0  0  0  0  0  0  0  0
  150.8822  142.3886  157.8310 N   0  0  0  0  0  0  0  0  0  0  0  0
  151.3859  143.6316  157.2617 C   0  0  0  0  0  0  0  0  0  0  0  0
  151.9490  144.5489  158.3654 C   0  0  1  0  0  0  0  0  0  0  0  0
  150.8606  145.2229  159.2196 C   0  0  0  0  0  0  0  0  0  0  0  0
  152.8953  143.8337  159.1652 O   0  0  0  0  0  0  0  0  0  0  0  0
  152.4022  142.6237  159.7420 C   0  0  2  0  0  0  0  0  0  0  0  0
  153.5399  141.9810  160.5417 C   0  0  0  0  0  0  0  0  0  0  0  0
  151.8867  141.6969  158.6263 C   0  0  0  0  0  0  0  0  0  0  0  0
  148.9553  141.2051  157.1255 N   0  0  0  0  0  0  0  0  0  0  0  0
  148.3429  140.4089  156.2234 C   0  0  0  0  0  0  0  0  0  0  0  0
  146.9431  138.4069  151.5411 C   0  0  0  0  0  0  0  0  0  0  0  0
  146.8434  139.9188  151.2572 C   0  0  0  0  0  0  0  0  0  0  0  0
  146.2493  137.6343  150.3996 C   0  0  0  0  0  0  0  0  0  0  0  0
  142.3657  138.2492  153.5284 H   0  0  0  0  0  0  0  0  0  0  0  0
  142.0412  136.5139  153.4726 H   0  0  0  0  0  0  0  0  0  0  0  0
  142.2979  137.4109  151.9709 H   0  0  0  0  0  0  0  0  0  0  0  0
  144.5034  138.9913  152.7471 H   0  0  0  0  0  0  0  0  0  0  0  0
  146.7148  137.0351  153.2180 H   0  0  0  0  0  0  0  0  0  0  0  0
  148.7529  138.3790  153.7063 H   0  0  0  0  0  0  0  0  0  0  0  0
  150.8645  139.9564  153.9646 H   0  0  0  0  0  0  0  0  0  0  0  0
  151.9859  141.4282  155.6112 H   0  0  0  0  0  0  0  0  0  0  0  0
  152.1754  143.4024  156.5444 H   0  0  0  0  0  0  0  0  0  0  0  0
  150.5937  144.1407  156.7114 H   0  0  0  0  0  0  0  0  0  0  0  0
  152.5063  145.3490  157.8778 H   0  0  0  0  0  0  0  0  0  0  0  0
  150.2231  145.8558  158.6019 H   0  0  0  0  0  0  0  0  0  0  0  0
  151.3054  145.8549  159.9885 H   0  0  0  0  0  0  0  0  0  0  0  0
  150.2139  144.4985  159.7138 H   0  0  0  0  0  0  0  0  0  0  0  0
  151.5902  142.8508  160.4329 H   0  0  0  0  0  0  0  0  0  0  0  0
  153.2144  141.0520  161.0103 H   0  0  0  0  0  0  0  0  0  0  0  0
  153.8855  142.6479  161.3320 H   0  0  0  0  0  0  0  0  0  0  0  0
  154.3925  141.7529  159.9014 H   0  0  0  0  0  0  0  0  0  0  0  0
  151.4562  140.7920  159.0575 H   0  0  0  0  0  0  0  0  0  0  0  0
  152.7134  141.3879  157.9847 H   0  0  0  0  0  0  0  0  0  0  0  0
  147.3199  140.1432  156.4472 H   0  0  0  0  0  0  0  0  0  0  0  0
  148.0027  138.1466  151.5087 H   0  0  0  0  0  0  0  0  0  0  0  0
  145.8101  140.2628  151.3112 H   0  0  0  0  0  0  0  0  0  0  0  0
  147.2196  140.1575  150.2620 H   0  0  0  0  0  0  0  0  0  0  0  0
  147.4278  140.5069  151.9648 H   0  0  0  0  0  0  0  0  0  0  0  0
  145.1729  137.8086  150.4031 H   0  0  0  0  0  0  0  0  0  0  0  0
  146.4136  136.5590  150.4701 H   0  0  0  0  0  0  0  0  0  0  0  0
  146.6308  137.9460  149.4269 H   0  0  0  0  0  0  0  0  0  0  0  0
  1  2  1  0  0  0  0
  1 26  1  0  0  0  0
  1 27  1  0  0  0  0
  1 28  1  0  0  0  0
  2  3  2  0  0  0  0
  2  4  1  0  0  0  0
  4  5  1  0  0  0  0
  4 29  1  0  0  0  0
  5  6  1  0  0  0  0
  5 23  1  0  0  0  0
  5 30  1  0  0  0  0
  6  7  2  0  0  0  0
  6  8  1  0  0  0  0
  8  9  1  0  0  0  0
  8 31  1  0  0  0  0
  9 22  1  0  0  0  0
  9 10  2  0  0  0  0
 10 11  1  0  0  0  0
 10 32  1  0  0  0  0
 11 12  2  0  0  0  0
 11 33  1  0  0  0  0
 12 13  1  0  0  0  0
 12 21  1  0  0  0  0
 13 20  1  0  0  0  0
 13 14  1  0  0  0  0
 14 15  1  0  0  0  0
 14 34  1  0  0  0  0
 14 35  1  0  0  0  0
 15 16  1  0  0  0  0
 15 17  1  0  0  0  0
 15 36  1  0  0  0  0
 16 37  1  0  0  0  0
 16 38  1  0  0  0  0
 16 39  1  0  0  0  0
 17 18  1  0  0  0  0
 18 19  1  0  0  0  0
 18 20  1  0  0  0  0
 18 40  1  0  0  0  0
 19 41  1  0  0  0  0
 19 42  1  0  0  0  0
 19 43  1  0  0  0  0
 20 44  1  0  0  0  0
 20 45  1  0  0  0  0
 21 22  2  0  0  0  0
 22 46  1  0  0  0  0
 23 24  1  0  0  0  0
 23 25  1  0  0  0  0
 23 47  1  0  0  0  0
 24 48  1  0  0  0  0
 24 49  1  0  0  0  0
 24 50  1  0  0  0  0
 25 51  1  0  0  0  0
 25 52  1  0  0  0  0
 25 53  1  0  0  0  0
M  END
> <s_m_source_file>
AV-unprocessed.smi

> <i_m_source_file_index>
1966

> <i_lp_mmshare_version>
43012

> <i_f3d_flags>
0

> <s_epik_input>
W0NIM11DKD1PKVtOSF1bQ0BASF0oW0NIXShbQ0gzXSlbQ0gzXSlDKD1PKVtOSF1jMVtjSF1bY0hdYyhuW2NIXTEpTjJbQ0gyXVtDQEBIXShbQ0gzXSlPW0NAQEhdKFtDSDNdKVtDSDJdMg==

> <s_epik_cmdline>
J2VwaWtfcHl0aG9uJywgJy1waCcsICc3LjAnLCAnLXRuJywgJzgnLCAnLW1hJywgJzIwMCcsICctbWV0YWxfYmluZGluZycsICctaW1hZScsICc8aW5maWxlLm1hZT4nLCAnLW9tYWUnLCAnPG91dGZpbGUubWFlPic=

> <r_lp_tautomer_probability>
1

> <r_epik_Ionization_Penalty>
0.000679699

> <r_epik_Ionization_Penalty_Charging>
0

> <r_epik_Ionization_Penalty_Neutral>
0.000679699

> <r_epik_State_Penalty>
0.000430485

> <r_epik_Charging_Adjusted_Penalty>
0.000430485

> <i_epik_Tot_Q>
0

> <i_epik_Tot_abs_Q>
0

> <r_epik_Metal_State_Penalty>
-0

> <b_epik_Metal_Only>
0

> <s_lp_Force_Field>
OPLS_2005

> <r_lp_Energy>
29.6381

> <b_lp_Chiralities_Consistent>
1

> <s_lp_Variant>
AV-unprocessed.smi:1966-5

> <Gold.Version>
5.8.1

> <Gold.Id.Protein>
6NUR|6NUR_protein|mol2

> <Gold.PLP.Fitness>
45.1213

> <Gold.PLP.PLP>
-43.0116

> <Gold.PLP.part.hbond>
-1.0000

> <Gold.PLP.part.metal>
0.0000

> <Gold.PLP.part.buried>
5.9946

> <Gold.PLP.part.nonpolar>
-47.2392

> <Gold.PLP.part.repulsive>
0.2936

> <Gold.PLP.ligand.clash>
0.0000

> <Gold.PLP.ligand.torsion>
0.5375

> <Gold.PLP.Chemscore.Hbond>
1.0000

> <Gold.PLP.Chemscore.CHOScore>
0.0000

> <Gold.PLP.Chemscore.Metal>
0.0000

> <Gold.Chemscore.Hbonds>
donor molecule, donor type, donor heavy atom, donor atom, acceptor molecule, acceptor atom, score
      L1  H     4    29       P1 10175  1.00

> <Gold.PLP.Chemscore.Internal.Correction>
0.1847

> <Gold.Rescore>
     Score         DG    S(hbond)    S(metal)    S(lipo)     H(rot)  DE(clash)    DE(int)     intcor
     15.12     -19.08       1.00        0.00     124.40       1.68       2.23       1.74       ----

> <Gold.Chemscore.Fitness>
15.1165

> <Gold.Chemscore.DG>
-19.0802

> <Gold.Chemscore.ZeroCoef>
-5.4800

> <Gold.Chemscore.Hbond>
0.9988

> <Gold.Chemscore.Metal>
0.0000

> <Gold.Chemscore.Lipo>
124.3957

> <Gold.Chemscore.Internal_Hbond>
0.0000

> <Gold.Chemscore.DEClash>
2.2284

> <Gold.Chemscore.DEInternal>
1.7352

> <Gold.Chemscore.Rot>
1.6759

> <Gold.Chemscore.Internal.Correction>
   9.000000E+99

> <Gold.Chemscore.Hbonds>
donor molecule, donor type, donor heavy atom, donor atom, acceptor molecule, acceptor atom, score
      L1  H     4    29       P1 10175  1.00

> <Gold.Chemscore.Hbond.Weighted>
-3.3361

> <Gold.Chemscore.Metal.Weighted>
-0.0000

> <Gold.Chemscore.Lipo.Weighted>
-14.5543

> <Gold.Chemscore.Internal_Hbond.Weighted>
0.0000

> <Gold.Chemscore.DEClash.Weighted>
2.2284

> <Gold.Chemscore.DEInternal.Weighted>
1.7352

> <Gold.Chemscore.Rot.Weighted>
4.2902

> <Gold.Chemscore.Internal.Correction.Weighted>
   9.000000E+99

> <Gold.Protein.RotatedTorsions>
[ 6907 6896 6895 6894 ] final  -73.59 input  -60.11 | X-H torsion
[ 7974 7965 7964 7962 ] final  -25.97 input  175.53 | X-H torsion
[ 8008 7997 7996 7995 ] final -106.02 input   59.86 | X-H torsion
[ 10167 10162 10161 10158 ] final  137.48 input  -65.29 | X-H torsion
[ 10718 10713 10712 10709 ] final  137.90 input   66.30 | X-H torsion
[ 10763 10752 10751 10750 ] final -127.15 input  -60.55 | X-H torsion
[ 11005 11000 10999 10996 ] final  119.76 input  -57.11 | X-H torsion

> <Gold.Protein.ActiveResidues>
 VAL166  LYS551  ARG553  GLY616  TRP617  ASP618  TYR619  PRO620  LYS621  CYS622 
 ASP623  PHE694  ASN695  SER759  ASP760  ASP761  ALA762  ILE779  LEU786  VAL792 
 PHE793  MET794  SER795  GLU796  ALA797  LYS798  CYS799  TRP800  GLU811  SER814 

> <Gold.Protein.RotatedAtoms>
  150.7124  134.4994  159.5553 H   0  0  0  0  0  0  0  0  0  0  0  0  # atno 6907 bound_to 6896
  152.2595  134.8046  160.0442 H   0  0  0  0  0  0  0  0  0  0  0  0  # atno 6908 bound_to 6896
  151.8765  133.3451  159.3789 H   0  0  0  0  0  0  0  0  0  0  0  0  # atno 6909 bound_to 6896
  146.1456  140.4958  142.8633 H   0  0  0  0  0  0  0  0  0  0  0  0  # atno 7974 bound_to 7965
  154.9083  140.0410  157.1932 H   0  0  0  0  0  0  0  0  0  0  0  0  # atno 8008 bound_to 7997
  154.8373  140.2909  155.5661 H   0  0  0  0  0  0  0  0  0  0  0  0  # atno 8009 bound_to 7997
  156.2990  140.2489  156.3310 H   0  0  0  0  0  0  0  0  0  0  0  0  # atno 8010 bound_to 7997
  139.5143  144.6407  151.5575 H   0  0  0  0  0  0  0  0  0  0  0  0  # atno 10167 bound_to 10162
  157.4312  131.1048  151.0248 H   0  0  0  0  0  0  0  0  0  0  0  0  # atno 10718 bound_to 10713
  154.8750  135.3971  154.3547 H   0  0  0  0  0  0  0  0  0  0  0  0  # atno 10763 bound_to 10752
  153.4328  135.7025  153.6225 H   0  0  0  0  0  0  0  0  0  0  0  0  # atno 10764 bound_to 10752
  153.4839  135.3763  155.2426 H   0  0  0  0  0  0  0  0  0  0  0  0  # atno 10765 bound_to 10752
  139.9159  134.9630  156.7703 H   0  0  0  0  0  0  0  0  0  0  0  0  # atno 11005 bound_to 11000
  144.7842  140.5903  143.6585 LP  0  0  0  0  0  0  0  0  0  0  0  0  # atno 17320 bound_to 7965
  145.4945  139.1486  143.3691 LP  0  0  0  0  0  0  0  0  0  0  0  0  # atno 17321 bound_to 7965
  140.6173  143.9324  150.6498 LP  0  0  0  0  0  0  0  0  0  0  0  0  # atno 17342 bound_to 10162
  140.2586  143.3540  152.1342 LP  0  0  0  0  0  0  0  0  0  0  0  0  # atno 17343 bound_to 10162
  157.1144  130.6035  149.5490 LP  0  0  0  0  0  0  0  0  0  0  0  0  # atno 17370 bound_to 10713
  155.9914  130.4968  150.7296 LP  0  0  0  0  0  0  0  0  0  0  0  0  # atno 17371 bound_to 10713
  140.6626  133.9631  155.7813 LP  0  0  0  0  0  0  0  0  0  0  0  0  # atno 17394 bound_to 11000
  141.0633  134.0314  157.3629 LP  0  0  0  0  0  0  0  0  0  0  0  0  # atno 17395 bound_to 11000

$$$$
