AV-unprocessed.smi:2562|AV-procd|sdf|10044|dock2
  -GOLD-   2272014 83D 1   1.00000     0.00000
 Structure written by MMmdl.
 31 32  0  0  0  0  0  0  0  0  2 V2000
  152.0738  144.6633  159.9295 C   0  0  0  0  0  0  0  0  0  0  0  0
  153.0339  143.5222  159.5763 C   0  0  0  0  0  0  0  0  0  0  0  0
  152.3111  142.1818  159.3783 C   0  0  0  0  0  0  0  0  0  0  0  0
  151.4009  142.2034  158.1949 C   0  0  0  0  0  0  0  0  0  0  0  0
  150.4649  143.1417  158.0601 N   0  0  0  0  0  0  0  0  0  0  0  0
  149.8562  142.7688  156.9150 N   0  0  0  0  0  0  0  0  0  0  0  0
  150.4324  141.6583  156.4489 C   0  0  0  0  0  0  0  0  0  0  0  0
  149.9600  140.9768  155.2037 C   0  0  2  0  0  0  0  0  0  0  0  0
  148.6423  141.5744  154.6731 C   0  0  0  0  0  0  0  0  0  0  0  0
  148.1695  140.8010  153.5085 N   0  3  0  0  0  0  0  0  0  0  0  0
  148.0444  139.3655  153.8291 C   0  0  0  0  0  0  0  0  0  0  0  0
  149.3733  138.8312  154.3919 C   0  0  0  0  0  0  0  0  0  0  0  0
  149.7607  139.6019  155.5247 O   0  0  0  0  0  0  0  0  0  0  0  0
  151.4245  141.2374  157.2280 N   0  0  0  0  0  0  0  0  0  0  0  0
  149.0816  143.2773  156.5129 H   0  0  0  0  0  0  0  0  0  0  0  0
  152.6142  145.6031  160.0447 H   0  0  0  0  0  0  0  0  0  0  0  0
  151.5515  144.4627  160.8655 H   0  0  0  0  0  0  0  0  0  0  0  0
  151.3247  144.8042  159.1500 H   0  0  0  0  0  0  0  0  0  0  0  0
  153.5789  143.7802  158.6676 H   0  0  0  0  0  0  0  0  0  0  0  0
  153.7795  143.4237  160.3662 H   0  0  0  0  0  0  0  0  0  0  0  0
  153.0391  141.3788  159.2550 H   0  0  0  0  0  0  0  0  0  0  0  0
  151.7286  141.9367  160.2673 H   0  0  0  0  0  0  0  0  0  0  0  0
  150.7420  141.0590  154.4462 H   0  0  0  0  0  0  0  0  0  0  0  0
  147.8742  141.5536  155.4480 H   0  0  0  0  0  0  0  0  0  0  0  0
  148.7795  142.6168  154.3840 H   0  0  0  0  0  0  0  0  0  0  0  0
  147.2732  141.1582  153.2089 H   0  0  0  0  0  0  0  0  0  0  0  0
  147.2445  139.2293  154.5583 H   0  0  0  0  0  0  0  0  0  0  0  0
  147.7589  138.8173  152.9311 H   0  0  0  0  0  0  0  0  0  0  0  0
  149.2625  137.7896  154.6938 H   0  0  0  0  0  0  0  0  0  0  0  0
  150.1572  138.8615  153.6334 H   0  0  0  0  0  0  0  0  0  0  0  0
  148.8346  140.9078  152.7556 H   0  0  0  0  0  0  0  0  0  0  0  0
  1  2  1  0  0  0  0
  1 16  1  0  0  0  0
  1 17  1  0  0  0  0
  1 18  1  0  0  0  0
  2  3  1  0  0  0  0
  2 19  1  0  0  0  0
  2 20  1  0  0  0  0
  3  4  1  0  0  0  0
  3 21  1  0  0  0  0
  3 22  1  0  0  0  0
  4 14  1  0  0  0  0
  4  5  2  0  0  0  0
  5  6  1  0  0  0  0
  6 15  1  0  0  0  0
  6  7  1  0  0  0  0
  7  8  1  0  0  0  0
  7 14  2  0  0  0  0
  8 13  1  0  0  0  0
  8  9  1  0  0  0  0
  8 23  1  0  0  0  0
  9 10  1  0  0  0  0
  9 24  1  0  0  0  0
  9 25  1  0  0  0  0
 10 11  1  0  0  0  0
 10 26  1  0  0  0  0
 10 31  1  0  0  0  0
 11 12  1  0  0  0  0
 11 27  1  0  0  0  0
 11 28  1  0  0  0  0
 12 13  1  0  0  0  0
 12 29  1  0  0  0  0
 12 30  1  0  0  0  0
M  CHG  1  10   1
M  END
> <s_m_source_file>
AV-unprocessed.smi

> <i_m_source_file_index>
2562

> <i_lp_mmshare_version>
43012

> <i_f3d_flags>
0

> <s_epik_input>
W0NIM11bQ0gyXVtDSDJdYzFuW25IXWMobjEpW0NAQEhdMltDSDJdW05IXVtDSDJdW0NIMl1PMg==

> <s_epik_cmdline>
J2VwaWtfcHl0aG9uJywgJy1waCcsICc3LjAnLCAnLXRuJywgJzgnLCAnLW1hJywgJzIwMCcsICctbWV0YWxfYmluZGluZycsICctaW1hZScsICc8aW5maWxlLm1hZT4nLCAnLW9tYWUnLCAnPG91dGZpbGUubWFlPic=

> <r_epik_Ionization_Penalty>
0.162344

> <r_epik_Ionization_Penalty_Charging>
0.125708

> <r_epik_Ionization_Penalty_Neutral>
0.0366364

> <r_epik_State_Penalty>
0.771409

> <r_epik_Charging_Adjusted_Penalty>
0.897117

> <i_epik_Tot_Q>
1

> <i_epik_Tot_abs_Q>
1

> <r_epik_Metal_State_Penalty>
0.893868

> <b_epik_Metal_Only>
0

> <s_lp_Force_Field>
OPLS_2005

> <r_lp_Energy>
9.76643

> <b_lp_Chiralities_Consistent>
1

> <s_lp_Variant>
AV-unprocessed.smi:2562-3

> <Gold.Version>
5.8.1

> <Gold.Id.Protein>
6NUR|6NUR_protein|mol2

> <Gold.PLP.Fitness>
32.9321

> <Gold.PLP.PLP>
-27.9330

> <Gold.PLP.part.hbond>
-1.6946

> <Gold.PLP.part.metal>
0.0000

> <Gold.PLP.part.buried>
-2.8134

> <Gold.PLP.part.nonpolar>
-23.4476

> <Gold.PLP.part.repulsive>
0.3910

> <Gold.PLP.ligand.clash>
0.0000

> <Gold.PLP.ligand.torsion>
0.2412

> <Gold.PLP.Chemscore.Hbond>
1.8240

> <Gold.PLP.Chemscore.CHOScore>
0.0000

> <Gold.PLP.Chemscore.Metal>
0.0000

> <Gold.Chemscore.Hbonds>
donor molecule, donor type, donor heavy atom, donor atom, acceptor molecule, acceptor atom, score
      L1  H     6    15       P1  8028  0.74
      L1  H    10    31       P1  7957  0.90

> <Gold.PLP.Chemscore.Internal.Correction>
0.0095

> <Gold.Rescore>
     Score         DG    S(hbond)    S(metal)    S(lipo)     H(rot)  DE(clash)    DE(int)     intcor
     14.65     -14.89       1.80        0.00      61.99       1.51       0.13       0.10       ----

> <Gold.Chemscore.Fitness>
14.6549

> <Gold.Chemscore.DG>
-14.8851

> <Gold.Chemscore.ZeroCoef>
-5.4800

> <Gold.Chemscore.Hbond>
1.8030

> <Gold.Chemscore.Metal>
0.0000

> <Gold.Chemscore.Lipo>
61.9873

> <Gold.Chemscore.Internal_Hbond>
0.0000

> <Gold.Chemscore.DEClash>
0.1303

> <Gold.Chemscore.DEInternal>
0.0998

> <Gold.Chemscore.Rot>
1.5115

> <Gold.Chemscore.Internal.Correction>
   9.000000E+99

> <Gold.Chemscore.Hbonds>
donor molecule, donor type, donor heavy atom, donor atom, acceptor molecule, acceptor atom, score
      L1  H     6    15       P1  8028  0.73
      L1  H    10    31       P1  7957  0.87

> <Gold.Chemscore.Hbond.Weighted>
-6.0220

> <Gold.Chemscore.Metal.Weighted>
-0.0000

> <Gold.Chemscore.Lipo.Weighted>
-7.2525

> <Gold.Chemscore.Internal_Hbond.Weighted>
0.0000

> <Gold.Chemscore.DEClash.Weighted>
0.1303

> <Gold.Chemscore.DEInternal.Weighted>
0.0998

> <Gold.Chemscore.Rot.Weighted>
3.8695

> <Gold.Chemscore.Internal.Correction.Weighted>
   9.000000E+99

> <Gold.Protein.RotatedTorsions>
[ 6907 6896 6895 6894 ] final  102.70 input  -60.11 | X-H torsion
[ 7974 7965 7964 7962 ] final  148.87 input  175.53 | X-H torsion
[ 8008 7997 7996 7995 ] final  -90.38 input   59.86 | X-H torsion
[ 10167 10162 10161 10158 ] final -169.83 input  -65.29 | X-H torsion
[ 10718 10713 10712 10709 ] final   31.93 input   66.30 | X-H torsion
[ 10763 10752 10751 10750 ] final  -58.74 input  -60.55 | X-H torsion
[ 11005 11000 10999 10996 ] final   98.44 input  -57.11 | X-H torsion

> <Gold.Protein.ActiveResidues>
 VAL166  LYS551  ARG553  GLY616  TRP617  ASP618  TYR619  PRO620  LYS621  CYS622 
 ASP623  PHE694  ASN695  SER759  ASP760  ASP761  ALA762  ILE779  LEU786  VAL792 
 PHE793  MET794  SER795  GLU796  ALA797  LYS798  CYS799  TRP800  GLU811  SER814 

> <Gold.Protein.RotatedAtoms>
  152.5316  133.9936  159.7862 H   0  0  0  0  0  0  0  0  0  0  0  0  # atno 6907 bound_to 6896
  151.0168  133.5906  159.2683 H   0  0  0  0  0  0  0  0  0  0  0  0  # atno 6908 bound_to 6896
  151.2960  135.0762  159.9275 H   0  0  0  0  0  0  0  0  0  0  0  0  # atno 6909 bound_to 6896
  144.8481  139.6208  143.5986 H   0  0  0  0  0  0  0  0  0  0  0  0  # atno 7974 bound_to 7965
  154.6979  140.0531  157.0429 H   0  0  0  0  0  0  0  0  0  0  0  0  # atno 8008 bound_to 7997
  155.0725  140.3201  155.4607 H   0  0  0  0  0  0  0  0  0  0  0  0  # atno 8009 bound_to 7997
  156.2750  140.2079  156.5853 H   0  0  0  0  0  0  0  0  0  0  0  0  # atno 8010 bound_to 7997
  139.5898  144.1238  152.1620 H   0  0  0  0  0  0  0  0  0  0  0  0  # atno 10167 bound_to 10162
  157.2787  130.7244  149.6544 H   0  0  0  0  0  0  0  0  0  0  0  0  # atno 10718 bound_to 10713
  154.2428  135.6340  153.5213 H   0  0  0  0  0  0  0  0  0  0  0  0  # atno 10763 bound_to 10752
  152.9927  135.5546  154.5891 H   0  0  0  0  0  0  0  0  0  0  0  0  # atno 10764 bound_to 10752
  154.5401  135.2894  155.1078 H   0  0  0  0  0  0  0  0  0  0  0  0  # atno 10765 bound_to 10752
  139.8772  134.9049  156.4457 H   0  0  0  0  0  0  0  0  0  0  0  0  # atno 11005 bound_to 11000
  146.2761  139.6758  142.9261 LP  0  0  0  0  0  0  0  0  0  0  0  0  # atno 17320 bound_to 7965
  145.4555  141.0430  143.2780 LP  0  0  0  0  0  0  0  0  0  0  0  0  # atno 17321 bound_to 7965
  140.0809  144.5701  150.7123 LP  0  0  0  0  0  0  0  0  0  0  0  0  # atno 17342 bound_to 10162
  140.7163  143.2548  151.4422 LP  0  0  0  0  0  0  0  0  0  0  0  0  # atno 17343 bound_to 10162
  155.9664  130.4345  150.5051 LP  0  0  0  0  0  0  0  0  0  0  0  0  # atno 17370 bound_to 10713
  157.2990  131.0641  151.2081 LP  0  0  0  0  0  0  0  0  0  0  0  0  # atno 17371 bound_to 10713
  140.8967  133.7808  155.9634 LP  0  0  0  0  0  0  0  0  0  0  0  0  # atno 17394 bound_to 11000
  140.8695  134.2744  157.5197 LP  0  0  0  0  0  0  0  0  0  0  0  0  # atno 17395 bound_to 11000

$$$$
