AV-unprocessed.smi:81|AV-procd|sdf|793|dock6
  -GOLD-   2262017173D 1   1.00000     0.00000
 Structure written by MMmdl.
 64 67  0  0  0  0  0  0  0  0  2 V2000
  151.7580  129.6727  154.1244 C   0  0  0  0  0  0  0  0  0  0  0  0
  151.0653  128.7948  155.1795 C   0  0  0  0  0  0  0  0  0  0  0  0
  151.5444  127.3408  155.0683 C   0  0  0  0  0  0  0  0  0  0  0  0
  149.5247  128.8646  155.0637 C   0  0  0  0  0  0  0  0  0  0  0  0
  148.9840  130.2245  154.9566 N   0  0  0  0  0  0  0  0  0  0  0  0
  149.6349  131.1747  155.6715 C   0  0  0  0  0  0  0  0  0  0  0  0
  150.1902  130.7943  156.8492 N   0  0  0  0  0  0  0  0  0  0  0  0
  150.8224  131.6891  157.6133 C   0  0  0  0  0  0  0  0  0  0  0  0
  151.0017  132.9928  157.3952 N   0  0  0  0  0  0  0  0  0  0  0  0
  150.4246  133.3868  156.2233 C   0  0  0  0  0  0  0  0  0  0  0  0
  149.7283  132.5490  155.3077 C   0  0  0  0  0  0  0  0  0  0  0  0
  149.2949  133.2985  154.2221 N   0  0  0  0  0  0  0  0  0  0  0  0
  149.7102  134.5077  154.4809 C   0  0  0  0  0  0  0  0  0  0  0  0
  150.3757  134.6602  155.6788 N   0  0  0  0  0  0  0  0  0  0  0  0
  150.9653  135.8781  156.2274 C   0  0  0  0  0  0  0  0  0  0  0  0
  151.1130  137.0631  155.2332 C   0  0  2  0  0  0  0  0  0  0  0  0
  151.8912  136.6153  154.1362 O   0  0  0  0  0  0  0  0  0  0  0  0
  151.8293  138.2549  155.8484 C   0  0  0  0  0  0  0  0  0  0  0  0
  151.4491  139.3906  154.9088 C   0  0  0  0  0  0  0  0  0  0  0  0
  150.1109  139.1036  154.5274 O   0  0  0  0  0  0  0  0  0  0  0  0
  149.8224  137.7100  154.6648 C   0  0  2  0  0  0  0  0  0  0  0  0
  148.5801  137.6531  155.5689 C   0  0  0  0  0  0  0  0  0  0  0  0
  147.5257  130.3483  154.7874 C   0  0  2  0  0  0  0  0  0  0  0  0
  146.6748  130.0338  156.0411 C   0  0  0  0  0  0  0  0  0  0  0  0
  146.2761  128.5514  156.1793 C   0  0  0  0  0  0  0  0  0  0  0  0
  145.6449  128.0478  154.9375 N   0  3  2  0  0  0  0  0  0  0  0  0
  145.1210  126.6739  155.0929 C   0  0  0  0  0  0  0  0  0  0  0  0
  146.5512  128.1753  153.7728 C   0  0  0  0  0  0  0  0  0  0  0  0
  146.9525  129.6426  153.5353 C   0  0  0  0  0  0  0  0  0  0  0  0
  151.4929  129.3610  153.1137 H   0  0  0  0  0  0  0  0  0  0  0  0
  152.8427  129.6141  154.2167 H   0  0  0  0  0  0  0  0  0  0  0  0
  151.4793  130.7211  154.2322 H   0  0  0  0  0  0  0  0  0  0  0  0
  151.3714  129.1477  156.1646 H   0  0  0  0  0  0  0  0  0  0  0  0
  151.2910  126.9119  154.0981 H   0  0  0  0  0  0  0  0  0  0  0  0
  151.0882  126.7173  155.8379 H   0  0  0  0  0  0  0  0  0  0  0  0
  152.6257  127.2727  155.1907 H   0  0  0  0  0  0  0  0  0  0  0  0
  149.2148  128.2941  154.1875 H   0  0  0  0  0  0  0  0  0  0  0  0
  149.0697  128.3608  155.9156 H   0  0  0  0  0  0  0  0  0  0  0  0
  151.2410  131.3068  158.5328 H   0  0  0  0  0  0  0  0  0  0  0  0
  149.5372  135.3198  153.7911 H   0  0  0  0  0  0  0  0  0  0  0  0
  150.3616  136.1942  157.0784 H   0  0  0  0  0  0  0  0  0  0  0  0
  151.9402  135.6174  156.6414 H   0  0  0  0  0  0  0  0  0  0  0  0
  151.3331  136.5679  153.3747 H   0  0  0  0  0  0  0  0  0  0  0  0
  151.4319  138.4621  156.8430 H   0  0  0  0  0  0  0  0  0  0  0  0
  152.9077  138.1194  155.9417 H   0  0  0  0  0  0  0  0  0  0  0  0
  151.5294  140.3707  155.3790 H   0  0  0  0  0  0  0  0  0  0  0  0
  152.0819  139.3867  154.0202 H   0  0  0  0  0  0  0  0  0  0  0  0
  149.5660  137.2928  153.6895 H   0  0  0  0  0  0  0  0  0  0  0  0
  148.1646  136.6497  155.6234 H   0  0  0  0  0  0  0  0  0  0  0  0
  147.7913  138.2950  155.1763 H   0  0  0  0  0  0  0  0  0  0  0  0
  148.8041  137.9889  156.5816 H   0  0  0  0  0  0  0  0  0  0  0  0
  147.3877  131.4164  154.6157 H   0  0  0  0  0  0  0  0  0  0  0  0
  147.1726  130.3862  156.9449 H   0  0  0  0  0  0  0  0  0  0  0  0
  145.7541  130.6147  155.9731 H   0  0  0  0  0  0  0  0  0  0  0  0
  147.1344  127.9270  156.4231 H   0  0  0  0  0  0  0  0  0  0  0  0
  145.5758  128.4477  157.0089 H   0  0  0  0  0  0  0  0  0  0  0  0
  145.9278  125.9687  155.2973 H   0  0  0  0  0  0  0  0  0  0  0  0
  144.6059  126.3523  154.1872 H   0  0  0  0  0  0  0  0  0  0  0  0
  144.4071  126.6249  155.9155 H   0  0  0  0  0  0  0  0  0  0  0  0
  147.4248  127.5454  153.9269 H   0  0  0  0  0  0  0  0  0  0  0  0
  146.0509  127.7949  152.8815 H   0  0  0  0  0  0  0  0  0  0  0  0
  146.0564  130.1830  153.2276 H   0  0  0  0  0  0  0  0  0  0  0  0
  147.6389  129.7150  152.6917 H   0  0  0  0  0  0  0  0  0  0  0  0
  144.8483  128.6411  154.7533 H   0  0  0  0  0  0  0  0  0  0  0  0
  1  2  1  0  0  0  0
  1 30  1  0  0  0  0
  1 31  1  0  0  0  0
  1 32  1  0  0  0  0
  2  3  1  0  0  0  0
  2  4  1  0  0  0  0
  2 33  1  0  0  0  0
  3 34  1  0  0  0  0
  3 35  1  0  0  0  0
  3 36  1  0  0  0  0
  4  5  1  0  0  0  0
  4 37  1  0  0  0  0
  4 38  1  0  0  0  0
  5  6  1  0  0  0  0
  5 23  1  0  0  0  0
  6 11  1  0  0  0  0
  6  7  2  0  0  0  0
  7  8  1  0  0  0  0
  8  9  2  0  0  0  0
  8 39  1  0  0  0  0
  9 10  1  0  0  0  0
 10 14  1  0  0  0  0
 10 11  2  0  0  0  0
 11 12  1  0  0  0  0
 12 13  2  0  0  0  0
 13 14  1  0  0  0  0
 13 40  1  0  0  0  0
 14 15  1  0  0  0  0
 15 16  1  0  0  0  0
 15 41  1  0  0  0  0
 15 42  1  0  0  0  0
 16 21  1  0  0  0  0
 16 17  1  0  0  0  0
 16 18  1  0  0  0  0
 17 43  1  0  0  0  0
 18 19  1  0  0  0  0
 18 44  1  0  0  0  0
 18 45  1  0  0  0  0
 19 20  1  0  0  0  0
 19 46  1  0  0  0  0
 19 47  1  0  0  0  0
 20 21  1  0  0  0  0
 21 22  1  0  0  0  0
 21 48  1  0  0  0  0
 22 49  1  0  0  0  0
 22 50  1  0  0  0  0
 22 51  1  0  0  0  0
 23 29  1  0  0  0  0
 23 24  1  0  0  0  0
 23 52  1  0  0  0  0
 24 25  1  0  0  0  0
 24 53  1  0  0  0  0
 24 54  1  0  0  0  0
 25 26  1  0  0  0  0
 25 55  1  0  0  0  0
 25 56  1  0  0  0  0
 26 27  1  0  0  0  0
 26 28  1  0  0  0  0
 26 64  1  0  0  0  0
 27 57  1  0  0  0  0
 27 58  1  0  0  0  0
 27 59  1  0  0  0  0
 28 29  1  0  0  0  0
 28 60  1  0  0  0  0
 28 61  1  0  0  0  0
 29 62  1  0  0  0  0
 29 63  1  0  0  0  0
M  CHG  1  26   1
M  END
> <s_m_source_file>
AV-unprocessed.smi

> <i_m_source_file_index>
81

> <i_lp_mmshare_version>
43012

> <i_f3d_flags>
0

> <s_epik_input>
W0NIMl0xW0NIMl1OKFtDSDNdKVtDSDJdW0NIMl1bQ0hdMU4oW0NIMl1bQ0hdKFtDSDNdKVtDSDNdKWMobltjSF1uMiljKGMyMyluW2NIXW4zW0NIMl1bQ0BAXTQoW09IXSlbQ0gyXVtDSDJdT1tDQEhdNFtDSDNd

> <s_epik_cmdline>
J2VwaWtfcHl0aG9uJywgJy1waCcsICc3LjAnLCAnLXRuJywgJzgnLCAnLW1hJywgJzIwMCcsICctbWV0YWxfYmluZGluZycsICctaW1hZScsICc8aW5maWxlLm1hZT4nLCAnLW9tYWUnLCAnPG91dGZpbGUubWFlPic=

> <r_lp_tautomer_probability>
1

> <r_epik_Ionization_Penalty>
0.00272708

> <r_epik_Ionization_Penalty_Charging>
0.00158983

> <r_epik_Ionization_Penalty_Neutral>
0.00113725

> <r_epik_State_Penalty>
-0

> <r_epik_Charging_Adjusted_Penalty>
0.00158983

> <i_epik_Tot_Q>
1

> <i_epik_Tot_abs_Q>
1

> <r_epik_Metal_State_Penalty>
-0

> <b_epik_Metal_Only>
0

> <s_lp_Force_Field>
OPLS_2005

> <r_lp_Energy>
52.2974

> <b_lp_Chiralities_Consistent>
1

> <s_lp_Variant>
AV-unprocessed.smi:81-8

> <Gold.Version>
5.8.1

> <Gold.Id.Protein>
6NUR|6NUR_protein|mol2

> <Gold.PLP.Fitness>
46.5254

> <Gold.PLP.PLP>
-31.5083

> <Gold.PLP.part.hbond>
-3.8915

> <Gold.PLP.part.metal>
0.0000

> <Gold.PLP.part.buried>
-3.7506

> <Gold.PLP.part.nonpolar>
-25.0861

> <Gold.PLP.part.repulsive>
0.2963

> <Gold.PLP.ligand.clash>
0.0719

> <Gold.PLP.ligand.torsion>
1.5780

> <Gold.PLP.Chemscore.Hbond>
4.6288

> <Gold.PLP.Chemscore.CHOScore>
0.9935

> <Gold.PLP.Chemscore.Metal>
0.0000

> <Gold.Chemscore.Hbonds>
donor molecule, donor type, donor heavy atom, donor atom, acceptor molecule, acceptor atom, score
      L1  H    17    43       P1  7949  0.91
      L1  H    26    64       P1 10956  2.00
      P1  H  6896  6909       L1     9  0.81
      P1  H 10752 10765       L1    17  0.81
      L1  C    13    40       P1  7948  0.86

> <Gold.PLP.Chemscore.Internal.Correction>
1.3782

> <Gold.Rescore>
     Score         DG    S(hbond)    S(metal)    S(lipo)     H(rot)  DE(clash)    DE(int)     intcor
     12.26     -16.09       2.52        0.00      69.34       2.32       0.77       3.06       ----

> <Gold.Chemscore.Fitness>
12.2592

> <Gold.Chemscore.DG>
-16.0887

> <Gold.Chemscore.ZeroCoef>
-5.4800

> <Gold.Chemscore.Hbond>
2.5226

> <Gold.Chemscore.Metal>
0.0000

> <Gold.Chemscore.Lipo>
69.3410

> <Gold.Chemscore.Internal_Hbond>
0.0000

> <Gold.Chemscore.DEClash>
0.7710

> <Gold.Chemscore.DEInternal>
3.0585

> <Gold.Chemscore.Rot>
2.3163

> <Gold.Chemscore.Internal.Correction>
   9.000000E+99

> <Gold.Chemscore.Hbonds>
donor molecule, donor type, donor heavy atom, donor atom, acceptor molecule, acceptor atom, score
      L1  H    17    43       P1  7949  0.61
      L1  H    26    64       P1 10956  1.00
      P1  H  6896  6909       L1     9  0.16
      P1  H 10752 10765       L1    17  0.64

> <Gold.Chemscore.Hbond.Weighted>
-8.4255

> <Gold.Chemscore.Metal.Weighted>
-0.0000

> <Gold.Chemscore.Lipo.Weighted>
-8.1129

> <Gold.Chemscore.Internal_Hbond.Weighted>
0.0000

> <Gold.Chemscore.DEClash.Weighted>
0.7710

> <Gold.Chemscore.DEInternal.Weighted>
3.0585

> <Gold.Chemscore.Rot.Weighted>
5.9297

> <Gold.Chemscore.Internal.Correction.Weighted>
   9.000000E+99

> <Gold.Protein.RotatedTorsions>
[ 6907 6896 6895 6894 ] final  -18.04 input  -60.11 | X-H torsion
[ 7974 7965 7964 7962 ] final   56.60 input  175.53 | X-H torsion
[ 8008 7997 7996 7995 ] final  -36.90 input   59.86 | X-H torsion
[ 10167 10162 10161 10158 ] final  140.26 input  -65.29 | X-H torsion
[ 10718 10713 10712 10709 ] final  -77.77 input   66.30 | X-H torsion
[ 10763 10752 10751 10750 ] final  145.24 input  -60.55 | X-H torsion
[ 11005 11000 10999 10996 ] final   16.78 input  -57.11 | X-H torsion

> <Gold.Protein.ActiveResidues>
 VAL166  LYS551  ARG553  GLY616  TRP617  ASP618  TYR619  PRO620  LYS621  CYS622 
 ASP623  PHE694  ASN695  SER759  ASP760  ASP761  ALA762  ILE779  LEU786  VAL792 
 PHE793  MET794  SER795  GLU796  ALA797  LYS798  CYS799  TRP800  GLU811  SER814 

> <Gold.Protein.RotatedAtoms>
  151.2842  135.0723  159.9180 H   0  0  0  0  0  0  0  0  0  0  0  0  # atno 6907 bound_to 6896
  152.5328  133.9999  159.7900 H   0  0  0  0  0  0  0  0  0  0  0  0  # atno 6908 bound_to 6896
  151.0258  133.5784  159.2697 H   0  0  0  0  0  0  0  0  0  0  0  0  # atno 6909 bound_to 6896
  145.9380  139.3864  143.0380 H   0  0  0  0  0  0  0  0  0  0  0  0  # atno 7974 bound_to 7965
  154.4064  140.1618  156.2450 H   0  0  0  0  0  0  0  0  0  0  0  0  # atno 8008 bound_to 7997
  155.9169  140.3424  155.6119 H   0  0  0  0  0  0  0  0  0  0  0  0  # atno 8009 bound_to 7997
  155.7269  140.0775  157.2296 H   0  0  0  0  0  0  0  0  0  0  0  0  # atno 8010 bound_to 7997
  139.5054  144.6245  151.5970 H   0  0  0  0  0  0  0  0  0  0  0  0  # atno 10167 bound_to 10162
  156.0136  130.4500  150.3395 H   0  0  0  0  0  0  0  0  0  0  0  0  # atno 10718 bound_to 10713
  154.0021  135.2922  155.3401 H   0  0  0  0  0  0  0  0  0  0  0  0  # atno 10763 bound_to 10752
  154.7153  135.5132  153.8731 H   0  0  0  0  0  0  0  0  0  0  0  0  # atno 10764 bound_to 10752
  153.0761  135.6664  154.0262 H   0  0  0  0  0  0  0  0  0  0  0  0  # atno 10765 bound_to 10752
  140.4433  134.1299  155.7693 H   0  0  0  0  0  0  0  0  0  0  0  0  # atno 11005 bound_to 11000
  145.8337  140.9617  143.0835 LP  0  0  0  0  0  0  0  0  0  0  0  0  # atno 17320 bound_to 7965
  144.6774  140.0195  143.7484 LP  0  0  0  0  0  0  0  0  0  0  0  0  # atno 17321 bound_to 7965
  140.5958  143.9699  150.6353 LP  0  0  0  0  0  0  0  0  0  0  0  0  # atno 17342 bound_to 10162
  140.2894  143.3334  152.1076 LP  0  0  0  0  0  0  0  0  0  0  0  0  # atno 17343 bound_to 10162
  157.1491  131.0316  151.2893 LP  0  0  0  0  0  0  0  0  0  0  0  0  # atno 17370 bound_to 10713
  157.4407  130.7542  149.7067 LP  0  0  0  0  0  0  0  0  0  0  0  0  # atno 17371 bound_to 10713
  141.1696  133.8635  157.1611 LP  0  0  0  0  0  0  0  0  0  0  0  0  # atno 17394 bound_to 11000
  140.0055  135.0010  157.0283 LP  0  0  0  0  0  0  0  0  0  0  0  0  # atno 17395 bound_to 11000

$$$$
