AV-unprocessed.smi:3201|AV-procd|sdf|12240|dock2
  -GOLD-   2272018 73D 1   1.00000     0.00000
 Structure written by MMmdl.
 41 43  0  0  0  0  0  0  0  0  2 V2000
  152.2090  144.2738  160.0829 C   0  0  0  0  0  0  0  0  0  0  0  0
  152.3238  142.8596  159.6107 C   0  0  0  0  0  0  0  0  0  0  0  0
  151.8205  142.2531  158.4907 C   0  0  0  0  0  0  0  0  0  0  0  0
  150.9862  142.8411  157.3857 C   0  0  0  0  0  0  0  0  0  0  0  0
  150.5544  141.7705  156.3754 C   0  0  0  0  0  0  0  0  0  0  0  0
  149.2968  142.1554  155.7040 N   0  3  0  0  0  0  0  0  0  0  0  0
  149.0132  141.4197  154.4523 C   0  0  1  0  0  0  0  0  0  0  0  0
  148.9802  139.8842  154.6147 C   0  0  0  0  0  0  0  0  0  0  0  0
  147.6222  139.5068  153.9908 C   0  0  1  0  0  0  0  0  0  0  0  0
  146.4994  139.8931  154.9690 C   0  0  0  0  0  0  0  0  0  0  0  0
  146.4955  141.4304  154.8841 C   0  0  0  0  0  0  0  0  0  0  0  0
  147.6180  141.7256  153.8651 C   0  0  2  0  0  0  0  0  0  0  0  0
  147.4561  140.5579  152.8969 C   0  0  0  0  0  0  0  0  0  0  0  0
  152.2736  140.9085  158.6021 C   0  0  0  0  0  0  0  0  0  0  0  0
  152.9906  140.6976  159.6906 N   0  0  0  0  0  0  0  0  0  0  0  0
  153.0218  141.8930  160.3139 N   0  0  0  0  0  0  0  0  0  0  0  0
  153.7449  142.0023  161.5666 C   0  0  0  0  0  0  0  0  0  0  0  0
  151.6686  144.8897  159.3646 H   0  0  0  0  0  0  0  0  0  0  0  0
  153.1950  144.7170  160.2237 H   0  0  0  0  0  0  0  0  0  0  0  0
  151.6755  144.3226  161.0323 H   0  0  0  0  0  0  0  0  0  0  0  0
  150.0994  143.3247  157.7973 H   0  0  0  0  0  0  0  0  0  0  0  0
  151.5346  143.6287  156.8680 H   0  0  0  0  0  0  0  0  0  0  0  0
  151.3328  141.6306  155.6240 H   0  0  0  0  0  0  0  0  0  0  0  0
  150.4205  140.8147  156.8835 H   0  0  0  0  0  0  0  0  0  0  0  0
  148.5260  142.0151  156.3415 H   0  0  0  0  0  0  0  0  0  0  0  0
  149.7680  141.6935  153.7127 H   0  0  0  0  0  0  0  0  0  0  0  0
  149.8038  139.4258  154.0659 H   0  0  0  0  0  0  0  0  0  0  0  0
  149.0515  139.5565  155.6529 H   0  0  0  0  0  0  0  0  0  0  0  0
  147.5673  138.4720  153.6511 H   0  0  0  0  0  0  0  0  0  0  0  0
  145.5410  139.4888  154.6402 H   0  0  0  0  0  0  0  0  0  0  0  0
  146.6848  139.5307  155.9809 H   0  0  0  0  0  0  0  0  0  0  0  0
  145.5348  141.7849  154.5081 H   0  0  0  0  0  0  0  0  0  0  0  0
  146.6594  141.9025  155.8526 H   0  0  0  0  0  0  0  0  0  0  0  0
  147.5436  142.7118  153.4058 H   0  0  0  0  0  0  0  0  0  0  0  0
  148.2335  140.5133  152.1322 H   0  0  0  0  0  0  0  0  0  0  0  0
  146.4778  140.5278  152.4131 H   0  0  0  0  0  0  0  0  0  0  0  0
  152.1036  140.0841  157.9255 H   0  0  0  0  0  0  0  0  0  0  0  0
  153.6051  142.9869  162.0122 H   0  0  0  0  0  0  0  0  0  0  0  0
  154.8089  141.8434  161.3903 H   0  0  0  0  0  0  0  0  0  0  0  0
  153.3840  141.2488  162.2676 H   0  0  0  0  0  0  0  0  0  0  0  0
  149.3545  143.1389  155.4815 H   0  0  0  0  0  0  0  0  0  0  0  0
  1  2  1  0  0  0  0
  1 18  1  0  0  0  0
  1 19  1  0  0  0  0
  1 20  1  0  0  0  0
  2 16  1  0  0  0  0
  2  3  2  0  0  0  0
  3  4  1  0  0  0  0
  3 14  1  0  0  0  0
  4  5  1  0  0  0  0
  4 21  1  0  0  0  0
  4 22  1  0  0  0  0
  5  6  1  0  0  0  0
  5 23  1  0  0  0  0
  5 24  1  0  0  0  0
  6  7  1  0  0  0  0
  6 25  1  0  0  0  0
  6 41  1  0  0  0  0
  7 12  1  0  0  0  0
  7  8  1  0  0  0  0
  7 26  1  0  0  0  0
  8  9  1  0  0  0  0
  8 27  1  0  0  0  0
  8 28  1  0  0  0  0
  9 13  1  0  0  0  0
  9 10  1  0  0  0  0
  9 29  1  0  0  0  0
 10 11  1  0  0  0  0
 10 30  1  0  0  0  0
 10 31  1  0  0  0  0
 11 12  1  0  0  0  0
 11 32  1  0  0  0  0
 11 33  1  0  0  0  0
 12 13  1  0  0  0  0
 12 34  1  0  0  0  0
 13 35  1  0  0  0  0
 13 36  1  0  0  0  0
 14 15  2  0  0  0  0
 14 37  1  0  0  0  0
 15 16  1  0  0  0  0
 16 17  1  0  0  0  0
 17 38  1  0  0  0  0
 17 39  1  0  0  0  0
 17 40  1  0  0  0  0
M  CHG  1   6   1
M  END
> <s_m_source_file>
AV-unprocessed.smi

> <i_m_source_file_index>
3201

> <i_lp_mmshare_version>
43012

> <i_f3d_flags>
0

> <s_epik_input>
W0NIM11uMW5bY0hdYyhjMVtDSDNdKVtDSDJdW0NIMl1bTkhdW0NASF0oW0NIMl1bQ0BIXTIzKVtDQEhdKFtDSDJdMylbQ0gyXVtDSDJdMg==

> <s_epik_cmdline>
J2VwaWtfcHl0aG9uJywgJy1waCcsICc3LjAnLCAnLXRuJywgJzgnLCAnLW1hJywgJzIwMCcsICctbWV0YWxfYmluZGluZycsICctaW1hZScsICc8aW5maWxlLm1hZT4nLCAnLW9tYWUnLCAnPG91dGZpbGUubWFlPic=

> <r_lp_tautomer_probability>
1

> <r_epik_Ionization_Penalty>
0.000331174

> <r_epik_Ionization_Penalty_Charging>
0.000242709

> <r_epik_Ionization_Penalty_Neutral>
8.84659e-05

> <r_epik_State_Penalty>
-0

> <r_epik_Charging_Adjusted_Penalty>
0.000242709

> <i_epik_Tot_Q>
1

> <i_epik_Tot_abs_Q>
1

> <r_epik_Metal_State_Penalty>
-0

> <b_epik_Metal_Only>
0

> <s_lp_Force_Field>
OPLS_2005

> <r_lp_Energy>
51.1066

> <b_lp_Chiralities_Consistent>
1

> <s_lp_Variant>
AV-unprocessed.smi:3201-4

> <Gold.Version>
5.8.1

> <Gold.Id.Protein>
6NUR|6NUR_protein|mol2

> <Gold.PLP.Fitness>
44.6708

> <Gold.PLP.PLP>
-39.1793

> <Gold.PLP.part.hbond>
-1.0000

> <Gold.PLP.part.metal>
0.0000

> <Gold.PLP.part.buried>
-2.5975

> <Gold.PLP.part.nonpolar>
-35.6154

> <Gold.PLP.part.repulsive>
0.1414

> <Gold.PLP.ligand.clash>
0.0000

> <Gold.PLP.ligand.torsion>
0.2618

> <Gold.PLP.Chemscore.Hbond>
2.0000

> <Gold.PLP.Chemscore.CHOScore>
0.0000

> <Gold.PLP.Chemscore.Metal>
0.0000

> <Gold.Chemscore.Hbonds>
donor molecule, donor type, donor heavy atom, donor atom, acceptor molecule, acceptor atom, score
      L1  H     6    41       P1  8028  2.00

> <Gold.PLP.Chemscore.Internal.Correction>
0.0151

> <Gold.Rescore>
     Score         DG    S(hbond)    S(metal)    S(lipo)     H(rot)  DE(clash)    DE(int)     intcor
     17.46     -17.90       0.96        0.00     108.55       1.36       0.16       0.28       ----

> <Gold.Chemscore.Fitness>
17.4616

> <Gold.Chemscore.DG>
-17.9037

> <Gold.Chemscore.ZeroCoef>
-5.4800

> <Gold.Chemscore.Hbond>
0.9586

> <Gold.Chemscore.Metal>
0.0000

> <Gold.Chemscore.Lipo>
108.5508

> <Gold.Chemscore.Internal_Hbond>
0.0000

> <Gold.Chemscore.DEClash>
0.1648

> <Gold.Chemscore.DEInternal>
0.2773

> <Gold.Chemscore.Rot>
1.3588

> <Gold.Chemscore.Internal.Correction>
   9.000000E+99

> <Gold.Chemscore.Hbonds>
donor molecule, donor type, donor heavy atom, donor atom, acceptor molecule, acceptor atom, score
      L1  H     6    41       P1  8028  0.97

> <Gold.Chemscore.Hbond.Weighted>
-3.2018

> <Gold.Chemscore.Metal.Weighted>
-0.0000

> <Gold.Chemscore.Lipo.Weighted>
-12.7004

> <Gold.Chemscore.Internal_Hbond.Weighted>
0.0000

> <Gold.Chemscore.DEClash.Weighted>
0.1648

> <Gold.Chemscore.DEInternal.Weighted>
0.2773

> <Gold.Chemscore.Rot.Weighted>
3.4786

> <Gold.Chemscore.Internal.Correction.Weighted>
   9.000000E+99

> <Gold.Protein.RotatedTorsions>
[ 6907 6896 6895 6894 ] final  -57.14 input  -60.11 | X-H torsion
[ 7974 7965 7964 7962 ] final   -5.31 input  175.53 | X-H torsion
[ 8008 7997 7996 7995 ] final  174.64 input   59.86 | X-H torsion
[ 10167 10162 10161 10158 ] final -131.84 input  -65.29 | X-H torsion
[ 10718 10713 10712 10709 ] final   40.21 input   66.30 | X-H torsion
[ 10763 10752 10751 10750 ] final  115.25 input  -60.55 | X-H torsion
[ 11005 11000 10999 10996 ] final  131.00 input  -57.11 | X-H torsion

> <Gold.Protein.ActiveResidues>
 VAL166  LYS551  ARG553  GLY616  TRP617  ASP618  TYR619  PRO620  LYS621  CYS622 
 ASP623  PHE694  ASN695  SER759  ASP760  ASP761  ALA762  ILE779  LEU786  VAL792 
 PHE793  MET794  SER795  GLU796  ALA797  LYS798  CYS799  TRP800  GLU811  SER814 

> <Gold.Protein.RotatedAtoms>
  150.8110  134.7264  159.6687 H   0  0  0  0  0  0  0  0  0  0  0  0  # atno 6907 bound_to 6896
  152.4230  134.5918  159.9986 H   0  0  0  0  0  0  0  0  0  0  0  0  # atno 6908 bound_to 6896
  151.6127  133.3308  159.3107 H   0  0  0  0  0  0  0  0  0  0  0  0  # atno 6909 bound_to 6896
  146.2355  140.2002  142.8333 H   0  0  0  0  0  0  0  0  0  0  0  0  # atno 7974 bound_to 7965
  156.0954  140.1429  156.9538 H   0  0  0  0  0  0  0  0  0  0  0  0  # atno 8008 bound_to 7997
  154.4668  140.0923  156.7087 H   0  0  0  0  0  0  0  0  0  0  0  0  # atno 8009 bound_to 7997
  155.4850  140.3446  155.4348 H   0  0  0  0  0  0  0  0  0  0  0  0  # atno 8010 bound_to 7997
  139.9148  143.6452  152.2567 H   0  0  0  0  0  0  0  0  0  0  0  0  # atno 10167 bound_to 10162
  157.3795  130.7746  149.7182 H   0  0  0  0  0  0  0  0  0  0  0  0  # atno 10718 bound_to 10713
  153.5194  135.3601  155.2625 H   0  0  0  0  0  0  0  0  0  0  0  0  # atno 10763 bound_to 10752
  154.8736  135.4042  154.3276 H   0  0  0  0  0  0  0  0  0  0  0  0  # atno 10764 bound_to 10752
  153.3944  135.7073  153.6538 H   0  0  0  0  0  0  0  0  0  0  0  0  # atno 10765 bound_to 10752
  139.9704  134.9579  156.9375 H   0  0  0  0  0  0  0  0  0  0  0  0  # atno 11005 bound_to 11000
  144.9788  140.8439  143.5410 LP  0  0  0  0  0  0  0  0  0  0  0  0  # atno 17320 bound_to 7965
  145.1993  139.2260  143.5201 LP  0  0  0  0  0  0  0  0  0  0  0  0  # atno 17321 bound_to 7965
  139.6912  144.7646  151.1435 LP  0  0  0  0  0  0  0  0  0  0  0  0  # atno 17342 bound_to 10162
  140.7677  143.5587  150.9123 LP  0  0  0  0  0  0  0  0  0  0  0  0  # atno 17343 bound_to 10162
  155.9773  130.4065  150.3724 LP  0  0  0  0  0  0  0  0  0  0  0  0  # atno 17370 bound_to 10713
  157.1826  131.0396  151.2741 LP  0  0  0  0  0  0  0  0  0  0  0  0  # atno 17371 bound_to 10713
  140.5305  134.0818  155.7314 LP  0  0  0  0  0  0  0  0  0  0  0  0  # atno 17394 bound_to 11000
  141.1384  133.9181  157.2382 LP  0  0  0  0  0  0  0  0  0  0  0  0  # atno 17395 bound_to 11000

$$$$
