AV-unprocessed.smi:290|AV-procd|sdf|2218|dock6
  -GOLD-   2262022 63D 1   1.00000     0.00000
 Structure written by MMmdl.
 59 62  0  0  0  0  0  0  0  0  2 V2000
  154.8173  140.9402  160.7372 C   0  0  0  0  0  0  0  0  0  0  0  0
  154.7137  139.6659  159.8846 C   0  0  1  0  0  0  0  0  0  0  0  0
  154.3997  138.5816  160.7530 O   0  0  0  0  0  0  0  0  0  0  0  0
  153.6995  137.6004  160.0105 C   0  0  0  0  0  0  0  0  0  0  0  0
  152.7591  138.4463  159.1661 C   0  0  0  0  0  0  0  0  0  0  0  0
  153.6221  139.6450  158.7762 C   0  0  2  0  0  0  0  0  0  0  0  0
  154.2579  139.3370  157.5467 O   0  0  0  0  0  0  0  0  0  0  0  0
  152.8083  140.9526  158.5897 C   0  0  0  0  0  0  0  0  0  0  0  0
  151.6513  140.7963  157.7214 N   0  0  0  0  0  0  0  0  0  0  0  0
  150.3412  141.0921  158.0251 C   0  0  0  0  0  0  0  0  0  0  0  0
  149.4819  140.8593  157.0705 N   0  0  0  0  0  0  0  0  0  0  0  0
  150.2610  140.3782  156.0249 C   0  0  0  0  0  0  0  0  0  0  0  0
  149.9870  139.9396  154.6985 C   0  0  0  0  0  0  0  0  0  0  0  0
  148.7599  139.8925  154.1364 N   0  0  0  0  0  0  0  0  0  0  0  0
  148.0370  141.1587  154.1056 C   0  0  0  0  0  0  0  0  0  0  0  0
  146.5392  140.8259  154.1865 C   0  0  0  0  0  0  0  0  0  0  0  0
  146.4524  139.2897  154.2165 C   0  0  1  0  0  0  0  0  0  0  0  0
  145.9609  138.6652  152.9472 N   0  3  1  0  0  0  0  0  0  0  0  0
  146.8792  138.9407  151.8144 C   0  0  0  0  0  0  0  0  0  0  0  0
  145.5726  137.2279  153.0431 C   0  0  0  0  0  0  0  0  0  0  0  0
  144.0772  136.9836  152.7716 C   0  0  0  0  0  0  0  0  0  0  0  0
  143.4372  138.1904  152.4163 O   0  0  0  0  0  0  0  0  0  0  0  0
  147.8660  138.8633  154.6500 C   0  0  1  0  0  0  0  0  0  0  0  0
  148.2923  137.4273  154.2936 C   0  0  0  0  0  0  0  0  0  0  0  0
  151.0275  139.5235  153.9366 N   0  0  0  0  0  0  0  0  0  0  0  0
  152.2671  139.5353  154.4367 C   0  0  0  0  0  0  0  0  0  0  0  0
  152.6750  139.9165  155.6493 N   0  0  0  0  0  0  0  0  0  0  0  0
  151.6278  140.3336  156.4176 C   0  0  0  0  0  0  0  0  0  0  0  0
  145.7704  138.9810  155.0102 H   0  0  0  0  0  0  0  0  0  0  0  0
  147.8876  138.9366  155.7383 H   0  0  0  0  0  0  0  0  0  0  0  0
  155.0768  141.8075  160.1301 H   0  0  0  0  0  0  0  0  0  0  0  0
  155.5933  140.8303  161.4951 H   0  0  0  0  0  0  0  0  0  0  0  0
  153.8827  141.1521  161.2570 H   0  0  0  0  0  0  0  0  0  0  0  0
  155.6955  139.4612  159.4532 H   0  0  0  0  0  0  0  0  0  0  0  0
  154.3963  137.0393  159.3859 H   0  0  0  0  0  0  0  0  0  0  0  0
  153.1725  136.9022  160.6610 H   0  0  0  0  0  0  0  0  0  0  0  0
  152.3413  137.9054  158.3158 H   0  0  0  0  0  0  0  0  0  0  0  0
  151.9275  138.7699  159.7932 H   0  0  0  0  0  0  0  0  0  0  0  0
  154.0098  138.4618  157.2907 H   0  0  0  0  0  0  0  0  0  0  0  0
  152.4525  141.3214  159.5522 H   0  0  0  0  0  0  0  0  0  0  0  0
  153.4396  141.7379  158.1724 H   0  0  0  0  0  0  0  0  0  0  0  0
  150.0400  141.4850  158.9854 H   0  0  0  0  0  0  0  0  0  0  0  0
  148.3285  141.8294  154.9144 H   0  0  0  0  0  0  0  0  0  0  0  0
  148.2629  141.6661  153.1674 H   0  0  0  0  0  0  0  0  0  0  0  0
  146.1404  141.2279  155.1186 H   0  0  0  0  0  0  0  0  0  0  0  0
  145.9667  141.2841  153.3803 H   0  0  0  0  0  0  0  0  0  0  0  0
  147.8237  138.4095  151.9364 H   0  0  0  0  0  0  0  0  0  0  0  0
  147.0983  140.0062  151.7392 H   0  0  0  0  0  0  0  0  0  0  0  0
  146.4438  138.6466  150.8607 H   0  0  0  0  0  0  0  0  0  0  0  0
  146.1682  136.6382  152.3458 H   0  0  0  0  0  0  0  0  0  0  0  0
  145.7910  136.8379  154.0353 H   0  0  0  0  0  0  0  0  0  0  0  0
  143.9102  136.2346  151.9986 H   0  0  0  0  0  0  0  0  0  0  0  0
  143.6018  136.6030  153.6760 H   0  0  0  0  0  0  0  0  0  0  0  0
  143.7298  138.4444  151.5536 H   0  0  0  0  0  0  0  0  0  0  0  0
  147.5591  136.7033  154.6489 H   0  0  0  0  0  0  0  0  0  0  0  0
  149.2476  137.1765  154.7555 H   0  0  0  0  0  0  0  0  0  0  0  0
  148.4070  137.2918  153.2188 H   0  0  0  0  0  0  0  0  0  0  0  0
  153.0434  139.1895  153.7700 H   0  0  0  0  0  0  0  0  0  0  0  0
  145.1068  139.1590  152.7293 H   0  0  0  0  0  0  0  0  0  0  0  0
  1  2  1  0  0  0  0
  1 31  1  0  0  0  0
  1 32  1  0  0  0  0
  1 33  1  0  0  0  0
  2  6  1  0  0  0  0
  2  3  1  0  0  0  0
  2 34  1  0  0  0  0
  3  4  1  0  0  0  0
  4  5  1  0  0  0  0
  4 35  1  0  0  0  0
  4 36  1  0  0  0  0
  5  6  1  0  0  0  0
  5 37  1  0  0  0  0
  5 38  1  0  0  0  0
  6  7  1  0  0  0  0
  6  8  1  0  0  0  0
  7 39  1  0  0  0  0
  8  9  1  0  0  0  0
  8 40  1  0  0  0  0
  8 41  1  0  0  0  0
  9 28  1  0  0  0  0
  9 10  1  0  0  0  0
 10 11  2  0  0  0  0
 10 42  1  0  0  0  0
 11 12  1  0  0  0  0
 12 28  2  0  0  0  0
 12 13  1  0  0  0  0
 13 14  1  0  0  0  0
 13 25  2  0  0  0  0
 14 23  1  0  0  0  0
 14 15  1  0  0  0  0
 15 16  1  0  0  0  0
 15 43  1  0  0  0  0
 15 44  1  0  0  0  0
 16 17  1  0  0  0  0
 16 45  1  0  0  0  0
 16 46  1  0  0  0  0
 17 29  1  0  0  0  0
 17 18  1  0  0  0  0
 17 23  1  0  0  0  0
 18 19  1  0  0  0  0
 18 20  1  0  0  0  0
 18 59  1  0  0  0  0
 19 47  1  0  0  0  0
 19 48  1  0  0  0  0
 19 49  1  0  0  0  0
 20 21  1  0  0  0  0
 20 50  1  0  0  0  0
 20 51  1  0  0  0  0
 21 22  1  0  0  0  0
 21 52  1  0  0  0  0
 21 53  1  0  0  0  0
 22 54  1  0  0  0  0
 23 30  1  0  0  0  0
 23 24  1  0  0  0  0
 24 55  1  0  0  0  0
 24 56  1  0  0  0  0
 24 57  1  0  0  0  0
 25 26  1  0  0  0  0
 26 27  2  0  0  0  0
 26 58  1  0  0  0  0
 27 28  1  0  0  0  0
M  CHG  1  18   1
M  END
> <s_m_source_file>
AV-unprocessed.smi

> <i_m_source_file_index>
290

> <i_lp_mmshare_version>
43012

> <i_f3d_flags>
0

> <s_epik_input>
W0NIMl0xW0NIMl1PW0NAQEhdKFtDSDNdKVtDQEBdMShbT0hdKVtDSDJdbihbY0hdbjIpYyhjMjMpbltjSF1uYzNONFtDSDJdW0NIMl1bQ0BIXShbQ0BIXTRbQ0gzXSlOKFtDSDNdKVtDSDJdW0NIMl1bT0hd

> <s_epik_cmdline>
J2VwaWtfcHl0aG9uJywgJy1waCcsICc3LjAnLCAnLXRuJywgJzgnLCAnLW1hJywgJzIwMCcsICctbWV0YWxfYmluZGluZycsICctaW1hZScsICc8aW5maWxlLm1hZT4nLCAnLW9tYWUnLCAnPG91dGZpbGUubWFlPic=

> <r_lp_tautomer_probability>
1

> <r_epik_Ionization_Penalty>
0.0036983

> <r_epik_Ionization_Penalty_Charging>
0.0032725

> <r_epik_Ionization_Penalty_Neutral>
0.000425798

> <r_epik_State_Penalty>
-0

> <r_epik_Charging_Adjusted_Penalty>
0.0032725

> <i_epik_Tot_Q>
1

> <i_epik_Tot_abs_Q>
1

> <r_epik_Metal_State_Penalty>
-0

> <b_epik_Metal_Only>
0

> <s_lp_Force_Field>
OPLS_2005

> <r_lp_Energy>
69.1694

> <b_lp_Chiralities_Consistent>
1

> <s_lp_Variant>
AV-unprocessed.smi:290-4

> <Gold.Version>
5.8.1

> <Gold.Id.Protein>
6NUR|6NUR_protein|mol2

> <Gold.PLP.Fitness>
50.8686

> <Gold.PLP.PLP>
-39.6893

> <Gold.PLP.part.hbond>
-3.3291

> <Gold.PLP.part.metal>
0.0000

> <Gold.PLP.part.buried>
-2.7916

> <Gold.PLP.part.nonpolar>
-32.3542

> <Gold.PLP.part.repulsive>
0.3567

> <Gold.PLP.ligand.clash>
0.0000

> <Gold.PLP.ligand.torsion>
1.4173

> <Gold.PLP.Chemscore.Hbond>
4.5606

> <Gold.PLP.Chemscore.CHOScore>
0.0000

> <Gold.PLP.Chemscore.Metal>
0.0000

> <Gold.Chemscore.Hbonds>
donor molecule, donor type, donor heavy atom, donor atom, acceptor molecule, acceptor atom, score
      L1  H    18    59       P1 10175  2.00
      L1  H    22    54       P1 10171  1.00
      P1  H  7997  8008       L1    27  1.00
      P1  H  7997  8010       L1     7  0.09

> <Gold.PLP.Chemscore.Internal.Correction>
0.3320

> <Gold.Rescore>
     Score         DG    S(hbond)    S(metal)    S(lipo)     H(rot)  DE(clash)    DE(int)     intcor
     11.54     -16.65       3.12        0.00      86.57       3.67       0.67       4.45       ----

> <Gold.Chemscore.Fitness>
11.5384

> <Gold.Chemscore.DG>
-16.6547

> <Gold.Chemscore.ZeroCoef>
-5.4800

> <Gold.Chemscore.Hbond>
3.1230

> <Gold.Chemscore.Metal>
0.0000

> <Gold.Chemscore.Lipo>
86.5662

> <Gold.Chemscore.Internal_Hbond>
0.0000

> <Gold.Chemscore.DEClash>
0.6708

> <Gold.Chemscore.DEInternal>
4.4455

> <Gold.Chemscore.Rot>
3.6658

> <Gold.Chemscore.Internal.Correction>
   9.000000E+99

> <Gold.Chemscore.Hbonds>
donor molecule, donor type, donor heavy atom, donor atom, acceptor molecule, acceptor atom, score
      L1  H    18    59       P1 10175  0.99
      L1  H    22    54       P1 10171  0.88
      P1  H  7997  8008       L1    27  0.94
      P1  H  7997  8010       L1     7  0.08

> <Gold.Chemscore.Hbond.Weighted>
-10.4309

> <Gold.Chemscore.Metal.Weighted>
-0.0000

> <Gold.Chemscore.Lipo.Weighted>
-10.1283

> <Gold.Chemscore.Internal_Hbond.Weighted>
0.0000

> <Gold.Chemscore.DEClash.Weighted>
0.6708

> <Gold.Chemscore.DEInternal.Weighted>
4.4455

> <Gold.Chemscore.Rot.Weighted>
9.3844

> <Gold.Chemscore.Internal.Correction.Weighted>
   9.000000E+99

> <Gold.Protein.RotatedTorsions>
[ 6907 6896 6895 6894 ] final  132.76 input  -60.11 | X-H torsion
[ 7974 7965 7964 7962 ] final  175.94 input  175.53 | X-H torsion
[ 8008 7997 7996 7995 ] final  -15.54 input   59.86 | X-H torsion
[ 10167 10162 10161 10158 ] final -104.56 input  -65.29 | X-H torsion
[ 10718 10713 10712 10709 ] final   57.35 input   66.30 | X-H torsion
[ 10763 10752 10751 10750 ] final  -26.37 input  -60.55 | X-H torsion
[ 11005 11000 10999 10996 ] final   36.93 input  -57.11 | X-H torsion

> <Gold.Protein.ActiveResidues>
 VAL166  LYS551  ARG553  GLY616  TRP617  ASP618  TYR619  PRO620  LYS621  CYS622 
 ASP623  PHE694  ASN695  SER759  ASP760  ASP761  ALA762  ILE779  LEU786  VAL792 
 PHE793  MET794  SER795  GLU796  ALA797  LYS798  CYS799  TRP800  GLU811  SER814 

> <Gold.Protein.RotatedAtoms>
  152.3291  133.5938  159.5796 H   0  0  0  0  0  0  0  0  0  0  0  0  # atno 6907 bound_to 6896
  150.7413  133.9895  159.3611 H   0  0  0  0  0  0  0  0  0  0  0  0  # atno 6908 bound_to 6896
  151.7772  135.0771  160.0419 H   0  0  0  0  0  0  0  0  0  0  0  0  # atno 6909 bound_to 6896
  144.7193  140.0021  143.6440 H   0  0  0  0  0  0  0  0  0  0  0  0  # atno 7974 bound_to 7965
  154.5123  140.2193  155.9133 H   0  0  0  0  0  0  0  0  0  0  0  0  # atno 8008 bound_to 7997
  156.1566  140.3150  155.8703 H   0  0  0  0  0  0  0  0  0  0  0  0  # atno 8009 bound_to 7997
  155.3834  140.0474  157.3033 H   0  0  0  0  0  0  0  0  0  0  0  0  # atno 8010 bound_to 7997
  140.2080  143.3768  152.1074 H   0  0  0  0  0  0  0  0  0  0  0  0  # atno 10167 bound_to 10162
  157.5507  130.8763  149.8959 H   0  0  0  0  0  0  0  0  0  0  0  0  # atno 10718 bound_to 10713
  153.7149  135.6948  153.5027 H   0  0  0  0  0  0  0  0  0  0  0  0  # atno 10763 bound_to 10752
  153.2245  135.4358  155.0526 H   0  0  0  0  0  0  0  0  0  0  0  0  # atno 10764 bound_to 10752
  154.8303  135.3469  154.6685 H   0  0  0  0  0  0  0  0  0  0  0  0  # atno 10765 bound_to 10752
  140.2276  134.3566  155.7978 H   0  0  0  0  0  0  0  0  0  0  0  0  # atno 11005 bound_to 11000
  146.0327  139.3349  143.0745 LP  0  0  0  0  0  0  0  0  0  0  0  0  # atno 17320 bound_to 7965
  145.8433  140.9569  143.0788 LP  0  0  0  0  0  0  0  0  0  0  0  0  # atno 17321 bound_to 7965
  139.5191  144.7015  151.5480 LP  0  0  0  0  0  0  0  0  0  0  0  0  # atno 17342 bound_to 10162
  140.6343  143.9014  150.6633 LP  0  0  0  0  0  0  0  0  0  0  0  0  # atno 17343 bound_to 10162
  156.0574  130.3706  150.1060 LP  0  0  0  0  0  0  0  0  0  0  0  0  # atno 17370 bound_to 10713
  156.9233  130.9690  151.3545 LP  0  0  0  0  0  0  0  0  0  0  0  0  # atno 17371 bound_to 10713
  141.2220  133.7227  156.8678 LP  0  0  0  0  0  0  0  0  0  0  0  0  # atno 17394 bound_to 11000
  140.1784  134.9050  157.2919 LP  0  0  0  0  0  0  0  0  0  0  0  0  # atno 17395 bound_to 11000

$$$$
