AV-unprocessed.smi:1800|AV-procd|sdf|7264|dock5
  -GOLD-   22720 8513D 1   1.00000     0.00000
 Structure written by MMmdl.
 36 37  0  0  0  0  0  0  0  0  1 V2000
  151.8673  139.9259  157.9220 C   0  0  0  0  0  0  0  0  0  0  0  0
  150.4859  140.5600  157.6940 C   0  0  1  0  0  0  0  0  0  0  0  0
  150.5453  141.9707  157.0745 C   0  0  0  0  0  0  0  0  0  0  0  0
  151.2802  142.9116  157.9003 N   0  0  0  0  0  0  0  0  0  0  0  0
  151.4715  144.2611  157.6914 C   0  0  0  0  0  0  0  0  0  0  0  0
  152.2224  144.7308  158.7305 C   0  0  0  0  0  0  0  0  0  0  0  0
  152.4460  143.5778  159.5338 C   0  0  0  0  0  0  0  0  0  0  0  0
  151.8823  142.4901  159.0337 N   0  0  0  0  0  0  0  0  0  0  0  0
  149.6897  139.6814  156.8350 N   0  0  0  0  0  0  0  0  0  0  0  0
  150.2390  139.3757  155.2283 S   0  0  0  0  0  0  0  0  0  0  0  0
  151.4903  140.1285  155.0515 O   0  0  0  0  0  0  0  0  0  0  0  0
  150.2249  137.9181  155.0291 O   0  0  0  0  0  0  0  0  0  0  0  0
  148.9022  140.1553  154.2072 C   0  0  0  0  0  0  0  0  0  0  0  0
  148.7447  141.6602  154.4602 C   0  0  0  0  0  0  0  0  0  0  0  0
  147.2908  141.9448  154.0947 C   0  0  0  0  0  0  0  0  0  0  0  0
  146.5337  140.7159  154.5991 C   0  0  0  0  0  0  0  0  0  0  0  0
  147.5184  139.5426  154.4903 C   0  0  0  0  0  0  0  0  0  0  0  0
  152.4618  140.5074  158.6268 H   0  0  0  0  0  0  0  0  0  0  0  0
  152.4298  139.8560  156.9904 H   0  0  0  0  0  0  0  0  0  0  0  0
  151.7739  138.9199  158.3320 H   0  0  0  0  0  0  0  0  0  0  0  0
  149.9911  140.6252  158.6643 H   0  0  0  0  0  0  0  0  0  0  0  0
  151.0044  141.9320  156.0851 H   0  0  0  0  0  0  0  0  0  0  0  0
  149.5393  142.3670  156.9322 H   0  0  0  0  0  0  0  0  0  0  0  0
  151.0598  144.7682  156.8312 H   0  0  0  0  0  0  0  0  0  0  0  0
  152.5604  145.7436  158.8923 H   0  0  0  0  0  0  0  0  0  0  0  0
  152.9974  143.4997  160.4592 H   0  0  0  0  0  0  0  0  0  0  0  0
  148.7076  139.9558  156.8403 H   0  0  0  0  0  0  0  0  0  0  0  0
  149.1413  139.9861  153.1567 H   0  0  0  0  0  0  0  0  0  0  0  0
  148.8908  141.8999  155.5133 H   0  0  0  0  0  0  0  0  0  0  0  0
  149.4500  142.2569  153.8812 H   0  0  0  0  0  0  0  0  0  0  0  0
  146.9213  142.8735  154.5307 H   0  0  0  0  0  0  0  0  0  0  0  0
  147.1920  142.0216  153.0111 H   0  0  0  0  0  0  0  0  0  0  0  0
  146.2575  140.8630  155.6441 H   0  0  0  0  0  0  0  0  0  0  0  0
  145.6143  140.5405  154.0396 H   0  0  0  0  0  0  0  0  0  0  0  0
  147.2336  138.8621  153.6872 H   0  0  0  0  0  0  0  0  0  0  0  0
  147.5080  138.9690  155.4174 H   0  0  0  0  0  0  0  0  0  0  0  0
  1  2  1  0  0  0  0
  1 18  1  0  0  0  0
  1 19  1  0  0  0  0
  1 20  1  0  0  0  0
  2  3  1  0  0  0  0
  2  9  1  0  0  0  0
  2 21  1  0  0  0  0
  3  4  1  0  0  0  0
  3 22  1  0  0  0  0
  3 23  1  0  0  0  0
  4  8  1  0  0  0  0
  4  5  1  0  0  0  0
  5  6  2  0  0  0  0
  5 24  1  0  0  0  0
  6  7  1  0  0  0  0
  6 25  1  0  0  0  0
  7  8  2  0  0  0  0
  7 26  1  0  0  0  0
  9 10  1  0  0  0  0
  9 27  1  0  0  0  0
 10 11  2  0  0  0  0
 10 12  2  0  0  0  0
 10 13  1  0  0  0  0
 13 17  1  0  0  0  0
 13 14  1  0  0  0  0
 13 28  1  0  0  0  0
 14 15  1  0  0  0  0
 14 29  1  0  0  0  0
 14 30  1  0  0  0  0
 15 16  1  0  0  0  0
 15 31  1  0  0  0  0
 15 32  1  0  0  0  0
 16 17  1  0  0  0  0
 16 33  1  0  0  0  0
 16 34  1  0  0  0  0
 17 35  1  0  0  0  0
 17 36  1  0  0  0  0
M  END
> <s_m_source_file>
AV-unprocessed.smi

> <i_m_source_file_index>
1800

> <i_lp_mmshare_version>
43012

> <i_f3d_flags>
0

> <s_epik_input>
bjFbY0hdW2NIXVtjSF1uMVtDSDJdW0NAQEhdKFtDSDNdKVtOSF1TKD1PKSg9TylbQ0hdMltDSDJdW0NIMl1bQ0gyXVtDSDJdMg==

> <s_epik_cmdline>
J2VwaWtfcHl0aG9uJywgJy1waCcsICc3LjAnLCAnLXRuJywgJzgnLCAnLW1hJywgJzIwMCcsICctbWV0YWxfYmluZGluZycsICctaW1hZScsICc8aW5maWxlLm1hZT4nLCAnLW9tYWUnLCAnPG91dGZpbGUubWFlPic=

> <r_lp_tautomer_probability>
1

> <r_epik_Ionization_Penalty>
1.44925e-05

> <r_epik_Ionization_Penalty_Charging>
0

> <r_epik_Ionization_Penalty_Neutral>
1.44925e-05

> <r_epik_State_Penalty>
-0

> <r_epik_Charging_Adjusted_Penalty>
0

> <i_epik_Tot_Q>
0

> <i_epik_Tot_abs_Q>
0

> <r_epik_Metal_State_Penalty>
0.00862991

> <b_epik_Metal_Only>
0

> <s_lp_Force_Field>
OPLS_2005

> <r_lp_Energy>
17.3369

> <b_lp_Chiralities_Consistent>
1

> <s_lp_Variant>
AV-unprocessed.smi:1800-2

> <Gold.Version>
5.8.1

> <Gold.Id.Protein>
6NUR|6NUR_protein|mol2

> <Gold.PLP.Fitness>
41.9280

> <Gold.PLP.PLP>
-36.0088

> <Gold.PLP.part.hbond>
-1.0000

> <Gold.PLP.part.metal>
0.0000

> <Gold.PLP.part.buried>
-3.7303

> <Gold.PLP.part.nonpolar>
-32.4845

> <Gold.PLP.part.repulsive>
0.1767

> <Gold.PLP.ligand.clash>
0.0000

> <Gold.PLP.ligand.torsion>
0.1652

> <Gold.PLP.Chemscore.Hbond>
1.0000

> <Gold.PLP.Chemscore.CHOScore>
1.0000

> <Gold.PLP.Chemscore.Metal>
0.0000

> <Gold.Chemscore.Hbonds>
donor molecule, donor type, donor heavy atom, donor atom, acceptor molecule, acceptor atom, score
      P1  H  7989  7998       L1    11  1.00
      L1  C     5    24       P1  8028  1.00

> <Gold.PLP.Chemscore.Internal.Correction>
0.2496

> <Gold.Rescore>
     Score         DG    S(hbond)    S(metal)    S(lipo)     H(rot)  DE(clash)    DE(int)     intcor
     11.62     -14.45       0.98        0.00      87.30       1.76       0.11       2.72       ----

> <Gold.Chemscore.Fitness>
11.6202

> <Gold.Chemscore.DG>
-14.4511

> <Gold.Chemscore.ZeroCoef>
-5.4800

> <Gold.Chemscore.Hbond>
0.9757

> <Gold.Chemscore.Metal>
0.0000

> <Gold.Chemscore.Lipo>
87.3007

> <Gold.Chemscore.Internal_Hbond>
0.0000

> <Gold.Chemscore.DEClash>
0.1113

> <Gold.Chemscore.DEInternal>
2.7196

> <Gold.Chemscore.Rot>
1.7585

> <Gold.Chemscore.Internal.Correction>
   9.000000E+99

> <Gold.Chemscore.Hbonds>
donor molecule, donor type, donor heavy atom, donor atom, acceptor molecule, acceptor atom, score
      P1  H  7989  7998       L1    11  0.85

> <Gold.Chemscore.Hbond.Weighted>
-3.2588

> <Gold.Chemscore.Metal.Weighted>
-0.0000

> <Gold.Chemscore.Lipo.Weighted>
-10.2142

> <Gold.Chemscore.Internal_Hbond.Weighted>
0.0000

> <Gold.Chemscore.DEClash.Weighted>
0.1113

> <Gold.Chemscore.DEInternal.Weighted>
2.7196

> <Gold.Chemscore.Rot.Weighted>
4.5019

> <Gold.Chemscore.Internal.Correction.Weighted>
   9.000000E+99

> <Gold.Protein.RotatedTorsions>
[ 6907 6896 6895 6894 ] final  112.83 input  -60.11 | X-H torsion
[ 7974 7965 7964 7962 ] final  154.99 input  175.53 | X-H torsion
[ 8008 7997 7996 7995 ] final  -60.21 input   59.86 | X-H torsion
[ 10167 10162 10161 10158 ] final -172.27 input  -65.29 | X-H torsion
[ 10718 10713 10712 10709 ] final   26.30 input   66.30 | X-H torsion
[ 10763 10752 10751 10750 ] final  -87.41 input  -60.55 | X-H torsion
[ 11005 11000 10999 10996 ] final -147.31 input  -57.11 | X-H torsion

> <Gold.Protein.ActiveResidues>
 VAL166  LYS551  ARG553  GLY616  TRP617  ASP618  TYR619  PRO620  LYS621  CYS622 
 ASP623  PHE694  ASN695  SER759  ASP760  ASP761  ALA762  ILE779  LEU786  VAL792 
 PHE793  MET794  SER795  GLU796  ALA797  LYS798  CYS799  TRP800  GLU811  SER814 

> <Gold.Protein.RotatedAtoms>
  152.4895  133.8461  159.7177 H   0  0  0  0  0  0  0  0  0  0  0  0  # atno 6907 bound_to 6896
  150.9011  133.7108  159.2885 H   0  0  0  0  0  0  0  0  0  0  0  0  # atno 6908 bound_to 6896
  151.4549  135.1037  159.9760 H   0  0  0  0  0  0  0  0  0  0  0  0  # atno 6909 bound_to 6896
  144.8053  139.7007  143.6164 H   0  0  0  0  0  0  0  0  0  0  0  0  # atno 7974 bound_to 7965
  154.4388  140.1044  156.6238 H   0  0  0  0  0  0  0  0  0  0  0  0  # atno 8008 bound_to 7997
  155.5678  140.3488  155.4489 H   0  0  0  0  0  0  0  0  0  0  0  0  # atno 8009 bound_to 7997
  156.0412  140.1282  157.0143 H   0  0  0  0  0  0  0  0  0  0  0  0  # atno 8010 bound_to 7997
  139.5754  144.1545  152.1443 H   0  0  0  0  0  0  0  0  0  0  0  0  # atno 10167 bound_to 10162
  157.2050  130.6908  149.6204 H   0  0  0  0  0  0  0  0  0  0  0  0  # atno 10718 bound_to 10713
  154.6333  135.5414  153.7705 H   0  0  0  0  0  0  0  0  0  0  0  0  # atno 10763 bound_to 10752
  153.0295  135.6441  154.1269 H   0  0  0  0  0  0  0  0  0  0  0  0  # atno 10764 bound_to 10752
  154.1198  135.2921  155.3191 H   0  0  0  0  0  0  0  0  0  0  0  0  # atno 10765 bound_to 10752
  140.7730  134.3167  157.5069 H   0  0  0  0  0  0  0  0  0  0  0  0  # atno 11005 bound_to 11000
  146.2343  139.5875  142.9534 LP  0  0  0  0  0  0  0  0  0  0  0  0  # atno 17320 bound_to 7965
  145.5452  141.0418  143.2308 LP  0  0  0  0  0  0  0  0  0  0  0  0  # atno 17321 bound_to 7965
  140.1087  144.5476  150.6940 LP  0  0  0  0  0  0  0  0  0  0  0  0  # atno 17342 bound_to 10162
  140.7037  143.2452  151.4790 LP  0  0  0  0  0  0  0  0  0  0  0  0  # atno 17343 bound_to 10162
  155.9696  130.4570  150.5946 LP  0  0  0  0  0  0  0  0  0  0  0  0  # atno 17370 bound_to 10713
  157.3729  131.0768  151.1542 LP  0  0  0  0  0  0  0  0  0  0  0  0  # atno 17371 bound_to 10713
  139.8753  134.9272  156.3420 LP  0  0  0  0  0  0  0  0  0  0  0  0  # atno 17394 bound_to 11000
  140.9556  133.7422  156.0330 LP  0  0  0  0  0  0  0  0  0  0  0  0  # atno 17395 bound_to 11000

$$$$
