AV-unprocessed.smi:2288|AV-procd|sdf|9206|dock2
  -GOLD-   2272012423D 1   1.00000     0.00000
 Structure written by MMmdl.
 40 41  0  0  0  0  0  0  0  0  1 V2000
  152.0049  145.1905  158.9011 C   0  0  0  0  0  0  0  0  0  0  0  0
  152.2754  143.7193  159.1393 C   0  0  0  0  0  0  0  0  0  0  0  0
  152.9002  143.2928  160.3289 C   0  0  0  0  0  0  0  0  0  0  0  0
  153.1500  141.9229  160.5466 C   0  0  0  0  0  0  0  0  0  0  0  0
  153.8243  141.4751  161.8270 C   0  0  0  0  0  0  0  0  0  0  0  0
  152.7731  140.9779  159.5700 C   0  0  0  0  0  0  0  0  0  0  0  0
  152.1478  141.3965  158.3763 C   0  0  0  0  0  0  0  0  0  0  0  0
  151.7362  140.3676  157.3341 C   0  0  2  0  0  0  0  0  0  0  0  0
  152.8063  139.4964  157.0261 O   0  0  0  0  0  0  0  0  0  0  0  0
  151.2577  141.0572  156.0363 C   0  0  0  0  0  0  0  0  0  0  0  0
  149.8129  141.3443  156.0550 N   0  0  0  0  0  0  0  0  0  0  0  0
  149.2446  141.5967  157.3151 C   0  0  0  0  0  0  0  0  0  0  0  0
  147.9848  141.8511  157.4546 N   0  0  0  0  0  0  0  0  0  0  0  0
  147.1514  141.8780  156.3328 C   0  0  0  0  0  0  0  0  0  0  0  0
  145.6900  142.1835  156.6097 C   0  0  0  0  0  0  0  0  0  0  0  0
  147.6386  141.6419  155.0841 C   0  0  0  0  0  0  0  0  0  0  0  0
  146.7788  141.6606  153.8263 C   0  0  0  0  0  0  0  0  0  0  0  0
  149.0715  141.3528  154.9096 C   0  0  0  0  0  0  0  0  0  0  0  0
  149.5768  141.1311  153.8077 O   0  0  0  0  0  0  0  0  0  0  0  0
  151.8976  142.7705  158.1680 C   0  0  0  0  0  0  0  0  0  0  0  0
  152.5588  145.8139  159.6038 H   0  0  0  0  0  0  0  0  0  0  0  0
  150.9421  145.4017  159.0189 H   0  0  0  0  0  0  0  0  0  0  0  0
  152.3021  145.4737  157.8911 H   0  0  0  0  0  0  0  0  0  0  0  0
  153.1886  144.0163  161.0778 H   0  0  0  0  0  0  0  0  0  0  0  0
  153.8722  140.3878  161.8937 H   0  0  0  0  0  0  0  0  0  0  0  0
  153.2759  141.8447  162.6938 H   0  0  0  0  0  0  0  0  0  0  0  0
  154.8416  141.8647  161.8725 H   0  0  0  0  0  0  0  0  0  0  0  0
  152.9633  139.9278  159.7378 H   0  0  0  0  0  0  0  0  0  0  0  0
  150.9320  139.7617  157.7540 H   0  0  0  0  0  0  0  0  0  0  0  0
  152.5043  138.8630  156.3932 H   0  0  0  0  0  0  0  0  0  0  0  0
  151.7921  142.0026  155.9188 H   0  0  0  0  0  0  0  0  0  0  0  0
  151.5517  140.4760  155.1602 H   0  0  0  0  0  0  0  0  0  0  0  0
  149.9375  141.5576  158.1576 H   0  0  0  0  0  0  0  0  0  0  0  0
  145.0590  141.3553  156.2860 H   0  0  0  0  0  0  0  0  0  0  0  0
  145.3805  143.0856  156.0815 H   0  0  0  0  0  0  0  0  0  0  0  0
  145.5121  142.3415  157.6741 H   0  0  0  0  0  0  0  0  0  0  0  0
  147.1312  142.4341  153.1432 H   0  0  0  0  0  0  0  0  0  0  0  0
  145.7269  141.8554  154.0276 H   0  0  0  0  0  0  0  0  0  0  0  0
  146.8416  140.7008  153.3124 H   0  0  0  0  0  0  0  0  0  0  0  0
  151.4132  143.0986  157.2595 H   0  0  0  0  0  0  0  0  0  0  0  0
  1  2  1  0  0  0  0
  1 21  1  0  0  0  0
  1 22  1  0  0  0  0
  1 23  1  0  0  0  0
  2 20  1  0  0  0  0
  2  3  2  0  0  0  0
  3  4  1  0  0  0  0
  3 24  1  0  0  0  0
  4  5  1  0  0  0  0
  4  6  2  0  0  0  0
  5 25  1  0  0  0  0
  5 26  1  0  0  0  0
  5 27  1  0  0  0  0
  6  7  1  0  0  0  0
  6 28  1  0  0  0  0
  7  8  1  0  0  0  0
  7 20  2  0  0  0  0
  8  9  1  0  0  0  0
  8 10  1  0  0  0  0
  8 29  1  0  0  0  0
  9 30  1  0  0  0  0
 10 11  1  0  0  0  0
 10 31  1  0  0  0  0
 10 32  1  0  0  0  0
 11 18  1  0  0  0  0
 11 12  1  0  0  0  0
 12 13  2  0  0  0  0
 12 33  1  0  0  0  0
 13 14  1  0  0  0  0
 14 15  1  0  0  0  0
 14 16  2  0  0  0  0
 15 34  1  0  0  0  0
 15 35  1  0  0  0  0
 15 36  1  0  0  0  0
 16 17  1  0  0  0  0
 16 18  1  0  0  0  0
 17 37  1  0  0  0  0
 17 38  1  0  0  0  0
 17 39  1  0  0  0  0
 18 19  2  0  0  0  0
 20 40  1  0  0  0  0
M  END
> <s_m_source_file>
AV-unprocessed.smi

> <i_m_source_file_index>
2288

> <i_lp_mmshare_version>
43012

> <i_f3d_flags>
0

> <s_epik_input>
W0NIM11jMVtjSF1jKFtDSDNdKVtjSF1jKFtjSF0xKVtDQEhdKFtPSF0pW0NIMl1uMltjSF1uYyhbQ0gzXSljKFtDSDNdKWMyPU8=

> <s_epik_cmdline>
J2VwaWtfcHl0aG9uJywgJy1waCcsICc3LjAnLCAnLXRuJywgJzgnLCAnLW1hJywgJzIwMCcsICctbWV0YWxfYmluZGluZycsICctaW1hZScsICc8aW5maWxlLm1hZT4nLCAnLW9tYWUnLCAnPG91dGZpbGUubWFlPic=

> <r_lp_tautomer_probability>
1

> <r_epik_Ionization_Penalty>
5.07027e-05

> <r_epik_Ionization_Penalty_Charging>
7.56727e-08

> <r_epik_Ionization_Penalty_Neutral>
5.06271e-05

> <r_epik_State_Penalty>
-0

> <r_epik_Charging_Adjusted_Penalty>
7.56727e-08

> <i_epik_Tot_Q>
0

> <i_epik_Tot_abs_Q>
0

> <r_epik_Metal_State_Penalty>
-0

> <b_epik_Metal_Only>
0

> <s_lp_Force_Field>
OPLS_2005

> <r_lp_Energy>
20.195

> <b_lp_Chiralities_Consistent>
1

> <s_lp_Variant>
AV-unprocessed.smi:2288-1

> <Gold.Version>
5.8.1

> <Gold.Id.Protein>
6NUR|6NUR_protein|mol2

> <Gold.PLP.Fitness>
50.8705

> <Gold.PLP.PLP>
-45.9601

> <Gold.PLP.part.hbond>
-3.0000

> <Gold.PLP.part.metal>
0.0000

> <Gold.PLP.part.buried>
-5.5000

> <Gold.PLP.part.nonpolar>
-39.0806

> <Gold.PLP.part.repulsive>
2.1185

> <Gold.PLP.ligand.clash>
0.0000

> <Gold.PLP.ligand.torsion>
0.9219

> <Gold.PLP.Chemscore.Hbond>
2.2451

> <Gold.PLP.Chemscore.CHOScore>
0.0000

> <Gold.PLP.Chemscore.Metal>
0.0000

> <Gold.Chemscore.Hbonds>
donor molecule, donor type, donor heavy atom, donor atom, acceptor molecule, acceptor atom, score
      P1  H  7989  7998       L1    19  0.30
      P1  H  7997  8009       L1     9  0.98
      P1  H  8011  8017       L1    19  0.90

> <Gold.PLP.Chemscore.Internal.Correction>
0.0189

> <Gold.Rescore>
     Score         DG    S(hbond)    S(metal)    S(lipo)     H(rot)  DE(clash)    DE(int)     intcor
     19.08     -21.36       2.15        0.00     115.74       1.89       1.41       0.88       ----

> <Gold.Chemscore.Fitness>
19.0771

> <Gold.Chemscore.DG>
-21.3605

> <Gold.Chemscore.ZeroCoef>
-5.4800

> <Gold.Chemscore.Hbond>
2.1495

> <Gold.Chemscore.Metal>
0.0000

> <Gold.Chemscore.Lipo>
115.7369

> <Gold.Chemscore.Internal_Hbond>
0.0000

> <Gold.Chemscore.DEClash>
1.4067

> <Gold.Chemscore.DEInternal>
0.8767

> <Gold.Chemscore.Rot>
1.8907

> <Gold.Chemscore.Internal.Correction>
   9.000000E+99

> <Gold.Chemscore.Hbonds>
donor molecule, donor type, donor heavy atom, donor atom, acceptor molecule, acceptor atom, score
      P1  H  7989  7998       L1    19  0.28
      P1  H  7997  8009       L1     9  0.89
      P1  H  8011  8017       L1    19  0.86

> <Gold.Chemscore.Hbond.Weighted>
-7.1794

> <Gold.Chemscore.Metal.Weighted>
-0.0000

> <Gold.Chemscore.Lipo.Weighted>
-13.5412

> <Gold.Chemscore.Internal_Hbond.Weighted>
0.0000

> <Gold.Chemscore.DEClash.Weighted>
1.4067

> <Gold.Chemscore.DEInternal.Weighted>
0.8767

> <Gold.Chemscore.Rot.Weighted>
4.8401

> <Gold.Chemscore.Internal.Correction.Weighted>
   9.000000E+99

> <Gold.Protein.RotatedTorsions>
[ 6907 6896 6895 6894 ] final  -13.11 input  -60.11 | X-H torsion
[ 7974 7965 7964 7962 ] final -177.48 input  175.53 | X-H torsion
[ 8008 7997 7996 7995 ] final  158.91 input   59.86 | X-H torsion
[ 10167 10162 10161 10158 ] final   83.48 input  -65.29 | X-H torsion
[ 10718 10713 10712 10709 ] final  127.09 input   66.30 | X-H torsion
[ 10763 10752 10751 10750 ] final  176.51 input  -60.55 | X-H torsion
[ 11005 11000 10999 10996 ] final  143.13 input  -57.11 | X-H torsion

> <Gold.Protein.ActiveResidues>
 VAL166  LYS551  ARG553  GLY616  TRP617  ASP618  TYR619  PRO620  LYS621  CYS622 
 ASP623  PHE694  ASN695  SER759  ASP760  ASP761  ALA762  ILE779  LEU786  VAL792 
 PHE793  MET794  SER795  GLU796  ALA797  LYS798  CYS799  TRP800  GLU811  SER814 

> <Gold.Protein.RotatedAtoms>
  151.3601  135.0902  159.9431 H   0  0  0  0  0  0  0  0  0  0  0  0  # atno 6907 bound_to 6896
  152.5164  133.9267  159.7571 H   0  0  0  0  0  0  0  0  0  0  0  0  # atno 6908 bound_to 6896
  150.9659  133.6340  159.2775 H   0  0  0  0  0  0  0  0  0  0  0  0  # atno 6909 bound_to 6896
  144.7128  140.1013  143.6416 H   0  0  0  0  0  0  0  0  0  0  0  0  # atno 7974 bound_to 7965
  156.2273  140.1845  156.7331 H   0  0  0  0  0  0  0  0  0  0  0  0  # atno 8008 bound_to 7997
  154.5962  140.0643  156.9335 H   0  0  0  0  0  0  0  0  0  0  0  0  # atno 8009 bound_to 7997
  155.2251  140.3310  155.4313 H   0  0  0  0  0  0  0  0  0  0  0  0  # atno 8010 bound_to 7997
  139.9179  144.6231  150.8470 H   0  0  0  0  0  0  0  0  0  0  0  0  # atno 10167 bound_to 10162
  157.5363  131.1097  150.8930 H   0  0  0  0  0  0  0  0  0  0  0  0  # atno 10718 bound_to 10713
  154.4821  135.2775  155.1563 H   0  0  0  0  0  0  0  0  0  0  0  0  # atno 10763 bound_to 10752
  154.3269  135.6198  153.5537 H   0  0  0  0  0  0  0  0  0  0  0  0  # atno 10764 bound_to 10752
  152.9876  135.5756  154.5224 H   0  0  0  0  0  0  0  0  0  0  0  0  # atno 10765 bound_to 10752
  140.0530  134.9245  157.1050 H   0  0  0  0  0  0  0  0  0  0  0  0  # atno 11005 bound_to 11000
  145.9535  139.2750  143.1198 LP  0  0  0  0  0  0  0  0  0  0  0  0  # atno 17320 bound_to 7965
  145.9298  140.9057  143.0362 LP  0  0  0  0  0  0  0  0  0  0  0  0  # atno 17321 bound_to 7965
  140.7669  143.3318  151.2394 LP  0  0  0  0  0  0  0  0  0  0  0  0  # atno 17342 bound_to 10162
  139.6886  143.9730  152.2847 LP  0  0  0  0  0  0  0  0  0  0  0  0  # atno 17343 bound_to 10162
  156.9497  130.5415  149.5282 LP  0  0  0  0  0  0  0  0  0  0  0  0  # atno 17370 bound_to 10713
  156.0461  130.5537  150.8884 LP  0  0  0  0  0  0  0  0  0  0  0  0  # atno 17371 bound_to 10713
  140.3888  134.2207  155.7167 LP  0  0  0  0  0  0  0  0  0  0  0  0  # atno 17394 bound_to 11000
  141.1939  133.8140  157.0780 LP  0  0  0  0  0  0  0  0  0  0  0  0  # atno 17395 bound_to 11000

$$$$
