AV-unprocessed.smi:2902|AV-procd|sdf|11158|dock2
  -GOLD-   2272016 43D 1   1.00000     0.00000
 Structure written by MMmdl.
 47 48  0  0  0  0  0  0  0  0  1 V2000
  156.5126  137.5264  159.9559 C   0  0  0  0  0  0  0  0  0  0  0  0
  155.7738  138.5763  159.1166 C   0  0  0  0  0  0  0  0  0  0  0  0
  154.4047  138.9598  159.7085 C   0  0  1  0  0  0  0  0  0  0  0  0
  153.8507  139.9977  158.8990 O   0  0  0  0  0  0  0  0  0  0  0  0
  152.9195  140.8694  159.5346 C   0  0  0  0  0  0  0  0  0  0  0  0
  152.4475  142.0010  158.6177 C   0  0  0  0  0  0  0  0  0  0  0  0
  151.9849  143.1061  159.5726 C   0  0  0  0  0  0  0  0  0  0  0  0
  152.7332  142.8703  160.8945 C   0  0  0  0  0  0  0  0  0  0  0  0
  153.5954  141.6211  160.6801 C   0  0  0  0  0  0  0  0  0  0  0  0
  153.4572  137.7500  159.7552 C   0  0  0  0  0  0  0  0  0  0  0  0
  153.3680  137.0692  160.7771 O   0  0  0  0  0  0  0  0  0  0  0  0
  152.7752  137.4842  158.6299 N   0  0  0  0  0  0  0  0  0  0  0  0
  151.8695  136.3546  158.4311 C   0  0  1  0  0  0  0  0  0  0  0  0
  150.4433  136.7579  158.8532 C   0  0  0  0  0  0  0  0  0  0  0  0
  151.9584  135.8556  156.9659 C   0  0  1  0  0  0  0  0  0  0  0  0
  151.3257  134.4664  156.7599 C   0  0  0  0  0  0  0  0  0  0  0  0
  151.3705  136.8112  156.0372 N   0  0  0  0  0  0  0  0  0  0  0  0
  151.6566  138.0955  155.8100 C   0  0  0  0  0  0  0  0  0  0  0  0
  150.9040  138.6556  154.8736 N   0  0  0  0  0  0  0  0  0  0  0  0
  150.1192  137.5872  154.5431 C   0  0  0  0  0  0  0  0  0  0  0  0
  150.3570  136.4584  155.2112 N   0  0  0  0  0  0  0  0  0  0  0  0
  157.4702  137.2715  159.5016 H   0  0  0  0  0  0  0  0  0  0  0  0
  155.9301  136.6088  160.0412 H   0  0  0  0  0  0  0  0  0  0  0  0
  156.7115  137.8932  160.9633 H   0  0  0  0  0  0  0  0  0  0  0  0
  156.4011  139.4635  159.0189 H   0  0  0  0  0  0  0  0  0  0  0  0
  155.6404  138.1822  158.1079 H   0  0  0  0  0  0  0  0  0  0  0  0
  154.5605  139.3375  160.7212 H   0  0  0  0  0  0  0  0  0  0  0  0
  152.0615  140.3271  159.9368 H   0  0  0  0  0  0  0  0  0  0  0  0
  153.2870  142.3626  158.0222 H   0  0  0  0  0  0  0  0  0  0  0  0
  151.6630  141.6954  157.9263 H   0  0  0  0  0  0  0  0  0  0  0  0
  152.1811  144.0964  159.1610 H   0  0  0  0  0  0  0  0  0  0  0  0
  150.9101  143.0289  159.7403 H   0  0  0  0  0  0  0  0  0  0  0  0
  153.3429  143.7290  161.1779 H   0  0  0  0  0  0  0  0  0  0  0  0
  152.0166  142.6996  161.6988 H   0  0  0  0  0  0  0  0  0  0  0  0
  153.6909  141.0149  161.5813 H   0  0  0  0  0  0  0  0  0  0  0  0
  154.5995  141.9234  160.3781 H   0  0  0  0  0  0  0  0  0  0  0  0
  152.9127  138.0991  157.8408 H   0  0  0  0  0  0  0  0  0  0  0  0
  152.1887  135.5351  159.0781 H   0  0  0  0  0  0  0  0  0  0  0  0
  149.7560  135.9128  158.8129 H   0  0  0  0  0  0  0  0  0  0  0  0
  150.0463  137.5404  158.2059 H   0  0  0  0  0  0  0  0  0  0  0  0
  150.4255  137.1338  159.8767 H   0  0  0  0  0  0  0  0  0  0  0  0
  153.0165  135.7669  156.7108 H   0  0  0  0  0  0  0  0  0  0  0  0
  151.8307  133.7021  157.3505 H   0  0  0  0  0  0  0  0  0  0  0  0
  151.3899  134.1594  155.7154 H   0  0  0  0  0  0  0  0  0  0  0  0
  150.2725  134.4629  157.0422 H   0  0  0  0  0  0  0  0  0  0  0  0
  152.4320  138.6303  156.3391 H   0  0  0  0  0  0  0  0  0  0  0  0
  149.3490  137.6433  153.7880 H   0  0  0  0  0  0  0  0  0  0  0  0
  1  2  1  0  0  0  0
  1 22  1  0  0  0  0
  1 23  1  0  0  0  0
  1 24  1  0  0  0  0
  2  3  1  0  0  0  0
  2 25  1  0  0  0  0
  2 26  1  0  0  0  0
  3  4  1  0  0  0  0
  3 10  1  0  0  0  0
  3 27  1  0  0  0  0
  4  5  1  0  0  0  0
  5  9  1  0  0  0  0
  5  6  1  0  0  0  0
  5 28  1  0  0  0  0
  6  7  1  0  0  0  0
  6 29  1  0  0  0  0
  6 30  1  0  0  0  0
  7  8  1  0  0  0  0
  7 31  1  0  0  0  0
  7 32  1  0  0  0  0
  8  9  1  0  0  0  0
  8 33  1  0  0  0  0
  8 34  1  0  0  0  0
  9 35  1  0  0  0  0
  9 36  1  0  0  0  0
 10 11  2  0  0  0  0
 10 12  1  0  0  0  0
 12 13  1  0  0  0  0
 12 37  1  0  0  0  0
 13 14  1  0  0  0  0
 13 15  1  0  0  0  0
 13 38  1  0  0  0  0
 14 39  1  0  0  0  0
 14 40  1  0  0  0  0
 14 41  1  0  0  0  0
 15 16  1  0  0  0  0
 15 17  1  0  0  0  0
 15 42  1  0  0  0  0
 16 43  1  0  0  0  0
 16 44  1  0  0  0  0
 16 45  1  0  0  0  0
 17 21  1  0  0  0  0
 17 18  1  0  0  0  0
 18 19  2  0  0  0  0
 18 46  1  0  0  0  0
 19 20  1  0  0  0  0
 20 21  2  0  0  0  0
 20 47  1  0  0  0  0
M  END
> <s_m_source_file>
AV-unprocessed.smi

> <i_m_source_file_index>
2902

> <i_lp_mmshare_version>
43012

> <i_f3d_flags>
0

> <s_epik_input>
W0NIMl0xW0NIMl1bQ0gyXVtDSDJdW0NIXTFPW0NAQEhdKFtDSDJdW0NIM10pQyg9TylbTkhdW0NASF0oW0NIM10pW0NASF0oW0NIM10pbjJbY0hdbltjSF1uMg==

> <s_epik_cmdline>
J2VwaWtfcHl0aG9uJywgJy1waCcsICc3LjAnLCAnLXRuJywgJzgnLCAnLW1hJywgJzIwMCcsICctbWV0YWxfYmluZGluZycsICctaW1hZScsICc8aW5maWxlLm1hZT4nLCAnLW9tYWUnLCAnPG91dGZpbGUubWFlPic=

> <r_lp_tautomer_probability>
1

> <r_epik_Ionization_Penalty>
6.95617e-05

> <r_epik_Ionization_Penalty_Charging>
0

> <r_epik_Ionization_Penalty_Neutral>
6.95617e-05

> <r_epik_State_Penalty>
-0

> <r_epik_Charging_Adjusted_Penalty>
0

> <i_epik_Tot_Q>
0

> <i_epik_Tot_abs_Q>
0

> <r_epik_Metal_State_Penalty>
-0

> <b_epik_Metal_Only>
0

> <s_lp_Force_Field>
OPLS_2005

> <r_lp_Energy>
30.3462

> <b_lp_Chiralities_Consistent>
1

> <s_lp_Variant>
AV-unprocessed.smi:2902-8

> <Gold.Version>
5.8.1

> <Gold.Id.Protein>
6NUR|6NUR_protein|mol2

> <Gold.PLP.Fitness>
44.6405

> <Gold.PLP.PLP>
-35.4096

> <Gold.PLP.part.hbond>
-3.0000

> <Gold.PLP.part.metal>
0.0000

> <Gold.PLP.part.buried>
-3.6145

> <Gold.PLP.part.nonpolar>
-28.0112

> <Gold.PLP.part.repulsive>
0.3687

> <Gold.PLP.ligand.clash>
0.0000

> <Gold.PLP.ligand.torsion>
1.4957

> <Gold.PLP.Chemscore.Hbond>
3.0000

> <Gold.PLP.Chemscore.CHOScore>
1.0000

> <Gold.PLP.Chemscore.Metal>
0.0000

> <Gold.Chemscore.Hbonds>
donor molecule, donor type, donor heavy atom, donor atom, acceptor molecule, acceptor atom, score
      P1  H  7997  8008       L1     4  1.00
      L1  C    20    47       P1  7948  0.99

> <Gold.PLP.Chemscore.Internal.Correction>
0.2223

> <Gold.Rescore>
     Score         DG    S(hbond)    S(metal)    S(lipo)     H(rot)  DE(clash)    DE(int)     intcor
     15.40     -17.19       2.88        0.00      76.74       2.69       0.04       1.76       ----

> <Gold.Chemscore.Fitness>
15.3959

> <Gold.Chemscore.DG>
-17.1872

> <Gold.Chemscore.ZeroCoef>
-5.4800

> <Gold.Chemscore.Hbond>
2.8815

> <Gold.Chemscore.Metal>
0.0000

> <Gold.Chemscore.Lipo>
76.7388

> <Gold.Chemscore.Internal_Hbond>
0.0000

> <Gold.Chemscore.DEClash>
0.0358

> <Gold.Chemscore.DEInternal>
1.7555

> <Gold.Chemscore.Rot>
2.6935

> <Gold.Chemscore.Internal.Correction>
   9.000000E+99

> <Gold.Chemscore.Hbonds>
donor molecule, donor type, donor heavy atom, donor atom, acceptor molecule, acceptor atom, score
      P1  H  7997  8008       L1     4  0.58

> <Gold.Chemscore.Hbond.Weighted>
-9.6241

> <Gold.Chemscore.Metal.Weighted>
-0.0000

> <Gold.Chemscore.Lipo.Weighted>
-8.9784

> <Gold.Chemscore.Internal_Hbond.Weighted>
0.0000

> <Gold.Chemscore.DEClash.Weighted>
0.0358

> <Gold.Chemscore.DEInternal.Weighted>
1.7555

> <Gold.Chemscore.Rot.Weighted>
6.8954

> <Gold.Chemscore.Internal.Correction.Weighted>
   9.000000E+99

> <Gold.Protein.RotatedTorsions>
[ 6907 6896 6895 6894 ] final  139.83 input  -60.11 | X-H torsion
[ 7974 7965 7964 7962 ] final   -5.85 input  175.53 | X-H torsion
[ 8008 7997 7996 7995 ] final -106.66 input   59.86 | X-H torsion
[ 10167 10162 10161 10158 ] final -147.10 input  -65.29 | X-H torsion
[ 10718 10713 10712 10709 ] final  -96.17 input   66.30 | X-H torsion
[ 10763 10752 10751 10750 ] final -176.82 input  -60.55 | X-H torsion
[ 11005 11000 10999 10996 ] final   -2.77 input  -57.11 | X-H torsion

> <Gold.Protein.ActiveResidues>
 VAL166  LYS551  ARG553  GLY616  TRP617  ASP618  TYR619  PRO620  LYS621  CYS622 
 ASP623  PHE694  ASN695  SER759  ASP760  ASP761  ALA762  ILE779  LEU786  VAL792 
 PHE793  MET794  SER795  GLU796  ALA797  LYS798  CYS799  TRP800  GLU811  SER814 

> <Gold.Protein.RotatedAtoms>
  152.2503  133.5209  159.5320 H   0  0  0  0  0  0  0  0  0  0  0  0  # atno 6907 bound_to 6896
  150.7091  134.0969  159.3961 H   0  0  0  0  0  0  0  0  0  0  0  0  # atno 6908 bound_to 6896
  151.8889  135.0424  160.0546 H   0  0  0  0  0  0  0  0  0  0  0  0  # atno 6909 bound_to 6896
  146.2344  140.2083  142.8335 H   0  0  0  0  0  0  0  0  0  0  0  0  # atno 7974 bound_to 7965
  154.9178  140.0408  157.1981 H   0  0  0  0  0  0  0  0  0  0  0  0  # atno 8008 bound_to 7997
  154.8284  140.2895  155.5717 H   0  0  0  0  0  0  0  0  0  0  0  0  # atno 8009 bound_to 7997
  156.2985  140.2505  156.3205 H   0  0  0  0  0  0  0  0  0  0  0  0  # atno 8010 bound_to 7997
  139.7653  143.8317  152.2615 H   0  0  0  0  0  0  0  0  0  0  0  0  # atno 10167 bound_to 10162
  156.0057  130.5140  150.6186 H   0  0  0  0  0  0  0  0  0  0  0  0  # atno 10718 bound_to 10713
  154.5676  135.2825  155.0858 H   0  0  0  0  0  0  0  0  0  0  0  0  # atno 10763 bound_to 10752
  154.2243  135.6385  153.5158 H   0  0  0  0  0  0  0  0  0  0  0  0  # atno 10764 bound_to 10752
  153.0048  135.5522  154.6290 H   0  0  0  0  0  0  0  0  0  0  0  0  # atno 10765 bound_to 10752
  140.6620  133.9312  155.8442 H   0  0  0  0  0  0  0  0  0  0  0  0  # atno 11005 bound_to 11000
  144.9727  140.8384  143.5445 LP  0  0  0  0  0  0  0  0  0  0  0  0  # atno 17320 bound_to 7965
  145.2067  139.2225  143.5164 LP  0  0  0  0  0  0  0  0  0  0  0  0  # atno 17321 bound_to 7965
  139.8335  144.7243  150.9420 LP  0  0  0  0  0  0  0  0  0  0  0  0  # atno 17342 bound_to 10162
  140.7810  143.4048  151.1090 LP  0  0  0  0  0  0  0  0  0  0  0  0  # atno 17343 bound_to 10162
  157.4006  131.0809  151.1312 LP  0  0  0  0  0  0  0  0  0  0  0  0  # atno 17370 bound_to 10713
  157.1975  130.6379  149.5726 LP  0  0  0  0  0  0  0  0  0  0  0  0  # atno 17371 bound_to 10713
  141.0458  134.0556  157.3846 LP  0  0  0  0  0  0  0  0  0  0  0  0  # atno 17394 bound_to 11000
  139.9010  135.0164  156.7267 LP  0  0  0  0  0  0  0  0  0  0  0  0  # atno 17395 bound_to 11000

$$$$
