AV-unprocessed.smi:221|AV-procd|sdf|1690|dock4
  -GOLD-   2262020133D 1   1.00000     0.00000
 Structure written by MMmdl.
 50 53  0  0  0  0  0  0  0  0  1 V2000
  148.7326  132.3151  159.5512 N   0  0  0  0  0  0  0  0  0  0  0  0
  148.2502  133.5169  159.2264 C   0  0  0  0  0  0  0  0  0  0  0  0
  147.9408  133.8065  158.0718 O   0  0  0  0  0  0  0  0  0  0  0  0
  148.0768  134.5247  160.3718 C   0  0  2  0  0  0  0  0  0  0  0  0
  147.0585  134.0382  161.4117 C   0  0  0  0  0  0  0  0  0  0  0  0
  146.5909  135.3313  162.0697 C   0  0  1  0  0  0  0  0  0  0  0  0
  147.4707  135.7015  163.0016 F   0  0  0  0  0  0  0  0  0  0  0  0
  146.6096  136.3387  160.9176 C   0  0  0  0  0  0  0  0  0  0  0  0
  147.5242  135.8013  159.9133 N   0  0  0  0  0  0  0  0  0  0  0  0
  148.4130  136.6810  159.4012 C   0  0  0  0  0  0  0  0  0  0  0  0
  149.7278  136.4177  159.5959 N   0  0  0  0  0  0  0  0  0  0  0  0
  150.6539  137.2521  159.1133 C   0  0  0  0  0  0  0  0  0  0  0  0
  150.4822  138.3812  158.4216 N   0  0  0  0  0  0  0  0  0  0  0  0
  149.1587  138.6470  158.2255 C   0  0  0  0  0  0  0  0  0  0  0  0
  148.0657  137.8564  158.6780 C   0  0  0  0  0  0  0  0  0  0  0  0
  146.8648  138.4407  158.2936 N   0  0  0  0  0  0  0  0  0  0  0  0
  147.2271  139.5166  157.6500 C   0  0  0  0  0  0  0  0  0  0  0  0
  148.5857  139.7205  157.5659 N   0  0  0  0  0  0  0  0  0  0  0  0
  149.2527  140.8323  156.9111 C   0  0  0  0  0  0  0  0  0  0  0  0
  150.7566  140.9327  157.2672 C   0  0  1  0  0  0  0  0  0  0  0  0
  151.6610  140.9958  156.0124 C   0  0  0  0  0  0  0  0  0  0  0  0
  151.2447  140.0721  155.0276 O   0  0  0  0  0  0  0  0  0  0  0  0
  151.0324  142.0958  158.2539 C   0  0  2  0  0  0  0  0  0  0  0  0
  151.2100  143.4577  157.6057 C   0  0  0  0  0  0  0  0  0  0  0  0
  151.9101  144.2485  158.7050 C   0  0  0  0  0  0  0  0  0  0  0  0
  152.7168  143.3053  159.4006 O   0  0  0  0  0  0  0  0  0  0  0  0
  152.3530  141.9809  159.0232 C   0  0  0  0  0  0  0  0  0  0  0  0
  149.0388  134.6873  160.8617 H   0  0  0  0  0  0  0  0  0  0  0  0
  145.6173  135.2462  162.5528 H   0  0  0  0  0  0  0  0  0  0  0  0
  148.8653  131.6186  158.8323 H   0  0  0  0  0  0  0  0  0  0  0  0
  148.9637  132.1066  160.5117 H   0  0  0  0  0  0  0  0  0  0  0  0
  146.2101  133.5502  160.9280 H   0  0  0  0  0  0  0  0  0  0  0  0
  147.4865  133.3340  162.1258 H   0  0  0  0  0  0  0  0  0  0  0  0
  145.6216  136.3986  160.4603 H   0  0  0  0  0  0  0  0  0  0  0  0
  146.8664  137.3426  161.2609 H   0  0  0  0  0  0  0  0  0  0  0  0
  151.6792  136.9751  159.3094 H   0  0  0  0  0  0  0  0  0  0  0  0
  146.5084  140.1983  157.2187 H   0  0  0  0  0  0  0  0  0  0  0  0
  149.1230  140.7343  155.8327 H   0  0  0  0  0  0  0  0  0  0  0  0
  148.7274  141.7426  157.2001 H   0  0  0  0  0  0  0  0  0  0  0  0
  151.0184  140.0084  157.7844 H   0  0  0  0  0  0  0  0  0  0  0  0
  151.6534  141.9951  155.5774 H   0  0  0  0  0  0  0  0  0  0  0  0
  152.7006  140.7904  156.2677 H   0  0  0  0  0  0  0  0  0  0  0  0
  151.3093  139.2000  155.3861 H   0  0  0  0  0  0  0  0  0  0  0  0
  150.2185  142.1629  158.9776 H   0  0  0  0  0  0  0  0  0  0  0  0
  151.8554  143.3835  156.7293 H   0  0  0  0  0  0  0  0  0  0  0  0
  150.2690  143.9160  157.3002 H   0  0  0  0  0  0  0  0  0  0  0  0
  152.5060  145.0725  158.3125 H   0  0  0  0  0  0  0  0  0  0  0  0
  151.1785  144.6602  159.4013 H   0  0  0  0  0  0  0  0  0  0  0  0
  152.2709  141.3352  159.8977 H   0  0  0  0  0  0  0  0  0  0  0  0
  153.1412  141.5814  158.3837 H   0  0  0  0  0  0  0  0  0  0  0  0
  1  2  1  0  0  0  0
  1 30  1  0  0  0  0
  1 31  1  0  0  0  0
  2  3  2  0  0  0  0
  2  4  1  0  0  0  0
  4 28  1  0  0  0  0
  4  9  1  0  0  0  0
  4  5  1  0  0  0  0
  5  6  1  0  0  0  0
  5 32  1  0  0  0  0
  5 33  1  0  0  0  0
  6 29  1  0  0  0  0
  6  7  1  0  0  0  0
  6  8  1  0  0  0  0
  8  9  1  0  0  0  0
  8 34  1  0  0  0  0
  8 35  1  0  0  0  0
  9 10  1  0  0  0  0
 10 15  1  0  0  0  0
 10 11  2  0  0  0  0
 11 12  1  0  0  0  0
 12 13  2  0  0  0  0
 12 36  1  0  0  0  0
 13 14  1  0  0  0  0
 14 18  1  0  0  0  0
 14 15  2  0  0  0  0
 15 16  1  0  0  0  0
 16 17  2  0  0  0  0
 17 18  1  0  0  0  0
 17 37  1  0  0  0  0
 18 19  1  0  0  0  0
 19 20  1  0  0  0  0
 19 38  1  0  0  0  0
 19 39  1  0  0  0  0
 20 21  1  0  0  0  0
 20 23  1  0  0  0  0
 20 40  1  0  0  0  0
 21 22  1  0  0  0  0
 21 41  1  0  0  0  0
 21 42  1  0  0  0  0
 22 43  1  0  0  0  0
 23 27  1  0  0  0  0
 23 24  1  0  0  0  0
 23 44  1  0  0  0  0
 24 25  1  0  0  0  0
 24 45  1  0  0  0  0
 24 46  1  0  0  0  0
 25 26  1  0  0  0  0
 25 47  1  0  0  0  0
 25 48  1  0  0  0  0
 26 27  1  0  0  0  0
 27 49  1  0  0  0  0
 27 50  1  0  0  0  0
M  END
> <s_m_source_file>
AV-unprocessed.smi

> <i_m_source_file_index>
221

> <i_lp_mmshare_version>
43012

> <i_f3d_flags>
0

> <s_epik_input>
W05IMl1DKD1PKVtDQEBIXTFbQ0gyXVtDQEBIXShGKVtDSDJdTjFjKG5bY0hdbjIpYyhjMjMpbltjSF1uM1tDSDJdW0NASF0oW0NIMl1bT0hdKVtDQEBIXTRbQ0gyXVtDSDJdT1tDSDJdNA==

> <s_epik_cmdline>
J2VwaWtfcHl0aG9uJywgJy1waCcsICc3LjAnLCAnLXRuJywgJzgnLCAnLW1hJywgJzIwMCcsICctbWV0YWxfYmluZGluZycsICctaW1hZScsICc8aW5maWxlLm1hZT4nLCAnLW9tYWUnLCAnPG91dGZpbGUubWFlPic=

> <r_lp_tautomer_probability>
1

> <r_epik_Ionization_Penalty>
0.000818822

> <r_epik_Ionization_Penalty_Charging>
0

> <r_epik_Ionization_Penalty_Neutral>
0.000818822

> <r_epik_State_Penalty>
0.000440551

> <r_epik_Charging_Adjusted_Penalty>
0.000440551

> <i_epik_Tot_Q>
0

> <i_epik_Tot_abs_Q>
0

> <r_epik_Metal_State_Penalty>
-0

> <b_epik_Metal_Only>
0

> <s_lp_Force_Field>
OPLS_2005

> <r_lp_Energy>
51.1408

> <b_lp_Chiralities_Consistent>
1

> <s_lp_Variant>
AV-unprocessed.smi:221-5

> <Gold.Version>
5.8.1

> <Gold.Id.Protein>
6NUR|6NUR_protein|mol2

> <Gold.PLP.Fitness>
42.2017

> <Gold.PLP.PLP>
-38.6088

> <Gold.PLP.part.hbond>
-2.6370

> <Gold.PLP.part.metal>
0.0000

> <Gold.PLP.part.buried>
-5.9461

> <Gold.PLP.part.nonpolar>
-30.7054

> <Gold.PLP.part.repulsive>
0.0843

> <Gold.PLP.ligand.clash>
0.0000

> <Gold.PLP.ligand.torsion>
1.4165

> <Gold.PLP.Chemscore.Hbond>
2.0000

> <Gold.PLP.Chemscore.CHOScore>
0.0000

> <Gold.PLP.Chemscore.Metal>
0.0000

> <Gold.Chemscore.Hbonds>
donor molecule, donor type, donor heavy atom, donor atom, acceptor molecule, acceptor atom, score
      P1  H  6896  6907       L1    11  1.00
      P1  H  7989  7998       L1    22  1.00

> <Gold.PLP.Chemscore.Internal.Correction>
0.4260

> <Gold.Rescore>
     Score         DG    S(hbond)    S(metal)    S(lipo)     H(rot)  DE(clash)    DE(int)     intcor
      7.30     -10.15       1.36        0.00      82.41       3.72       0.20       2.65       ----

> <Gold.Chemscore.Fitness>
7.2979

> <Gold.Chemscore.DG>
-10.1531

> <Gold.Chemscore.ZeroCoef>
-5.4800

> <Gold.Chemscore.Hbond>
1.3638

> <Gold.Chemscore.Metal>
0.0000

> <Gold.Chemscore.Lipo>
82.4086

> <Gold.Chemscore.Internal_Hbond>
0.0000

> <Gold.Chemscore.DEClash>
0.2034

> <Gold.Chemscore.DEInternal>
2.6518

> <Gold.Chemscore.Rot>
3.7202

> <Gold.Chemscore.Internal.Correction>
   9.000000E+99

> <Gold.Chemscore.Hbonds>
donor molecule, donor type, donor heavy atom, donor atom, acceptor molecule, acceptor atom, score
      P1  H  6896  6907       L1    11  0.28
      P1  H  7989  7998       L1    22  0.45

> <Gold.Chemscore.Hbond.Weighted>
-4.5550

> <Gold.Chemscore.Metal.Weighted>
-0.0000

> <Gold.Chemscore.Lipo.Weighted>
-9.6418

> <Gold.Chemscore.Internal_Hbond.Weighted>
0.0000

> <Gold.Chemscore.DEClash.Weighted>
0.2034

> <Gold.Chemscore.DEInternal.Weighted>
2.6518

> <Gold.Chemscore.Rot.Weighted>
9.5237

> <Gold.Chemscore.Internal.Correction.Weighted>
   9.000000E+99

> <Gold.Protein.RotatedTorsions>
[ 6907 6896 6895 6894 ] final  -61.67 input  -60.11 | X-H torsion
[ 7974 7965 7964 7962 ] final   38.62 input  175.53 | X-H torsion
[ 8008 7997 7996 7995 ] final   11.15 input   59.86 | X-H torsion
[ 10167 10162 10161 10158 ] final   33.00 input  -65.29 | X-H torsion
[ 10718 10713 10712 10709 ] final   98.07 input   66.30 | X-H torsion
[ 10763 10752 10751 10750 ] final  -94.45 input  -60.55 | X-H torsion
[ 11005 11000 10999 10996 ] final -144.57 input  -57.11 | X-H torsion

> <Gold.Protein.ActiveResidues>
 VAL166  LYS551  ARG553  GLY616  TRP617  ASP618  TYR619  PRO620  LYS621  CYS622 
 ASP623  PHE694  ASN695  SER759  ASP760  ASP761  ALA762  ILE779  LEU786  VAL792 
 PHE793  MET794  SER795  GLU796  ALA797  LYS798  CYS799  TRP800  GLU811  SER814 

> <Gold.Protein.RotatedAtoms>
  150.7769  134.6674  159.6372 H   0  0  0  0  0  0  0  0  0  0  0  0  # atno 6907 bound_to 6896
  152.3841  134.6542  160.0141 H   0  0  0  0  0  0  0  0  0  0  0  0  # atno 6908 bound_to 6896
  151.6862  133.3275  159.3268 H   0  0  0  0  0  0  0  0  0  0  0  0  # atno 6909 bound_to 6896
  146.1048  139.5750  142.9391 H   0  0  0  0  0  0  0  0  0  0  0  0  # atno 7974 bound_to 7965
  154.8030  140.2855  155.5907 H   0  0  0  0  0  0  0  0  0  0  0  0  # atno 8008 bound_to 7997
  156.2979  140.2583  156.2832 H   0  0  0  0  0  0  0  0  0  0  0  0  # atno 8009 bound_to 7997
  154.9535  140.0379  157.2145 H   0  0  0  0  0  0  0  0  0  0  0  0  # atno 8010 bound_to 7997
  140.4448  144.1135  150.6180 H   0  0  0  0  0  0  0  0  0  0  0  0  # atno 10167 bound_to 10162
  157.6902  131.0629  150.4740 H   0  0  0  0  0  0  0  0  0  0  0  0  # atno 10718 bound_to 10713
  154.7056  135.5157  153.8591 H   0  0  0  0  0  0  0  0  0  0  0  0  # atno 10763 bound_to 10752
  153.0739  135.6610  154.0197 H   0  0  0  0  0  0  0  0  0  0  0  0  # atno 10764 bound_to 10752
  154.0048  135.3007  155.3378 H   0  0  0  0  0  0  0  0  0  0  0  0  # atno 10765 bound_to 10752
  140.8010  134.2856  157.4978 H   0  0  0  0  0  0  0  0  0  0  0  0  # atno 11005 bound_to 11000
  145.5783  141.0386  143.2136 LP  0  0  0  0  0  0  0  0  0  0  0  0  # atno 17320 bound_to 7965
  144.7461  139.7315  143.7291 LP  0  0  0  0  0  0  0  0  0  0  0  0  # atno 17321 bound_to 7965
  140.4277  143.2582  151.9635 LP  0  0  0  0  0  0  0  0  0  0  0  0  # atno 17342 bound_to 10162
  139.4792  144.5773  151.7991 LP  0  0  0  0  0  0  0  0  0  0  0  0  # atno 17343 bound_to 10162
  156.5076  130.4132  149.6318 LP  0  0  0  0  0  0  0  0  0  0  0  0  # atno 17370 bound_to 10713
  156.3270  130.7311  151.2234 LP  0  0  0  0  0  0  0  0  0  0  0  0  # atno 17371 bound_to 10713
  139.8721  134.9430  156.3839 LP  0  0  0  0  0  0  0  0  0  0  0  0  # atno 17394 bound_to 11000
  140.9294  133.7590  156.0006 LP  0  0  0  0  0  0  0  0  0  0  0  0  # atno 17395 bound_to 11000

$$$$
