AV-unprocessed.smi:1047|AV-procd|sdf|4599|dock4
  -GOLD-   22720 3 93D 1   1.00000     0.00000
 Structure written by MMmdl.
 57 59  0  0  0  0  0  0  0  0  3 V2000
  147.6320  132.9714  152.2623 C   0  0  0  0  0  0  0  0  0  0  0  0
  148.2234  132.1711  153.4314 C   0  0  0  0  0  0  0  0  0  0  0  0
  149.2785  132.9177  154.1614 N   0  3  2  0  0  0  0  0  0  0  0  0
  149.7002  132.2692  155.4274 C   0  0  0  0  0  0  0  0  0  0  0  0
  150.8061  133.0920  156.1087 C   0  0  0  0  0  0  0  0  0  0  0  0
  150.3494  134.4213  156.3240 O   0  0  0  0  0  0  0  0  0  0  0  0
  150.0418  135.0907  155.1053 C   0  0  2  0  0  0  0  0  0  0  0  0
  149.6361  136.5339  155.4392 C   0  0  0  0  0  0  0  0  0  0  0  0
  150.0735  137.4628  154.4021 N   0  0  0  0  0  0  0  0  0  0  0  0
  151.5260  137.5927  154.3260 C   0  0  0  0  0  0  0  0  0  0  0  0
  152.0036  138.9620  154.8379 C   0  0  2  0  0  0  0  0  0  0  0  0
  153.4165  138.9474  154.8396 O   0  0  0  0  0  0  0  0  0  0  0  0
  151.4899  139.2774  156.2585 C   0  0  0  0  0  0  0  0  0  0  0  0
  151.0323  140.6670  156.4101 N   0  0  0  0  0  0  0  0  0  0  0  0
  150.2474  141.4163  155.5891 C   0  0  0  0  0  0  0  0  0  0  0  0
  150.0948  142.6389  156.1692 N   0  3  0  0  0  0  0  0  0  0  0  0
  150.7920  142.6717  157.3786 C   0  0  0  0  0  0  0  0  0  0  0  0
  150.9335  143.6846  158.3198 C   0  0  0  0  0  0  0  0  0  0  0  0
  151.7224  143.4026  159.4577 C   0  0  0  0  0  0  0  0  0  0  0  0
  151.8962  144.4877  160.5070 C   0  0  0  0  0  0  0  0  0  0  0  0
  152.3412  142.1361  159.6208 C   0  0  0  0  0  0  0  0  0  0  0  0
  153.1917  141.8452  160.8457 C   0  0  0  0  0  0  0  0  0  0  0  0
  152.1835  141.1184  158.6528 C   0  0  0  0  0  0  0  0  0  0  0  0
  151.3996  141.4109  157.5387 C   0  0  0  0  0  0  0  0  0  0  0  0
  148.8977  134.3292  154.4077 C   0  0  0  0  0  0  0  0  0  0  0  0
  146.7960  132.4325  151.8155 H   0  0  0  0  0  0  0  0  0  0  0  0
  148.3629  133.1414  151.4722 H   0  0  0  0  0  0  0  0  0  0  0  0
  147.2597  133.9409  152.5942 H   0  0  0  0  0  0  0  0  0  0  0  0
  147.4112  131.9398  154.1219 H   0  0  0  0  0  0  0  0  0  0  0  0
  148.6148  131.2146  153.0826 H   0  0  0  0  0  0  0  0  0  0  0  0
  148.8423  132.1742  156.0952 H   0  0  0  0  0  0  0  0  0  0  0  0
  150.0706  131.2625  155.2370 H   0  0  0  0  0  0  0  0  0  0  0  0
  151.0659  132.6480  157.0698 H   0  0  0  0  0  0  0  0  0  0  0  0
  151.7153  133.0988  155.5054 H   0  0  0  0  0  0  0  0  0  0  0  0
  150.9182  135.1008  154.4538 H   0  0  0  0  0  0  0  0  0  0  0  0
  148.5505  136.5895  155.5313 H   0  0  0  0  0  0  0  0  0  0  0  0
  150.0449  136.8205  156.4090 H   0  0  0  0  0  0  0  0  0  0  0  0
  149.7122  137.1620  153.5022 H   0  0  0  0  0  0  0  0  0  0  0  0
  152.0068  136.7965  154.8962 H   0  0  0  0  0  0  0  0  0  0  0  0
  151.8436  137.4665  153.2897 H   0  0  0  0  0  0  0  0  0  0  0  0
  151.6843  139.7445  154.1480 H   0  0  0  0  0  0  0  0  0  0  0  0
  153.7075  138.1126  154.5058 H   0  0  0  0  0  0  0  0  0  0  0  0
  150.6410  138.6362  156.4990 H   0  0  0  0  0  0  0  0  0  0  0  0
  152.2504  139.0632  157.0094 H   0  0  0  0  0  0  0  0  0  0  0  0
  149.8199  141.0979  154.6492 H   0  0  0  0  0  0  0  0  0  0  0  0
  150.4609  144.6472  158.1881 H   0  0  0  0  0  0  0  0  0  0  0  0
  151.5060  144.1555  161.4693 H   0  0  0  0  0  0  0  0  0  0  0  0
  151.3664  145.3995  160.2298 H   0  0  0  0  0  0  0  0  0  0  0  0
  152.9500  144.7392  160.6281 H   0  0  0  0  0  0  0  0  0  0  0  0
  153.5930  140.8314  160.8221 H   0  0  0  0  0  0  0  0  0  0  0  0
  152.5999  141.9474  161.7554 H   0  0  0  0  0  0  0  0  0  0  0  0
  154.0340  142.5349  160.9002 H   0  0  0  0  0  0  0  0  0  0  0  0
  152.6592  140.1570  158.7776 H   0  0  0  0  0  0  0  0  0  0  0  0
  148.6606  134.8141  153.4597 H   0  0  0  0  0  0  0  0  0  0  0  0
  147.9939  134.3613  155.0187 H   0  0  0  0  0  0  0  0  0  0  0  0
  150.0875  132.9435  153.5572 H   0  0  0  0  0  0  0  0  0  0  0  0
  149.5523  143.3931  155.7677 H   0  0  0  0  0  0  0  0  0  0  0  0
  1  2  1  0  0  0  0
  1 26  1  0  0  0  0
  1 27  1  0  0  0  0
  1 28  1  0  0  0  0
  2  3  1  0  0  0  0
  2 29  1  0  0  0  0
  2 30  1  0  0  0  0
  3 25  1  0  0  0  0
  3  4  1  0  0  0  0
  3 56  1  0  0  0  0
  4  5  1  0  0  0  0
  4 31  1  0  0  0  0
  4 32  1  0  0  0  0
  5  6  1  0  0  0  0
  5 33  1  0  0  0  0
  5 34  1  0  0  0  0
  6  7  1  0  0  0  0
  7  8  1  0  0  0  0
  7 25  1  0  0  0  0
  7 35  1  0  0  0  0
  8  9  1  0  0  0  0
  8 36  1  0  0  0  0
  8 37  1  0  0  0  0
  9 10  1  0  0  0  0
  9 38  1  0  0  0  0
 10 11  1  0  0  0  0
 10 39  1  0  0  0  0
 10 40  1  0  0  0  0
 11 12  1  0  0  0  0
 11 13  1  0  0  0  0
 11 41  1  0  0  0  0
 12 42  1  0  0  0  0
 13 14  1  0  0  0  0
 13 43  1  0  0  0  0
 13 44  1  0  0  0  0
 14 24  1  0  0  0  0
 14 15  1  0  0  0  0
 15 16  2  0  0  0  0
 15 45  1  0  0  0  0
 16 17  1  0  0  0  0
 16 57  1  0  0  0  0
 17 24  2  0  0  0  0
 17 18  1  0  0  0  0
 18 19  2  0  0  0  0
 18 46  1  0  0  0  0
 19 20  1  0  0  0  0
 19 21  1  0  0  0  0
 20 47  1  0  0  0  0
 20 48  1  0  0  0  0
 20 49  1  0  0  0  0
 21 22  1  0  0  0  0
 21 23  2  0  0  0  0
 22 50  1  0  0  0  0
 22 51  1  0  0  0  0
 22 52  1  0  0  0  0
 23 24  1  0  0  0  0
 23 53  1  0  0  0  0
 25 54  1  0  0  0  0
 25 55  1  0  0  0  0
M  CHG  1   3   1
M  CHG  1  16   1
M  END
> <s_m_source_file>
AV-unprocessed.smi

> <i_m_source_file_index>
1047

> <i_lp_mmshare_version>
43012

> <i_f3d_flags>
0

> <s_epik_input>
W0NIM11bQ0gyXU4xW0NIMl1bQ0gyXU9bQ0BIXShbQ0gyXTEpW0NIMl1bTkhdW0NIMl1bQ0BIXShbT0hdKVtDSDJdbihbY0hdbjIpYyhjMjMpW2NIXWMoW0NIM10pYyhbY0hdMylbQ0gzXQ==

> <s_epik_cmdline>
J2VwaWtfcHl0aG9uJywgJy1waCcsICc3LjAnLCAnLXRuJywgJzgnLCAnLW1hJywgJzIwMCcsICctbWV0YWxfYmluZGluZycsICctaW1hZScsICc8aW5maWxlLm1hZT4nLCAnLW9tYWUnLCAnPG91dGZpbGUubWFlPic=

> <r_epik_Ionization_Penalty>
2.03028

> <r_epik_Ionization_Penalty_Charging>
1.21256

> <r_epik_Ionization_Penalty_Neutral>
0.817715

> <r_epik_State_Penalty>
2.54959

> <r_epik_Charging_Adjusted_Penalty>
3.76215

> <i_epik_Tot_Q>
2

> <i_epik_Tot_abs_Q>
2

> <r_epik_Metal_State_Penalty>
6.52811

> <b_epik_Metal_Only>
0

> <s_lp_Force_Field>
OPLS_2005

> <r_lp_Energy>
31.8247

> <b_lp_Chiralities_Consistent>
1

> <s_lp_Variant>
AV-unprocessed.smi:1047-40

> <Gold.Version>
5.8.1

> <Gold.Id.Protein>
6NUR|6NUR_protein|mol2

> <Gold.PLP.Fitness>
63.9773

> <Gold.PLP.PLP>
-55.3375

> <Gold.PLP.part.hbond>
-2.9587

> <Gold.PLP.part.metal>
0.0000

> <Gold.PLP.part.buried>
-5.0756

> <Gold.PLP.part.nonpolar>
-46.9623

> <Gold.PLP.part.repulsive>
0.1131

> <Gold.PLP.ligand.clash>
0.0000

> <Gold.PLP.ligand.torsion>
1.7235

> <Gold.PLP.Chemscore.Hbond>
3.9913

> <Gold.PLP.Chemscore.CHOScore>
0.0000

> <Gold.PLP.Chemscore.Metal>
0.0000

> <Gold.Chemscore.Hbonds>
donor molecule, donor type, donor heavy atom, donor atom, acceptor molecule, acceptor atom, score
      L1  H     9    38       P1  7948  1.00
      L1  H    16    57       P1  8028  1.79
      P1  H  7997  8008       L1    12  1.00

> <Gold.PLP.Chemscore.Internal.Correction>
0.1130

> <Gold.Rescore>
     Score         DG    S(hbond)    S(metal)    S(lipo)     H(rot)  DE(clash)    DE(int)     intcor
     21.69     -23.52       2.59        0.00     139.36       2.71       0.14       1.68       ----

> <Gold.Chemscore.Fitness>
21.6933

> <Gold.Chemscore.DG>
-23.5160

> <Gold.Chemscore.ZeroCoef>
-5.4800

> <Gold.Chemscore.Hbond>
2.5946

> <Gold.Chemscore.Metal>
0.0000

> <Gold.Chemscore.Lipo>
139.3564

> <Gold.Chemscore.Internal_Hbond>
0.0000

> <Gold.Chemscore.DEClash>
0.1391

> <Gold.Chemscore.DEInternal>
1.6836

> <Gold.Chemscore.Rot>
2.7088

> <Gold.Chemscore.Internal.Correction>
   9.000000E+99

> <Gold.Chemscore.Hbonds>
donor molecule, donor type, donor heavy atom, donor atom, acceptor molecule, acceptor atom, score
      L1  H     9    38       P1  7948  0.67
      L1  H    16    57       P1  8028  0.87
      P1  H  7997  8008       L1    12  0.97

> <Gold.Chemscore.Hbond.Weighted>
-8.6660

> <Gold.Chemscore.Metal.Weighted>
-0.0000

> <Gold.Chemscore.Lipo.Weighted>
-16.3047

> <Gold.Chemscore.Internal_Hbond.Weighted>
0.0000

> <Gold.Chemscore.DEClash.Weighted>
0.1391

> <Gold.Chemscore.DEInternal.Weighted>
1.6836

> <Gold.Chemscore.Rot.Weighted>
6.9346

> <Gold.Chemscore.Internal.Correction.Weighted>
   9.000000E+99

> <Gold.Protein.RotatedTorsions>
[ 6907 6896 6895 6894 ] final  -70.47 input  -60.11 | X-H torsion
[ 7974 7965 7964 7962 ] final -137.41 input  175.53 | X-H torsion
[ 8008 7997 7996 7995 ] final   -5.74 input   59.86 | X-H torsion
[ 10167 10162 10161 10158 ] final  155.56 input  -65.29 | X-H torsion
[ 10718 10713 10712 10709 ] final   94.73 input   66.30 | X-H torsion
[ 10763 10752 10751 10750 ] final  114.84 input  -60.55 | X-H torsion
[ 11005 11000 10999 10996 ] final  122.50 input  -57.11 | X-H torsion

> <Gold.Protein.ActiveResidues>
 VAL166  LYS551  ARG553  GLY616  TRP617  ASP618  TYR619  PRO620  LYS621  CYS622 
 ASP623  PHE694  ASN695  SER759  ASP760  ASP761  ALA762  ILE779  LEU786  VAL792 
 PHE793  MET794  SER795  GLU796  ALA797  LYS798  CYS799  TRP800  GLU811  SER814 

> <Gold.Protein.RotatedAtoms>
  150.7256  134.5449  159.5765 H   0  0  0  0  0  0  0  0  0  0  0  0  # atno 6907 bound_to 6896
  152.2950  134.7674  160.0379 H   0  0  0  0  0  0  0  0  0  0  0  0  # atno 6908 bound_to 6896
  151.8274  133.3368  159.3639 H   0  0  0  0  0  0  0  0  0  0  0  0  # atno 6909 bound_to 6896
  144.8844  140.6554  143.5185 H   0  0  0  0  0  0  0  0  0  0  0  0  # atno 7974 bound_to 7965
  154.6008  140.2450  155.7795 H   0  0  0  0  0  0  0  0  0  0  0  0  # atno 8008 bound_to 7997
  156.2309  140.2967  156.0139 H   0  0  0  0  0  0  0  0  0  0  0  0  # atno 8009 bound_to 7997
  155.2215  140.0400  157.2939 H   0  0  0  0  0  0  0  0  0  0  0  0  # atno 8010 bound_to 7997
  139.4821  144.5088  151.8057 H   0  0  0  0  0  0  0  0  0  0  0  0  # atno 10167 bound_to 10162
  157.6945  131.0522  150.4231 H   0  0  0  0  0  0  0  0  0  0  0  0  # atno 10718 bound_to 10713
  153.5133  135.3613  155.2597 H   0  0  0  0  0  0  0  0  0  0  0  0  # atno 10763 bound_to 10752
  154.8740  135.4028  154.3343 H   0  0  0  0  0  0  0  0  0  0  0  0  # atno 10764 bound_to 10752
  153.4000  135.7074  153.6499 H   0  0  0  0  0  0  0  0  0  0  0  0  # atno 10765 bound_to 10752
  139.9271  134.9641  156.8118 H   0  0  0  0  0  0  0  0  0  0  0  0  # atno 11005 bound_to 11000
  145.3895  139.1619  143.4237 LP  0  0  0  0  0  0  0  0  0  0  0  0  # atno 17320 bound_to 7965
  146.3015  140.3983  142.8702 LP  0  0  0  0  0  0  0  0  0  0  0  0  # atno 17321 bound_to 7965
  140.4589  144.1750  150.5904 LP  0  0  0  0  0  0  0  0  0  0  0  0  # atno 17342 bound_to 10162
  140.4506  143.2488  151.9353 LP  0  0  0  0  0  0  0  0  0  0  0  0  # atno 17343 bound_to 10162
  156.4604  130.4030  149.6580 LP  0  0  0  0  0  0  0  0  0  0  0  0  # atno 17370 bound_to 10713
  156.3697  130.7524  151.2506 LP  0  0  0  0  0  0  0  0  0  0  0  0  # atno 17371 bound_to 10713
  140.6306  133.9909  155.7660 LP  0  0  0  0  0  0  0  0  0  0  0  0  # atno 17394 bound_to 11000
  141.0836  134.0025  157.3348 LP  0  0  0  0  0  0  0  0  0  0  0  0  # atno 17395 bound_to 11000

$$$$
