AV-unprocessed.smi:130|AV-procd|sdf|1159|dock3
  -GOLD-   2262018293D 1   1.00000     0.00000
 Structure written by MMmdl.
 44 47  0  0  0  0  0  0  0  0  1 V2000
  153.2991  139.6407  159.9097 O   0  0  0  0  0  0  0  0  0  0  0  0
  152.7426  140.0964  158.9099 C   0  0  0  0  0  0  0  0  0  0  0  0
  152.5458  139.1784  157.6832 C   0  0  0  0  0  0  0  0  0  0  0  0
  151.1270  138.9755  157.3132 N   0  0  0  0  0  0  0  0  0  0  0  0
  150.2735  138.3102  158.2285 C   0  0  0  0  0  0  0  0  0  0  0  0
  150.6959  137.8917  159.3073 O   0  0  0  0  0  0  0  0  0  0  0  0
  148.8835  138.1724  157.8085 C   0  0  0  0  0  0  0  0  0  0  0  0
  148.0014  137.5604  158.6165 F   0  0  0  0  0  0  0  0  0  0  0  0
  148.4660  138.6558  156.6206 C   0  0  0  0  0  0  0  0  0  0  0  0
  149.3107  139.3008  155.7362 N   0  0  0  0  0  0  0  0  0  0  0  0
  148.7991  139.8514  154.4245 C   0  0  2  0  0  0  0  0  0  0  0  0
  149.0185  141.3678  154.3659 C   0  0  0  0  0  0  0  0  0  0  0  0
  147.6738  141.8974  154.8156 C   0  0  0  0  0  0  0  0  0  0  0  0
  146.7249  140.8555  154.2352 C   0  0  0  0  0  0  0  0  0  0  0  0
  147.4224  139.6175  154.3387 O   0  0  0  0  0  0  0  0  0  0  0  0
  150.6681  139.4878  156.0759 C   0  0  0  0  0  0  0  0  0  0  0  0
  151.4297  140.0939  155.3190 O   0  0  0  0  0  0  0  0  0  0  0  0
  152.2893  141.3721  158.8268 N   0  0  0  0  0  0  0  0  0  0  0  0
  151.6347  141.9254  157.6282 C   0  0  0  0  0  0  0  0  0  0  0  0
  151.3067  143.3992  157.9533 C   0  0  0  0  0  0  0  0  0  0  0  0
  151.7996  143.5536  159.3617 C   0  0  0  0  0  0  0  0  0  0  0  0
  151.7330  144.7133  160.1531 C   0  0  0  0  0  0  0  0  0  0  0  0
  152.2519  144.6581  161.4637 C   0  0  0  0  0  0  0  0  0  0  0  0
  152.8220  143.4617  161.9562 C   0  0  0  0  0  0  0  0  0  0  0  0
  152.8815  142.3057  161.1470 C   0  0  0  0  0  0  0  0  0  0  0  0
  152.3594  142.3703  159.8348 C   0  0  0  0  0  0  0  0  0  0  0  0
  153.1001  139.5919  156.8395 H   0  0  0  0  0  0  0  0  0  0  0  0
  153.0282  138.2195  157.8772 H   0  0  0  0  0  0  0  0  0  0  0  0
  147.4241  138.5325  156.3651 H   0  0  0  0  0  0  0  0  0  0  0  0
  149.3121  139.2986  153.6359 H   0  0  0  0  0  0  0  0  0  0  0  0
  149.8554  141.6925  154.9856 H   0  0  0  0  0  0  0  0  0  0  0  0
  149.2140  141.6515  153.3311 H   0  0  0  0  0  0  0  0  0  0  0  0
  147.6136  141.9009  155.9044 H   0  0  0  0  0  0  0  0  0  0  0  0
  147.4695  142.9071  154.4583 H   0  0  0  0  0  0  0  0  0  0  0  0
  145.7678  140.8206  154.7557 H   0  0  0  0  0  0  0  0  0  0  0  0
  146.5331  141.0625  153.1816 H   0  0  0  0  0  0  0  0  0  0  0  0
  152.2927  141.8666  156.7603 H   0  0  0  0  0  0  0  0  0  0  0  0
  150.7199  141.3758  157.4026 H   0  0  0  0  0  0  0  0  0  0  0  0
  151.8308  144.0879  157.2898 H   0  0  0  0  0  0  0  0  0  0  0  0
  150.2364  143.6005  157.8977 H   0  0  0  0  0  0  0  0  0  0  0  0
  151.2955  145.6228  159.7684 H   0  0  0  0  0  0  0  0  0  0  0  0
  152.2130  145.5338  162.0945 H   0  0  0  0  0  0  0  0  0  0  0  0
  153.2155  143.4308  162.9613 H   0  0  0  0  0  0  0  0  0  0  0  0
  153.3215  141.4083  161.5517 H   0  0  0  0  0  0  0  0  0  0  0  0
  1  2  2  0  0  0  0
  2  3  1  0  0  0  0
  2 18  1  0  0  0  0
  3  4  1  0  0  0  0
  3 27  1  0  0  0  0
  3 28  1  0  0  0  0
  4 16  1  0  0  0  0
  4  5  1  0  0  0  0
  5  6  2  0  0  0  0
  5  7  1  0  0  0  0
  7  8  1  0  0  0  0
  7  9  2  0  0  0  0
  9 10  1  0  0  0  0
  9 29  1  0  0  0  0
 10 11  1  0  0  0  0
 10 16  1  0  0  0  0
 11 15  1  0  0  0  0
 11 12  1  0  0  0  0
 11 30  1  0  0  0  0
 12 13  1  0  0  0  0
 12 31  1  0  0  0  0
 12 32  1  0  0  0  0
 13 14  1  0  0  0  0
 13 33  1  0  0  0  0
 13 34  1  0  0  0  0
 14 15  1  0  0  0  0
 14 35  1  0  0  0  0
 14 36  1  0  0  0  0
 16 17  2  0  0  0  0
 18 26  1  0  0  0  0
 18 19  1  0  0  0  0
 19 20  1  0  0  0  0
 19 37  1  0  0  0  0
 19 38  1  0  0  0  0
 20 21  1  0  0  0  0
 20 39  1  0  0  0  0
 20 40  1  0  0  0  0
 21 26  2  0  0  0  0
 21 22  1  0  0  0  0
 22 23  2  0  0  0  0
 22 41  1  0  0  0  0
 23 24  1  0  0  0  0
 23 42  1  0  0  0  0
 24 25  2  0  0  0  0
 24 43  1  0  0  0  0
 25 26  1  0  0  0  0
 25 44  1  0  0  0  0
M  END
> <s_m_source_file>
AV-unprocessed.smi

> <i_m_source_file_index>
130

> <i_lp_mmshare_version>
43012

> <i_f3d_flags>
0

> <s_epik_input>
W2NIXTFbY0hdW2NIXVtjSF1jKGMxMilOKFtDSDJdW0NIMl0yKUMoPU8pW0NIMl1uM2MoPU8pYyhGKVtjSF1uKGMzPU8pW0NAQEhdNFtDSDJdW0NIMl1bQ0gyXU80

> <s_epik_cmdline>
J2VwaWtfcHl0aG9uJywgJy1waCcsICc3LjAnLCAnLXRuJywgJzgnLCAnLW1hJywgJzIwMCcsICctbWV0YWxfYmluZGluZycsICctaW1hZScsICc8aW5maWxlLm1hZT4nLCAnLW9tYWUnLCAnPG91dGZpbGUubWFlPic=

> <r_lp_tautomer_probability>
1

> <r_epik_Ionization_Penalty>
1.67926e-06

> <r_epik_Ionization_Penalty_Charging>
3.62822e-09

> <r_epik_Ionization_Penalty_Neutral>
1.67563e-06

> <r_epik_State_Penalty>
-0

> <r_epik_Charging_Adjusted_Penalty>
3.62822e-09

> <i_epik_Tot_Q>
0

> <i_epik_Tot_abs_Q>
0

> <r_epik_Metal_State_Penalty>
-0

> <b_epik_Metal_Only>
0

> <s_epik_Chemistry_Notes>
This compound contains an acetal/aminal-like group ( X-CH(R)-Y where X, Y are N, S, or O) that may be acid/base labile, releasing an aldehyde.

> <s_lp_Force_Field>
OPLS_2005

> <r_lp_Energy>
53.4857

> <b_lp_Chiralities_Consistent>
1

> <s_lp_Variant>
AV-unprocessed.smi:130-1

> <Gold.Version>
5.8.1

> <Gold.Id.Protein>
6NUR|6NUR_protein|mol2

> <Gold.PLP.Fitness>
49.2584

> <Gold.PLP.PLP>
-46.3403

> <Gold.PLP.part.hbond>
-1.0068

> <Gold.PLP.part.metal>
0.0000

> <Gold.PLP.part.buried>
-4.1241

> <Gold.PLP.part.nonpolar>
-39.9350

> <Gold.PLP.part.repulsive>
0.1454

> <Gold.PLP.ligand.clash>
0.0000

> <Gold.PLP.ligand.torsion>
0.0341

> <Gold.PLP.Chemscore.Hbond>
0.9920

> <Gold.PLP.Chemscore.CHOScore>
0.0000

> <Gold.PLP.Chemscore.Metal>
0.0000

> <Gold.Chemscore.Hbonds>
donor molecule, donor type, donor heavy atom, donor atom, acceptor molecule, acceptor atom, score
      P1  H  7989  7998       L1    17  1.00

> <Gold.PLP.Chemscore.Internal.Correction>
0.0103

> <Gold.Rescore>
     Score         DG    S(hbond)    S(metal)    S(lipo)     H(rot)  DE(clash)    DE(int)     intcor
     13.44     -17.94       1.00        0.00     112.35       1.57       0.00       4.49       ----

> <Gold.Chemscore.Fitness>
13.4438

> <Gold.Chemscore.DG>
-17.9361

> <Gold.Chemscore.ZeroCoef>
-5.4800

> <Gold.Chemscore.Hbond>
0.9974

> <Gold.Chemscore.Metal>
0.0000

> <Gold.Chemscore.Lipo>
112.3524

> <Gold.Chemscore.Internal_Hbond>
0.0000

> <Gold.Chemscore.DEClash>
0.0019

> <Gold.Chemscore.DEInternal>
4.4904

> <Gold.Chemscore.Rot>
1.5704

> <Gold.Chemscore.Internal.Correction>
   9.000000E+99

> <Gold.Chemscore.Hbonds>
donor molecule, donor type, donor heavy atom, donor atom, acceptor molecule, acceptor atom, score
      P1  H  7989  7998       L1    17  0.94

> <Gold.Chemscore.Hbond.Weighted>
-3.3312

> <Gold.Chemscore.Metal.Weighted>
-0.0000

> <Gold.Chemscore.Lipo.Weighted>
-13.1452

> <Gold.Chemscore.Internal_Hbond.Weighted>
0.0000

> <Gold.Chemscore.DEClash.Weighted>
0.0019

> <Gold.Chemscore.DEInternal.Weighted>
4.4904

> <Gold.Chemscore.Rot.Weighted>
4.0203

> <Gold.Chemscore.Internal.Correction.Weighted>
   9.000000E+99

> <Gold.Protein.RotatedTorsions>
[ 6907 6896 6895 6894 ] final -172.53 input  -60.11 | X-H torsion
[ 7974 7965 7964 7962 ] final  -35.20 input  175.53 | X-H torsion
[ 8008 7997 7996 7995 ] final  -29.58 input   59.86 | X-H torsion
[ 10167 10162 10161 10158 ] final -130.43 input  -65.29 | X-H torsion
[ 10718 10713 10712 10709 ] final   24.46 input   66.30 | X-H torsion
[ 10763 10752 10751 10750 ] final  -80.50 input  -60.55 | X-H torsion
[ 11005 11000 10999 10996 ] final   53.18 input  -57.11 | X-H torsion

> <Gold.Protein.ActiveResidues>
 VAL166  LYS551  ARG553  GLY616  TRP617  ASP618  TYR619  PRO620  LYS621  CYS622 
 ASP623  PHE694  ASN695  SER759  ASP760  ASP761  ALA762  ILE779  LEU786  VAL792 
 PHE793  MET794  SER795  GLU796  ALA797  LYS798  CYS799  TRP800  GLU811  SER814 

> <Gold.Protein.RotatedAtoms>
  151.5414  133.3432  159.2935 H   0  0  0  0  0  0  0  0  0  0  0  0  # atno 6907 bound_to 6896
  150.8533  134.7867  159.7037 H   0  0  0  0  0  0  0  0  0  0  0  0  # atno 6908 bound_to 6896
  152.4573  134.5270  159.9851 H   0  0  0  0  0  0  0  0  0  0  0  0  # atno 6909 bound_to 6896
  146.0766  140.6131  142.8927 H   0  0  0  0  0  0  0  0  0  0  0  0  # atno 7974 bound_to 7965
  154.4284  140.1814  156.1270 H   0  0  0  0  0  0  0  0  0  0  0  0  # atno 8008 bound_to 7997
  156.0098  140.3352  155.6904 H   0  0  0  0  0  0  0  0  0  0  0  0  # atno 8009 bound_to 7997
  155.6127  140.0651  157.2692 H   0  0  0  0  0  0  0  0  0  0  0  0  # atno 8010 bound_to 7997
  139.9294  143.6289  152.2533 H   0  0  0  0  0  0  0  0  0  0  0  0  # atno 10167 bound_to 10162
  157.1801  130.6798  149.6110 H   0  0  0  0  0  0  0  0  0  0  0  0  # atno 10718 bound_to 10713
  154.5520  135.5659  153.6930 H   0  0  0  0  0  0  0  0  0  0  0  0  # atno 10763 bound_to 10752
  152.9992  135.6253  154.2361 H   0  0  0  0  0  0  0  0  0  0  0  0  # atno 10764 bound_to 10752
  154.2296  135.2866  155.2874 H   0  0  0  0  0  0  0  0  0  0  0  0  # atno 10765 bound_to 10752
  140.0788  134.5367  155.8968 H   0  0  0  0  0  0  0  0  0  0  0  0  # atno 11005 bound_to 11000
  144.7266  140.4542  143.6969 LP  0  0  0  0  0  0  0  0  0  0  0  0  # atno 17320 bound_to 7965
  145.6294  139.1534  143.2977 LP  0  0  0  0  0  0  0  0  0  0  0  0  # atno 17321 bound_to 7965
  139.6794  144.7656  151.1635 LP  0  0  0  0  0  0  0  0  0  0  0  0  # atno 17342 bound_to 10162
  140.7641  143.5746  150.8959 LP  0  0  0  0  0  0  0  0  0  0  0  0  # atno 17343 bound_to 10162
  155.9725  130.4650  150.6237 LP  0  0  0  0  0  0  0  0  0  0  0  0  # atno 17370 bound_to 10713
  157.3961  131.0803  151.1350 LP  0  0  0  0  0  0  0  0  0  0  0  0  # atno 17371 bound_to 10713
  141.2039  133.6635  156.6091 LP  0  0  0  0  0  0  0  0  0  0  0  0  # atno 17394 bound_to 11000
  140.3518  134.7762  157.4472 LP  0  0  0  0  0  0  0  0  0  0  0  0  # atno 17395 bound_to 11000

$$$$
