AV-unprocessed.smi:1990|AV-procd|sdf|8065|dock4
  -GOLD-   2272010273D 1   1.00000     0.00000
 Structure written by MMmdl.
 46 47  0  0  0  0  0  0  0  0  1 V2000
  150.6817  142.6984  156.2265 C   0  0  0  0  0  0  0  0  0  0  0  0
  151.1611  142.9339  157.6626 C   0  0  1  0  0  0  0  0  0  0  0  0
  152.0429  141.7780  158.1696 C   0  0  0  0  0  0  0  0  0  0  0  0
  152.5937  142.0967  159.4823 N   0  0  0  0  0  0  0  0  0  0  0  0
  153.1467  141.0087  160.1902 C   0  0  0  0  0  0  0  0  0  0  0  0
  153.8804  141.2355  161.3777 C   0  0  0  0  0  0  0  0  0  0  0  0
  154.4296  140.1389  162.0700 C   0  0  0  0  0  0  0  0  0  0  0  0
  154.2253  138.8347  161.5605 C   0  0  0  0  0  0  0  0  0  0  0  0
  154.7318  137.6409  162.1437 N   0  0  0  0  0  0  0  0  0  0  0  0
  154.5407  136.3588  161.7788 C   0  0  0  0  0  0  0  0  0  0  0  0
  153.9021  135.9995  160.7905 O   0  0  0  0  0  0  0  0  0  0  0  0
  155.2092  135.3096  162.6788 C   0  0  2  0  0  0  0  0  0  0  0  0
  154.8620  133.8750  162.2478 C   0  0  0  0  0  0  0  0  0  0  0  0
  154.7086  135.5757  164.4445 S   0  0  0  0  0  0  0  0  0  0  0  0
  153.9233  133.9738  164.9059 C   0  0  0  0  0  0  0  0  0  0  0  0
  155.9181  135.7429  165.2650 O   0  0  0  0  0  0  0  0  0  0  0  0
  153.6716  136.6185  164.4697 O   0  0  0  0  0  0  0  0  0  0  0  0
  153.4884  138.7120  160.3657 C   0  0  0  0  0  0  0  0  0  0  0  0
  152.9640  139.7597  159.6974 N   0  0  0  0  0  0  0  0  0  0  0  0
  153.3094  143.3699  159.5132 C   0  0  0  0  0  0  0  0  0  0  0  0
  152.4309  144.5104  158.9637 C   0  0  2  0  0  0  0  0  0  0  0  0
  151.3301  144.9619  159.9406 C   0  0  0  0  0  0  0  0  0  0  0  0
  151.9044  144.1523  157.6841 O   0  0  0  0  0  0  0  0  0  0  0  0
  150.0914  141.7848  156.1548 H   0  0  0  0  0  0  0  0  0  0  0  0
  151.5233  142.6084  155.5390 H   0  0  0  0  0  0  0  0  0  0  0  0
  150.0585  143.5247  155.8836 H   0  0  0  0  0  0  0  0  0  0  0  0
  150.2812  143.0293  158.2992 H   0  0  0  0  0  0  0  0  0  0  0  0
  151.4546  140.8613  158.1933 H   0  0  0  0  0  0  0  0  0  0  0  0
  152.8687  141.6047  157.4784 H   0  0  0  0  0  0  0  0  0  0  0  0
  154.0430  142.2352  161.7526 H   0  0  0  0  0  0  0  0  0  0  0  0
  155.0022  140.3307  162.9628 H   0  0  0  0  0  0  0  0  0  0  0  0
  155.3327  137.7817  162.9428 H   0  0  0  0  0  0  0  0  0  0  0  0
  156.2920  135.4313  162.6306 H   0  0  0  0  0  0  0  0  0  0  0  0
  155.1144  133.7019  161.2011 H   0  0  0  0  0  0  0  0  0  0  0  0
  153.7998  133.6634  162.3766 H   0  0  0  0  0  0  0  0  0  0  0  0
  155.4149  133.1474  162.8424 H   0  0  0  0  0  0  0  0  0  0  0  0
  153.4909  134.0601  165.9024 H   0  0  0  0  0  0  0  0  0  0  0  0
  154.6707  133.1809  164.9124 H   0  0  0  0  0  0  0  0  0  0  0  0
  153.1366  133.7313  164.1921 H   0  0  0  0  0  0  0  0  0  0  0  0
  153.3129  137.7400  159.9277 H   0  0  0  0  0  0  0  0  0  0  0  0
  153.6255  143.6074  160.5300 H   0  0  0  0  0  0  0  0  0  0  0  0
  154.2124  143.2787  158.9078 H   0  0  0  0  0  0  0  0  0  0  0  0
  153.0759  145.3734  158.7965 H   0  0  0  0  0  0  0  0  0  0  0  0
  151.7673  145.3552  160.8583 H   0  0  0  0  0  0  0  0  0  0  0  0
  150.6671  144.1451  160.2246 H   0  0  0  0  0  0  0  0  0  0  0  0
  150.7205  145.7517  159.5014 H   0  0  0  0  0  0  0  0  0  0  0  0
  1  2  1  0  0  0  0
  1 24  1  0  0  0  0
  1 25  1  0  0  0  0
  1 26  1  0  0  0  0
  2 23  1  0  0  0  0
  2  3  1  0  0  0  0
  2 27  1  0  0  0  0
  3  4  1  0  0  0  0
  3 28  1  0  0  0  0
  3 29  1  0  0  0  0
  4  5  1  0  0  0  0
  4 20  1  0  0  0  0
  5 19  1  0  0  0  0
  5  6  2  0  0  0  0
  6  7  1  0  0  0  0
  6 30  1  0  0  0  0
  7  8  2  0  0  0  0
  7 31  1  0  0  0  0
  8  9  1  0  0  0  0
  8 18  1  0  0  0  0
  9 10  1  0  0  0  0
  9 32  1  0  0  0  0
 10 11  2  0  0  0  0
 10 12  1  0  0  0  0
 12 13  1  0  0  0  0
 12 14  1  0  0  0  0
 12 33  1  0  0  0  0
 13 34  1  0  0  0  0
 13 35  1  0  0  0  0
 13 36  1  0  0  0  0
 14 15  1  0  0  0  0
 14 16  2  0  0  0  0
 14 17  2  0  0  0  0
 15 37  1  0  0  0  0
 15 38  1  0  0  0  0
 15 39  1  0  0  0  0
 18 19  2  0  0  0  0
 18 40  1  0  0  0  0
 20 21  1  0  0  0  0
 20 41  1  0  0  0  0
 20 42  1  0  0  0  0
 21 22  1  0  0  0  0
 21 23  1  0  0  0  0
 21 43  1  0  0  0  0
 22 44  1  0  0  0  0
 22 45  1  0  0  0  0
 22 46  1  0  0  0  0
M  END
> <s_m_source_file>
AV-unprocessed.smi

> <i_m_source_file_index>
1990

> <i_lp_mmshare_version>
43012

> <i_f3d_flags>
0

> <s_epik_input>
W0NIM11bQ0BASF0xW0NIMl1OKFtDSDJdW0NASF0oTzEpW0NIM10pYzJbY0hdW2NIXWMoW2NIXW4yKVtOSF1DKD1PKVtDQEhdKFtDSDNdKVMoPU8pKD1PKVtDSDNd

> <s_epik_cmdline>
J2VwaWtfcHl0aG9uJywgJy1waCcsICc3LjAnLCAnLXRuJywgJzgnLCAnLW1hJywgJzIwMCcsICctbWV0YWxfYmluZGluZycsICctaW1hZScsICc8aW5maWxlLm1hZT4nLCAnLW9tYWUnLCAnPG91dGZpbGUubWFlPic=

> <r_lp_tautomer_probability>
1

> <r_epik_Ionization_Penalty>
0.000334888

> <r_epik_Ionization_Penalty_Charging>
0

> <r_epik_Ionization_Penalty_Neutral>
0.000334888

> <r_epik_State_Penalty>
0.000200905

> <r_epik_Charging_Adjusted_Penalty>
0.000200905

> <i_epik_Tot_Q>
0

> <i_epik_Tot_abs_Q>
0

> <r_epik_Metal_State_Penalty>
-0

> <b_epik_Metal_Only>
0

> <s_lp_Force_Field>
OPLS_2005

> <r_lp_Energy>
21.5774

> <b_lp_Chiralities_Consistent>
1

> <s_lp_Variant>
AV-unprocessed.smi:1990-5

> <Gold.Version>
5.8.1

> <Gold.Id.Protein>
6NUR|6NUR_protein|mol2

> <Gold.PLP.Fitness>
43.5433

> <Gold.PLP.PLP>
-41.2734

> <Gold.PLP.part.hbond>
-1.0000

> <Gold.PLP.part.metal>
0.0000

> <Gold.PLP.part.buried>
-4.4538

> <Gold.PLP.part.nonpolar>
-35.8079

> <Gold.PLP.part.repulsive>
0.2696

> <Gold.PLP.ligand.clash>
0.0000

> <Gold.PLP.ligand.torsion>
0.5909

> <Gold.PLP.Chemscore.Hbond>
0.9913

> <Gold.PLP.Chemscore.CHOScore>
0.0000

> <Gold.PLP.Chemscore.Metal>
0.0000

> <Gold.Chemscore.Hbonds>
donor molecule, donor type, donor heavy atom, donor atom, acceptor molecule, acceptor atom, score
      P1  H  6896  6909       L1    11  0.84

> <Gold.PLP.Chemscore.Internal.Correction>
0.4778

> <Gold.Rescore>
     Score         DG    S(hbond)    S(metal)    S(lipo)     H(rot)  DE(clash)    DE(int)     intcor
     13.42     -17.16       0.99        0.00     104.80       1.52       0.42       3.32       ----

> <Gold.Chemscore.Fitness>
13.4154

> <Gold.Chemscore.DG>
-17.1610

> <Gold.Chemscore.ZeroCoef>
-5.4800

> <Gold.Chemscore.Hbond>
0.9893

> <Gold.Chemscore.Metal>
0.0000

> <Gold.Chemscore.Lipo>
104.8028

> <Gold.Chemscore.Internal_Hbond>
0.0000

> <Gold.Chemscore.DEClash>
0.4233

> <Gold.Chemscore.DEInternal>
3.3223

> <Gold.Chemscore.Rot>
1.5177

> <Gold.Chemscore.Internal.Correction>
   9.000000E+99

> <Gold.Chemscore.Hbonds>
donor molecule, donor type, donor heavy atom, donor atom, acceptor molecule, acceptor atom, score
      P1  H  6896  6909       L1    11  0.82

> <Gold.Chemscore.Hbond.Weighted>
-3.3044

> <Gold.Chemscore.Metal.Weighted>
-0.0000

> <Gold.Chemscore.Lipo.Weighted>
-12.2619

> <Gold.Chemscore.Internal_Hbond.Weighted>
0.0000

> <Gold.Chemscore.DEClash.Weighted>
0.4233

> <Gold.Chemscore.DEInternal.Weighted>
3.3223

> <Gold.Chemscore.Rot.Weighted>
3.8853

> <Gold.Chemscore.Internal.Correction.Weighted>
   9.000000E+99

> <Gold.Protein.RotatedTorsions>
[ 6907 6896 6895 6894 ] final  175.31 input  -60.11 | X-H torsion
[ 7974 7965 7964 7962 ] final  -30.25 input  175.53 | X-H torsion
[ 8008 7997 7996 7995 ] final   20.25 input   59.86 | X-H torsion
[ 10167 10162 10161 10158 ] final -107.73 input  -65.29 | X-H torsion
[ 10718 10713 10712 10709 ] final   71.56 input   66.30 | X-H torsion
[ 10763 10752 10751 10750 ] final  -70.57 input  -60.55 | X-H torsion
[ 11005 11000 10999 10996 ] final -102.99 input  -57.11 | X-H torsion

> <Gold.Protein.ActiveResidues>
 VAL166  LYS551  ARG553  GLY616  TRP617  ASP618  TYR619  PRO620  LYS621  CYS622 
 ASP623  PHE694  ASN695  SER759  ASP760  ASP761  ALA762  ILE779  LEU786  VAL792 
 PHE793  MET794  SER795  GLU796  ALA797  LYS798  CYS799  TRP800  GLU811  SER814 

> <Gold.Protein.RotatedAtoms>
  151.7383  133.3321  159.3358 H   0  0  0  0  0  0  0  0  0  0  0  0  # atno 6907 bound_to 6896
  150.7584  134.6301  159.6191 H   0  0  0  0  0  0  0  0  0  0  0  0  # atno 6908 bound_to 6896
  152.3547  134.6959  160.0277 H   0  0  0  0  0  0  0  0  0  0  0  0  # atno 6909 bound_to 6896
  146.1157  140.5516  142.8758 H   0  0  0  0  0  0  0  0  0  0  0  0  # atno 7974 bound_to 7965
  154.9328  140.3042  155.5159 H   0  0  0  0  0  0  0  0  0  0  0  0  # atno 8008 bound_to 7997
  156.3002  140.2350  156.4327 H   0  0  0  0  0  0  0  0  0  0  0  0  # atno 8009 bound_to 7997
  154.8220  140.0423  157.1406 H   0  0  0  0  0  0  0  0  0  0  0  0  # atno 8010 bound_to 7997
  140.1738  143.4021  152.1334 H   0  0  0  0  0  0  0  0  0  0  0  0  # atno 10167 bound_to 10162
  157.6457  130.9534  150.0805 H   0  0  0  0  0  0  0  0  0  0  0  0  # atno 10718 bound_to 10713
  154.4195  135.5990  153.6001 H   0  0  0  0  0  0  0  0  0  0  0  0  # atno 10763 bound_to 10752
  152.9793  135.5949  154.3972 H   0  0  0  0  0  0  0  0  0  0  0  0  # atno 10764 bound_to 10752
  154.3795  135.2841  155.2198 H   0  0  0  0  0  0  0  0  0  0  0  0  # atno 10765 bound_to 10752
  141.1165  133.8603  157.1429 H   0  0  0  0  0  0  0  0  0  0  0  0  # atno 11005 bound_to 11000
  144.7551  140.5287  143.6775 LP  0  0  0  0  0  0  0  0  0  0  0  0  # atno 17320 bound_to 7965
  145.5572  139.1478  143.3361 LP  0  0  0  0  0  0  0  0  0  0  0  0  # atno 17321 bound_to 7965
  139.5326  144.7176  151.5003 LP  0  0  0  0  0  0  0  0  0  0  0  0  # atno 17342 bound_to 10162
  140.6565  143.8589  150.6840 LP  0  0  0  0  0  0  0  0  0  0  0  0  # atno 17343 bound_to 10162
  156.1783  130.3649  149.9070 LP  0  0  0  0  0  0  0  0  0  0  0  0  # atno 17370 bound_to 10713
  156.7028  130.8940  151.3601 LP  0  0  0  0  0  0  0  0  0  0  0  0  # atno 17371 bound_to 10713
  140.0092  134.9995  157.0358 LP  0  0  0  0  0  0  0  0  0  0  0  0  # atno 17394 bound_to 11000
  140.4630  134.1465  155.7193 LP  0  0  0  0  0  0  0  0  0  0  0  0  # atno 17395 bound_to 11000

$$$$
