AV-unprocessed.smi:662|AV-procd|sdf|3245|dock5
  -GOLD-   22720 0193D 1   1.00000     0.00000
 Structure written by MMmdl.
 33 34  0  0  0  0  0  0  0  0  1 V2000
  151.0962  140.2980  154.8920 O   0  0  0  0  0  0  0  0  0  0  0  0
  150.1219  140.9537  155.2634 C   0  0  0  0  0  0  0  0  0  0  0  0
  149.9756  141.4056  156.5183 N   0  0  0  0  0  0  0  0  0  0  0  0
  150.9218  141.1818  157.6049 C   0  0  0  0  0  0  0  0  0  0  0  0
  151.3067  142.4969  158.3022 C   0  0  0  0  0  0  0  0  0  0  0  0
  152.2254  142.2816  159.4572 C   0  0  0  0  0  0  0  0  0  0  0  0
  153.0512  141.2369  159.5584 N   0  0  0  0  0  0  0  0  0  0  0  0
  153.7882  141.2419  160.7478 C   0  0  0  0  0  0  0  0  0  0  0  0
  154.7791  140.1464  161.0158 C   0  0  0  0  0  0  0  0  0  0  0  0
  155.7776  140.1607  160.1325 F   0  0  0  0  0  0  0  0  0  0  0  0
  155.3156  140.2692  162.2298 F   0  0  0  0  0  0  0  0  0  0  0  0
  154.1994  138.9485  160.9473 F   0  0  0  0  0  0  0  0  0  0  0  0
  153.4916  142.3111  161.5579 C   0  0  0  0  0  0  0  0  0  0  0  0
  152.2786  143.3462  160.8565 S   0  0  0  0  0  0  0  0  0  0  0  0
  148.9944  141.2935  154.2813 C   0  0  2  0  0  0  0  0  0  0  0  0
  147.7732  141.9204  154.9739 C   0  0  0  0  0  0  0  0  0  0  0  0
  146.5920  141.1137  154.4483 C   0  0  0  0  0  0  0  0  0  0  0  0
  147.1412  140.4240  153.2013 C   0  0  0  0  0  0  0  0  0  0  0  0
  148.5102  140.1042  153.5687 N   0  0  0  0  0  0  0  0  0  0  0  0
  149.1467  141.9391  156.7368 H   0  0  0  0  0  0  0  0  0  0  0  0
  150.5030  140.4751  158.3235 H   0  0  0  0  0  0  0  0  0  0  0  0
  151.8110  140.7091  157.1865 H   0  0  0  0  0  0  0  0  0  0  0  0
  151.7872  143.1721  157.5926 H   0  0  0  0  0  0  0  0  0  0  0  0
  150.4162  143.0105  158.6660 H   0  0  0  0  0  0  0  0  0  0  0  0
  153.9113  142.5509  162.5237 H   0  0  0  0  0  0  0  0  0  0  0  0
  149.3659  141.9978  153.5343 H   0  0  0  0  0  0  0  0  0  0  0  0
  147.8182  141.8781  156.0636 H   0  0  0  0  0  0  0  0  0  0  0  0
  147.6802  142.9697  154.6913 H   0  0  0  0  0  0  0  0  0  0  0  0
  146.2978  140.3649  155.1851 H   0  0  0  0  0  0  0  0  0  0  0  0
  145.7207  141.7339  154.2361 H   0  0  0  0  0  0  0  0  0  0  0  0
  146.5777  139.5314  152.9282 H   0  0  0  0  0  0  0  0  0  0  0  0
  147.1414  141.1060  152.3495 H   0  0  0  0  0  0  0  0  0  0  0  0
  149.0711  139.8722  152.7616 H   0  0  0  0  0  0  0  0  0  0  0  0
  1  2  2  0  0  0  0
  2  3  1  0  0  0  0
  2 15  1  0  0  0  0
  3  4  1  0  0  0  0
  3 20  1  0  0  0  0
  4  5  1  0  0  0  0
  4 21  1  0  0  0  0
  4 22  1  0  0  0  0
  5  6  1  0  0  0  0
  5 23  1  0  0  0  0
  5 24  1  0  0  0  0
  6 14  1  0  0  0  0
  6  7  2  0  0  0  0
  7  8  1  0  0  0  0
  8  9  1  0  0  0  0
  8 13  2  0  0  0  0
  9 10  1  0  0  0  0
  9 11  1  0  0  0  0
  9 12  1  0  0  0  0
 13 14  1  0  0  0  0
 13 25  1  0  0  0  0
 15 19  1  0  0  0  0
 15 16  1  0  0  0  0
 15 26  1  0  0  0  0
 16 17  1  0  0  0  0
 16 27  1  0  0  0  0
 16 28  1  0  0  0  0
 17 18  1  0  0  0  0
 17 29  1  0  0  0  0
 17 30  1  0  0  0  0
 18 19  1  0  0  0  0
 18 31  1  0  0  0  0
 18 32  1  0  0  0  0
 19 33  1  0  0  0  0
M  END
> <s_m_source_file>
AV-unprocessed.smi

> <i_m_source_file_index>
662

> <i_lp_mmshare_version>
43012

> <i_f3d_flags>
0

> <s_epik_input>
W05IXTFbQ0gyXVtDSDJdW0NIMl1bQ0BIXTFDKD1PKVtOSF1bQ0gyXVtDSDJdYzJuYyhDKEYpKEYpRilbY0hdczI=

> <s_epik_cmdline>
J2VwaWtfcHl0aG9uJywgJy1waCcsICc3LjAnLCAnLXRuJywgJzgnLCAnLW1hJywgJzIwMCcsICctbWV0YWxfYmluZGluZycsICctaW1hZScsICc8aW5maWxlLm1hZT4nLCAnLW9tYWUnLCAnPG91dGZpbGUubWFlPic=

> <r_epik_Ionization_Penalty>
1.64272

> <r_epik_Ionization_Penalty_Charging>
0

> <r_epik_Ionization_Penalty_Neutral>
1.64272

> <r_epik_State_Penalty>
1.74416

> <r_epik_Charging_Adjusted_Penalty>
1.74416

> <i_epik_Tot_Q>
0

> <i_epik_Tot_abs_Q>
0

> <r_epik_Metal_State_Penalty>
1.74416

> <b_epik_Metal_Only>
0

> <s_lp_Force_Field>
OPLS_2005

> <r_lp_Energy>
16.594

> <b_lp_Chiralities_Consistent>
1

> <s_lp_Variant>
AV-unprocessed.smi:662-3

> <Gold.Version>
5.8.1

> <Gold.Id.Protein>
6NUR|6NUR_protein|mol2

> <Gold.PLP.Fitness>
45.6284

> <Gold.PLP.PLP>
-41.2451

> <Gold.PLP.part.hbond>
-2.0000

> <Gold.PLP.part.metal>
0.0000

> <Gold.PLP.part.buried>
-2.0321

> <Gold.PLP.part.nonpolar>
-35.8057

> <Gold.PLP.part.repulsive>
0.0998

> <Gold.PLP.ligand.clash>
0.4109

> <Gold.PLP.ligand.torsion>
0.6160

> <Gold.PLP.Chemscore.Hbond>
2.0000

> <Gold.PLP.Chemscore.CHOScore>
0.0000

> <Gold.PLP.Chemscore.Metal>
0.0000

> <Gold.Chemscore.Hbonds>
donor molecule, donor type, donor heavy atom, donor atom, acceptor molecule, acceptor atom, score
      L1  H    19    33       P1  7957  1.00
      P1  H  7989  7998       L1     1  1.00

> <Gold.PLP.Chemscore.Internal.Correction>
0.0263

> <Gold.Rescore>
     Score         DG    S(hbond)    S(metal)    S(lipo)     H(rot)  DE(clash)    DE(int)     intcor
     16.06     -16.78       1.99        0.00      81.69       1.91       0.02       0.70       ----

> <Gold.Chemscore.Fitness>
16.0567

> <Gold.Chemscore.DG>
-16.7806

> <Gold.Chemscore.ZeroCoef>
-5.4800

> <Gold.Chemscore.Hbond>
1.9854

> <Gold.Chemscore.Metal>
0.0000

> <Gold.Chemscore.Lipo>
81.6883

> <Gold.Chemscore.Internal_Hbond>
0.0000

> <Gold.Chemscore.DEClash>
0.0206

> <Gold.Chemscore.DEInternal>
0.7033

> <Gold.Chemscore.Rot>
1.9095

> <Gold.Chemscore.Internal.Correction>
   9.000000E+99

> <Gold.Chemscore.Hbonds>
donor molecule, donor type, donor heavy atom, donor atom, acceptor molecule, acceptor atom, score
      L1  H    19    33       P1  7957  0.98
      P1  H  7989  7998       L1     1  0.73

> <Gold.Chemscore.Hbond.Weighted>
-6.6314

> <Gold.Chemscore.Metal.Weighted>
-0.0000

> <Gold.Chemscore.Lipo.Weighted>
-9.5575

> <Gold.Chemscore.Internal_Hbond.Weighted>
0.0000

> <Gold.Chemscore.DEClash.Weighted>
0.0206

> <Gold.Chemscore.DEInternal.Weighted>
0.7033

> <Gold.Chemscore.Rot.Weighted>
4.8883

> <Gold.Chemscore.Internal.Correction.Weighted>
   9.000000E+99

> <Gold.Protein.RotatedTorsions>
[ 6907 6896 6895 6894 ] final  -49.90 input  -60.11 | X-H torsion
[ 7974 7965 7964 7962 ] final -144.63 input  175.53 | X-H torsion
[ 8008 7997 7996 7995 ] final -129.03 input   59.86 | X-H torsion
[ 10167 10162 10161 10158 ] final -131.85 input  -65.29 | X-H torsion
[ 10718 10713 10712 10709 ] final  159.61 input   66.30 | X-H torsion
[ 10763 10752 10751 10750 ] final -121.83 input  -60.55 | X-H torsion
[ 11005 11000 10999 10996 ] final  -60.94 input  -57.11 | X-H torsion

> <Gold.Protein.ActiveResidues>
 VAL166  LYS551  ARG553  GLY616  TRP617  ASP618  TYR619  PRO620  LYS621  CYS622 
 ASP623  PHE694  ASN695  SER759  ASP760  ASP761  ALA762  ILE779  LEU786  VAL792 
 PHE793  MET794  SER795  GLU796  ALA797  LYS798  CYS799  TRP800  GLU811  SER814 

> <Gold.Protein.RotatedAtoms>
  150.8760  134.8143  159.7189 H   0  0  0  0  0  0  0  0  0  0  0  0  # atno 6907 bound_to 6896
  152.4747  134.4871  159.9693 H   0  0  0  0  0  0  0  0  0  0  0  0  # atno 6908 bound_to 6896
  151.4953  133.3477  159.2895 H   0  0  0  0  0  0  0  0  0  0  0  0  # atno 6909 bound_to 6896
  144.8284  140.5686  143.5531 H   0  0  0  0  0  0  0  0  0  0  0  0  # atno 7974 bound_to 7965
  155.2725  140.0440  157.3008 H   0  0  0  0  0  0  0  0  0  0  0  0  # atno 8008 bound_to 7997
  154.5645  140.2356  155.8254 H   0  0  0  0  0  0  0  0  0  0  0  0  # atno 8009 bound_to 7997
  156.2074  140.3009  155.9664 H   0  0  0  0  0  0  0  0  0  0  0  0  # atno 8010 bound_to 7997
  139.9147  143.6453  152.2567 H   0  0  0  0  0  0  0  0  0  0  0  0  # atno 10167 bound_to 10162
  157.1618  131.0589  151.2228 H   0  0  0  0  0  0  0  0  0  0  0  0  # atno 10718 bound_to 10713
  154.8677  135.4154  154.2683 H   0  0  0  0  0  0  0  0  0  0  0  0  # atno 10763 bound_to 10752
  153.3598  135.7003  153.6727 H   0  0  0  0  0  0  0  0  0  0  0  0  # atno 10764 bound_to 10752
  153.5632  135.3606  155.2780 H   0  0  0  0  0  0  0  0  0  0  0  0  # atno 10765 bound_to 10752
  141.1306  133.6626  156.5300 H   0  0  0  0  0  0  0  0  0  0  0  0  # atno 11005 bound_to 11000
  145.4950  139.1486  143.3689 LP  0  0  0  0  0  0  0  0  0  0  0  0  # atno 17320 bound_to 7965
  146.2588  140.5088  142.8862 LP  0  0  0  0  0  0  0  0  0  0  0  0  # atno 17321 bound_to 7965
  139.6913  144.7646  151.1434 LP  0  0  0  0  0  0  0  0  0  0  0  0  # atno 17342 bound_to 10162
  140.7677  143.5586  150.9125 LP  0  0  0  0  0  0  0  0  0  0  0  0  # atno 17343 bound_to 10162
  157.4126  130.7393  149.6850 LP  0  0  0  0  0  0  0  0  0  0  0  0  # atno 17370 bound_to 10713
  155.9752  130.4091  150.3863 LP  0  0  0  0  0  0  0  0  0  0  0  0  # atno 17371 bound_to 10713
  140.4223  134.7176  157.4897 LP  0  0  0  0  0  0  0  0  0  0  0  0  # atno 17394 bound_to 11000
  140.0351  134.6349  155.9054 LP  0  0  0  0  0  0  0  0  0  0  0  0  # atno 17395 bound_to 11000

$$$$
