AV-unprocessed.smi:148|AV-procd|sdf|1224|dock5
  -GOLD-   2262018423D 1   1.00000     0.00000
 Structure written by MMmdl.
 63 67  0  0  0  0  0  0  0  0  1 V2000
  147.4531  134.6468  153.4863 O   0  0  0  0  0  0  0  0  0  0  0  0
  146.0760  134.9483  153.4081 C   0  0  0  0  0  0  0  0  0  0  0  0
  145.2056  133.6667  153.3317 C   0  0  2  0  0  0  0  0  0  0  0  0
  145.7652  132.5474  154.2483 C   0  0  0  0  0  0  0  0  0  0  0  0
  145.9663  132.9649  155.6252 N   0  0  0  0  0  0  0  0  0  0  0  0
  144.9956  133.3693  156.5148 C   0  0  0  0  0  0  0  0  0  0  0  0
  145.4293  133.6989  157.7010 N   0  0  0  0  0  0  0  0  0  0  0  0
  146.8029  133.5151  157.6170 C   0  0  0  0  0  0  0  0  0  0  0  0
  147.8780  133.6932  158.5256 C   0  0  0  0  0  0  0  0  0  0  0  0
  147.6777  134.1233  159.7901 N   0  0  0  0  0  0  0  0  0  0  0  0
  147.5474  135.5819  159.8119 C   0  0  0  0  0  0  0  0  0  0  0  0
  147.6334  136.1285  161.2400 C   0  0  0  0  0  0  0  0  0  0  0  0
  146.5741  135.4563  162.1143 C   0  0  0  0  0  0  0  0  0  0  0  0
  146.7412  133.9323  162.0585 C   0  0  0  0  0  0  0  0  0  0  0  0
  146.7024  133.3742  160.6094 C   0  0  2  0  0  0  0  0  0  0  0  0
  146.9359  131.8219  160.6136 C   0  0  1  0  0  0  0  0  0  0  0  0
  147.9601  131.3147  161.6471 C   0  0  0  0  0  0  0  0  0  0  0  0
  147.7188  129.8082  161.7966 C   0  0  0  0  0  0  0  0  0  0  0  0
  146.3246  129.5399  161.2196 C   0  0  0  0  0  0  0  0  0  0  0  0
  145.7199  130.9139  160.9121 C   0  0  1  0  0  0  0  0  0  0  0  0
  145.0086  131.3640  162.0501 O   0  0  0  0  0  0  0  0  0  0  0  0
  149.1350  133.4092  158.0928 N   0  0  0  0  0  0  0  0  0  0  0  0
  149.3266  132.9887  156.8383 C   0  0  0  0  0  0  0  0  0  0  0  0
  148.4215  132.7842  155.8777 N   0  0  0  0  0  0  0  0  0  0  0  0
  147.1601  133.0603  156.3177 C   0  0  0  0  0  0  0  0  0  0  0  0
  145.0557  133.1444  151.8755 C   0  0  1  0  0  0  0  0  0  0  0  0
  144.1071  131.9678  151.7116 C   0  0  0  0  0  0  0  0  0  0  0  0
  143.8204  131.9798  150.2143 C   0  0  0  0  0  0  0  0  0  0  0  0
  143.8968  133.3435  149.8178 O   0  0  0  0  0  0  0  0  0  0  0  0
  144.4307  134.1279  150.8791 C   0  0  0  0  0  0  0  0  0  0  0  0
  147.8852  135.0132  152.7297 H   0  0  0  0  0  0  0  0  0  0  0  0
  145.7872  135.5628  154.2612 H   0  0  0  0  0  0  0  0  0  0  0  0
  145.9579  135.5687  152.5212 H   0  0  0  0  0  0  0  0  0  0  0  0
  144.2122  133.9181  153.7060 H   0  0  0  0  0  0  0  0  0  0  0  0
  145.0902  131.6919  154.2706 H   0  0  0  0  0  0  0  0  0  0  0  0
  146.7152  132.1823  153.8557 H   0  0  0  0  0  0  0  0  0  0  0  0
  143.9473  133.4056  156.2568 H   0  0  0  0  0  0  0  0  0  0  0  0
  148.3302  136.0370  159.2027 H   0  0  0  0  0  0  0  0  0  0  0  0
  146.5923  135.8690  159.3693 H   0  0  0  0  0  0  0  0  0  0  0  0
  148.6273  135.9421  161.6490 H   0  0  0  0  0  0  0  0  0  0  0  0
  147.4914  137.2094  161.2381 H   0  0  0  0  0  0  0  0  0  0  0  0
  146.6572  135.8074  163.1432 H   0  0  0  0  0  0  0  0  0  0  0  0
  145.5774  135.7319  161.7672 H   0  0  0  0  0  0  0  0  0  0  0  0
  147.6865  133.6586  162.5298 H   0  0  0  0  0  0  0  0  0  0  0  0
  145.9529  133.4906  162.6670 H   0  0  0  0  0  0  0  0  0  0  0  0
  145.7088  133.5819  160.2110 H   0  0  0  0  0  0  0  0  0  0  0  0
  147.3243  131.5422  159.6324 H   0  0  0  0  0  0  0  0  0  0  0  0
  148.9892  131.5264  161.3549 H   0  0  0  0  0  0  0  0  0  0  0  0
  147.7856  131.7984  162.6093 H   0  0  0  0  0  0  0  0  0  0  0  0
  148.4691  129.2385  161.2471 H   0  0  0  0  0  0  0  0  0  0  0  0
  147.7832  129.5086  162.8430 H   0  0  0  0  0  0  0  0  0  0  0  0
  146.4280  128.9778  160.2905 H   0  0  0  0  0  0  0  0  0  0  0  0
  145.7020  128.9417  161.8867 H   0  0  0  0  0  0  0  0  0  0  0  0
  145.0265  130.8317  160.0780 H   0  0  0  0  0  0  0  0  0  0  0  0
  145.0952  132.3034  162.1056 H   0  0  0  0  0  0  0  0  0  0  0  0
  150.3522  132.7886  156.5656 H   0  0  0  0  0  0  0  0  0  0  0  0
  146.0354  132.8467  151.4976 H   0  0  0  0  0  0  0  0  0  0  0  0
  144.5319  131.0190  152.0401 H   0  0  0  0  0  0  0  0  0  0  0  0
  143.1859  132.1414  152.2702 H   0  0  0  0  0  0  0  0  0  0  0  0
  144.5856  131.4193  149.6758 H   0  0  0  0  0  0  0  0  0  0  0  0
  142.8494  131.5470  149.9727 H   0  0  0  0  0  0  0  0  0  0  0  0
  143.6096  134.6777  151.3418 H   0  0  0  0  0  0  0  0  0  0  0  0
  145.1509  134.8517  150.4971 H   0  0  0  0  0  0  0  0  0  0  0  0
  1  2  1  0  0  0  0
  1 31  1  0  0  0  0
  2  3  1  0  0  0  0
  2 32  1  0  0  0  0
  2 33  1  0  0  0  0
  3  4  1  0  0  0  0
  3 26  1  0  0  0  0
  3 34  1  0  0  0  0
  4  5  1  0  0  0  0
  4 35  1  0  0  0  0
  4 36  1  0  0  0  0
  5 25  1  0  0  0  0
  5  6  1  0  0  0  0
  6  7  2  0  0  0  0
  6 37  1  0  0  0  0
  7  8  1  0  0  0  0
  8 25  2  0  0  0  0
  8  9  1  0  0  0  0
  9 10  1  0  0  0  0
  9 22  2  0  0  0  0
 10 15  1  0  0  0  0
 10 11  1  0  0  0  0
 11 12  1  0  0  0  0
 11 38  1  0  0  0  0
 11 39  1  0  0  0  0
 12 13  1  0  0  0  0
 12 40  1  0  0  0  0
 12 41  1  0  0  0  0
 13 14  1  0  0  0  0
 13 42  1  0  0  0  0
 13 43  1  0  0  0  0
 14 15  1  0  0  0  0
 14 44  1  0  0  0  0
 14 45  1  0  0  0  0
 15 16  1  0  0  0  0
 15 46  1  0  0  0  0
 16 20  1  0  0  0  0
 16 17  1  0  0  0  0
 16 47  1  0  0  0  0
 17 18  1  0  0  0  0
 17 48  1  0  0  0  0
 17 49  1  0  0  0  0
 18 19  1  0  0  0  0
 18 50  1  0  0  0  0
 18 51  1  0  0  0  0
 19 20  1  0  0  0  0
 19 52  1  0  0  0  0
 19 53  1  0  0  0  0
 20 21  1  0  0  0  0
 20 54  1  0  0  0  0
 21 55  1  0  0  0  0
 22 23  1  0  0  0  0
 23 24  2  0  0  0  0
 23 56  1  0  0  0  0
 24 25  1  0  0  0  0
 26 30  1  0  0  0  0
 26 27  1  0  0  0  0
 26 57  1  0  0  0  0
 27 28  1  0  0  0  0
 27 58  1  0  0  0  0
 27 59  1  0  0  0  0
 28 29  1  0  0  0  0
 28 60  1  0  0  0  0
 28 61  1  0  0  0  0
 29 30  1  0  0  0  0
 30 62  1  0  0  0  0
 30 63  1  0  0  0  0
M  END
> <s_m_source_file>
AV-unprocessed.smi

> <i_m_source_file_index>
148

> <i_lp_mmshare_version>
43012

> <i_f3d_flags>
0

> <s_epik_input>
W0NIMl0xT1tDSDJdW0NIMl1bQ0BIXTFbQ0BIXShbQ0gyXVtPSF0pW0NIMl1uKFtjSF1uMiljKGMyMyluW2NIXW5jM040W0NIMl1bQ0gyXVtDSDJdW0NIMl1bQ0BIXTRbQ0BASF01W0NIMl1bQ0gyXVtDSDJdW0NASF01W09IXQ==

> <s_epik_cmdline>
J2VwaWtfcHl0aG9uJywgJy1waCcsICc3LjAnLCAnLXRuJywgJzgnLCAnLW1hJywgJzIwMCcsICctbWV0YWxfYmluZGluZycsICctaW1hZScsICc8aW5maWxlLm1hZT4nLCAnLW9tYWUnLCAnPG91dGZpbGUubWFlPic=

> <r_lp_tautomer_probability>
1

> <r_epik_Ionization_Penalty>
0.00556303

> <r_epik_Ionization_Penalty_Charging>
0

> <r_epik_Ionization_Penalty_Neutral>
0.00556303

> <r_epik_State_Penalty>
0.00401767

> <r_epik_Charging_Adjusted_Penalty>
0.00401767

> <i_epik_Tot_Q>
0

> <i_epik_Tot_abs_Q>
0

> <r_epik_Metal_State_Penalty>
-0

> <b_epik_Metal_Only>
0

> <s_lp_Force_Field>
OPLS_2005

> <r_lp_Energy>
70.7604

> <b_lp_Chiralities_Consistent>
1

> <s_lp_Variant>
AV-unprocessed.smi:148-23

> <Gold.Version>
5.8.1

> <Gold.Id.Protein>
6NUR|6NUR_protein|mol2

> <Gold.PLP.Fitness>
43.8218

> <Gold.PLP.PLP>
-36.4219

> <Gold.PLP.part.hbond>
-2.1588

> <Gold.PLP.part.metal>
0.0000

> <Gold.PLP.part.buried>
-6.6223

> <Gold.PLP.part.nonpolar>
-28.2340

> <Gold.PLP.part.repulsive>
0.2373

> <Gold.PLP.ligand.clash>
0.0000

> <Gold.PLP.ligand.torsion>
1.1406

> <Gold.PLP.Chemscore.Hbond>
2.0000

> <Gold.PLP.Chemscore.CHOScore>
0.9804

> <Gold.PLP.Chemscore.Metal>
0.0000

> <Gold.Chemscore.Hbonds>
donor molecule, donor type, donor heavy atom, donor atom, acceptor molecule, acceptor atom, score
      L1  H     1    31       P1  7948  1.00
      P1  H  6896  6907       L1    22  0.84
      L1  C     6    37       P1 10957  0.94

> <Gold.PLP.Chemscore.Internal.Correction>
0.7397

> <Gold.Rescore>
     Score         DG    S(hbond)    S(metal)    S(lipo)     H(rot)  DE(clash)    DE(int)     intcor
     11.54     -13.34       1.80        0.00      88.32       3.32       0.19       1.61       ----

> <Gold.Chemscore.Fitness>
11.5414

> <Gold.Chemscore.DG>
-13.3375

> <Gold.Chemscore.ZeroCoef>
-5.4800

> <Gold.Chemscore.Hbond>
1.8036

> <Gold.Chemscore.Metal>
0.0000

> <Gold.Chemscore.Lipo>
88.3188

> <Gold.Chemscore.Internal_Hbond>
0.0000

> <Gold.Chemscore.DEClash>
0.1872

> <Gold.Chemscore.DEInternal>
1.6088

> <Gold.Chemscore.Rot>
3.3203

> <Gold.Chemscore.Internal.Correction>
   9.000000E+99

> <Gold.Chemscore.Hbonds>
donor molecule, donor type, donor heavy atom, donor atom, acceptor molecule, acceptor atom, score
      L1  H     1    31       P1  7948  0.95
      P1  H  6896  6907       L1    22  0.77

> <Gold.Chemscore.Hbond.Weighted>
-6.0242

> <Gold.Chemscore.Metal.Weighted>
-0.0000

> <Gold.Chemscore.Lipo.Weighted>
-10.3333

> <Gold.Chemscore.Internal_Hbond.Weighted>
0.0000

> <Gold.Chemscore.DEClash.Weighted>
0.1872

> <Gold.Chemscore.DEInternal.Weighted>
1.6088

> <Gold.Chemscore.Rot.Weighted>
8.5000

> <Gold.Chemscore.Internal.Correction.Weighted>
   9.000000E+99

> <Gold.Protein.RotatedTorsions>
[ 6907 6896 6895 6894 ] final -127.94 input  -60.11 | X-H torsion
[ 7974 7965 7964 7962 ] final   56.10 input  175.53 | X-H torsion
[ 8008 7997 7996 7995 ] final   54.13 input   59.86 | X-H torsion
[ 10167 10162 10161 10158 ] final  -54.61 input  -65.29 | X-H torsion
[ 10718 10713 10712 10709 ] final  106.86 input   66.30 | X-H torsion
[ 10763 10752 10751 10750 ] final  -19.20 input  -60.55 | X-H torsion
[ 11005 11000 10999 10996 ] final  107.97 input  -57.11 | X-H torsion

> <Gold.Protein.ActiveResidues>
 VAL166  LYS551  ARG553  GLY616  TRP617  ASP618  TYR619  PRO620  LYS621  CYS622 
 ASP623  PHE694  ASN695  SER759  ASP760  ASP761  ALA762  ILE779  LEU786  VAL792 
 PHE793  MET794  SER795  GLU796  ALA797  LYS798  CYS799  TRP800  GLU811  SER814 

> <Gold.Protein.RotatedAtoms>
  150.9126  133.6978  159.2850 H   0  0  0  0  0  0  0  0  0  0  0  0  # atno 6907 bound_to 6896
  151.4460  135.1024  159.9693 H   0  0  0  0  0  0  0  0  0  0  0  0  # atno 6908 bound_to 6896
  152.4938  133.8523  159.7263 H   0  0  0  0  0  0  0  0  0  0  0  0  # atno 6909 bound_to 6896
  145.9434  139.3908  143.0350 H   0  0  0  0  0  0  0  0  0  0  0  0  # atno 7974 bound_to 7965
  155.4797  140.3468  155.4338 H   0  0  0  0  0  0  0  0  0  0  0  0  # atno 8008 bound_to 7997
  156.1047  140.1445  156.9449 H   0  0  0  0  0  0  0  0  0  0  0  0  # atno 8009 bound_to 7997
  154.4716  140.0899  156.7138 H   0  0  0  0  0  0  0  0  0  0  0  0  # atno 8010 bound_to 7997
  140.6421  143.2513  151.4961 H   0  0  0  0  0  0  0  0  0  0  0  0  # atno 10167 bound_to 10162
  157.6651  131.0860  150.6070 H   0  0  0  0  0  0  0  0  0  0  0  0  # atno 10718 bound_to 10713
  153.6011  135.6999  153.5384 H   0  0  0  0  0  0  0  0  0  0  0  0  # atno 10763 bound_to 10752
  153.3096  135.4105  155.1324 H   0  0  0  0  0  0  0  0  0  0  0  0  # atno 10764 bound_to 10752
  154.8582  135.3669  154.5546 H   0  0  0  0  0  0  0  0  0  0  0  0  # atno 10765 bound_to 10752
  139.8836  134.9416  156.5900 H   0  0  0  0  0  0  0  0  0  0  0  0  # atno 11005 bound_to 11000
  145.8269  140.9651  143.0869 LP  0  0  0  0  0  0  0  0  0  0  0  0  # atno 17320 bound_to 7965
  144.6783  140.0112  143.7484 LP  0  0  0  0  0  0  0  0  0  0  0  0  # atno 17321 bound_to 7965
  139.5630  144.2110  152.1721 LP  0  0  0  0  0  0  0  0  0  0  0  0  # atno 17342 bound_to 10162
  140.1383  144.5225  150.6759 LP  0  0  0  0  0  0  0  0  0  0  0  0  # atno 17343 bound_to 10162
  156.6372  130.4448  149.5765 LP  0  0  0  0  0  0  0  0  0  0  0  0  # atno 17370 bound_to 10713
  156.2237  130.6752  151.1394 LP  0  0  0  0  0  0  0  0  0  0  0  0  # atno 17371 bound_to 10713
  140.7962  133.8542  155.8688 LP  0  0  0  0  0  0  0  0  0  0  0  0  # atno 17394 bound_to 11000
  140.9633  134.1627  157.4636 LP  0  0  0  0  0  0  0  0  0  0  0  0  # atno 17395 bound_to 11000

$$$$
