AV-unprocessed.smi:1602|AV-procd|sdf|6441|dock10
  -GOLD-   22720 7 93D 1   1.00000     0.00000
 Structure written by MMmdl.
 35 36  0  0  0  0  0  0  0  0  2 V2000
  152.9721  140.6522  159.5954 C   0  0  0  0  0  0  0  0  0  0  0  0
  152.4447  140.9173  158.1766 C   0  0  2  0  0  0  0  0  0  0  0  0
  151.2542  141.9170  158.1472 C   0  0  0  0  0  0  0  0  0  0  0  0
  151.5138  143.2223  158.7523 N   0  0  0  0  0  0  0  0  0  0  0  0
  151.3725  144.4786  158.1936 C   0  0  0  0  0  0  0  0  0  0  0  0
  151.7125  145.3943  159.1477 C   0  0  0  0  0  0  0  0  0  0  0  0
  152.0365  144.5968  160.2802 C   0  0  0  0  0  0  0  0  0  0  0  0
  151.9044  143.3020  160.0467 N   0  0  0  0  0  0  0  0  0  0  0  0
  152.0671  139.6468  157.5735 N   0  5  0  0  0  0  0  0  0  0  0  0
  152.0069  139.4952  155.9600 S   0  0  0  0  0  0  0  0  0  0  0  0
  150.9666  140.3109  155.3121 O   0  0  0  0  0  0  0  0  0  0  0  0
  153.3440  139.4752  155.3447 O   0  0  0  0  0  0  0  0  0  0  0  0
  151.4161  137.8627  155.9161 N   0  0  0  0  0  0  0  0  0  0  0  0
  152.0877  136.8911  156.7959 C   0  0  0  0  0  0  0  0  0  0  0  0
  151.3303  135.5537  156.8315 C   0  0  0  0  0  0  0  0  0  0  0  0
  151.1447  135.0578  155.5151 O   0  0  0  0  0  0  0  0  0  0  0  0
  150.3536  135.9443  154.7394 C   0  0  0  0  0  0  0  0  0  0  0  0
  151.0630  137.2997  154.5961 C   0  0  0  0  0  0  0  0  0  0  0  0
  153.2429  141.5848  160.0907 H   0  0  0  0  0  0  0  0  0  0  0  0
  153.8635  140.0245  159.5707 H   0  0  0  0  0  0  0  0  0  0  0  0
  152.2324  140.1467  160.2170 H   0  0  0  0  0  0  0  0  0  0  0  0
  153.2633  141.3763  157.6208 H   0  0  0  0  0  0  0  0  0  0  0  0
  150.9623  142.0900  157.1109 H   0  0  0  0  0  0  0  0  0  0  0  0
  150.3766  141.4803  158.6250 H   0  0  0  0  0  0  0  0  0  0  0  0
  151.0513  144.6121  157.1712 H   0  0  0  0  0  0  0  0  0  0  0  0
  151.7249  146.4694  159.0524 H   0  0  0  0  0  0  0  0  0  0  0  0
  152.3561  144.9175  161.2606 H   0  0  0  0  0  0  0  0  0  0  0  0
  153.1062  136.7382  156.4370 H   0  0  0  0  0  0  0  0  0  0  0  0
  152.1605  137.2938  157.8059 H   0  0  0  0  0  0  0  0  0  0  0  0
  151.8959  134.8209  157.4071 H   0  0  0  0  0  0  0  0  0  0  0  0
  150.3659  135.6689  157.3288 H   0  0  0  0  0  0  0  0  0  0  0  0
  150.1915  135.5034  153.7558 H   0  0  0  0  0  0  0  0  0  0  0  0
  149.3699  136.0689  155.1951 H   0  0  0  0  0  0  0  0  0  0  0  0
  150.4199  137.9857  154.0464 H   0  0  0  0  0  0  0  0  0  0  0  0
  151.9743  137.1830  154.0087 H   0  0  0  0  0  0  0  0  0  0  0  0
  1  2  1  0  0  0  0
  1 19  1  0  0  0  0
  1 20  1  0  0  0  0
  1 21  1  0  0  0  0
  2  3  1  0  0  0  0
  2  9  1  0  0  0  0
  2 22  1  0  0  0  0
  3  4  1  0  0  0  0
  3 23  1  0  0  0  0
  3 24  1  0  0  0  0
  4  8  1  0  0  0  0
  4  5  1  0  0  0  0
  5  6  2  0  0  0  0
  5 25  1  0  0  0  0
  6  7  1  0  0  0  0
  6 26  1  0  0  0  0
  7  8  2  0  0  0  0
  7 27  1  0  0  0  0
  9 10  1  0  0  0  0
 10 11  2  0  0  0  0
 10 12  2  0  0  0  0
 10 13  1  0  0  0  0
 13 18  1  0  0  0  0
 13 14  1  0  0  0  0
 14 15  1  0  0  0  0
 14 28  1  0  0  0  0
 14 29  1  0  0  0  0
 15 16  1  0  0  0  0
 15 30  1  0  0  0  0
 15 31  1  0  0  0  0
 16 17  1  0  0  0  0
 17 18  1  0  0  0  0
 17 32  1  0  0  0  0
 17 33  1  0  0  0  0
 18 34  1  0  0  0  0
 18 35  1  0  0  0  0
M  CHG  1   9  -1
M  END
> <s_m_source_file>
AV-unprocessed.smi

> <i_m_source_file_index>
1602

> <i_lp_mmshare_version>
43012

> <i_f3d_flags>
0

> <s_epik_input>
bjFbY0hdW2NIXVtjSF1uMVtDSDJdW0NAQEhdKFtDSDNdKVtOSF1TKD1PKSg9TylOMltDSDJdW0NIMl1PW0NIMl1bQ0gyXTI=

> <s_epik_cmdline>
J2VwaWtfcHl0aG9uJywgJy1waCcsICc3LjAnLCAnLXRuJywgJzgnLCAnLW1hJywgJzIwMCcsICctbWV0YWxfYmluZGluZycsICctaW1hZScsICc8aW5maWxlLm1hZT4nLCAnLW9tYWUnLCAnPG91dGZpbGUubWFlPic=

> <r_lp_tautomer_probability>
1

> <r_epik_Ionization_Penalty>
1.03144

> <r_epik_Ionization_Penalty_Charging>
1.03142

> <r_epik_Ionization_Penalty_Neutral>
2.21579e-05

> <r_epik_State_Penalty>
1.0826

> <r_epik_Charging_Adjusted_Penalty>
2.11402

> <i_epik_Tot_Q>
-1

> <i_epik_Tot_abs_Q>
1

> <r_epik_Metal_State_Penalty>
0.386234

> <b_epik_Metal_Only>
0

> <s_lp_Force_Field>
OPLS_2005

> <r_lp_Energy>
6.71123

> <b_lp_Chiralities_Consistent>
1

> <s_lp_Variant>
AV-unprocessed.smi:1602-3

> <Gold.Version>
5.8.1

> <Gold.Id.Protein>
6NUR|6NUR_protein|mol2

> <Gold.PLP.Fitness>
41.8753

> <Gold.PLP.PLP>
-31.3055

> <Gold.PLP.part.hbond>
-2.8404

> <Gold.PLP.part.metal>
0.0000

> <Gold.PLP.part.buried>
-3.4487

> <Gold.PLP.part.nonpolar>
-24.8816

> <Gold.PLP.part.repulsive>
0.1258

> <Gold.PLP.ligand.clash>
0.0000

> <Gold.PLP.ligand.torsion>
1.2408

> <Gold.PLP.Chemscore.Hbond>
2.8496

> <Gold.PLP.Chemscore.CHOScore>
0.9979

> <Gold.PLP.Chemscore.Metal>
0.0000

> <Gold.Chemscore.Hbonds>
donor molecule, donor type, donor heavy atom, donor atom, acceptor molecule, acceptor atom, score
      P1  H  7989  7998       L1    11  1.00
      P1  H  7997  8010       L1    12  0.88
      P1  H 10752 10763       L1    16  0.85
      L1  C     5    25       P1  8028  0.81

> <Gold.PLP.Chemscore.Internal.Correction>
1.5086

> <Gold.Rescore>
     Score         DG    S(hbond)    S(metal)    S(lipo)     H(rot)  DE(clash)    DE(int)     intcor
     15.53     -16.97       1.88        0.00      80.94       1.67       0.04       1.40       ----

> <Gold.Chemscore.Fitness>
15.5298

> <Gold.Chemscore.DG>
-16.9682

> <Gold.Chemscore.ZeroCoef>
-5.4800

> <Gold.Chemscore.Hbond>
1.8834

> <Gold.Chemscore.Metal>
0.0000

> <Gold.Chemscore.Lipo>
80.9380

> <Gold.Chemscore.Internal_Hbond>
0.0000

> <Gold.Chemscore.DEClash>
0.0370

> <Gold.Chemscore.DEInternal>
1.4014

> <Gold.Chemscore.Rot>
1.6688

> <Gold.Chemscore.Internal.Correction>
   9.000000E+99

> <Gold.Chemscore.Hbonds>
donor molecule, donor type, donor heavy atom, donor atom, acceptor molecule, acceptor atom, score
      P1  H  7989  7998       L1    11  0.60
      P1  H  7997  8010       L1    12  0.68
      P1  H 10752 10763       L1    16  0.04

> <Gold.Chemscore.Hbond.Weighted>
-6.2907

> <Gold.Chemscore.Metal.Weighted>
-0.0000

> <Gold.Chemscore.Lipo.Weighted>
-9.4697

> <Gold.Chemscore.Internal_Hbond.Weighted>
0.0000

> <Gold.Chemscore.DEClash.Weighted>
0.0370

> <Gold.Chemscore.DEInternal.Weighted>
1.4014

> <Gold.Chemscore.Rot.Weighted>
4.2722

> <Gold.Chemscore.Internal.Correction.Weighted>
   9.000000E+99

> <Gold.Protein.RotatedTorsions>
[ 6907 6896 6895 6894 ] final  148.07 input  -60.11 | X-H torsion
[ 7974 7965 7964 7962 ] final   80.91 input  175.53 | X-H torsion
[ 8008 7997 7996 7995 ] final   83.00 input   59.86 | X-H torsion
[ 10167 10162 10161 10158 ] final   40.43 input  -65.29 | X-H torsion
[ 10718 10713 10712 10709 ] final  146.77 input   66.30 | X-H torsion
[ 10763 10752 10751 10750 ] final   71.88 input  -60.55 | X-H torsion
[ 11005 11000 10999 10996 ] final -126.27 input  -57.11 | X-H torsion

> <Gold.Protein.ActiveResidues>
 VAL166  LYS551  ARG553  GLY616  TRP617  ASP618  TYR619  PRO620  LYS621  CYS622 
 ASP623  PHE694  ASN695  SER759  ASP760  ASP761  ALA762  ILE779  LEU786  VAL792 
 PHE793  MET794  SER795  GLU796  ALA797  LYS798  CYS799  TRP800  GLU811  SER814 

> <Gold.Protein.RotatedAtoms>
  152.1464  133.4495  159.4791 H   0  0  0  0  0  0  0  0  0  0  0  0  # atno 6907 bound_to 6896
  150.6891  134.2243  159.4418 H   0  0  0  0  0  0  0  0  0  0  0  0  # atno 6908 bound_to 6896
  152.0137  134.9861  160.0619 H   0  0  0  0  0  0  0  0  0  0  0  0  # atno 6909 bound_to 6896
  145.6450  139.2434  143.2009 H   0  0  0  0  0  0  0  0  0  0  0  0  # atno 7974 bound_to 7965
  155.9181  140.3423  155.6151 H   0  0  0  0  0  0  0  0  0  0  0  0  # atno 8008 bound_to 7997
  155.7306  140.0795  157.2309 H   0  0  0  0  0  0  0  0  0  0  0  0  # atno 8009 bound_to 7997
  154.4065  140.1589  156.2492 H   0  0  0  0  0  0  0  0  0  0  0  0  # atno 8010 bound_to 7997
  140.3742  144.2065  150.6132 H   0  0  0  0  0  0  0  0  0  0  0  0  # atno 10167 bound_to 10162
  157.3291  131.0917  151.1177 H   0  0  0  0  0  0  0  0  0  0  0  0  # atno 10718 bound_to 10713
  153.0425  135.5120  154.7660 H   0  0  0  0  0  0  0  0  0  0  0  0  # atno 10763 bound_to 10752
  154.6586  135.2935  154.9898 H   0  0  0  0  0  0  0  0  0  0  0  0  # atno 10764 bound_to 10752
  154.0757  135.6671  153.4883 H   0  0  0  0  0  0  0  0  0  0  0  0  # atno 10765 bound_to 10752
  140.9695  134.0825  157.3884 H   0  0  0  0  0  0  0  0  0  0  0  0  # atno 11005 bound_to 11000
  146.1250  140.7260  142.9439 LP  0  0  0  0  0  0  0  0  0  0  0  0  # atno 17320 bound_to 7965
  144.7143  140.4154  143.7056 LP  0  0  0  0  0  0  0  0  0  0  0  0  # atno 17321 bound_to 7965
  140.5002  143.2320  151.8689 LP  0  0  0  0  0  0  0  0  0  0  0  0  # atno 17342 bound_to 10162
  139.4801  144.5067  151.8987 LP  0  0  0  0  0  0  0  0  0  0  0  0  # atno 17343 bound_to 10162
  157.2433  130.6579  149.5899 LP  0  0  0  0  0  0  0  0  0  0  0  0  # atno 17370 bound_to 10713
  155.9694  130.4561  150.5914 LP  0  0  0  0  0  0  0  0  0  0  0  0  # atno 17371 bound_to 10713
  139.8907  135.0113  156.6750 LP  0  0  0  0  0  0  0  0  0  0  0  0  # atno 17394 bound_to 11000
  140.7350  133.9027  155.8237 LP  0  0  0  0  0  0  0  0  0  0  0  0  # atno 17395 bound_to 11000

$$$$
