AV-unprocessed.smi:1024|AV-procd|sdf|4464|dock10
  -GOLD-   22720 2443D 1   1.00000     0.00000
 Structure written by MMmdl.
 48 50  0  0  0  0  0  0  0  0  2 V2000
  147.0570  138.8217  151.0654 O   0  0  0  0  0  0  0  0  0  0  0  0
  146.9233  138.2926  152.1701 C   0  0  0  0  0  0  0  0  0  0  0  0
  146.5467  137.0090  152.3012 N   0  0  0  0  0  0  0  0  0  0  0  0
  146.2355  136.1113  151.1957 C   0  0  0  0  0  0  0  0  0  0  0  0
  145.3784  134.9224  151.6608 C   0  0  0  0  0  0  0  0  0  0  0  0
  145.7943  133.6744  151.0204 N   0  0  0  0  0  0  0  0  0  0  0  0
  145.0346  132.8452  150.2359 C   0  0  0  0  0  0  0  0  0  0  0  0
  145.8470  131.8028  149.8697 C   0  0  0  0  0  0  0  0  0  0  0  0
  147.0665  132.0401  150.4460 N   0  3  0  0  0  0  0  0  0  0  0  0
  147.0319  133.1786  151.1463 C   0  0  0  0  0  0  0  0  0  0  0  0
  147.1608  138.9395  153.3394 N   0  0  0  0  0  0  0  0  0  0  0  0
  147.4039  140.3808  153.5046 C   0  0  0  0  0  0  0  0  0  0  0  0
  148.9052  140.5994  153.7743 C   0  0  0  0  0  0  0  0  0  0  0  0
  149.4237  139.8168  155.0137 C   0  0  0  0  0  0  0  0  0  0  0  0
  150.9738  139.8744  155.0087 C   0  0  0  0  0  0  0  0  0  0  0  0
  151.6144  139.2984  156.2839 C   0  0  0  0  0  0  0  0  0  0  0  0
  151.0865  140.0076  157.5377 C   0  0  0  0  0  0  0  0  0  0  0  0
  149.5546  139.9468  157.6016 C   0  0  0  0  0  0  0  0  0  0  0  0
  148.9158  140.5024  156.3152 C   0  0  0  0  0  0  0  0  0  0  0  0
  148.9395  138.3395  154.9084 C   0  0  0  0  0  0  0  0  0  0  0  0
  147.4379  138.2161  154.5843 C   0  0  0  0  0  0  0  0  0  0  0  0
  146.4681  136.6329  153.2351 H   0  0  0  0  0  0  0  0  0  0  0  0
  145.7293  136.6636  150.4019 H   0  0  0  0  0  0  0  0  0  0  0  0
  147.1739  135.7512  150.7728 H   0  0  0  0  0  0  0  0  0  0  0  0
  145.4540  134.7897  152.7409 H   0  0  0  0  0  0  0  0  0  0  0  0
  144.3238  135.0824  151.4308 H   0  0  0  0  0  0  0  0  0  0  0  0
  143.9999  133.0521  150.0036 H   0  0  0  0  0  0  0  0  0  0  0  0
  145.6536  130.9330  149.2590 H   0  0  0  0  0  0  0  0  0  0  0  0
  147.8428  133.6111  151.7052 H   0  0  0  0  0  0  0  0  0  0  0  0
  147.0975  140.9807  152.6481 H   0  0  0  0  0  0  0  0  0  0  0  0
  146.8067  140.7542  154.3367 H   0  0  0  0  0  0  0  0  0  0  0  0
  149.4592  140.2852  152.8882 H   0  0  0  0  0  0  0  0  0  0  0  0
  149.1075  141.6653  153.8861 H   0  0  0  0  0  0  0  0  0  0  0  0
  151.3684  139.3503  154.1374 H   0  0  0  0  0  0  0  0  0  0  0  0
  151.2960  140.9114  154.9011 H   0  0  0  0  0  0  0  0  0  0  0  0
  151.4194  138.2282  156.3531 H   0  0  0  0  0  0  0  0  0  0  0  0
  152.6979  139.4058  156.2310 H   0  0  0  0  0  0  0  0  0  0  0  0
  151.5168  139.5554  158.4317 H   0  0  0  0  0  0  0  0  0  0  0  0
  151.4099  141.0492  157.5306 H   0  0  0  0  0  0  0  0  0  0  0  0
  149.2314  138.9202  157.7722 H   0  0  0  0  0  0  0  0  0  0  0  0
  149.2025  140.5179  158.4611 H   0  0  0  0  0  0  0  0  0  0  0  0
  149.1355  141.5698  156.2654 H   0  0  0  0  0  0  0  0  0  0  0  0
  147.8322  140.4328  156.3992 H   0  0  0  0  0  0  0  0  0  0  0  0
  149.4983  137.8339  154.1196 H   0  0  0  0  0  0  0  0  0  0  0  0
  149.1576  137.7838  155.8190 H   0  0  0  0  0  0  0  0  0  0  0  0
  146.8311  138.6284  155.3906 H   0  0  0  0  0  0  0  0  0  0  0  0
  147.1603  137.1631  154.5269 H   0  0  0  0  0  0  0  0  0  0  0  0
  147.8786  131.4422  150.3575 H   0  0  0  0  0  0  0  0  0  0  0  0
  1  2  2  0  0  0  0
  2  3  1  0  0  0  0
  2 11  1  0  0  0  0
  3  4  1  0  0  0  0
  3 22  1  0  0  0  0
  4  5  1  0  0  0  0
  4 23  1  0  0  0  0
  4 24  1  0  0  0  0
  5  6  1  0  0  0  0
  5 25  1  0  0  0  0
  5 26  1  0  0  0  0
  6 10  1  0  0  0  0
  6  7  1  0  0  0  0
  7  8  2  0  0  0  0
  7 27  1  0  0  0  0
  8  9  1  0  0  0  0
  8 28  1  0  0  0  0
  9 10  2  0  0  0  0
  9 48  1  0  0  0  0
 10 29  1  0  0  0  0
 11 21  1  0  0  0  0
 11 12  1  0  0  0  0
 12 13  1  0  0  0  0
 12 30  1  0  0  0  0
 12 31  1  0  0  0  0
 13 14  1  0  0  0  0
 13 32  1  0  0  0  0
 13 33  1  0  0  0  0
 14 19  1  0  0  0  0
 14 15  1  0  0  0  0
 14 20  1  0  0  0  0
 15 16  1  0  0  0  0
 15 34  1  0  0  0  0
 15 35  1  0  0  0  0
 16 17  1  0  0  0  0
 16 36  1  0  0  0  0
 16 37  1  0  0  0  0
 17 18  1  0  0  0  0
 17 38  1  0  0  0  0
 17 39  1  0  0  0  0
 18 19  1  0  0  0  0
 18 40  1  0  0  0  0
 18 41  1  0  0  0  0
 19 42  1  0  0  0  0
 19 43  1  0  0  0  0
 20 21  1  0  0  0  0
 20 44  1  0  0  0  0
 20 45  1  0  0  0  0
 21 46  1  0  0  0  0
 21 47  1  0  0  0  0
M  CHG  1   9   1
M  END
> <s_m_source_file>
AV-unprocessed.smi

> <i_m_source_file_index>
1024

> <i_lp_mmshare_version>
43012

> <i_f3d_flags>
0

> <s_epik_input>
W2NIXTFuW2NIXVtjSF1uMVtDSDJdW0NIMl1bTkhdQyg9TylOKFtDSDJdW0NIMl0yKVtDSDJdW0NIMl1DMjNbQ0gyXVtDSDJdW0NIMl1bQ0gyXVtDSDJdMw==

> <s_epik_cmdline>
J2VwaWtfcHl0aG9uJywgJy1waCcsICc3LjAnLCAnLXRuJywgJzgnLCAnLW1hJywgJzIwMCcsICctbWV0YWxfYmluZGluZycsICctaW1hZScsICc8aW5maWxlLm1hZT4nLCAnLW9tYWUnLCAnPG91dGZpbGUubWFlPic=

> <r_lp_tautomer_probability>
1

> <r_epik_Ionization_Penalty>
0.249817

> <r_epik_Ionization_Penalty_Charging>
0

> <r_epik_Ionization_Penalty_Neutral>
0.249817

> <r_epik_State_Penalty>
0.241048

> <r_epik_Charging_Adjusted_Penalty>
0.241048

> <i_epik_Tot_Q>
1

> <i_epik_Tot_abs_Q>
1

> <r_epik_Metal_State_Penalty>
0.532587

> <b_epik_Metal_Only>
0

> <s_lp_Force_Field>
OPLS_2005

> <r_lp_Energy>
44.4362

> <b_lp_Chiralities_Consistent>
1

> <s_lp_Variant>
AV-unprocessed.smi:1024-1

> <Gold.Version>
5.8.1

> <Gold.Id.Protein>
6NUR|6NUR_protein|mol2

> <Gold.PLP.Fitness>
43.1236

> <Gold.PLP.PLP>
-36.4362

> <Gold.PLP.part.hbond>
-3.0000

> <Gold.PLP.part.metal>
0.0000

> <Gold.PLP.part.buried>
0.5824

> <Gold.PLP.part.nonpolar>
-35.7442

> <Gold.PLP.part.repulsive>
1.6421

> <Gold.PLP.ligand.clash>
0.6540

> <Gold.PLP.ligand.torsion>
0.5396

> <Gold.PLP.Chemscore.Hbond>
1.7956

> <Gold.PLP.Chemscore.CHOScore>
0.9997

> <Gold.PLP.Chemscore.Metal>
0.0000

> <Gold.Chemscore.Hbonds>
donor molecule, donor type, donor heavy atom, donor atom, acceptor molecule, acceptor atom, score
      L1  H     9    48       P1 10747  0.28
      P1  H  7954  7966       L1     1  0.90
      L1  C    10    29       P1  7948  0.15

> <Gold.PLP.Chemscore.Internal.Correction>
0.0348

> <Gold.Rescore>
     Score         DG    S(hbond)    S(metal)    S(lipo)     H(rot)  DE(clash)    DE(int)     intcor
     13.48     -16.48       1.71        0.00      79.73       1.57       2.40       0.60       ----

> <Gold.Chemscore.Fitness>
13.4789

> <Gold.Chemscore.DG>
-16.4787

> <Gold.Chemscore.ZeroCoef>
-5.4800

> <Gold.Chemscore.Hbond>
1.7072

> <Gold.Chemscore.Metal>
0.0000

> <Gold.Chemscore.Lipo>
79.7272

> <Gold.Chemscore.Internal_Hbond>
0.0000

> <Gold.Chemscore.DEClash>
2.3958

> <Gold.Chemscore.DEInternal>
0.6040

> <Gold.Chemscore.Rot>
1.5747

> <Gold.Chemscore.Internal.Correction>
   9.000000E+99

> <Gold.Chemscore.Hbonds>
donor molecule, donor type, donor heavy atom, donor atom, acceptor molecule, acceptor atom, score
      L1  H     9    48       P1 10747  0.29
      P1  H  7954  7966       L1     1  0.80

> <Gold.Chemscore.Hbond.Weighted>
-5.7019

> <Gold.Chemscore.Metal.Weighted>
-0.0000

> <Gold.Chemscore.Lipo.Weighted>
-9.3281

> <Gold.Chemscore.Internal_Hbond.Weighted>
0.0000

> <Gold.Chemscore.DEClash.Weighted>
2.3958

> <Gold.Chemscore.DEInternal.Weighted>
0.6040

> <Gold.Chemscore.Rot.Weighted>
4.0313

> <Gold.Chemscore.Internal.Correction.Weighted>
   9.000000E+99

> <Gold.Protein.RotatedTorsions>
[ 6907 6896 6895 6894 ] final   81.33 input  -60.11 | X-H torsion
[ 7974 7965 7964 7962 ] final  135.66 input  175.53 | X-H torsion
[ 8008 7997 7996 7995 ] final  -63.28 input   59.86 | X-H torsion
[ 10167 10162 10161 10158 ] final  -19.86 input  -65.29 | X-H torsion
[ 10718 10713 10712 10709 ] final   59.34 input   66.30 | X-H torsion
[ 10763 10752 10751 10750 ] final -150.12 input  -60.55 | X-H torsion
[ 11005 11000 10999 10996 ] final   39.19 input  -57.11 | X-H torsion

> <Gold.Protein.ActiveResidues>
 VAL166  LYS551  ARG553  GLY616  TRP617  ASP618  TYR619  PRO620  LYS621  CYS622 
 ASP623  PHE694  ASN695  SER759  ASP760  ASP761  ALA762  ILE779  LEU786  VAL792 
 PHE793  MET794  SER795  GLU796  ALA797  LYS798  CYS799  TRP800  GLU811  SER814 

> <Gold.Protein.RotatedAtoms>
  152.5265  134.3220  159.9151 H   0  0  0  0  0  0  0  0  0  0  0  0  # atno 6907 bound_to 6896
  151.3170  133.4050  159.2659 H   0  0  0  0  0  0  0  0  0  0  0  0  # atno 6908 bound_to 6896
  150.9991  134.9324  159.8001 H   0  0  0  0  0  0  0  0  0  0  0  0  # atno 6909 bound_to 6896
  144.9641  139.4677  143.5465 H   0  0  0  0  0  0  0  0  0  0  0  0  # atno 7974 bound_to 7965
  154.4546  140.0978  156.6719 H   0  0  0  0  0  0  0  0  0  0  0  0  # atno 8008 bound_to 7997
  155.5179  140.3478  155.4382 H   0  0  0  0  0  0  0  0  0  0  0  0  # atno 8009 bound_to 7997
  156.0751  140.1359  156.9770 H   0  0  0  0  0  0  0  0  0  0  0  0  # atno 8010 bound_to 7997
  140.7272  143.4778  151.0158 H   0  0  0  0  0  0  0  0  0  0  0  0  # atno 10167 bound_to 10162
  157.5668  130.8877  149.9200 H   0  0  0  0  0  0  0  0  0  0  0  0  # atno 10718 bound_to 10713
  154.8137  135.3292  154.7234 H   0  0  0  0  0  0  0  0  0  0  0  0  # atno 10763 bound_to 10752
  153.7879  135.6913  153.4881 H   0  0  0  0  0  0  0  0  0  0  0  0  # atno 10764 bound_to 10752
  153.1936  135.4542  155.0127 H   0  0  0  0  0  0  0  0  0  0  0  0  # atno 10765 bound_to 10752
  140.2052  134.3822  155.8076 H   0  0  0  0  0  0  0  0  0  0  0  0  # atno 11005 bound_to 11000
  146.3362  139.8810  142.8824 LP  0  0  0  0  0  0  0  0  0  0  0  0  # atno 17320 bound_to 7965
  145.2656  141.0091  143.3801 LP  0  0  0  0  0  0  0  0  0  0  0  0  # atno 17321 bound_to 7965
  139.8475  143.7482  152.3179 LP  0  0  0  0  0  0  0  0  0  0  0  0  # atno 17342 bound_to 10162
  139.7653  144.7494  151.0304 LP  0  0  0  0  0  0  0  0  0  0  0  0  # atno 17343 bound_to 10162
  156.0715  130.3684  150.0765 LP  0  0  0  0  0  0  0  0  0  0  0  0  # atno 17370 bound_to 10713
  156.8923  130.9592  151.3587 LP  0  0  0  0  0  0  0  0  0  0  0  0  # atno 17371 bound_to 10713
  141.2227  133.7114  156.8325 LP  0  0  0  0  0  0  0  0  0  0  0  0  # atno 17394 bound_to 11000
  140.2011  134.8896  157.3169 LP  0  0  0  0  0  0  0  0  0  0  0  0  # atno 17395 bound_to 11000

$$$$
