AV-unprocessed.smi:893|AV-procd|sdf|4067|dock4
  -GOLD-   22720 1553D 1   1.00000     0.00000
 Structure written by MMmdl.
 27 28  0  0  0  0  0  0  0  0  1 V2000
  149.6327  138.3757  157.9263 C   0  0  0  0  0  0  0  0  0  0  0  0
  150.3029  139.6289  158.5112 C   0  0  0  0  0  0  0  0  0  0  0  0
  150.9192  140.5685  157.4475 C   0  0  2  0  0  0  0  0  0  0  0  0
  151.5762  141.7934  158.0570 C   0  0  0  0  0  0  0  0  0  0  0  0
  152.6633  141.8519  158.9792 C   0  0  0  0  0  0  0  0  0  0  0  0
  152.9965  143.0876  159.3127 N   0  0  0  0  0  0  0  0  0  0  0  0
  152.1397  143.8636  158.6202 N   0  0  0  0  0  0  0  0  0  0  0  0
  152.2170  145.3030  158.7490 C   0  0  0  0  0  0  0  0  0  0  0  0
  151.2750  143.1131  157.8543 C   0  0  0  0  0  0  0  0  0  0  0  0
  149.9453  140.9109  156.4198 N   0  0  0  0  0  0  0  0  0  0  0  0
  150.3160  140.5138  155.1950 C   0  0  0  0  0  0  0  0  0  0  0  0
  149.6857  140.6926  154.1558 O   0  0  0  0  0  0  0  0  0  0  0  0
  151.4886  139.8829  155.3062 N   0  0  0  0  0  0  0  0  0  0  0  0
  151.9240  139.8368  156.5642 C   0  0  0  0  0  0  0  0  0  0  0  0
  152.9560  139.3003  156.9653 O   0  0  0  0  0  0  0  0  0  0  0  0
  149.2211  137.7530  158.7207 H   0  0  0  0  0  0  0  0  0  0  0  0
  150.3442  137.7678  157.3673 H   0  0  0  0  0  0  0  0  0  0  0  0
  148.8137  138.6361  157.2557 H   0  0  0  0  0  0  0  0  0  0  0  0
  149.5671  140.1755  159.1028 H   0  0  0  0  0  0  0  0  0  0  0  0
  151.0737  139.3125  159.2161 H   0  0  0  0  0  0  0  0  0  0  0  0
  153.2191  141.0346  159.4147 H   0  0  0  0  0  0  0  0  0  0  0  0
  151.4273  145.7746  158.1632 H   0  0  0  0  0  0  0  0  0  0  0  0
  153.1843  145.6543  158.3887 H   0  0  0  0  0  0  0  0  0  0  0  0
  152.0992  145.5871  159.7953 H   0  0  0  0  0  0  0  0  0  0  0  0
  150.5199  143.5728  157.2336 H   0  0  0  0  0  0  0  0  0  0  0  0
  149.0913  141.4104  156.6214 H   0  0  0  0  0  0  0  0  0  0  0  0
  151.9827  139.4757  154.5256 H   0  0  0  0  0  0  0  0  0  0  0  0
  1  2  1  0  0  0  0
  1 16  1  0  0  0  0
  1 17  1  0  0  0  0
  1 18  1  0  0  0  0
  2  3  1  0  0  0  0
  2 19  1  0  0  0  0
  2 20  1  0  0  0  0
  3 14  1  0  0  0  0
  3  4  1  0  0  0  0
  3 10  1  0  0  0  0
  4  9  2  0  0  0  0
  4  5  1  0  0  0  0
  5  6  2  0  0  0  0
  5 21  1  0  0  0  0
  6  7  1  0  0  0  0
  7  8  1  0  0  0  0
  7  9  1  0  0  0  0
  8 22  1  0  0  0  0
  8 23  1  0  0  0  0
  8 24  1  0  0  0  0
  9 25  1  0  0  0  0
 10 11  1  0  0  0  0
 10 26  1  0  0  0  0
 11 12  2  0  0  0  0
 11 13  1  0  0  0  0
 13 14  1  0  0  0  0
 13 27  1  0  0  0  0
 14 15  2  0  0  0  0
M  END
> <s_m_source_file>
AV-unprocessed.smi

> <i_m_source_file_index>
893

> <i_lp_mmshare_version>
43012

> <i_f3d_flags>
0

> <s_epik_input>
Tz1DMVtOSF1DKD1PKVtOSF1bQ0BAXTEoW0NIMl1bQ0gzXSljMltjSF1ubihbQ0gzXSlbY0hdMg==

> <s_epik_cmdline>
J2VwaWtfcHl0aG9uJywgJy1waCcsICc3LjAnLCAnLXRuJywgJzgnLCAnLW1hJywgJzIwMCcsICctbWV0YWxfYmluZGluZycsICctaW1hZScsICc8aW5maWxlLm1hZT4nLCAnLW9tYWUnLCAnPG91dGZpbGUubWFlPic=

> <r_lp_tautomer_probability>
1

> <r_epik_Ionization_Penalty>
0.0236181

> <r_epik_Ionization_Penalty_Charging>
0

> <r_epik_Ionization_Penalty_Neutral>
0.0236181

> <r_epik_State_Penalty>
0.0189572

> <r_epik_Charging_Adjusted_Penalty>
0.0189572

> <i_epik_Tot_Q>
0

> <i_epik_Tot_abs_Q>
0

> <r_epik_Metal_State_Penalty>
0.411796

> <b_epik_Metal_Only>
0

> <s_lp_Force_Field>
OPLS_2005

> <r_lp_Energy>
15.567

> <b_lp_Chiralities_Consistent>
1

> <s_lp_Variant>
AV-unprocessed.smi:893-2

> <Gold.Version>
5.8.1

> <Gold.Id.Protein>
6NUR|6NUR_protein|mol2

> <Gold.PLP.Fitness>
33.6769

> <Gold.PLP.PLP>
-27.7032

> <Gold.PLP.part.hbond>
-2.0000

> <Gold.PLP.part.metal>
0.0000

> <Gold.PLP.part.buried>
-4.8849

> <Gold.PLP.part.nonpolar>
-21.6289

> <Gold.PLP.part.repulsive>
1.6565

> <Gold.PLP.ligand.clash>
0.0000

> <Gold.PLP.ligand.torsion>
0.0882

> <Gold.PLP.Chemscore.Hbond>
1.0000

> <Gold.PLP.Chemscore.CHOScore>
0.9928

> <Gold.PLP.Chemscore.Metal>
0.0000

> <Gold.Chemscore.Hbonds>
donor molecule, donor type, donor heavy atom, donor atom, acceptor molecule, acceptor atom, score
      P1  H  7997  8010       L1    15  1.00
      L1  C     9    25       P1  8028  1.00

> <Gold.PLP.Chemscore.Internal.Correction>
0.1718

> <Gold.Rescore>
     Score         DG    S(hbond)    S(metal)    S(lipo)     H(rot)  DE(clash)    DE(int)     intcor
     11.62     -13.05       1.49        0.00      50.60       1.30       1.31       0.12       ----

> <Gold.Chemscore.Fitness>
11.6218

> <Gold.Chemscore.DG>
-13.0524

> <Gold.Chemscore.ZeroCoef>
-5.4800

> <Gold.Chemscore.Hbond>
1.4875

> <Gold.Chemscore.Metal>
0.0000

> <Gold.Chemscore.Lipo>
50.6024

> <Gold.Chemscore.Internal_Hbond>
0.0000

> <Gold.Chemscore.DEClash>
1.3141

> <Gold.Chemscore.DEInternal>
0.1165

> <Gold.Chemscore.Rot>
1.2955

> <Gold.Chemscore.Internal.Correction>
   9.000000E+99

> <Gold.Chemscore.Hbonds>
donor molecule, donor type, donor heavy atom, donor atom, acceptor molecule, acceptor atom, score
      P1  H  7997  8010       L1    15  0.98
      P1  H  8011  8017       L1    12  0.01

> <Gold.Chemscore.Hbond.Weighted>
-4.9683

> <Gold.Chemscore.Metal.Weighted>
-0.0000

> <Gold.Chemscore.Lipo.Weighted>
-5.9205

> <Gold.Chemscore.Internal_Hbond.Weighted>
0.0000

> <Gold.Chemscore.DEClash.Weighted>
1.3141

> <Gold.Chemscore.DEInternal.Weighted>
0.1165

> <Gold.Chemscore.Rot.Weighted>
3.3164

> <Gold.Chemscore.Internal.Correction.Weighted>
   9.000000E+99

> <Gold.Protein.RotatedTorsions>
[ 6907 6896 6895 6894 ] final   76.22 input  -60.11 | X-H torsion
[ 7974 7965 7964 7962 ] final -159.78 input  175.53 | X-H torsion
[ 8008 7997 7996 7995 ] final   49.51 input   59.86 | X-H torsion
[ 10167 10162 10161 10158 ] final -106.77 input  -65.29 | X-H torsion
[ 10718 10713 10712 10709 ] final -168.15 input   66.30 | X-H torsion
[ 10763 10752 10751 10750 ] final   36.37 input  -60.55 | X-H torsion
[ 11005 11000 10999 10996 ] final  -94.58 input  -57.11 | X-H torsion

> <Gold.Protein.ActiveResidues>
 VAL166  LYS551  ARG553  GLY616  TRP617  ASP618  TYR619  PRO620  LYS621  CYS622 
 ASP623  PHE694  ASN695  SER759  ASP760  ASP761  ALA762  ILE779  LEU786  VAL792 
 PHE793  MET794  SER795  GLU796  ALA797  LYS798  CYS799  TRP800  GLU811  SER814 

> <Gold.Protein.RotatedAtoms>
  152.5063  134.4002  159.9413 H   0  0  0  0  0  0  0  0  0  0  0  0  # atno 6907 bound_to 6896
  151.3966  133.3765  159.2735 H   0  0  0  0  0  0  0  0  0  0  0  0  # atno 6908 bound_to 6896
  150.9393  134.8824  159.7661 H   0  0  0  0  0  0  0  0  0  0  0  0  # atno 6909 bound_to 6896
  144.7452  140.3636  143.6091 H   0  0  0  0  0  0  0  0  0  0  0  0  # atno 7974 bound_to 7965
  155.4034  140.3439  155.4258 H   0  0  0  0  0  0  0  0  0  0  0  0  # atno 8008 bound_to 7997
  156.1490  140.1565  156.8832 H   0  0  0  0  0  0  0  0  0  0  0  0  # atno 8009 bound_to 7997
  154.5036  140.0808  156.7830 H   0  0  0  0  0  0  0  0  0  0  0  0  # atno 8010 bound_to 7997
  140.1841  143.3943  152.1258 H   0  0  0  0  0  0  0  0  0  0  0  0  # atno 10167 bound_to 10162
  156.6928  130.9166  151.3071 H   0  0  0  0  0  0  0  0  0  0  0  0  # atno 10718 bound_to 10713
  153.0080  135.6307  154.1975 H   0  0  0  0  0  0  0  0  0  0  0  0  # atno 10763 bound_to 10752
  154.1718  135.2818  155.3080 H   0  0  0  0  0  0  0  0  0  0  0  0  # atno 10764 bound_to 10752
  154.5902  135.5620  153.7331 H   0  0  0  0  0  0  0  0  0  0  0  0  # atno 10765 bound_to 10752
  141.1466  133.7966  157.0317 H   0  0  0  0  0  0  0  0  0  0  0  0  # atno 11005 bound_to 11000
  145.7151  139.1695  143.2516 LP  0  0  0  0  0  0  0  0  0  0  0  0  # atno 17320 bound_to 7965
  146.1318  140.7175  142.9408 LP  0  0  0  0  0  0  0  0  0  0  0  0  # atno 17321 bound_to 7965
  139.5283  144.7129  151.5147 LP  0  0  0  0  0  0  0  0  0  0  0  0  # atno 17342 bound_to 10162
  140.6500  143.8717  150.6775 LP  0  0  0  0  0  0  0  0  0  0  0  0  # atno 17343 bound_to 10162
  157.7002  130.9325  150.0764 LP  0  0  0  0  0  0  0  0  0  0  0  0  # atno 17370 bound_to 10713
  156.1785  130.3649  149.9067 LP  0  0  0  0  0  0  0  0  0  0  0  0  # atno 17371 bound_to 10713
  140.0749  134.9681  157.1530 LP  0  0  0  0  0  0  0  0  0  0  0  0  # atno 17394 bound_to 11000
  140.3657  134.2445  155.7182 LP  0  0  0  0  0  0  0  0  0  0  0  0  # atno 17395 bound_to 11000

$$$$
