AV-unprocessed.smi:2089|AV-procd|sdf|8530|dock4
  -GOLD-   2272011253D 1   1.00000     0.00000
 Structure written by MMmdl.
 40 41  0  0  0  0  0  0  0  0  2 V2000
  146.4106  138.4711  152.3542 C   0  0  0  0  0  0  0  0  0  0  0  0
  146.5281  138.1841  154.1669 S   0  0  0  0  0  0  0  0  0  0  0  0
  145.2027  137.7736  154.6556 O   0  0  0  0  0  0  0  0  0  0  0  0
  147.7045  137.3473  154.4479 O   0  0  0  0  0  0  0  0  0  0  0  0
  146.8451  139.7675  154.7889 N   0  0  0  0  0  0  0  0  0  0  0  0
  145.7087  140.6214  155.1606 C   0  0  0  0  0  0  0  0  0  0  0  0
  146.2231  142.0557  155.0677 C   0  0  0  0  0  0  0  0  0  0  0  0
  147.2678  141.9726  153.9639 C   0  0  0  0  0  0  0  0  0  0  0  0
  147.8928  140.5780  154.1459 C   0  0  1  0  0  0  0  0  0  0  0  0
  149.2031  140.5904  154.9462 C   0  0  0  0  0  0  0  0  0  0  0  0
  150.2745  140.3036  154.4112 O   0  0  0  0  0  0  0  0  0  0  0  0
  149.1026  140.9434  156.2355 N   0  0  0  0  0  0  0  0  0  0  0  0
  150.2285  141.0449  157.1520 C   0  0  0  0  0  0  0  0  0  0  0  0
  151.1141  142.2445  156.7888 C   0  0  0  0  0  0  0  0  0  0  0  0
  151.4508  143.0947  157.9986 C   0  0  0  0  0  0  0  0  0  0  0  0
  152.3290  142.6489  159.0104 C   0  0  0  0  0  0  0  0  0  0  0  0
  152.6049  143.4951  160.1049 C   0  0  0  0  0  0  0  0  0  0  0  0
  151.9993  144.7676  160.1639 C   0  0  0  0  0  0  0  0  0  0  0  0
  151.1313  145.1623  159.1255 C   0  0  0  0  0  0  0  0  0  0  0  0
  150.8912  144.3228  158.0942 N   0  3  0  0  0  0  0  0  0  0  0  0
  146.1688  137.5332  151.8550 H   0  0  0  0  0  0  0  0  0  0  0  0
  147.3633  138.8429  151.9780 H   0  0  0  0  0  0  0  0  0  0  0  0
  145.6286  139.2021  152.1508 H   0  0  0  0  0  0  0  0  0  0  0  0
  144.8937  140.4704  154.4517 H   0  0  0  0  0  0  0  0  0  0  0  0
  145.3452  140.3731  156.1579 H   0  0  0  0  0  0  0  0  0  0  0  0
  145.4334  142.7756  154.8514 H   0  0  0  0  0  0  0  0  0  0  0  0
  146.6948  142.3445  156.0080 H   0  0  0  0  0  0  0  0  0  0  0  0
  146.7798  142.0296  152.9899 H   0  0  0  0  0  0  0  0  0  0  0  0
  147.9875  142.7911  154.0120 H   0  0  0  0  0  0  0  0  0  0  0  0
  148.1063  140.1708  153.1558 H   0  0  0  0  0  0  0  0  0  0  0  0
  148.1879  141.1757  156.5960 H   0  0  0  0  0  0  0  0  0  0  0  0
  149.8544  141.1476  158.1719 H   0  0  0  0  0  0  0  0  0  0  0  0
  150.8113  140.1231  157.1118 H   0  0  0  0  0  0  0  0  0  0  0  0
  152.0426  141.8999  156.3305 H   0  0  0  0  0  0  0  0  0  0  0  0
  150.6148  142.8654  156.0435 H   0  0  0  0  0  0  0  0  0  0  0  0
  152.7881  141.6728  158.9501 H   0  0  0  0  0  0  0  0  0  0  0  0
  153.2741  143.1723  160.8890 H   0  0  0  0  0  0  0  0  0  0  0  0
  152.1982  145.4307  160.9933 H   0  0  0  0  0  0  0  0  0  0  0  0
  150.6260  146.1164  159.0882 H   0  0  0  0  0  0  0  0  0  0  0  0
  150.2604  144.6299  157.3534 H   0  0  0  0  0  0  0  0  0  0  0  0
  1  2  1  0  0  0  0
  1 21  1  0  0  0  0
  1 22  1  0  0  0  0
  1 23  1  0  0  0  0
  2  3  2  0  0  0  0
  2  4  2  0  0  0  0
  2  5  1  0  0  0  0
  5  9  1  0  0  0  0
  5  6  1  0  0  0  0
  6  7  1  0  0  0  0
  6 24  1  0  0  0  0
  6 25  1  0  0  0  0
  7  8  1  0  0  0  0
  7 26  1  0  0  0  0
  7 27  1  0  0  0  0
  8  9  1  0  0  0  0
  8 28  1  0  0  0  0
  8 29  1  0  0  0  0
  9 10  1  0  0  0  0
  9 30  1  0  0  0  0
 10 11  2  0  0  0  0
 10 12  1  0  0  0  0
 12 13  1  0  0  0  0
 12 31  1  0  0  0  0
 13 14  1  0  0  0  0
 13 32  1  0  0  0  0
 13 33  1  0  0  0  0
 14 15  1  0  0  0  0
 14 34  1  0  0  0  0
 14 35  1  0  0  0  0
 15 20  1  0  0  0  0
 15 16  2  0  0  0  0
 16 17  1  0  0  0  0
 16 36  1  0  0  0  0
 17 18  2  0  0  0  0
 17 37  1  0  0  0  0
 18 19  1  0  0  0  0
 18 38  1  0  0  0  0
 19 20  2  0  0  0  0
 19 39  1  0  0  0  0
 20 40  1  0  0  0  0
M  CHG  1  20   1
M  END
> <s_m_source_file>
AV-unprocessed.smi

> <i_m_source_file_index>
2089

> <i_lp_mmshare_version>
43012

> <i_f3d_flags>
0

> <s_epik_input>
W0NIM11TKD1PKSg9TylOMVtDSDJdW0NIMl1bQ0gyXVtDQEhdMUMoPU8pW05IXVtDSDJdW0NIMl1jMltjSF1bY0hdW2NIXVtjSF1uMg==

> <s_epik_cmdline>
J2VwaWtfcHl0aG9uJywgJy1waCcsICc3LjAnLCAnLXRuJywgJzgnLCAnLW1hJywgJzIwMCcsICctbWV0YWxfYmluZGluZycsICctaW1hZScsICc8aW5maWxlLm1hZT4nLCAnLW9tYWUnLCAnPG91dGZpbGUubWFlPic=

> <r_epik_Ionization_Penalty>
1.90116

> <r_epik_Ionization_Penalty_Charging>
1.90116

> <r_epik_Ionization_Penalty_Neutral>
1.4017e-07

> <r_epik_State_Penalty>
2.02245

> <r_epik_Charging_Adjusted_Penalty>
3.9236

> <i_epik_Tot_Q>
1

> <i_epik_Tot_abs_Q>
1

> <r_epik_Metal_State_Penalty>
2.04621

> <b_epik_Metal_Only>
0

> <s_lp_Force_Field>
OPLS_2005

> <r_lp_Energy>
11.7086

> <b_lp_Chiralities_Consistent>
1

> <s_lp_Variant>
AV-unprocessed.smi:2089-3

> <Gold.Version>
5.8.1

> <Gold.Id.Protein>
6NUR|6NUR_protein|mol2

> <Gold.PLP.Fitness>
45.5687

> <Gold.PLP.PLP>
-38.7035

> <Gold.PLP.part.hbond>
-2.0000

> <Gold.PLP.part.metal>
0.0000

> <Gold.PLP.part.buried>
-6.7317

> <Gold.PLP.part.nonpolar>
-32.1184

> <Gold.PLP.part.repulsive>
1.0634

> <Gold.PLP.ligand.clash>
0.0000

> <Gold.PLP.ligand.torsion>
1.3393

> <Gold.PLP.Chemscore.Hbond>
3.0000

> <Gold.PLP.Chemscore.CHOScore>
0.0000

> <Gold.PLP.Chemscore.Metal>
0.0000

> <Gold.Chemscore.Hbonds>
donor molecule, donor type, donor heavy atom, donor atom, acceptor molecule, acceptor atom, score
      L1  H    20    40       P1  8028  1.43
      P1  H  7989  7998       L1    11  1.00

> <Gold.PLP.Chemscore.Internal.Correction>
0.5439

> <Gold.Rescore>
     Score         DG    S(hbond)    S(metal)    S(lipo)     H(rot)  DE(clash)    DE(int)     intcor
     16.51     -17.94       1.74        0.00     100.75       2.00       0.53       0.90       ----

> <Gold.Chemscore.Fitness>
16.5149

> <Gold.Chemscore.DG>
-17.9432

> <Gold.Chemscore.ZeroCoef>
-5.4800

> <Gold.Chemscore.Hbond>
1.7383

> <Gold.Chemscore.Metal>
0.0000

> <Gold.Chemscore.Lipo>
100.7532

> <Gold.Chemscore.Internal_Hbond>
0.0000

> <Gold.Chemscore.DEClash>
0.5307

> <Gold.Chemscore.DEInternal>
0.8976

> <Gold.Chemscore.Rot>
2.0043

> <Gold.Chemscore.Internal.Correction>
   9.000000E+99

> <Gold.Chemscore.Hbonds>
donor molecule, donor type, donor heavy atom, donor atom, acceptor molecule, acceptor atom, score
      L1  H    20    40       P1  8028  0.25
      P1  H  7989  7998       L1    11  0.95

> <Gold.Chemscore.Hbond.Weighted>
-5.8059

> <Gold.Chemscore.Metal.Weighted>
-0.0000

> <Gold.Chemscore.Lipo.Weighted>
-11.7881

> <Gold.Chemscore.Internal_Hbond.Weighted>
0.0000

> <Gold.Chemscore.DEClash.Weighted>
0.5307

> <Gold.Chemscore.DEInternal.Weighted>
0.8976

> <Gold.Chemscore.Rot.Weighted>
5.1309

> <Gold.Chemscore.Internal.Correction.Weighted>
   9.000000E+99

> <Gold.Protein.RotatedTorsions>
[ 6907 6896 6895 6894 ] final   69.59 input  -60.11 | X-H torsion
[ 7974 7965 7964 7962 ] final -178.51 input  175.53 | X-H torsion
[ 8008 7997 7996 7995 ] final   35.41 input   59.86 | X-H torsion
[ 10167 10162 10161 10158 ] final -118.70 input  -65.29 | X-H torsion
[ 10718 10713 10712 10709 ] final  -91.06 input   66.30 | X-H torsion
[ 10763 10752 10751 10750 ] final  116.57 input  -60.55 | X-H torsion
[ 11005 11000 10999 10996 ] final -121.34 input  -57.11 | X-H torsion

> <Gold.Protein.ActiveResidues>
 VAL166  LYS551  ARG553  GLY616  TRP617  ASP618  TYR619  PRO620  LYS621  CYS622 
 ASP623  PHE694  ASN695  SER759  ASP760  ASP761  ALA762  ILE779  LEU786  VAL792 
 PHE793  MET794  SER795  GLU796  ALA797  LYS798  CYS799  TRP800  GLU811  SER814 

> <Gold.Protein.RotatedAtoms>
  152.4696  134.4994  159.9719 H   0  0  0  0  0  0  0  0  0  0  0  0  # atno 6907 bound_to 6896
  151.5023  133.3496  159.2879 H   0  0  0  0  0  0  0  0  0  0  0  0  # atno 6908 bound_to 6896
  150.8698  134.8097  159.7208 H   0  0  0  0  0  0  0  0  0  0  0  0  # atno 6909 bound_to 6896
  144.7131  140.0857  143.6423 H   0  0  0  0  0  0  0  0  0  0  0  0  # atno 7974 bound_to 7965
  155.1707  140.3291  155.4393 H   0  0  0  0  0  0  0  0  0  0  0  0  # atno 8008 bound_to 7997
  156.2511  140.1944  156.6761 H   0  0  0  0  0  0  0  0  0  0  0  0  # atno 8009 bound_to 7997
  154.6339  140.0579  156.9752 H   0  0  0  0  0  0  0  0  0  0  0  0  # atno 8010 bound_to 7997
  140.0546  143.5026  152.2064 H   0  0  0  0  0  0  0  0  0  0  0  0  # atno 10167 bound_to 10162
  155.9991  130.4933  150.5417 H   0  0  0  0  0  0  0  0  0  0  0  0  # atno 10718 bound_to 10713
  153.5392  135.3562  155.2710 H   0  0  0  0  0  0  0  0  0  0  0  0  # atno 10763 bound_to 10752
  154.8719  135.4087  154.3063 H   0  0  0  0  0  0  0  0  0  0  0  0  # atno 10764 bound_to 10752
  153.3767  135.7066  153.6664 H   0  0  0  0  0  0  0  0  0  0  0  0  # atno 10765 bound_to 10752
  141.0077  134.0310  157.3455 H   0  0  0  0  0  0  0  0  0  0  0  0  # atno 11005 bound_to 11000
  145.9663  139.2837  143.1125 LP  0  0  0  0  0  0  0  0  0  0  0  0  # atno 17320 bound_to 7965
  145.9165  140.9144  143.0427 LP  0  0  0  0  0  0  0  0  0  0  0  0  # atno 17321 bound_to 7965
  139.5931  144.7557  151.3351 LP  0  0  0  0  0  0  0  0  0  0  0  0  # atno 17342 bound_to 10162
  140.7200  143.7160  150.7732 LP  0  0  0  0  0  0  0  0  0  0  0  0  # atno 17343 bound_to 10162
  157.3352  131.0707  151.1830 LP  0  0  0  0  0  0  0  0  0  0  0  0  # atno 17370 bound_to 10713
  157.2697  130.6698  149.6013 LP  0  0  0  0  0  0  0  0  0  0  0  0  # atno 17371 bound_to 10713
  139.9072  135.0182  156.7539 LP  0  0  0  0  0  0  0  0  0  0  0  0  # atno 17394 bound_to 11000
  140.6785  133.9496  155.7896 LP  0  0  0  0  0  0  0  0  0  0  0  0  # atno 17395 bound_to 11000

$$$$
