AV-unprocessed.smi:2845|AV-procd|sdf|10949|dock5
  -GOLD-   2272015403D 1   1.00000     0.00000
 Structure written by MMmdl.
 43 45  0  0  0  0  0  0  0  0  2 V2000
  151.6721  144.6759  160.7765 C   0  0  0  0  0  0  0  0  0  0  0  0
  151.6120  143.4890  159.8302 C   0  0  0  0  0  0  0  0  0  0  0  0
  151.0043  143.6639  158.5664 C   0  0  0  0  0  0  0  0  0  0  0  0
  150.9629  142.5592  157.7239 C   0  0  0  0  0  0  0  0  0  0  0  0
  150.4379  142.4090  156.4387 N   0  3  0  0  0  0  0  0  0  0  0  0
  150.6332  141.1297  156.0146 C   0  0  0  0  0  0  0  0  0  0  0  0
  151.2769  140.4608  157.0092 N   0  0  0  0  0  0  0  0  0  0  0  0
  151.7244  139.0613  157.0622 C   0  0  0  0  0  0  0  0  0  0  0  0
  150.5582  138.0599  157.1730 C   0  0  2  0  0  0  0  0  0  0  0  0
  149.7945  138.0725  155.9814 O   0  0  0  0  0  0  0  0  0  0  0  0
  149.6505  138.3715  158.3785 C   0  0  0  0  0  0  0  0  0  0  0  0
  148.8781  137.2192  158.8073 N   0  0  0  0  0  0  0  0  0  0  0  0
  148.8325  135.9755  158.3206 C   0  0  0  0  0  0  0  0  0  0  0  0
  147.9928  135.1749  158.9640 N   0  0  0  0  0  0  0  0  0  0  0  0
  147.5323  136.0564  159.8980 C   0  0  0  0  0  0  0  0  0  0  0  0
  146.2890  135.5666  161.1337 S   0  0  2  0  0  0  0  0  0  0  0  0
  147.1428  136.3654  162.5733 C   0  0  0  0  0  0  0  0  0  0  0  0
  146.4406  134.0540  161.3073 O   0  0  0  0  0  0  0  0  0  0  0  0
  148.0233  137.2934  159.8548 N   0  0  0  0  0  0  0  0  0  0  0  0
  151.5022  141.3129  158.0974 C   0  0  0  0  0  0  0  0  0  0  0  0
  152.1038  141.1238  159.3396 C   0  0  0  0  0  0  0  0  0  0  0  0
  152.1533  142.2342  160.2122 C   0  0  0  0  0  0  0  0  0  0  0  0
  152.7995  142.0552  161.5755 C   0  0  0  0  0  0  0  0  0  0  0  0
  151.2357  145.5680  160.3263 H   0  0  0  0  0  0  0  0  0  0  0  0
  152.7053  144.9067  161.0369 H   0  0  0  0  0  0  0  0  0  0  0  0
  151.1225  144.4621  161.6935 H   0  0  0  0  0  0  0  0  0  0  0  0
  150.5883  144.6156  158.2694 H   0  0  0  0  0  0  0  0  0  0  0  0
  150.3326  140.7205  155.0609 H   0  0  0  0  0  0  0  0  0  0  0  0
  152.2876  138.8721  156.1476 H   0  0  0  0  0  0  0  0  0  0  0  0
  152.4308  138.9405  157.8838 H   0  0  0  0  0  0  0  0  0  0  0  0
  150.9670  137.0554  157.2900 H   0  0  0  0  0  0  0  0  0  0  0  0
  149.3689  137.2334  155.8890 H   0  0  0  0  0  0  0  0  0  0  0  0
  150.2533  138.7054  159.2240 H   0  0  0  0  0  0  0  0  0  0  0  0
  148.9658  139.1879  158.1427 H   0  0  0  0  0  0  0  0  0  0  0  0
  149.4226  135.6510  157.4760 H   0  0  0  0  0  0  0  0  0  0  0  0
  147.6749  137.2645  162.2618 H   0  0  0  0  0  0  0  0  0  0  0  0
  147.8592  135.6743  163.0173 H   0  0  0  0  0  0  0  0  0  0  0  0
  146.4131  136.6440  163.3331 H   0  0  0  0  0  0  0  0  0  0  0  0
  152.5104  140.1676  159.6339 H   0  0  0  0  0  0  0  0  0  0  0  0
  153.1457  141.0315  161.7222 H   0  0  0  0  0  0  0  0  0  0  0  0
  152.0879  142.2822  162.3696 H   0  0  0  0  0  0  0  0  0  0  0  0
  153.6600  142.7163  161.6809 H   0  0  0  0  0  0  0  0  0  0  0  0
  149.9790  143.1247  155.8899 H   0  0  0  0  0  0  0  0  0  0  0  0
  1  2  1  0  0  0  0
  1 24  1  0  0  0  0
  1 25  1  0  0  0  0
  1 26  1  0  0  0  0
  2 22  1  0  0  0  0
  2  3  2  0  0  0  0
  3  4  1  0  0  0  0
  3 27  1  0  0  0  0
  4 20  2  0  0  0  0
  4  5  1  0  0  0  0
  5  6  2  0  0  0  0
  5 43  1  0  0  0  0
  6  7  1  0  0  0  0
  6 28  1  0  0  0  0
  7  8  1  0  0  0  0
  7 20  1  0  0  0  0
  8  9  1  0  0  0  0
  8 29  1  0  0  0  0
  8 30  1  0  0  0  0
  9 10  1  0  0  0  0
  9 11  1  0  0  0  0
  9 31  1  0  0  0  0
 10 32  1  0  0  0  0
 11 12  1  0  0  0  0
 11 33  1  0  0  0  0
 11 34  1  0  0  0  0
 12 19  1  0  0  0  0
 12 13  1  0  0  0  0
 13 14  2  0  0  0  0
 13 35  1  0  0  0  0
 14 15  1  0  0  0  0
 15 16  1  0  0  0  0
 15 19  2  0  0  0  0
 16 17  1  0  0  0  0
 16 18  2  0  0  0  0
 17 36  1  0  0  0  0
 17 37  1  0  0  0  0
 17 38  1  0  0  0  0
 20 21  1  0  0  0  0
 21 22  2  0  0  0  0
 21 39  1  0  0  0  0
 22 23  1  0  0  0  0
 23 40  1  0  0  0  0
 23 41  1  0  0  0  0
 23 42  1  0  0  0  0
M  CHG  1   5   1
M  END
> <s_m_source_file>
AV-unprocessed.smi

> <i_m_source_file_index>
2845

> <i_lp_mmshare_version>
43012

> <i_f3d_flags>
0

> <s_epik_input>
W0NIM11jKFtjSF0xKWMoW0NIM10pW2NIXWMoYzEyKW4oW2NIXW4yKVtDSDJdW0NASF0oW09IXSlbQ0gyXW4zW2NIXW5jKG4zKVtTQF0oPU8pW0NIM10=

> <s_epik_cmdline>
J2VwaWtfcHl0aG9uJywgJy1waCcsICc3LjAnLCAnLXRuJywgJzgnLCAnLW1hJywgJzIwMCcsICctbWV0YWxfYmluZGluZycsICctaW1hZScsICc8aW5maWxlLm1hZT4nLCAnLW9tYWUnLCAnPG91dGZpbGUubWFlPic=

> <r_lp_tautomer_probability>
1

> <r_epik_Ionization_Penalty>
1.12076

> <r_epik_Ionization_Penalty_Charging>
1.12075

> <r_epik_Ionization_Penalty_Neutral>
1.54566e-06

> <r_epik_State_Penalty>
1.17957

> <r_epik_Charging_Adjusted_Penalty>
2.30033

> <i_epik_Tot_Q>
1

> <i_epik_Tot_abs_Q>
1

> <r_epik_Metal_State_Penalty>
1.26402

> <b_epik_Metal_Only>
0

> <s_lp_Force_Field>
OPLS_2005

> <r_lp_Energy>
14.9183

> <b_lp_Chiralities_Consistent>
1

> <s_lp_Variant>
AV-unprocessed.smi:2845-7

> <Gold.Version>
5.8.1

> <Gold.Id.Protein>
6NUR|6NUR_protein|mol2

> <Gold.PLP.Fitness>
55.0125

> <Gold.PLP.PLP>
-46.4820

> <Gold.PLP.part.hbond>
-3.0000

> <Gold.PLP.part.metal>
0.0000

> <Gold.PLP.part.buried>
-6.7685

> <Gold.PLP.part.nonpolar>
-38.1583

> <Gold.PLP.part.repulsive>
0.0767

> <Gold.PLP.ligand.clash>
0.0000

> <Gold.PLP.ligand.torsion>
0.8314

> <Gold.PLP.Chemscore.Hbond>
3.0583

> <Gold.PLP.Chemscore.CHOScore>
0.0000

> <Gold.PLP.Chemscore.Metal>
0.0000

> <Gold.Chemscore.Hbonds>
donor molecule, donor type, donor heavy atom, donor atom, acceptor molecule, acceptor atom, score
      L1  H     5    43       P1  8028  2.00
      P1  H  6934  6947       L1    19  0.40

> <Gold.PLP.Chemscore.Internal.Correction>
1.0183

> <Gold.Rescore>
     Score         DG    S(hbond)    S(metal)    S(lipo)     H(rot)  DE(clash)    DE(int)     intcor
     15.90     -16.82       2.06        0.00      98.78       2.77       0.01       0.91       ----

> <Gold.Chemscore.Fitness>
15.8960

> <Gold.Chemscore.DG>
-16.8180

> <Gold.Chemscore.ZeroCoef>
-5.4800

> <Gold.Chemscore.Hbond>
2.0561

> <Gold.Chemscore.Metal>
0.0000

> <Gold.Chemscore.Lipo>
98.7758

> <Gold.Chemscore.Internal_Hbond>
0.0000

> <Gold.Chemscore.DEClash>
0.0149

> <Gold.Chemscore.DEInternal>
0.9071

> <Gold.Chemscore.Rot>
2.7681

> <Gold.Chemscore.Internal.Correction>
   9.000000E+99

> <Gold.Chemscore.Hbonds>
donor molecule, donor type, donor heavy atom, donor atom, acceptor molecule, acceptor atom, score
      L1  H     5    43       P1  8028  0.97
      P1  H  6931  6943       L1    19  0.02
      P1  H  6934  6947       L1    19  0.41

> <Gold.Chemscore.Hbond.Weighted>
-6.8675

> <Gold.Chemscore.Metal.Weighted>
-0.0000

> <Gold.Chemscore.Lipo.Weighted>
-11.5568

> <Gold.Chemscore.Internal_Hbond.Weighted>
0.0000

> <Gold.Chemscore.DEClash.Weighted>
0.0149

> <Gold.Chemscore.DEInternal.Weighted>
0.9071

> <Gold.Chemscore.Rot.Weighted>
7.0863

> <Gold.Chemscore.Internal.Correction.Weighted>
   9.000000E+99

> <Gold.Protein.RotatedTorsions>
[ 6907 6896 6895 6894 ] final -117.45 input  -60.11 | X-H torsion
[ 7974 7965 7964 7962 ] final -179.06 input  175.53 | X-H torsion
[ 8008 7997 7996 7995 ] final   -4.96 input   59.86 | X-H torsion
[ 10167 10162 10161 10158 ] final  125.84 input  -65.29 | X-H torsion
[ 10718 10713 10712 10709 ] final  -16.30 input   66.30 | X-H torsion
[ 10763 10752 10751 10750 ] final  169.53 input  -60.55 | X-H torsion
[ 11005 11000 10999 10996 ] final  -67.26 input  -57.11 | X-H torsion

> <Gold.Protein.ActiveResidues>
 VAL166  LYS551  ARG553  GLY616  TRP617  ASP618  TYR619  PRO620  LYS621  CYS622 
 ASP623  PHE694  ASN695  SER759  ASP760  ASP761  ALA762  ILE779  LEU786  VAL792 
 PHE793  MET794  SER795  GLU796  ALA797  LYS798  CYS799  TRP800  GLU811  SER814 

> <Gold.Protein.RotatedAtoms>
  150.8138  133.8374  159.3169 H   0  0  0  0  0  0  0  0  0  0  0  0  # atno 6907 bound_to 6896
  151.6152  135.1035  160.0099 H   0  0  0  0  0  0  0  0  0  0  0  0  # atno 6908 bound_to 6896
  152.4229  133.7107  159.6533 H   0  0  0  0  0  0  0  0  0  0  0  0  # atno 6909 bound_to 6896
  144.7134  140.0774  143.6427 H   0  0  0  0  0  0  0  0  0  0  0  0  # atno 7974 bound_to 7965
  154.6088  140.2470  155.7695 H   0  0  0  0  0  0  0  0  0  0  0  0  # atno 8008 bound_to 7997
  156.2358  140.2951  156.0259 H   0  0  0  0  0  0  0  0  0  0  0  0  # atno 8009 bound_to 7997
  155.2086  140.0396  157.2920 H   0  0  0  0  0  0  0  0  0  0  0  0  # atno 8010 bound_to 7997
  139.5664  144.6913  151.3900 H   0  0  0  0  0  0  0  0  0  0  0  0  # atno 10167 bound_to 10162
  156.5896  130.4795  149.6285 H   0  0  0  0  0  0  0  0  0  0  0  0  # atno 10718 bound_to 10713
  154.3845  135.2753  155.2191 H   0  0  0  0  0  0  0  0  0  0  0  0  # atno 10763 bound_to 10752
  154.4284  135.5983  153.6056 H   0  0  0  0  0  0  0  0  0  0  0  0  # atno 10764 bound_to 10752
  152.9833  135.5989  154.4092 H   0  0  0  0  0  0  0  0  0  0  0  0  # atno 10765 bound_to 10752
  141.1503  133.6715  156.6266 H   0  0  0  0  0  0  0  0  0  0  0  0  # atno 11005 bound_to 11000
  145.9731  139.2885  143.1087 LP  0  0  0  0  0  0  0  0  0  0  0  0  # atno 17320 bound_to 7965
  145.9094  140.9190  143.0462 LP  0  0  0  0  0  0  0  0  0  0  0  0  # atno 17321 bound_to 7965
  140.6947  143.7777  150.7308 LP  0  0  0  0  0  0  0  0  0  0  0  0  # atno 17342 bound_to 10162
  140.1270  143.4560  152.2278 LP  0  0  0  0  0  0  0  0  0  0  0  0  # atno 17343 bound_to 10162
  156.2561  130.6935  151.1689 LP  0  0  0  0  0  0  0  0  0  0  0  0  # atno 17370 bound_to 10713
  157.7307  131.0614  150.5715 LP  0  0  0  0  0  0  0  0  0  0  0  0  # atno 17371 bound_to 10713
  140.3499  134.7777  157.4459 LP  0  0  0  0  0  0  0  0  0  0  0  0  # atno 17394 bound_to 11000
  140.0869  134.5654  155.8483 LP  0  0  0  0  0  0  0  0  0  0  0  0  # atno 17395 bound_to 11000

$$$$
