AV-unprocessed.smi:1795|AV-procd|sdf|7241|dock5
  -GOLD-   22720 8493D 1   1.00000     0.00000
 Structure written by MMmdl.
 47 48  0  0  0  0  0  0  0  0  1 V2000
  153.4650  142.1888  161.8219 C   0  0  0  0  0  0  0  0  0  0  0  0
  153.0402  142.5321  160.3903 C   0  0  1  0  0  0  0  0  0  0  0  0
  152.5196  141.2983  159.6315 C   0  0  0  0  0  0  0  0  0  0  0  0
  152.0310  141.6174  158.2865 N   0  0  0  0  0  0  0  0  0  0  0  0
  151.5462  140.4192  157.5610 C   0  0  2  0  0  0  0  0  0  0  0  0
  152.6084  139.2922  157.4840 C   0  0  0  0  0  0  0  0  0  0  0  0
  151.0401  140.7318  156.1214 C   0  0  0  0  0  0  0  0  0  0  0  0
  149.6472  140.3533  155.8996 N   0  0  0  0  0  0  0  0  0  0  0  0
  148.9078  140.7207  154.8424 C   0  0  0  0  0  0  0  0  0  0  0  0
  149.3507  141.3928  153.9102 O   0  0  0  0  0  0  0  0  0  0  0  0
  147.4499  140.2413  154.8374 C   0  0  0  0  0  0  0  0  0  0  0  0
  146.4865  141.3379  155.0294 N   0  0  0  0  0  0  0  0  0  0  0  0
  146.4571  142.3485  154.0476 C   0  0  0  0  0  0  0  0  0  0  0  0
  145.6182  143.3933  154.1289 C   0  0  0  0  0  0  0  0  0  0  0  0
  144.7276  143.4669  155.2628 C   0  0  0  0  0  0  0  0  0  0  0  0
  144.7490  142.5073  156.2091 C   0  0  0  0  0  0  0  0  0  0  0  0
  145.6651  141.3639  156.1247 C   0  0  0  0  0  0  0  0  0  0  0  0
  145.6932  140.4835  156.9855 O   0  0  0  0  0  0  0  0  0  0  0  0
  151.0011  142.6549  158.4167 C   0  0  0  0  0  0  0  0  0  0  0  0
  151.4679  143.8979  159.2007 C   0  0  2  0  0  0  0  0  0  0  0  0
  152.4324  144.7943  158.4052 C   0  0  0  0  0  0  0  0  0  0  0  0
  152.0142  143.5162  160.4605 O   0  0  0  0  0  0  0  0  0  0  0  0
  154.2628  141.4458  161.8271 H   0  0  0  0  0  0  0  0  0  0  0  0
  152.6294  141.7876  162.3961 H   0  0  0  0  0  0  0  0  0  0  0  0
  153.8322  143.0739  162.3417 H   0  0  0  0  0  0  0  0  0  0  0  0
  153.9042  142.9429  159.8675 H   0  0  0  0  0  0  0  0  0  0  0  0
  153.3438  140.5895  159.5815 H   0  0  0  0  0  0  0  0  0  0  0  0
  151.7254  140.8209  160.2079 H   0  0  0  0  0  0  0  0  0  0  0  0
  150.6994  140.0156  158.1183 H   0  0  0  0  0  0  0  0  0  0  0  0
  152.2657  138.4339  156.9071 H   0  0  0  0  0  0  0  0  0  0  0  0
  152.8554  138.8877  158.4643 H   0  0  0  0  0  0  0  0  0  0  0  0
  153.5297  139.6497  157.0233 H   0  0  0  0  0  0  0  0  0  0  0  0
  151.1146  141.7913  155.8807 H   0  0  0  0  0  0  0  0  0  0  0  0
  151.6544  140.2054  155.3904 H   0  0  0  0  0  0  0  0  0  0  0  0
  149.2077  139.7937  156.6161 H   0  0  0  0  0  0  0  0  0  0  0  0
  147.2665  139.7254  153.8943 H   0  0  0  0  0  0  0  0  0  0  0  0
  147.3073  139.4838  155.6108 H   0  0  0  0  0  0  0  0  0  0  0  0
  147.1591  142.2236  153.2361 H   0  0  0  0  0  0  0  0  0  0  0  0
  145.6123  144.1606  153.3686 H   0  0  0  0  0  0  0  0  0  0  0  0
  144.0419  144.2966  155.3537 H   0  0  0  0  0  0  0  0  0  0  0  0
  144.0764  142.5804  157.0510 H   0  0  0  0  0  0  0  0  0  0  0  0
  150.6696  143.0012  157.4403 H   0  0  0  0  0  0  0  0  0  0  0  0
  150.1252  142.2329  158.9122 H   0  0  0  0  0  0  0  0  0  0  0  0
  150.5874  144.5014  159.4224 H   0  0  0  0  0  0  0  0  0  0  0  0
  151.9525  145.1749  157.5035 H   0  0  0  0  0  0  0  0  0  0  0  0
  153.3288  144.2585  158.0940 H   0  0  0  0  0  0  0  0  0  0  0  0
  152.7448  145.6526  159.0002 H   0  0  0  0  0  0  0  0  0  0  0  0
  1  2  1  0  0  0  0
  1 23  1  0  0  0  0
  1 24  1  0  0  0  0
  1 25  1  0  0  0  0
  2 22  1  0  0  0  0
  2  3  1  0  0  0  0
  2 26  1  0  0  0  0
  3  4  1  0  0  0  0
  3 27  1  0  0  0  0
  3 28  1  0  0  0  0
  4  5  1  0  0  0  0
  4 19  1  0  0  0  0
  5  6  1  0  0  0  0
  5  7  1  0  0  0  0
  5 29  1  0  0  0  0
  6 30  1  0  0  0  0
  6 31  1  0  0  0  0
  6 32  1  0  0  0  0
  7  8  1  0  0  0  0
  7 33  1  0  0  0  0
  7 34  1  0  0  0  0
  8  9  1  0  0  0  0
  8 35  1  0  0  0  0
  9 10  2  0  0  0  0
  9 11  1  0  0  0  0
 11 12  1  0  0  0  0
 11 36  1  0  0  0  0
 11 37  1  0  0  0  0
 12 17  1  0  0  0  0
 12 13  1  0  0  0  0
 13 14  2  0  0  0  0
 13 38  1  0  0  0  0
 14 15  1  0  0  0  0
 14 39  1  0  0  0  0
 15 16  2  0  0  0  0
 15 40  1  0  0  0  0
 16 17  1  0  0  0  0
 16 41  1  0  0  0  0
 17 18  2  0  0  0  0
 19 20  1  0  0  0  0
 19 42  1  0  0  0  0
 19 43  1  0  0  0  0
 20 21  1  0  0  0  0
 20 22  1  0  0  0  0
 20 44  1  0  0  0  0
 21 45  1  0  0  0  0
 21 46  1  0  0  0  0
 21 47  1  0  0  0  0
M  END
> <s_m_source_file>
AV-unprocessed.smi

> <i_m_source_file_index>
1795

> <i_lp_mmshare_version>
43012

> <i_f3d_flags>
0

> <s_epik_input>
W0NIM11bQ0BASF0xW0NIMl1OKFtDSDJdW0NASF0oTzEpW0NIM10pW0NASF0oW0NIM10pW0NIMl1bTkhdQyg9TylbQ0gyXW4yW2NIXVtjSF1bY0hdW2NIXWMyPU8=

> <s_epik_cmdline>
J2VwaWtfcHl0aG9uJywgJy1waCcsICc3LjAnLCAnLXRuJywgJzgnLCAnLW1hJywgJzIwMCcsICctbWV0YWxfYmluZGluZycsICctaW1hZScsICc8aW5maWxlLm1hZT4nLCAnLW9tYWUnLCAnPG91dGZpbGUubWFlPic=

> <r_lp_tautomer_probability>
1

> <r_epik_Ionization_Penalty>
0.237383

> <r_epik_Ionization_Penalty_Charging>
3.58805e-07

> <r_epik_Ionization_Penalty_Neutral>
0.237382

> <r_epik_State_Penalty>
0.228245

> <r_epik_Charging_Adjusted_Penalty>
0.228245

> <i_epik_Tot_Q>
0

> <i_epik_Tot_abs_Q>
0

> <r_epik_Metal_State_Penalty>
0.228221

> <b_epik_Metal_Only>
0

> <s_lp_Force_Field>
OPLS_2005

> <r_lp_Energy>
40.4957

> <b_lp_Chiralities_Consistent>
1

> <s_lp_Variant>
AV-unprocessed.smi:1795-5

> <Gold.Version>
5.8.1

> <Gold.Id.Protein>
6NUR|6NUR_protein|mol2

> <Gold.PLP.Fitness>
47.5996

> <Gold.PLP.PLP>
-46.1736

> <Gold.PLP.part.hbond>
-2.0000

> <Gold.PLP.part.metal>
0.0000

> <Gold.PLP.part.buried>
-7.7103

> <Gold.PLP.part.nonpolar>
-37.9220

> <Gold.PLP.part.repulsive>
1.4712

> <Gold.PLP.ligand.clash>
0.0000

> <Gold.PLP.ligand.torsion>
0.9088

> <Gold.PLP.Chemscore.Hbond>
1.0446

> <Gold.PLP.Chemscore.CHOScore>
0.0000

> <Gold.PLP.Chemscore.Metal>
0.0000

> <Gold.Chemscore.Hbonds>
donor molecule, donor type, donor heavy atom, donor atom, acceptor molecule, acceptor atom, score
      P1  H  7989  7998       L1    10  0.05
      P1  H  8011  8017       L1    10  0.77

> <Gold.PLP.Chemscore.Internal.Correction>
0.1098

> <Gold.Rescore>
     Score         DG    S(hbond)    S(metal)    S(lipo)     H(rot)  DE(clash)    DE(int)     intcor
     15.34     -16.48       0.93        0.00     107.48       1.83       0.11       1.02       ----

> <Gold.Chemscore.Fitness>
15.3440

> <Gold.Chemscore.DG>
-16.4767

> <Gold.Chemscore.ZeroCoef>
-5.4800

> <Gold.Chemscore.Hbond>
0.9263

> <Gold.Chemscore.Metal>
0.0000

> <Gold.Chemscore.Lipo>
107.4814

> <Gold.Chemscore.Internal_Hbond>
0.0000

> <Gold.Chemscore.DEClash>
0.1101

> <Gold.Chemscore.DEInternal>
1.0226

> <Gold.Chemscore.Rot>
1.8251

> <Gold.Chemscore.Internal.Correction>
   9.000000E+99

> <Gold.Chemscore.Hbonds>
donor molecule, donor type, donor heavy atom, donor atom, acceptor molecule, acceptor atom, score
      P1  H  7989  7998       L1    10  0.05
      P1  H  8011  8017       L1    10  0.75

> <Gold.Chemscore.Hbond.Weighted>
-3.0937

> <Gold.Chemscore.Metal.Weighted>
-0.0000

> <Gold.Chemscore.Lipo.Weighted>
-12.5753

> <Gold.Chemscore.Internal_Hbond.Weighted>
0.0000

> <Gold.Chemscore.DEClash.Weighted>
0.1101

> <Gold.Chemscore.DEInternal.Weighted>
1.0226

> <Gold.Chemscore.Rot.Weighted>
4.6724

> <Gold.Chemscore.Internal.Correction.Weighted>
   9.000000E+99

> <Gold.Protein.RotatedTorsions>
[ 6907 6896 6895 6894 ] final -148.55 input  -60.11 | X-H torsion
[ 7974 7965 7964 7962 ] final   63.25 input  175.53 | X-H torsion
[ 8008 7997 7996 7995 ] final -105.73 input   59.86 | X-H torsion
[ 10167 10162 10161 10158 ] final -160.33 input  -65.29 | X-H torsion
[ 10718 10713 10712 10709 ] final -138.93 input   66.30 | X-H torsion
[ 10763 10752 10751 10750 ] final  151.56 input  -60.55 | X-H torsion
[ 11005 11000 10999 10996 ] final  -12.37 input  -57.11 | X-H torsion

> <Gold.Protein.ActiveResidues>
 VAL166  LYS551  ARG553  GLY616  TRP617  ASP618  TYR619  PRO620  LYS621  CYS622 
 ASP623  PHE694  ASN695  SER759  ASP760  ASP761  ALA762  ILE779  LEU786  VAL792 
 PHE793  MET794  SER795  GLU796  ALA797  LYS798  CYS799  TRP800  GLU811  SER814 

> <Gold.Protein.RotatedAtoms>
  151.1715  133.4781  159.2593 H   0  0  0  0  0  0  0  0  0  0  0  0  # atno 6907 bound_to 6896
  151.1351  135.0150  159.8610 H   0  0  0  0  0  0  0  0  0  0  0  0  # atno 6908 bound_to 6896
  152.5461  134.1614  159.8612 H   0  0  0  0  0  0  0  0  0  0  0  0  # atno 6909 bound_to 6896
  145.8641  139.3334  143.0802 H   0  0  0  0  0  0  0  0  0  0  0  0  # atno 7974 bound_to 7965
  154.9041  140.0412  157.1909 H   0  0  0  0  0  0  0  0  0  0  0  0  # atno 8008 bound_to 7997
  154.8414  140.2915  155.5636 H   0  0  0  0  0  0  0  0  0  0  0  0  # atno 8009 bound_to 7997
  156.2992  140.2482  156.3357 H   0  0  0  0  0  0  0  0  0  0  0  0  # atno 8010 bound_to 7997
  139.6548  144.0019  152.2186 H   0  0  0  0  0  0  0  0  0  0  0  0  # atno 10167 bound_to 10162
  156.3050  130.7450  151.1511 H   0  0  0  0  0  0  0  0  0  0  0  0  # atno 10718 bound_to 10713
  154.1057  135.2842  155.3242 H   0  0  0  0  0  0  0  0  0  0  0  0  # atno 10763 bound_to 10752
  154.6524  135.5364  153.7921 H   0  0  0  0  0  0  0  0  0  0  0  0  # atno 10764 bound_to 10752
  153.0363  135.6513  154.1219 H   0  0  0  0  0  0  0  0  0  0  0  0  # atno 10765 bound_to 10752
  140.7650  133.8484  155.9157 H   0  0  0  0  0  0  0  0  0  0  0  0  # atno 11005 bound_to 11000
  145.9214  140.9112  143.0403 LP  0  0  0  0  0  0  0  0  0  0  0  0  # atno 17320 bound_to 7965
  144.6726  140.1294  143.7444 LP  0  0  0  0  0  0  0  0  0  0  0  0  # atno 17321 bound_to 7965
  139.9743  144.6472  150.7960 LP  0  0  0  0  0  0  0  0  0  0  0  0  # atno 17342 bound_to 10162
  140.7554  143.3045  151.2996 LP  0  0  0  0  0  0  0  0  0  0  0  0  # atno 17343 bound_to 10162
  157.7377  131.0549  150.5338 LP  0  0  0  0  0  0  0  0  0  0  0  0  # atno 17370 bound_to 10713
  156.5470  130.4222  149.6126 LP  0  0  0  0  0  0  0  0  0  0  0  0  # atno 17371 bound_to 10713
  140.9627  134.1634  157.4641 LP  0  0  0  0  0  0  0  0  0  0  0  0  # atno 17394 bound_to 11000
  139.8764  134.9951  156.5725 LP  0  0  0  0  0  0  0  0  0  0  0  0  # atno 17395 bound_to 11000

$$$$
