AV-unprocessed.smi:1830|AV-procd|sdf|7441|dock2
  -GOLD-   22720 9133D 1   1.00000     0.00000
 Structure written by MMmdl.
 52 55  0  0  0  0  0  0  0  0  1 V2000
  150.5503  134.4084  155.5269 O   0  0  0  0  0  0  0  0  0  0  0  0
  150.0335  134.9100  154.5284 C   0  0  0  0  0  0  0  0  0  0  0  0
  150.1068  136.2147  154.2335 N   0  0  0  0  0  0  0  0  0  0  0  0
  150.7885  137.2188  155.0421 C   0  0  0  0  0  0  0  0  0  0  0  0
  150.7702  138.6065  154.3654 C   0  0  1  0  0  0  0  0  0  0  0  0
  149.5035  139.4229  154.7136 C   0  0  0  0  0  0  0  0  0  0  0  0
  149.5822  139.9357  156.0686 N   0  0  0  0  0  0  0  0  0  0  0  0
  148.5056  140.7951  156.5027 C   0  0  0  0  0  0  0  0  0  0  0  0
  149.0551  141.4851  157.7628 C   0  0  0  0  0  0  0  0  0  0  0  0
  150.5889  141.3486  157.6383 C   0  0  0  0  0  0  0  0  0  0  0  0
  150.7644  140.7339  156.2482 C   0  0  1  0  0  0  0  0  0  0  0  0
  152.0276  139.8992  155.9989 C   0  0  0  0  0  0  0  0  0  0  0  0
  151.9560  139.3571  154.6761 O   0  0  0  0  0  0  0  0  0  0  0  0
  149.3115  134.2467  153.6102 N   0  0  0  0  0  0  0  0  0  0  0  0
  149.0059  132.8567  153.5584 C   0  0  0  0  0  0  0  0  0  0  0  0
  149.7476  131.8880  154.2780 C   0  0  0  0  0  0  0  0  0  0  0  0
  149.3964  130.5311  154.1664 C   0  0  0  0  0  0  0  0  0  0  0  0
  148.3198  130.1876  153.3307 C   0  0  0  0  0  0  0  0  0  0  0  0
  147.6148  131.0951  152.6258 N   0  0  0  0  0  0  0  0  0  0  0  0
  147.9423  132.4065  152.7301 C   0  0  0  0  0  0  0  0  0  0  0  0
  147.2066  133.3278  151.9555 N   0  0  0  0  0  0  0  0  0  0  0  0
  146.3762  132.7004  150.9312 C   0  0  0  0  0  0  0  0  0  0  0  0
  145.1009  133.5397  150.8353 C   0  0  0  0  0  0  0  0  0  0  0  0
  144.9716  134.1261  152.2353 C   0  0  0  0  0  0  0  0  0  0  0  0
  146.4284  134.3674  152.6278 C   0  0  0  0  0  0  0  0  0  0  0  0
  149.6452  136.5419  153.3975 H   0  0  0  0  0  0  0  0  0  0  0  0
  150.3245  137.2760  156.0282 H   0  0  0  0  0  0  0  0  0  0  0  0
  151.8110  136.8824  155.2121 H   0  0  0  0  0  0  0  0  0  0  0  0
  150.7732  138.4497  153.2861 H   0  0  0  0  0  0  0  0  0  0  0  0
  149.4088  140.2542  154.0136 H   0  0  0  0  0  0  0  0  0  0  0  0
  148.6093  138.8104  154.5930 H   0  0  0  0  0  0  0  0  0  0  0  0
  148.2875  141.5414  155.7369 H   0  0  0  0  0  0  0  0  0  0  0  0
  147.5927  140.2310  156.6961 H   0  0  0  0  0  0  0  0  0  0  0  0
  148.7385  142.5275  157.8103 H   0  0  0  0  0  0  0  0  0  0  0  0
  148.7020  140.9857  158.6659 H   0  0  0  0  0  0  0  0  0  0  0  0
  151.1059  142.3037  157.7338 H   0  0  0  0  0  0  0  0  0  0  0  0
  150.9694  140.6773  158.4093 H   0  0  0  0  0  0  0  0  0  0  0  0
  150.7517  141.5492  155.5217 H   0  0  0  0  0  0  0  0  0  0  0  0
  152.9202  140.5192  156.0826 H   0  0  0  0  0  0  0  0  0  0  0  0
  152.1238  139.0988  156.7333 H   0  0  0  0  0  0  0  0  0  0  0  0
  148.8626  134.8127  152.9052 H   0  0  0  0  0  0  0  0  0  0  0  0
  150.5864  132.1586  154.9003 H   0  0  0  0  0  0  0  0  0  0  0  0
  149.9431  129.7715  154.7052 H   0  0  0  0  0  0  0  0  0  0  0  0
  148.0219  129.1557  153.2181 H   0  0  0  0  0  0  0  0  0  0  0  0
  146.8958  132.6585  149.9739 H   0  0  0  0  0  0  0  0  0  0  0  0
  146.1284  131.6780  151.2220 H   0  0  0  0  0  0  0  0  0  0  0  0
  145.2390  134.3437  150.1111 H   0  0  0  0  0  0  0  0  0  0  0  0
  144.2305  132.9570  150.5323 H   0  0  0  0  0  0  0  0  0  0  0  0
  144.3671  135.0327  152.2672 H   0  0  0  0  0  0  0  0  0  0  0  0
  144.5219  133.3923  152.9056 H   0  0  0  0  0  0  0  0  0  0  0  0
  146.5564  134.4002  153.7098 H   0  0  0  0  0  0  0  0  0  0  0  0
  146.7620  135.3310  152.2417 H   0  0  0  0  0  0  0  0  0  0  0  0
  1  2  2  0  0  0  0
  2  3  1  0  0  0  0
  2 14  1  0  0  0  0
  3  4  1  0  0  0  0
  3 26  1  0  0  0  0
  4  5  1  0  0  0  0
  4 27  1  0  0  0  0
  4 28  1  0  0  0  0
  5 13  1  0  0  0  0
  5  6  1  0  0  0  0
  5 29  1  0  0  0  0
  6  7  1  0  0  0  0
  6 30  1  0  0  0  0
  6 31  1  0  0  0  0
  7 11  1  0  0  0  0
  7  8  1  0  0  0  0
  8  9  1  0  0  0  0
  8 32  1  0  0  0  0
  8 33  1  0  0  0  0
  9 10  1  0  0  0  0
  9 34  1  0  0  0  0
  9 35  1  0  0  0  0
 10 11  1  0  0  0  0
 10 36  1  0  0  0  0
 10 37  1  0  0  0  0
 11 12  1  0  0  0  0
 11 38  1  0  0  0  0
 12 13  1  0  0  0  0
 12 39  1  0  0  0  0
 12 40  1  0  0  0  0
 14 15  1  0  0  0  0
 14 41  1  0  0  0  0
 15 20  1  0  0  0  0
 15 16  2  0  0  0  0
 16 17  1  0  0  0  0
 16 42  1  0  0  0  0
 17 18  2  0  0  0  0
 17 43  1  0  0  0  0
 18 19  1  0  0  0  0
 18 44  1  0  0  0  0
 19 20  2  0  0  0  0
 20 21  1  0  0  0  0
 21 25  1  0  0  0  0
 21 22  1  0  0  0  0
 22 23  1  0  0  0  0
 22 45  1  0  0  0  0
 22 46  1  0  0  0  0
 23 24  1  0  0  0  0
 23 47  1  0  0  0  0
 23 48  1  0  0  0  0
 24 25  1  0  0  0  0
 24 49  1  0  0  0  0
 24 50  1  0  0  0  0
 25 51  1  0  0  0  0
 25 52  1  0  0  0  0
M  END
> <s_m_source_file>
AV-unprocessed.smi

> <i_m_source_file_index>
1830

> <i_lp_mmshare_version>
43012

> <i_f3d_flags>
0

> <s_epik_input>
W0NIMl0xW0NIMl1bQ0gyXVtDQEhdKE4xMilbQ0gyXU9bQ0BASF0oW0NIMl0yKVtDSDJdW05IXUMoPU8pW05IXWMzW2NIXVtjSF1bY0hdbmMzTjRbQ0gyXVtDSDJdW0NIMl1bQ0gyXTQ=

> <s_epik_cmdline>
J2VwaWtfcHl0aG9uJywgJy1waCcsICc3LjAnLCAnLXRuJywgJzgnLCAnLW1hJywgJzIwMCcsICctbWV0YWxfYmluZGluZycsICctaW1hZScsICc8aW5maWxlLm1hZT4nLCAnLW9tYWUnLCAnPG91dGZpbGUubWFlPic=

> <r_lp_tautomer_probability>
1

> <r_epik_Ionization_Penalty>
1.16487

> <r_epik_Ionization_Penalty_Charging>
0

> <r_epik_Ionization_Penalty_Neutral>
1.16487

> <r_epik_State_Penalty>
1.21807

> <r_epik_Charging_Adjusted_Penalty>
1.21807

> <i_epik_Tot_Q>
0

> <i_epik_Tot_abs_Q>
0

> <r_epik_Metal_State_Penalty>
1.19922

> <b_epik_Metal_Only>
0

> <s_lp_Force_Field>
OPLS_2005

> <r_lp_Energy>
78.6276

> <b_lp_Chiralities_Consistent>
1

> <s_lp_Variant>
AV-unprocessed.smi:1830-10

> <Gold.Version>
5.8.1

> <Gold.Id.Protein>
6NUR|6NUR_protein|mol2

> <Gold.PLP.Fitness>
47.7272

> <Gold.PLP.PLP>
-40.0717

> <Gold.PLP.part.hbond>
-3.7947

> <Gold.PLP.part.metal>
0.0000

> <Gold.PLP.part.buried>
-4.3641

> <Gold.PLP.part.nonpolar>
-33.0687

> <Gold.PLP.part.repulsive>
0.4789

> <Gold.PLP.ligand.clash>
0.0000

> <Gold.PLP.ligand.torsion>
0.6108

> <Gold.PLP.Chemscore.Hbond>
2.9040

> <Gold.PLP.Chemscore.CHOScore>
0.0000

> <Gold.PLP.Chemscore.Metal>
0.0000

> <Gold.Chemscore.Hbonds>
donor molecule, donor type, donor heavy atom, donor atom, acceptor molecule, acceptor atom, score
      L1  H     3    26       P1  7948  0.99
      L1  H    14    41       P1  7948  0.70
      P1  H  7989  7998       L1    13  0.90

> <Gold.PLP.Chemscore.Internal.Correction>
0.1650

> <Gold.Rescore>
     Score         DG    S(hbond)    S(metal)    S(lipo)     H(rot)  DE(clash)    DE(int)     intcor
     16.29     -19.21       2.53        0.00      75.32       1.37       0.04       2.88       ----

> <Gold.Chemscore.Fitness>
16.2913

> <Gold.Chemscore.DG>
-19.2102

> <Gold.Chemscore.ZeroCoef>
-5.4800

> <Gold.Chemscore.Hbond>
2.5258

> <Gold.Chemscore.Metal>
0.0000

> <Gold.Chemscore.Lipo>
75.3236

> <Gold.Chemscore.Internal_Hbond>
0.0000

> <Gold.Chemscore.DEClash>
0.0358

> <Gold.Chemscore.DEInternal>
2.8831

> <Gold.Chemscore.Rot>
1.3746

> <Gold.Chemscore.Internal.Correction>
   9.000000E+99

> <Gold.Chemscore.Hbonds>
donor molecule, donor type, donor heavy atom, donor atom, acceptor molecule, acceptor atom, score
      L1  H     3    26       P1  7948  0.47
      L1  H    14    41       P1  7948  0.09
      P1  H  7989  7998       L1    13  0.11

> <Gold.Chemscore.Hbond.Weighted>
-8.4362

> <Gold.Chemscore.Metal.Weighted>
-0.0000

> <Gold.Chemscore.Lipo.Weighted>
-8.8129

> <Gold.Chemscore.Internal_Hbond.Weighted>
0.0000

> <Gold.Chemscore.DEClash.Weighted>
0.0358

> <Gold.Chemscore.DEInternal.Weighted>
2.8831

> <Gold.Chemscore.Rot.Weighted>
3.5189

> <Gold.Chemscore.Internal.Correction.Weighted>
   9.000000E+99

> <Gold.Protein.RotatedTorsions>
[ 6907 6896 6895 6894 ] final -102.38 input  -60.11 | X-H torsion
[ 7974 7965 7964 7962 ] final   59.34 input  175.53 | X-H torsion
[ 8008 7997 7996 7995 ] final  -79.00 input   59.86 | X-H torsion
[ 10167 10162 10161 10158 ] final -140.53 input  -65.29 | X-H torsion
[ 10718 10713 10712 10709 ] final   51.15 input   66.30 | X-H torsion
[ 10763 10752 10751 10750 ] final  -66.92 input  -60.55 | X-H torsion
[ 11005 11000 10999 10996 ] final  -49.78 input  -57.11 | X-H torsion

> <Gold.Protein.ActiveResidues>
 VAL166  LYS551  ARG553  GLY616  TRP617  ASP618  TYR619  PRO620  LYS621  CYS622 
 ASP623  PHE694  ASN695  SER759  ASP760  ASP761  ALA762  ILE779  LEU786  VAL792 
 PHE793  MET794  SER795  GLU796  ALA797  LYS798  CYS799  TRP800  GLU811  SER814 

> <Gold.Protein.RotatedAtoms>
  150.7194  134.0590  159.3824 H   0  0  0  0  0  0  0  0  0  0  0  0  # atno 6907 bound_to 6896
  151.8569  135.0536  160.0474 H   0  0  0  0  0  0  0  0  0  0  0  0  # atno 6908 bound_to 6896
  152.2747  133.5379  159.5497 H   0  0  0  0  0  0  0  0  0  0  0  0  # atno 6909 bound_to 6896
  145.9083  139.3634  143.0551 H   0  0  0  0  0  0  0  0  0  0  0  0  # atno 7974 bound_to 7965
  154.5743  140.0685  156.9010 H   0  0  0  0  0  0  0  0  0  0  0  0  # atno 8008 bound_to 7997
  155.2578  140.3356  155.4258 H   0  0  0  0  0  0  0  0  0  0  0  0  # atno 8009 bound_to 7997
  156.2142  140.1771  156.7612 H   0  0  0  0  0  0  0  0  0  0  0  0  # atno 8010 bound_to 7997
  139.8273  143.7494  152.2666 H   0  0  0  0  0  0  0  0  0  0  0  0  # atno 10167 bound_to 10162
  157.4953  130.8402  149.8251 H   0  0  0  0  0  0  0  0  0  0  0  0  # atno 10718 bound_to 10713
  154.3669  135.6104  153.5719 H   0  0  0  0  0  0  0  0  0  0  0  0  # atno 10763 bound_to 10752
  152.9791  135.5828  154.4567 H   0  0  0  0  0  0  0  0  0  0  0  0  # atno 10764 bound_to 10752
  154.4315  135.2848  155.1887 H   0  0  0  0  0  0  0  0  0  0  0  0  # atno 10765 bound_to 10752
  141.0779  133.6661  156.3636 H   0  0  0  0  0  0  0  0  0  0  0  0  # atno 11005 bound_to 11000
  145.8704  140.9423  143.0653 LP  0  0  0  0  0  0  0  0  0  0  0  0  # atno 17320 bound_to 7965
  144.6741  140.0647  143.7475 LP  0  0  0  0  0  0  0  0  0  0  0  0  # atno 17321 bound_to 7965
  139.7691  144.7482  151.0251 LP  0  0  0  0  0  0  0  0  0  0  0  0  # atno 17342 bound_to 10162
  140.7809  143.4665  151.0205 LP  0  0  0  0  0  0  0  0  0  0  0  0  # atno 17343 bound_to 10162
  156.0197  130.3800  150.2000 LP  0  0  0  0  0  0  0  0  0  0  0  0  # atno 17370 bound_to 10713
  157.0189  130.9973  151.3345 LP  0  0  0  0  0  0  0  0  0  0  0  0  # atno 17371 bound_to 10713
  140.5533  134.6006  157.5414 LP  0  0  0  0  0  0  0  0  0  0  0  0  # atno 17394 bound_to 11000
  139.9591  134.7483  156.0275 LP  0  0  0  0  0  0  0  0  0  0  0  0  # atno 17395 bound_to 11000

$$$$
