AV-unprocessed.smi:484|AV-procd|sdf|2687|dock7
  -GOLD-   2262023113D 1   1.00000     0.00000
 Structure written by MMmdl.
 46 48  0  0  0  0  0  0  0  0  1 V2000
  144.6494  135.5786  150.9811 C   0  0  0  0  0  0  0  0  0  0  0  0
  144.4758  135.9754  152.4512 C   0  0  0  0  0  0  0  0  0  0  0  0
  145.4419  137.0682  152.8679 C   0  0  0  0  0  0  0  0  0  0  0  0
  146.1482  136.9648  154.0826 C   0  0  0  0  0  0  0  0  0  0  0  0
  147.0394  137.9833  154.4706 C   0  0  0  0  0  0  0  0  0  0  0  0
  147.2410  139.1162  153.6563 C   0  0  0  0  0  0  0  0  0  0  0  0
  148.1319  140.0630  154.1133 O   0  0  0  0  0  0  0  0  0  0  0  0
  148.3494  140.1633  155.5153 C   0  0  0  0  0  0  0  0  0  0  0  0
  148.6920  141.6141  155.8896 C   0  0  2  0  0  0  0  0  0  0  0  0
  147.7905  142.4863  155.2379 O   0  0  0  0  0  0  0  0  0  0  0  0
  150.1599  141.9953  155.6073 C   0  0  0  0  0  0  0  0  0  0  0  0
  151.0634  141.5665  156.6661 N   0  0  0  0  0  0  0  0  0  0  0  0
  151.5916  140.3333  156.8687 C   0  0  0  0  0  0  0  0  0  0  0  0
  151.3001  139.1794  155.9587 C   0  0  0  0  0  0  0  0  0  0  0  0
  151.6889  139.4266  154.6246 O   0  0  0  0  0  0  0  0  0  0  0  0
  152.3943  140.2118  157.9265 N   0  0  0  0  0  0  0  0  0  0  0  0
  152.3909  141.4867  158.4580 C   0  0  0  0  0  0  0  0  0  0  0  0
  153.0532  142.0106  159.5913 C   0  0  0  0  0  0  0  0  0  0  0  0
  152.8979  143.3669  159.9454 C   0  0  0  0  0  0  0  0  0  0  0  0
  152.0800  144.2171  159.1730 C   0  0  0  0  0  0  0  0  0  0  0  0
  151.4110  143.7153  158.0402 C   0  0  0  0  0  0  0  0  0  0  0  0
  151.5690  142.3605  157.6910 C   0  0  0  0  0  0  0  0  0  0  0  0
  146.5272  139.2150  152.4352 C   0  0  0  0  0  0  0  0  0  0  0  0
  145.6345  138.1971  152.0468 C   0  0  0  0  0  0  0  0  0  0  0  0
  143.9464  134.7924  150.7052 H   0  0  0  0  0  0  0  0  0  0  0  0
  145.6567  135.2068  150.7903 H   0  0  0  0  0  0  0  0  0  0  0  0
  144.4746  136.4284  150.3205 H   0  0  0  0  0  0  0  0  0  0  0  0
  143.4543  136.3149  152.6254 H   0  0  0  0  0  0  0  0  0  0  0  0
  144.6214  135.1027  153.0890 H   0  0  0  0  0  0  0  0  0  0  0  0
  146.0072  136.1052  154.7216 H   0  0  0  0  0  0  0  0  0  0  0  0
  147.5747  137.8937  155.4045 H   0  0  0  0  0  0  0  0  0  0  0  0
  147.4750  139.8244  156.0739 H   0  0  0  0  0  0  0  0  0  0  0  0
  149.1889  139.5236  155.7922 H   0  0  0  0  0  0  0  0  0  0  0  0
  148.4986  141.7304  156.9560 H   0  0  0  0  0  0  0  0  0  0  0  0
  147.9805  143.3708  155.5114 H   0  0  0  0  0  0  0  0  0  0  0  0
  150.4881  141.5605  154.6633 H   0  0  0  0  0  0  0  0  0  0  0  0
  150.2591  143.0748  155.4896 H   0  0  0  0  0  0  0  0  0  0  0  0
  151.8289  138.2953  156.3167 H   0  0  0  0  0  0  0  0  0  0  0  0
  150.2372  138.9413  155.9884 H   0  0  0  0  0  0  0  0  0  0  0  0
  152.3712  138.8154  154.3932 H   0  0  0  0  0  0  0  0  0  0  0  0
  153.6816  141.3672  160.1891 H   0  0  0  0  0  0  0  0  0  0  0  0
  153.4088  143.7567  160.8137 H   0  0  0  0  0  0  0  0  0  0  0  0
  151.9665  145.2545  159.4509 H   0  0  0  0  0  0  0  0  0  0  0  0
  150.7825  144.3633  157.4479 H   0  0  0  0  0  0  0  0  0  0  0  0
  146.6452  140.0629  151.7780 H   0  0  0  0  0  0  0  0  0  0  0  0
  145.0963  138.2871  151.1144 H   0  0  0  0  0  0  0  0  0  0  0  0
  1  2  1  0  0  0  0
  1 25  1  0  0  0  0
  1 26  1  0  0  0  0
  1 27  1  0  0  0  0
  2  3  1  0  0  0  0
  2 28  1  0  0  0  0
  2 29  1  0  0  0  0
  3 24  1  0  0  0  0
  3  4  2  0  0  0  0
  4  5  1  0  0  0  0
  4 30  1  0  0  0  0
  5  6  2  0  0  0  0
  5 31  1  0  0  0  0
  6  7  1  0  0  0  0
  6 23  1  0  0  0  0
  7  8  1  0  0  0  0
  8  9  1  0  0  0  0
  8 32  1  0  0  0  0
  8 33  1  0  0  0  0
  9 10  1  0  0  0  0
  9 11  1  0  0  0  0
  9 34  1  0  0  0  0
 10 35  1  0  0  0  0
 11 12  1  0  0  0  0
 11 36  1  0  0  0  0
 11 37  1  0  0  0  0
 12 22  1  0  0  0  0
 12 13  1  0  0  0  0
 13 14  1  0  0  0  0
 13 16  2  0  0  0  0
 14 15  1  0  0  0  0
 14 38  1  0  0  0  0
 14 39  1  0  0  0  0
 15 40  1  0  0  0  0
 16 17  1  0  0  0  0
 17 22  2  0  0  0  0
 17 18  1  0  0  0  0
 18 19  2  0  0  0  0
 18 41  1  0  0  0  0
 19 20  1  0  0  0  0
 19 42  1  0  0  0  0
 20 21  2  0  0  0  0
 20 43  1  0  0  0  0
 21 22  1  0  0  0  0
 21 44  1  0  0  0  0
 23 24  2  0  0  0  0
 23 45  1  0  0  0  0
 24 46  1  0  0  0  0
M  END
> <s_m_source_file>
AV-unprocessed.smi

> <i_m_source_file_index>
484

> <i_lp_mmshare_version>
43012

> <i_f3d_flags>
0

> <s_epik_input>
W0NIM11bQ0gyXWMxW2NIXVtjSF1jKFtjSF1bY0hdMSlPW0NIMl1bQ0BIXShbT0hdKVtDSDJdbihjKG4yKVtDSDJdW09IXSljKGMyMylbY0hdW2NIXVtjSF1bY0hdMw==

> <s_epik_cmdline>
J2VwaWtfcHl0aG9uJywgJy1waCcsICc3LjAnLCAnLXRuJywgJzgnLCAnLW1hJywgJzIwMCcsICctbWV0YWxfYmluZGluZycsICctaW1hZScsICc8aW5maWxlLm1hZT4nLCAnLW9tYWUnLCAnPG91dGZpbGUubWFlPic=

> <r_lp_tautomer_probability>
1

> <r_epik_Ionization_Penalty>
0.0555463

> <r_epik_Ionization_Penalty_Charging>
0

> <r_epik_Ionization_Penalty_Neutral>
0.0555463

> <r_epik_State_Penalty>
0.0477854

> <r_epik_Charging_Adjusted_Penalty>
0.0477854

> <i_epik_Tot_Q>
0

> <i_epik_Tot_abs_Q>
0

> <r_epik_Metal_State_Penalty>
4.97632e-05

> <b_epik_Metal_Only>
0

> <s_lp_Force_Field>
OPLS_2005

> <r_lp_Energy>
15.7427

> <b_lp_Chiralities_Consistent>
1

> <s_lp_Variant>
AV-unprocessed.smi:484-1

> <Gold.Version>
5.8.1

> <Gold.Id.Protein>
6NUR|6NUR_protein|mol2

> <Gold.PLP.Fitness>
48.6120

> <Gold.PLP.PLP>
-43.8945

> <Gold.PLP.part.hbond>
-2.6762

> <Gold.PLP.part.metal>
0.0000

> <Gold.PLP.part.buried>
-3.2682

> <Gold.PLP.part.nonpolar>
-37.7162

> <Gold.PLP.part.repulsive>
0.1360

> <Gold.PLP.ligand.clash>
0.0169

> <Gold.PLP.ligand.torsion>
1.4186

> <Gold.PLP.Chemscore.Hbond>
2.4760

> <Gold.PLP.Chemscore.CHOScore>
0.0000

> <Gold.PLP.Chemscore.Metal>
0.0000

> <Gold.Chemscore.Hbonds>
donor molecule, donor type, donor heavy atom, donor atom, acceptor molecule, acceptor atom, score
      L1  H    10    35       P1  8028  1.00
      P1  H  7989  7998       L1    15  1.00
      P1  H  7997  8010       L1    16  0.18

> <Gold.PLP.Chemscore.Internal.Correction>
0.1437

> <Gold.Rescore>
     Score         DG    S(hbond)    S(metal)    S(lipo)     H(rot)  DE(clash)    DE(int)     intcor
     16.37     -18.06       1.71        0.00     126.05       3.08       0.18       1.51       ----

> <Gold.Chemscore.Fitness>
16.3725

> <Gold.Chemscore.DG>
-18.0580

> <Gold.Chemscore.ZeroCoef>
-5.4800

> <Gold.Chemscore.Hbond>
1.7099

> <Gold.Chemscore.Metal>
0.0000

> <Gold.Chemscore.Lipo>
126.0466

> <Gold.Chemscore.Internal_Hbond>
0.0000

> <Gold.Chemscore.DEClash>
0.1801

> <Gold.Chemscore.DEInternal>
1.5054

> <Gold.Chemscore.Rot>
3.0783

> <Gold.Chemscore.Internal.Correction>
   9.000000E+99

> <Gold.Chemscore.Hbonds>
donor molecule, donor type, donor heavy atom, donor atom, acceptor molecule, acceptor atom, score
      L1  H    10    35       P1  8028  0.54
      P1  H  7989  7998       L1    15  0.77
      P1  H  7997  8010       L1    16  0.02

> <Gold.Chemscore.Hbond.Weighted>
-5.7111

> <Gold.Chemscore.Metal.Weighted>
-0.0000

> <Gold.Chemscore.Lipo.Weighted>
-14.7475

> <Gold.Chemscore.Internal_Hbond.Weighted>
0.0000

> <Gold.Chemscore.DEClash.Weighted>
0.1801

> <Gold.Chemscore.DEInternal.Weighted>
1.5054

> <Gold.Chemscore.Rot.Weighted>
7.8805

> <Gold.Chemscore.Internal.Correction.Weighted>
   9.000000E+99

> <Gold.Protein.RotatedTorsions>
[ 6907 6896 6895 6894 ] final  -70.54 input  -60.11 | X-H torsion
[ 7974 7965 7964 7962 ] final  -58.65 input  175.53 | X-H torsion
[ 8008 7997 7996 7995 ] final   38.40 input   59.86 | X-H torsion
[ 10167 10162 10161 10158 ] final   47.79 input  -65.29 | X-H torsion
[ 10718 10713 10712 10709 ] final  132.80 input   66.30 | X-H torsion
[ 10763 10752 10751 10750 ] final  125.09 input  -60.55 | X-H torsion
[ 11005 11000 10999 10996 ] final  -54.19 input  -57.11 | X-H torsion

> <Gold.Protein.ActiveResidues>
 VAL166  LYS551  ARG553  GLY616  TRP617  ASP618  TYR619  PRO620  LYS621  CYS622 
 ASP623  PHE694  ASN695  SER759  ASP760  ASP761  ALA762  ILE779  LEU786  VAL792 
 PHE793  MET794  SER795  GLU796  ALA797  LYS798  CYS799  TRP800  GLU811  SER814 

> <Gold.Protein.RotatedAtoms>
  150.7253  134.5438  159.5760 H   0  0  0  0  0  0  0  0  0  0  0  0  # atno 6907 bound_to 6896
  152.2942  134.7683  160.0380 H   0  0  0  0  0  0  0  0  0  0  0  0  # atno 6908 bound_to 6896
  151.8286  133.3370  159.3643 H   0  0  0  0  0  0  0  0  0  0  0  0  # atno 6909 bound_to 6896
  145.8368  140.8444  143.0055 H   0  0  0  0  0  0  0  0  0  0  0  0  # atno 7974 bound_to 7965
  155.2195  140.3330  155.4317 H   0  0  0  0  0  0  0  0  0  0  0  0  # atno 8008 bound_to 7997
  156.2339  140.1863  156.7219 H   0  0  0  0  0  0  0  0  0  0  0  0  # atno 8009 bound_to 7997
  154.6025  140.0621  156.9372 H   0  0  0  0  0  0  0  0  0  0  0  0  # atno 8010 bound_to 7997
  140.3000  144.2946  150.6221 H   0  0  0  0  0  0  0  0  0  0  0  0  # atno 10167 bound_to 10162
  157.4836  131.1087  150.9650 H   0  0  0  0  0  0  0  0  0  0  0  0  # atno 10718 bound_to 10713
  153.6717  135.3329  155.3155 H   0  0  0  0  0  0  0  0  0  0  0  0  # atno 10763 bound_to 10752
  154.8489  135.4388  154.1698 H   0  0  0  0  0  0  0  0  0  0  0  0  # atno 10764 bound_to 10752
  153.2691  135.6998  153.7575 H   0  0  0  0  0  0  0  0  0  0  0  0  # atno 10765 bound_to 10752
  141.1013  133.6617  156.4284 H   0  0  0  0  0  0  0  0  0  0  0  0  # atno 11005 bound_to 11000
  144.6736  140.0753  143.7471 LP  0  0  0  0  0  0  0  0  0  0  0  0  # atno 17320 bound_to 7965
  145.9510  139.2733  143.1212 LP  0  0  0  0  0  0  0  0  0  0  0  0  # atno 17321 bound_to 7965
  140.5659  143.2186  151.7683 LP  0  0  0  0  0  0  0  0  0  0  0  0  # atno 17342 bound_to 10162
  139.4917  144.4284  151.9900 LP  0  0  0  0  0  0  0  0  0  0  0  0  # atno 17343 bound_to 10162
  157.0375  130.5736  149.5351 LP  0  0  0  0  0  0  0  0  0  0  0  0  # atno 17370 bound_to 10713
  156.0134  130.5227  150.8061 LP  0  0  0  0  0  0  0  0  0  0  0  0  # atno 17371 bound_to 10713
  140.5013  134.6482  157.5250 LP  0  0  0  0  0  0  0  0  0  0  0  0  # atno 17394 bound_to 11000
  139.9866  134.7051  155.9763 LP  0  0  0  0  0  0  0  0  0  0  0  0  # atno 17395 bound_to 11000

$$$$
