AV-unprocessed.smi:2862|AV-procd|sdf|11010|dock1
  -GOLD-   2272015473D 1   1.00000     0.00000
 Structure written by MMmdl.
 52 54  0  0  0  0  0  0  0  0  1 V2000
  144.7214  137.0337  153.7184 C   0  0  0  0  0  0  0  0  0  0  0  0
  146.1365  136.4932  153.4600 C   0  0  2  0  0  0  0  0  0  0  0  0
  147.0386  137.5890  153.1311 N   0  0  0  0  0  0  0  0  0  0  0  0
  147.3450  138.6355  153.9171 C   0  0  0  0  0  0  0  0  0  0  0  0
  146.8265  138.8193  155.0174 O   0  0  0  0  0  0  0  0  0  0  0  0
  148.4054  139.6307  153.4095 C   0  0  0  0  0  0  0  0  0  0  0  0
  149.6220  139.7021  154.2416 N   0  0  0  0  0  0  0  0  0  0  0  0
  150.5648  138.6669  154.0788 C   0  0  0  0  0  0  0  0  0  0  0  0
  151.6790  138.5923  154.8228 C   0  0  0  0  0  0  0  0  0  0  0  0
  151.9021  139.6057  155.8244 C   0  0  0  0  0  0  0  0  0  0  0  0
  150.9964  140.5940  156.0001 C   0  0  0  0  0  0  0  0  0  0  0  0
  151.1901  141.6661  156.9823 C   0  0  0  0  0  0  0  0  0  0  0  0
  151.1560  142.8585  156.6729 O   0  0  0  0  0  0  0  0  0  0  0  0
  151.4360  141.2583  158.2611 N   0  0  0  0  0  0  0  0  0  0  0  0
  151.1008  139.9124  158.7585 C   0  0  0  0  0  0  0  0  0  0  0  0
  151.9076  142.1793  159.3188 C   0  0  1  0  0  0  0  0  0  0  0  0
  153.4404  142.3457  159.2954 C   0  0  0  0  0  0  0  0  0  0  0  0
  151.2048  143.5303  159.3420 C   0  0  0  0  0  0  0  0  0  0  0  0
  151.7924  144.7246  158.6293 C   0  0  0  0  0  0  0  0  0  0  0  0
  151.7583  144.6849  160.1412 C   0  0  0  0  0  0  0  0  0  0  0  0
  149.7871  140.7097  155.1559 C   0  0  0  0  0  0  0  0  0  0  0  0
  148.9495  141.6097  155.2657 O   0  0  0  0  0  0  0  0  0  0  0  0
  146.1228  135.4326  152.3755 C   0  0  0  0  0  0  0  0  0  0  0  0
  145.7350  135.7658  150.9555 C   0  0  0  0  0  0  0  0  0  0  0  0
  144.8227  134.9139  151.8112 C   0  0  0  0  0  0  0  0  0  0  0  0
  144.0388  136.2276  153.9886 H   0  0  0  0  0  0  0  0  0  0  0  0
  144.3180  137.5279  152.8341 H   0  0  0  0  0  0  0  0  0  0  0  0
  144.7145  137.7554  154.5358 H   0  0  0  0  0  0  0  0  0  0  0  0
  146.4924  136.0180  154.3762 H   0  0  0  0  0  0  0  0  0  0  0  0
  147.5093  137.5257  152.2401 H   0  0  0  0  0  0  0  0  0  0  0  0
  148.6599  139.3565  152.3848 H   0  0  0  0  0  0  0  0  0  0  0  0
  147.9467  140.6178  153.3291 H   0  0  0  0  0  0  0  0  0  0  0  0
  150.3212  137.9376  153.3199 H   0  0  0  0  0  0  0  0  0  0  0  0
  152.3856  137.7875  154.6828 H   0  0  0  0  0  0  0  0  0  0  0  0
  152.7979  139.5652  156.4276 H   0  0  0  0  0  0  0  0  0  0  0  0
  150.2636  139.4618  158.2232 H   0  0  0  0  0  0  0  0  0  0  0  0
  150.7982  139.9274  159.8061 H   0  0  0  0  0  0  0  0  0  0  0  0
  151.9627  139.2503  158.6730 H   0  0  0  0  0  0  0  0  0  0  0  0
  151.7038  141.7130  160.2841 H   0  0  0  0  0  0  0  0  0  0  0  0
  153.7826  142.8833  160.1802 H   0  0  0  0  0  0  0  0  0  0  0  0
  153.7861  142.9065  158.4273 H   0  0  0  0  0  0  0  0  0  0  0  0
  153.9407  141.3769  159.2898 H   0  0  0  0  0  0  0  0  0  0  0  0
  150.1196  143.4644  159.3027 H   0  0  0  0  0  0  0  0  0  0  0  0
  152.7598  144.6037  158.1459 H   0  0  0  0  0  0  0  0  0  0  0  0
  151.1012  145.3988  158.1276 H   0  0  0  0  0  0  0  0  0  0  0  0
  151.0435  145.3300  160.6477 H   0  0  0  0  0  0  0  0  0  0  0  0
  152.7031  144.5380  160.6604 H   0  0  0  0  0  0  0  0  0  0  0  0
  146.9133  134.6920  152.4849 H   0  0  0  0  0  0  0  0  0  0  0  0
  145.4145  136.7835  150.7409 H   0  0  0  0  0  0  0  0  0  0  0  0
  146.2832  135.2709  150.1564 H   0  0  0  0  0  0  0  0  0  0  0  0
  144.7645  133.8508  151.5865 H   0  0  0  0  0  0  0  0  0  0  0  0
  143.8994  135.3667  152.1673 H   0  0  0  0  0  0  0  0  0  0  0  0
  1  2  1  0  0  0  0
  1 26  1  0  0  0  0
  1 27  1  0  0  0  0
  1 28  1  0  0  0  0
  2  3  1  0  0  0  0
  2 23  1  0  0  0  0
  2 29  1  0  0  0  0
  3  4  1  0  0  0  0
  3 30  1  0  0  0  0
  4  5  2  0  0  0  0
  4  6  1  0  0  0  0
  6  7  1  0  0  0  0
  6 31  1  0  0  0  0
  6 32  1  0  0  0  0
  7 21  1  0  0  0  0
  7  8  1  0  0  0  0
  8  9  2  0  0  0  0
  8 33  1  0  0  0  0
  9 10  1  0  0  0  0
  9 34  1  0  0  0  0
 10 11  2  0  0  0  0
 10 35  1  0  0  0  0
 11 12  1  0  0  0  0
 11 21  1  0  0  0  0
 12 13  2  0  0  0  0
 12 14  1  0  0  0  0
 14 15  1  0  0  0  0
 14 16  1  0  0  0  0
 15 36  1  0  0  0  0
 15 37  1  0  0  0  0
 15 38  1  0  0  0  0
 16 17  1  0  0  0  0
 16 18  1  0  0  0  0
 16 39  1  0  0  0  0
 17 40  1  0  0  0  0
 17 41  1  0  0  0  0
 17 42  1  0  0  0  0
 18 20  1  0  0  0  0
 18 19  1  0  0  0  0
 18 43  1  0  0  0  0
 19 20  1  0  0  0  0
 19 44  1  0  0  0  0
 19 45  1  0  0  0  0
 20 46  1  0  0  0  0
 20 47  1  0  0  0  0
 21 22  2  0  0  0  0
 23 25  1  0  0  0  0
 23 24  1  0  0  0  0
 23 48  1  0  0  0  0
 24 25  1  0  0  0  0
 24 49  1  0  0  0  0
 24 50  1  0  0  0  0
 25 51  1  0  0  0  0
 25 52  1  0  0  0  0
M  END
> <s_m_source_file>
AV-unprocessed.smi

> <i_m_source_file_index>
2862

> <i_lp_mmshare_version>
43012

> <i_f3d_flags>
0

> <s_epik_input>
W0NIMl0xW0NIMl1bQ0hdMVtDQEhdKFtDSDNdKVtOSF1DKD1PKVtDSDJdbjJbY0hdW2NIXVtjSF1jKGMyPU8pQyg9TylOKFtDSDNdKVtDQEhdKFtDSDNdKVtDSF0zW0NIMl1bQ0gyXTM=

> <s_epik_cmdline>
J2VwaWtfcHl0aG9uJywgJy1waCcsICc3LjAnLCAnLXRuJywgJzgnLCAnLW1hJywgJzIwMCcsICctbWV0YWxfYmluZGluZycsICctaW1hZScsICc8aW5maWxlLm1hZT4nLCAnLW9tYWUnLCAnPG91dGZpbGUubWFlPic=

> <r_lp_tautomer_probability>
1

> <r_epik_Ionization_Penalty>
4.00841e-08

> <r_epik_Ionization_Penalty_Charging>
2.07773e-08

> <r_epik_Ionization_Penalty_Neutral>
1.93069e-08

> <r_epik_State_Penalty>
-0

> <r_epik_Charging_Adjusted_Penalty>
2.07773e-08

> <i_epik_Tot_Q>
0

> <i_epik_Tot_abs_Q>
0

> <r_epik_Metal_State_Penalty>
-0

> <b_epik_Metal_Only>
0

> <s_lp_Force_Field>
OPLS_2005

> <r_lp_Energy>
59.7867

> <b_lp_Chiralities_Consistent>
1

> <s_lp_Variant>
AV-unprocessed.smi:2862-3

> <Gold.Version>
5.8.1

> <Gold.Id.Protein>
6NUR|6NUR_protein|mol2

> <Gold.PLP.Fitness>
49.5829

> <Gold.PLP.PLP>
-46.7417

> <Gold.PLP.part.hbond>
-1.0000

> <Gold.PLP.part.metal>
0.0000

> <Gold.PLP.part.buried>
-1.2638

> <Gold.PLP.part.nonpolar>
-45.0962

> <Gold.PLP.part.repulsive>
1.0759

> <Gold.PLP.ligand.clash>
0.0000

> <Gold.PLP.ligand.torsion>
3.0725

> <Gold.PLP.Chemscore.Hbond>
0.4155

> <Gold.PLP.Chemscore.CHOScore>
1.0322

> <Gold.PLP.Chemscore.Metal>
0.0000

> <Gold.Chemscore.Hbonds>
donor molecule, donor type, donor heavy atom, donor atom, acceptor molecule, acceptor atom, score
      L1  H     3    30       P1  7948  0.50
      L1  C     8    33       P1  7948  0.81
      L1  C     8    33       P1  7949  0.13

> <Gold.PLP.Chemscore.Internal.Correction>
4.6431

> <Gold.Rescore>
     Score         DG    S(hbond)    S(metal)    S(lipo)     H(rot)  DE(clash)    DE(int)     intcor
      9.32     -16.79       0.98        0.00     106.64       1.73       0.28       7.19       ----

> <Gold.Chemscore.Fitness>
9.3224

> <Gold.Chemscore.DG>
-16.7910

> <Gold.Chemscore.ZeroCoef>
-5.4800

> <Gold.Chemscore.Hbond>
0.9807

> <Gold.Chemscore.Metal>
0.0000

> <Gold.Chemscore.Lipo>
106.6377

> <Gold.Chemscore.Internal_Hbond>
0.0000

> <Gold.Chemscore.DEClash>
0.2834

> <Gold.Chemscore.DEInternal>
7.1851

> <Gold.Chemscore.Rot>
1.7348

> <Gold.Chemscore.Internal.Correction>
   9.000000E+99

> <Gold.Chemscore.Hbonds>
donor molecule, donor type, donor heavy atom, donor atom, acceptor molecule, acceptor atom, score
      L1  H     3    30       P1  7948  0.49

> <Gold.Chemscore.Hbond.Weighted>
-3.2755

> <Gold.Chemscore.Metal.Weighted>
-0.0000

> <Gold.Chemscore.Lipo.Weighted>
-12.4766

> <Gold.Chemscore.Internal_Hbond.Weighted>
0.0000

> <Gold.Chemscore.DEClash.Weighted>
0.2834

> <Gold.Chemscore.DEInternal.Weighted>
7.1851

> <Gold.Chemscore.Rot.Weighted>
4.4412

> <Gold.Chemscore.Internal.Correction.Weighted>
   9.000000E+99

> <Gold.Protein.RotatedTorsions>
[ 6907 6896 6895 6894 ] final  -40.08 input  -60.11 | X-H torsion
[ 7974 7965 7964 7962 ] final  -69.34 input  175.53 | X-H torsion
[ 8008 7997 7996 7995 ] final -172.44 input   59.86 | X-H torsion
[ 10167 10162 10161 10158 ] final   51.87 input  -65.29 | X-H torsion
[ 10718 10713 10712 10709 ] final -137.79 input   66.30 | X-H torsion
[ 10763 10752 10751 10750 ] final   50.22 input  -60.55 | X-H torsion
[ 11005 11000 10999 10996 ] final  119.57 input  -57.11 | X-H torsion

> <Gold.Protein.ActiveResidues>
 VAL166  LYS551  ARG553  GLY616  TRP617  ASP618  TYR619  PRO620  LYS621  CYS622 
 ASP623  PHE694  ASN695  SER759  ASP760  ASP761  ALA762  ILE779  LEU786  VAL792 
 PHE793  MET794  SER795  GLU796  ALA797  LYS798  CYS799  TRP800  GLU811  SER814 

> <Gold.Protein.RotatedAtoms>
  150.9827  134.9179  159.7853 H   0  0  0  0  0  0  0  0  0  0  0  0  # atno 6907 bound_to 6896
  152.5227  134.3389  159.9220 H   0  0  0  0  0  0  0  0  0  0  0  0  # atno 6908 bound_to 6896
  151.3395  133.3927  159.2704 H   0  0  0  0  0  0  0  0  0  0  0  0  # atno 6909 bound_to 6896
  145.7050  140.9101  143.0711 H   0  0  0  0  0  0  0  0  0  0  0  0  # atno 7974 bound_to 7965
  155.9446  140.1115  157.1027 H   0  0  0  0  0  0  0  0  0  0  0  0  # atno 8008 bound_to 7997
  154.4096  140.1212  156.5038 H   0  0  0  0  0  0  0  0  0  0  0  0  # atno 8009 bound_to 7997
  155.6919  140.3472  155.4899 H   0  0  0  0  0  0  0  0  0  0  0  0  # atno 8010 bound_to 7997
  140.2574  144.3411  150.6329 H   0  0  0  0  0  0  0  0  0  0  0  0  # atno 10167 bound_to 10162
  156.2921  130.7381  151.1409 H   0  0  0  0  0  0  0  0  0  0  0  0  # atno 10718 bound_to 10713
  152.9785  135.5886  154.4217 H   0  0  0  0  0  0  0  0  0  0  0  0  # atno 10763 bound_to 10752
  154.3841  135.2767  155.2196 H   0  0  0  0  0  0  0  0  0  0  0  0  # atno 10764 bound_to 10752
  154.4097  135.6084  153.6000 H   0  0  0  0  0  0  0  0  0  0  0  0  # atno 10765 bound_to 10752
  139.9151  134.9629  156.7675 H   0  0  0  0  0  0  0  0  0  0  0  0  # atno 11005 bound_to 11000
  144.6958  139.8998  143.7458 LP  0  0  0  0  0  0  0  0  0  0  0  0  # atno 17320 bound_to 7965
  146.0764  139.3752  143.0491 LP  0  0  0  0  0  0  0  0  0  0  0  0  # atno 17321 bound_to 7965
  140.5993  143.2167  151.7103 LP  0  0  0  0  0  0  0  0  0  0  0  0  # atno 17342 bound_to 10162
  139.5027  144.3818  152.0368 LP  0  0  0  0  0  0  0  0  0  0  0  0  # atno 17343 bound_to 10162
  157.7345  131.0581  150.5520 LP  0  0  0  0  0  0  0  0  0  0  0  0  # atno 17370 bound_to 10713
  156.5637  130.4262  149.6051 LP  0  0  0  0  0  0  0  0  0  0  0  0  # atno 17371 bound_to 10713
  140.6647  133.9613  155.7824 LP  0  0  0  0  0  0  0  0  0  0  0  0  # atno 17394 bound_to 11000
  141.0619  134.0334  157.3647 LP  0  0  0  0  0  0  0  0  0  0  0  0  # atno 17395 bound_to 11000

$$$$
