AV-unprocessed.smi:2973|AV-procd|sdf|11346|dock7
  -GOLD-   2272016263D 1   1.00000     0.00000
 Structure written by MMmdl.
 48 50  0  0  0  0  0  0  0  0  2 V2000
  149.6796  141.5176  157.2840 C   0  0  0  0  0  0  0  0  0  0  0  0
  148.9010  140.9154  156.0937 C   0  0  1  0  0  0  0  0  0  0  0  0
  148.5064  142.0166  155.0858 C   0  0  0  0  0  0  0  0  0  0  0  0
  147.6381  141.4647  153.9456 C   0  0  0  0  0  0  0  0  0  0  0  0
  148.3433  140.3110  153.2209 C   0  0  0  0  0  0  0  0  0  0  0  0
  148.7395  139.1953  154.2028 C   0  0  0  0  0  0  0  0  0  0  0  0
  149.6041  139.7131  155.3820 C   0  0  1  0  0  0  0  0  0  0  0  0
  150.9354  140.0645  154.9127 N   0  5  0  0  0  0  0  0  0  0  0  0
  151.8407  139.2523  155.5053 C   0  0  0  0  0  0  0  0  0  0  0  0
  153.0589  139.2596  155.3335 O   0  0  0  0  0  0  0  0  0  0  0  0
  151.2373  138.3832  156.3389 N   0  0  0  0  0  0  0  0  0  0  0  0
  151.9256  137.3455  157.1233 C   0  0  0  0  0  0  0  0  0  0  0  0
  152.2559  137.7384  158.5738 C   0  0  0  0  0  0  0  0  0  0  0  0
  151.6833  137.1556  159.4943 O   0  0  0  0  0  0  0  0  0  0  0  0
  153.1591  138.7114  158.7824 N   0  0  0  0  0  0  0  0  0  0  0  0
  153.5655  139.2206  160.0862 C   0  0  0  0  0  0  0  0  0  0  0  0
  154.4473  140.4735  159.9503 C   0  0  0  0  0  0  0  0  0  0  0  0
  153.7291  141.7360  160.3882 C   0  0  0  0  0  0  0  0  0  0  0  0
  153.1411  142.5970  159.4369 C   0  0  0  0  0  0  0  0  0  0  0  0
  152.4850  143.7557  159.8953 C   0  0  0  0  0  0  0  0  0  0  0  0
  152.4417  144.0078  161.2799 C   0  0  0  0  0  0  0  0  0  0  0  0
  153.0573  143.0847  162.1485 C   0  0  0  0  0  0  0  0  0  0  0  0
  153.6881  141.9701  161.7196 N   0  0  0  0  0  0  0  0  0  0  0  0
  149.9126  138.5686  156.3365 C   0  0  0  0  0  0  0  0  0  0  0  0
  149.0658  137.9408  156.9741 O   0  0  0  0  0  0  0  0  0  0  0  0
  150.6286  141.9492  156.9652 H   0  0  0  0  0  0  0  0  0  0  0  0
  149.8931  140.7731  158.0507 H   0  0  0  0  0  0  0  0  0  0  0  0
  149.1052  142.3118  157.7608 H   0  0  0  0  0  0  0  0  0  0  0  0
  147.9666  140.5336  156.5093 H   0  0  0  0  0  0  0  0  0  0  0  0
  147.9628  142.8113  155.5975 H   0  0  0  0  0  0  0  0  0  0  0  0
  149.4031  142.4790  154.6709 H   0  0  0  0  0  0  0  0  0  0  0  0
  146.6844  141.1183  154.3453 H   0  0  0  0  0  0  0  0  0  0  0  0
  147.4069  142.2605  153.2372 H   0  0  0  0  0  0  0  0  0  0  0  0
  147.6920  139.9071  152.4457 H   0  0  0  0  0  0  0  0  0  0  0  0
  149.2311  140.6865  152.7109 H   0  0  0  0  0  0  0  0  0  0  0  0
  147.8266  138.7416  154.5922 H   0  0  0  0  0  0  0  0  0  0  0  0
  149.2595  138.4023  153.6619 H   0  0  0  0  0  0  0  0  0  0  0  0
  151.3183  136.4392  157.1438 H   0  0  0  0  0  0  0  0  0  0  0  0
  152.8544  137.0595  156.6269 H   0  0  0  0  0  0  0  0  0  0  0  0
  153.5805  139.1427  157.9716 H   0  0  0  0  0  0  0  0  0  0  0  0
  152.6864  139.4338  160.6967 H   0  0  0  0  0  0  0  0  0  0  0  0
  154.1158  138.4303  160.5976 H   0  0  0  0  0  0  0  0  0  0  0  0
  155.3541  140.3571  160.5462 H   0  0  0  0  0  0  0  0  0  0  0  0
  154.7750  140.5938  158.9169 H   0  0  0  0  0  0  0  0  0  0  0  0
  153.1900  142.3753  158.3810 H   0  0  0  0  0  0  0  0  0  0  0  0
  152.0232  144.4386  159.1977 H   0  0  0  0  0  0  0  0  0  0  0  0
  151.9483  144.8867  161.6673 H   0  0  0  0  0  0  0  0  0  0  0  0
  153.0433  143.2465  163.2162 H   0  0  0  0  0  0  0  0  0  0  0  0
  1  2  1  0  0  0  0
  1 26  1  0  0  0  0
  1 27  1  0  0  0  0
  1 28  1  0  0  0  0
  2  7  1  0  0  0  0
  2  3  1  0  0  0  0
  2 29  1  0  0  0  0
  3  4  1  0  0  0  0
  3 30  1  0  0  0  0
  3 31  1  0  0  0  0
  4  5  1  0  0  0  0
  4 32  1  0  0  0  0
  4 33  1  0  0  0  0
  5  6  1  0  0  0  0
  5 34  1  0  0  0  0
  5 35  1  0  0  0  0
  6  7  1  0  0  0  0
  6 36  1  0  0  0  0
  6 37  1  0  0  0  0
  7 24  1  0  0  0  0
  7  8  1  0  0  0  0
  8  9  1  0  0  0  0
  9 10  2  0  0  0  0
  9 11  1  0  0  0  0
 11 12  1  0  0  0  0
 11 24  1  0  0  0  0
 12 13  1  0  0  0  0
 12 38  1  0  0  0  0
 12 39  1  0  0  0  0
 13 14  2  0  0  0  0
 13 15  1  0  0  0  0
 15 16  1  0  0  0  0
 15 40  1  0  0  0  0
 16 17  1  0  0  0  0
 16 41  1  0  0  0  0
 16 42  1  0  0  0  0
 17 18  1  0  0  0  0
 17 43  1  0  0  0  0
 17 44  1  0  0  0  0
 18 23  1  0  0  0  0
 18 19  2  0  0  0  0
 19 20  1  0  0  0  0
 19 45  1  0  0  0  0
 20 21  2  0  0  0  0
 20 46  1  0  0  0  0
 21 22  1  0  0  0  0
 21 47  1  0  0  0  0
 22 23  2  0  0  0  0
 22 48  1  0  0  0  0
 24 25  2  0  0  0  0
M  CHG  1   8  -1
M  END
> <s_m_source_file>
AV-unprocessed.smi

> <i_m_source_file_index>
2973

> <i_lp_mmshare_version>
43012

> <i_f3d_flags>
0

> <s_epik_input>
W0NIMl0xW0NIMl1bQ0gyXVtDSDJdW0NAQEhdKFtDSDNdKVtDQF0xMltOSF1DKD1PKU4oQzI9TylbQ0gyXUMoPU8pW05IXVtDSDJdW0NIMl1jM1tjSF1bY0hdW2NIXVtjSF1uMw==

> <s_epik_cmdline>
J2VwaWtfcHl0aG9uJywgJy1waCcsICc3LjAnLCAnLXRuJywgJzgnLCAnLW1hJywgJzIwMCcsICctbWV0YWxfYmluZGluZycsICctaW1hZScsICc8aW5maWxlLm1hZT4nLCAnLW9tYWUnLCAnPG91dGZpbGUubWFlPic=

> <r_lp_tautomer_probability>
1

> <r_epik_Ionization_Penalty>
6.04175

> <r_epik_Ionization_Penalty_Charging>
6.01728

> <r_epik_Ionization_Penalty_Neutral>
0.0244696

> <r_epik_State_Penalty>
6.03712

> <r_epik_Charging_Adjusted_Penalty>
12.0544

> <i_epik_Tot_Q>
-1

> <i_epik_Tot_abs_Q>
1

> <r_epik_Metal_State_Penalty>
2.01153

> <b_epik_Metal_Only>
1

> <s_lp_Force_Field>
OPLS_2005

> <r_lp_Energy>
16.8957

> <b_lp_Chiralities_Consistent>
1

> <s_lp_Variant>
AV-unprocessed.smi:2973-10

> <Gold.Version>
5.8.1

> <Gold.Id.Protein>
6NUR|6NUR_protein|mol2

> <Gold.PLP.Fitness>
51.0409

> <Gold.PLP.PLP>
-44.1592

> <Gold.PLP.part.hbond>
-3.0000

> <Gold.PLP.part.metal>
0.0000

> <Gold.PLP.part.buried>
-0.1716

> <Gold.PLP.part.nonpolar>
-40.9794

> <Gold.PLP.part.repulsive>
0.1604

> <Gold.PLP.ligand.clash>
0.0000

> <Gold.PLP.ligand.torsion>
1.0708

> <Gold.PLP.Chemscore.Hbond>
3.0000

> <Gold.PLP.Chemscore.CHOScore>
0.0000

> <Gold.PLP.Chemscore.Metal>
0.0000

> <Gold.Chemscore.Hbonds>
donor molecule, donor type, donor heavy atom, donor atom, acceptor molecule, acceptor atom, score
      P1  H  6896  6909       L1    14  0.96
      P1  H  7989  7998       L1     8  1.00
      P1  H  7997  8008       L1    10  1.00

> <Gold.PLP.Chemscore.Internal.Correction>
0.0235

> <Gold.Rescore>
     Score         DG    S(hbond)    S(metal)    S(lipo)     H(rot)  DE(clash)    DE(int)     intcor
     21.74     -24.78       2.97        0.00     119.87       1.81       1.96       1.08       ----

> <Gold.Chemscore.Fitness>
21.7382

> <Gold.Chemscore.DG>
-24.7803

> <Gold.Chemscore.ZeroCoef>
-5.4800

> <Gold.Chemscore.Hbond>
2.9659

> <Gold.Chemscore.Metal>
0.0000

> <Gold.Chemscore.Lipo>
119.8730

> <Gold.Chemscore.Internal_Hbond>
0.0000

> <Gold.Chemscore.DEClash>
1.9607

> <Gold.Chemscore.DEInternal>
1.0814

> <Gold.Chemscore.Rot>
1.8090

> <Gold.Chemscore.Internal.Correction>
   9.000000E+99

> <Gold.Chemscore.Hbonds>
donor molecule, donor type, donor heavy atom, donor atom, acceptor molecule, acceptor atom, score
      P1  H  6896  6909       L1    14  0.91
      P1  H  7989  7998       L1     8  0.78
      P1  H  7997  8008       L1    10  1.00

> <Gold.Chemscore.Hbond.Weighted>
-9.9062

> <Gold.Chemscore.Metal.Weighted>
-0.0000

> <Gold.Chemscore.Lipo.Weighted>
-14.0251

> <Gold.Chemscore.Internal_Hbond.Weighted>
0.0000

> <Gold.Chemscore.DEClash.Weighted>
1.9607

> <Gold.Chemscore.DEInternal.Weighted>
1.0814

> <Gold.Chemscore.Rot.Weighted>
4.6310

> <Gold.Chemscore.Internal.Correction.Weighted>
   9.000000E+99

> <Gold.Protein.RotatedTorsions>
[ 6907 6896 6895 6894 ] final  117.64 input  -60.11 | X-H torsion
[ 7974 7965 7964 7962 ] final   94.52 input  175.53 | X-H torsion
[ 8008 7997 7996 7995 ] final  -30.51 input   59.86 | X-H torsion
[ 10167 10162 10161 10158 ] final  144.90 input  -65.29 | X-H torsion
[ 10718 10713 10712 10709 ] final  -34.18 input   66.30 | X-H torsion
[ 10763 10752 10751 10750 ] final  -93.89 input  -60.55 | X-H torsion
[ 11005 11000 10999 10996 ] final  150.54 input  -57.11 | X-H torsion

> <Gold.Protein.ActiveResidues>
 VAL166  LYS551  ARG553  GLY616  TRP617  ASP618  TYR619  PRO620  LYS621  CYS622 
 ASP623  PHE694  ASN695  SER759  ASP760  ASP761  ALA762  ILE779  LEU786  VAL792 
 PHE793  MET794  SER795  GLU796  ALA797  LYS798  CYS799  TRP800  GLU811  SER814 

> <Gold.Protein.RotatedAtoms>
  152.4598  133.7798  159.6844 H   0  0  0  0  0  0  0  0  0  0  0  0  # atno 6907 bound_to 6896
  150.8537  133.7737  159.3022 H   0  0  0  0  0  0  0  0  0  0  0  0  # atno 6908 bound_to 6896
  151.5324  135.1071  159.9958 H   0  0  0  0  0  0  0  0  0  0  0  0  # atno 6909 bound_to 6896
  145.4644  139.2285  143.2969 H   0  0  0  0  0  0  0  0  0  0  0  0  # atno 7974 bound_to 7965
  154.4248  140.1789  156.1418 H   0  0  0  0  0  0  0  0  0  0  0  0  # atno 8008 bound_to 7997
  155.9985  140.3362  155.6797 H   0  0  0  0  0  0  0  0  0  0  0  0  # atno 8009 bound_to 7997
  155.6275  140.0666  157.2650 H   0  0  0  0  0  0  0  0  0  0  0  0  # atno 8010 bound_to 7997
  139.4937  144.5940  151.6622 H   0  0  0  0  0  0  0  0  0  0  0  0  # atno 10167 bound_to 10162
  156.3536  130.4312  149.7683 H   0  0  0  0  0  0  0  0  0  0  0  0  # atno 10718 bound_to 10713
  154.7003  135.5178  153.8517 H   0  0  0  0  0  0  0  0  0  0  0  0  # atno 10763 bound_to 10752
  153.0699  135.6597  154.0281 H   0  0  0  0  0  0  0  0  0  0  0  0  # atno 10764 bound_to 10752
  154.0141  135.2999  155.3368 H   0  0  0  0  0  0  0  0  0  0  0  0  # atno 10765 bound_to 10752
  140.1140  134.8906  157.1977 H   0  0  0  0  0  0  0  0  0  0  0  0  # atno 11005 bound_to 11000
  146.2432  140.5416  142.8925 LP  0  0  0  0  0  0  0  0  0  0  0  0  # atno 17320 bound_to 7965
  144.7983  140.6165  143.6495 LP  0  0  0  0  0  0  0  0  0  0  0  0  # atno 17321 bound_to 7965
  140.5573  144.0327  150.6153 LP  0  0  0  0  0  0  0  0  0  0  0  0  # atno 17342 bound_to 10162
  140.3401  143.3025  152.0597 LP  0  0  0  0  0  0  0  0  0  0  0  0  # atno 17343 bound_to 10162
  156.4874  130.8069  151.3080 LP  0  0  0  0  0  0  0  0  0  0  0  0  # atno 17370 bound_to 10713
  157.7464  130.9986  150.2860 LP  0  0  0  0  0  0  0  0  0  0  0  0  # atno 17371 bound_to 10713
  140.3053  134.3085  155.7280 LP  0  0  0  0  0  0  0  0  0  0  0  0  # atno 17394 bound_to 11000
  141.2137  133.7617  156.9699 LP  0  0  0  0  0  0  0  0  0  0  0  0  # atno 17395 bound_to 11000

$$$$
