AV-unprocessed.smi:658|AV-procd|sdf|3230|dock1
  -GOLD-   22720 0173D 1   1.00000     0.00000
 Structure written by MMmdl.
 38 38  0  0  0  0  0  0  0  0  2 V2000
  152.5405  144.6004  157.6415 C   0  0  0  0  0  0  0  0  0  0  0  0
  151.8648  143.2415  157.8901 C   0  0  2  0  0  0  0  0  0  0  0  0
  150.9694  142.9504  156.7455 N   0  3  0  0  0  0  0  0  0  0  0  0
  150.2435  141.6660  156.8241 C   0  0  0  0  0  0  0  0  0  0  0  0
  149.1179  141.6104  155.7850 C   0  0  0  0  0  0  0  0  0  0  0  0
  148.5320  140.2001  155.6300 C   0  0  0  0  0  0  0  0  0  0  0  0
  149.7357  139.0477  154.8396 S   0  0  0  0  0  0  0  0  0  0  0  0
  149.0259  138.7861  153.2956 N   0  0  0  0  0  0  0  0  0  0  0  0
  151.0098  139.7505  154.6246 O   0  0  0  0  0  0  0  0  0  0  0  0
  149.6937  137.7654  155.5578 O   0  0  0  0  0  0  0  0  0  0  0  0
  151.0753  143.2046  159.2278 C   0  0  2  0  0  0  0  0  0  0  0  0
  150.2735  144.4911  159.5041 C   0  0  0  0  0  0  0  0  0  0  0  0
  151.9547  142.9196  160.3563 N   0  0  0  0  0  0  0  0  0  0  0  0
  152.7980  141.8428  160.5506 C   0  0  0  0  0  0  0  0  0  0  0  0
  153.3860  141.9990  161.7728 C   0  0  0  0  0  0  0  0  0  0  0  0
  152.8261  143.2102  162.2649 C   0  0  0  0  0  0  0  0  0  0  0  0
  151.9631  143.7524  161.4209 N   0  0  0  0  0  0  0  0  0  0  0  0
  153.3107  144.8111  158.3831 H   0  0  0  0  0  0  0  0  0  0  0  0
  151.8170  145.4161  157.6676 H   0  0  0  0  0  0  0  0  0  0  0  0
  153.0279  144.6213  156.6661 H   0  0  0  0  0  0  0  0  0  0  0  0
  152.6546  142.4884  157.9240 H   0  0  0  0  0  0  0  0  0  0  0  0
  150.2976  143.7014  156.6713 H   0  0  0  0  0  0  0  0  0  0  0  0
  150.9470  140.8483  156.6625 H   0  0  0  0  0  0  0  0  0  0  0  0
  149.8252  141.5373  157.8223 H   0  0  0  0  0  0  0  0  0  0  0  0
  148.3242  142.3001  156.0752 H   0  0  0  0  0  0  0  0  0  0  0  0
  149.4950  141.9569  154.8222 H   0  0  0  0  0  0  0  0  0  0  0  0
  148.2849  139.7929  156.6108 H   0  0  0  0  0  0  0  0  0  0  0  0
  147.6171  140.2026  155.0367 H   0  0  0  0  0  0  0  0  0  0  0  0
  148.9302  137.7981  153.0606 H   0  0  0  0  0  0  0  0  0  0  0  0
  149.4323  139.3670  152.5626 H   0  0  0  0  0  0  0  0  0  0  0  0
  150.3507  142.3899  159.1677 H   0  0  0  0  0  0  0  0  0  0  0  0
  149.4738  144.6309  158.7773 H   0  0  0  0  0  0  0  0  0  0  0  0
  150.9091  145.3764  159.4739 H   0  0  0  0  0  0  0  0  0  0  0  0
  149.8022  144.4533  160.4871 H   0  0  0  0  0  0  0  0  0  0  0  0
  152.9093  141.0619  159.8126 H   0  0  0  0  0  0  0  0  0  0  0  0
  154.1058  141.3464  162.2446 H   0  0  0  0  0  0  0  0  0  0  0  0
  153.0164  143.7055  163.2057 H   0  0  0  0  0  0  0  0  0  0  0  0
  151.5271  142.9367  155.9034 H   0  0  0  0  0  0  0  0  0  0  0  0
  1  2  1  0  0  0  0
  1 18  1  0  0  0  0
  1 19  1  0  0  0  0
  1 20  1  0  0  0  0
  2  3  1  0  0  0  0
  2 11  1  0  0  0  0
  2 21  1  0  0  0  0
  3  4  1  0  0  0  0
  3 22  1  0  0  0  0
  3 38  1  0  0  0  0
  4  5  1  0  0  0  0
  4 23  1  0  0  0  0
  4 24  1  0  0  0  0
  5  6  1  0  0  0  0
  5 25  1  0  0  0  0
  5 26  1  0  0  0  0
  6  7  1  0  0  0  0
  6 27  1  0  0  0  0
  6 28  1  0  0  0  0
  7  8  1  0  0  0  0
  7  9  2  0  0  0  0
  7 10  2  0  0  0  0
  8 29  1  0  0  0  0
  8 30  1  0  0  0  0
 11 12  1  0  0  0  0
 11 13  1  0  0  0  0
 11 31  1  0  0  0  0
 12 32  1  0  0  0  0
 12 33  1  0  0  0  0
 12 34  1  0  0  0  0
 13 17  1  0  0  0  0
 13 14  1  0  0  0  0
 14 15  2  0  0  0  0
 14 35  1  0  0  0  0
 15 16  1  0  0  0  0
 15 36  1  0  0  0  0
 16 17  2  0  0  0  0
 16 37  1  0  0  0  0
M  CHG  1   3   1
M  END
> <s_m_source_file>
AV-unprocessed.smi

> <i_m_source_file_index>
658

> <i_lp_mmshare_version>
43012

> <i_f3d_flags>
0

> <s_epik_input>
bjFbY0hdW2NIXVtjSF1uMVtDQEBIXShbQ0gzXSlbQ0BIXShbQ0gzXSlbTkhdW0NIMl1bQ0gyXVtDSDJdUyg9TykoPU8pW05IMl0=

> <s_epik_cmdline>
J2VwaWtfcHl0aG9uJywgJy1waCcsICc3LjAnLCAnLXRuJywgJzgnLCAnLW1hJywgJzIwMCcsICctbWV0YWxfYmluZGluZycsICctaW1hZScsICc8aW5maWxlLm1hZT4nLCAnLW9tYWUnLCAnPG91dGZpbGUubWFlPic=

> <r_lp_tautomer_probability>
1

> <r_epik_Ionization_Penalty>
0.00535781

> <r_epik_Ionization_Penalty_Charging>
0.00511015

> <r_epik_Ionization_Penalty_Neutral>
0.000247661

> <r_epik_State_Penalty>
-0

> <r_epik_Charging_Adjusted_Penalty>
0.00511015

> <i_epik_Tot_Q>
1

> <i_epik_Tot_abs_Q>
1

> <r_epik_Metal_State_Penalty>
0.149106

> <b_epik_Metal_Only>
0

> <s_lp_Force_Field>
OPLS_2005

> <r_lp_Energy>
8.18413

> <b_lp_Chiralities_Consistent>
1

> <s_lp_Variant>
AV-unprocessed.smi:658-1

> <Gold.Version>
5.8.1

> <Gold.Id.Protein>
6NUR|6NUR_protein|mol2

> <Gold.PLP.Fitness>
52.3159

> <Gold.PLP.PLP>
-38.4905

> <Gold.PLP.part.hbond>
-3.9323

> <Gold.PLP.part.metal>
0.0000

> <Gold.PLP.part.buried>
-7.0948

> <Gold.PLP.part.nonpolar>
-27.5887

> <Gold.PLP.part.repulsive>
0.3531

> <Gold.PLP.ligand.clash>
0.0000

> <Gold.PLP.ligand.torsion>
0.7241

> <Gold.PLP.Chemscore.Hbond>
4.9760

> <Gold.PLP.Chemscore.CHOScore>
0.0000

> <Gold.PLP.Chemscore.Metal>
0.0000

> <Gold.Chemscore.Hbonds>
donor molecule, donor type, donor heavy atom, donor atom, acceptor molecule, acceptor atom, score
      L1  H     3    22       P1  8028  2.00
      L1  H     8    29       P1  7948  1.00
      L1  H     8    30       P1  7957  1.00
      P1  H  7989  7998       L1     9  1.00

> <Gold.PLP.Chemscore.Internal.Correction>
0.3455

> <Gold.Rescore>
     Score         DG    S(hbond)    S(metal)    S(lipo)     H(rot)  DE(clash)    DE(int)     intcor
     20.80     -21.52       3.97        0.00      92.23       3.13       0.24       0.47       ----

> <Gold.Chemscore.Fitness>
20.8040

> <Gold.Chemscore.DG>
-21.5202

> <Gold.Chemscore.ZeroCoef>
-5.4800

> <Gold.Chemscore.Hbond>
3.9716

> <Gold.Chemscore.Metal>
0.0000

> <Gold.Chemscore.Lipo>
92.2305

> <Gold.Chemscore.Internal_Hbond>
0.0000

> <Gold.Chemscore.DEClash>
0.2434

> <Gold.Chemscore.DEInternal>
0.4728

> <Gold.Chemscore.Rot>
3.1312

> <Gold.Chemscore.Internal.Correction>
   9.000000E+99

> <Gold.Chemscore.Hbonds>
donor molecule, donor type, donor heavy atom, donor atom, acceptor molecule, acceptor atom, score
      L1  H     3    22       P1  8028  0.92
      L1  H     8    29       P1  7948  0.96
      L1  H     8    30       P1  7957  0.95
      P1  H  7989  7998       L1     9  1.00

> <Gold.Chemscore.Hbond.Weighted>
-13.2652

> <Gold.Chemscore.Metal.Weighted>
-0.0000

> <Gold.Chemscore.Lipo.Weighted>
-10.7910

> <Gold.Chemscore.Internal_Hbond.Weighted>
0.0000

> <Gold.Chemscore.DEClash.Weighted>
0.2434

> <Gold.Chemscore.DEInternal.Weighted>
0.4728

> <Gold.Chemscore.Rot.Weighted>
8.0160

> <Gold.Chemscore.Internal.Correction.Weighted>
   9.000000E+99

> <Gold.Protein.RotatedTorsions>
[ 6907 6896 6895 6894 ] final  157.21 input  -60.11 | X-H torsion
[ 7974 7965 7964 7962 ] final -175.64 input  175.53 | X-H torsion
[ 8008 7997 7996 7995 ] final   88.97 input   59.86 | X-H torsion
[ 10167 10162 10161 10158 ] final  -63.74 input  -65.29 | X-H torsion
[ 10718 10713 10712 10709 ] final  -78.36 input   66.30 | X-H torsion
[ 10763 10752 10751 10750 ] final   70.28 input  -60.55 | X-H torsion
[ 11005 11000 10999 10996 ] final -159.43 input  -57.11 | X-H torsion

> <Gold.Protein.ActiveResidues>
 VAL166  LYS551  ARG553  GLY616  TRP617  ASP618  TYR619  PRO620  LYS621  CYS622 
 ASP623  PHE694  ASN695  SER759  ASP760  ASP761  ALA762  ILE779  LEU786  VAL792 
 PHE793  MET794  SER795  GLU796  ALA797  LYS798  CYS799  TRP800  GLU811  SER814 

> <Gold.Protein.RotatedAtoms>
  152.0184  133.3889  159.4247 H   0  0  0  0  0  0  0  0  0  0  0  0  # atno 6907 bound_to 6896
  150.6892  134.3653  159.4977 H   0  0  0  0  0  0  0  0  0  0  0  0  # atno 6908 bound_to 6896
  152.1423  134.9052  160.0603 H   0  0  0  0  0  0  0  0  0  0  0  0  # atno 6909 bound_to 6896
  144.7128  140.1291  143.6400 H   0  0  0  0  0  0  0  0  0  0  0  0  # atno 7974 bound_to 7965
  155.9942  140.3366  155.6783 H   0  0  0  0  0  0  0  0  0  0  0  0  # atno 8008 bound_to 7997
  155.6378  140.0692  157.2646 H   0  0  0  0  0  0  0  0  0  0  0  0  # atno 8009 bound_to 7997
  154.4229  140.1748  156.1529 H   0  0  0  0  0  0  0  0  0  0  0  0  # atno 8010 bound_to 7997
  140.5850  143.2332  151.6263 H   0  0  0  0  0  0  0  0  0  0  0  0  # atno 10167 bound_to 10162
  156.0119  130.4516  150.3485 H   0  0  0  0  0  0  0  0  0  0  0  0  # atno 10718 bound_to 10713
  153.0333  135.5179  154.7417 H   0  0  0  0  0  0  0  0  0  0  0  0  # atno 10763 bound_to 10752
  154.6414  135.2913  155.0101 H   0  0  0  0  0  0  0  0  0  0  0  0  # atno 10764 bound_to 10752
  154.1017  135.6635  153.4922 H   0  0  0  0  0  0  0  0  0  0  0  0  # atno 10765 bound_to 10752
  140.6427  134.4534  157.5233 H   0  0  0  0  0  0  0  0  0  0  0  0  # atno 11005 bound_to 11000
  145.9303  139.2602  143.1329 LP  0  0  0  0  0  0  0  0  0  0  0  0  # atno 17320 bound_to 7965
  145.9530  140.8894  143.0249 LP  0  0  0  0  0  0  0  0  0  0  0  0  # atno 17321 bound_to 7965
  139.5192  144.3261  152.0868 LP  0  0  0  0  0  0  0  0  0  0  0  0  # atno 17342 bound_to 10162
  140.2416  144.4263  150.6257 LP  0  0  0  0  0  0  0  0  0  0  0  0  # atno 17343 bound_to 10162
  157.1578  131.0337  151.2855 LP  0  0  0  0  0  0  0  0  0  0  0  0  # atno 17370 bound_to 10713
  157.4337  130.7505  149.7011 LP  0  0  0  0  0  0  0  0  0  0  0  0  # atno 17371 bound_to 10713
  139.9074  134.8418  156.1654 LP  0  0  0  0  0  0  0  0  0  0  0  0  # atno 17394 bound_to 11000
  141.0595  133.6849  156.1925 LP  0  0  0  0  0  0  0  0  0  0  0  0  # atno 17395 bound_to 11000

$$$$
