AV-unprocessed.smi:3021|AV-procd|sdf|11499|dock7
  -GOLD-   2272016433D 1   1.00000     0.00000
 Structure written by MMmdl.
 35 37  0  0  0  0  0  0  0  0  1 V2000
  152.1512  137.3059  153.6743 O   0  0  0  0  0  0  0  0  0  0  0  0
  151.3775  137.9464  154.6698 C   0  0  1  0  0  0  0  0  0  0  0  0
  150.6291  136.8690  155.4693 C   0  0  0  0  0  0  0  0  0  0  0  0
  150.1057  135.9089  154.5671 O   0  0  0  0  0  0  0  0  0  0  0  0
  149.3580  134.8933  155.2178 C   0  0  0  0  0  0  0  0  0  0  0  0
  149.3840  133.6727  154.3527 C   0  0  0  0  0  0  0  0  0  0  0  0
  149.9091  132.4220  154.5284 C   0  0  0  0  0  0  0  0  0  0  0  0
  149.6071  131.6870  153.3486 C   0  0  0  0  0  0  0  0  0  0  0  0
  148.9185  132.5434  152.5378 C   0  0  0  0  0  0  0  0  0  0  0  0
  148.7719  133.7572  153.1351 O   0  0  0  0  0  0  0  0  0  0  0  0
  152.3062  138.7880  155.5667 C   0  0  0  0  0  0  0  0  0  0  0  0
  151.6588  139.9891  156.0654 N   0  0  0  0  0  0  0  0  0  0  0  0
  150.7639  140.6502  155.2776 N   0  0  0  0  0  0  0  0  0  0  0  0
  150.3194  141.6832  155.9293 N   0  0  0  0  0  0  0  0  0  0  0  0
  150.9331  141.7033  157.1706 C   0  0  0  0  0  0  0  0  0  0  0  0
  150.8198  142.5908  158.2640 C   0  0  0  0  0  0  0  0  0  0  0  0
  151.5747  142.3772  159.4383 C   0  0  0  0  0  0  0  0  0  0  0  0
  151.4084  143.4844  160.7544 Cl  0  0  0  0  0  0  0  0  0  0  0  0
  152.4534  141.2709  159.5315 C   0  0  0  0  0  0  0  0  0  0  0  0
  153.3838  140.9944  160.9608 Cl  0  0  0  0  0  0  0  0  0  0  0  0
  152.5768  140.3779  158.4485 C   0  0  0  0  0  0  0  0  0  0  0  0
  151.8164  140.6086  157.2897 C   0  0  0  0  0  0  0  0  0  0  0  0
  151.5834  137.0864  152.9511 H   0  0  0  0  0  0  0  0  0  0  0  0
  150.6568  138.6076  154.1868 H   0  0  0  0  0  0  0  0  0  0  0  0
  151.2792  136.4061  156.2141 H   0  0  0  0  0  0  0  0  0  0  0  0
  149.7943  137.3228  156.0059 H   0  0  0  0  0  0  0  0  0  0  0  0
  149.7903  134.6689  156.1938 H   0  0  0  0  0  0  0  0  0  0  0  0
  148.3281  135.2175  155.3734 H   0  0  0  0  0  0  0  0  0  0  0  0
  150.4453  132.0779  155.4004 H   0  0  0  0  0  0  0  0  0  0  0  0
  149.8613  130.6622  153.1221 H   0  0  0  0  0  0  0  0  0  0  0  0
  148.4810  132.4575  151.5542 H   0  0  0  0  0  0  0  0  0  0  0  0
  152.6275  138.2012  156.4281 H   0  0  0  0  0  0  0  0  0  0  0  0
  153.2123  139.0662  155.0254 H   0  0  0  0  0  0  0  0  0  0  0  0
  150.1509  143.4365  158.1992 H   0  0  0  0  0  0  0  0  0  0  0  0
  153.2426  139.5295  158.5066 H   0  0  0  0  0  0  0  0  0  0  0  0
  1  2  1  0  0  0  0
  1 23  1  0  0  0  0
  2  3  1  0  0  0  0
  2 11  1  0  0  0  0
  2 24  1  0  0  0  0
  3  4  1  0  0  0  0
  3 25  1  0  0  0  0
  3 26  1  0  0  0  0
  4  5  1  0  0  0  0
  5  6  1  0  0  0  0
  5 27  1  0  0  0  0
  5 28  1  0  0  0  0
  6 10  1  0  0  0  0
  6  7  2  0  0  0  0
  7  8  1  0  0  0  0
  7 29  1  0  0  0  0
  8  9  2  0  0  0  0
  8 30  1  0  0  0  0
  9 10  1  0  0  0  0
  9 31  1  0  0  0  0
 11 12  1  0  0  0  0
 11 32  1  0  0  0  0
 11 33  1  0  0  0  0
 12 22  1  0  0  0  0
 12 13  1  0  0  0  0
 13 14  2  0  0  0  0
 14 15  1  0  0  0  0
 15 22  2  0  0  0  0
 15 16  1  0  0  0  0
 16 17  2  0  0  0  0
 16 34  1  0  0  0  0
 17 18  1  0  0  0  0
 17 19  1  0  0  0  0
 19 20  1  0  0  0  0
 19 21  2  0  0  0  0
 21 22  1  0  0  0  0
 21 35  1  0  0  0  0
M  END
> <s_m_source_file>
AV-unprocessed.smi

> <i_m_source_file_index>
3021

> <i_lp_mmshare_version>
43012

> <i_f3d_flags>
0

> <s_epik_input>
W2NIXTFjKENsKWMoQ2wpW2NIXWMoYzEyKW4obm4yKVtDSDJdW0NASF0oW09IXSlbQ0gyXU9bQ0gyXWMzW2NIXVtjSF1bY0hdbzM=

> <s_epik_cmdline>
J2VwaWtfcHl0aG9uJywgJy1waCcsICc3LjAnLCAnLXRuJywgJzgnLCAnLW1hJywgJzIwMCcsICctbWV0YWxfYmluZGluZycsICctaW1hZScsICc8aW5maWxlLm1hZT4nLCAnLW9tYWUnLCAnPG91dGZpbGUubWFlPic=

> <r_lp_tautomer_probability>
1

> <r_epik_Ionization_Penalty>
6.1367e-06

> <r_epik_Ionization_Penalty_Charging>
0

> <r_epik_Ionization_Penalty_Neutral>
6.1367e-06

> <r_epik_State_Penalty>
-0

> <r_epik_Charging_Adjusted_Penalty>
0

> <i_epik_Tot_Q>
0

> <i_epik_Tot_abs_Q>
0

> <r_epik_Metal_State_Penalty>
-0

> <b_epik_Metal_Only>
0

> <s_lp_Force_Field>
OPLS_2005

> <r_lp_Energy>
8.01921

> <b_lp_Chiralities_Consistent>
1

> <s_lp_Variant>
AV-unprocessed.smi:3021-2

> <Gold.Version>
5.8.1

> <Gold.Id.Protein>
6NUR|6NUR_protein|mol2

> <Gold.PLP.Fitness>
53.6961

> <Gold.PLP.PLP>
-43.8778

> <Gold.PLP.part.hbond>
-3.0008

> <Gold.PLP.part.metal>
0.0000

> <Gold.PLP.part.buried>
-5.5168

> <Gold.PLP.part.nonpolar>
-34.8520

> <Gold.PLP.part.repulsive>
0.5009

> <Gold.PLP.ligand.clash>
0.0000

> <Gold.PLP.ligand.torsion>
1.0726

> <Gold.PLP.Chemscore.Hbond>
2.9280

> <Gold.PLP.Chemscore.CHOScore>
1.0000

> <Gold.PLP.Chemscore.Metal>
0.0000

> <Gold.Chemscore.Hbonds>
donor molecule, donor type, donor heavy atom, donor atom, acceptor molecule, acceptor atom, score
      L1  H     1    23       P1  7949  0.99
      P1  H  7989  7998       L1    13  0.91
      P1  H 10752 10763       L1     1  1.00
      L1  C     9    31       P1 10747  0.81

> <Gold.PLP.Chemscore.Internal.Correction>
0.1794

> <Gold.Rescore>
     Score         DG    S(hbond)    S(metal)    S(lipo)     H(rot)  DE(clash)    DE(int)     intcor
     19.26     -20.54       2.50        0.00     111.23       2.46       0.25       1.03       ----

> <Gold.Chemscore.Fitness>
19.2627

> <Gold.Chemscore.DG>
-20.5444

> <Gold.Chemscore.ZeroCoef>
-5.4800

> <Gold.Chemscore.Hbond>
2.5029

> <Gold.Chemscore.Metal>
0.0000

> <Gold.Chemscore.Lipo>
111.2348

> <Gold.Chemscore.Internal_Hbond>
0.0000

> <Gold.Chemscore.DEClash>
0.2504

> <Gold.Chemscore.DEInternal>
1.0312

> <Gold.Chemscore.Rot>
2.4647

> <Gold.Chemscore.Internal.Correction>
   9.000000E+99

> <Gold.Chemscore.Hbonds>
donor molecule, donor type, donor heavy atom, donor atom, acceptor molecule, acceptor atom, score
      L1  H     1    23       P1  7949  0.90
      P1  H  7989  7998       L1    13  0.51
      P1  H 10752 10763       L1     1  0.33

> <Gold.Chemscore.Hbond.Weighted>
-8.3595

> <Gold.Chemscore.Metal.Weighted>
-0.0000

> <Gold.Chemscore.Lipo.Weighted>
-13.0145

> <Gold.Chemscore.Internal_Hbond.Weighted>
0.0000

> <Gold.Chemscore.DEClash.Weighted>
0.2504

> <Gold.Chemscore.DEInternal.Weighted>
1.0312

> <Gold.Chemscore.Rot.Weighted>
6.3097

> <Gold.Chemscore.Internal.Correction.Weighted>
   9.000000E+99

> <Gold.Protein.RotatedTorsions>
[ 6907 6896 6895 6894 ] final  -29.13 input  -60.11 | X-H torsion
[ 7974 7965 7964 7962 ] final   75.19 input  175.53 | X-H torsion
[ 8008 7997 7996 7995 ] final   85.76 input   59.86 | X-H torsion
[ 10167 10162 10161 10158 ] final  176.15 input  -65.29 | X-H torsion
[ 10718 10713 10712 10709 ] final  141.20 input   66.30 | X-H torsion
[ 10763 10752 10751 10750 ] final   18.53 input  -60.55 | X-H torsion
[ 11005 11000 10999 10996 ] final  176.10 input  -57.11 | X-H torsion

> <Gold.Protein.ActiveResidues>
 VAL166  LYS551  ARG553  GLY616  TRP617  ASP618  TYR619  PRO620  LYS621  CYS622 
 ASP623  PHE694  ASN695  SER759  ASP760  ASP761  ALA762  ILE779  LEU786  VAL792 
 PHE793  MET794  SER795  GLU796  ALA797  LYS798  CYS799  TRP800  GLU811  SER814 

> <Gold.Protein.RotatedAtoms>
  151.1234  135.0091  159.8548 H   0  0  0  0  0  0  0  0  0  0  0  0  # atno 6907 bound_to 6896
  152.5448  134.1696  159.8601 H   0  0  0  0  0  0  0  0  0  0  0  0  # atno 6908 bound_to 6896
  151.1756  133.4712  159.2627 H   0  0  0  0  0  0  0  0  0  0  0  0  # atno 6909 bound_to 6896
  145.7187  139.2640  143.1608 H   0  0  0  0  0  0  0  0  0  0  0  0  # atno 7974 bound_to 7965
  155.9542  140.3398  155.6434 H   0  0  0  0  0  0  0  0  0  0  0  0  # atno 8008 bound_to 7997
  155.6881  140.0745  157.2477 H   0  0  0  0  0  0  0  0  0  0  0  0  # atno 8009 bound_to 7997
  154.4128  140.1662  156.2044 H   0  0  0  0  0  0  0  0  0  0  0  0  # atno 8010 bound_to 7997
  139.5204  144.2948  152.0431 H   0  0  0  0  0  0  0  0  0  0  0  0  # atno 10167 bound_to 10162
  157.3947  131.1009  151.0612 H   0  0  0  0  0  0  0  0  0  0  0  0  # atno 10718 bound_to 10713
  153.1241  135.6725  153.9287 H   0  0  0  0  0  0  0  0  0  0  0  0  # atno 10763 bound_to 10752
  153.8793  135.3060  155.3446 H   0  0  0  0  0  0  0  0  0  0  0  0  # atno 10764 bound_to 10752
  154.7648  135.4969  153.9614 H   0  0  0  0  0  0  0  0  0  0  0  0  # atno 10765 bound_to 10752
  140.3694  134.7043  157.4383 H   0  0  0  0  0  0  0  0  0  0  0  0  # atno 11005 bound_to 11000
  146.0645  140.7935  142.9718 LP  0  0  0  0  0  0  0  0  0  0  0  0  # atno 17320 bound_to 7965
  144.6922  140.3248  143.7226 LP  0  0  0  0  0  0  0  0  0  0  0  0  # atno 17321 bound_to 7965
  140.2398  144.4281  150.6265 LP  0  0  0  0  0  0  0  0  0  0  0  0  # atno 17342 bound_to 10162
  140.6298  143.2186  151.6519 LP  0  0  0  0  0  0  0  0  0  0  0  0  # atno 17343 bound_to 10162
  157.1633  130.6235  149.5617 LP  0  0  0  0  0  0  0  0  0  0  0  0  # atno 17370 bound_to 10713
  155.9807  130.4810  150.6788 LP  0  0  0  0  0  0  0  0  0  0  0  0  # atno 17371 bound_to 10713
  140.0563  134.6058  155.8801 LP  0  0  0  0  0  0  0  0  0  0  0  0  # atno 17394 bound_to 11000
  141.1959  133.6589  156.5666 LP  0  0  0  0  0  0  0  0  0  0  0  0  # atno 17395 bound_to 11000

$$$$
