AV-unprocessed.smi:824|AV-procd|sdf|3849|dock1
  -GOLD-   22720 1293D 1   1.00000     0.00000
 Structure written by MMmdl.
 52 53  0  0  0  0  0  0  0  0  1 V2000
  147.7229  142.1209  154.2214 C   0  0  0  0  0  0  0  0  0  0  0  0
  148.9842  141.5095  154.8061 C   0  0  0  0  0  0  0  0  0  0  0  0
  149.5601  142.2449  155.8260 N   0  0  0  0  0  0  0  0  0  0  0  0
  150.7217  141.7764  156.4271 C   0  0  0  0  0  0  0  0  0  0  0  0
  151.2101  142.5930  157.4444 N   0  0  0  0  0  0  0  0  0  0  0  0
  151.4911  143.9992  157.1574 C   0  0  0  0  0  0  0  0  0  0  0  0
  151.5661  144.8286  158.4505 C   0  0  0  0  0  0  0  0  0  0  0  0
  152.5345  144.2646  159.3252 O   0  0  0  0  0  0  0  0  0  0  0  0
  152.1924  142.9343  159.6918 C   0  0  0  0  0  0  0  0  0  0  0  0
  152.1386  142.0497  158.4351 C   0  0  0  0  0  0  0  0  0  0  0  0
  151.3032  140.6645  156.0803 N   0  0  0  0  0  0  0  0  0  0  0  0
  150.7712  139.8778  155.0478 C   0  0  0  0  0  0  0  0  0  0  0  0
  151.3252  138.8323  154.7114 O   0  0  0  0  0  0  0  0  0  0  0  0
  149.5382  140.3484  154.3829 C   0  0  0  0  0  0  0  0  0  0  0  0
  148.9419  139.4991  153.2635 C   0  0  0  0  0  0  0  0  0  0  0  0
  147.4406  139.2272  153.4842 C   0  0  0  0  0  0  0  0  0  0  0  0
  146.8224  138.2670  152.4506 C   0  0  0  0  0  0  0  0  0  0  0  0
  146.8877  138.5566  151.2543 O   0  0  0  0  0  0  0  0  0  0  0  0
  146.1980  137.1426  152.8800 N   0  0  0  0  0  0  0  0  0  0  0  0
  146.2342  136.7862  154.3024 C   0  0  0  0  0  0  0  0  0  0  0  0
  145.5182  136.1770  152.0008 C   0  0  0  0  0  0  0  0  0  0  0  0
  144.2146  135.6069  152.6112 C   0  0  0  0  0  0  0  0  0  0  0  0
  143.6221  134.4536  151.7835 C   0  0  0  0  0  0  0  0  0  0  0  0
  143.1753  136.7218  152.7987 C   0  0  0  0  0  0  0  0  0  0  0  0
  149.1083  143.1040  156.1039 H   0  0  0  0  0  0  0  0  0  0  0  0
  147.8261  142.2516  153.1440 H   0  0  0  0  0  0  0  0  0  0  0  0
  147.5093  143.0972  154.6579 H   0  0  0  0  0  0  0  0  0  0  0  0
  146.8653  141.4748  154.4103 H   0  0  0  0  0  0  0  0  0  0  0  0
  150.7296  144.4237  156.5024 H   0  0  0  0  0  0  0  0  0  0  0  0
  152.4385  144.0644  156.6207 H   0  0  0  0  0  0  0  0  0  0  0  0
  151.8512  145.8556  158.2214 H   0  0  0  0  0  0  0  0  0  0  0  0
  150.5932  144.8708  158.9427 H   0  0  0  0  0  0  0  0  0  0  0  0
  152.9412  142.5540  160.3866 H   0  0  0  0  0  0  0  0  0  0  0  0
  151.2357  142.9231  160.2164 H   0  0  0  0  0  0  0  0  0  0  0  0
  153.1316  141.9740  157.9898 H   0  0  0  0  0  0  0  0  0  0  0  0
  151.8375  141.0395  158.7170 H   0  0  0  0  0  0  0  0  0  0  0  0
  149.4803  138.5540  153.1924 H   0  0  0  0  0  0  0  0  0  0  0  0
  149.1056  139.9951  152.3054 H   0  0  0  0  0  0  0  0  0  0  0  0
  147.3087  138.8263  154.4873 H   0  0  0  0  0  0  0  0  0  0  0  0
  146.8923  140.1691  153.4453 H   0  0  0  0  0  0  0  0  0  0  0  0
  145.8835  137.6139  154.9208 H   0  0  0  0  0  0  0  0  0  0  0  0
  147.2526  136.5411  154.6067 H   0  0  0  0  0  0  0  0  0  0  0  0
  145.6039  135.9275  154.5354 H   0  0  0  0  0  0  0  0  0  0  0  0
  145.3062  136.6366  151.0350 H   0  0  0  0  0  0  0  0  0  0  0  0
  146.1943  135.3554  151.7599 H   0  0  0  0  0  0  0  0  0  0  0  0
  144.4334  135.2073  153.6007 H   0  0  0  0  0  0  0  0  0  0  0  0
  143.4082  134.7676  150.7614 H   0  0  0  0  0  0  0  0  0  0  0  0
  142.6904  134.0948  152.2219 H   0  0  0  0  0  0  0  0  0  0  0  0
  144.3019  133.6029  151.7378 H   0  0  0  0  0  0  0  0  0  0  0  0
  142.8944  137.1667  151.8434 H   0  0  0  0  0  0  0  0  0  0  0  0
  143.5624  137.5173  153.4359 H   0  0  0  0  0  0  0  0  0  0  0  0
  142.2679  136.3400  153.2675 H   0  0  0  0  0  0  0  0  0  0  0  0
  1 26  1  0  0  0  0
  1 27  1  0  0  0  0
  1 28  1  0  0  0  0
  1  2  1  0  0  0  0
  2 14  2  0  0  0  0
  2  3  1  0  0  0  0
  3 25  1  0  0  0  0
  3  4  1  0  0  0  0
  4  5  1  0  0  0  0
  4 11  2  0  0  0  0
  5 10  1  0  0  0  0
  5  6  1  0  0  0  0
  6  7  1  0  0  0  0
  6 29  1  0  0  0  0
  6 30  1  0  0  0  0
  7  8  1  0  0  0  0
  7 31  1  0  0  0  0
  7 32  1  0  0  0  0
  8  9  1  0  0  0  0
  9 10  1  0  0  0  0
  9 33  1  0  0  0  0
  9 34  1  0  0  0  0
 10 35  1  0  0  0  0
 10 36  1  0  0  0  0
 11 12  1  0  0  0  0
 12 13  2  0  0  0  0
 12 14  1  0  0  0  0
 14 15  1  0  0  0  0
 15 16  1  0  0  0  0
 15 37  1  0  0  0  0
 15 38  1  0  0  0  0
 16 17  1  0  0  0  0
 16 39  1  0  0  0  0
 16 40  1  0  0  0  0
 17 18  2  0  0  0  0
 17 19  1  0  0  0  0
 19 20  1  0  0  0  0
 19 21  1  0  0  0  0
 20 41  1  0  0  0  0
 20 42  1  0  0  0  0
 20 43  1  0  0  0  0
 21 22  1  0  0  0  0
 21 44  1  0  0  0  0
 21 45  1  0  0  0  0
 22 23  1  0  0  0  0
 22 24  1  0  0  0  0
 22 46  1  0  0  0  0
 23 47  1  0  0  0  0
 23 48  1  0  0  0  0
 23 49  1  0  0  0  0
 24 50  1  0  0  0  0
 24 51  1  0  0  0  0
 24 52  1  0  0  0  0
M  END
> <s_m_source_file>
AV-unprocessed.smi

> <i_m_source_file_index>
824

> <i_lp_mmshare_version>
43012

> <i_f3d_flags>
0

> <s_epik_input>
W0NIMl0xW0NIMl1PW0NIMl1bQ0gyXU4xYyhuYzJbQ0gzXSlbbkhdYyg9TyljMltDSDJdW0NIMl1DKD1PKU4oW0NIM10pW0NIMl1bQ0hdKFtDSDNdKVtDSDNd

> <s_epik_cmdline>
J2VwaWtfcHl0aG9uJywgJy1waCcsICc3LjAnLCAnLXRuJywgJzgnLCAnLW1hJywgJzIwMCcsICctbWV0YWxfYmluZGluZycsICctaW1hZScsICc8aW5maWxlLm1hZT4nLCAnLW9tYWUnLCAnPG91dGZpbGUubWFlPic=

> <r_lp_tautomer_probability>
0.108306

> <r_epik_Ionization_Penalty>
0.0729191

> <r_epik_Ionization_Penalty_Charging>
0.0597558

> <r_epik_Ionization_Penalty_Neutral>
0.0131634

> <r_epik_State_Penalty>
1.71329

> <r_epik_Charging_Adjusted_Penalty>
1.77304

> <i_epik_Tot_Q>
0

> <i_epik_Tot_abs_Q>
0

> <r_epik_Metal_State_Penalty>
2.71696

> <b_epik_Metal_Only>
0

> <s_lp_Force_Field>
OPLS_2005

> <r_lp_Energy>
37.7489

> <b_lp_Chiralities_Consistent>
1

> <s_lp_Variant>
AV-unprocessed.smi:824-2

> <Gold.Version>
5.8.1

> <Gold.Id.Protein>
6NUR|6NUR_protein|mol2

> <Gold.PLP.Fitness>
47.2708

> <Gold.PLP.PLP>
-43.5643

> <Gold.PLP.part.hbond>
-2.0245

> <Gold.PLP.part.metal>
0.0000

> <Gold.PLP.part.buried>
3.9288

> <Gold.PLP.part.nonpolar>
-45.7037

> <Gold.PLP.part.repulsive>
0.9401

> <Gold.PLP.ligand.clash>
0.0194

> <Gold.PLP.ligand.torsion>
1.0023

> <Gold.PLP.Chemscore.Hbond>
1.7903

> <Gold.PLP.Chemscore.CHOScore>
0.0000

> <Gold.PLP.Chemscore.Metal>
0.0000

> <Gold.Chemscore.Hbonds>
donor molecule, donor type, donor heavy atom, donor atom, acceptor molecule, acceptor atom, score
      L1  H     3    25       P1  8028  0.86
      P1  H  7954  7966       L1    18  1.00

> <Gold.PLP.Chemscore.Internal.Correction>
0.3598

> <Gold.Rescore>
     Score         DG    S(hbond)    S(metal)    S(lipo)     H(rot)  DE(clash)    DE(int)     intcor
     13.97     -18.77       1.77        0.00     100.59       1.71       3.11       1.69       ----

> <Gold.Chemscore.Fitness>
13.9723

> <Gold.Chemscore.DG>
-18.7730

> <Gold.Chemscore.ZeroCoef>
-5.4800

> <Gold.Chemscore.Hbond>
1.7666

> <Gold.Chemscore.Metal>
0.0000

> <Gold.Chemscore.Lipo>
100.5858

> <Gold.Chemscore.Internal_Hbond>
0.0000

> <Gold.Chemscore.DEClash>
3.1098

> <Gold.Chemscore.DEInternal>
1.6908

> <Gold.Chemscore.Rot>
1.7093

> <Gold.Chemscore.Internal.Correction>
   9.000000E+99

> <Gold.Chemscore.Hbonds>
donor molecule, donor type, donor heavy atom, donor atom, acceptor molecule, acceptor atom, score
      L1  H     3    25       P1  8028  0.85
      P1  H  7954  7966       L1    18  0.95

> <Gold.Chemscore.Hbond.Weighted>
-5.9003

> <Gold.Chemscore.Metal.Weighted>
-0.0000

> <Gold.Chemscore.Lipo.Weighted>
-11.7685

> <Gold.Chemscore.Internal_Hbond.Weighted>
0.0000

> <Gold.Chemscore.DEClash.Weighted>
3.1098

> <Gold.Chemscore.DEInternal.Weighted>
1.6908

> <Gold.Chemscore.Rot.Weighted>
4.3759

> <Gold.Chemscore.Internal.Correction.Weighted>
   9.000000E+99

> <Gold.Protein.RotatedTorsions>
[ 6907 6896 6895 6894 ] final   30.01 input  -60.11 | X-H torsion
[ 7974 7965 7964 7962 ] final  -34.37 input  175.53 | X-H torsion
[ 8008 7997 7996 7995 ] final   66.52 input   59.86 | X-H torsion
[ 10167 10162 10161 10158 ] final  135.59 input  -65.29 | X-H torsion
[ 10718 10713 10712 10709 ] final  -21.05 input   66.30 | X-H torsion
[ 10763 10752 10751 10750 ] final   27.85 input  -60.55 | X-H torsion
[ 11005 11000 10999 10996 ] final  -74.52 input  -57.11 | X-H torsion

> <Gold.Protein.ActiveResidues>
 VAL166  LYS551  ARG553  GLY616  TRP617  ASP618  TYR619  PRO620  LYS621  CYS622 
 ASP623  PHE694  ASN695  SER759  ASP760  ASP761  ALA762  ILE779  LEU786  VAL792 
 PHE793  MET794  SER795  GLU796  ALA797  LYS798  CYS799  TRP800  GLU811  SER814 

> <Gold.Protein.RotatedAtoms>
  152.0399  134.9718  160.0573 H   0  0  0  0  0  0  0  0  0  0  0  0  # atno 6907 bound_to 6896
  152.1161  133.4322  159.4662 H   0  0  0  0  0  0  0  0  0  0  0  0  # atno 6908 bound_to 6896
  150.6846  134.2509  159.4554 H   0  0  0  0  0  0  0  0  0  0  0  0  # atno 6909 bound_to 6896
  146.0835  140.6030  142.8897 H   0  0  0  0  0  0  0  0  0  0  0  0  # atno 7974 bound_to 7965
  155.6787  140.3496  155.4846 H   0  0  0  0  0  0  0  0  0  0  0  0  # atno 8008 bound_to 7997
  155.9626  140.1140  157.0905 H   0  0  0  0  0  0  0  0  0  0  0  0  # atno 8009 bound_to 7997
  154.4147  140.1172  156.5185 H   0  0  0  0  0  0  0  0  0  0  0  0  # atno 8010 bound_to 7997
  139.5211  144.6509  151.5304 H   0  0  0  0  0  0  0  0  0  0  0  0  # atno 10167 bound_to 10162
  156.5235  130.4638  149.6584 H   0  0  0  0  0  0  0  0  0  0  0  0  # atno 10718 bound_to 10713
  153.0529  135.6527  154.0649 H   0  0  0  0  0  0  0  0  0  0  0  0  # atno 10763 bound_to 10752
  154.0333  135.2909  155.3367 H   0  0  0  0  0  0  0  0  0  0  0  0  # atno 10764 bound_to 10752
  154.6828  135.5313  153.8353 H   0  0  0  0  0  0  0  0  0  0  0  0  # atno 10765 bound_to 10752
  141.1636  133.6914  156.7377 H   0  0  0  0  0  0  0  0  0  0  0  0  # atno 11005 bound_to 11000
  144.7309  140.4669  143.6938 LP  0  0  0  0  0  0  0  0  0  0  0  0  # atno 17320 bound_to 7965
  145.6174  139.1520  143.3042 LP  0  0  0  0  0  0  0  0  0  0  0  0  # atno 17321 bound_to 7965
  140.6314  143.9069  150.6608 LP  0  0  0  0  0  0  0  0  0  0  0  0  # atno 17342 bound_to 10162
  140.2374  143.3689  152.1515 LP  0  0  0  0  0  0  0  0  0  0  0  0  # atno 17343 bound_to 10162
  156.3127  130.7237  151.2133 LP  0  0  0  0  0  0  0  0  0  0  0  0  # atno 17370 bound_to 10713
  157.7433  131.0477  150.4957 LP  0  0  0  0  0  0  0  0  0  0  0  0  # atno 17371 bound_to 10713
  140.2697  134.8401  157.3836 LP  0  0  0  0  0  0  0  0  0  0  0  0  # atno 17394 bound_to 11000
  140.1532  134.4822  155.7946 LP  0  0  0  0  0  0  0  0  0  0  0  0  # atno 17395 bound_to 11000

$$$$
