AV-unprocessed.smi:3061|AV-procd|sdf|11681|dock5
  -GOLD-   2272017 83D 1   1.00000     0.00000
 Structure written by MMmdl.
 35 36  0  0  0  0  0  0  0  0  1 V2000
  149.2669  139.6191  156.9605 C   0  0  0  0  0  0  0  0  0  0  0  0
  149.4964  140.8716  156.1042 C   0  0  2  0  0  0  0  0  0  0  0  0
  149.7458  140.5047  154.6257 C   0  0  0  0  0  0  0  0  0  0  0  0
  150.8258  139.5474  154.4603 N   0  0  0  0  0  0  0  0  0  0  0  0
  150.8314  138.3307  153.9133 C   0  0  0  0  0  0  0  0  0  0  0  0
  152.0209  137.7455  153.9222 N   0  0  0  0  0  0  0  0  0  0  0  0
  152.7525  138.7244  154.5331 C   0  0  0  0  0  0  0  0  0  0  0  0
  152.0830  139.8237  154.8798 N   0  0  0  0  0  0  0  0  0  0  0  0
  150.6260  141.6225  156.6512 N   0  0  0  0  0  0  0  0  0  0  0  0
  150.6558  142.2266  157.8499 C   0  0  0  0  0  0  0  0  0  0  0  0
  149.7285  142.1733  158.6586 O   0  0  0  0  0  0  0  0  0  0  0  0
  151.9196  143.0357  158.1775 C   0  0  1  0  0  0  0  0  0  0  0  0
  151.5945  144.5356  158.3325 C   0  0  0  0  0  0  0  0  0  0  0  0
  151.8280  144.8118  159.8083 C   0  0  0  0  0  0  0  0  0  0  0  0
  151.5716  145.8938  160.3345 O   0  0  0  0  0  0  0  0  0  0  0  0
  152.3270  143.7357  160.4229 N   0  0  0  0  0  0  0  0  0  0  0  0
  152.6562  143.6395  161.8383 C   0  0  0  0  0  0  0  0  0  0  0  0
  152.5571  142.6200  159.5215 C   0  0  0  0  0  0  0  0  0  0  0  0
  148.4123  139.0474  156.5975 H   0  0  0  0  0  0  0  0  0  0  0  0
  149.0667  139.8849  157.9989 H   0  0  0  0  0  0  0  0  0  0  0  0
  150.1370  138.9617  156.9460 H   0  0  0  0  0  0  0  0  0  0  0  0
  148.5868  141.4721  156.1645 H   0  0  0  0  0  0  0  0  0  0  0  0
  148.8383  140.1019  154.1724 H   0  0  0  0  0  0  0  0  0  0  0  0
  150.0058  141.3989  154.0581 H   0  0  0  0  0  0  0  0  0  0  0  0
  149.9507  137.8685  153.4922 H   0  0  0  0  0  0  0  0  0  0  0  0
  153.8098  138.6235  154.7294 H   0  0  0  0  0  0  0  0  0  0  0  0
  151.4341  141.7232  156.0539 H   0  0  0  0  0  0  0  0  0  0  0  0
  152.6470  142.8989  157.3754 H   0  0  0  0  0  0  0  0  0  0  0  0
  152.2710  145.1483  157.7362 H   0  0  0  0  0  0  0  0  0  0  0  0
  150.5718  144.7951  158.0533 H   0  0  0  0  0  0  0  0  0  0  0  0
  153.3385  144.4385  162.1299 H   0  0  0  0  0  0  0  0  0  0  0  0
  153.1350  142.6869  162.0661 H   0  0  0  0  0  0  0  0  0  0  0  0
  151.7532  143.7187  162.4448 H   0  0  0  0  0  0  0  0  0  0  0  0
  152.1317  141.7024  159.9323 H   0  0  0  0  0  0  0  0  0  0  0  0
  153.6303  142.4625  159.4081 H   0  0  0  0  0  0  0  0  0  0  0  0
  1  2  1  0  0  0  0
  1 19  1  0  0  0  0
  1 20  1  0  0  0  0
  1 21  1  0  0  0  0
  2  3  1  0  0  0  0
  2  9  1  0  0  0  0
  2 22  1  0  0  0  0
  3  4  1  0  0  0  0
  3 23  1  0  0  0  0
  3 24  1  0  0  0  0
  4  8  1  0  0  0  0
  4  5  1  0  0  0  0
  5  6  2  0  0  0  0
  5 25  1  0  0  0  0
  6  7  1  0  0  0  0
  7  8  2  0  0  0  0
  7 26  1  0  0  0  0
  9 10  1  0  0  0  0
  9 27  1  0  0  0  0
 10 11  2  0  0  0  0
 10 12  1  0  0  0  0
 12 18  1  0  0  0  0
 12 13  1  0  0  0  0
 12 28  1  0  0  0  0
 13 14  1  0  0  0  0
 13 29  1  0  0  0  0
 13 30  1  0  0  0  0
 14 15  2  0  0  0  0
 14 16  1  0  0  0  0
 16 17  1  0  0  0  0
 16 18  1  0  0  0  0
 17 31  1  0  0  0  0
 17 32  1  0  0  0  0
 17 33  1  0  0  0  0
 18 34  1  0  0  0  0
 18 35  1  0  0  0  0
M  END
> <s_m_source_file>
AV-unprocessed.smi

> <i_m_source_file_index>
3061

> <i_lp_mmshare_version>
43012

> <i_f3d_flags>
0

> <s_epik_input>
bjFbY0hdbltjSF1uMVtDSDJdW0NAQEhdKFtDSDNdKVtOSF1DKD1PKVtDQEBIXTJbQ0gyXUMoPU8pTihbQ0gzXSlbQ0gyXTI=

> <s_epik_cmdline>
J2VwaWtfcHl0aG9uJywgJy1waCcsICc3LjAnLCAnLXRuJywgJzgnLCAnLW1hJywgJzIwMCcsICctbWV0YWxfYmluZGluZycsICctaW1hZScsICc8aW5maWxlLm1hZT4nLCAnLW9tYWUnLCAnPG91dGZpbGUubWFlPic=

> <r_lp_tautomer_probability>
1

> <r_epik_Ionization_Penalty>
4.97611e-05

> <r_epik_Ionization_Penalty_Charging>
0

> <r_epik_Ionization_Penalty_Neutral>
4.97611e-05

> <r_epik_State_Penalty>
-0

> <r_epik_Charging_Adjusted_Penalty>
0

> <i_epik_Tot_Q>
0

> <i_epik_Tot_abs_Q>
0

> <r_epik_Metal_State_Penalty>
-0

> <b_epik_Metal_Only>
0

> <s_lp_Force_Field>
OPLS_2005

> <r_lp_Energy>
12.1986

> <b_lp_Chiralities_Consistent>
1

> <s_lp_Variant>
AV-unprocessed.smi:3061-3

> <Gold.Version>
5.8.1

> <Gold.Id.Protein>
6NUR|6NUR_protein|mol2

> <Gold.PLP.Fitness>
50.1706

> <Gold.PLP.PLP>
-44.7320

> <Gold.PLP.part.hbond>
-3.9661

> <Gold.PLP.part.metal>
0.0000

> <Gold.PLP.part.buried>
-5.7059

> <Gold.PLP.part.nonpolar>
-35.2606

> <Gold.PLP.part.repulsive>
0.5635

> <Gold.PLP.ligand.clash>
0.0000

> <Gold.PLP.ligand.torsion>
0.1266

> <Gold.PLP.Chemscore.Hbond>
0.8892

> <Gold.PLP.Chemscore.CHOScore>
1.0000

> <Gold.PLP.Chemscore.Metal>
0.0000

> <Gold.Chemscore.Hbonds>
donor molecule, donor type, donor heavy atom, donor atom, acceptor molecule, acceptor atom, score
      P1  H 10752 10763       L1     6  0.30
      L1  C     5    25       P1  7948  1.00

> <Gold.PLP.Chemscore.Internal.Correction>
0.0242

> <Gold.Rescore>
     Score         DG    S(hbond)    S(metal)    S(lipo)     H(rot)  DE(clash)    DE(int)     intcor
      7.50      -9.21       0.80        0.00      62.16       2.42       1.50       0.21       ----

> <Gold.Chemscore.Fitness>
7.4979

> <Gold.Chemscore.DG>
-9.2140

> <Gold.Chemscore.ZeroCoef>
-5.4800

> <Gold.Chemscore.Hbond>
0.7951

> <Gold.Chemscore.Metal>
0.0000

> <Gold.Chemscore.Lipo>
62.1604

> <Gold.Chemscore.Internal_Hbond>
0.0000

> <Gold.Chemscore.DEClash>
1.5018

> <Gold.Chemscore.DEInternal>
0.2143

> <Gold.Chemscore.Rot>
2.4197

> <Gold.Chemscore.Internal.Correction>
   9.000000E+99

> <Gold.Chemscore.Hbonds>
donor molecule, donor type, donor heavy atom, donor atom, acceptor molecule, acceptor atom, score
      P1  H 10752 10763       L1     6  0.23

> <Gold.Chemscore.Hbond.Weighted>
-2.6557

> <Gold.Chemscore.Metal.Weighted>
-0.0000

> <Gold.Chemscore.Lipo.Weighted>
-7.2728

> <Gold.Chemscore.Internal_Hbond.Weighted>
0.0000

> <Gold.Chemscore.DEClash.Weighted>
1.5018

> <Gold.Chemscore.DEInternal.Weighted>
0.2143

> <Gold.Chemscore.Rot.Weighted>
6.1945

> <Gold.Chemscore.Internal.Correction.Weighted>
   9.000000E+99

> <Gold.Protein.RotatedTorsions>
[ 6907 6896 6895 6894 ] final  -73.24 input  -60.11 | X-H torsion
[ 7974 7965 7964 7962 ] final   30.63 input  175.53 | X-H torsion
[ 8008 7997 7996 7995 ] final  163.95 input   59.86 | X-H torsion
[ 10167 10162 10161 10158 ] final -168.39 input  -65.29 | X-H torsion
[ 10718 10713 10712 10709 ] final  -32.96 input   66.30 | X-H torsion
[ 10763 10752 10751 10750 ] final   39.63 input  -60.55 | X-H torsion
[ 11005 11000 10999 10996 ] final   55.12 input  -57.11 | X-H torsion

> <Gold.Protein.ActiveResidues>
 VAL166  LYS551  ARG553  GLY616  TRP617  ASP618  TYR619  PRO620  LYS621  CYS622 
 ASP623  PHE694  ASN695  SER759  ASP760  ASP761  ALA762  ILE779  LEU786  VAL792 
 PHE793  MET794  SER795  GLU796  ALA797  LYS798  CYS799  TRP800  GLU811  SER814 

> <Gold.Protein.RotatedAtoms>
  150.7138  134.5045  159.5577 H   0  0  0  0  0  0  0  0  0  0  0  0  # atno 6907 bound_to 6896
  152.2635  134.8006  160.0435 H   0  0  0  0  0  0  0  0  0  0  0  0  # atno 6908 bound_to 6896
  151.8711  133.3440  159.3772 H   0  0  0  0  0  0  0  0  0  0  0  0  # atno 6909 bound_to 6896
  146.1600  139.6763  142.9040 H   0  0  0  0  0  0  0  0  0  0  0  0  # atno 7974 bound_to 7965
  156.1917  140.1709  156.8078 H   0  0  0  0  0  0  0  0  0  0  0  0  # atno 8008 bound_to 7997
  154.5480  140.0723  156.8652 H   0  0  0  0  0  0  0  0  0  0  0  0  # atno 8009 bound_to 7997
  155.3084  140.3366  155.4247 H   0  0  0  0  0  0  0  0  0  0  0  0  # atno 8010 bound_to 7997
  139.5988  144.1055  152.1719 H   0  0  0  0  0  0  0  0  0  0  0  0  # atno 10167 bound_to 10162
  156.3684  130.4335  149.7565 H   0  0  0  0  0  0  0  0  0  0  0  0  # atno 10718 bound_to 10713
  152.9961  135.6215  154.2496 H   0  0  0  0  0  0  0  0  0  0  0  0  # atno 10763 bound_to 10752
  154.2234  135.2795  155.2918 H   0  0  0  0  0  0  0  0  0  0  0  0  # atno 10764 bound_to 10752
  154.5509  135.5733  153.6980 H   0  0  0  0  0  0  0  0  0  0  0  0  # atno 10765 bound_to 10752
  140.0632  134.5573  155.9129 H   0  0  0  0  0  0  0  0  0  0  0  0  # atno 11005 bound_to 11000
  145.4612  141.0433  143.2750 LP  0  0  0  0  0  0  0  0  0  0  0  0  # atno 17320 bound_to 7965
  144.8014  139.6134  143.7070 LP  0  0  0  0  0  0  0  0  0  0  0  0  # atno 17321 bound_to 7965
  140.0646  144.5829  150.7237 LP  0  0  0  0  0  0  0  0  0  0  0  0  # atno 17342 bound_to 10162
  140.7233  143.2610  151.4205 LP  0  0  0  0  0  0  0  0  0  0  0  0  # atno 17343 bound_to 10162
  156.4702  130.7993  151.3011 LP  0  0  0  0  0  0  0  0  0  0  0  0  # atno 17370 bound_to 10713
  157.7481  131.0038  150.3052 LP  0  0  0  0  0  0  0  0  0  0  0  0  # atno 17371 bound_to 10713
  141.1982  133.6600  156.5779 LP  0  0  0  0  0  0  0  0  0  0  0  0  # atno 17394 bound_to 11000
  140.3739  134.7582  157.4617 LP  0  0  0  0  0  0  0  0  0  0  0  0  # atno 17395 bound_to 11000

$$$$
