AV-unprocessed.smi:431|AV-procd|sdf|2547|dock6
  -GOLD-   2262022513D 1   1.00000     0.00000
 Structure written by MMmdl.
 43 44  0  0  0  0  0  0  0  0  1 V2000
  146.1845  133.1096  150.8912 C   0  0  0  0  0  0  0  0  0  0  0  0
  145.8598  134.6117  150.9286 C   0  0  0  0  0  0  0  0  0  0  0  0
  145.3745  135.1253  152.3027 C   0  0  2  0  0  0  0  0  0  0  0  0
  144.0286  134.4862  152.6848 C   0  0  0  0  0  0  0  0  0  0  0  0
  145.2595  136.6566  152.3333 C   0  0  0  0  0  0  0  0  0  0  0  0
  144.1761  137.1934  152.5670 O   0  0  0  0  0  0  0  0  0  0  0  0
  146.3826  137.3470  152.0811 N   0  0  0  0  0  0  0  0  0  0  0  0
  146.4699  138.8020  152.0140 C   0  0  0  0  0  0  0  0  0  0  0  0
  147.3645  139.4178  153.0802 C   0  0  0  0  0  0  0  0  0  0  0  0
  147.4194  140.8108  153.2938 C   0  0  0  0  0  0  0  0  0  0  0  0
  148.2675  141.3160  154.2972 C   0  0  0  0  0  0  0  0  0  0  0  0
  149.0449  140.4150  155.0637 C   0  0  0  0  0  0  0  0  0  0  0  0
  149.8979  140.8976  156.0809 N   0  0  0  0  0  0  0  0  0  0  0  0
  149.2695  141.7579  157.0808 C   0  0  0  0  0  0  0  0  0  0  0  0
  150.3401  142.4551  157.9379 C   0  0  0  0  0  0  0  0  0  0  0  0
  151.2071  141.4830  158.5126 O   0  0  0  0  0  0  0  0  0  0  0  0
  151.8952  140.7340  157.5164 C   0  0  0  0  0  0  0  0  0  0  0  0
  150.8797  139.9737  156.6469 C   0  0  0  0  0  0  0  0  0  0  0  0
  149.0011  139.0777  154.8425 N   0  0  0  0  0  0  0  0  0  0  0  0
  148.1848  138.5985  153.8804 C   0  0  0  0  0  0  0  0  0  0  0  0
  146.4416  132.7965  149.8794 H   0  0  0  0  0  0  0  0  0  0  0  0
  145.3315  132.5137  151.2160 H   0  0  0  0  0  0  0  0  0  0  0  0
  147.0310  132.8635  151.5324 H   0  0  0  0  0  0  0  0  0  0  0  0
  146.7347  135.1775  150.6049 H   0  0  0  0  0  0  0  0  0  0  0  0
  145.0868  134.8120  150.1858 H   0  0  0  0  0  0  0  0  0  0  0  0
  146.1062  134.8208  153.0532 H   0  0  0  0  0  0  0  0  0  0  0  0
  143.6721  134.8544  153.6477 H   0  0  0  0  0  0  0  0  0  0  0  0
  144.1210  133.4029  152.7656 H   0  0  0  0  0  0  0  0  0  0  0  0
  143.2585  134.6966  151.9414 H   0  0  0  0  0  0  0  0  0  0  0  0
  147.2305  136.8283  151.9038 H   0  0  0  0  0  0  0  0  0  0  0  0
  146.8089  139.1050  151.0216 H   0  0  0  0  0  0  0  0  0  0  0  0
  145.4659  139.2088  152.1342 H   0  0  0  0  0  0  0  0  0  0  0  0
  146.8249  141.4887  152.6992 H   0  0  0  0  0  0  0  0  0  0  0  0
  148.3214  142.3826  154.4548 H   0  0  0  0  0  0  0  0  0  0  0  0
  148.6364  142.5163  156.6231 H   0  0  0  0  0  0  0  0  0  0  0  0
  148.6248  141.1470  157.7142 H   0  0  0  0  0  0  0  0  0  0  0  0
  150.9158  143.1636  157.3397 H   0  0  0  0  0  0  0  0  0  0  0  0
  149.8668  143.0254  158.7374 H   0  0  0  0  0  0  0  0  0  0  0  0
  152.5106  141.3974  156.9063 H   0  0  0  0  0  0  0  0  0  0  0  0
  152.5715  140.0319  158.0041 H   0  0  0  0  0  0  0  0  0  0  0  0
  150.3643  139.2220  157.2465 H   0  0  0  0  0  0  0  0  0  0  0  0
  151.4094  139.4497  155.8502 H   0  0  0  0  0  0  0  0  0  0  0  0
  148.1860  137.5263  153.7497 H   0  0  0  0  0  0  0  0  0  0  0  0
  1  2  1  0  0  0  0
  1 21  1  0  0  0  0
  1 22  1  0  0  0  0
  1 23  1  0  0  0  0
  2  3  1  0  0  0  0
  2 24  1  0  0  0  0
  2 25  1  0  0  0  0
  3  4  1  0  0  0  0
  3  5  1  0  0  0  0
  3 26  1  0  0  0  0
  4 27  1  0  0  0  0
  4 28  1  0  0  0  0
  4 29  1  0  0  0  0
  5  6  2  0  0  0  0
  5  7  1  0  0  0  0
  7  8  1  0  0  0  0
  7 30  1  0  0  0  0
  8  9  1  0  0  0  0
  8 31  1  0  0  0  0
  8 32  1  0  0  0  0
  9 20  1  0  0  0  0
  9 10  2  0  0  0  0
 10 11  1  0  0  0  0
 10 33  1  0  0  0  0
 11 12  2  0  0  0  0
 11 34  1  0  0  0  0
 12 13  1  0  0  0  0
 12 19  1  0  0  0  0
 13 18  1  0  0  0  0
 13 14  1  0  0  0  0
 14 15  1  0  0  0  0
 14 35  1  0  0  0  0
 14 36  1  0  0  0  0
 15 16  1  0  0  0  0
 15 37  1  0  0  0  0
 15 38  1  0  0  0  0
 16 17  1  0  0  0  0
 17 18  1  0  0  0  0
 17 39  1  0  0  0  0
 17 40  1  0  0  0  0
 18 41  1  0  0  0  0
 18 42  1  0  0  0  0
 19 20  2  0  0  0  0
 20 43  1  0  0  0  0
M  END
> <s_m_source_file>
AV-unprocessed.smi

> <i_m_source_file_index>
431

> <i_lp_mmshare_version>
43012

> <i_f3d_flags>
0

> <s_epik_input>
W0NIM11bQ0gyXVtDQEhdKFtDSDNdKUMoPU8pW05IXVtDSDJdYzFbY0hdW2NIXWMobltjSF0xKU4yW0NIMl1bQ0gyXU9bQ0gyXVtDSDJdMg==

> <s_epik_cmdline>
J2VwaWtfcHl0aG9uJywgJy1waCcsICc3LjAnLCAnLXRuJywgJzgnLCAnLW1hJywgJzIwMCcsICctbWV0YWxfYmluZGluZycsICctaW1hZScsICc8aW5maWxlLm1hZT4nLCAnLW9tYWUnLCAnPG91dGZpbGUubWFlPic=

> <r_lp_tautomer_probability>
1

> <r_epik_Ionization_Penalty>
0.00513882

> <r_epik_Ionization_Penalty_Charging>
0

> <r_epik_Ionization_Penalty_Neutral>
0.00513882

> <r_epik_State_Penalty>
0.00374265

> <r_epik_Charging_Adjusted_Penalty>
0.00374265

> <i_epik_Tot_Q>
0

> <i_epik_Tot_abs_Q>
0

> <r_epik_Metal_State_Penalty>
-0

> <b_epik_Metal_Only>
0

> <s_lp_Force_Field>
OPLS_2005

> <r_lp_Energy>
15.574

> <b_lp_Chiralities_Consistent>
1

> <s_lp_Variant>
AV-unprocessed.smi:431-1

> <Gold.Version>
5.8.1

> <Gold.Id.Protein>
6NUR|6NUR_protein|mol2

> <Gold.PLP.Fitness>
36.3050

> <Gold.PLP.PLP>
-30.5492

> <Gold.PLP.part.hbond>
-1.0000

> <Gold.PLP.part.metal>
0.0000

> <Gold.PLP.part.buried>
-2.9582

> <Gold.PLP.part.nonpolar>
-27.7368

> <Gold.PLP.part.repulsive>
0.4186

> <Gold.PLP.ligand.clash>
0.0000

> <Gold.PLP.ligand.torsion>
0.3083

> <Gold.PLP.Chemscore.Hbond>
1.0000

> <Gold.PLP.Chemscore.CHOScore>
1.0000

> <Gold.PLP.Chemscore.Metal>
0.0000

> <Gold.Chemscore.Hbonds>
donor molecule, donor type, donor heavy atom, donor atom, acceptor molecule, acceptor atom, score
      L1  H     7    30       P1  7948  1.00
      L1  C    20    43       P1  7948  0.97

> <Gold.PLP.Chemscore.Internal.Correction>
0.3725

> <Gold.Rescore>
     Score         DG    S(hbond)    S(metal)    S(lipo)     H(rot)  DE(clash)    DE(int)     intcor
     13.71     -13.96       1.00        0.00      79.86       1.64       0.03       0.22       ----

> <Gold.Chemscore.Fitness>
13.7071

> <Gold.Chemscore.DG>
-13.9602

> <Gold.Chemscore.ZeroCoef>
-5.4800

> <Gold.Chemscore.Hbond>
0.9990

> <Gold.Chemscore.Metal>
0.0000

> <Gold.Chemscore.Lipo>
79.8618

> <Gold.Chemscore.Internal_Hbond>
0.0000

> <Gold.Chemscore.DEClash>
0.0296

> <Gold.Chemscore.DEInternal>
0.2236

> <Gold.Chemscore.Rot>
1.6407

> <Gold.Chemscore.Internal.Correction>
   9.000000E+99

> <Gold.Chemscore.Hbonds>
donor molecule, donor type, donor heavy atom, donor atom, acceptor molecule, acceptor atom, score
      L1  H     7    30       P1  7948  1.00

> <Gold.Chemscore.Hbond.Weighted>
-3.3366

> <Gold.Chemscore.Metal.Weighted>
-0.0000

> <Gold.Chemscore.Lipo.Weighted>
-9.3438

> <Gold.Chemscore.Internal_Hbond.Weighted>
0.0000

> <Gold.Chemscore.DEClash.Weighted>
0.0296

> <Gold.Chemscore.DEInternal.Weighted>
0.2236

> <Gold.Chemscore.Rot.Weighted>
4.2001

> <Gold.Chemscore.Internal.Correction.Weighted>
   9.000000E+99

> <Gold.Protein.RotatedTorsions>
[ 6907 6896 6895 6894 ] final -170.05 input  -60.11 | X-H torsion
[ 7974 7965 7964 7962 ] final   71.20 input  175.53 | X-H torsion
[ 8008 7997 7996 7995 ] final -116.08 input   59.86 | X-H torsion
[ 10167 10162 10161 10158 ] final  103.15 input  -65.29 | X-H torsion
[ 10718 10713 10712 10709 ] final  -51.10 input   66.30 | X-H torsion
[ 10763 10752 10751 10750 ] final   79.04 input  -60.55 | X-H torsion
[ 11005 11000 10999 10996 ] final   73.69 input  -57.11 | X-H torsion

> <Gold.Protein.ActiveResidues>
 VAL166  LYS551  ARG553  GLY616  TRP617  ASP618  TYR619  PRO620  LYS621  CYS622 
 ASP623  PHE694  ASN695  SER759  ASP760  ASP761  ALA762  ILE779  LEU786  VAL792 
 PHE793  MET794  SER795  GLU796  ALA797  LYS798  CYS799  TRP800  GLU811  SER814 

> <Gold.Protein.RotatedAtoms>
  151.5014  133.3503  159.2869 H   0  0  0  0  0  0  0  0  0  0  0  0  # atno 6907 bound_to 6896
  150.8770  134.8157  159.7208 H   0  0  0  0  0  0  0  0  0  0  0  0  # atno 6908 bound_to 6896
  152.4737  134.4907  159.9746 H   0  0  0  0  0  0  0  0  0  0  0  0  # atno 6909 bound_to 6896
  145.7688  139.2834  143.1333 H   0  0  0  0  0  0  0  0  0  0  0  0  # atno 7974 bound_to 7965
  155.0622  140.0393  157.2581 H   0  0  0  0  0  0  0  0  0  0  0  0  # atno 8008 bound_to 7997
  154.7050  140.2681  155.6659 H   0  0  0  0  0  0  0  0  0  0  0  0  # atno 8009 bound_to 7997
  156.2772  140.2733  156.1673 H   0  0  0  0  0  0  0  0  0  0  0  0  # atno 8010 bound_to 7997
  139.7288  144.7041  151.0755 H   0  0  0  0  0  0  0  0  0  0  0  0  # atno 10167 bound_to 10162
  156.1740  130.4149  149.9604 H   0  0  0  0  0  0  0  0  0  0  0  0  # atno 10718 bound_to 10713
  153.0921  135.4854  154.8710 H   0  0  0  0  0  0  0  0  0  0  0  0  # atno 10763 bound_to 10752
  154.7282  135.3054  154.8938 H   0  0  0  0  0  0  0  0  0  0  0  0  # atno 10764 bound_to 10752
  153.9582  135.6815  153.4798 H   0  0  0  0  0  0  0  0  0  0  0  0  # atno 10765 bound_to 10752
  139.9427  134.7368  156.1057 H   0  0  0  0  0  0  0  0  0  0  0  0  # atno 11005 bound_to 11000
  146.0191  140.8365  142.9932 LP  0  0  0  0  0  0  0  0  0  0  0  0  # atno 17320 bound_to 7965
  144.6816  140.2602  143.7320 LP  0  0  0  0  0  0  0  0  0  0  0  0  # atno 17321 bound_to 7965
  140.7767  143.5070  150.9700 LP  0  0  0  0  0  0  0  0  0  0  0  0  # atno 17342 bound_to 10162
  139.8758  143.7134  152.3162 LP  0  0  0  0  0  0  0  0  0  0  0  0  # atno 17343 bound_to 10162
  156.7396  130.9074  151.3631 LP  0  0  0  0  0  0  0  0  0  0  0  0  # atno 17370 bound_to 10713
  157.6823  130.9151  150.0297 LP  0  0  0  0  0  0  0  0  0  0  0  0  # atno 17371 bound_to 10713
  141.1068  133.6657  156.2882 LP  0  0  0  0  0  0  0  0  0  0  0  0  # atno 17394 bound_to 11000
  140.5910  134.5650  157.5499 LP  0  0  0  0  0  0  0  0  0  0  0  0  # atno 17395 bound_to 11000

$$$$
