AV-unprocessed.smi:264|AV-procd|sdf|2014|dock6
  -GOLD-   2262021213D 1   1.00000     0.00000
 Structure written by MMmdl.
 52 56  0  0  0  0  0  0  0  0  1 V2000
  146.1912  131.5372  149.2800 C   0  0  0  0  0  0  0  0  0  0  0  0
  145.0321  132.5131  149.5371 C   0  0  1  0  0  0  0  0  0  0  0  0
  143.8443  131.7408  149.6959 O   0  0  0  0  0  0  0  0  0  0  0  0
  142.9663  132.4248  150.5721 C   0  0  0  0  0  0  0  0  0  0  0  0
  143.9172  132.9650  151.6288 C   0  0  0  0  0  0  0  0  0  0  0  0
  145.1300  133.4010  150.8105 C   0  0  2  0  0  0  0  0  0  0  0  0
  144.9225  134.7463  150.4142 O   0  0  0  0  0  0  0  0  0  0  0  0
  146.4661  133.3325  151.5962 C   0  0  0  0  0  0  0  0  0  0  0  0
  146.3991  133.9522  152.9112 N   0  0  0  0  0  0  0  0  0  0  0  0
  146.6834  133.3567  154.1195 C   0  0  0  0  0  0  0  0  0  0  0  0
  146.5532  134.1272  155.1645 N   0  0  0  0  0  0  0  0  0  0  0  0
  146.1518  135.3491  154.6376 C   0  0  0  0  0  0  0  0  0  0  0  0
  145.8458  136.6189  155.2031 C   0  0  0  0  0  0  0  0  0  0  0  0
  145.8923  136.8538  156.5387 N   0  0  0  0  0  0  0  0  0  0  0  0
  145.0693  137.9669  156.9942 C   0  0  0  0  0  0  0  0  0  0  0  0
  144.9096  137.9086  158.5197 C   0  0  0  0  0  0  0  0  0  0  0  0
  146.1884  137.8544  159.1510 O   0  0  0  0  0  0  0  0  0  0  0  0
  147.0276  136.7695  158.7349 C   0  0  2  0  0  0  0  0  0  0  0  0
  146.5536  135.4276  159.2853 C   0  0  0  0  0  0  0  0  0  0  0  0
  147.0602  135.4745  160.7190 C   0  0  0  0  0  0  0  0  0  0  0  0
  148.3406  136.0768  160.6066 O   0  0  0  0  0  0  0  0  0  0  0  0
  148.3678  136.9373  159.4696 C   0  0  0  0  0  0  0  0  0  0  0  0
  147.1928  136.8035  157.2001 C   0  0  0  0  0  0  0  0  0  0  0  0
  145.5001  137.6176  154.3469 N   0  0  0  0  0  0  0  0  0  0  0  0
  145.4499  137.3915  153.0308 C   0  0  0  0  0  0  0  0  0  0  0  0
  145.7063  136.2625  152.3678 N   0  0  0  0  0  0  0  0  0  0  0  0
  146.0577  135.2576  153.2200 C   0  0  0  0  0  0  0  0  0  0  0  0
  147.1338  132.0655  149.1357 H   0  0  0  0  0  0  0  0  0  0  0  0
  146.0063  130.9514  148.3794 H   0  0  0  0  0  0  0  0  0  0  0  0
  146.3147  130.8344  150.1043 H   0  0  0  0  0  0  0  0  0  0  0  0
  144.9045  133.1347  148.6488 H   0  0  0  0  0  0  0  0  0  0  0  0
  142.4660  133.2347  150.0389 H   0  0  0  0  0  0  0  0  0  0  0  0
  142.2088  131.7588  150.9853 H   0  0  0  0  0  0  0  0  0  0  0  0
  143.4814  133.7618  152.2336 H   0  0  0  0  0  0  0  0  0  0  0  0
  144.1912  132.1502  152.3001 H   0  0  0  0  0  0  0  0  0  0  0  0
  145.4765  134.9285  149.6708 H   0  0  0  0  0  0  0  0  0  0  0  0
  146.7722  132.2959  151.7395 H   0  0  0  0  0  0  0  0  0  0  0  0
  147.2648  133.8151  151.0315 H   0  0  0  0  0  0  0  0  0  0  0  0
  146.9921  132.3247  154.2029 H   0  0  0  0  0  0  0  0  0  0  0  0
  145.5512  138.9023  156.7065 H   0  0  0  0  0  0  0  0  0  0  0  0
  144.0864  137.9605  156.5244 H   0  0  0  0  0  0  0  0  0  0  0  0
  144.3854  138.7968  158.8714 H   0  0  0  0  0  0  0  0  0  0  0  0
  144.2955  137.0569  158.8100 H   0  0  0  0  0  0  0  0  0  0  0  0
  145.4806  135.2562  159.2192 H   0  0  0  0  0  0  0  0  0  0  0  0
  147.0467  134.6105  158.7569 H   0  0  0  0  0  0  0  0  0  0  0  0
  146.4173  136.1054  161.3345 H   0  0  0  0  0  0  0  0  0  0  0  0
  147.1192  134.4887  161.1806 H   0  0  0  0  0  0  0  0  0  0  0  0
  149.2028  136.6246  158.8415 H   0  0  0  0  0  0  0  0  0  0  0  0
  148.5506  137.9711  159.7648 H   0  0  0  0  0  0  0  0  0  0  0  0
  147.7553  135.9308  156.8649 H   0  0  0  0  0  0  0  0  0  0  0  0
  147.7674  137.6853  156.9123 H   0  0  0  0  0  0  0  0  0  0  0  0
  145.1629  138.2361  152.4220 H   0  0  0  0  0  0  0  0  0  0  0  0
  1  2  1  0  0  0  0
  1 28  1  0  0  0  0
  1 29  1  0  0  0  0
  1 30  1  0  0  0  0
  2  6  1  0  0  0  0
  2  3  1  0  0  0  0
  2 31  1  0  0  0  0
  3  4  1  0  0  0  0
  4  5  1  0  0  0  0
  4 32  1  0  0  0  0
  4 33  1  0  0  0  0
  5  6  1  0  0  0  0
  5 34  1  0  0  0  0
  5 35  1  0  0  0  0
  6  7  1  0  0  0  0
  6  8  1  0  0  0  0
  7 36  1  0  0  0  0
  8  9  1  0  0  0  0
  8 37  1  0  0  0  0
  8 38  1  0  0  0  0
  9 27  1  0  0  0  0
  9 10  1  0  0  0  0
 10 11  2  0  0  0  0
 10 39  1  0  0  0  0
 11 12  1  0  0  0  0
 12 27  2  0  0  0  0
 12 13  1  0  0  0  0
 13 14  1  0  0  0  0
 13 24  2  0  0  0  0
 14 23  1  0  0  0  0
 14 15  1  0  0  0  0
 15 16  1  0  0  0  0
 15 40  1  0  0  0  0
 15 41  1  0  0  0  0
 16 17  1  0  0  0  0
 16 42  1  0  0  0  0
 16 43  1  0  0  0  0
 17 18  1  0  0  0  0
 18 22  1  0  0  0  0
 18 19  1  0  0  0  0
 18 23  1  0  0  0  0
 19 20  1  0  0  0  0
 19 44  1  0  0  0  0
 19 45  1  0  0  0  0
 20 21  1  0  0  0  0
 20 46  1  0  0  0  0
 20 47  1  0  0  0  0
 21 22  1  0  0  0  0
 22 48  1  0  0  0  0
 22 49  1  0  0  0  0
 23 50  1  0  0  0  0
 23 51  1  0  0  0  0
 24 25  1  0  0  0  0
 25 26  2  0  0  0  0
 25 52  1  0  0  0  0
 26 27  1  0  0  0  0
M  END
> <s_m_source_file>
AV-unprocessed.smi

> <i_m_source_file_index>
264

> <i_lp_mmshare_version>
43012

> <i_f3d_flags>
0

> <s_epik_input>
W0NIMl0xW0NIMl1PW0NAQEhdKFtDSDNdKVtDQEBdMShbT0hdKVtDSDJdbihbY0hdbjIpYyhjMjMpbltjSF1uYzNOKFtDSDJdNClbQ0gyXVtDSDJdT1tDQF00NVtDSDJdW0NIMl1PW0NIMl01

> <s_epik_cmdline>
J2VwaWtfcHl0aG9uJywgJy1waCcsICc3LjAnLCAnLXRuJywgJzgnLCAnLW1hJywgJzIwMCcsICctbWV0YWxfYmluZGluZycsICctaW1hZScsICc8aW5maWxlLm1hZT4nLCAnLW9tYWUnLCAnPG91dGZpbGUubWFlPic=

> <r_lp_tautomer_probability>
1

> <r_epik_Ionization_Penalty>
0.00539389

> <r_epik_Ionization_Penalty_Charging>
0

> <r_epik_Ionization_Penalty_Neutral>
0.00539389

> <r_epik_State_Penalty>
0.00375441

> <r_epik_Charging_Adjusted_Penalty>
0.00375441

> <i_epik_Tot_Q>
0

> <i_epik_Tot_abs_Q>
0

> <r_epik_Metal_State_Penalty>
-0

> <b_epik_Metal_Only>
0

> <s_lp_Force_Field>
OPLS_2005

> <r_lp_Energy>
54.0321

> <b_lp_Chiralities_Consistent>
1

> <s_lp_Variant>
AV-unprocessed.smi:264-8

> <Gold.Version>
5.8.1

> <Gold.Id.Protein>
6NUR|6NUR_protein|mol2

> <Gold.PLP.Fitness>
38.9479

> <Gold.PLP.PLP>
-27.4719

> <Gold.PLP.part.hbond>
-4.0000

> <Gold.PLP.part.metal>
0.0000

> <Gold.PLP.part.buried>
-0.5049

> <Gold.PLP.part.nonpolar>
-23.9090

> <Gold.PLP.part.repulsive>
0.5662

> <Gold.PLP.ligand.clash>
0.0000

> <Gold.PLP.ligand.torsion>
0.4899

> <Gold.PLP.Chemscore.Hbond>
2.0656

> <Gold.PLP.Chemscore.CHOScore>
1.9926

> <Gold.PLP.Chemscore.Metal>
0.0000

> <Gold.Chemscore.Hbonds>
donor molecule, donor type, donor heavy atom, donor atom, acceptor molecule, acceptor atom, score
      L1  H     7    36       P1  7921  0.73
      P1  H  6934  6947       L1    17  0.21
      P1  H 10785 10796       L1     3  0.82
      L1  C    25    52       P1 10171  0.01
      L1  C    25    52       P1 10175  0.66

> <Gold.PLP.Chemscore.Internal.Correction>
0.2811

> <Gold.Rescore>
     Score         DG    S(hbond)    S(metal)    S(lipo)     H(rot)  DE(clash)    DE(int)     intcor
     11.87     -13.99       1.92        0.00      64.01       2.11       0.21       1.91       ----

> <Gold.Chemscore.Fitness>
11.8658

> <Gold.Chemscore.DG>
-13.9872

> <Gold.Chemscore.ZeroCoef>
-5.4800

> <Gold.Chemscore.Hbond>
1.9192

> <Gold.Chemscore.Metal>
0.0000

> <Gold.Chemscore.Lipo>
64.0094

> <Gold.Chemscore.Internal_Hbond>
0.0000

> <Gold.Chemscore.DEClash>
0.2112

> <Gold.Chemscore.DEInternal>
1.9102

> <Gold.Chemscore.Rot>
2.1063

> <Gold.Chemscore.Internal.Correction>
   9.000000E+99

> <Gold.Chemscore.Hbonds>
donor molecule, donor type, donor heavy atom, donor atom, acceptor molecule, acceptor atom, score
      L1  H     7    36       P1  7921  0.71
      P1  H  6934  6947       L1    17  0.16
      P1  H 10785 10796       L1     3  0.78

> <Gold.Chemscore.Hbond.Weighted>
-6.4103

> <Gold.Chemscore.Metal.Weighted>
-0.0000

> <Gold.Chemscore.Lipo.Weighted>
-7.4891

> <Gold.Chemscore.Internal_Hbond.Weighted>
0.0000

> <Gold.Chemscore.DEClash.Weighted>
0.2112

> <Gold.Chemscore.DEInternal.Weighted>
1.9102

> <Gold.Chemscore.Rot.Weighted>
5.3921

> <Gold.Chemscore.Internal.Correction.Weighted>
   9.000000E+99

> <Gold.Protein.RotatedTorsions>
[ 6907 6896 6895 6894 ] final  -22.91 input  -60.11 | X-H torsion
[ 7974 7965 7964 7962 ] final  101.46 input  175.53 | X-H torsion
[ 8008 7997 7996 7995 ] final  113.58 input   59.86 | X-H torsion
[ 10167 10162 10161 10158 ] final -174.96 input  -65.29 | X-H torsion
[ 10718 10713 10712 10709 ] final  -32.29 input   66.30 | X-H torsion
[ 10763 10752 10751 10750 ] final -160.57 input  -60.55 | X-H torsion
[ 11005 11000 10999 10996 ] final  -74.86 input  -57.11 | X-H torsion

> <Gold.Protein.ActiveResidues>
 VAL166  LYS551  ARG553  GLY616  TRP617  ASP618  TYR619  PRO620  LYS621  CYS622 
 ASP623  PHE694  ASN695  SER759  ASP760  ASP761  ALA762  ILE779  LEU786  VAL792 
 PHE793  MET794  SER795  GLU796  ALA797  LYS798  CYS799  TRP800  GLU811  SER814 

> <Gold.Protein.RotatedAtoms>
  151.2117  135.0484  159.8913 H   0  0  0  0  0  0  0  0  0  0  0  0  # atno 6907 bound_to 6896
  152.5424  134.0737  159.8215 H   0  0  0  0  0  0  0  0  0  0  0  0  # atno 6908 bound_to 6896
  151.0891  133.5282  159.2648 H   0  0  0  0  0  0  0  0  0  0  0  0  # atno 6909 bound_to 6896
  145.3720  139.2396  143.3450 H   0  0  0  0  0  0  0  0  0  0  0  0  # atno 7974 bound_to 7965
  156.2267  140.2976  156.0084 H   0  0  0  0  0  0  0  0  0  0  0  0  # atno 8008 bound_to 7997
  155.2337  140.0420  157.2983 H   0  0  0  0  0  0  0  0  0  0  0  0  # atno 8009 bound_to 7997
  154.5927  140.2406  155.7907 H   0  0  0  0  0  0  0  0  0  0  0  0  # atno 8010 bound_to 7997
  139.5606  144.1879  152.1232 H   0  0  0  0  0  0  0  0  0  0  0  0  # atno 10167 bound_to 10162
  156.3767  130.4349  149.7501 H   0  0  0  0  0  0  0  0  0  0  0  0  # atno 10718 bound_to 10713
  154.7379  135.3061  154.8780 H   0  0  0  0  0  0  0  0  0  0  0  0  # atno 10763 bound_to 10752
  153.9603  135.6753  153.4749 H   0  0  0  0  0  0  0  0  0  0  0  0  # atno 10764 bound_to 10752
  153.0980  135.4926  154.8738 H   0  0  0  0  0  0  0  0  0  0  0  0  # atno 10765 bound_to 10752
  141.1639  133.6926  156.7428 H   0  0  0  0  0  0  0  0  0  0  0  0  # atno 11005 bound_to 11000
  146.2881  140.4373  142.8750 LP  0  0  0  0  0  0  0  0  0  0  0  0  # atno 17320 bound_to 7965
  144.8569  140.7084  143.6132 LP  0  0  0  0  0  0  0  0  0  0  0  0  # atno 17321 bound_to 7965
  140.1392  144.5218  150.6754 LP  0  0  0  0  0  0  0  0  0  0  0  0  # atno 17342 bound_to 10162
  140.6885  143.2363  151.5195 LP  0  0  0  0  0  0  0  0  0  0  0  0  # atno 17343 bound_to 10162
  156.4608  130.7951  151.2971 LP  0  0  0  0  0  0  0  0  0  0  0  0  # atno 17370 bound_to 10713
  157.7489  131.0066  150.3159 LP  0  0  0  0  0  0  0  0  0  0  0  0  # atno 17371 bound_to 10713
  140.2662  134.8428  157.3804 LP  0  0  0  0  0  0  0  0  0  0  0  0  # atno 17394 bound_to 11000
  140.1565  134.4783  155.7924 LP  0  0  0  0  0  0  0  0  0  0  0  0  # atno 17395 bound_to 11000

$$$$
