AV-unprocessed.smi:2877|AV-procd|sdf|11043|dock4
  -GOLD-   2272015513D 1   1.00000     0.00000
 Structure written by MMmdl.
 41 42  0  0  0  0  0  0  0  0  1 V2000
  151.2396  142.5014  156.9238 O   0  0  0  0  0  0  0  0  0  0  0  0
  152.0513  141.9632  157.6787 C   0  0  0  0  0  0  0  0  0  0  0  0
  152.2396  140.4377  157.6040 C   0  0  0  0  0  0  0  0  0  0  0  0
  151.8193  139.6896  158.8863 C   0  0  0  0  0  0  0  0  0  0  0  0
  150.5332  139.0220  158.7188 N   0  0  0  0  0  0  0  0  0  0  0  0
  150.2995  137.7190  158.9469 C   0  0  0  0  0  0  0  0  0  0  0  0
  151.1770  136.9406  159.3251 O   0  0  0  0  0  0  0  0  0  0  0  0
  148.8520  137.2423  158.7357 C   0  0  0  0  0  0  0  0  0  0  0  0
  148.1556  138.2603  158.2265 F   0  0  0  0  0  0  0  0  0  0  0  0
  148.8481  136.2570  157.8343 F   0  0  0  0  0  0  0  0  0  0  0  0
  148.2063  136.7569  160.0334 C   0  0  0  0  0  0  0  0  0  0  0  0
  148.5794  135.5239  160.6160 C   0  0  0  0  0  0  0  0  0  0  0  0
  147.9454  135.1198  161.8066 C   0  0  0  0  0  0  0  0  0  0  0  0
  146.9646  135.9571  162.3710 C   0  0  0  0  0  0  0  0  0  0  0  0
  146.6581  137.1654  161.7151 C   0  0  0  0  0  0  0  0  0  0  0  0
  147.2597  137.5620  160.5734 N   0  0  0  0  0  0  0  0  0  0  0  0
  152.7812  142.6709  158.5759 N   0  0  0  0  0  0  0  0  0  0  0  0
  152.6155  144.1183  158.7669 C   0  0  0  0  0  0  0  0  0  0  0  0
  151.9596  144.3684  160.1375 C   0  0  0  0  0  0  0  0  0  0  0  0
  152.7827  143.7242  161.2690 C   0  0  0  0  0  0  0  0  0  0  0  0
  153.1094  142.2499  160.9657 C   0  0  0  0  0  0  0  0  0  0  0  0
  153.7146  142.1004  159.5581 C   0  0  0  0  0  0  0  0  0  0  0  0
  151.6596  140.0580  156.7624 H   0  0  0  0  0  0  0  0  0  0  0  0
  153.2899  140.2284  157.3962 H   0  0  0  0  0  0  0  0  0  0  0  0
  152.5565  138.9257  159.1369 H   0  0  0  0  0  0  0  0  0  0  0  0
  151.7742  140.3726  159.7367 H   0  0  0  0  0  0  0  0  0  0  0  0
  149.7596  139.5935  158.4109 H   0  0  0  0  0  0  0  0  0  0  0  0
  149.3300  134.8949  160.1610 H   0  0  0  0  0  0  0  0  0  0  0  0
  148.2062  134.1834  162.2773 H   0  0  0  0  0  0  0  0  0  0  0  0
  146.4583  135.6788  163.2834 H   0  0  0  0  0  0  0  0  0  0  0  0
  145.9097  137.8314  162.1185 H   0  0  0  0  0  0  0  0  0  0  0  0
  153.5921  144.6026  158.7240 H   0  0  0  0  0  0  0  0  0  0  0  0
  152.0201  144.5854  157.9812 H   0  0  0  0  0  0  0  0  0  0  0  0
  151.8552  145.4391  160.3148 H   0  0  0  0  0  0  0  0  0  0  0  0
  150.9505  143.9541  160.1376 H   0  0  0  0  0  0  0  0  0  0  0  0
  153.7152  144.2771  161.3895 H   0  0  0  0  0  0  0  0  0  0  0  0
  152.2513  143.8065  162.2174 H   0  0  0  0  0  0  0  0  0  0  0  0
  153.7987  141.8593  161.7148 H   0  0  0  0  0  0  0  0  0  0  0  0
  152.2008  141.6505  161.0371 H   0  0  0  0  0  0  0  0  0  0  0  0
  153.9657  141.0569  159.3756 H   0  0  0  0  0  0  0  0  0  0  0  0
  154.6623  142.6381  159.5028 H   0  0  0  0  0  0  0  0  0  0  0  0
  1  2  2  0  0  0  0
  2  3  1  0  0  0  0
  2 17  1  0  0  0  0
  3  4  1  0  0  0  0
  3 23  1  0  0  0  0
  3 24  1  0  0  0  0
  4  5  1  0  0  0  0
  4 25  1  0  0  0  0
  4 26  1  0  0  0  0
  5  6  1  0  0  0  0
  5 27  1  0  0  0  0
  6  7  2  0  0  0  0
  6  8  1  0  0  0  0
  8  9  1  0  0  0  0
  8 10  1  0  0  0  0
  8 11  1  0  0  0  0
 11 16  1  0  0  0  0
 11 12  2  0  0  0  0
 12 13  1  0  0  0  0
 12 28  1  0  0  0  0
 13 14  2  0  0  0  0
 13 29  1  0  0  0  0
 14 15  1  0  0  0  0
 14 30  1  0  0  0  0
 15 16  2  0  0  0  0
 15 31  1  0  0  0  0
 17 22  1  0  0  0  0
 17 18  1  0  0  0  0
 18 19  1  0  0  0  0
 18 32  1  0  0  0  0
 18 33  1  0  0  0  0
 19 20  1  0  0  0  0
 19 34  1  0  0  0  0
 19 35  1  0  0  0  0
 20 21  1  0  0  0  0
 20 36  1  0  0  0  0
 20 37  1  0  0  0  0
 21 22  1  0  0  0  0
 21 38  1  0  0  0  0
 21 39  1  0  0  0  0
 22 40  1  0  0  0  0
 22 41  1  0  0  0  0
M  END
> <s_m_source_file>
AV-unprocessed.smi

> <i_m_source_file_index>
2877

> <i_lp_mmshare_version>
43012

> <i_f3d_flags>
0

> <s_epik_input>
W0NIMl0xW0NIMl1bQ0gyXVtDSDJdW0NIMl1OMUMoPU8pW0NIMl1bQ0gyXVtOSF1DKD1PKUMoRikoRiljMltjSF1bY0hdW2NIXVtjSF1uMg==

> <s_epik_cmdline>
J2VwaWtfcHl0aG9uJywgJy1waCcsICc3LjAnLCAnLXRuJywgJzgnLCAnLW1hJywgJzIwMCcsICctbWV0YWxfYmluZGluZycsICctaW1hZScsICc8aW5maWxlLm1hZT4nLCAnLW9tYWUnLCAnPG91dGZpbGUubWFlPic=

> <r_lp_tautomer_probability>
1

> <r_epik_Ionization_Penalty>
7.88991e-05

> <r_epik_Ionization_Penalty_Charging>
0

> <r_epik_Ionization_Penalty_Neutral>
7.88991e-05

> <r_epik_State_Penalty>
-0

> <r_epik_Charging_Adjusted_Penalty>
0

> <i_epik_Tot_Q>
0

> <i_epik_Tot_abs_Q>
0

> <r_epik_Metal_State_Penalty>
0.0639978

> <b_epik_Metal_Only>
0

> <s_lp_Force_Field>
OPLS_2005

> <r_lp_Energy>
32.8241

> <b_lp_Chiralities_Consistent>
1

> <s_lp_Variant>
AV-unprocessed.smi:2877-1

> <Gold.Version>
5.8.1

> <Gold.Id.Protein>
6NUR|6NUR_protein|mol2

> <Gold.PLP.Fitness>
48.3784

> <Gold.PLP.PLP>
-43.9816

> <Gold.PLP.part.hbond>
-2.0000

> <Gold.PLP.part.metal>
0.0000

> <Gold.PLP.part.buried>
-6.8513

> <Gold.PLP.part.nonpolar>
-35.3729

> <Gold.PLP.part.repulsive>
0.3213

> <Gold.PLP.ligand.clash>
0.0000

> <Gold.PLP.ligand.torsion>
0.8203

> <Gold.PLP.Chemscore.Hbond>
2.0000

> <Gold.PLP.Chemscore.CHOScore>
0.0000

> <Gold.PLP.Chemscore.Metal>
0.0000

> <Gold.Chemscore.Hbonds>
donor molecule, donor type, donor heavy atom, donor atom, acceptor molecule, acceptor atom, score
      P1  H  6896  6907       L1     7  0.82
      P1  H  6931  6943       L1    16  0.01
      P1  H  6934  6947       L1    16  0.65

> <Gold.PLP.Chemscore.Internal.Correction>
0.0375

> <Gold.Rescore>
     Score         DG    S(hbond)    S(metal)    S(lipo)     H(rot)  DE(clash)    DE(int)     intcor
     16.99     -17.81       1.60        0.00     102.26       1.95       0.04       0.78       ----

> <Gold.Chemscore.Fitness>
16.9915

> <Gold.Chemscore.DG>
-17.8098

> <Gold.Chemscore.ZeroCoef>
-5.4800

> <Gold.Chemscore.Hbond>
1.6031

> <Gold.Chemscore.Metal>
0.0000

> <Gold.Chemscore.Lipo>
102.2567

> <Gold.Chemscore.Internal_Hbond>
0.0000

> <Gold.Chemscore.DEClash>
0.0354

> <Gold.Chemscore.DEInternal>
0.7828

> <Gold.Chemscore.Rot>
1.9487

> <Gold.Chemscore.Internal.Correction>
   9.000000E+99

> <Gold.Chemscore.Hbonds>
donor molecule, donor type, donor heavy atom, donor atom, acceptor molecule, acceptor atom, score
      P1  H  6896  6907       L1     7  0.78
      P1  H  6934  6947       L1    16  0.06

> <Gold.Chemscore.Hbond.Weighted>
-5.3544

> <Gold.Chemscore.Metal.Weighted>
-0.0000

> <Gold.Chemscore.Lipo.Weighted>
-11.9640

> <Gold.Chemscore.Internal_Hbond.Weighted>
0.0000

> <Gold.Chemscore.DEClash.Weighted>
0.0354

> <Gold.Chemscore.DEInternal.Weighted>
0.7828

> <Gold.Chemscore.Rot.Weighted>
4.9886

> <Gold.Chemscore.Internal.Correction.Weighted>
   9.000000E+99

> <Gold.Protein.RotatedTorsions>
[ 6907 6896 6895 6894 ] final  -40.10 input  -60.11 | X-H torsion
[ 7974 7965 7964 7962 ] final   31.35 input  175.53 | X-H torsion
[ 8008 7997 7996 7995 ] final  -44.46 input   59.86 | X-H torsion
[ 10167 10162 10161 10158 ] final -123.70 input  -65.29 | X-H torsion
[ 10718 10713 10712 10709 ] final   24.84 input   66.30 | X-H torsion
[ 10763 10752 10751 10750 ] final   90.15 input  -60.55 | X-H torsion
[ 11005 11000 10999 10996 ] final   -4.88 input  -57.11 | X-H torsion

> <Gold.Protein.ActiveResidues>
 VAL166  LYS551  ARG553  GLY616  TRP617  ASP618  TYR619  PRO620  LYS621  CYS622 
 ASP623  PHE694  ASN695  SER759  ASP760  ASP761  ALA762  ILE779  LEU786  VAL792 
 PHE793  MET794  SER795  GLU796  ALA797  LYS798  CYS799  TRP800  GLU811  SER814 

> <Gold.Protein.RotatedAtoms>
  150.9824  134.9176  159.7851 H   0  0  0  0  0  0  0  0  0  0  0  0  # atno 6907 bound_to 6896
  152.5226  134.3392  159.9221 H   0  0  0  0  0  0  0  0  0  0  0  0  # atno 6908 bound_to 6896
  151.3399  133.3925  159.2705 H   0  0  0  0  0  0  0  0  0  0  0  0  # atno 6909 bound_to 6896
  146.1555  139.6668  142.9069 H   0  0  0  0  0  0  0  0  0  0  0  0  # atno 7974 bound_to 7965
  154.3997  140.1422  156.3686 H   0  0  0  0  0  0  0  0  0  0  0  0  # atno 8008 bound_to 7997
  155.8114  140.3472  155.5439 H   0  0  0  0  0  0  0  0  0  0  0  0  # atno 8009 bound_to 7997
  155.8382  140.0922  157.1741 H   0  0  0  0  0  0  0  0  0  0  0  0  # atno 8010 bound_to 7997
  140.0006  143.5544  152.2305 H   0  0  0  0  0  0  0  0  0  0  0  0  # atno 10167 bound_to 10162
  157.1853  130.6821  149.6129 H   0  0  0  0  0  0  0  0  0  0  0  0  # atno 10718 bound_to 10713
  153.1945  135.4444  155.0191 H   0  0  0  0  0  0  0  0  0  0  0  0  # atno 10763 bound_to 10752
  154.8110  135.3294  154.7306 H   0  0  0  0  0  0  0  0  0  0  0  0  # atno 10764 bound_to 10752
  153.7757  135.6981  153.4953 H   0  0  0  0  0  0  0  0  0  0  0  0  # atno 10765 bound_to 10752
  140.6850  133.9120  155.8580 H   0  0  0  0  0  0  0  0  0  0  0  0  # atno 11005 bound_to 11000
  145.4718  141.0436  143.2694 LP  0  0  0  0  0  0  0  0  0  0  0  0  # atno 17320 bound_to 7965
  144.7958  139.6237  143.7093 LP  0  0  0  0  0  0  0  0  0  0  0  0  # atno 17321 bound_to 7965
  139.6274  144.7639  151.2609 LP  0  0  0  0  0  0  0  0  0  0  0  0  # atno 17342 bound_to 10162
  140.7420  143.6539  150.8223 LP  0  0  0  0  0  0  0  0  0  0  0  0  # atno 17343 bound_to 10162
  155.9719  130.4633  150.6176 LP  0  0  0  0  0  0  0  0  0  0  0  0  # atno 17370 bound_to 10713
  157.3913  131.0796  151.1391 LP  0  0  0  0  0  0  0  0  0  0  0  0  # atno 17371 bound_to 10713
  141.0287  134.0787  157.4039 LP  0  0  0  0  0  0  0  0  0  0  0  0  # atno 17394 bound_to 11000
  139.8940  135.0133  156.6929 LP  0  0  0  0  0  0  0  0  0  0  0  0  # atno 17395 bound_to 11000

$$$$
