AV-unprocessed.smi:3330|AV-procd|sdf|12808|dock10
  -GOLD-   2272019173D 1   1.00000     0.00000
 Structure written by MMmdl.
 38 39  0  0  0  0  0  0  0  0  1 V2000
  144.9313  134.8662  153.9265 C   0  0  0  0  0  0  0  0  0  0  0  0
  146.1308  135.1981  153.0179 C   0  0  1  0  0  0  0  0  0  0  0  0
  147.1974  135.7703  153.8340 N   0  0  0  0  0  0  0  0  0  0  0  0
  146.7614  136.9566  154.5558 C   0  0  0  0  0  0  0  0  0  0  0  0
  147.8419  137.3694  155.5700 C   0  0  0  0  0  0  0  0  0  0  0  0
  149.0437  137.8911  154.9071 N   0  0  0  0  0  0  0  0  0  0  0  0
  150.2906  137.4642  155.1488 C   0  0  0  0  0  0  0  0  0  0  0  0
  150.6439  136.5847  155.9337 O   0  0  0  0  0  0  0  0  0  0  0  0
  151.2440  138.2444  154.2701 C   0  0  0  0  0  0  0  0  0  0  0  0
  150.2897  139.0731  153.5666 N   0  0  0  0  0  0  0  0  0  0  0  0
  149.0293  138.8457  153.9583 C   0  0  0  0  0  0  0  0  0  0  0  0
  148.0360  139.4193  153.5138 O   0  0  0  0  0  0  0  0  0  0  0  0
  146.6960  133.9556  152.2763 C   0  0  1  0  0  0  0  0  0  0  0  0
  147.1483  132.8373  153.2336 C   0  0  0  0  0  0  0  0  0  0  0  0
  145.7382  133.4167  151.3145 N   0  0  0  0  0  0  0  0  0  0  0  0
  145.9127  132.3644  150.4397 C   0  0  0  0  0  0  0  0  0  0  0  0
  144.7498  132.2168  149.7397 C   0  0  0  0  0  0  0  0  0  0  0  0
  143.9076  133.2359  150.2648 C   0  0  0  0  0  0  0  0  0  0  0  0
  144.4997  133.9511  151.2067 N   0  0  0  0  0  0  0  0  0  0  0  0
  144.0894  134.4814  153.3521 H   0  0  0  0  0  0  0  0  0  0  0  0
  144.5674  135.7475  154.4542 H   0  0  0  0  0  0  0  0  0  0  0  0
  145.1948  134.1173  154.6741 H   0  0  0  0  0  0  0  0  0  0  0  0
  145.8199  135.9271  152.2680 H   0  0  0  0  0  0  0  0  0  0  0  0
  147.9520  136.0389  153.2182 H   0  0  0  0  0  0  0  0  0  0  0  0
  146.5646  137.7803  153.8681 H   0  0  0  0  0  0  0  0  0  0  0  0
  145.8285  136.7395  155.0758 H   0  0  0  0  0  0  0  0  0  0  0  0
  147.4377  138.1439  156.2238 H   0  0  0  0  0  0  0  0  0  0  0  0
  148.0887  136.5355  156.2297 H   0  0  0  0  0  0  0  0  0  0  0  0
  151.9375  138.8426  154.8615 H   0  0  0  0  0  0  0  0  0  0  0  0
  151.7932  137.5955  153.5881 H   0  0  0  0  0  0  0  0  0  0  0  0
  150.5573  139.7446  152.8616 H   0  0  0  0  0  0  0  0  0  0  0  0
  147.5719  134.2701  151.7060 H   0  0  0  0  0  0  0  0  0  0  0  0
  147.9927  133.1492  153.8473 H   0  0  0  0  0  0  0  0  0  0  0  0
  147.4682  131.9544  152.6792 H   0  0  0  0  0  0  0  0  0  0  0  0
  146.3421  132.5342  153.9023 H   0  0  0  0  0  0  0  0  0  0  0  0
  146.8416  131.8158  150.3861 H   0  0  0  0  0  0  0  0  0  0  0  0
  144.5343  131.4923  148.9685 H   0  0  0  0  0  0  0  0  0  0  0  0
  142.8919  133.4776  149.9891 H   0  0  0  0  0  0  0  0  0  0  0  0
  1  2  1  0  0  0  0
  1 20  1  0  0  0  0
  1 21  1  0  0  0  0
  1 22  1  0  0  0  0
  2  3  1  0  0  0  0
  2 13  1  0  0  0  0
  2 23  1  0  0  0  0
  3  4  1  0  0  0  0
  3 24  1  0  0  0  0
  4  5  1  0  0  0  0
  4 25  1  0  0  0  0
  4 26  1  0  0  0  0
  5  6  1  0  0  0  0
  5 27  1  0  0  0  0
  5 28  1  0  0  0  0
  6 11  1  0  0  0  0
  6  7  1  0  0  0  0
  7  8  2  0  0  0  0
  7  9  1  0  0  0  0
  9 10  1  0  0  0  0
  9 29  1  0  0  0  0
  9 30  1  0  0  0  0
 10 11  1  0  0  0  0
 10 31  1  0  0  0  0
 11 12  2  0  0  0  0
 13 14  1  0  0  0  0
 13 15  1  0  0  0  0
 13 32  1  0  0  0  0
 14 33  1  0  0  0  0
 14 34  1  0  0  0  0
 14 35  1  0  0  0  0
 15 19  1  0  0  0  0
 15 16  1  0  0  0  0
 16 17  2  0  0  0  0
 16 36  1  0  0  0  0
 17 18  1  0  0  0  0
 17 37  1  0  0  0  0
 18 19  2  0  0  0  0
 18 38  1  0  0  0  0
M  END
> <s_m_source_file>
AV-unprocessed.smi

> <i_m_source_file_index>
3330

> <i_lp_mmshare_version>
43012

> <i_f3d_flags>
0

> <s_epik_input>
bjFbY0hdW2NIXVtjSF1uMVtDQEBIXShbQ0gzXSlbQ0BIXShbQ0gzXSlbTkhdW0NIMl1bQ0gyXU4yQyg9TylbQ0gyXVtOSF1DMj1P

> <s_epik_cmdline>
J2VwaWtfcHl0aG9uJywgJy1waCcsICc3LjAnLCAnLXRuJywgJzgnLCAnLW1hJywgJzIwMCcsICctbWV0YWxfYmluZGluZycsICctaW1hZScsICc8aW5maWxlLm1hZT4nLCAnLW9tYWUnLCAnPG91dGZpbGUubWFlPic=

> <r_lp_tautomer_probability>
1

> <r_epik_Ionization_Penalty>
2.2997

> <r_epik_Ionization_Penalty_Charging>
0

> <r_epik_Ionization_Penalty_Neutral>
2.2997

> <r_epik_State_Penalty>
2.44917

> <r_epik_Charging_Adjusted_Penalty>
2.44917

> <i_epik_Tot_Q>
0

> <i_epik_Tot_abs_Q>
0

> <r_epik_Metal_State_Penalty>
2.52438

> <b_epik_Metal_Only>
0

> <s_lp_Force_Field>
OPLS_2005

> <r_lp_Energy>
27.2157

> <b_lp_Chiralities_Consistent>
1

> <s_lp_Variant>
AV-unprocessed.smi:3330-8

> <Gold.Version>
5.8.1

> <Gold.Id.Protein>
6NUR|6NUR_protein|mol2

> <Gold.PLP.Fitness>
42.5446

> <Gold.PLP.PLP>
-29.2373

> <Gold.PLP.part.hbond>
-3.0000

> <Gold.PLP.part.metal>
0.0000

> <Gold.PLP.part.buried>
-4.9229

> <Gold.PLP.part.nonpolar>
-21.6615

> <Gold.PLP.part.repulsive>
0.4383

> <Gold.PLP.ligand.clash>
0.0000

> <Gold.PLP.ligand.torsion>
0.1706

> <Gold.PLP.Chemscore.Hbond>
2.5117

> <Gold.PLP.Chemscore.CHOScore>
2.0000

> <Gold.PLP.Chemscore.Metal>
0.0000

> <Gold.Chemscore.Hbonds>
donor molecule, donor type, donor heavy atom, donor atom, acceptor molecule, acceptor atom, score
      L1  H     3    24       P1  7948  1.00
      L1  H    10    31       P1  7957  0.51
      L1  C    16    36       P1 10747  1.00
      L1  C    18    38       P1 10186  1.00

> <Gold.PLP.Chemscore.Internal.Correction>
0.1134

> <Gold.Rescore>
     Score         DG    S(hbond)    S(metal)    S(lipo)     H(rot)  DE(clash)    DE(int)     intcor
     13.27     -15.00       2.81        0.00      57.91       2.60       0.06       1.67       ----

> <Gold.Chemscore.Fitness>
13.2665

> <Gold.Chemscore.DG>
-14.9972

> <Gold.Chemscore.ZeroCoef>
-5.4800

> <Gold.Chemscore.Hbond>
2.8100

> <Gold.Chemscore.Metal>
0.0000

> <Gold.Chemscore.Lipo>
57.9095

> <Gold.Chemscore.Internal_Hbond>
0.0000

> <Gold.Chemscore.DEClash>
0.0632

> <Gold.Chemscore.DEInternal>
1.6675

> <Gold.Chemscore.Rot>
2.5952

> <Gold.Chemscore.Internal.Correction>
   9.000000E+99

> <Gold.Chemscore.Hbonds>
donor molecule, donor type, donor heavy atom, donor atom, acceptor molecule, acceptor atom, score
      L1  H     3    24       P1  7948  1.00
      L1  H    10    31       P1  7957  0.44

> <Gold.Chemscore.Hbond.Weighted>
-9.3855

> <Gold.Chemscore.Metal.Weighted>
-0.0000

> <Gold.Chemscore.Lipo.Weighted>
-6.7754

> <Gold.Chemscore.Internal_Hbond.Weighted>
0.0000

> <Gold.Chemscore.DEClash.Weighted>
0.0632

> <Gold.Chemscore.DEInternal.Weighted>
1.6675

> <Gold.Chemscore.Rot.Weighted>
6.6437

> <Gold.Chemscore.Internal.Correction.Weighted>
   9.000000E+99

> <Gold.Protein.RotatedTorsions>
[ 6907 6896 6895 6894 ] final -162.35 input  -60.11 | X-H torsion
[ 7974 7965 7964 7962 ] final   84.75 input  175.53 | X-H torsion
[ 8008 7997 7996 7995 ] final  125.85 input   59.86 | X-H torsion
[ 10167 10162 10161 10158 ] final   93.91 input  -65.29 | X-H torsion
[ 10718 10713 10712 10709 ] final   92.50 input   66.30 | X-H torsion
[ 10763 10752 10751 10750 ] final  -49.12 input  -60.55 | X-H torsion
[ 11005 11000 10999 10996 ] final  -76.15 input  -57.11 | X-H torsion

> <Gold.Protein.ActiveResidues>
 VAL166  LYS551  ARG553  GLY616  TRP617  ASP618  TYR619  PRO620  LYS621  CYS622 
 ASP623  PHE694  ASN695  SER759  ASP760  ASP761  ALA762  ILE779  LEU786  VAL792 
 PHE793  MET794  SER795  GLU796  ALA797  LYS798  CYS799  TRP800  GLU811  SER814 

> <Gold.Protein.RotatedAtoms>
  151.3790  133.3828  159.2707 H   0  0  0  0  0  0  0  0  0  0  0  0  # atno 6907 bound_to 6896
  150.9592  134.8983  159.7730 H   0  0  0  0  0  0  0  0  0  0  0  0  # atno 6908 bound_to 6896
  152.5143  134.3748  159.9383 H   0  0  0  0  0  0  0  0  0  0  0  0  # atno 6909 bound_to 6896
  145.5946  139.2343  143.2280 H   0  0  0  0  0  0  0  0  0  0  0  0  # atno 7974 bound_to 7965
  156.2847  140.2706  156.2017 H   0  0  0  0  0  0  0  0  0  0  0  0  # atno 8008 bound_to 7997
  155.0355  140.0386  157.2508 H   0  0  0  0  0  0  0  0  0  0  0  0  # atno 8009 bound_to 7997
  154.7318  140.2708  155.6454 H   0  0  0  0  0  0  0  0  0  0  0  0  # atno 8010 bound_to 7997
  139.8134  144.6763  150.9611 H   0  0  0  0  0  0  0  0  0  0  0  0  # atno 10167 bound_to 10162
  157.6958  131.0445  150.3891 H   0  0  0  0  0  0  0  0  0  0  0  0  # atno 10718 bound_to 10713
  154.0889  135.6580  153.4849 H   0  0  0  0  0  0  0  0  0  0  0  0  # atno 10763 bound_to 10752
  153.0329  135.5197  154.7400 H   0  0  0  0  0  0  0  0  0  0  0  0  # atno 10764 bound_to 10752
  154.6518  135.3002  154.9946 H   0  0  0  0  0  0  0  0  0  0  0  0  # atno 10765 bound_to 10752
  141.1651  133.6973  156.7625 H   0  0  0  0  0  0  0  0  0  0  0  0  # atno 11005 bound_to 11000
  146.1622  140.6772  142.9272 LP  0  0  0  0  0  0  0  0  0  0  0  0  # atno 17320 bound_to 7965
  144.7336  140.4744  143.6920 LP  0  0  0  0  0  0  0  0  0  0  0  0  # atno 17321 bound_to 7965
  140.7817  143.4162  151.0913 LP  0  0  0  0  0  0  0  0  0  0  0  0  # atno 17342 bound_to 10162
  139.7827  143.8331  152.3140 LP  0  0  0  0  0  0  0  0  0  0  0  0  # atno 17343 bound_to 10162
  156.4297  130.3969  149.6769 LP  0  0  0  0  0  0  0  0  0  0  0  0  # atno 17370 bound_to 10713
  156.3991  130.7665  151.2672 LP  0  0  0  0  0  0  0  0  0  0  0  0  # atno 17371 bound_to 10713
  140.2523  134.8531  157.3679 LP  0  0  0  0  0  0  0  0  0  0  0  0  # atno 17394 bound_to 11000
  140.1690  134.4632  155.7844 LP  0  0  0  0  0  0  0  0  0  0  0  0  # atno 17395 bound_to 11000

$$$$
