AV-unprocessed.smi:1830|AV-procd|sdf|7442|dock5
  -GOLD-   22720 9133D 1   1.00000     0.00000
 Structure written by MMmdl.
 52 55  0  0  0  0  0  0  0  0  1 V2000
  150.2226  133.8563  155.6342 O   0  0  0  0  0  0  0  0  0  0  0  0
  149.7554  134.5182  154.7080 C   0  0  0  0  0  0  0  0  0  0  0  0
  149.9325  135.8400  154.5757 N   0  0  0  0  0  0  0  0  0  0  0  0
  150.6337  136.6977  155.5253 C   0  0  0  0  0  0  0  0  0  0  0  0
  151.4578  137.7745  154.7909 C   0  0  2  0  0  0  0  0  0  0  0  0
  152.2748  138.6665  155.7559 C   0  0  0  0  0  0  0  0  0  0  0  0
  151.4119  139.6212  156.4265 N   0  0  0  0  0  0  0  0  0  0  0  0
  152.0543  140.5847  157.2897 C   0  0  0  0  0  0  0  0  0  0  0  0
  150.9866  141.6708  157.5082 C   0  0  0  0  0  0  0  0  0  0  0  0
  150.0063  141.4896  156.3285 C   0  0  0  0  0  0  0  0  0  0  0  0
  150.6955  140.4245  155.4736 C   0  0  2  0  0  0  0  0  0  0  0  0
  149.8036  139.5467  154.5870 C   0  0  0  0  0  0  0  0  0  0  0  0
  150.6325  138.5804  153.9338 O   0  0  0  0  0  0  0  0  0  0  0  0
  149.0174  134.0293  153.6975 N   0  0  0  0  0  0  0  0  0  0  0  0
  148.6453  132.6793  153.4333 C   0  0  0  0  0  0  0  0  0  0  0  0
  149.3882  131.5723  153.9131 C   0  0  0  0  0  0  0  0  0  0  0  0
  148.9386  130.2695  153.6343 C   0  0  0  0  0  0  0  0  0  0  0  0
  147.7547  130.1169  152.8927 C   0  0  0  0  0  0  0  0  0  0  0  0
  147.0277  131.1590  152.4427 N   0  0  0  0  0  0  0  0  0  0  0  0
  147.4497  132.4193  152.7091 C   0  0  0  0  0  0  0  0  0  0  0  0
  146.6774  133.4872  152.2043 N   0  0  0  0  0  0  0  0  0  0  0  0
  146.5958  133.5206  150.7467 C   0  0  0  0  0  0  0  0  0  0  0  0
  145.1974  134.0374  150.4047 C   0  0  0  0  0  0  0  0  0  0  0  0
  144.3673  133.5960  151.6034 C   0  0  0  0  0  0  0  0  0  0  0  0
  145.3509  133.7495  152.7622 C   0  0  0  0  0  0  0  0  0  0  0  0
  149.5175  136.2958  153.7765 H   0  0  0  0  0  0  0  0  0  0  0  0
  149.9467  137.1494  156.2422 H   0  0  0  0  0  0  0  0  0  0  0  0
  151.3011  136.0650  156.1107 H   0  0  0  0  0  0  0  0  0  0  0  0
  152.1645  137.2554  154.1422 H   0  0  0  0  0  0  0  0  0  0  0  0
  152.8020  138.0549  156.4888 H   0  0  0  0  0  0  0  0  0  0  0  0
  153.0384  139.2008  155.1887 H   0  0  0  0  0  0  0  0  0  0  0  0
  152.3889  140.1302  158.2227 H   0  0  0  0  0  0  0  0  0  0  0  0
  152.9242  141.0155  156.7911 H   0  0  0  0  0  0  0  0  0  0  0  0
  150.4686  141.5240  158.4566 H   0  0  0  0  0  0  0  0  0  0  0  0
  151.4335  142.6652  157.5203 H   0  0  0  0  0  0  0  0  0  0  0  0
  149.0427  141.1298  156.6919 H   0  0  0  0  0  0  0  0  0  0  0  0
  149.8376  142.4139  155.7753 H   0  0  0  0  0  0  0  0  0  0  0  0
  151.4161  140.9331  154.8292 H   0  0  0  0  0  0  0  0  0  0  0  0
  149.0309  139.0517  155.1755 H   0  0  0  0  0  0  0  0  0  0  0  0
  149.2963  140.1498  153.8340 H   0  0  0  0  0  0  0  0  0  0  0  0
  148.7639  134.6901  152.9775 H   0  0  0  0  0  0  0  0  0  0  0  0
  150.2834  131.6941  154.5022 H   0  0  0  0  0  0  0  0  0  0  0  0
  149.4865  129.4080  153.9862 H   0  0  0  0  0  0  0  0  0  0  0  0
  147.3779  129.1320  152.6592 H   0  0  0  0  0  0  0  0  0  0  0  0
  147.3691  134.1611  150.3217 H   0  0  0  0  0  0  0  0  0  0  0  0
  146.7325  132.5169  150.3408 H   0  0  0  0  0  0  0  0  0  0  0  0
  145.2085  135.1266  150.3452 H   0  0  0  0  0  0  0  0  0  0  0  0
  144.8218  133.6502  149.4573 H   0  0  0  0  0  0  0  0  0  0  0  0
  143.4585  134.1834  151.7359 H   0  0  0  0  0  0  0  0  0  0  0  0
  144.0832  132.5484  151.4933 H   0  0  0  0  0  0  0  0  0  0  0  0
  145.0794  133.1188  153.6087 H   0  0  0  0  0  0  0  0  0  0  0  0
  145.3425  134.7790  153.1212 H   0  0  0  0  0  0  0  0  0  0  0  0
  1  2  2  0  0  0  0
  2  3  1  0  0  0  0
  2 14  1  0  0  0  0
  3  4  1  0  0  0  0
  3 26  1  0  0  0  0
  4  5  1  0  0  0  0
  4 27  1  0  0  0  0
  4 28  1  0  0  0  0
  5 13  1  0  0  0  0
  5  6  1  0  0  0  0
  5 29  1  0  0  0  0
  6  7  1  0  0  0  0
  6 30  1  0  0  0  0
  6 31  1  0  0  0  0
  7 11  1  0  0  0  0
  7  8  1  0  0  0  0
  8  9  1  0  0  0  0
  8 32  1  0  0  0  0
  8 33  1  0  0  0  0
  9 10  1  0  0  0  0
  9 34  1  0  0  0  0
  9 35  1  0  0  0  0
 10 11  1  0  0  0  0
 10 36  1  0  0  0  0
 10 37  1  0  0  0  0
 11 12  1  0  0  0  0
 11 38  1  0  0  0  0
 12 13  1  0  0  0  0
 12 39  1  0  0  0  0
 12 40  1  0  0  0  0
 14 15  1  0  0  0  0
 14 41  1  0  0  0  0
 15 20  1  0  0  0  0
 15 16  2  0  0  0  0
 16 17  1  0  0  0  0
 16 42  1  0  0  0  0
 17 18  2  0  0  0  0
 17 43  1  0  0  0  0
 18 19  1  0  0  0  0
 18 44  1  0  0  0  0
 19 20  2  0  0  0  0
 20 21  1  0  0  0  0
 21 25  1  0  0  0  0
 21 22  1  0  0  0  0
 22 23  1  0  0  0  0
 22 45  1  0  0  0  0
 22 46  1  0  0  0  0
 23 24  1  0  0  0  0
 23 47  1  0  0  0  0
 23 48  1  0  0  0  0
 24 25  1  0  0  0  0
 24 49  1  0  0  0  0
 24 50  1  0  0  0  0
 25 51  1  0  0  0  0
 25 52  1  0  0  0  0
M  END
> <s_m_source_file>
AV-unprocessed.smi

> <i_m_source_file_index>
1830

> <i_lp_mmshare_version>
43012

> <i_f3d_flags>
0

> <s_epik_input>
W0NIMl0xW0NIMl1bQ0gyXVtDQEhdKE4xMilbQ0gyXU9bQ0BASF0oW0NIMl0yKVtDSDJdW05IXUMoPU8pW05IXWMzW2NIXVtjSF1bY0hdbmMzTjRbQ0gyXVtDSDJdW0NIMl1bQ0gyXTQ=

> <s_epik_cmdline>
J2VwaWtfcHl0aG9uJywgJy1waCcsICc3LjAnLCAnLXRuJywgJzgnLCAnLW1hJywgJzIwMCcsICctbWV0YWxfYmluZGluZycsICctaW1hZScsICc8aW5maWxlLm1hZT4nLCAnLW9tYWUnLCAnPG91dGZpbGUubWFlPic=

> <r_lp_tautomer_probability>
1

> <r_epik_Ionization_Penalty>
1.16487

> <r_epik_Ionization_Penalty_Charging>
0

> <r_epik_Ionization_Penalty_Neutral>
1.16487

> <r_epik_State_Penalty>
1.21807

> <r_epik_Charging_Adjusted_Penalty>
1.21807

> <i_epik_Tot_Q>
0

> <i_epik_Tot_abs_Q>
0

> <r_epik_Metal_State_Penalty>
1.19922

> <b_epik_Metal_Only>
0

> <s_lp_Force_Field>
OPLS_2005

> <r_lp_Energy>
77.9026

> <b_lp_Chiralities_Consistent>
1

> <s_lp_Variant>
AV-unprocessed.smi:1830-11

> <Gold.Version>
5.8.1

> <Gold.Id.Protein>
6NUR|6NUR_protein|mol2

> <Gold.PLP.Fitness>
47.0343

> <Gold.PLP.PLP>
-41.7255

> <Gold.PLP.part.hbond>
-2.0000

> <Gold.PLP.part.metal>
0.0000

> <Gold.PLP.part.buried>
-5.5189

> <Gold.PLP.part.nonpolar>
-35.2947

> <Gold.PLP.part.repulsive>
0.6078

> <Gold.PLP.ligand.clash>
0.0000

> <Gold.PLP.ligand.torsion>
0.3799

> <Gold.PLP.Chemscore.Hbond>
1.9680

> <Gold.PLP.Chemscore.CHOScore>
0.0000

> <Gold.PLP.Chemscore.Metal>
0.0000

> <Gold.Chemscore.Hbonds>
donor molecule, donor type, donor heavy atom, donor atom, acceptor molecule, acceptor atom, score
      L1  H     3    26       P1  7948  0.98
      L1  H    14    41       P1  7948  0.85

> <Gold.PLP.Chemscore.Internal.Correction>
0.1646

> <Gold.Rescore>
     Score         DG    S(hbond)    S(metal)    S(lipo)     H(rot)  DE(clash)    DE(int)     intcor
     15.96     -17.59       1.41        0.00      93.40       1.37       0.05       1.58       ----

> <Gold.Chemscore.Fitness>
15.9618

> <Gold.Chemscore.DG>
-17.5944

> <Gold.Chemscore.ZeroCoef>
-5.4800

> <Gold.Chemscore.Hbond>
1.4087

> <Gold.Chemscore.Metal>
0.0000

> <Gold.Chemscore.Lipo>
93.4026

> <Gold.Chemscore.Internal_Hbond>
0.0000

> <Gold.Chemscore.DEClash>
0.0544

> <Gold.Chemscore.DEInternal>
1.5782

> <Gold.Chemscore.Rot>
1.3746

> <Gold.Chemscore.Internal.Correction>
   9.000000E+99

> <Gold.Chemscore.Hbonds>
donor molecule, donor type, donor heavy atom, donor atom, acceptor molecule, acceptor atom, score
      L1  H     3    26       P1  7948  0.59
      L1  H    14    41       P1  7948  0.14

> <Gold.Chemscore.Hbond.Weighted>
-4.7052

> <Gold.Chemscore.Metal.Weighted>
-0.0000

> <Gold.Chemscore.Lipo.Weighted>
-10.9281

> <Gold.Chemscore.Internal_Hbond.Weighted>
0.0000

> <Gold.Chemscore.DEClash.Weighted>
0.0544

> <Gold.Chemscore.DEInternal.Weighted>
1.5782

> <Gold.Chemscore.Rot.Weighted>
3.5189

> <Gold.Chemscore.Internal.Correction.Weighted>
   9.000000E+99

> <Gold.Protein.RotatedTorsions>
[ 6907 6896 6895 6894 ] final   48.47 input  -60.11 | X-H torsion
[ 7974 7965 7964 7962 ] final    8.59 input  175.53 | X-H torsion
[ 8008 7997 7996 7995 ] final  144.34 input   59.86 | X-H torsion
[ 10167 10162 10161 10158 ] final   55.82 input  -65.29 | X-H torsion
[ 10718 10713 10712 10709 ] final  -13.57 input   66.30 | X-H torsion
[ 10763 10752 10751 10750 ] final  -54.72 input  -60.55 | X-H torsion
[ 11005 11000 10999 10996 ] final  124.50 input  -57.11 | X-H torsion

> <Gold.Protein.ActiveResidues>
 VAL166  LYS551  ARG553  GLY616  TRP617  ASP618  TYR619  PRO620  LYS621  CYS622 
 ASP623  PHE694  ASN695  SER759  ASP760  ASP761  ALA762  ILE779  LEU786  VAL792 
 PHE793  MET794  SER795  GLU796  ALA797  LYS798  CYS799  TRP800  GLU811  SER814 

> <Gold.Protein.RotatedAtoms>
  152.2798  134.7841  160.0398 H   0  0  0  0  0  0  0  0  0  0  0  0  # atno 6907 bound_to 6896
  151.8424  133.3420  159.3655 H   0  0  0  0  0  0  0  0  0  0  0  0  # atno 6908 bound_to 6896
  150.7185  134.5307  159.5743 H   0  0  0  0  0  0  0  0  0  0  0  0  # atno 6909 bound_to 6896
  146.2414  139.9911  142.8425 H   0  0  0  0  0  0  0  0  0  0  0  0  # atno 7974 bound_to 7965
  156.2910  140.2238  156.5038 H   0  0  0  0  0  0  0  0  0  0  0  0  # atno 8008 bound_to 7997
  154.7667  140.0469  157.1040 H   0  0  0  0  0  0  0  0  0  0  0  0  # atno 8009 bound_to 7997
  154.9924  140.3091  155.4904 H   0  0  0  0  0  0  0  0  0  0  0  0  # atno 8010 bound_to 7997
  140.2153  144.3845  150.6472 H   0  0  0  0  0  0  0  0  0  0  0  0  # atno 10167 bound_to 10162
  156.6284  130.4894  149.6138 H   0  0  0  0  0  0  0  0  0  0  0  0  # atno 10718 bound_to 10713
  154.1794  135.6446  153.5030 H   0  0  0  0  0  0  0  0  0  0  0  0  # atno 10763 bound_to 10752
  153.0063  135.5402  154.6530 H   0  0  0  0  0  0  0  0  0  0  0  0  # atno 10764 bound_to 10752
  154.5890  135.2932  155.0627 H   0  0  0  0  0  0  0  0  0  0  0  0  # atno 10765 bound_to 10752
  139.9362  134.9639  156.8419 H   0  0  0  0  0  0  0  0  0  0  0  0  # atno 11005 bound_to 11000
  145.1503  140.9619  143.4437 LP  0  0  0  0  0  0  0  0  0  0  0  0  # atno 17320 bound_to 7965
  145.0212  139.3423  143.6071 LP  0  0  0  0  0  0  0  0  0  0  0  0  # atno 17321 bound_to 7965
  140.6294  143.2185  151.6528 LP  0  0  0  0  0  0  0  0  0  0  0  0  # atno 17342 bound_to 10162
  139.5164  144.3347  152.0794 LP  0  0  0  0  0  0  0  0  0  0  0  0  # atno 17343 bound_to 10162
  156.2255  130.6763  151.1411 LP  0  0  0  0  0  0  0  0  0  0  0  0  # atno 17370 bound_to 10713
  157.7207  131.0683  150.6146 LP  0  0  0  0  0  0  0  0  0  0  0  0  # atno 17371 bound_to 10713
  140.6071  134.0117  155.7561 LP  0  0  0  0  0  0  0  0  0  0  0  0  # atno 17394 bound_to 11000
  141.0976  133.9819  157.3134 LP  0  0  0  0  0  0  0  0  0  0  0  0  # atno 17395 bound_to 11000

$$$$
