AV-unprocessed.smi:2603|AV-procd|sdf|10186|dock1
  -GOLD-   2272014203D 1   1.00000     0.00000
 Structure written by MMmdl.
 35 36  0  0  0  0  0  0  0  0  1 V2000
  146.6408  133.4292  151.0159 C   0  0  0  0  0  0  0  0  0  0  0  0
  147.6157  133.1857  152.1703 C   0  0  0  0  0  0  0  0  0  0  0  0
  147.1638  133.8933  153.3108 O   0  0  0  0  0  0  0  0  0  0  0  0
  147.9333  133.5977  154.4657 C   0  0  1  0  0  0  0  0  0  0  0  0
  149.4165  133.7220  154.2558 C   0  0  0  0  0  0  0  0  0  0  0  0
  148.6687  134.7973  155.0245 C   0  0  1  0  0  0  0  0  0  0  0  0
  148.4733  136.0570  154.3841 N   0  0  0  0  0  0  0  0  0  0  0  0
  148.1147  137.1985  154.9884 C   0  0  0  0  0  0  0  0  0  0  0  0
  147.9516  137.3075  156.2035 O   0  0  0  0  0  0  0  0  0  0  0  0
  147.8898  138.4027  154.0742 C   0  0  0  0  0  0  0  0  0  0  0  0
  148.8893  139.4813  154.4071 C   0  0  0  0  0  0  0  0  0  0  0  0
  150.2924  139.3522  154.6269 C   0  0  0  0  0  0  0  0  0  0  0  0
  151.1482  138.1186  154.5873 C   0  0  0  0  0  0  0  0  0  0  0  0
  150.8584  140.5165  154.8956 N   0  0  0  0  0  0  0  0  0  0  0  0
  149.8297  141.4623  154.8560 O   0  0  0  0  0  0  0  0  0  0  0  0
  148.6699  140.8227  154.5611 C   0  0  0  0  0  0  0  0  0  0  0  0
  147.4466  141.6702  154.4669 C   0  0  0  0  0  0  0  0  0  0  0  0
  146.9591  132.8976  150.1190 H   0  0  0  0  0  0  0  0  0  0  0  0
  146.5795  134.4900  150.7718 H   0  0  0  0  0  0  0  0  0  0  0  0
  145.6381  133.0849  151.2705 H   0  0  0  0  0  0  0  0  0  0  0  0
  147.6752  132.1188  152.3903 H   0  0  0  0  0  0  0  0  0  0  0  0
  148.6153  133.5224  151.8913 H   0  0  0  0  0  0  0  0  0  0  0  0
  147.5204  132.8556  155.1470 H   0  0  0  0  0  0  0  0  0  0  0  0
  150.0609  133.0558  154.8258 H   0  0  0  0  0  0  0  0  0  0  0  0
  149.7668  133.9611  153.2530 H   0  0  0  0  0  0  0  0  0  0  0  0
  148.8176  134.8040  156.1034 H   0  0  0  0  0  0  0  0  0  0  0  0
  148.5757  136.0694  153.3797 H   0  0  0  0  0  0  0  0  0  0  0  0
  147.9825  138.0827  153.0358 H   0  0  0  0  0  0  0  0  0  0  0  0
  146.8643  138.7563  154.1879 H   0  0  0  0  0  0  0  0  0  0  0  0
  150.6019  137.2611  154.1961 H   0  0  0  0  0  0  0  0  0  0  0  0
  151.5041  137.8573  155.5839 H   0  0  0  0  0  0  0  0  0  0  0  0
  152.0204  138.2681  153.9508 H   0  0  0  0  0  0  0  0  0  0  0  0
  146.6784  141.1819  153.8671 H   0  0  0  0  0  0  0  0  0  0  0  0
  147.6734  142.6303  154.0031 H   0  0  0  0  0  0  0  0  0  0  0  0
  147.0327  141.8603  155.4569 H   0  0  0  0  0  0  0  0  0  0  0  0
  1  2  1  0  0  0  0
  1 18  1  0  0  0  0
  1 19  1  0  0  0  0
  1 20  1  0  0  0  0
  2  3  1  0  0  0  0
  2 21  1  0  0  0  0
  2 22  1  0  0  0  0
  3  4  1  0  0  0  0
  4  6  1  0  0  0  0
  4  5  1  0  0  0  0
  4 23  1  0  0  0  0
  5  6  1  0  0  0  0
  5 24  1  0  0  0  0
  5 25  1  0  0  0  0
  6  7  1  0  0  0  0
  6 26  1  0  0  0  0
  7  8  1  0  0  0  0
  7 27  1  0  0  0  0
  8  9  2  0  0  0  0
  8 10  1  0  0  0  0
 10 11  1  0  0  0  0
 10 28  1  0  0  0  0
 10 29  1  0  0  0  0
 11 16  2  0  0  0  0
 11 12  1  0  0  0  0
 12 13  1  0  0  0  0
 12 14  2  0  0  0  0
 13 30  1  0  0  0  0
 13 31  1  0  0  0  0
 13 32  1  0  0  0  0
 14 15  1  0  0  0  0
 15 16  1  0  0  0  0
 16 17  1  0  0  0  0
 17 33  1  0  0  0  0
 17 34  1  0  0  0  0
 17 35  1  0  0  0  0
M  END
> <s_m_source_file>
AV-unprocessed.smi

> <i_m_source_file_index>
2603

> <i_lp_mmshare_version>
43012

> <i_f3d_flags>
0

> <s_epik_input>
W0NIM11bQ0gyXU9bQ0BASF0xW0NIMl1bQ0BIXTFbTkhdQyg9TylbQ0gyXWMyYyhbQ0gzXSlub2MyW0NIM10=

> <s_epik_cmdline>
J2VwaWtfcHl0aG9uJywgJy1waCcsICc3LjAnLCAnLXRuJywgJzgnLCAnLW1hJywgJzIwMCcsICctbWV0YWxfYmluZGluZycsICctaW1hZScsICc8aW5maWxlLm1hZT4nLCAnLW9tYWUnLCAnPG91dGZpbGUubWFlPic=

> <r_lp_tautomer_probability>
1

> <r_epik_Ionization_Penalty>
2.37325e-08

> <r_epik_Ionization_Penalty_Charging>
0

> <r_epik_Ionization_Penalty_Neutral>
2.37325e-08

> <r_epik_State_Penalty>
-0

> <r_epik_Charging_Adjusted_Penalty>
0

> <i_epik_Tot_Q>
0

> <i_epik_Tot_abs_Q>
0

> <r_epik_Metal_State_Penalty>
-0

> <b_epik_Metal_Only>
0

> <s_lp_Force_Field>
OPLS_2005

> <r_lp_Energy>
11.0439

> <b_lp_Chiralities_Consistent>
1

> <s_lp_Variant>
AV-unprocessed.smi:2603-2

> <Gold.Version>
5.8.1

> <Gold.Id.Protein>
6NUR|6NUR_protein|mol2

> <Gold.PLP.Fitness>
32.8997

> <Gold.PLP.PLP>
-27.6769

> <Gold.PLP.part.hbond>
-2.8062

> <Gold.PLP.part.metal>
0.0000

> <Gold.PLP.part.buried>
-1.5489

> <Gold.PLP.part.nonpolar>
-23.4700

> <Gold.PLP.part.repulsive>
0.3662

> <Gold.PLP.ligand.clash>
0.0000

> <Gold.PLP.ligand.torsion>
0.7302

> <Gold.PLP.Chemscore.Hbond>
2.0000

> <Gold.PLP.Chemscore.CHOScore>
0.0000

> <Gold.PLP.Chemscore.Metal>
0.0000

> <Gold.Chemscore.Hbonds>
donor molecule, donor type, donor heavy atom, donor atom, acceptor molecule, acceptor atom, score
      L1  H     7    27       P1  7948  1.00
      P1  H  7989  7998       L1    14  1.00

> <Gold.PLP.Chemscore.Internal.Correction>
0.6831

> <Gold.Rescore>
     Score         DG    S(hbond)    S(metal)    S(lipo)     H(rot)  DE(clash)    DE(int)     intcor
     13.86     -14.46       1.74        0.00      64.23       1.69       0.07       0.53       ----

> <Gold.Chemscore.Fitness>
13.8623

> <Gold.Chemscore.DG>
-14.4565

> <Gold.Chemscore.ZeroCoef>
-5.4800

> <Gold.Chemscore.Hbond>
1.7356

> <Gold.Chemscore.Metal>
0.0000

> <Gold.Chemscore.Lipo>
64.2254

> <Gold.Chemscore.Internal_Hbond>
0.0000

> <Gold.Chemscore.DEClash>
0.0685

> <Gold.Chemscore.DEInternal>
0.5257

> <Gold.Chemscore.Rot>
1.6933

> <Gold.Chemscore.Internal.Correction>
   9.000000E+99

> <Gold.Chemscore.Hbonds>
donor molecule, donor type, donor heavy atom, donor atom, acceptor molecule, acceptor atom, score
      L1  H     7    27       P1  7948  0.96
      P1  H  7989  7998       L1    14  0.10

> <Gold.Chemscore.Hbond.Weighted>
-5.7969

> <Gold.Chemscore.Metal.Weighted>
-0.0000

> <Gold.Chemscore.Lipo.Weighted>
-7.5144

> <Gold.Chemscore.Internal_Hbond.Weighted>
0.0000

> <Gold.Chemscore.DEClash.Weighted>
0.0685

> <Gold.Chemscore.DEInternal.Weighted>
0.5257

> <Gold.Chemscore.Rot.Weighted>
4.3348

> <Gold.Chemscore.Internal.Correction.Weighted>
   9.000000E+99

> <Gold.Protein.RotatedTorsions>
[ 6907 6896 6895 6894 ] final  172.71 input  -60.11 | X-H torsion
[ 7974 7965 7964 7962 ] final   -2.52 input  175.53 | X-H torsion
[ 8008 7997 7996 7995 ] final -139.31 input   59.86 | X-H torsion
[ 10167 10162 10161 10158 ] final   47.26 input  -65.29 | X-H torsion
[ 10718 10713 10712 10709 ] final  -97.27 input   66.30 | X-H torsion
[ 10763 10752 10751 10750 ] final  -71.09 input  -60.55 | X-H torsion
[ 11005 11000 10999 10996 ] final   27.14 input  -57.11 | X-H torsion

> <Gold.Protein.ActiveResidues>
 VAL166  LYS551  ARG553  GLY616  TRP617  ASP618  TYR619  PRO620  LYS621  CYS622 
 ASP623  PHE694  ASN695  SER759  ASP760  ASP761  ALA762  ILE779  LEU786  VAL792 
 PHE793  MET794  SER795  GLU796  ALA797  LYS798  CYS799  TRP800  GLU811  SER814 

> <Gold.Protein.RotatedAtoms>
  151.7800  133.3349  159.3468 H   0  0  0  0  0  0  0  0  0  0  0  0  # atno 6907 bound_to 6896
  150.7430  134.5939  159.6011 H   0  0  0  0  0  0  0  0  0  0  0  0  # atno 6908 bound_to 6896
  152.3282  134.7294  160.0347 H   0  0  0  0  0  0  0  0  0  0  0  0  # atno 6909 bound_to 6896
  146.2403  140.1584  142.8333 H   0  0  0  0  0  0  0  0  0  0  0  0  # atno 7974 bound_to 7965
  155.4428  140.0533  157.3009 H   0  0  0  0  0  0  0  0  0  0  0  0  # atno 8008 bound_to 7997
  154.4811  140.2081  155.9719 H   0  0  0  0  0  0  0  0  0  0  0  0  # atno 8009 bound_to 7997
  156.1206  140.3189  155.8208 H   0  0  0  0  0  0  0  0  0  0  0  0  # atno 8010 bound_to 7997
  140.3054  144.2884  150.6210 H   0  0  0  0  0  0  0  0  0  0  0  0  # atno 10167 bound_to 10162
  156.0080  130.5187  150.6349 H   0  0  0  0  0  0  0  0  0  0  0  0  # atno 10718 bound_to 10713
  154.4269  135.5973  153.6044 H   0  0  0  0  0  0  0  0  0  0  0  0  # atno 10763 bound_to 10752
  152.9796  135.5966  154.3887 H   0  0  0  0  0  0  0  0  0  0  0  0  # atno 10764 bound_to 10752
  154.3719  135.2841  155.2240 H   0  0  0  0  0  0  0  0  0  0  0  0  # atno 10765 bound_to 10752
  140.3295  134.2454  155.7704 H   0  0  0  0  0  0  0  0  0  0  0  0  # atno 11005 bound_to 11000
  145.0110  140.8713  143.5224 LP  0  0  0  0  0  0  0  0  0  0  0  0  # atno 17320 bound_to 7965
  145.1617  139.2454  143.5388 LP  0  0  0  0  0  0  0  0  0  0  0  0  # atno 17321 bound_to 7965
  140.5615  143.2191  151.7758 LP  0  0  0  0  0  0  0  0  0  0  0  0  # atno 17342 bound_to 10162
  139.4905  144.4343  151.9837 LP  0  0  0  0  0  0  0  0  0  0  0  0  # atno 17343 bound_to 10162
  157.4140  131.0827  151.1194 LP  0  0  0  0  0  0  0  0  0  0  0  0  # atno 17370 bound_to 10713
  157.1816  130.6312  149.5674 LP  0  0  0  0  0  0  0  0  0  0  0  0  # atno 17371 bound_to 10713
  141.2067  133.7826  157.0162 LP  0  0  0  0  0  0  0  0  0  0  0  0  # atno 17394 bound_to 11000
  140.0873  134.9613  157.1720 LP  0  0  0  0  0  0  0  0  0  0  0  0  # atno 17395 bound_to 11000

$$$$
