AV-unprocessed.smi:932|AV-procd|sdf|4199|dock5
  -GOLD-   22720 2103D 1   1.00000     0.00000
 Structure written by MMmdl.
 44 45  0  0  0  0  0  0  0  0  2 V2000
  151.5643  140.3793  155.5013 O   0  0  0  0  0  0  0  0  0  0  0  0
  151.0828  139.8525  156.5026 C   0  0  0  0  0  0  0  0  0  0  0  0
  150.3829  138.7054  156.4697 N   0  0  0  0  0  0  0  0  0  0  0  0
  150.0738  137.9368  155.2679 C   0  0  0  0  0  0  0  0  0  0  0  0
  149.4894  138.8204  154.1494 C   0  0  0  0  0  0  0  0  0  0  0  0
  148.0696  139.1276  154.3459 N   0  0  0  0  0  0  0  0  0  0  0  0
  147.2787  138.7658  155.4065 C   0  0  0  0  0  0  0  0  0  0  0  0
  146.0340  139.2848  155.1601 C   0  0  0  0  0  0  0  0  0  0  0  0
  146.1160  139.9356  153.9581 N   0  3  0  0  0  0  0  0  0  0  0  0
  147.3537  139.8356  153.4629 C   0  0  0  0  0  0  0  0  0  0  0  0
  151.2233  140.3952  157.7255 N   0  0  0  0  0  0  0  0  0  0  0  0
  151.9198  141.6270  158.1098 C   0  0  0  0  0  0  0  0  0  0  0  0
  152.0621  141.6192  159.6504 C   0  0  0  0  0  0  0  0  0  0  0  0
  152.9831  142.7102  160.2333 C   0  0  0  0  0  0  0  0  0  0  0  0
  152.2657  143.9182  160.8664 C   0  0  0  0  0  0  0  0  0  0  0  0
  151.0607  144.4936  160.1008 C   0  0  0  0  0  0  0  0  0  0  0  0
  151.3584  145.1303  158.7316 C   0  0  0  0  0  0  0  0  0  0  0  0
  151.8902  144.1945  157.6289 C   0  0  0  0  0  0  0  0  0  0  0  0
  151.1667  142.8384  157.5030 C   0  0  0  0  0  0  0  0  0  0  0  0
  150.0365  138.3400  157.3451 H   0  0  0  0  0  0  0  0  0  0  0  0
  150.9502  137.3904  154.9148 H   0  0  0  0  0  0  0  0  0  0  0  0
  149.3395  137.1803  155.5455 H   0  0  0  0  0  0  0  0  0  0  0  0
  150.0269  139.7681  154.0988 H   0  0  0  0  0  0  0  0  0  0  0  0
  149.6037  138.3394  153.1770 H   0  0  0  0  0  0  0  0  0  0  0  0
  147.6531  138.1881  156.2392 H   0  0  0  0  0  0  0  0  0  0  0  0
  145.1205  139.2415  155.7352 H   0  0  0  0  0  0  0  0  0  0  0  0
  147.7079  140.2535  152.5373 H   0  0  0  0  0  0  0  0  0  0  0  0
  150.8229  139.8716  158.4907 H   0  0  0  0  0  0  0  0  0  0  0  0
  152.9304  141.6042  157.6988 H   0  0  0  0  0  0  0  0  0  0  0  0
  151.0858  141.6292  160.1353 H   0  0  0  0  0  0  0  0  0  0  0  0
  152.4994  140.6586  159.9285 H   0  0  0  0  0  0  0  0  0  0  0  0
  153.5911  142.2576  161.0176 H   0  0  0  0  0  0  0  0  0  0  0  0
  153.7110  143.0356  159.4923 H   0  0  0  0  0  0  0  0  0  0  0  0
  151.9097  143.6156  161.8521 H   0  0  0  0  0  0  0  0  0  0  0  0
  152.9936  144.7092  161.0499 H   0  0  0  0  0  0  0  0  0  0  0  0
  150.2760  143.7443  160.0082 H   0  0  0  0  0  0  0  0  0  0  0  0
  150.6198  145.2689  160.7283 H   0  0  0  0  0  0  0  0  0  0  0  0
  150.4309  145.5778  158.3722 H   0  0  0  0  0  0  0  0  0  0  0  0
  152.0530  145.9614  158.8597 H   0  0  0  0  0  0  0  0  0  0  0  0
  151.7797  144.7268  156.6833 H   0  0  0  0  0  0  0  0  0  0  0  0
  152.9646  144.0503  157.7259 H   0  0  0  0  0  0  0  0  0  0  0  0
  151.0428  142.6494  156.4358 H   0  0  0  0  0  0  0  0  0  0  0  0
  150.1496  142.8997  157.8907 H   0  0  0  0  0  0  0  0  0  0  0  0
  145.3525  140.4253  153.5084 H   0  0  0  0  0  0  0  0  0  0  0  0
  1  2  2  0  0  0  0
  2  3  1  0  0  0  0
  2 11  1  0  0  0  0
  3  4  1  0  0  0  0
  3 20  1  0  0  0  0
  4  5  1  0  0  0  0
  4 21  1  0  0  0  0
  4 22  1  0  0  0  0
  5  6  1  0  0  0  0
  5 23  1  0  0  0  0
  5 24  1  0  0  0  0
  6 10  1  0  0  0  0
  6  7  1  0  0  0  0
  7  8  2  0  0  0  0
  7 25  1  0  0  0  0
  8  9  1  0  0  0  0
  8 26  1  0  0  0  0
  9 10  2  0  0  0  0
  9 44  1  0  0  0  0
 10 27  1  0  0  0  0
 11 12  1  0  0  0  0
 11 28  1  0  0  0  0
 12 19  1  0  0  0  0
 12 13  1  0  0  0  0
 12 29  1  0  0  0  0
 13 14  1  0  0  0  0
 13 30  1  0  0  0  0
 13 31  1  0  0  0  0
 14 15  1  0  0  0  0
 14 32  1  0  0  0  0
 14 33  1  0  0  0  0
 15 16  1  0  0  0  0
 15 34  1  0  0  0  0
 15 35  1  0  0  0  0
 16 17  1  0  0  0  0
 16 36  1  0  0  0  0
 16 37  1  0  0  0  0
 17 18  1  0  0  0  0
 17 38  1  0  0  0  0
 17 39  1  0  0  0  0
 18 19  1  0  0  0  0
 18 40  1  0  0  0  0
 18 41  1  0  0  0  0
 19 42  1  0  0  0  0
 19 43  1  0  0  0  0
M  CHG  1   9   1
M  END
> <s_m_source_file>
AV-unprocessed.smi

> <i_m_source_file_index>
932

> <i_lp_mmshare_version>
43012

> <i_f3d_flags>
0

> <s_epik_input>
W2NIXTFuW2NIXVtjSF1uMVtDSDJdW0NIMl1bTkhdQyg9TylbTkhdW0NIXTJbQ0gyXVtDSDJdW0NIMl1bQ0gyXVtDSDJdW0NIMl1bQ0gyXTI=

> <s_epik_cmdline>
J2VwaWtfcHl0aG9uJywgJy1waCcsICc3LjAnLCAnLXRuJywgJzgnLCAnLW1hJywgJzIwMCcsICctbWV0YWxfYmluZGluZycsICctaW1hZScsICc8aW5maWxlLm1hZT4nLCAnLW9tYWUnLCAnPG91dGZpbGUubWFlPic=

> <r_lp_tautomer_probability>
1

> <r_epik_Ionization_Penalty>
0.254654

> <r_epik_Ionization_Penalty_Charging>
0

> <r_epik_Ionization_Penalty_Neutral>
0.254654

> <r_epik_State_Penalty>
0.246077

> <r_epik_Charging_Adjusted_Penalty>
0.246077

> <i_epik_Tot_Q>
1

> <i_epik_Tot_abs_Q>
1

> <r_epik_Metal_State_Penalty>
0.536041

> <b_epik_Metal_Only>
0

> <s_lp_Force_Field>
OPLS_2005

> <r_lp_Energy>
30.2565

> <b_lp_Chiralities_Consistent>
1

> <s_lp_Variant>
AV-unprocessed.smi:932-1

> <Gold.Version>
5.8.1

> <Gold.Id.Protein>
6NUR|6NUR_protein|mol2

> <Gold.PLP.Fitness>
48.4323

> <Gold.PLP.PLP>
-37.4767

> <Gold.PLP.part.hbond>
-2.0000

> <Gold.PLP.part.metal>
0.0000

> <Gold.PLP.part.buried>
-4.4494

> <Gold.PLP.part.nonpolar>
-31.1814

> <Gold.PLP.part.repulsive>
0.0827

> <Gold.PLP.ligand.clash>
0.0000

> <Gold.PLP.ligand.torsion>
0.2392

> <Gold.PLP.Chemscore.Hbond>
2.8000

> <Gold.PLP.Chemscore.CHOScore>
1.0000

> <Gold.PLP.Chemscore.Metal>
0.0000

> <Gold.Chemscore.Hbonds>
donor molecule, donor type, donor heavy atom, donor atom, acceptor molecule, acceptor atom, score
      L1  H     9    44       P1 10175  2.00
      P1  H  7989  7998       L1     1  0.80
      L1  C    10    27       P1  7957  1.00

> <Gold.PLP.Chemscore.Internal.Correction>
0.0340

> <Gold.Rescore>
     Score         DG    S(hbond)    S(metal)    S(lipo)     H(rot)  DE(clash)    DE(int)     intcor
     17.11     -18.77       1.83        0.00     102.91       1.90       0.09       1.57       ----

> <Gold.Chemscore.Fitness>
17.1111

> <Gold.Chemscore.DG>
-18.7717

> <Gold.Chemscore.ZeroCoef>
-5.4800

> <Gold.Chemscore.Hbond>
1.8295

> <Gold.Chemscore.Metal>
0.0000

> <Gold.Chemscore.Lipo>
102.9106

> <Gold.Chemscore.Internal_Hbond>
0.0000

> <Gold.Chemscore.DEClash>
0.0941

> <Gold.Chemscore.DEInternal>
1.5665

> <Gold.Chemscore.Rot>
1.8982

> <Gold.Chemscore.Internal.Correction>
   9.000000E+99

> <Gold.Chemscore.Hbonds>
donor molecule, donor type, donor heavy atom, donor atom, acceptor molecule, acceptor atom, score
      L1  H     9    44       P1 10175  0.95
      P1  H  7989  7998       L1     1  0.76

> <Gold.Chemscore.Hbond.Weighted>
-6.1106

> <Gold.Chemscore.Metal.Weighted>
-0.0000

> <Gold.Chemscore.Lipo.Weighted>
-12.0405

> <Gold.Chemscore.Internal_Hbond.Weighted>
0.0000

> <Gold.Chemscore.DEClash.Weighted>
0.0941

> <Gold.Chemscore.DEInternal.Weighted>
1.5665

> <Gold.Chemscore.Rot.Weighted>
4.8594

> <Gold.Chemscore.Internal.Correction.Weighted>
   9.000000E+99

> <Gold.Protein.RotatedTorsions>
[ 6907 6896 6895 6894 ] final  167.89 input  -60.11 | X-H torsion
[ 7974 7965 7964 7962 ] final   87.61 input  175.53 | X-H torsion
[ 8008 7997 7996 7995 ] final  -84.94 input   59.86 | X-H torsion
[ 10167 10162 10161 10158 ] final  -99.54 input  -65.29 | X-H torsion
[ 10718 10713 10712 10709 ] final  -98.57 input   66.30 | X-H torsion
[ 10763 10752 10751 10750 ] final   25.08 input  -60.55 | X-H torsion
[ 11005 11000 10999 10996 ] final  151.66 input  -57.11 | X-H torsion

> <Gold.Protein.ActiveResidues>
 VAL166  LYS551  ARG553  GLY616  TRP617  ASP618  TYR619  PRO620  LYS621  CYS622 
 ASP623  PHE694  ASN695  SER759  ASP760  ASP761  ALA762  ILE779  LEU786  VAL792 
 PHE793  MET794  SER795  GLU796  ALA797  LYS798  CYS799  TRP800  GLU811  SER814 

> <Gold.Protein.RotatedAtoms>
  151.8563  133.3449  159.3688 H   0  0  0  0  0  0  0  0  0  0  0  0  # atno 6907 bound_to 6896
  150.7192  134.5250  159.5682 H   0  0  0  0  0  0  0  0  0  0  0  0  # atno 6908 bound_to 6896
  152.2754  134.7887  160.0457 H   0  0  0  0  0  0  0  0  0  0  0  0  # atno 6909 bound_to 6896
  145.5567  139.2300  143.2482 H   0  0  0  0  0  0  0  0  0  0  0  0  # atno 7974 bound_to 7965
  154.6353  140.0598  156.9781 H   0  0  0  0  0  0  0  0  0  0  0  0  # atno 8008 bound_to 7997
  155.1601  140.3282  155.4394 H   0  0  0  0  0  0  0  0  0  0  0  0  # atno 8009 bound_to 7997
  156.2504  140.1932  156.6709 H   0  0  0  0  0  0  0  0  0  0  0  0  # atno 8010 bound_to 7997
  140.2614  143.3405  152.0622 H   0  0  0  0  0  0  0  0  0  0  0  0  # atno 10167 bound_to 10162
  156.0111  130.5244  150.6542 H   0  0  0  0  0  0  0  0  0  0  0  0  # atno 10718 bound_to 10713
  153.0717  135.6591  154.0232 H   0  0  0  0  0  0  0  0  0  0  0  0  # atno 10763 bound_to 10752
  153.9876  135.2949  155.3416 H   0  0  0  0  0  0  0  0  0  0  0  0  # atno 10764 bound_to 10752
  154.7094  135.5211  153.8714 H   0  0  0  0  0  0  0  0  0  0  0  0  # atno 10765 bound_to 10752
  140.1239  134.8846  157.2110 H   0  0  0  0  0  0  0  0  0  0  0  0  # atno 11005 bound_to 11000
  146.1879  140.6391  142.9159 LP  0  0  0  0  0  0  0  0  0  0  0  0  # atno 17320 bound_to 7965
  144.7503  140.5173  143.6807 LP  0  0  0  0  0  0  0  0  0  0  0  0  # atno 17321 bound_to 7965
  139.5016  144.6716  151.6228 LP  0  0  0  0  0  0  0  0  0  0  0  0  # atno 17342 bound_to 10162
  140.5963  143.9690  150.6356 LP  0  0  0  0  0  0  0  0  0  0  0  0  # atno 17343 bound_to 10162
  157.4297  131.0847  151.1050 LP  0  0  0  0  0  0  0  0  0  0  0  0  # atno 17370 bound_to 10713
  157.1627  130.6232  149.5615 LP  0  0  0  0  0  0  0  0  0  0  0  0  # atno 17371 bound_to 10713
  140.2930  134.3219  155.7310 LP  0  0  0  0  0  0  0  0  0  0  0  0  # atno 17394 bound_to 11000
  141.2157  133.7546  156.9530 LP  0  0  0  0  0  0  0  0  0  0  0  0  # atno 17395 bound_to 11000

$$$$
