AV-unprocessed.smi:2777|AV-procd|sdf|10709|dock9
  -GOLD-   2272015143D 1   1.00000     0.00000
 Structure written by MMmdl.
 31 32  0  0  0  0  0  0  0  0  1 V2000
  154.4265  140.2945  161.3268 C   0  0  0  0  0  0  0  0  0  0  0  0
  153.5281  141.1272  160.5047 N   0  0  0  0  0  0  0  0  0  0  0  0
  153.2287  140.7011  159.2372 C   0  0  0  0  0  0  0  0  0  0  0  0
  153.6598  139.6695  158.7215 O   0  0  0  0  0  0  0  0  0  0  0  0
  152.3259  141.5974  158.5071 C   0  0  0  0  0  0  0  0  0  0  0  0
  151.8406  142.7454  159.0389 C   0  0  0  0  0  0  0  0  0  0  0  0
  151.0144  143.4114  158.1408 N   0  0  0  0  0  0  0  0  0  0  0  0
  151.0459  142.6018  157.0819 C   0  0  0  0  0  0  0  0  0  0  0  0
  151.8059  141.4957  157.2166 N   0  0  0  0  0  0  0  0  0  0  0  0
  151.9999  140.4647  156.2080 C   0  0  0  0  0  0  0  0  0  0  0  0
  150.6687  139.8947  155.6762 C   0  0  1  0  0  0  0  0  0  0  0  0
  150.2134  140.6613  154.5771 O   0  0  0  0  0  0  0  0  0  0  0  0
  150.7819  138.4185  155.2507 C   0  0  0  0  0  0  0  0  0  0  0  0
  151.0652  137.6561  156.3070 F   0  0  0  0  0  0  0  0  0  0  0  0
  149.6507  137.9959  154.6845 F   0  0  0  0  0  0  0  0  0  0  0  0
  151.7741  138.2861  154.3704 F   0  0  0  0  0  0  0  0  0  0  0  0
  152.2162  143.0965  160.3590 N   0  0  0  0  0  0  0  0  0  0  0  0
  151.6730  144.3466  160.8981 C   0  0  0  0  0  0  0  0  0  0  0  0
  153.0546  142.2897  161.0899 C   0  0  0  0  0  0  0  0  0  0  0  0
  153.3779  142.5956  162.2408 O   0  0  0  0  0  0  0  0  0  0  0  0
  154.7825  139.3846  160.8424 H   0  0  0  0  0  0  0  0  0  0  0  0
  153.9216  139.9797  162.2415 H   0  0  0  0  0  0  0  0  0  0  0  0
  155.3147  140.8605  161.6123 H   0  0  0  0  0  0  0  0  0  0  0  0
  150.4985  142.8203  156.1767 H   0  0  0  0  0  0  0  0  0  0  0  0
  152.6107  140.8590  155.3973 H   0  0  0  0  0  0  0  0  0  0  0  0
  152.5877  139.6637  156.6579 H   0  0  0  0  0  0  0  0  0  0  0  0
  149.9139  139.9746  156.4597 H   0  0  0  0  0  0  0  0  0  0  0  0
  149.3241  140.4089  154.3820 H   0  0  0  0  0  0  0  0  0  0  0  0
  151.9834  144.5706  161.9189 H   0  0  0  0  0  0  0  0  0  0  0  0
  150.5830  144.3109  160.8921 H   0  0  0  0  0  0  0  0  0  0  0  0
  151.9830  145.1853  160.2738 H   0  0  0  0  0  0  0  0  0  0  0  0
  1  2  1  0  0  0  0
  1 21  1  0  0  0  0
  1 22  1  0  0  0  0
  1 23  1  0  0  0  0
  2 19  1  0  0  0  0
  2  3  1  0  0  0  0
  3  4  2  0  0  0  0
  3  5  1  0  0  0  0
  5  9  1  0  0  0  0
  5  6  2  0  0  0  0
  6  7  1  0  0  0  0
  6 17  1  0  0  0  0
  7  8  2  0  0  0  0
  8  9  1  0  0  0  0
  8 24  1  0  0  0  0
  9 10  1  0  0  0  0
 10 11  1  0  0  0  0
 10 25  1  0  0  0  0
 10 26  1  0  0  0  0
 11 12  1  0  0  0  0
 11 13  1  0  0  0  0
 11 27  1  0  0  0  0
 12 28  1  0  0  0  0
 13 14  1  0  0  0  0
 13 15  1  0  0  0  0
 13 16  1  0  0  0  0
 17 18  1  0  0  0  0
 17 19  1  0  0  0  0
 18 29  1  0  0  0  0
 18 30  1  0  0  0  0
 18 31  1  0  0  0  0
 19 20  2  0  0  0  0
M  END
> <s_m_source_file>
AV-unprocessed.smi

> <i_m_source_file_index>
2777

> <i_lp_mmshare_version>
43012

> <i_f3d_flags>
0

> <s_epik_input>
Tz1jMW4oW0NIM10pYyg9TyluKFtDSDNdKWMoYzEyKW5bY0hdbjJbQ0gyXVtDQEhdKFtPSF0pQyhGKShGKUY=

> <s_epik_cmdline>
J2VwaWtfcHl0aG9uJywgJy1waCcsICc3LjAnLCAnLXRuJywgJzgnLCAnLW1hJywgJzIwMCcsICctbWV0YWxfYmluZGluZycsICctaW1hZScsICc8aW5maWxlLm1hZT4nLCAnLW9tYWUnLCAnPG91dGZpbGUubWFlPic=

> <r_epik_Ionization_Penalty>
0.000551612

> <r_epik_Ionization_Penalty_Charging>
2.619e-09

> <r_epik_Ionization_Penalty_Neutral>
0.00055161

> <r_epik_State_Penalty>
0.000345115

> <r_epik_Charging_Adjusted_Penalty>
0.000345118

> <i_epik_Tot_Q>
0

> <i_epik_Tot_abs_Q>
0

> <r_epik_Metal_State_Penalty>
-0

> <b_epik_Metal_Only>
0

> <s_lp_Force_Field>
OPLS_2005

> <r_lp_Energy>
33.5503

> <b_lp_Chiralities_Consistent>
1

> <s_lp_Variant>
AV-unprocessed.smi:2777-2

> <Gold.Version>
5.8.1

> <Gold.Id.Protein>
6NUR|6NUR_protein|mol2

> <Gold.PLP.Fitness>
48.1150

> <Gold.PLP.PLP>
-40.5581

> <Gold.PLP.part.hbond>
-2.0000

> <Gold.PLP.part.metal>
0.0000

> <Gold.PLP.part.buried>
-6.1992

> <Gold.PLP.part.nonpolar>
-31.3986

> <Gold.PLP.part.repulsive>
0.1814

> <Gold.PLP.ligand.clash>
0.0000

> <Gold.PLP.ligand.torsion>
0.4748

> <Gold.PLP.Chemscore.Hbond>
1.8320

> <Gold.PLP.Chemscore.CHOScore>
1.0000

> <Gold.PLP.Chemscore.Metal>
0.0000

> <Gold.Chemscore.Hbonds>
donor molecule, donor type, donor heavy atom, donor atom, acceptor molecule, acceptor atom, score
      P1  H  7989  7998       L1    12  0.85
      P1  H  7997  8010       L1     4  1.00
      L1  C     8    24       P1  8028  0.97

> <Gold.PLP.Chemscore.Internal.Correction>
0.0105

> <Gold.Rescore>
     Score         DG    S(hbond)    S(metal)    S(lipo)     H(rot)  DE(clash)    DE(int)     intcor
     10.81     -11.52       1.89        0.00      45.76       2.20       0.09       0.63       ----

> <Gold.Chemscore.Fitness>
10.8059

> <Gold.Chemscore.DG>
-11.5199

> <Gold.Chemscore.ZeroCoef>
-5.4800

> <Gold.Chemscore.Hbond>
1.8893

> <Gold.Chemscore.Metal>
0.0000

> <Gold.Chemscore.Lipo>
45.7565

> <Gold.Chemscore.Internal_Hbond>
0.0000

> <Gold.Chemscore.DEClash>
0.0865

> <Gold.Chemscore.DEInternal>
0.6274

> <Gold.Chemscore.Rot>
2.1969

> <Gold.Chemscore.Internal.Correction>
   9.000000E+99

> <Gold.Chemscore.Hbonds>
donor molecule, donor type, donor heavy atom, donor atom, acceptor molecule, acceptor atom, score
      P1  H  7989  7998       L1    12  0.50
      P1  H  7997  8010       L1     4  0.82

> <Gold.Chemscore.Hbond.Weighted>
-6.3103

> <Gold.Chemscore.Metal.Weighted>
-0.0000

> <Gold.Chemscore.Lipo.Weighted>
-5.3535

> <Gold.Chemscore.Internal_Hbond.Weighted>
0.0000

> <Gold.Chemscore.DEClash.Weighted>
0.0865

> <Gold.Chemscore.DEInternal.Weighted>
0.6274

> <Gold.Chemscore.Rot.Weighted>
5.6239

> <Gold.Chemscore.Internal.Correction.Weighted>
   9.000000E+99

> <Gold.Protein.RotatedTorsions>
[ 6907 6896 6895 6894 ] final  -74.15 input  -60.11 | X-H torsion
[ 7974 7965 7964 7962 ] final   -6.44 input  175.53 | X-H torsion
[ 8008 7997 7996 7995 ] final   21.77 input   59.86 | X-H torsion
[ 10167 10162 10161 10158 ] final   97.43 input  -65.29 | X-H torsion
[ 10718 10713 10712 10709 ] final -136.40 input   66.30 | X-H torsion
[ 10763 10752 10751 10750 ] final  148.45 input  -60.55 | X-H torsion
[ 11005 11000 10999 10996 ] final   71.54 input  -57.11 | X-H torsion

> <Gold.Protein.ActiveResidues>
 VAL166  LYS551  ARG553  GLY616  TRP617  ASP618  TYR619  PRO620  LYS621  CYS622 
 ASP623  PHE694  ASN695  SER759  ASP760  ASP761  ALA762  ILE779  LEU786  VAL792 
 PHE793  MET794  SER795  GLU796  ALA797  LYS798  CYS799  TRP800  GLU811  SER814 

> <Gold.Protein.RotatedAtoms>
  150.7103  134.4912  159.5516 H   0  0  0  0  0  0  0  0  0  0  0  0  # atno 6907 bound_to 6896
  152.2529  134.8111  160.0452 H   0  0  0  0  0  0  0  0  0  0  0  0  # atno 6908 bound_to 6896
  151.8852  133.3469  159.3816 H   0  0  0  0  0  0  0  0  0  0  0  0  # atno 6909 bound_to 6896
  146.2331  140.2170  142.8336 H   0  0  0  0  0  0  0  0  0  0  0  0  # atno 7974 bound_to 7965
  154.9556  140.3071  155.5054 H   0  0  0  0  0  0  0  0  0  0  0  0  # atno 8008 bound_to 7997
  156.2982  140.2310  156.4576 H   0  0  0  0  0  0  0  0  0  0  0  0  # atno 8009 bound_to 7997
  154.8013  140.0434  157.1263 H   0  0  0  0  0  0  0  0  0  0  0  0  # atno 8010 bound_to 7997
  139.7802  144.6891  151.0033 H   0  0  0  0  0  0  0  0  0  0  0  0  # atno 10167 bound_to 10162
  156.2766  130.7296  151.1280 H   0  0  0  0  0  0  0  0  0  0  0  0  # atno 10718 bound_to 10713
  154.0549  135.2878  155.3334 H   0  0  0  0  0  0  0  0  0  0  0  0  # atno 10763 bound_to 10752
  154.6845  135.5250  153.8311 H   0  0  0  0  0  0  0  0  0  0  0  0  # atno 10764 bound_to 10752
  153.0546  135.6590  154.0742 H   0  0  0  0  0  0  0  0  0  0  0  0  # atno 10765 bound_to 10752
  139.9538  134.7180  156.0800 H   0  0  0  0  0  0  0  0  0  0  0  0  # atno 11005 bound_to 11000
  144.9661  140.8323  143.5483 LP  0  0  0  0  0  0  0  0  0  0  0  0  # atno 17320 bound_to 7965
  145.2147  139.2188  143.5125 LP  0  0  0  0  0  0  0  0  0  0  0  0  # atno 17321 bound_to 7965
  140.7818  143.4491  151.0439 LP  0  0  0  0  0  0  0  0  0  0  0  0  # atno 17342 bound_to 10162
  139.8172  143.7869  152.3175 LP  0  0  0  0  0  0  0  0  0  0  0  0  # atno 17343 bound_to 10162
  157.7301  131.0619  150.5742 LP  0  0  0  0  0  0  0  0  0  0  0  0  # atno 17370 bound_to 10713
  156.5843  130.4312  149.5963 LP  0  0  0  0  0  0  0  0  0  0  0  0  # atno 17371 bound_to 10713
  141.1206  133.6614  156.3205 LP  0  0  0  0  0  0  0  0  0  0  0  0  # atno 17394 bound_to 11000
  140.5657  134.5890  157.5445 LP  0  0  0  0  0  0  0  0  0  0  0  0  # atno 17395 bound_to 11000

$$$$
