AV-unprocessed.smi:3134|AV-procd|sdf|11941|dock6
  -GOLD-   2272017333D 1   1.00000     0.00000
 Structure written by MMmdl.
 37 37  0  0  0  0  0  0  0  0  2 V2000
  148.9021  141.1315  153.9842 C   0  0  0  0  0  0  0  0  0  0  0  0
  147.6768  141.5377  154.8180 C   0  0  0  0  0  0  0  0  0  0  0  0
  146.7580  142.4939  154.0458 C   0  0  0  0  0  0  0  0  0  0  0  0
  148.0952  142.1692  156.0662 N   0  0  0  0  0  0  0  0  0  0  0  0
  148.6940  141.5437  157.0922 C   0  0  0  0  0  0  0  0  0  0  0  0
  148.9683  140.3431  157.0863 O   0  0  0  0  0  0  0  0  0  0  0  0
  149.0506  142.4133  158.3062 C   0  0  2  0  0  0  0  0  0  0  0  0
  147.7746  143.0199  158.9097 C   0  0  0  0  0  0  0  0  0  0  0  0
  149.9992  143.4942  157.9518 N   0  3  0  0  0  0  0  0  0  0  0  0
  151.3496  143.0391  157.5586 C   0  0  0  0  0  0  0  0  0  0  0  0
  152.4346  143.8820  158.2434 C   0  0  0  0  0  0  0  0  0  0  0  0
  152.7130  143.4099  159.5858 N   0  0  0  0  0  0  0  0  0  0  0  0
  153.2662  142.2086  159.9767 C   0  0  0  0  0  0  0  0  0  0  0  0
  153.3353  142.2184  161.3403 C   0  0  0  0  0  0  0  0  0  0  0  0
  152.7965  143.4860  161.6974 C   0  0  0  0  0  0  0  0  0  0  0  0
  152.4262  144.1976  160.6446 N   0  0  0  0  0  0  0  0  0  0  0  0
  148.5992  140.6516  153.0531 H   0  0  0  0  0  0  0  0  0  0  0  0
  149.5337  140.4255  154.5243 H   0  0  0  0  0  0  0  0  0  0  0  0
  149.5137  141.9972  153.7279 H   0  0  0  0  0  0  0  0  0  0  0  0
  147.1011  140.6395  155.0488 H   0  0  0  0  0  0  0  0  0  0  0  0
  146.4048  142.0359  153.1214 H   0  0  0  0  0  0  0  0  0  0  0  0
  147.2746  143.4176  153.7825 H   0  0  0  0  0  0  0  0  0  0  0  0
  145.8802  142.7593  154.6359 H   0  0  0  0  0  0  0  0  0  0  0  0
  147.9152  143.1592  156.1538 H   0  0  0  0  0  0  0  0  0  0  0  0
  149.5185  141.7856  159.0668 H   0  0  0  0  0  0  0  0  0  0  0  0
  147.0658  142.2443  159.2032 H   0  0  0  0  0  0  0  0  0  0  0  0
  147.2706  143.6801  158.2023 H   0  0  0  0  0  0  0  0  0  0  0  0
  148.0037  143.6040  159.8016 H   0  0  0  0  0  0  0  0  0  0  0  0
  149.5996  144.0346  157.1974 H   0  0  0  0  0  0  0  0  0  0  0  0
  151.4639  141.9887  157.8302 H   0  0  0  0  0  0  0  0  0  0  0  0
  151.4620  143.1057  156.4757 H   0  0  0  0  0  0  0  0  0  0  0  0
  153.3599  143.8516  157.6661 H   0  0  0  0  0  0  0  0  0  0  0  0
  152.1298  144.9281  158.3004 H   0  0  0  0  0  0  0  0  0  0  0  0
  153.5608  141.4546  159.2614 H   0  0  0  0  0  0  0  0  0  0  0  0
  153.7142  141.4392  161.9850 H   0  0  0  0  0  0  0  0  0  0  0  0
  152.6649  143.9076  162.6831 H   0  0  0  0  0  0  0  0  0  0  0  0
  150.1031  144.0930  158.7583 H   0  0  0  0  0  0  0  0  0  0  0  0
  1  2  1  0  0  0  0
  1 17  1  0  0  0  0
  1 18  1  0  0  0  0
  1 19  1  0  0  0  0
  2  3  1  0  0  0  0
  2  4  1  0  0  0  0
  2 20  1  0  0  0  0
  3 21  1  0  0  0  0
  3 22  1  0  0  0  0
  3 23  1  0  0  0  0
  4  5  1  0  0  0  0
  4 24  1  0  0  0  0
  5  6  2  0  0  0  0
  5  7  1  0  0  0  0
  7  8  1  0  0  0  0
  7  9  1  0  0  0  0
  7 25  1  0  0  0  0
  8 26  1  0  0  0  0
  8 27  1  0  0  0  0
  8 28  1  0  0  0  0
  9 10  1  0  0  0  0
  9 29  1  0  0  0  0
  9 37  1  0  0  0  0
 10 11  1  0  0  0  0
 10 30  1  0  0  0  0
 10 31  1  0  0  0  0
 11 12  1  0  0  0  0
 11 32  1  0  0  0  0
 11 33  1  0  0  0  0
 12 16  1  0  0  0  0
 12 13  1  0  0  0  0
 13 14  2  0  0  0  0
 13 34  1  0  0  0  0
 14 15  1  0  0  0  0
 14 35  1  0  0  0  0
 15 16  2  0  0  0  0
 15 36  1  0  0  0  0
M  CHG  1   9   1
M  END
> <s_m_source_file>
AV-unprocessed.smi

> <i_m_source_file_index>
3134

> <i_lp_mmshare_version>
43012

> <i_f3d_flags>
0

> <s_epik_input>
W0NIM11bQ0hdKFtDSDNdKVtOSF1DKD1PKVtDQEhdKFtDSDNdKVtOSF1bQ0gyXVtDSDJdbjFbY0hdW2NIXVtjSF1uMQ==

> <s_epik_cmdline>
J2VwaWtfcHl0aG9uJywgJy1waCcsICc3LjAnLCAnLXRuJywgJzgnLCAnLW1hJywgJzIwMCcsICctbWV0YWxfYmluZGluZycsICctaW1hZScsICc8aW5maWxlLm1hZT4nLCAnLW9tYWUnLCAnPG91dGZpbGUubWFlPic=

> <r_lp_tautomer_probability>
1

> <r_epik_Ionization_Penalty>
0.20398

> <r_epik_Ionization_Penalty_Charging>
0.203977

> <r_epik_Ionization_Penalty_Neutral>
3.23345e-06

> <r_epik_State_Penalty>
0.193898

> <r_epik_Charging_Adjusted_Penalty>
0.397875

> <i_epik_Tot_Q>
1

> <i_epik_Tot_abs_Q>
1

> <r_epik_Metal_State_Penalty>
0.194184

> <b_epik_Metal_Only>
0

> <s_lp_Force_Field>
OPLS_2005

> <r_lp_Energy>
4.26542

> <b_lp_Chiralities_Consistent>
1

> <s_lp_Variant>
AV-unprocessed.smi:3134-1

> <Gold.Version>
5.8.1

> <Gold.Id.Protein>
6NUR|6NUR_protein|mol2

> <Gold.PLP.Fitness>
46.8124

> <Gold.PLP.PLP>
-39.8284

> <Gold.PLP.part.hbond>
-2.5846

> <Gold.PLP.part.metal>
0.0000

> <Gold.PLP.part.buried>
-3.3732

> <Gold.PLP.part.nonpolar>
-32.5389

> <Gold.PLP.part.repulsive>
0.2088

> <Gold.PLP.ligand.clash>
0.0000

> <Gold.PLP.ligand.torsion>
0.6247

> <Gold.PLP.Chemscore.Hbond>
2.7200

> <Gold.PLP.Chemscore.CHOScore>
0.0000

> <Gold.PLP.Chemscore.Metal>
0.0000

> <Gold.Chemscore.Hbonds>
donor molecule, donor type, donor heavy atom, donor atom, acceptor molecule, acceptor atom, score
      L1  H     4    24       P1  8028  0.70
      L1  H     9    29       P1  8028  2.00

> <Gold.PLP.Chemscore.Internal.Correction>
0.0734

> <Gold.Rescore>
     Score         DG    S(hbond)    S(metal)    S(lipo)     H(rot)  DE(clash)    DE(int)     intcor
     14.57     -15.59       1.67        0.00      85.41       2.13       0.17       0.84       ----

> <Gold.Chemscore.Fitness>
14.5734

> <Gold.Chemscore.DG>
-15.5861

> <Gold.Chemscore.ZeroCoef>
-5.4800

> <Gold.Chemscore.Hbond>
1.6690

> <Gold.Chemscore.Metal>
0.0000

> <Gold.Chemscore.Lipo>
85.4124

> <Gold.Chemscore.Internal_Hbond>
0.0000

> <Gold.Chemscore.DEClash>
0.1730

> <Gold.Chemscore.DEInternal>
0.8397

> <Gold.Chemscore.Rot>
2.1334

> <Gold.Chemscore.Internal.Correction>
   9.000000E+99

> <Gold.Chemscore.Hbonds>
donor molecule, donor type, donor heavy atom, donor atom, acceptor molecule, acceptor atom, score
      L1  H     4    24       P1  8028  0.21
      L1  H     9    29       P1  8028  0.55

> <Gold.Chemscore.Hbond.Weighted>
-5.5744

> <Gold.Chemscore.Metal.Weighted>
-0.0000

> <Gold.Chemscore.Lipo.Weighted>
-9.9933

> <Gold.Chemscore.Internal_Hbond.Weighted>
0.0000

> <Gold.Chemscore.DEClash.Weighted>
0.1730

> <Gold.Chemscore.DEInternal.Weighted>
0.8397

> <Gold.Chemscore.Rot.Weighted>
5.4615

> <Gold.Chemscore.Internal.Correction.Weighted>
   9.000000E+99

> <Gold.Protein.RotatedTorsions>
[ 6907 6896 6895 6894 ] final -101.06 input  -60.11 | X-H torsion
[ 7974 7965 7964 7962 ] final   61.20 input  175.53 | X-H torsion
[ 8008 7997 7996 7995 ] final -120.30 input   59.86 | X-H torsion
[ 10167 10162 10161 10158 ] final   55.18 input  -65.29 | X-H torsion
[ 10718 10713 10712 10709 ] final    6.91 input   66.30 | X-H torsion
[ 10763 10752 10751 10750 ] final  141.16 input  -60.55 | X-H torsion
[ 11005 11000 10999 10996 ] final  177.21 input  -57.11 | X-H torsion

> <Gold.Protein.ActiveResidues>
 VAL166  LYS551  ARG553  GLY616  TRP617  ASP618  TYR619  PRO620  LYS621  CYS622 
 ASP623  PHE694  ASN695  SER759  ASP760  ASP761  ALA762  ILE779  LEU786  VAL792 
 PHE793  MET794  SER795  GLU796  ALA797  LYS798  CYS799  TRP800  GLU811  SER814 

> <Gold.Protein.RotatedAtoms>
  150.7140  134.0792  159.3891 H   0  0  0  0  0  0  0  0  0  0  0  0  # atno 6907 bound_to 6896
  151.8776  135.0464  160.0495 H   0  0  0  0  0  0  0  0  0  0  0  0  # atno 6908 bound_to 6896
  152.2594  133.5248  159.5409 H   0  0  0  0  0  0  0  0  0  0  0  0  # atno 6909 bound_to 6896
  145.8875  139.3487  143.0669 H   0  0  0  0  0  0  0  0  0  0  0  0  # atno 7974 bound_to 7965
  155.1295  140.0400  157.2771 H   0  0  0  0  0  0  0  0  0  0  0  0  # atno 8008 bound_to 7997
  154.6553  140.2578  155.7142 H   0  0  0  0  0  0  0  0  0  0  0  0  # atno 8009 bound_to 7997
  156.2595  140.2828  156.1003 H   0  0  0  0  0  0  0  0  0  0  0  0  # atno 8010 bound_to 7997
  140.2222  144.3777  150.6446 H   0  0  0  0  0  0  0  0  0  0  0  0  # atno 10167 bound_to 10162
  156.9291  130.5819  149.5649 H   0  0  0  0  0  0  0  0  0  0  0  0  # atno 10718 bound_to 10713
  153.9347  135.2986  155.3444 H   0  0  0  0  0  0  0  0  0  0  0  0  # atno 10763 bound_to 10752
  154.7508  135.4981  153.9289 H   0  0  0  0  0  0  0  0  0  0  0  0  # atno 10764 bound_to 10752
  153.1073  135.6750  153.9668 H   0  0  0  0  0  0  0  0  0  0  0  0  # atno 10765 bound_to 10752
  140.3816  134.6941  157.4454 H   0  0  0  0  0  0  0  0  0  0  0  0  # atno 11005 bound_to 11000
  145.8949  140.9280  143.0533 LP  0  0  0  0  0  0  0  0  0  0  0  0  # atno 17320 bound_to 7965
  144.6729  140.0955  143.7463 LP  0  0  0  0  0  0  0  0  0  0  0  0  # atno 17321 bound_to 7965
  140.6247  143.2180  151.6621 LP  0  0  0  0  0  0  0  0  0  0  0  0  # atno 17342 bound_to 10162
  139.5140  144.3424  152.0728 LP  0  0  0  0  0  0  0  0  0  0  0  0  # atno 17343 bound_to 10162
  156.0455  130.5532  150.8871 LP  0  0  0  0  0  0  0  0  0  0  0  0  # atno 17370 bound_to 10713
  157.5858  131.0945  150.9198 LP  0  0  0  0  0  0  0  0  0  0  0  0  # atno 17371 bound_to 10713
  140.0474  134.6180  155.8904 LP  0  0  0  0  0  0  0  0  0  0  0  0  # atno 17394 bound_to 11000
  141.1921  133.6574  156.5488 LP  0  0  0  0  0  0  0  0  0  0  0  0  # atno 17395 bound_to 11000

$$$$
