AV-unprocessed.smi:3333|AV-procd|sdf|12832|dock4
  -GOLD-   2272019213D 1   1.00000     0.00000
 Structure written by MMmdl.
 41 43  0  0  0  0  0  0  0  0  1 V2000
  144.6891  138.1867  154.7422 C   0  0  0  0  0  0  0  0  0  0  0  0
  144.9114  139.3119  155.7586 C   0  0  0  0  0  0  0  0  0  0  0  0
  145.8759  140.3406  155.2708 C   0  0  0  0  0  0  0  0  0  0  0  0
  147.1652  140.0861  155.0329 N   0  0  0  0  0  0  0  0  0  0  0  0
  147.8750  141.2223  154.6300 C   0  0  0  0  0  0  0  0  0  0  0  0
  149.3444  141.1212  154.3292 C   0  0  0  0  0  0  0  0  0  0  0  0
  150.1857  141.0435  155.6097 C   0  0  0  0  0  0  0  0  0  0  0  0
  150.6812  139.9789  155.9830 O   0  0  0  0  0  0  0  0  0  0  0  0
  150.3458  142.1965  156.2773 N   0  0  0  0  0  0  0  0  0  0  0  0
  151.1029  142.3479  157.5152 C   0  0  0  0  0  0  0  0  0  0  0  0
  151.2173  143.8252  157.9483 C   0  0  1  0  0  0  0  0  0  0  0  0
  150.2202  144.2433  159.0488 C   0  0  0  0  0  0  0  0  0  0  0  0
  151.1241  144.9410  160.0830 C   0  0  1  0  0  0  0  0  0  0  0  0
  151.9478  143.8772  160.8315 C   0  0  0  0  0  0  0  0  0  0  0  0
  152.9719  143.4352  159.7700 C   0  0  0  0  0  0  0  0  0  0  0  0
  152.5756  144.2763  158.5390 C   0  0  2  0  0  0  0  0  0  0  0  0
  152.1823  145.5940  159.1998 C   0  0  0  0  0  0  0  0  0  0  0  0
  147.0936  142.3494  154.5579 C   0  0  0  0  0  0  0  0  0  0  0  0
  145.4447  142.0283  155.0194 S   0  0  0  0  0  0  0  0  0  0  0  0
  143.9851  137.4487  155.1270 H   0  0  0  0  0  0  0  0  0  0  0  0
  145.6228  137.6713  154.5152 H   0  0  0  0  0  0  0  0  0  0  0  0
  144.2855  138.5768  153.8072 H   0  0  0  0  0  0  0  0  0  0  0  0
  143.9627  139.7979  155.9895 H   0  0  0  0  0  0  0  0  0  0  0  0
  145.2860  138.8973  156.6950 H   0  0  0  0  0  0  0  0  0  0  0  0
  149.5544  140.2379  153.7250 H   0  0  0  0  0  0  0  0  0  0  0  0
  149.6662  141.9814  153.7405 H   0  0  0  0  0  0  0  0  0  0  0  0
  149.9120  143.0278  155.9026 H   0  0  0  0  0  0  0  0  0  0  0  0
  150.6328  141.7645  158.3084 H   0  0  0  0  0  0  0  0  0  0  0  0
  152.0885  141.9061  157.3716 H   0  0  0  0  0  0  0  0  0  0  0  0
  151.0197  144.4432  157.0705 H   0  0  0  0  0  0  0  0  0  0  0  0
  149.4780  144.9350  158.6481 H   0  0  0  0  0  0  0  0  0  0  0  0
  149.6837  143.3980  159.4818 H   0  0  0  0  0  0  0  0  0  0  0  0
  150.5876  145.6223  160.7436 H   0  0  0  0  0  0  0  0  0  0  0  0
  152.4538  144.3112  161.6947 H   0  0  0  0  0  0  0  0  0  0  0  0
  151.3313  143.0500  161.1857 H   0  0  0  0  0  0  0  0  0  0  0  0
  153.9819  143.6906  160.0935 H   0  0  0  0  0  0  0  0  0  0  0  0
  152.9551  142.3619  159.5861 H   0  0  0  0  0  0  0  0  0  0  0  0
  153.3682  144.3621  157.7951 H   0  0  0  0  0  0  0  0  0  0  0  0
  151.7718  146.3260  158.5020 H   0  0  0  0  0  0  0  0  0  0  0  0
  152.9937  146.0557  159.7655 H   0  0  0  0  0  0  0  0  0  0  0  0
  147.3907  143.3486  154.2758 H   0  0  0  0  0  0  0  0  0  0  0  0
  1  2  1  0  0  0  0
  1 20  1  0  0  0  0
  1 21  1  0  0  0  0
  1 22  1  0  0  0  0
  2  3  1  0  0  0  0
  2 23  1  0  0  0  0
  2 24  1  0  0  0  0
  3 19  1  0  0  0  0
  3  4  2  0  0  0  0
  4  5  1  0  0  0  0
  5  6  1  0  0  0  0
  5 18  2  0  0  0  0
  6  7  1  0  0  0  0
  6 25  1  0  0  0  0
  6 26  1  0  0  0  0
  7  8  2  0  0  0  0
  7  9  1  0  0  0  0
  9 10  1  0  0  0  0
  9 27  1  0  0  0  0
 10 11  1  0  0  0  0
 10 28  1  0  0  0  0
 10 29  1  0  0  0  0
 11 16  1  0  0  0  0
 11 12  1  0  0  0  0
 11 30  1  0  0  0  0
 12 13  1  0  0  0  0
 12 31  1  0  0  0  0
 12 32  1  0  0  0  0
 13 17  1  0  0  0  0
 13 14  1  0  0  0  0
 13 33  1  0  0  0  0
 14 15  1  0  0  0  0
 14 34  1  0  0  0  0
 14 35  1  0  0  0  0
 15 16  1  0  0  0  0
 15 36  1  0  0  0  0
 15 37  1  0  0  0  0
 16 17  1  0  0  0  0
 16 38  1  0  0  0  0
 17 39  1  0  0  0  0
 17 40  1  0  0  0  0
 18 19  1  0  0  0  0
 18 41  1  0  0  0  0
M  END
> <s_m_source_file>
AV-unprocessed.smi

> <i_m_source_file_index>
3333

> <i_lp_mmshare_version>
43012

> <i_f3d_flags>
0

> <s_epik_input>
W0NIM11bQ0gyXWMxbmMoW2NIXXMxKVtDSDJdQyg9TylbTkhdW0NIMl1bQ0BIXShbQ0gyXVtDQEBIXTIzKVtDQEBIXShbQ0gyXTMpW0NIMl1bQ0gyXTI=

> <s_epik_cmdline>
J2VwaWtfcHl0aG9uJywgJy1waCcsICc3LjAnLCAnLXRuJywgJzgnLCAnLW1hJywgJzIwMCcsICctbWV0YWxfYmluZGluZycsICctaW1hZScsICc8aW5maWxlLm1hZT4nLCAnLW9tYWUnLCAnPG91dGZpbGUubWFlPic=

> <r_lp_tautomer_probability>
1

> <r_epik_Ionization_Penalty>
6.68371e-05

> <r_epik_Ionization_Penalty_Charging>
0

> <r_epik_Ionization_Penalty_Neutral>
6.68371e-05

> <r_epik_State_Penalty>
-0

> <r_epik_Charging_Adjusted_Penalty>
0

> <i_epik_Tot_Q>
0

> <i_epik_Tot_abs_Q>
0

> <r_epik_Metal_State_Penalty>
-0

> <b_epik_Metal_Only>
0

> <s_lp_Force_Field>
OPLS_2005

> <r_lp_Energy>
44.5958

> <b_lp_Chiralities_Consistent>
1

> <s_lp_Variant>
AV-unprocessed.smi:3333-2

> <Gold.Version>
5.8.1

> <Gold.Id.Protein>
6NUR|6NUR_protein|mol2

> <Gold.PLP.Fitness>
45.1460

> <Gold.PLP.PLP>
-41.4716

> <Gold.PLP.part.hbond>
-1.0000

> <Gold.PLP.part.metal>
0.0000

> <Gold.PLP.part.buried>
-2.8963

> <Gold.PLP.part.nonpolar>
-37.5575

> <Gold.PLP.part.repulsive>
0.1452

> <Gold.PLP.ligand.clash>
0.0000

> <Gold.PLP.ligand.torsion>
1.0004

> <Gold.PLP.Chemscore.Hbond>
1.0000

> <Gold.PLP.Chemscore.CHOScore>
0.8827

> <Gold.PLP.Chemscore.Metal>
0.0000

> <Gold.Chemscore.Hbonds>
donor molecule, donor type, donor heavy atom, donor atom, acceptor molecule, acceptor atom, score
      L1  H     9    27       P1  8028  1.00
      L1  C    18    41       P1  8028  0.88

> <Gold.PLP.Chemscore.Internal.Correction>
0.0272

> <Gold.Rescore>
     Score         DG    S(hbond)    S(metal)    S(lipo)     H(rot)  DE(clash)    DE(int)     intcor
     17.95     -19.31       1.00        0.00     120.87       1.42       0.23       1.13       ----

> <Gold.Chemscore.Fitness>
17.9508

> <Gold.Chemscore.DG>
-19.3108

> <Gold.Chemscore.ZeroCoef>
-5.4800

> <Gold.Chemscore.Hbond>
0.9974

> <Gold.Chemscore.Metal>
0.0000

> <Gold.Chemscore.Lipo>
120.8692

> <Gold.Chemscore.Internal_Hbond>
0.0000

> <Gold.Chemscore.DEClash>
0.2275

> <Gold.Chemscore.DEInternal>
1.1325

> <Gold.Chemscore.Rot>
1.4227

> <Gold.Chemscore.Internal.Correction>
   9.000000E+99

> <Gold.Chemscore.Hbonds>
donor molecule, donor type, donor heavy atom, donor atom, acceptor molecule, acceptor atom, score
      L1  H     9    27       P1  8028  0.97

> <Gold.Chemscore.Hbond.Weighted>
-3.3312

> <Gold.Chemscore.Metal.Weighted>
-0.0000

> <Gold.Chemscore.Lipo.Weighted>
-14.1417

> <Gold.Chemscore.Internal_Hbond.Weighted>
0.0000

> <Gold.Chemscore.DEClash.Weighted>
0.2275

> <Gold.Chemscore.DEInternal.Weighted>
1.1325

> <Gold.Chemscore.Rot.Weighted>
3.6421

> <Gold.Chemscore.Internal.Correction.Weighted>
   9.000000E+99

> <Gold.Protein.RotatedTorsions>
[ 6907 6896 6895 6894 ] final  135.32 input  -60.11 | X-H torsion
[ 7974 7965 7964 7962 ] final  -10.29 input  175.53 | X-H torsion
[ 8008 7997 7996 7995 ] final   31.85 input   59.86 | X-H torsion
[ 10167 10162 10161 10158 ] final   50.52 input  -65.29 | X-H torsion
[ 10718 10713 10712 10709 ] final -129.21 input   66.30 | X-H torsion
[ 10763 10752 10751 10750 ] final -108.53 input  -60.55 | X-H torsion
[ 11005 11000 10999 10996 ] final  -13.63 input  -57.11 | X-H torsion

> <Gold.Protein.ActiveResidues>
 VAL166  LYS551  ARG553  GLY616  TRP617  ASP618  TYR619  PRO620  LYS621  CYS622 
 ASP623  PHE694  ASN695  SER759  ASP760  ASP761  ALA762  ILE779  LEU786  VAL792 
 PHE793  MET794  SER795  GLU796  ALA797  LYS798  CYS799  TRP800  GLU811  SER814 

> <Gold.Protein.RotatedAtoms>
  152.3017  133.5662  159.5622 H   0  0  0  0  0  0  0  0  0  0  0  0  # atno 6907 bound_to 6896
  150.7280  134.0282  159.3733 H   0  0  0  0  0  0  0  0  0  0  0  0  # atno 6908 bound_to 6896
  151.8181  135.0660  160.0472 H   0  0  0  0  0  0  0  0  0  0  0  0  # atno 6909 bound_to 6896
  146.2225  140.2742  142.8358 H   0  0  0  0  0  0  0  0  0  0  0  0  # atno 7974 bound_to 7965
  155.1130  140.3241  155.4517 H   0  0  0  0  0  0  0  0  0  0  0  0  # atno 8008 bound_to 7997
  156.2685  140.2041  156.6201 H   0  0  0  0  0  0  0  0  0  0  0  0  # atno 8009 bound_to 7997
  154.6741  140.0533  157.0184 H   0  0  0  0  0  0  0  0  0  0  0  0  # atno 8010 bound_to 7997
  140.2716  144.3259  150.6288 H   0  0  0  0  0  0  0  0  0  0  0  0  # atno 10167 bound_to 10162
  156.2025  130.6866  151.0556 H   0  0  0  0  0  0  0  0  0  0  0  0  # atno 10718 bound_to 10713
  154.8141  135.4634  154.0595 H   0  0  0  0  0  0  0  0  0  0  0  0  # atno 10763 bound_to 10752
  153.2002  135.6868  153.8247 H   0  0  0  0  0  0  0  0  0  0  0  0  # atno 10764 bound_to 10752
  153.7735  135.3267  155.3332 H   0  0  0  0  0  0  0  0  0  0  0  0  # atno 10765 bound_to 10752
  140.7780  133.8385  155.9267 H   0  0  0  0  0  0  0  0  0  0  0  0  # atno 11005 bound_to 11000
  144.9245  140.7906  143.5727 LP  0  0  0  0  0  0  0  0  0  0  0  0  # atno 17320 bound_to 7965
  145.2681  139.1965  143.4856 LP  0  0  0  0  0  0  0  0  0  0  0  0  # atno 17321 bound_to 7965
  140.5885  143.2169  151.7297 LP  0  0  0  0  0  0  0  0  0  0  0  0  # atno 17342 bound_to 10162
  139.4987  144.3974  152.0216 LP  0  0  0  0  0  0  0  0  0  0  0  0  # atno 17343 bound_to 10162
  157.6994  131.0782  150.6869 LP  0  0  0  0  0  0  0  0  0  0  0  0  # atno 17370 bound_to 10713
  156.6927  130.4600  149.5595 LP  0  0  0  0  0  0  0  0  0  0  0  0  # atno 17371 bound_to 10713
  140.9509  134.1779  157.4728 LP  0  0  0  0  0  0  0  0  0  0  0  0  # atno 17394 bound_to 11000
  139.8746  134.9909  156.5523 LP  0  0  0  0  0  0  0  0  0  0  0  0  # atno 17395 bound_to 11000

$$$$
