AV-unprocessed.smi:3036|AV-procd|sdf|11585|dock7
  -GOLD-   2272016563D 1   1.00000     0.00000
 Structure written by MMmdl.
 41 42  0  0  0  0  0  0  0  0  1 V2000
  152.7745  144.7355  158.0199 C   0  0  0  0  0  0  0  0  0  0  0  0
  152.1273  143.3884  158.3801 C   0  0  1  0  0  0  0  0  0  0  0  0
  151.8599  143.2772  159.8940 C   0  0  0  0  0  0  0  0  0  0  0  0
  152.8552  142.4614  160.5687 N   0  0  0  0  0  0  0  0  0  0  0  0
  153.0419  142.2814  161.9234 C   0  0  0  0  0  0  0  0  0  0  0  0
  154.0850  141.4144  162.0783 C   0  0  0  0  0  0  0  0  0  0  0  0
  154.4771  141.1164  160.7434 C   0  0  0  0  0  0  0  0  0  0  0  0
  153.7403  141.7454  159.8419 N   0  0  0  0  0  0  0  0  0  0  0  0
  150.8606  143.2426  157.6722 N   0  0  0  0  0  0  0  0  0  0  0  0
  150.5701  141.8576  157.3240 C   0  0  0  0  0  0  0  0  0  0  0  0
  150.6687  141.6347  155.8005 C   0  0  0  0  0  0  0  0  0  0  0  0
  150.0810  140.3019  155.2913 C   0  0  0  0  0  0  0  0  0  0  0  0
  148.8591  140.1413  155.3009 O   0  0  0  0  0  0  0  0  0  0  0  0
  150.9261  139.3388  154.8502 N   0  0  0  0  0  0  0  0  0  0  0  0
  150.4680  138.0371  154.3556 C   0  0  0  0  0  0  0  0  0  0  0  0
  150.9491  136.9491  155.3318 C   0  0  0  0  0  0  0  0  0  0  0  0
  152.3693  137.0009  155.4437 O   0  0  0  0  0  0  0  0  0  0  0  0
  152.8477  138.2650  155.8967 C   0  0  0  0  0  0  0  0  0  0  0  0
  152.3903  139.3714  154.9287 C   0  0  0  0  0  0  0  0  0  0  0  0
  153.7108  144.8718  158.5614 H   0  0  0  0  0  0  0  0  0  0  0  0
  152.1220  145.5720  158.2731 H   0  0  0  0  0  0  0  0  0  0  0  0
  153.0065  144.8015  156.9569 H   0  0  0  0  0  0  0  0  0  0  0  0
  152.8018  142.5794  158.0954 H   0  0  0  0  0  0  0  0  0  0  0  0
  151.8681  144.2680  160.3509 H   0  0  0  0  0  0  0  0  0  0  0  0
  150.8717  142.8563  160.0858 H   0  0  0  0  0  0  0  0  0  0  0  0
  152.4183  142.7736  162.6550 H   0  0  0  0  0  0  0  0  0  0  0  0
  154.5019  141.0464  163.0038 H   0  0  0  0  0  0  0  0  0  0  0  0
  155.2694  140.4652  160.4048 H   0  0  0  0  0  0  0  0  0  0  0  0
  150.8398  143.8332  156.8532 H   0  0  0  0  0  0  0  0  0  0  0  0
  151.2699  141.1978  157.8366 H   0  0  0  0  0  0  0  0  0  0  0  0
  149.5698  141.5901  157.6676 H   0  0  0  0  0  0  0  0  0  0  0  0
  150.1652  142.4623  155.2995 H   0  0  0  0  0  0  0  0  0  0  0  0
  151.7183  141.6760  155.5074 H   0  0  0  0  0  0  0  0  0  0  0  0
  149.3846  137.9804  154.2439 H   0  0  0  0  0  0  0  0  0  0  0  0
  150.8826  137.8614  153.3621 H   0  0  0  0  0  0  0  0  0  0  0  0
  150.4920  137.0785  156.3143 H   0  0  0  0  0  0  0  0  0  0  0  0
  150.6590  135.9622  154.9709 H   0  0  0  0  0  0  0  0  0  0  0  0
  152.4870  138.4600  156.9080 H   0  0  0  0  0  0  0  0  0  0  0  0
  153.9362  138.2326  155.9464 H   0  0  0  0  0  0  0  0  0  0  0  0
  152.8070  139.1959  153.9361 H   0  0  0  0  0  0  0  0  0  0  0  0
  152.7959  140.3261  155.2578 H   0  0  0  0  0  0  0  0  0  0  0  0
  1  2  1  0  0  0  0
  1 20  1  0  0  0  0
  1 21  1  0  0  0  0
  1 22  1  0  0  0  0
  2  3  1  0  0  0  0
  2  9  1  0  0  0  0
  2 23  1  0  0  0  0
  3  4  1  0  0  0  0
  3 24  1  0  0  0  0
  3 25  1  0  0  0  0
  4  8  1  0  0  0  0
  4  5  1  0  0  0  0
  5  6  2  0  0  0  0
  5 26  1  0  0  0  0
  6  7  1  0  0  0  0
  6 27  1  0  0  0  0
  7  8  2  0  0  0  0
  7 28  1  0  0  0  0
  9 10  1  0  0  0  0
  9 29  1  0  0  0  0
 10 11  1  0  0  0  0
 10 30  1  0  0  0  0
 10 31  1  0  0  0  0
 11 12  1  0  0  0  0
 11 32  1  0  0  0  0
 11 33  1  0  0  0  0
 12 13  2  0  0  0  0
 12 14  1  0  0  0  0
 14 19  1  0  0  0  0
 14 15  1  0  0  0  0
 15 16  1  0  0  0  0
 15 34  1  0  0  0  0
 15 35  1  0  0  0  0
 16 17  1  0  0  0  0
 16 36  1  0  0  0  0
 16 37  1  0  0  0  0
 17 18  1  0  0  0  0
 18 19  1  0  0  0  0
 18 38  1  0  0  0  0
 18 39  1  0  0  0  0
 19 40  1  0  0  0  0
 19 41  1  0  0  0  0
M  END
> <s_m_source_file>
AV-unprocessed.smi

> <i_m_source_file_index>
3036

> <i_lp_mmshare_version>
43012

> <i_f3d_flags>
0

> <s_epik_input>
bjFbY0hdW2NIXVtjSF1uMVtDSDJdW0NAQEhdKFtDSDNdKVtOSF1bQ0gyXVtDSDJdQyg9TylOMltDSDJdW0NIMl1PW0NIMl1bQ0gyXTI=

> <s_epik_cmdline>
J2VwaWtfcHl0aG9uJywgJy1waCcsICc3LjAnLCAnLXRuJywgJzgnLCAnLW1hJywgJzIwMCcsICctbWV0YWxfYmluZGluZycsICctaW1hZScsICc8aW5maWxlLm1hZT4nLCAnLW9tYWUnLCAnPG91dGZpbGUubWFlPic=

> <r_lp_tautomer_probability>
1

> <r_epik_Ionization_Penalty>
2.55703

> <r_epik_Ionization_Penalty_Charging>
0

> <r_epik_Ionization_Penalty_Neutral>
2.55703

> <r_epik_State_Penalty>
2.726

> <r_epik_Charging_Adjusted_Penalty>
2.726

> <i_epik_Tot_Q>
0

> <i_epik_Tot_abs_Q>
0

> <r_epik_Metal_State_Penalty>
2.72597

> <b_epik_Metal_Only>
0

> <s_lp_Force_Field>
OPLS_2005

> <r_lp_Energy>
21.9246

> <b_lp_Chiralities_Consistent>
1

> <s_lp_Variant>
AV-unprocessed.smi:3036-4

> <Gold.Version>
5.8.1

> <Gold.Id.Protein>
6NUR|6NUR_protein|mol2

> <Gold.PLP.Fitness>
46.7285

> <Gold.PLP.PLP>
-47.2182

> <Gold.PLP.part.hbond>
-1.5444

> <Gold.PLP.part.metal>
0.0000

> <Gold.PLP.part.buried>
-3.9231

> <Gold.PLP.part.nonpolar>
-42.1590

> <Gold.PLP.part.repulsive>
0.0911

> <Gold.PLP.ligand.clash>
0.0000

> <Gold.PLP.ligand.torsion>
1.6056

> <Gold.PLP.Chemscore.Hbond>
0.8800

> <Gold.PLP.Chemscore.CHOScore>
0.0000

> <Gold.PLP.Chemscore.Metal>
0.0000

> <Gold.Chemscore.Hbonds>
donor molecule, donor type, donor heavy atom, donor atom, acceptor molecule, acceptor atom, score
      P1  H 10752 10763       L1    17  0.78

> <Gold.PLP.Chemscore.Internal.Correction>
0.0815

> <Gold.Rescore>
     Score         DG    S(hbond)    S(metal)    S(lipo)     H(rot)  DE(clash)    DE(int)     intcor
     16.21     -18.07       1.42        0.00     110.48       1.99       0.30       1.56       ----

> <Gold.Chemscore.Fitness>
16.2079

> <Gold.Chemscore.DG>
-18.0675

> <Gold.Chemscore.ZeroCoef>
-5.4800

> <Gold.Chemscore.Hbond>
1.4240

> <Gold.Chemscore.Metal>
0.0000

> <Gold.Chemscore.Lipo>
110.4756

> <Gold.Chemscore.Internal_Hbond>
0.0000

> <Gold.Chemscore.DEClash>
0.3024

> <Gold.Chemscore.DEInternal>
1.5571

> <Gold.Chemscore.Rot>
1.9900

> <Gold.Chemscore.Internal.Correction>
   9.000000E+99

> <Gold.Chemscore.Hbonds>
donor molecule, donor type, donor heavy atom, donor atom, acceptor molecule, acceptor atom, score
      L1  H     9    29       P1  8028  0.04
      P1  H 10752 10763       L1    17  0.61

> <Gold.Chemscore.Hbond.Weighted>
-4.7562

> <Gold.Chemscore.Metal.Weighted>
-0.0000

> <Gold.Chemscore.Lipo.Weighted>
-12.9256

> <Gold.Chemscore.Internal_Hbond.Weighted>
0.0000

> <Gold.Chemscore.DEClash.Weighted>
0.3024

> <Gold.Chemscore.DEInternal.Weighted>
1.5571

> <Gold.Chemscore.Rot.Weighted>
5.0944

> <Gold.Chemscore.Internal.Correction.Weighted>
   9.000000E+99

> <Gold.Protein.RotatedTorsions>
[ 6907 6896 6895 6894 ] final  -73.74 input  -60.11 | X-H torsion
[ 7974 7965 7964 7962 ] final -146.84 input  175.53 | X-H torsion
[ 8008 7997 7996 7995 ] final  129.67 input   59.86 | X-H torsion
[ 10167 10162 10161 10158 ] final -111.79 input  -65.29 | X-H torsion
[ 10718 10713 10712 10709 ] final   43.92 input   66.30 | X-H torsion
[ 10763 10752 10751 10750 ] final   80.66 input  -60.55 | X-H torsion
[ 11005 11000 10999 10996 ] final  -76.72 input  -57.11 | X-H torsion

> <Gold.Protein.ActiveResidues>
 VAL166  LYS551  ARG553  GLY616  TRP617  ASP618  TYR619  PRO620  LYS621  CYS622 
 ASP623  PHE694  ASN695  SER759  ASP760  ASP761  ALA762  ILE779  LEU786  VAL792 
 PHE793  MET794  SER795  GLU796  ALA797  LYS798  CYS799  TRP800  GLU811  SER814 

> <Gold.Protein.RotatedAtoms>
  150.7119  134.4972  159.5543 H   0  0  0  0  0  0  0  0  0  0  0  0  # atno 6907 bound_to 6896
  152.2577  134.8064  160.0445 H   0  0  0  0  0  0  0  0  0  0  0  0  # atno 6908 bound_to 6896
  151.8789  133.3456  159.3796 H   0  0  0  0  0  0  0  0  0  0  0  0  # atno 6909 bound_to 6896
  144.8133  140.5404  143.5628 H   0  0  0  0  0  0  0  0  0  0  0  0  # atno 7974 bound_to 7965
  156.2940  140.2615  156.2637 H   0  0  0  0  0  0  0  0  0  0  0  0  # atno 8008 bound_to 7997
  154.9763  140.0390  157.2276 H   0  0  0  0  0  0  0  0  0  0  0  0  # atno 8009 bound_to 7997
  154.7812  140.2795  155.6067 H   0  0  0  0  0  0  0  0  0  0  0  0  # atno 8010 bound_to 7997
  140.1298  143.4370  152.1635 H   0  0  0  0  0  0  0  0  0  0  0  0  # atno 10167 bound_to 10162
  157.4212  130.7970  149.7517 H   0  0  0  0  0  0  0  0  0  0  0  0  # atno 10718 bound_to 10713
  153.1052  135.4794  154.8938 H   0  0  0  0  0  0  0  0  0  0  0  0  # atno 10763 bound_to 10752
  154.7422  135.3085  154.8710 H   0  0  0  0  0  0  0  0  0  0  0  0  # atno 10764 bound_to 10752
  153.9315  135.6844  153.4799 H   0  0  0  0  0  0  0  0  0  0  0  0  # atno 10765 bound_to 10752
  141.1656  133.6994  156.7712 H   0  0  0  0  0  0  0  0  0  0  0  0  # atno 11005 bound_to 11000
  145.5274  139.1475  143.3519 LP  0  0  0  0  0  0  0  0  0  0  0  0  # atno 17320 bound_to 7965
  146.2433  140.5414  142.8924 LP  0  0  0  0  0  0  0  0  0  0  0  0  # atno 17321 bound_to 7965
  139.5525  144.7349  151.4391 LP  0  0  0  0  0  0  0  0  0  0  0  0  # atno 17342 bound_to 10162
  140.6824  143.8052  150.7139 LP  0  0  0  0  0  0  0  0  0  0  0  0  # atno 17343 bound_to 10162
  155.9881  130.3961  150.3133 LP  0  0  0  0  0  0  0  0  0  0  0  0  # atno 17370 bound_to 10713
  157.1281  131.0264  151.2981 LP  0  0  0  0  0  0  0  0  0  0  0  0  # atno 17371 bound_to 10713
  140.2463  134.8575  157.3623 LP  0  0  0  0  0  0  0  0  0  0  0  0  # atno 17394 bound_to 11000
  140.1746  134.4565  155.7809 LP  0  0  0  0  0  0  0  0  0  0  0  0  # atno 17395 bound_to 11000

$$$$
