AV-unprocessed.smi:260|AV-procd|sdf|1975|dock6
  -GOLD-   2262021143D 1   1.00000     0.00000
 Structure written by MMmdl.
 53 56  0  0  0  0  0  0  0  0  1 V2000
  158.7580  140.8421  159.8716 C   0  0  0  0  0  0  0  0  0  0  0  0
  157.5618  140.6099  160.6664 N   0  0  0  0  0  0  0  0  0  0  0  0
  156.4771  139.9480  160.2322 C   0  0  0  0  0  0  0  0  0  0  0  0
  156.4184  139.4745  159.0961 O   0  0  0  0  0  0  0  0  0  0  0  0
  155.2765  139.7912  161.2069 C   0  0  1  0  0  0  0  0  0  0  0  0
  155.6727  139.0604  162.5112 C   0  0  0  0  0  0  0  0  0  0  0  0
  154.6509  141.1705  161.5012 C   0  0  0  0  0  0  0  0  0  0  0  0
  153.6645  141.4155  160.3570 C   0  0  0  0  0  0  0  0  0  0  0  0
  153.2517  140.0897  159.9311 N   0  0  0  0  0  0  0  0  0  0  0  0
  152.4539  139.8633  158.8552 C   0  0  0  0  0  0  0  0  0  0  0  0
  152.4211  138.6085  158.3337 N   0  0  0  0  0  0  0  0  0  0  0  0
  151.6536  138.3295  157.2771 C   0  0  0  0  0  0  0  0  0  0  0  0
  150.8487  139.1436  156.5940 N   0  0  0  0  0  0  0  0  0  0  0  0
  150.8691  140.4050  157.1109 C   0  0  0  0  0  0  0  0  0  0  0  0
  151.6306  140.8485  158.2314 C   0  0  0  0  0  0  0  0  0  0  0  0
  151.3762  142.1973  158.4580 N   0  0  0  0  0  0  0  0  0  0  0  0
  150.5244  142.5302  157.5284 C   0  0  0  0  0  0  0  0  0  0  0  0
  150.1799  141.5186  156.6622 N   0  0  0  0  0  0  0  0  0  0  0  0
  149.2559  141.6093  155.5447 C   0  0  0  0  0  0  0  0  0  0  0  0
  149.3307  140.4072  154.5752 C   0  0  2  0  0  0  0  0  0  0  0  0
  149.4610  140.9663  153.2837 O   0  0  0  0  0  0  0  0  0  0  0  0
  148.0837  139.4927  154.5519 C   0  0  2  0  0  0  0  0  0  0  0  0
  146.7518  140.1737  154.2246 C   0  0  0  0  0  0  0  0  0  0  0  0
  145.7114  139.2860  154.8874 C   0  0  0  0  0  0  0  0  0  0  0  0
  146.5218  138.4455  155.8743 C   0  0  0  0  0  0  0  0  0  0  0  0
  147.8188  139.0238  155.8666 O   0  0  0  0  0  0  0  0  0  0  0  0
  154.1085  139.0581  160.5074 C   0  0  0  0  0  0  0  0  0  0  0  0
  159.5005  141.3749  160.4656 H   0  0  0  0  0  0  0  0  0  0  0  0
  158.5281  141.4446  158.9922 H   0  0  0  0  0  0  0  0  0  0  0  0
  159.1976  139.8993  159.5436 H   0  0  0  0  0  0  0  0  0  0  0  0
  157.5538  140.9761  161.6074 H   0  0  0  0  0  0  0  0  0  0  0  0
  154.8081  138.9165  163.1601 H   0  0  0  0  0  0  0  0  0  0  0  0
  156.4080  139.6266  163.0845 H   0  0  0  0  0  0  0  0  0  0  0  0
  156.0884  138.0726  162.3078 H   0  0  0  0  0  0  0  0  0  0  0  0
  154.1024  141.1379  162.4435 H   0  0  0  0  0  0  0  0  0  0  0  0
  155.3857  141.9723  161.5865 H   0  0  0  0  0  0  0  0  0  0  0  0
  152.8154  142.0149  160.6862 H   0  0  0  0  0  0  0  0  0  0  0  0
  154.1533  141.9311  159.5297 H   0  0  0  0  0  0  0  0  0  0  0  0
  151.6912  137.3078  156.9289 H   0  0  0  0  0  0  0  0  0  0  0  0
  150.1283  143.5317  157.4448 H   0  0  0  0  0  0  0  0  0  0  0  0
  148.2400  141.7277  155.9241 H   0  0  0  0  0  0  0  0  0  0  0  0
  149.4950  142.5315  155.0131 H   0  0  0  0  0  0  0  0  0  0  0  0
  150.2246  139.8170  154.7802 H   0  0  0  0  0  0  0  0  0  0  0  0
  149.3665  140.2747  152.6468 H   0  0  0  0  0  0  0  0  0  0  0  0
  148.2354  138.6435  153.8821 H   0  0  0  0  0  0  0  0  0  0  0  0
  146.7147  141.1672  154.6731 H   0  0  0  0  0  0  0  0  0  0  0  0
  146.5818  140.2766  153.1532 H   0  0  0  0  0  0  0  0  0  0  0  0
  144.9505  139.8840  155.3901 H   0  0  0  0  0  0  0  0  0  0  0  0
  145.2105  138.6461  154.1599 H   0  0  0  0  0  0  0  0  0  0  0  0
  146.0966  138.4502  156.8780 H   0  0  0  0  0  0  0  0  0  0  0  0
  146.5864  137.4105  155.5357 H   0  0  0  0  0  0  0  0  0  0  0  0
  154.4727  138.3633  159.7486 H   0  0  0  0  0  0  0  0  0  0  0  0
  153.5197  138.4795  161.2197 H   0  0  0  0  0  0  0  0  0  0  0  0
  1  2  1  0  0  0  0
  1 28  1  0  0  0  0
  1 29  1  0  0  0  0
  1 30  1  0  0  0  0
  2  3  1  0  0  0  0
  2 31  1  0  0  0  0
  3  4  2  0  0  0  0
  3  5  1  0  0  0  0
  5 27  1  0  0  0  0
  5  6  1  0  0  0  0
  5  7  1  0  0  0  0
  6 32  1  0  0  0  0
  6 33  1  0  0  0  0
  6 34  1  0  0  0  0
  7  8  1  0  0  0  0
  7 35  1  0  0  0  0
  7 36  1  0  0  0  0
  8  9  1  0  0  0  0
  8 37  1  0  0  0  0
  8 38  1  0  0  0  0
  9 10  1  0  0  0  0
  9 27  1  0  0  0  0
 10 15  1  0  0  0  0
 10 11  2  0  0  0  0
 11 12  1  0  0  0  0
 12 13  2  0  0  0  0
 12 39  1  0  0  0  0
 13 14  1  0  0  0  0
 14 18  1  0  0  0  0
 14 15  2  0  0  0  0
 15 16  1  0  0  0  0
 16 17  2  0  0  0  0
 17 18  1  0  0  0  0
 17 40  1  0  0  0  0
 18 19  1  0  0  0  0
 19 20  1  0  0  0  0
 19 41  1  0  0  0  0
 19 42  1  0  0  0  0
 20 21  1  0  0  0  0
 20 22  1  0  0  0  0
 20 43  1  0  0  0  0
 21 44  1  0  0  0  0
 22 26  1  0  0  0  0
 22 23  1  0  0  0  0
 22 45  1  0  0  0  0
 23 24  1  0  0  0  0
 23 46  1  0  0  0  0
 23 47  1  0  0  0  0
 24 25  1  0  0  0  0
 24 48  1  0  0  0  0
 24 49  1  0  0  0  0
 25 26  1  0  0  0  0
 25 50  1  0  0  0  0
 25 51  1  0  0  0  0
 27 52  1  0  0  0  0
 27 53  1  0  0  0  0
M  END
> <s_m_source_file>
AV-unprocessed.smi

> <i_m_source_file_index>
260

> <i_lp_mmshare_version>
43012

> <i_f3d_flags>
0

> <s_epik_input>
W0NIM11bTkhdQyg9TylbQ0BAXTEoW0NIM10pW0NIMl1bQ0gyXU4oW0NIMl0xKWMobltjSF1uMiljKGMyMyluW2NIXW4zW0NIMl1bQ0BIXShbT0hdKVtDQEBIXTRbQ0gyXVtDSDJdW0NIMl1PNA==

> <s_epik_cmdline>
J2VwaWtfcHl0aG9uJywgJy1waCcsICc3LjAnLCAnLXRuJywgJzgnLCAnLW1hJywgJzIwMCcsICctbWV0YWxfYmluZGluZycsICctaW1hZScsICc8aW5maWxlLm1hZT4nLCAnLW9tYWUnLCAnPG91dGZpbGUubWFlPic=

> <r_lp_tautomer_probability>
1

> <r_epik_Ionization_Penalty>
0.00115068

> <r_epik_Ionization_Penalty_Charging>
0

> <r_epik_Ionization_Penalty_Neutral>
0.00115068

> <r_epik_State_Penalty>
0.000668876

> <r_epik_Charging_Adjusted_Penalty>
0.000668876

> <i_epik_Tot_Q>
0

> <i_epik_Tot_abs_Q>
0

> <r_epik_Metal_State_Penalty>
-0

> <b_epik_Metal_Only>
0

> <s_lp_Force_Field>
OPLS_2005

> <r_lp_Energy>
51.9197

> <b_lp_Chiralities_Consistent>
1

> <s_lp_Variant>
AV-unprocessed.smi:260-1

> <Gold.Version>
5.8.1

> <Gold.Id.Protein>
6NUR|6NUR_protein|mol2

> <Gold.PLP.Fitness>
47.1452

> <Gold.PLP.PLP>
-37.2703

> <Gold.PLP.part.hbond>
-4.3722

> <Gold.PLP.part.metal>
0.0000

> <Gold.PLP.part.buried>
-2.8104

> <Gold.PLP.part.nonpolar>
-30.6558

> <Gold.PLP.part.repulsive>
0.0833

> <Gold.PLP.ligand.clash>
0.0000

> <Gold.PLP.ligand.torsion>
1.0246

> <Gold.PLP.Chemscore.Hbond>
2.8854

> <Gold.PLP.Chemscore.CHOScore>
1.0000

> <Gold.PLP.Chemscore.Metal>
0.0000

> <Gold.Chemscore.Hbonds>
donor molecule, donor type, donor heavy atom, donor atom, acceptor molecule, acceptor atom, score
      L1  H    21    44       P1  7957  0.75
      P1  H  7989  7998       L1    21  0.07
      P1  H  7997  8010       L1     4  1.00
      P1  H  8011  8017       L1    21  1.00
      L1  C    17    40       P1  8028  1.00

> <Gold.PLP.Chemscore.Internal.Correction>
0.2678

> <Gold.Rescore>
     Score         DG    S(hbond)    S(metal)    S(lipo)     H(rot)  DE(clash)    DE(int)     intcor
     12.39     -15.17       2.22        0.00      74.80       2.53       0.41       2.37       ----

> <Gold.Chemscore.Fitness>
12.3905

> <Gold.Chemscore.DG>
-15.1690

> <Gold.Chemscore.ZeroCoef>
-5.4800

> <Gold.Chemscore.Hbond>
2.2168

> <Gold.Chemscore.Metal>
0.0000

> <Gold.Chemscore.Lipo>
74.7973

> <Gold.Chemscore.Internal_Hbond>
0.0000

> <Gold.Chemscore.DEClash>
0.4084

> <Gold.Chemscore.DEInternal>
2.3701

> <Gold.Chemscore.Rot>
2.5259

> <Gold.Chemscore.Internal.Correction>
   9.000000E+99

> <Gold.Chemscore.Hbonds>
donor molecule, donor type, donor heavy atom, donor atom, acceptor molecule, acceptor atom, score
      L1  H    21    44       P1  7957  0.72
      P1  H  7997  8010       L1     4  0.94
      P1  H  8011  8017       L1    21  0.45

> <Gold.Chemscore.Hbond.Weighted>
-7.4040

> <Gold.Chemscore.Metal.Weighted>
-0.0000

> <Gold.Chemscore.Lipo.Weighted>
-8.7513

> <Gold.Chemscore.Internal_Hbond.Weighted>
0.0000

> <Gold.Chemscore.DEClash.Weighted>
0.4084

> <Gold.Chemscore.DEInternal.Weighted>
2.3701

> <Gold.Chemscore.Rot.Weighted>
6.4663

> <Gold.Chemscore.Internal.Correction.Weighted>
   9.000000E+99

> <Gold.Protein.RotatedTorsions>
[ 6907 6896 6895 6894 ] final  -86.55 input  -60.11 | X-H torsion
[ 7974 7965 7964 7962 ] final  -28.33 input  175.53 | X-H torsion
[ 8008 7997 7996 7995 ] final  -39.87 input   59.86 | X-H torsion
[ 10167 10162 10161 10158 ] final -158.63 input  -65.29 | X-H torsion
[ 10718 10713 10712 10709 ] final -164.87 input   66.30 | X-H torsion
[ 10763 10752 10751 10750 ] final  109.92 input  -60.55 | X-H torsion
[ 11005 11000 10999 10996 ] final  -70.41 input  -57.11 | X-H torsion

> <Gold.Protein.ActiveResidues>
 VAL166  LYS551  ARG553  GLY616  TRP617  ASP618  TYR619  PRO620  LYS621  CYS622 
 ASP623  PHE694  ASN695  SER759  ASP760  ASP761  ALA762  ILE779  LEU786  VAL792 
 PHE793  MET794  SER795  GLU796  ALA797  LYS798  CYS799  TRP800  GLU811  SER814 

> <Gold.Protein.RotatedAtoms>
  150.6867  134.3032  159.4714 H   0  0  0  0  0  0  0  0  0  0  0  0  # atno 6907 bound_to 6896
  152.0926  134.9394  160.0581 H   0  0  0  0  0  0  0  0  0  0  0  0  # atno 6908 bound_to 6896
  152.0704  133.4069  159.4494 H   0  0  0  0  0  0  0  0  0  0  0  0  # atno 6909 bound_to 6896
  146.1295  140.5269  142.8699 H   0  0  0  0  0  0  0  0  0  0  0  0  # atno 7974 bound_to 7965
  154.4018  140.1540  156.2934 H   0  0  0  0  0  0  0  0  0  0  0  0  # atno 8008 bound_to 7997
  155.8765  140.3446  155.5835 H   0  0  0  0  0  0  0  0  0  0  0  0  # atno 8009 bound_to 7997
  155.7716  140.0831  157.2096 H   0  0  0  0  0  0  0  0  0  0  0  0  # atno 8010 bound_to 7997
  139.6677  143.9800  152.2265 H   0  0  0  0  0  0  0  0  0  0  0  0  # atno 10167 bound_to 10162
  156.6452  130.8985  151.3003 H   0  0  0  0  0  0  0  0  0  0  0  0  # atno 10718 bound_to 10713
  153.4417  135.3764  155.2231 H   0  0  0  0  0  0  0  0  0  0  0  0  # atno 10763 bound_to 10752
  154.8754  135.3864  154.4145 H   0  0  0  0  0  0  0  0  0  0  0  0  # atno 10764 bound_to 10752
  153.4692  135.7087  153.6067 H   0  0  0  0  0  0  0  0  0  0  0  0  # atno 10765 bound_to 10752
  141.1573  133.6789  156.6749 H   0  0  0  0  0  0  0  0  0  0  0  0  # atno 11005 bound_to 11000
  144.7676  140.5566  143.6692 LP  0  0  0  0  0  0  0  0  0  0  0  0  # atno 17320 bound_to 7965
  145.5291  139.1475  143.3510 LP  0  0  0  0  0  0  0  0  0  0  0  0  # atno 17321 bound_to 7965
  139.9556  144.6592  150.8129 LP  0  0  0  0  0  0  0  0  0  0  0  0  # atno 17342 bound_to 10162
  140.7606  143.3155  151.2744 LP  0  0  0  0  0  0  0  0  0  0  0  0  # atno 17343 bound_to 10162
  157.7158  130.9496  150.1251 LP  0  0  0  0  0  0  0  0  0  0  0  0  # atno 17370 bound_to 10713
  156.2127  130.3668  149.8650 LP  0  0  0  0  0  0  0  0  0  0  0  0  # atno 17371 bound_to 10713
  140.3147  134.8057  157.4204 LP  0  0  0  0  0  0  0  0  0  0  0  0  # atno 17394 bound_to 11000
  140.1148  134.5297  155.8234 LP  0  0  0  0  0  0  0  0  0  0  0  0  # atno 17395 bound_to 11000

$$$$
