AV-unprocessed.smi:2930|AV-procd|sdf|11240|dock6
  -GOLD-   2272016133D 1   1.00000     0.00000
 Structure written by MMmdl.
 40 41  0  0  0  0  0  0  0  0  1 V2000
  144.8520  135.0763  150.4890 C   0  0  0  0  0  0  0  0  0  0  0  0
  145.0006  135.7514  151.8594 C   0  0  2  0  0  0  0  0  0  0  0  0
  146.3162  135.4346  152.4098 N   0  0  0  0  0  0  0  0  0  0  0  0
  146.6965  134.2427  152.8922 C   0  0  0  0  0  0  0  0  0  0  0  0
  145.9595  133.2581  152.9364 O   0  0  0  0  0  0  0  0  0  0  0  0
  147.9677  134.2803  153.3259 N   0  0  0  0  0  0  0  0  0  0  0  0
  148.7453  133.2258  153.8747 C   0  0  0  0  0  0  0  0  0  0  0  0
  148.6678  131.8660  153.4894 C   0  0  0  0  0  0  0  0  0  0  0  0
  149.4581  130.9253  154.0489 N   0  0  0  0  0  0  0  0  0  0  0  0
  150.3302  131.3182  154.9866 C   0  0  0  0  0  0  0  0  0  0  0  0
  151.1432  130.3371  155.5615 N   0  0  0  0  0  0  0  0  0  0  0  0
  152.1643  130.6826  156.5461 C   0  0  0  0  0  0  0  0  0  0  0  0
  151.0099  128.9317  155.1889 C   0  0  0  0  0  0  0  0  0  0  0  0
  150.4879  132.5782  155.4135 N   0  0  0  0  0  0  0  0  0  0  0  0
  149.7050  133.5284  154.8610 C   0  0  0  0  0  0  0  0  0  0  0  0
  143.9042  135.3184  152.8348 C   0  0  0  0  0  0  0  0  0  0  0  0
  142.8810  134.2518  152.4146 C   0  0  0  0  0  0  0  0  0  0  0  0
  141.8331  134.9932  153.2493 C   0  0  0  0  0  0  0  0  0  0  0  0
  142.7086  136.2419  153.1183 C   0  0  0  0  0  0  0  0  0  0  0  0
  143.8930  135.3215  150.0317 H   0  0  0  0  0  0  0  0  0  0  0  0
  144.9124  133.9906  150.5719 H   0  0  0  0  0  0  0  0  0  0  0  0
  145.6345  135.4032  149.8035 H   0  0  0  0  0  0  0  0  0  0  0  0
  144.9297  136.8282  151.6951 H   0  0  0  0  0  0  0  0  0  0  0  0
  146.9919  136.1843  152.4191 H   0  0  0  0  0  0  0  0  0  0  0  0
  148.4222  135.1811  153.2915 H   0  0  0  0  0  0  0  0  0  0  0  0
  147.9969  131.5111  152.7231 H   0  0  0  0  0  0  0  0  0  0  0  0
  151.7080  131.1520  157.4182 H   0  0  0  0  0  0  0  0  0  0  0  0
  152.8851  131.3795  156.1175 H   0  0  0  0  0  0  0  0  0  0  0  0
  152.7137  129.8062  156.8897 H   0  0  0  0  0  0  0  0  0  0  0  0
  151.2103  128.8015  154.1250 H   0  0  0  0  0  0  0  0  0  0  0  0
  149.9995  128.5771  155.3946 H   0  0  0  0  0  0  0  0  0  0  0  0
  151.7033  128.2955  155.7390 H   0  0  0  0  0  0  0  0  0  0  0  0
  149.8466  134.5398  155.2132 H   0  0  0  0  0  0  0  0  0  0  0  0
  144.3388  135.0155  153.7901 H   0  0  0  0  0  0  0  0  0  0  0  0
  142.6599  134.2738  151.3461 H   0  0  0  0  0  0  0  0  0  0  0  0
  143.1079  133.2417  152.7571 H   0  0  0  0  0  0  0  0  0  0  0  0
  140.8505  135.0739  152.7839 H   0  0  0  0  0  0  0  0  0  0  0  0
  141.7699  134.6258  154.2747 H   0  0  0  0  0  0  0  0  0  0  0  0
  142.7986  136.8370  154.0277 H   0  0  0  0  0  0  0  0  0  0  0  0
  142.4346  136.8582  152.2604 H   0  0  0  0  0  0  0  0  0  0  0  0
  1  2  1  0  0  0  0
  1 20  1  0  0  0  0
  1 21  1  0  0  0  0
  1 22  1  0  0  0  0
  2  3  1  0  0  0  0
  2 16  1  0  0  0  0
  2 23  1  0  0  0  0
  3  4  1  0  0  0  0
  3 24  1  0  0  0  0
  4  5  2  0  0  0  0
  4  6  1  0  0  0  0
  6  7  1  0  0  0  0
  6 25  1  0  0  0  0
  7 15  1  0  0  0  0
  7  8  2  0  0  0  0
  8  9  1  0  0  0  0
  8 26  1  0  0  0  0
  9 10  2  0  0  0  0
 10 11  1  0  0  0  0
 10 14  1  0  0  0  0
 11 12  1  0  0  0  0
 11 13  1  0  0  0  0
 12 27  1  0  0  0  0
 12 28  1  0  0  0  0
 12 29  1  0  0  0  0
 13 30  1  0  0  0  0
 13 31  1  0  0  0  0
 13 32  1  0  0  0  0
 14 15  2  0  0  0  0
 15 33  1  0  0  0  0
 16 19  1  0  0  0  0
 16 17  1  0  0  0  0
 16 34  1  0  0  0  0
 17 18  1  0  0  0  0
 17 35  1  0  0  0  0
 17 36  1  0  0  0  0
 18 19  1  0  0  0  0
 18 37  1  0  0  0  0
 18 38  1  0  0  0  0
 19 39  1  0  0  0  0
 19 40  1  0  0  0  0
M  END
> <s_m_source_file>
AV-unprocessed.smi

> <i_m_source_file_index>
2930

> <i_lp_mmshare_version>
43012

> <i_f3d_flags>
0

> <s_epik_input>
W0NIMl0xW0NIMl1bQ0gyXVtDSF0xW0NASF0oW0NIM10pW05IXUMoPU8pW05IXWMyW2NIXW5jKE4oW0NIM10pW0NIM10pbltjSF0y

> <s_epik_cmdline>
J2VwaWtfcHl0aG9uJywgJy1waCcsICc3LjAnLCAnLXRuJywgJzgnLCAnLW1hJywgJzIwMCcsICctbWV0YWxfYmluZGluZycsICctaW1hZScsICc8aW5maWxlLm1hZT4nLCAnLW9tYWUnLCAnPG91dGZpbGUubWFlPic=

> <r_lp_tautomer_probability>
1

> <r_epik_Ionization_Penalty>
0.000323856

> <r_epik_Ionization_Penalty_Charging>
0

> <r_epik_Ionization_Penalty_Neutral>
0.000323856

> <r_epik_State_Penalty>
-0

> <r_epik_Charging_Adjusted_Penalty>
0

> <i_epik_Tot_Q>
0

> <i_epik_Tot_abs_Q>
0

> <r_epik_Metal_State_Penalty>
-0

> <b_epik_Metal_Only>
0

> <s_lp_Force_Field>
OPLS_2005

> <r_lp_Energy>
8.18879

> <b_lp_Chiralities_Consistent>
1

> <s_lp_Variant>
AV-unprocessed.smi:2930-1

> <Gold.Version>
5.8.1

> <Gold.Id.Protein>
6NUR|6NUR_protein|mol2

> <Gold.PLP.Fitness>
35.2119

> <Gold.PLP.PLP>
-32.5846

> <Gold.PLP.part.hbond>
-2.0000

> <Gold.PLP.part.metal>
0.0000

> <Gold.PLP.part.buried>
-2.0122

> <Gold.PLP.part.nonpolar>
-27.1124

> <Gold.PLP.part.repulsive>
0.2044

> <Gold.PLP.ligand.clash>
0.0000

> <Gold.PLP.ligand.torsion>
1.6897

> <Gold.PLP.Chemscore.Hbond>
1.1947

> <Gold.PLP.Chemscore.CHOScore>
0.7693

> <Gold.PLP.Chemscore.Metal>
0.0000

> <Gold.Chemscore.Hbonds>
donor molecule, donor type, donor heavy atom, donor atom, acceptor molecule, acceptor atom, score
      L1  H     3    24       P1  7948  0.61
      L1  H     6    25       P1  7948  0.61
      L1  C     8    26       P1 10747  0.44

> <Gold.PLP.Chemscore.Internal.Correction>
0.1148

> <Gold.Rescore>
     Score         DG    S(hbond)    S(metal)    S(lipo)     H(rot)  DE(clash)    DE(int)     intcor
     11.62     -14.25       1.57        0.00      56.42       1.19       0.08       2.55       ----

> <Gold.Chemscore.Fitness>
11.6191

> <Gold.Chemscore.DG>
-14.2505

> <Gold.Chemscore.ZeroCoef>
-5.4800

> <Gold.Chemscore.Hbond>
1.5654

> <Gold.Chemscore.Metal>
0.0000

> <Gold.Chemscore.Lipo>
56.4195

> <Gold.Chemscore.Internal_Hbond>
0.0000

> <Gold.Chemscore.DEClash>
0.0775

> <Gold.Chemscore.DEInternal>
2.5539

> <Gold.Chemscore.Rot>
1.1949

> <Gold.Chemscore.Internal.Correction>
   9.000000E+99

> <Gold.Chemscore.Hbonds>
donor molecule, donor type, donor heavy atom, donor atom, acceptor molecule, acceptor atom, score
      L1  H     3    24       P1  7948  0.56
      L1  H     6    25       P1  7948  0.57

> <Gold.Chemscore.Hbond.Weighted>
-5.2284

> <Gold.Chemscore.Metal.Weighted>
-0.0000

> <Gold.Chemscore.Lipo.Weighted>
-6.6011

> <Gold.Chemscore.Internal_Hbond.Weighted>
0.0000

> <Gold.Chemscore.DEClash.Weighted>
0.0775

> <Gold.Chemscore.DEInternal.Weighted>
2.5539

> <Gold.Chemscore.Rot.Weighted>
3.0590

> <Gold.Chemscore.Internal.Correction.Weighted>
   9.000000E+99

> <Gold.Protein.RotatedTorsions>
[ 6907 6896 6895 6894 ] final    5.15 input  -60.11 | X-H torsion
[ 7974 7965 7964 7962 ] final    9.08 input  175.53 | X-H torsion
[ 8008 7997 7996 7995 ] final  -28.66 input   59.86 | X-H torsion
[ 10167 10162 10161 10158 ] final   -4.65 input  -65.29 | X-H torsion
[ 10718 10713 10712 10709 ] final   92.70 input   66.30 | X-H torsion
[ 10763 10752 10751 10750 ] final  106.77 input  -60.55 | X-H torsion
[ 11005 11000 10999 10996 ] final  -78.56 input  -57.11 | X-H torsion

> <Gold.Protein.ActiveResidues>
 VAL166  LYS551  ARG553  GLY616  TRP617  ASP618  TYR619  PRO620  LYS621  CYS622 
 ASP623  PHE694  ASN695  SER759  ASP760  ASP761  ALA762  ILE779  LEU786  VAL792 
 PHE793  MET794  SER795  GLU796  ALA797  LYS798  CYS799  TRP800  GLU811  SER814 

> <Gold.Protein.RotatedAtoms>
  151.6529  135.0999  160.0163 H   0  0  0  0  0  0  0  0  0  0  0  0  # atno 6907 bound_to 6896
  152.3991  133.6786  159.6309 H   0  0  0  0  0  0  0  0  0  0  0  0  # atno 6908 bound_to 6896
  150.7893  133.8740  159.3308 H   0  0  0  0  0  0  0  0  0  0  0  0  # atno 6909 bound_to 6896
  146.2408  139.9837  142.8433 H   0  0  0  0  0  0  0  0  0  0  0  0  # atno 7974 bound_to 7965
  154.4322  140.1839  156.1125 H   0  0  0  0  0  0  0  0  0  0  0  0  # atno 8008 bound_to 7997
  156.0207  140.3341  155.7010 H   0  0  0  0  0  0  0  0  0  0  0  0  # atno 8009 bound_to 7997
  155.5981  140.0637  157.2731 H   0  0  0  0  0  0  0  0  0  0  0  0  # atno 8010 bound_to 7997
  140.6935  143.6398  150.8445 H   0  0  0  0  0  0  0  0  0  0  0  0  # atno 10167 bound_to 10162
  157.6958  131.0452  150.3922 H   0  0  0  0  0  0  0  0  0  0  0  0  # atno 10718 bound_to 10713
  153.3975  135.3866  155.1965 H   0  0  0  0  0  0  0  0  0  0  0  0  # atno 10763 bound_to 10752
  154.8726  135.3763  154.4660 H   0  0  0  0  0  0  0  0  0  0  0  0  # atno 10764 bound_to 10752
  153.5153  135.7087  153.5821 H   0  0  0  0  0  0  0  0  0  0  0  0  # atno 10765 bound_to 10752
  141.1665  133.7068  156.7991 H   0  0  0  0  0  0  0  0  0  0  0  0  # atno 11005 bound_to 11000
  145.1568  140.9652  143.4400 LP  0  0  0  0  0  0  0  0  0  0  0  0  # atno 17320 bound_to 7965
  145.0153  139.3472  143.6099 LP  0  0  0  0  0  0  0  0  0  0  0  0  # atno 17321 bound_to 7965
  140.0114  143.5638  152.2837 LP  0  0  0  0  0  0  0  0  0  0  0  0  # atno 17342 bound_to 10162
  139.6364  144.7650  151.2430 LP  0  0  0  0  0  0  0  0  0  0  0  0  # atno 17343 bound_to 10162
  156.4324  130.3974  149.6751 LP  0  0  0  0  0  0  0  0  0  0  0  0  # atno 17370 bound_to 10713
  156.3964  130.7653  151.2658 LP  0  0  0  0  0  0  0  0  0  0  0  0  # atno 17371 bound_to 10713
  140.2270  134.8714  157.3437 LP  0  0  0  0  0  0  0  0  0  0  0  0  # atno 17394 bound_to 11000
  140.1930  134.4348  155.7705 LP  0  0  0  0  0  0  0  0  0  0  0  0  # atno 17395 bound_to 11000

$$$$
