AV-unprocessed.smi:2014|AV-procd|sdf|8161|dock9
  -GOLD-   2272010403D 1   1.00000     0.00000
 Structure written by MMmdl.
 46 48  0  0  0  0  0  0  0  0  1 V2000
  151.5185  145.1917  159.7134 C   0  0  0  0  0  0  0  0  0  0  0  0
  151.5025  143.6591  159.6250 C   0  0  2  0  0  0  0  0  0  0  0  0
  152.9233  143.0738  159.7365 C   0  0  0  0  0  0  0  0  0  0  0  0
  152.9141  141.5396  159.6448 C   0  0  0  0  0  0  0  0  0  0  0  0
  152.2271  141.0545  158.3522 C   0  0  1  0  0  0  0  0  0  0  0  0
  152.1593  139.5968  158.3245 N   0  0  0  0  0  0  0  0  0  0  0  0
  152.6625  138.8147  157.3574 C   0  0  0  0  0  0  0  0  0  0  0  0
  153.2333  139.2584  156.3597 O   0  0  0  0  0  0  0  0  0  0  0  0
  152.4850  137.3025  157.5623 C   0  0  0  0  0  0  0  0  0  0  0  0
  151.0852  136.8474  157.4117 N   0  0  0  0  0  0  0  0  0  0  0  0
  150.1528  137.1814  158.4271 C   0  0  0  0  0  0  0  0  0  0  0  0
  150.4894  137.8591  159.3998 O   0  0  0  0  0  0  0  0  0  0  0  0
  148.8021  136.6578  158.2379 C   0  0  0  0  0  0  0  0  0  0  0  0
  147.8456  136.9412  159.2559 C   0  0  0  0  0  0  0  0  0  0  0  0
  147.0670  137.1945  160.0741 N   0  0  0  0  0  0  0  0  0  0  0  0
  148.4849  135.9321  157.1460 C   0  0  0  0  0  0  0  0  0  0  0  0
  149.3959  135.6538  156.1505 N   0  0  0  0  0  0  0  0  0  0  0  0
  149.0791  134.7548  155.0768 C   0  0  0  0  0  0  0  0  0  0  0  0
  148.5631  133.3596  155.3724 C   0  0  0  0  0  0  0  0  0  0  0  0
  149.9642  133.5496  154.8448 C   0  0  0  0  0  0  0  0  0  0  0  0
  150.7416  136.0598  156.2864 C   0  0  0  0  0  0  0  0  0  0  0  0
  151.5941  135.7311  155.4576 O   0  0  0  0  0  0  0  0  0  0  0  0
  150.8079  141.6406  158.2389 C   0  0  0  0  0  0  0  0  0  0  0  0
  150.8239  143.1752  158.3292 C   0  0  0  0  0  0  0  0  0  0  0  0
  152.0927  145.6306  158.8966 H   0  0  0  0  0  0  0  0  0  0  0  0
  151.9646  145.5258  160.6507 H   0  0  0  0  0  0  0  0  0  0  0  0
  150.5076  145.5983  159.6669 H   0  0  0  0  0  0  0  0  0  0  0  0
  150.9185  143.2880  160.4688 H   0  0  0  0  0  0  0  0  0  0  0  0
  153.5526  143.4792  158.9429 H   0  0  0  0  0  0  0  0  0  0  0  0
  153.3804  143.3794  160.6783 H   0  0  0  0  0  0  0  0  0  0  0  0
  153.9384  141.1673  159.6903 H   0  0  0  0  0  0  0  0  0  0  0  0
  152.3987  141.1291  160.5147 H   0  0  0  0  0  0  0  0  0  0  0  0
  152.8055  141.4006  157.4932 H   0  0  0  0  0  0  0  0  0  0  0  0
  151.7038  139.1484  159.1061 H   0  0  0  0  0  0  0  0  0  0  0  0
  153.1357  136.7743  156.8634 H   0  0  0  0  0  0  0  0  0  0  0  0
  152.8847  137.0410  158.5431 H   0  0  0  0  0  0  0  0  0  0  0  0
  147.4768  135.5568  157.0429 H   0  0  0  0  0  0  0  0  0  0  0  0
  148.6790  135.2265  154.1809 H   0  0  0  0  0  0  0  0  0  0  0  0
  148.4621  133.0561  156.4128 H   0  0  0  0  0  0  0  0  0  0  0  0
  147.8207  132.9463  154.6930 H   0  0  0  0  0  0  0  0  0  0  0  0
  150.1565  133.2595  153.8139 H   0  0  0  0  0  0  0  0  0  0  0  0
  150.7844  133.3742  155.5383 H   0  0  0  0  0  0  0  0  0  0  0  0
  150.3505  141.3337  157.2973 H   0  0  0  0  0  0  0  0  0  0  0  0
  150.1769  141.2398  159.0337 H   0  0  0  0  0  0  0  0  0  0  0  0
  149.8022  143.5533  158.2787 H   0  0  0  0  0  0  0  0  0  0  0  0
  151.3467  143.5838  157.4632 H   0  0  0  0  0  0  0  0  0  0  0  0
  1  2  1  0  0  0  0
  1 25  1  0  0  0  0
  1 26  1  0  0  0  0
  1 27  1  0  0  0  0
  2 24  1  0  0  0  0
  2  3  1  0  0  0  0
  2 28  1  0  0  0  0
  3  4  1  0  0  0  0
  3 29  1  0  0  0  0
  3 30  1  0  0  0  0
  4  5  1  0  0  0  0
  4 31  1  0  0  0  0
  4 32  1  0  0  0  0
  5  6  1  0  0  0  0
  5 23  1  0  0  0  0
  5 33  1  0  0  0  0
  6  7  1  0  0  0  0
  6 34  1  0  0  0  0
  7  8  2  0  0  0  0
  7  9  1  0  0  0  0
  9 10  1  0  0  0  0
  9 35  1  0  0  0  0
  9 36  1  0  0  0  0
 10 21  1  0  0  0  0
 10 11  1  0  0  0  0
 11 12  2  0  0  0  0
 11 13  1  0  0  0  0
 13 14  1  0  0  0  0
 13 16  2  0  0  0  0
 14 15  3  0  0  0  0
 16 17  1  0  0  0  0
 16 37  1  0  0  0  0
 17 18  1  0  0  0  0
 17 21  1  0  0  0  0
 18 20  1  0  0  0  0
 18 19  1  0  0  0  0
 18 38  1  0  0  0  0
 19 20  1  0  0  0  0
 19 39  1  0  0  0  0
 19 40  1  0  0  0  0
 20 41  1  0  0  0  0
 20 42  1  0  0  0  0
 21 22  2  0  0  0  0
 23 24  1  0  0  0  0
 23 43  1  0  0  0  0
 23 44  1  0  0  0  0
 24 45  1  0  0  0  0
 24 46  1  0  0  0  0
M  END
> <s_m_source_file>
AV-unprocessed.smi

> <i_m_source_file_index>
2014

> <i_lp_mmshare_version>
43012

> <i_f3d_flags>
0

> <s_epik_input>
W0NIM11bQ0BASF0xW0NIMl1bQ0gyXVtDQEhdKFtDSDJdW0NIMl0xKVtOSF1DKD1PKVtDSDJdbjJjKD1PKWMoQyNOKVtjSF1uKGMyPU8pW0NIXTNbQ0gyXVtDSDJdMw==

> <s_epik_cmdline>
J2VwaWtfcHl0aG9uJywgJy1waCcsICc3LjAnLCAnLXRuJywgJzgnLCAnLW1hJywgJzIwMCcsICctbWV0YWxfYmluZGluZycsICctaW1hZScsICc8aW5maWxlLm1hZT4nLCAnLW9tYWUnLCAnPG91dGZpbGUubWFlPic=

> <r_lp_tautomer_probability>
1

> <r_epik_Ionization_Penalty>
1.91358e-08

> <r_epik_Ionization_Penalty_Charging>
8.89021e-11

> <r_epik_Ionization_Penalty_Neutral>
1.90469e-08

> <r_epik_State_Penalty>
-0

> <r_epik_Charging_Adjusted_Penalty>
8.89021e-11

> <i_epik_Tot_Q>
0

> <i_epik_Tot_abs_Q>
0

> <r_epik_Metal_State_Penalty>
-0

> <b_epik_Metal_Only>
0

> <s_lp_Force_Field>
OPLS_2005

> <r_lp_Energy>
34.0792

> <b_lp_Chiralities_Consistent>
1

> <s_lp_Variant>
AV-unprocessed.smi:2014-1

> <Gold.Version>
5.8.1

> <Gold.Id.Protein>
6NUR|6NUR_protein|mol2

> <Gold.PLP.Fitness>
47.9404

> <Gold.PLP.PLP>
-36.9406

> <Gold.PLP.part.hbond>
-4.7792

> <Gold.PLP.part.metal>
0.0000

> <Gold.PLP.part.buried>
-5.6409

> <Gold.PLP.part.nonpolar>
-27.1455

> <Gold.PLP.part.repulsive>
0.1878

> <Gold.PLP.ligand.clash>
0.0000

> <Gold.PLP.ligand.torsion>
0.3528

> <Gold.PLP.Chemscore.Hbond>
3.8320

> <Gold.PLP.Chemscore.CHOScore>
0.0000

> <Gold.PLP.Chemscore.Metal>
0.0000

> <Gold.Chemscore.Hbonds>
donor molecule, donor type, donor heavy atom, donor atom, acceptor molecule, acceptor atom, score
      P1  H  6934  6947       L1    15  1.00
      P1  H  7997  8008       L1     8  0.71
      P1  H 10752 10763       L1    22  1.00

> <Gold.PLP.Chemscore.Internal.Correction>
0.2093

> <Gold.Rescore>
     Score         DG    S(hbond)    S(metal)    S(lipo)     H(rot)  DE(clash)    DE(int)     intcor
     17.80     -21.07       2.90        0.00      87.58       1.70       0.00       3.27       ----

> <Gold.Chemscore.Fitness>
17.7956

> <Gold.Chemscore.DG>
-21.0652

> <Gold.Chemscore.ZeroCoef>
-5.4800

> <Gold.Chemscore.Hbond>
2.9041

> <Gold.Chemscore.Metal>
0.0000

> <Gold.Chemscore.Lipo>
87.5836

> <Gold.Chemscore.Internal_Hbond>
0.0000

> <Gold.Chemscore.DEClash>
0.0000

> <Gold.Chemscore.DEInternal>
3.2696

> <Gold.Chemscore.Rot>
1.7038

> <Gold.Chemscore.Internal.Correction>
   9.000000E+99

> <Gold.Chemscore.Hbonds>
donor molecule, donor type, donor heavy atom, donor atom, acceptor molecule, acceptor atom, score
      P1  H  6934  6947       L1    15  0.88
      P1  H  7997  8008       L1     8  0.66
      P1  H 10752 10763       L1    22  0.95

> <Gold.Chemscore.Hbond.Weighted>
-9.6997

> <Gold.Chemscore.Metal.Weighted>
-0.0000

> <Gold.Chemscore.Lipo.Weighted>
-10.2473

> <Gold.Chemscore.Internal_Hbond.Weighted>
0.0000

> <Gold.Chemscore.DEClash.Weighted>
0.0000

> <Gold.Chemscore.DEInternal.Weighted>
3.2696

> <Gold.Chemscore.Rot.Weighted>
4.3618

> <Gold.Chemscore.Internal.Correction.Weighted>
   9.000000E+99

> <Gold.Protein.RotatedTorsions>
[ 6907 6896 6895 6894 ] final  107.61 input  -60.11 | X-H torsion
[ 7974 7965 7964 7962 ] final   81.76 input  175.53 | X-H torsion
[ 8008 7997 7996 7995 ] final  -57.68 input   59.86 | X-H torsion
[ 10167 10162 10161 10158 ] final   94.33 input  -65.29 | X-H torsion
[ 10718 10713 10712 10709 ] final  146.01 input   66.30 | X-H torsion
[ 10763 10752 10751 10750 ] final   76.12 input  -60.55 | X-H torsion
[ 11005 11000 10999 10996 ] final  167.00 input  -57.11 | X-H torsion

> <Gold.Protein.ActiveResidues>
 VAL166  LYS551  ARG553  GLY616  TRP617  ASP618  TYR619  PRO620  LYS621  CYS622 
 ASP623  PHE694  ASN695  SER759  ASP760  ASP761  ALA762  ILE779  LEU786  VAL792 
 PHE793  MET794  SER795  GLU796  ALA797  LYS798  CYS799  TRP800  GLU811  SER814 

> <Gold.Protein.RotatedAtoms>
  152.5147  133.9209  159.7533 H   0  0  0  0  0  0  0  0  0  0  0  0  # atno 6907 bound_to 6896
  150.9581  133.6467  159.2766 H   0  0  0  0  0  0  0  0  0  0  0  0  # atno 6908 bound_to 6896
  151.3722  135.0930  159.9522 H   0  0  0  0  0  0  0  0  0  0  0  0  # atno 6909 bound_to 6896
  145.6340  139.2411  143.2068 H   0  0  0  0  0  0  0  0  0  0  0  0  # atno 7974 bound_to 7965
  154.4278  140.1101  156.5837 H   0  0  0  0  0  0  0  0  0  0  0  0  # atno 8008 bound_to 7997
  155.6085  140.3494  155.4596 H   0  0  0  0  0  0  0  0  0  0  0  0  # atno 8009 bound_to 7997
  156.0117  140.1220  157.0436 H   0  0  0  0  0  0  0  0  0  0  0  0  # atno 8010 bound_to 7997
  139.8094  144.6780  150.9661 H   0  0  0  0  0  0  0  0  0  0  0  0  # atno 10167 bound_to 10162
  157.3384  131.0932  151.1103 H   0  0  0  0  0  0  0  0  0  0  0  0  # atno 10718 bound_to 10713
  153.0703  135.4963  154.8290 H   0  0  0  0  0  0  0  0  0  0  0  0  # atno 10763 bound_to 10752
  154.7013  135.3002  154.9339 H   0  0  0  0  0  0  0  0  0  0  0  0  # atno 10764 bound_to 10752
  154.0062  135.6760  153.4815 H   0  0  0  0  0  0  0  0  0  0  0  0  # atno 10765 bound_to 10752
  140.2722  134.7817  157.3685 H   0  0  0  0  0  0  0  0  0  0  0  0  # atno 11005 bound_to 11000
  146.1334  140.7155  142.9401 LP  0  0  0  0  0  0  0  0  0  0  0  0  # atno 17320 bound_to 7965
  144.7183  140.4285  143.7028 LP  0  0  0  0  0  0  0  0  0  0  0  0  # atno 17321 bound_to 7965
  140.7818  143.4201  151.0855 LP  0  0  0  0  0  0  0  0  0  0  0  0  # atno 17342 bound_to 10162
  139.7868  143.8275  152.3146 LP  0  0  0  0  0  0  0  0  0  0  0  0  # atno 17343 bound_to 10162
  157.2325  130.6531  149.5855 LP  0  0  0  0  0  0  0  0  0  0  0  0  # atno 17370 bound_to 10713
  155.9704  130.4594  150.6035 LP  0  0  0  0  0  0  0  0  0  0  0  0  # atno 17371 bound_to 10713
  140.1362  134.5031  155.8067 LP  0  0  0  0  0  0  0  0  0  0  0  0  # atno 17394 bound_to 11000
  141.2175  133.6808  156.7128 LP  0  0  0  0  0  0  0  0  0  0  0  0  # atno 17395 bound_to 11000

$$$$
