AV-unprocessed.smi:1958|AV-procd|sdf|7911|dock6
  -GOLD-   2272010 73D 1   1.00000     0.00000
 Structure written by MMmdl.
 47 48  0  0  0  0  0  0  0  0  3 V2000
  152.4909  142.8493  160.4514 C   0  0  0  0  0  0  0  0  0  0  0  0
  152.0692  142.6095  159.1203 O   0  0  0  0  0  0  0  0  0  0  0  0
  152.1037  141.2338  158.7798 C   0  0  0  0  0  0  0  0  0  0  0  0
  151.3840  141.0358  157.4373 C   0  0  0  0  0  0  0  0  0  0  0  0
  151.3433  139.6219  157.0506 N   0  0  0  0  0  0  0  0  0  0  0  0
  150.6219  138.8209  157.9192 N   0  0  0  0  0  0  0  0  0  0  0  0
  150.5073  137.5506  157.6975 C   0  0  0  0  0  0  0  0  0  0  0  0
  149.7415  136.6642  158.6303 C   0  0  0  0  0  0  0  0  0  0  0  0
  149.4435  137.1517  159.7287 O   0  0  0  0  0  0  0  0  0  0  0  0
  149.4246  135.4043  158.2022 N   0  5  0  0  0  0  0  0  0  0  0  0
  148.1022  134.7838  158.2963 C   0  0  0  0  0  0  0  0  0  0  0  0
  147.1235  135.6838  159.1006 C   0  0  1  0  0  0  0  0  0  0  0  0
  145.6459  135.5810  158.6446 C   0  0  0  0  0  0  0  0  0  0  0  0
  147.2950  135.4680  160.5711 N   0  3  0  0  0  0  0  0  0  0  0  0
  146.7540  136.5758  161.3978 C   0  0  0  0  0  0  0  0  0  0  0  0
  147.1258  136.3703  162.8760 C   0  0  0  0  0  0  0  0  0  0  0  0
  146.6515  135.1063  163.3231 O   0  0  0  0  0  0  0  0  0  0  0  0
  147.2291  134.0313  162.5922 C   0  0  0  0  0  0  0  0  0  0  0  0
  146.8410  134.1552  161.1103 C   0  0  0  0  0  0  0  0  0  0  0  0
  151.1320  136.9465  156.5286 C   0  0  0  0  0  0  0  0  0  0  0  0
  151.8278  137.7420  155.6872 C   0  0  0  0  0  0  0  0  0  0  0  0
  151.9686  139.1799  155.9190 C   0  0  0  0  0  0  0  0  0  0  0  0
  152.5914  139.9255  155.1631 O   0  0  0  0  0  0  0  0  0  0  0  0
  152.4524  143.9182  160.6610 H   0  0  0  0  0  0  0  0  0  0  0  0
  153.5163  142.5121  160.6074 H   0  0  0  0  0  0  0  0  0  0  0  0
  151.8424  142.3427  161.1673 H   0  0  0  0  0  0  0  0  0  0  0  0
  153.1379  140.8939  158.7049 H   0  0  0  0  0  0  0  0  0  0  0  0
  151.6192  140.6464  159.5616 H   0  0  0  0  0  0  0  0  0  0  0  0
  150.3733  141.4442  157.4905 H   0  0  0  0  0  0  0  0  0  0  0  0
  151.8913  141.6176  156.6653 H   0  0  0  0  0  0  0  0  0  0  0  0
  147.6821  134.5972  157.3078 H   0  0  0  0  0  0  0  0  0  0  0  0
  148.1527  133.8028  158.7716 H   0  0  0  0  0  0  0  0  0  0  0  0
  147.4371  136.7107  158.9053 H   0  0  0  0  0  0  0  0  0  0  0  0
  145.5183  135.8978  157.6079 H   0  0  0  0  0  0  0  0  0  0  0  0
  145.0081  136.2295  159.2451 H   0  0  0  0  0  0  0  0  0  0  0  0
  145.2491  134.5672  158.7235 H   0  0  0  0  0  0  0  0  0  0  0  0
  147.1559  137.5311  161.0575 H   0  0  0  0  0  0  0  0  0  0  0  0
  145.6701  136.6244  161.2853 H   0  0  0  0  0  0  0  0  0  0  0  0
  148.2057  136.4365  163.0179 H   0  0  0  0  0  0  0  0  0  0  0  0
  146.6767  137.1524  163.4880 H   0  0  0  0  0  0  0  0  0  0  0  0
  148.3135  134.0297  162.7144 H   0  0  0  0  0  0  0  0  0  0  0  0
  146.8607  133.0897  162.9997 H   0  0  0  0  0  0  0  0  0  0  0  0
  145.7586  134.0611  161.0155 H   0  0  0  0  0  0  0  0  0  0  0  0
  147.2853  133.3330  160.5488 H   0  0  0  0  0  0  0  0  0  0  0  0
  151.0482  135.8890  156.3253 H   0  0  0  0  0  0  0  0  0  0  0  0
  152.2950  137.3054  154.8170 H   0  0  0  0  0  0  0  0  0  0  0  0
  148.2946  135.4970  160.7148 H   0  0  0  0  0  0  0  0  0  0  0  0
  1  2  1  0  0  0  0
  1 24  1  0  0  0  0
  1 25  1  0  0  0  0
  1 26  1  0  0  0  0
  2  3  1  0  0  0  0
  3  4  1  0  0  0  0
  3 27  1  0  0  0  0
  3 28  1  0  0  0  0
  4  5  1  0  0  0  0
  4 29  1  0  0  0  0
  4 30  1  0  0  0  0
  5 22  1  0  0  0  0
  5  6  1  0  0  0  0
  6  7  2  0  0  0  0
  7  8  1  0  0  0  0
  7 20  1  0  0  0  0
  8  9  2  0  0  0  0
  8 10  1  0  0  0  0
 10 11  1  0  0  0  0
 11 12  1  0  0  0  0
 11 31  1  0  0  0  0
 11 32  1  0  0  0  0
 12 13  1  0  0  0  0
 12 14  1  0  0  0  0
 12 33  1  0  0  0  0
 13 34  1  0  0  0  0
 13 35  1  0  0  0  0
 13 36  1  0  0  0  0
 14 19  1  0  0  0  0
 14 15  1  0  0  0  0
 14 47  1  0  0  0  0
 15 16  1  0  0  0  0
 15 37  1  0  0  0  0
 15 38  1  0  0  0  0
 16 17  1  0  0  0  0
 16 39  1  0  0  0  0
 16 40  1  0  0  0  0
 17 18  1  0  0  0  0
 18 19  1  0  0  0  0
 18 41  1  0  0  0  0
 18 42  1  0  0  0  0
 19 43  1  0  0  0  0
 19 44  1  0  0  0  0
 20 21  2  0  0  0  0
 20 45  1  0  0  0  0
 21 22  1  0  0  0  0
 21 46  1  0  0  0  0
 22 23  2  0  0  0  0
M  CHG  1  10  -1
M  CHG  1  14   1
M  END
> <s_m_source_file>
AV-unprocessed.smi

> <i_m_source_file_index>
1958

> <i_lp_mmshare_version>
43012

> <i_f3d_flags>
0

> <s_epik_input>
W0NIM11PW0NIMl1bQ0gyXW4xbmMoW2NIXVtjSF1jMT1PKUMoPU8pW05IXVtDSDJdW0NASF0oW0NIM10pTjJbQ0gyXVtDSDJdT1tDSDJdW0NIMl0y

> <s_epik_cmdline>
J2VwaWtfcHl0aG9uJywgJy1waCcsICc3LjAnLCAnLXRuJywgJzgnLCAnLW1hJywgJzIwMCcsICctbWV0YWxfYmluZGluZycsICctaW1hZScsICc8aW5maWxlLm1hZT4nLCAnLW9tYWUnLCAnPG91dGZpbGUubWFlPic=

> <r_lp_tautomer_probability>
1

> <r_epik_Ionization_Penalty>
6.89388

> <r_epik_Ionization_Penalty_Charging>
6.89388

> <r_epik_Ionization_Penalty_Neutral>
1.08445e-11

> <r_epik_State_Penalty>
7.53214

> <r_epik_Charging_Adjusted_Penalty>
14.426

> <i_epik_Tot_Q>
0

> <i_epik_Tot_abs_Q>
2

> <r_epik_Metal_State_Penalty>
3.44743

> <b_epik_Metal_Only>
1

> <s_lp_Force_Field>
OPLS_2005

> <r_lp_Energy>
43.2643

> <b_lp_Chiralities_Consistent>
1

> <s_lp_Variant>
AV-unprocessed.smi:1958-6

> <Gold.Version>
5.8.1

> <Gold.Id.Protein>
6NUR|6NUR_protein|mol2

> <Gold.PLP.Fitness>
44.1810

> <Gold.PLP.PLP>
-36.0183

> <Gold.PLP.part.hbond>
-4.9933

> <Gold.PLP.part.metal>
0.0000

> <Gold.PLP.part.buried>
-5.6231

> <Gold.PLP.part.nonpolar>
-25.9570

> <Gold.PLP.part.repulsive>
0.1378

> <Gold.PLP.ligand.clash>
0.0000

> <Gold.PLP.ligand.torsion>
1.0183

> <Gold.PLP.Chemscore.Hbond>
3.3129

> <Gold.PLP.Chemscore.CHOScore>
0.0000

> <Gold.PLP.Chemscore.Metal>
0.0000

> <Gold.Chemscore.Hbonds>
donor molecule, donor type, donor heavy atom, donor atom, acceptor molecule, acceptor atom, score
      P1  H  6896  6907       L1    10  1.81
      P1  H  7989  7998       L1    23  0.45
      P1  H  7997  8009       L1    23  1.00

> <Gold.PLP.Chemscore.Internal.Correction>
0.2609

> <Gold.Rescore>
     Score         DG    S(hbond)    S(metal)    S(lipo)     H(rot)  DE(clash)    DE(int)     intcor
     10.39     -13.06       1.21        0.00      75.33       2.07       0.04       2.63       ----

> <Gold.Chemscore.Fitness>
10.3918

> <Gold.Chemscore.DG>
-13.0584

> <Gold.Chemscore.ZeroCoef>
-5.4800

> <Gold.Chemscore.Hbond>
1.2149

> <Gold.Chemscore.Metal>
0.0000

> <Gold.Chemscore.Lipo>
75.3261

> <Gold.Chemscore.Internal_Hbond>
0.0000

> <Gold.Chemscore.DEClash>
0.0408

> <Gold.Chemscore.DEInternal>
2.6258

> <Gold.Chemscore.Rot>
2.0673

> <Gold.Chemscore.Internal.Correction>
   9.000000E+99

> <Gold.Chemscore.Hbonds>
donor molecule, donor type, donor heavy atom, donor atom, acceptor molecule, acceptor atom, score
      P1  H  6896  6907       L1    10  0.14
      P1  H  6931  6943       L1     9  0.02
      P1  H  7989  7998       L1    23  0.44
      P1  H  7997  8009       L1    23  0.62

> <Gold.Chemscore.Hbond.Weighted>
-4.0576

> <Gold.Chemscore.Metal.Weighted>
-0.0000

> <Gold.Chemscore.Lipo.Weighted>
-8.8131

> <Gold.Chemscore.Internal_Hbond.Weighted>
0.0000

> <Gold.Chemscore.DEClash.Weighted>
0.0408

> <Gold.Chemscore.DEInternal.Weighted>
2.6258

> <Gold.Chemscore.Rot.Weighted>
5.2923

> <Gold.Chemscore.Internal.Correction.Weighted>
   9.000000E+99

> <Gold.Protein.RotatedTorsions>
[ 6907 6896 6895 6894 ] final  -93.24 input  -60.11 | X-H torsion
[ 7974 7965 7964 7962 ] final -159.74 input  175.53 | X-H torsion
[ 8008 7997 7996 7995 ] final -137.98 input   59.86 | X-H torsion
[ 10167 10162 10161 10158 ] final -135.17 input  -65.29 | X-H torsion
[ 10718 10713 10712 10709 ] final   70.39 input   66.30 | X-H torsion
[ 10763 10752 10751 10750 ] final  142.92 input  -60.55 | X-H torsion
[ 11005 11000 10999 10996 ] final  126.28 input  -57.11 | X-H torsion

> <Gold.Protein.ActiveResidues>
 VAL166  LYS551  ARG553  GLY616  TRP617  ASP618  TYR619  PRO620  LYS621  CYS622 
 ASP623  PHE694  ASN695  SER759  ASP760  ASP761  ALA762  ILE779  LEU786  VAL792 
 PHE793  MET794  SER795  GLU796  ALA797  LYS798  CYS799  TRP800  GLU811  SER814 

> <Gold.Protein.RotatedAtoms>
  150.6919  134.1998  159.4317 H   0  0  0  0  0  0  0  0  0  0  0  0  # atno 6907 bound_to 6896
  151.9965  134.9949  160.0573 H   0  0  0  0  0  0  0  0  0  0  0  0  # atno 6908 bound_to 6896
  152.1619  133.4552  159.4902 H   0  0  0  0  0  0  0  0  0  0  0  0  # atno 6909 bound_to 6896
  144.7453  140.3642  143.6089 H   0  0  0  0  0  0  0  0  0  0  0  0  # atno 7974 bound_to 7965
  155.4207  140.0518  157.3026 H   0  0  0  0  0  0  0  0  0  0  0  0  # atno 8008 bound_to 7997
  154.4904  140.2117  155.9520 H   0  0  0  0  0  0  0  0  0  0  0  0  # atno 8009 bound_to 7997
  156.1334  140.3167  155.8388 H   0  0  0  0  0  0  0  0  0  0  0  0  # atno 8010 bound_to 7997
  139.8806  143.6844  152.2627 H   0  0  0  0  0  0  0  0  0  0  0  0  # atno 10167 bound_to 10162
  157.6397  130.9475  150.0645 H   0  0  0  0  0  0  0  0  0  0  0  0  # atno 10718 bound_to 10713
  153.9638  135.2957  155.3432 H   0  0  0  0  0  0  0  0  0  0  0  0  # atno 10763 bound_to 10752
  154.7360  135.5046  153.9045 H   0  0  0  0  0  0  0  0  0  0  0  0  # atno 10764 bound_to 10752
  153.0933  135.6714  153.9922 H   0  0  0  0  0  0  0  0  0  0  0  0  # atno 10765 bound_to 10752
  139.9448  134.9631  156.8683 H   0  0  0  0  0  0  0  0  0  0  0  0  # atno 11005 bound_to 11000
  145.7145  139.1693  143.2519 LP  0  0  0  0  0  0  0  0  0  0  0  0  # atno 17320 bound_to 7965
  146.1322  140.7170  142.9406 LP  0  0  0  0  0  0  0  0  0  0  0  0  # atno 17321 bound_to 7965
  139.7200  144.7604  151.0971 LP  0  0  0  0  0  0  0  0  0  0  0  0  # atno 17342 bound_to 10162
  140.7745  143.5220  150.9525 LP  0  0  0  0  0  0  0  0  0  0  0  0  # atno 17343 bound_to 10162
  156.1667  130.3645  149.9222 LP  0  0  0  0  0  0  0  0  0  0  0  0  # atno 17370 bound_to 10713
  156.7207  130.9006  151.3618 LP  0  0  0  0  0  0  0  0  0  0  0  0  # atno 17371 bound_to 10713
  140.5862  134.0305  155.7482 LP  0  0  0  0  0  0  0  0  0  0  0  0  # atno 17394 bound_to 11000
  141.1095  133.9640  157.2936 LP  0  0  0  0  0  0  0  0  0  0  0  0  # atno 17395 bound_to 11000

$$$$
