AV-unprocessed.smi:1876|AV-procd|sdf|7620|dock9
  -GOLD-   22720 9343D 1   1.00000     0.00000
 Structure written by MMmdl.
 31 32  0  0  0  0  0  0  0  0  1 V2000
  153.6302  142.2482  160.9689 C   0  0  0  0  0  0  0  0  0  0  0  0
  152.8024  142.7260  159.8253 C   0  0  0  0  0  0  0  0  0  0  0  0
  151.8912  142.1105  159.0137 C   0  0  0  0  0  0  0  0  0  0  0  0
  151.4891  143.1523  158.1358 C   0  0  0  0  0  0  0  0  0  0  0  0
  150.5292  142.9178  157.1179 N   0  0  0  0  0  0  0  0  0  0  0  0
  150.3536  141.7940  156.4015 C   0  0  0  0  0  0  0  0  0  0  0  0
  151.0123  140.7616  156.5306 O   0  0  0  0  0  0  0  0  0  0  0  0
  149.3559  141.9311  155.5143 N   0  0  0  0  0  0  0  0  0  0  0  0
  148.8826  140.8895  154.6012 C   0  0  2  0  0  0  0  0  0  0  0  0
  147.7183  141.4742  153.7780 C   0  0  0  0  0  0  0  0  0  0  0  0
  147.0878  140.3904  152.8994 C   0  0  0  0  0  0  0  0  0  0  0  0
  146.5225  139.2594  153.7709 C   0  0  0  0  0  0  0  0  0  0  0  0
  147.3835  138.9153  154.9027 N   0  0  0  0  0  0  0  0  0  0  0  0
  148.4054  139.6444  155.3878 C   0  0  0  0  0  0  0  0  0  0  0  0
  148.9861  139.3014  156.4166 O   0  0  0  0  0  0  0  0  0  0  0  0
  152.0980  144.3005  158.3906 N   0  0  0  0  0  0  0  0  0  0  0  0
  152.9427  144.0331  159.4745 O   0  0  0  0  0  0  0  0  0  0  0  0
  153.4599  141.1882  161.1579 H   0  0  0  0  0  0  0  0  0  0  0  0
  153.3863  142.7970  161.8787 H   0  0  0  0  0  0  0  0  0  0  0  0
  154.6913  142.3885  160.7624 H   0  0  0  0  0  0  0  0  0  0  0  0
  151.5679  141.0806  159.0448 H   0  0  0  0  0  0  0  0  0  0  0  0
  149.9100  143.6879  156.9140 H   0  0  0  0  0  0  0  0  0  0  0  0
  148.8684  142.8142  155.4823 H   0  0  0  0  0  0  0  0  0  0  0  0
  149.6811  140.5799  153.9247 H   0  0  0  0  0  0  0  0  0  0  0  0
  146.9588  141.9034  154.4342 H   0  0  0  0  0  0  0  0  0  0  0  0
  148.0813  142.2887  153.1499 H   0  0  0  0  0  0  0  0  0  0  0  0
  146.3011  140.8117  152.2729 H   0  0  0  0  0  0  0  0  0  0  0  0
  147.8433  139.9901  152.2222 H   0  0  0  0  0  0  0  0  0  0  0  0
  145.5568  139.5625  154.1768 H   0  0  0  0  0  0  0  0  0  0  0  0
  146.3422  138.3689  153.1683 H   0  0  0  0  0  0  0  0  0  0  0  0
  147.1321  138.0828  155.4159 H   0  0  0  0  0  0  0  0  0  0  0  0
  1  2  1  0  0  0  0
  1 18  1  0  0  0  0
  1 19  1  0  0  0  0
  1 20  1  0  0  0  0
  2 17  1  0  0  0  0
  2  3  2  0  0  0  0
  3  4  1  0  0  0  0
  3 21  1  0  0  0  0
  4  5  1  0  0  0  0
  4 16  2  0  0  0  0
  5  6  1  0  0  0  0
  5 22  1  0  0  0  0
  6  7  2  0  0  0  0
  6  8  1  0  0  0  0
  8  9  1  0  0  0  0
  8 23  1  0  0  0  0
  9 14  1  0  0  0  0
  9 10  1  0  0  0  0
  9 24  1  0  0  0  0
 10 11  1  0  0  0  0
 10 25  1  0  0  0  0
 10 26  1  0  0  0  0
 11 12  1  0  0  0  0
 11 27  1  0  0  0  0
 11 28  1  0  0  0  0
 12 13  1  0  0  0  0
 12 29  1  0  0  0  0
 12 30  1  0  0  0  0
 13 14  1  0  0  0  0
 13 31  1  0  0  0  0
 14 15  2  0  0  0  0
 16 17  1  0  0  0  0
M  END
> <s_m_source_file>
AV-unprocessed.smi

> <i_m_source_file_index>
1876

> <i_lp_mmshare_version>
43012

> <i_f3d_flags>
0

> <s_epik_input>
W0NIM11jMVtjSF1jKG5vMSlbTkhdQyg9TylbTkhdW0NAQEhdMltDSDJdW0NIMl1bQ0gyXVtOSF1DMj1P

> <s_epik_cmdline>
J2VwaWtfcHl0aG9uJywgJy1waCcsICc3LjAnLCAnLXRuJywgJzgnLCAnLW1hJywgJzIwMCcsICctbWV0YWxfYmluZGluZycsICctaW1hZScsICc8aW5maWxlLm1hZT4nLCAnLW9tYWUnLCAnPG91dGZpbGUubWFlPic=

> <r_lp_tautomer_probability>
1

> <r_epik_Ionization_Penalty>
2.33177e-05

> <r_epik_Ionization_Penalty_Charging>
0

> <r_epik_Ionization_Penalty_Neutral>
2.33177e-05

> <r_epik_State_Penalty>
-0

> <r_epik_Charging_Adjusted_Penalty>
0

> <i_epik_Tot_Q>
0

> <i_epik_Tot_abs_Q>
0

> <r_epik_Metal_State_Penalty>
-0

> <b_epik_Metal_Only>
0

> <s_lp_Force_Field>
OPLS_2005

> <r_lp_Energy>
8.43972

> <b_lp_Chiralities_Consistent>
1

> <s_lp_Variant>
AV-unprocessed.smi:1876-1

> <Gold.Version>
5.8.1

> <Gold.Id.Protein>
6NUR|6NUR_protein|mol2

> <Gold.PLP.Fitness>
34.1913

> <Gold.PLP.PLP>
-28.6988

> <Gold.PLP.part.hbond>
-2.0000

> <Gold.PLP.part.metal>
0.0000

> <Gold.PLP.part.buried>
-4.8680

> <Gold.PLP.part.nonpolar>
-22.1288

> <Gold.PLP.part.repulsive>
0.2403

> <Gold.PLP.ligand.clash>
0.0000

> <Gold.PLP.ligand.torsion>
0.2419

> <Gold.PLP.Chemscore.Hbond>
1.9920

> <Gold.PLP.Chemscore.CHOScore>
0.0000

> <Gold.PLP.Chemscore.Metal>
0.0000

> <Gold.Chemscore.Hbonds>
donor molecule, donor type, donor heavy atom, donor atom, acceptor molecule, acceptor atom, score
      L1  H     5    22       P1  8028  1.00
      L1  H     8    23       P1  8028  1.00

> <Gold.PLP.Chemscore.Internal.Correction>
0.0003

> <Gold.Rescore>
     Score         DG    S(hbond)    S(metal)    S(lipo)     H(rot)  DE(clash)    DE(int)     intcor
     12.06     -16.48       1.95        0.00      60.39       1.00       0.07       4.36       ----

> <Gold.Chemscore.Fitness>
12.0555

> <Gold.Chemscore.DG>
-16.4840

> <Gold.Chemscore.ZeroCoef>
-5.4800

> <Gold.Chemscore.Hbond>
1.9458

> <Gold.Chemscore.Metal>
0.0000

> <Gold.Chemscore.Lipo>
60.3852

> <Gold.Chemscore.Internal_Hbond>
0.0000

> <Gold.Chemscore.DEClash>
0.0672

> <Gold.Chemscore.DEInternal>
4.3612

> <Gold.Chemscore.Rot>
1.0000

> <Gold.Chemscore.Internal.Correction>
   9.000000E+99

> <Gold.Chemscore.Hbonds>
donor molecule, donor type, donor heavy atom, donor atom, acceptor molecule, acceptor atom, score
      L1  H     5    22       P1  8028  0.94
      L1  H     8    23       P1  8028  0.95

> <Gold.Chemscore.Hbond.Weighted>
-6.4989

> <Gold.Chemscore.Metal.Weighted>
-0.0000

> <Gold.Chemscore.Lipo.Weighted>
-7.0651

> <Gold.Chemscore.Internal_Hbond.Weighted>
0.0000

> <Gold.Chemscore.DEClash.Weighted>
0.0672

> <Gold.Chemscore.DEInternal.Weighted>
4.3612

> <Gold.Chemscore.Rot.Weighted>
2.5600

> <Gold.Chemscore.Internal.Correction.Weighted>
   9.000000E+99

> <Gold.Protein.RotatedTorsions>
[ 6907 6896 6895 6894 ] final  156.50 input  -60.11 | X-H torsion
[ 7974 7965 7964 7962 ] final  112.59 input  175.53 | X-H torsion
[ 8008 7997 7996 7995 ] final -151.17 input   59.86 | X-H torsion
[ 10167 10162 10161 10158 ] final   75.60 input  -65.29 | X-H torsion
[ 10718 10713 10712 10709 ] final  -97.19 input   66.30 | X-H torsion
[ 10763 10752 10751 10750 ] final -139.70 input  -60.55 | X-H torsion
[ 11005 11000 10999 10996 ] final  -70.17 input  -57.11 | X-H torsion

> <Gold.Protein.ActiveResidues>
 VAL166  LYS551  ARG553  GLY616  TRP617  ASP618  TYR619  PRO620  LYS621  CYS622 
 ASP623  PHE694  ASN695  SER759  ASP760  ASP761  ALA762  ILE779  LEU786  VAL792 
 PHE793  MET794  SER795  GLU796  ALA797  LYS798  CYS799  TRP800  GLU811  SER814 

> <Gold.Protein.RotatedAtoms>
  152.0288  133.3929  159.4288 H   0  0  0  0  0  0  0  0  0  0  0  0  # atno 6907 bound_to 6896
  150.6884  134.3544  159.4932 H   0  0  0  0  0  0  0  0  0  0  0  0  # atno 6908 bound_to 6896
  152.1327  134.9122  160.0608 H   0  0  0  0  0  0  0  0  0  0  0  0  # atno 6909 bound_to 6896
  145.2276  139.2834  143.4185 H   0  0  0  0  0  0  0  0  0  0  0  0  # atno 7974 bound_to 7965
  155.6352  140.0696  157.2636 H   0  0  0  0  0  0  0  0  0  0  0  0  # atno 8008 bound_to 7997
  154.4196  140.1760  156.1564 H   0  0  0  0  0  0  0  0  0  0  0  0  # atno 8009 bound_to 7997
  155.9900  140.3346  155.6747 H   0  0  0  0  0  0  0  0  0  0  0  0  # atno 8010 bound_to 7997
  140.0013  144.5684  150.7735 H   0  0  0  0  0  0  0  0  0  0  0  0  # atno 10167 bound_to 10162
  156.0078  130.5183  150.6337 H   0  0  0  0  0  0  0  0  0  0  0  0  # atno 10718 bound_to 10713
  154.8601  135.3575  154.5588 H   0  0  0  0  0  0  0  0  0  0  0  0  # atno 10763 bound_to 10752
  153.6204  135.7006  153.5317 H   0  0  0  0  0  0  0  0  0  0  0  0  # atno 10764 bound_to 10752
  153.3134  135.4172  155.1315 H   0  0  0  0  0  0  0  0  0  0  0  0  # atno 10765 bound_to 10752
  141.1569  133.6783  156.6711 H   0  0  0  0  0  0  0  0  0  0  0  0  # atno 11005 bound_to 11000
  146.3361  140.2601  142.8601 LP  0  0  0  0  0  0  0  0  0  0  0  0  # atno 17320 bound_to 7965
  144.9706  140.8365  143.5457 LP  0  0  0  0  0  0  0  0  0  0  0  0  # atno 17321 bound_to 7965
  140.7418  143.2823  151.3564 LP  0  0  0  0  0  0  0  0  0  0  0  0  # atno 17342 bound_to 10162
  139.6270  144.0795  152.2443 LP  0  0  0  0  0  0  0  0  0  0  0  0  # atno 17343 bound_to 10162
  157.4130  131.0826  151.1203 LP  0  0  0  0  0  0  0  0  0  0  0  0  # atno 17370 bound_to 10713
  157.1828  130.6317  149.5677 LP  0  0  0  0  0  0  0  0  0  0  0  0  # atno 17371 bound_to 10713
  140.3174  134.8036  157.4225 LP  0  0  0  0  0  0  0  0  0  0  0  0  # atno 17394 bound_to 11000
  140.1126  134.5325  155.8252 LP  0  0  0  0  0  0  0  0  0  0  0  0  # atno 17395 bound_to 11000

$$$$
