AV-unprocessed.smi:1|AV-procd|sdf|3|dock8
  -GOLD-   2262015 83D 1   1.00000     0.00000
 Structure written by MMmdl.
 57 62  0  0  0  0  0  0  0  0  1 V2000
  147.7941  131.8710  153.3268 O   0  0  0  0  0  0  0  0  0  0  0  0
  146.8105  132.5975  153.1816 C   0  0  0  0  0  0  0  0  0  0  0  0
  146.4591  133.6253  154.1453 N   0  0  0  0  0  0  0  0  0  0  0  0
  147.0485  133.8930  155.3340 C   0  0  0  0  0  0  0  0  0  0  0  0
  147.2623  132.9348  156.2735 N   0  0  0  0  0  0  0  0  0  0  0  0
  147.8437  133.2496  157.4342 C   0  0  0  0  0  0  0  0  0  0  0  0
  148.2768  134.4399  157.8526 N   0  0  0  0  0  0  0  0  0  0  0  0
  148.0614  135.4115  156.9176 C   0  0  0  0  0  0  0  0  0  0  0  0
  147.4568  135.2163  155.6443 C   0  0  0  0  0  0  0  0  0  0  0  0
  147.3986  136.4232  154.9602 N   0  0  0  0  0  0  0  0  0  0  0  0
  147.9309  137.2814  155.7879 C   0  0  0  0  0  0  0  0  0  0  0  0
  148.3498  136.7614  156.9924 N   0  0  0  0  0  0  0  0  0  0  0  0
  148.9700  137.5079  158.1330 C   0  0  2  0  0  0  0  0  0  0  0  0
  149.0752  138.8513  157.7737 O   0  0  0  0  0  0  0  0  0  0  0  0
  150.3268  139.3769  158.1924 C   0  0  2  0  0  0  0  0  0  0  0  0
  150.7346  140.5726  157.3236 C   0  0  0  0  0  0  0  0  0  0  0  0
  151.3490  141.5536  158.1424 O   0  0  0  0  0  0  0  0  0  0  0  0
  152.4716  141.2558  158.8248 C   0  0  0  0  0  0  0  0  0  0  0  0
  153.2767  140.3918  158.4710 O   0  0  0  0  0  0  0  0  0  0  0  0
  152.6380  142.0812  160.0558 C   0  0  0  0  0  0  0  0  0  0  0  0
  153.4004  141.5731  161.1335 C   0  0  0  0  0  0  0  0  0  0  0  0
  153.5743  142.3292  162.3088 C   0  0  0  0  0  0  0  0  0  0  0  0
  152.9874  143.6028  162.4214 C   0  0  0  0  0  0  0  0  0  0  0  0
  152.2273  144.1200  161.3563 C   0  0  0  0  0  0  0  0  0  0  0  0
  152.0526  143.3656  160.1798 C   0  0  0  0  0  0  0  0  0  0  0  0
  151.2773  138.1844  158.1108 C   0  0  2  0  0  0  0  0  0  0  0  0
  151.7763  137.9836  156.7998 O   0  0  0  0  0  0  0  0  0  0  0  0
  151.8727  136.3378  156.5417 S   0  0  0  0  0  0  0  0  0  0  0  0
  151.3270  136.0326  155.2108 O   0  0  0  0  0  0  0  0  0  0  0  0
  153.2060  135.8869  156.9693 O   0  0  0  0  0  0  0  0  0  0  0  0
  150.7691  135.8552  157.7004 O   0  0  0  0  0  0  0  0  0  0  0  0
  150.3845  136.9895  158.4687 C   0  0  2  0  0  0  0  0  0  0  0  0
  145.9571  132.5338  151.9487 C   0  0  0  0  0  0  0  0  0  0  0  0
  144.6165  132.9783  151.9931 C   0  0  0  0  0  0  0  0  0  0  0  0
  143.8123  132.9350  150.8375 C   0  0  0  0  0  0  0  0  0  0  0  0
  144.3444  132.4549  149.6261 C   0  0  0  0  0  0  0  0  0  0  0  0
  145.6826  132.0219  149.5698 C   0  0  0  0  0  0  0  0  0  0  0  0
  146.4876  132.0640  150.7249 C   0  0  0  0  0  0  0  0  0  0  0  0
  145.6718  134.2083  153.9016 H   0  0  0  0  0  0  0  0  0  0  0  0
  147.9795  132.4324  158.1270 H   0  0  0  0  0  0  0  0  0  0  0  0
  148.0239  138.3300  155.5455 H   0  0  0  0  0  0  0  0  0  0  0  0
  148.2656  137.3846  158.9566 H   0  0  0  0  0  0  0  0  0  0  0  0
  150.2374  139.6799  159.2371 H   0  0  0  0  0  0  0  0  0  0  0  0
  151.4460  140.2543  156.5608 H   0  0  0  0  0  0  0  0  0  0  0  0
  149.8640  140.9857  156.8119 H   0  0  0  0  0  0  0  0  0  0  0  0
  153.8598  140.5969  161.0706 H   0  0  0  0  0  0  0  0  0  0  0  0
  154.1587  141.9304  163.1249 H   0  0  0  0  0  0  0  0  0  0  0  0
  153.1200  144.1824  163.3231 H   0  0  0  0  0  0  0  0  0  0  0  0
  151.7767  145.0977  161.4409 H   0  0  0  0  0  0  0  0  0  0  0  0
  151.4636  143.7928  159.3814 H   0  0  0  0  0  0  0  0  0  0  0  0
  152.1223  138.2872  158.7926 H   0  0  0  0  0  0  0  0  0  0  0  0
  150.4326  136.7709  159.5357 H   0  0  0  0  0  0  0  0  0  0  0  0
  144.1935  133.3502  152.9155 H   0  0  0  0  0  0  0  0  0  0  0  0
  142.7868  133.2710  150.8815 H   0  0  0  0  0  0  0  0  0  0  0  0
  143.7278  132.4222  148.7400 H   0  0  0  0  0  0  0  0  0  0  0  0
  146.0939  131.6596  148.6391 H   0  0  0  0  0  0  0  0  0  0  0  0
  147.5146  131.7352  150.6575 H   0  0  0  0  0  0  0  0  0  0  0  0
  1  2  2  0  0  0  0
  2  3  1  0  0  0  0
  2 33  1  0  0  0  0
  3  4  1  0  0  0  0
  3 39  1  0  0  0  0
  4  9  1  0  0  0  0
  4  5  2  0  0  0  0
  5  6  1  0  0  0  0
  6  7  2  0  0  0  0
  6 40  1  0  0  0  0
  7  8  1  0  0  0  0
  8 12  1  0  0  0  0
  8  9  2  0  0  0  0
  9 10  1  0  0  0  0
 10 11  2  0  0  0  0
 11 12  1  0  0  0  0
 11 41  1  0  0  0  0
 12 13  1  0  0  0  0
 13 32  1  0  0  0  0
 13 14  1  0  0  0  0
 13 42  1  0  0  0  0
 14 15  1  0  0  0  0
 15 16  1  0  0  0  0
 15 26  1  0  0  0  0
 15 43  1  0  0  0  0
 16 17  1  0  0  0  0
 16 44  1  0  0  0  0
 16 45  1  0  0  0  0
 17 18  1  0  0  0  0
 18 19  2  0  0  0  0
 18 20  1  0  0  0  0
 20 25  1  0  0  0  0
 20 21  2  0  0  0  0
 21 22  1  0  0  0  0
 21 46  1  0  0  0  0
 22 23  2  0  0  0  0
 22 47  1  0  0  0  0
 23 24  1  0  0  0  0
 23 48  1  0  0  0  0
 24 25  2  0  0  0  0
 24 49  1  0  0  0  0
 25 50  1  0  0  0  0
 26 32  1  0  0  0  0
 26 27  1  0  0  0  0
 26 51  1  0  0  0  0
 27 28  1  0  0  0  0
 28 29  2  0  0  0  0
 28 30  2  0  0  0  0
 28 31  1  0  0  0  0
 31 32  1  0  0  0  0
 32 52  1  0  0  0  0
 33 38  1  0  0  0  0
 33 34  2  0  0  0  0
 34 35  1  0  0  0  0
 34 53  1  0  0  0  0
 35 36  2  0  0  0  0
 35 54  1  0  0  0  0
 36 37  1  0  0  0  0
 36 55  1  0  0  0  0
 37 38  2  0  0  0  0
 37 56  1  0  0  0  0
 38 57  1  0  0  0  0
M  END
> <s_m_source_file>
AV-unprocessed.smi

> <i_m_source_file_index>
1

> <i_lp_mmshare_version>
43012

> <i_f3d_flags>
0

> <s_epik_input>
W2NIXTFbY0hdW2NIXVtjSF1bY0hdYzFDKD1PKVtOSF1jKG5bY0hdbjIpYyhjMjMpbltjSF1uM1tDQEBIXShbQ0BIXShbQ0BIXTQ1KU9TKE81KSg9Tyk9TylPW0NASF00W0NIMl1PQyg9TyljNltjSF1bY0hdW2NIXVtjSF1bY0hdNg==

> <s_epik_cmdline>
J2VwaWtfcHl0aG9uJywgJy1waCcsICc3LjAnLCAnLXRuJywgJzgnLCAnLW1hJywgJzIwMCcsICctbWV0YWxfYmluZGluZycsICctaW1hZScsICc8aW5maWxlLm1hZT4nLCAnLW9tYWUnLCAnPG91dGZpbGUubWFlPic=

> <r_lp_tautomer_probability>
1

> <r_epik_Ionization_Penalty>
0.00195722

> <r_epik_Ionization_Penalty_Charging>
0

> <r_epik_Ionization_Penalty_Neutral>
0.00195722

> <r_epik_State_Penalty>
0.00633741

> <r_epik_Charging_Adjusted_Penalty>
0.00633741

> <i_epik_Tot_Q>
0

> <i_epik_Tot_abs_Q>
0

> <r_epik_Metal_State_Penalty>
0.341185

> <b_epik_Metal_Only>
0

> <s_epik_Chemistry_Notes>
This compound has an ester and may undergo hydrolysis at high or low pH. This compound contains an acetal/aminal-like group ( X-CH(R)-Y where X, Y are N, S, or O) that may be acid/base labile, releasing an aldehyde.

> <s_lp_Force_Field>
OPLS_2005

> <r_lp_Energy>
44.5828

> <b_lp_Chiralities_Consistent>
1

> <s_lp_Variant>
AV-unprocessed.smi:1-3

> <Gold.Version>
5.8.1

> <Gold.Id.Protein>
6NUR|6NUR_protein|mol2

> <Gold.PLP.Fitness>
55.4955

> <Gold.PLP.PLP>
-52.5707

> <Gold.PLP.part.hbond>
-4.0000

> <Gold.PLP.part.metal>
0.0000

> <Gold.PLP.part.buried>
-4.8617

> <Gold.PLP.part.nonpolar>
-42.8968

> <Gold.PLP.part.repulsive>
0.3142

> <Gold.PLP.ligand.clash>
0.0000

> <Gold.PLP.ligand.torsion>
1.9546

> <Gold.PLP.Chemscore.Hbond>
2.2111

> <Gold.PLP.Chemscore.CHOScore>
0.0000

> <Gold.PLP.Chemscore.Metal>
0.0000

> <Gold.Chemscore.Hbonds>
donor molecule, donor type, donor heavy atom, donor atom, acceptor molecule, acceptor atom, score
      P1  H  7997  8008       L1    19  0.85
      P1  H 10752 10764       L1    29  0.42
      P1  H 10752 10765       L1    30  0.94

> <Gold.PLP.Chemscore.Internal.Correction>
0.2007

> <Gold.Rescore>
     Score         DG    S(hbond)    S(metal)    S(lipo)     H(rot)  DE(clash)    DE(int)     intcor
     16.26     -21.09       1.53        0.00     136.41       2.13       0.47       4.37       ----

> <Gold.Chemscore.Fitness>
16.2581

> <Gold.Chemscore.DG>
-21.0943

> <Gold.Chemscore.ZeroCoef>
-5.4800

> <Gold.Chemscore.Hbond>
1.5317

> <Gold.Chemscore.Metal>
0.0000

> <Gold.Chemscore.Lipo>
136.4075

> <Gold.Chemscore.Internal_Hbond>
0.0000

> <Gold.Chemscore.DEClash>
0.4670

> <Gold.Chemscore.DEInternal>
4.3692

> <Gold.Chemscore.Rot>
2.1333

> <Gold.Chemscore.Internal.Correction>
   9.000000E+99

> <Gold.Chemscore.Hbonds>
donor molecule, donor type, donor heavy atom, donor atom, acceptor molecule, acceptor atom, score
      P1  H  7997  8008       L1    19  0.81
      P1  H 10752 10764       L1    29  0.18
      P1  H 10752 10765       L1    30  0.36

> <Gold.Chemscore.Hbond.Weighted>
-5.1160

> <Gold.Chemscore.Metal.Weighted>
-0.0000

> <Gold.Chemscore.Lipo.Weighted>
-15.9597

> <Gold.Chemscore.Internal_Hbond.Weighted>
0.0000

> <Gold.Chemscore.DEClash.Weighted>
0.4670

> <Gold.Chemscore.DEInternal.Weighted>
4.3692

> <Gold.Chemscore.Rot.Weighted>
5.4614

> <Gold.Chemscore.Internal.Correction.Weighted>
   9.000000E+99

> <Gold.Protein.RotatedTorsions>
[ 6907 6896 6895 6894 ] final -143.10 input  -60.11 | X-H torsion
[ 7974 7965 7964 7962 ] final  -91.21 input  175.53 | X-H torsion
[ 8008 7997 7996 7995 ] final  -86.03 input   59.86 | X-H torsion
[ 10167 10162 10161 10158 ] final   27.78 input  -65.29 | X-H torsion
[ 10718 10713 10712 10709 ] final -165.34 input   66.30 | X-H torsion
[ 10763 10752 10751 10750 ] final  -94.58 input  -60.55 | X-H torsion
[ 11005 11000 10999 10996 ] final -142.37 input  -57.11 | X-H torsion

> <Gold.Protein.ActiveResidues>
 VAL166  LYS551  ARG553  GLY616  TRP617  ASP618  TYR619  PRO620  LYS621  CYS622 
 ASP623  PHE694  ASN695  SER759  ASP760  ASP761  ALA762  ILE779  LEU786  VAL792 
 PHE793  MET794  SER795  GLU796  ALA797  LYS798  CYS799  TRP800  GLU811  SER814 

> <Gold.Protein.RotatedAtoms>
  151.0960  133.5280  159.2612 H   0  0  0  0  0  0  0  0  0  0  0  0  # atno 6907 bound_to 6896
  151.2129  135.0487  159.8928 H   0  0  0  0  0  0  0  0  0  0  0  0  # atno 6908 bound_to 6896
  152.5438  134.0773  159.8273 H   0  0  0  0  0  0  0  0  0  0  0  0  # atno 6909 bound_to 6896
  145.4162  140.9548  143.2206 H   0  0  0  0  0  0  0  0  0  0  0  0  # atno 7974 bound_to 7965
  154.6473  140.0584  156.9915 H   0  0  0  0  0  0  0  0  0  0  0  0  # atno 8008 bound_to 7997
  155.1424  140.3266  155.4430 H   0  0  0  0  0  0  0  0  0  0  0  0  # atno 8009 bound_to 7997
  156.2560  140.1961  156.6539 H   0  0  0  0  0  0  0  0  0  0  0  0  # atno 8010 bound_to 7997
  140.4909  144.0468  150.6297 H   0  0  0  0  0  0  0  0  0  0  0  0  # atno 10167 bound_to 10162
  156.6520  130.9011  151.3015 H   0  0  0  0  0  0  0  0  0  0  0  0  # atno 10718 bound_to 10713
  154.7068  135.5152  153.8607 H   0  0  0  0  0  0  0  0  0  0  0  0  # atno 10763 bound_to 10752
  153.0748  135.6613  154.0179 H   0  0  0  0  0  0  0  0  0  0  0  0  # atno 10764 bound_to 10752
  154.0028  135.3009  155.3380 H   0  0  0  0  0  0  0  0  0  0  0  0  # atno 10765 bound_to 10752
  140.8231  134.2607  157.4891 H   0  0  0  0  0  0  0  0  0  0  0  0  # atno 11005 bound_to 11000
  144.8276  139.5683  143.6958 LP  0  0  0  0  0  0  0  0  0  0  0  0  # atno 17320 bound_to 7965
  146.2680  139.6566  142.9316 LP  0  0  0  0  0  0  0  0  0  0  0  0  # atno 17321 bound_to 7965
  140.3737  143.2840  152.0249 LP  0  0  0  0  0  0  0  0  0  0  0  0  # atno 17342 bound_to 10162
  139.4851  144.6210  151.7256 LP  0  0  0  0  0  0  0  0  0  0  0  0  # atno 17343 bound_to 10162
  157.7138  130.9472  150.1181 LP  0  0  0  0  0  0  0  0  0  0  0  0  # atno 17370 bound_to 10713
  156.2077  130.3664  149.8709 LP  0  0  0  0  0  0  0  0  0  0  0  0  # atno 17371 bound_to 10713
  139.8707  134.9546  156.4181 LP  0  0  0  0  0  0  0  0  0  0  0  0  # atno 17394 bound_to 11000
  140.9077  133.7734  155.9755 LP  0  0  0  0  0  0  0  0  0  0  0  0  # atno 17395 bound_to 11000

$$$$
