AV-unprocessed.smi:3002|AV-procd|sdf|11435|dock3
  -GOLD-   2272016363D 1   1.00000     0.00000
 Structure written by MMmdl.
 34 35  0  0  0  0  0  0  0  0  1 V2000
  150.3051  137.5202  154.7114 C   0  0  0  0  0  0  0  0  0  0  0  0
  150.6747  138.9886  154.4169 C   0  0  2  0  0  0  0  0  0  0  0  0
  151.8402  139.4972  155.2794 C   0  0  0  0  0  0  0  0  0  0  0  0
  152.9319  139.7591  154.7731 O   0  0  0  0  0  0  0  0  0  0  0  0
  151.5973  139.6015  156.5960 N   0  0  0  0  0  0  0  0  0  0  0  0
  152.5858  139.9322  157.6168 C   0  0  0  0  0  0  0  0  0  0  0  0
  151.9954  140.8576  158.6990 C   0  0  1  0  0  0  0  0  0  0  0  0
  153.0108  141.2935  159.7781 C   0  0  0  0  0  0  0  0  0  0  0  0
  152.3916  142.4192  160.6115 C   0  0  0  0  0  0  0  0  0  0  0  0
  151.3296  143.3640  159.4576 S   0  0  0  0  0  0  0  0  0  0  0  0
  149.9683  143.4348  160.0099 O   0  0  0  0  0  0  0  0  0  0  0  0
  152.0346  144.5791  159.0228 O   0  0  0  0  0  0  0  0  0  0  0  0
  151.3768  142.1310  158.1018 C   0  0  0  0  0  0  0  0  0  0  0  0
  149.5310  139.8827  154.5568 N   0  0  0  0  0  0  0  0  0  0  0  0
  148.2598  139.6084  154.8583 C   0  0  0  0  0  0  0  0  0  0  0  0
  147.4609  140.6661  154.8400 N   0  0  0  0  0  0  0  0  0  0  0  0
  148.3642  141.6278  154.4865 C   0  0  0  0  0  0  0  0  0  0  0  0
  149.6154  141.2110  154.2937 N   0  0  0  0  0  0  0  0  0  0  0  0
  151.1572  136.8598  154.5477 H   0  0  0  0  0  0  0  0  0  0  0  0
  149.5020  137.1835  154.0552 H   0  0  0  0  0  0  0  0  0  0  0  0
  149.9707  137.3791  155.7401 H   0  0  0  0  0  0  0  0  0  0  0  0
  150.9963  139.0386  153.3751 H   0  0  0  0  0  0  0  0  0  0  0  0
  150.6691  139.3753  156.9229 H   0  0  0  0  0  0  0  0  0  0  0  0
  153.0020  139.0302  158.0691 H   0  0  0  0  0  0  0  0  0  0  0  0
  153.4174  140.4342  157.1216 H   0  0  0  0  0  0  0  0  0  0  0  0
  151.1951  140.3199  159.2102 H   0  0  0  0  0  0  0  0  0  0  0  0
  153.3154  140.4620  160.4146 H   0  0  0  0  0  0  0  0  0  0  0  0
  153.9122  141.6680  159.2907 H   0  0  0  0  0  0  0  0  0  0  0  0
  151.7566  142.0125  161.3989 H   0  0  0  0  0  0  0  0  0  0  0  0
  153.1357  143.0744  161.0652 H   0  0  0  0  0  0  0  0  0  0  0  0
  152.0040  142.5370  157.3077 H   0  0  0  0  0  0  0  0  0  0  0  0
  150.3745  141.9716  157.7042 H   0  0  0  0  0  0  0  0  0  0  0  0
  147.9093  138.6128  155.0874 H   0  0  0  0  0  0  0  0  0  0  0  0
  148.0900  142.6648  154.3600 H   0  0  0  0  0  0  0  0  0  0  0  0
  1  2  1  0  0  0  0
  1 19  1  0  0  0  0
  1 20  1  0  0  0  0
  1 21  1  0  0  0  0
  2  3  1  0  0  0  0
  2 14  1  0  0  0  0
  2 22  1  0  0  0  0
  3  4  2  0  0  0  0
  3  5  1  0  0  0  0
  5  6  1  0  0  0  0
  5 23  1  0  0  0  0
  6  7  1  0  0  0  0
  6 24  1  0  0  0  0
  6 25  1  0  0  0  0
  7 13  1  0  0  0  0
  7  8  1  0  0  0  0
  7 26  1  0  0  0  0
  8  9  1  0  0  0  0
  8 27  1  0  0  0  0
  8 28  1  0  0  0  0
  9 10  1  0  0  0  0
  9 29  1  0  0  0  0
  9 30  1  0  0  0  0
 10 11  2  0  0  0  0
 10 12  2  0  0  0  0
 10 13  1  0  0  0  0
 13 31  1  0  0  0  0
 13 32  1  0  0  0  0
 14 18  1  0  0  0  0
 14 15  1  0  0  0  0
 15 16  2  0  0  0  0
 15 33  1  0  0  0  0
 16 17  1  0  0  0  0
 17 18  2  0  0  0  0
 17 34  1  0  0  0  0
M  END
> <s_m_source_file>
AV-unprocessed.smi

> <i_m_source_file_index>
3002

> <i_lp_mmshare_version>
43012

> <i_f3d_flags>
0

> <s_epik_input>
bjFbY0hdbltjSF1uMVtDQEhdKFtDSDNdKUMoPU8pW05IXVtDSDJdW0NAQEhdKFtDSDJdMilbQ0gyXVtDSDJdUzIoPU8pPU8=

> <s_epik_cmdline>
J2VwaWtfcHl0aG9uJywgJy1waCcsICc3LjAnLCAnLXRuJywgJzgnLCAnLW1hJywgJzIwMCcsICctbWV0YWxfYmluZGluZycsICctaW1hZScsICc8aW5maWxlLm1hZT4nLCAnLW9tYWUnLCAnPG91dGZpbGUubWFlPic=

> <r_lp_tautomer_probability>
1

> <r_epik_Ionization_Penalty>
1.1748e-05

> <r_epik_Ionization_Penalty_Charging>
0

> <r_epik_Ionization_Penalty_Neutral>
1.1748e-05

> <r_epik_State_Penalty>
-0

> <r_epik_Charging_Adjusted_Penalty>
0

> <i_epik_Tot_Q>
0

> <i_epik_Tot_abs_Q>
0

> <r_epik_Metal_State_Penalty>
-0

> <b_epik_Metal_Only>
0

> <s_lp_Force_Field>
OPLS_2005

> <r_lp_Energy>
9.21474

> <b_lp_Chiralities_Consistent>
1

> <s_lp_Variant>
AV-unprocessed.smi:3002-3

> <Gold.Version>
5.8.1

> <Gold.Id.Protein>
6NUR|6NUR_protein|mol2

> <Gold.PLP.Fitness>
41.1021

> <Gold.PLP.PLP>
-34.4204

> <Gold.PLP.part.hbond>
-4.8031

> <Gold.PLP.part.metal>
0.0000

> <Gold.PLP.part.buried>
-2.7192

> <Gold.PLP.part.nonpolar>
-27.1321

> <Gold.PLP.part.repulsive>
0.5530

> <Gold.PLP.ligand.clash>
0.0000

> <Gold.PLP.ligand.torsion>
0.2609

> <Gold.PLP.Chemscore.Hbond>
1.3885

> <Gold.PLP.Chemscore.CHOScore>
0.9702

> <Gold.PLP.Chemscore.Metal>
0.0000

> <Gold.Chemscore.Hbonds>
donor molecule, donor type, donor heavy atom, donor atom, acceptor molecule, acceptor atom, score
      P1  H  6933  6944       L1    11  0.02
      P1  H  7989  7998       L1    18  0.14
      P1  H  7997  8010       L1     4  1.00
      P1  H  8011  8017       L1    18  0.13
      L1  C    17    34       P1  8028  1.00

> <Gold.PLP.Chemscore.Internal.Correction>
0.1273

> <Gold.Rescore>
     Score         DG    S(hbond)    S(metal)    S(lipo)     H(rot)  DE(clash)    DE(int)     intcor
     10.50     -11.01       1.62        0.00      53.41       2.39       0.13       0.38       ----

> <Gold.Chemscore.Fitness>
10.5003

> <Gold.Chemscore.DG>
-11.0118

> <Gold.Chemscore.ZeroCoef>
-5.4800

> <Gold.Chemscore.Hbond>
1.6205

> <Gold.Chemscore.Metal>
0.0000

> <Gold.Chemscore.Lipo>
53.4127

> <Gold.Chemscore.Internal_Hbond>
0.0000

> <Gold.Chemscore.DEClash>
0.1334

> <Gold.Chemscore.DEInternal>
0.3780

> <Gold.Chemscore.Rot>
2.3946

> <Gold.Chemscore.Internal.Correction>
   9.000000E+99

> <Gold.Chemscore.Hbonds>
donor molecule, donor type, donor heavy atom, donor atom, acceptor molecule, acceptor atom, score
      P1  H  6933  6944       L1    11  0.04
      P1  H  7989  7998       L1    18  0.01
      P1  H  7997  8010       L1     4  0.95
      P1  H  8011  8017       L1    18  0.01

> <Gold.Chemscore.Hbond.Weighted>
-5.4126

> <Gold.Chemscore.Metal.Weighted>
-0.0000

> <Gold.Chemscore.Lipo.Weighted>
-6.2493

> <Gold.Chemscore.Internal_Hbond.Weighted>
0.0000

> <Gold.Chemscore.DEClash.Weighted>
0.1334

> <Gold.Chemscore.DEInternal.Weighted>
0.3780

> <Gold.Chemscore.Rot.Weighted>
6.1301

> <Gold.Chemscore.Internal.Correction.Weighted>
   9.000000E+99

> <Gold.Protein.RotatedTorsions>
[ 6907 6896 6895 6894 ] final   95.33 input  -60.11 | X-H torsion
[ 7974 7965 7964 7962 ] final -137.31 input  175.53 | X-H torsion
[ 8008 7997 7996 7995 ] final   99.14 input   59.86 | X-H torsion
[ 10167 10162 10161 10158 ] final   85.41 input  -65.29 | X-H torsion
[ 10718 10713 10712 10709 ] final   98.84 input   66.30 | X-H torsion
[ 10763 10752 10751 10750 ] final   82.87 input  -60.55 | X-H torsion
[ 11005 11000 10999 10996 ] final  -39.21 input  -57.11 | X-H torsion

> <Gold.Protein.ActiveResidues>
 VAL166  LYS551  ARG553  GLY616  TRP617  ASP618  TYR619  PRO620  LYS621  CYS622 
 ASP623  PHE694  ASN695  SER759  ASP760  ASP761  ALA762  ILE779  LEU786  VAL792 
 PHE793  MET794  SER795  GLU796  ALA797  LYS798  CYS799  TRP800  GLU811  SER814 

> <Gold.Protein.RotatedAtoms>
  152.5444  134.1056  159.8336 H   0  0  0  0  0  0  0  0  0  0  0  0  # atno 6907 bound_to 6896
  151.1129  133.5152  159.2612 H   0  0  0  0  0  0  0  0  0  0  0  0  # atno 6908 bound_to 6896
  151.1864  135.0393  159.8868 H   0  0  0  0  0  0  0  0  0  0  0  0  # atno 6909 bound_to 6896
  144.8852  140.6565  143.5180 H   0  0  0  0  0  0  0  0  0  0  0  0  # atno 7974 bound_to 7965
  156.1075  140.3233  155.8027 H   0  0  0  0  0  0  0  0  0  0  0  0  # atno 8008 bound_to 7997
  155.4730  140.0548  157.2994 H   0  0  0  0  0  0  0  0  0  0  0  0  # atno 8009 bound_to 7997
  154.4737  140.2023  155.9944 H   0  0  0  0  0  0  0  0  0  0  0  0  # atno 8010 bound_to 7997
  139.8981  144.6346  150.8667 H   0  0  0  0  0  0  0  0  0  0  0  0  # atno 10167 bound_to 10162
  157.6888  131.0652  150.4857 H   0  0  0  0  0  0  0  0  0  0  0  0  # atno 10718 bound_to 10713
  153.1240  135.4712  154.9243 H   0  0  0  0  0  0  0  0  0  0  0  0  # atno 10763 bound_to 10752
  154.7603  135.3129  154.8393 H   0  0  0  0  0  0  0  0  0  0  0  0  # atno 10764 bound_to 10752
  153.8951  135.6881  153.4812 H   0  0  0  0  0  0  0  0  0  0  0  0  # atno 10765 bound_to 10752
  141.0085  133.6919  156.2157 H   0  0  0  0  0  0  0  0  0  0  0  0  # atno 11005 bound_to 11000
  145.3881  139.1622  143.4244 LP  0  0  0  0  0  0  0  0  0  0  0  0  # atno 17320 bound_to 7965
  146.3020  140.3968  142.8700 LP  0  0  0  0  0  0  0  0  0  0  0  0  # atno 17321 bound_to 7965
  140.7713  143.3458  151.2114 LP  0  0  0  0  0  0  0  0  0  0  0  0  # atno 17342 bound_to 10162
  139.7050  143.9470  152.2922 LP  0  0  0  0  0  0  0  0  0  0  0  0  # atno 17343 bound_to 10162
  156.5187  130.4156  149.6262 LP  0  0  0  0  0  0  0  0  0  0  0  0  # atno 17370 bound_to 10713
  156.3174  130.7262  151.2167 LP  0  0  0  0  0  0  0  0  0  0  0  0  # atno 17371 bound_to 10713
  140.6772  134.4805  157.5588 LP  0  0  0  0  0  0  0  0  0  0  0  0  # atno 17394 bound_to 11000
  139.9077  134.8413  156.1645 LP  0  0  0  0  0  0  0  0  0  0  0  0  # atno 17395 bound_to 11000

$$$$
