AV-unprocessed.smi:893|AV-procd|sdf|4066|dock1
  -GOLD-   22720 1553D 1   1.00000     0.00000
 Structure written by MMmdl.
 27 28  0  0  0  0  0  0  0  0  1 V2000
  149.1649  140.3373  154.4233 C   0  0  0  0  0  0  0  0  0  0  0  0
  149.7448  141.3412  155.4322 C   0  0  0  0  0  0  0  0  0  0  0  0
  150.5537  140.6873  156.5777 C   0  0  1  0  0  0  0  0  0  0  0  0
  151.2867  141.7046  157.4329 C   0  0  0  0  0  0  0  0  0  0  0  0
  152.0768  141.4798  158.5994 C   0  0  0  0  0  0  0  0  0  0  0  0
  152.5779  142.5919  159.1105 N   0  0  0  0  0  0  0  0  0  0  0  0
  152.1300  143.5665  158.2948 N   0  0  0  0  0  0  0  0  0  0  0  0
  152.4945  144.9419  158.5591 C   0  0  0  0  0  0  0  0  0  0  0  0
  151.3487  143.0631  157.2780 C   0  0  0  0  0  0  0  0  0  0  0  0
  149.7189  139.7923  157.3676 N   0  0  0  0  0  0  0  0  0  0  0  0
  150.1500  138.5238  157.3502 C   0  0  0  0  0  0  0  0  0  0  0  0
  149.6380  137.5784  157.9447 O   0  0  0  0  0  0  0  0  0  0  0  0
  151.2305  138.4689  156.5660 N   0  0  0  0  0  0  0  0  0  0  0  0
  151.5449  139.6558  156.0497 C   0  0  0  0  0  0  0  0  0  0  0  0
  152.4711  139.8988  155.2771 O   0  0  0  0  0  0  0  0  0  0  0  0
  148.6101  140.8549  153.6408 H   0  0  0  0  0  0  0  0  0  0  0  0
  148.4803  139.6379  154.9034 H   0  0  0  0  0  0  0  0  0  0  0  0
  149.9522  139.7585  153.9402 H   0  0  0  0  0  0  0  0  0  0  0  0
  150.3750  142.0500  154.8923 H   0  0  0  0  0  0  0  0  0  0  0  0
  148.9268  141.9303  155.8493 H   0  0  0  0  0  0  0  0  0  0  0  0
  152.3002  140.5432  159.0888 H   0  0  0  0  0  0  0  0  0  0  0  0
  152.0911  145.5923  157.7823 H   0  0  0  0  0  0  0  0  0  0  0  0
  153.5805  145.0398  158.5738 H   0  0  0  0  0  0  0  0  0  0  0  0
  152.0932  145.2510  159.5247 H   0  0  0  0  0  0  0  0  0  0  0  0
  150.9053  143.7048  156.5307 H   0  0  0  0  0  0  0  0  0  0  0  0
  148.9115  140.1115  157.8830 H   0  0  0  0  0  0  0  0  0  0  0  0
  151.7432  137.6202  156.3761 H   0  0  0  0  0  0  0  0  0  0  0  0
  1  2  1  0  0  0  0
  1 16  1  0  0  0  0
  1 17  1  0  0  0  0
  1 18  1  0  0  0  0
  2  3  1  0  0  0  0
  2 19  1  0  0  0  0
  2 20  1  0  0  0  0
  3 14  1  0  0  0  0
  3  4  1  0  0  0  0
  3 10  1  0  0  0  0
  4  9  2  0  0  0  0
  4  5  1  0  0  0  0
  5  6  2  0  0  0  0
  5 21  1  0  0  0  0
  6  7  1  0  0  0  0
  7  8  1  0  0  0  0
  7  9  1  0  0  0  0
  8 22  1  0  0  0  0
  8 23  1  0  0  0  0
  8 24  1  0  0  0  0
  9 25  1  0  0  0  0
 10 11  1  0  0  0  0
 10 26  1  0  0  0  0
 11 12  2  0  0  0  0
 11 13  1  0  0  0  0
 13 14  1  0  0  0  0
 13 27  1  0  0  0  0
 14 15  2  0  0  0  0
M  END
> <s_m_source_file>
AV-unprocessed.smi

> <i_m_source_file_index>
893

> <i_lp_mmshare_version>
43012

> <i_f3d_flags>
0

> <s_epik_input>
Tz1DMVtOSF1DKD1PKVtOSF1bQ0BAXTEoW0NIMl1bQ0gzXSljMltjSF1ubihbQ0gzXSlbY0hdMg==

> <s_epik_cmdline>
J2VwaWtfcHl0aG9uJywgJy1waCcsICc3LjAnLCAnLXRuJywgJzgnLCAnLW1hJywgJzIwMCcsICctbWV0YWxfYmluZGluZycsICctaW1hZScsICc8aW5maWxlLm1hZT4nLCAnLW9tYWUnLCAnPG91dGZpbGUubWFlPic=

> <r_lp_tautomer_probability>
1

> <r_epik_Ionization_Penalty>
0.0236181

> <r_epik_Ionization_Penalty_Charging>
0

> <r_epik_Ionization_Penalty_Neutral>
0.0236181

> <r_epik_State_Penalty>
0.0189572

> <r_epik_Charging_Adjusted_Penalty>
0.0189572

> <i_epik_Tot_Q>
0

> <i_epik_Tot_abs_Q>
0

> <r_epik_Metal_State_Penalty>
0.411796

> <b_epik_Metal_Only>
0

> <s_lp_Force_Field>
OPLS_2005

> <r_lp_Energy>
15.567

> <b_lp_Chiralities_Consistent>
1

> <s_lp_Variant>
AV-unprocessed.smi:893-1

> <Gold.Version>
5.8.1

> <Gold.Id.Protein>
6NUR|6NUR_protein|mol2

> <Gold.PLP.Fitness>
35.2831

> <Gold.PLP.PLP>
-27.8433

> <Gold.PLP.part.hbond>
-2.0000

> <Gold.PLP.part.metal>
0.0000

> <Gold.PLP.part.buried>
-3.1608

> <Gold.PLP.part.nonpolar>
-23.1380

> <Gold.PLP.part.repulsive>
0.1297

> <Gold.PLP.ligand.clash>
0.0000

> <Gold.PLP.ligand.torsion>
0.1585

> <Gold.PLP.Chemscore.Hbond>
1.5282

> <Gold.PLP.Chemscore.CHOScore>
1.0000

> <Gold.PLP.Chemscore.Metal>
0.0000

> <Gold.Chemscore.Hbonds>
donor molecule, donor type, donor heavy atom, donor atom, acceptor molecule, acceptor atom, score
      P1  H  7989  7998       L1    15  0.42
      P1  H  7997  8008       L1    15  0.84
      L1  C     9    25       P1  8028  1.00

> <Gold.PLP.Chemscore.Internal.Correction>
0.1725

> <Gold.Rescore>
     Score         DG    S(hbond)    S(metal)    S(lipo)     H(rot)  DE(clash)    DE(int)     intcor
     12.75     -12.86       1.24        0.00      56.12       1.30       0.00       0.10       ----

> <Gold.Chemscore.Fitness>
12.7549

> <Gold.Chemscore.DG>
-12.8562

> <Gold.Chemscore.ZeroCoef>
-5.4800

> <Gold.Chemscore.Hbond>
1.2354

> <Gold.Chemscore.Metal>
0.0000

> <Gold.Chemscore.Lipo>
56.1237

> <Gold.Chemscore.Internal_Hbond>
0.0000

> <Gold.Chemscore.DEClash>
0.0000

> <Gold.Chemscore.DEInternal>
0.1013

> <Gold.Chemscore.Rot>
1.2955

> <Gold.Chemscore.Internal.Correction>
   9.000000E+99

> <Gold.Chemscore.Hbonds>
donor molecule, donor type, donor heavy atom, donor atom, acceptor molecule, acceptor atom, score
      P1  H  7989  7998       L1    15  0.29
      P1  H  7997  8008       L1    15  0.82

> <Gold.Chemscore.Hbond.Weighted>
-4.1261

> <Gold.Chemscore.Metal.Weighted>
-0.0000

> <Gold.Chemscore.Lipo.Weighted>
-6.5665

> <Gold.Chemscore.Internal_Hbond.Weighted>
0.0000

> <Gold.Chemscore.DEClash.Weighted>
0.0000

> <Gold.Chemscore.DEInternal.Weighted>
0.1013

> <Gold.Chemscore.Rot.Weighted>
3.3164

> <Gold.Chemscore.Internal.Correction.Weighted>
   9.000000E+99

> <Gold.Protein.RotatedTorsions>
[ 6907 6896 6895 6894 ] final   93.48 input  -60.11 | X-H torsion
[ 7974 7965 7964 7962 ] final  -43.74 input  175.53 | X-H torsion
[ 8008 7997 7996 7995 ] final  -15.64 input   59.86 | X-H torsion
[ 10167 10162 10161 10158 ] final -126.19 input  -65.29 | X-H torsion
[ 10718 10713 10712 10709 ] final -104.65 input   66.30 | X-H torsion
[ 10763 10752 10751 10750 ] final -153.56 input  -60.55 | X-H torsion
[ 11005 11000 10999 10996 ] final   83.99 input  -57.11 | X-H torsion

> <Gold.Protein.ActiveResidues>
 VAL166  LYS551  ARG553  GLY616  TRP617  ASP618  TYR619  PRO620  LYS621  CYS622 
 ASP623  PHE694  ASN695  SER759  ASP760  ASP761  ALA762  ILE779  LEU786  VAL792 
 PHE793  MET794  SER795  GLU796  ALA797  LYS798  CYS799  TRP800  GLU811  SER814 

> <Gold.Protein.RotatedAtoms>
  152.5452  134.1341  159.8451 H   0  0  0  0  0  0  0  0  0  0  0  0  # atno 6907 bound_to 6896
  151.1384  133.4981  159.2605 H   0  0  0  0  0  0  0  0  0  0  0  0  # atno 6908 bound_to 6896
  151.1600  135.0279  159.8760 H   0  0  0  0  0  0  0  0  0  0  0  0  # atno 6909 bound_to 6896
  145.9989  140.7097  142.9280 H   0  0  0  0  0  0  0  0  0  0  0  0  # atno 7974 bound_to 7965
  154.5114  140.2191  155.9148 H   0  0  0  0  0  0  0  0  0  0  0  0  # atno 8008 bound_to 7997
  156.1557  140.3152  155.8688 H   0  0  0  0  0  0  0  0  0  0  0  0  # atno 8009 bound_to 7997
  155.3851  140.0475  157.3033 H   0  0  0  0  0  0  0  0  0  0  0  0  # atno 8010 bound_to 7997
  139.9741  143.5813  152.2402 H   0  0  0  0  0  0  0  0  0  0  0  0  # atno 10167 bound_to 10162
  156.0313  130.5525  150.7427 H   0  0  0  0  0  0  0  0  0  0  0  0  # atno 10718 bound_to 10713
  154.7919  135.3210  154.7757 H   0  0  0  0  0  0  0  0  0  0  0  0  # atno 10763 bound_to 10752
  153.8444  135.6868  153.4803 H   0  0  0  0  0  0  0  0  0  0  0  0  # atno 10764 bound_to 10752
  153.1593  135.4667  154.9689 H   0  0  0  0  0  0  0  0  0  0  0  0  # atno 10765 bound_to 10752
  139.9014  134.8184  156.2384 H   0  0  0  0  0  0  0  0  0  0  0  0  # atno 11005 bound_to 11000
  144.6913  140.3199  143.7234 LP  0  0  0  0  0  0  0  0  0  0  0  0  # atno 17320 bound_to 7965
  145.7518  139.1796  143.2317 LP  0  0  0  0  0  0  0  0  0  0  0  0  # atno 17321 bound_to 7965
  139.6459  144.7658  151.2245 LP  0  0  0  0  0  0  0  0  0  0  0  0  # atno 17342 bound_to 10162
  140.7512  143.6240  150.8486 LP  0  0  0  0  0  0  0  0  0  0  0  0  # atno 17343 bound_to 10162
  157.4991  131.0917  151.0335 LP  0  0  0  0  0  0  0  0  0  0  0  0  # atno 17370 bound_to 10713
  157.0721  130.5868  149.5404 LP  0  0  0  0  0  0  0  0  0  0  0  0  # atno 17371 bound_to 10713
  141.0300  133.6993  156.1414 LP  0  0  0  0  0  0  0  0  0  0  0  0  # atno 17394 bound_to 11000
  140.7109  134.4462  157.5581 LP  0  0  0  0  0  0  0  0  0  0  0  0  # atno 17395 bound_to 11000

$$$$
