AV-unprocessed.smi:1801|AV-procd|sdf|7267|dock3
  -GOLD-   22720 8523D 1   1.00000     0.00000
 Structure written by MMmdl.
 38 39  0  0  0  0  0  0  0  0  2 V2000
  145.8541  134.9604  152.7352 C   0  0  0  0  0  0  0  0  0  0  0  0
  145.2995  135.9754  151.7213 C   0  0  2  0  0  0  0  0  0  0  0  0
  145.5389  137.4153  152.2332 C   0  0  0  0  0  0  0  0  0  0  0  0
  146.9371  137.7016  152.5460 N   0  0  0  0  0  0  0  0  0  0  0  0
  147.3698  138.6822  153.3521 C   0  0  0  0  0  0  0  0  0  0  0  0
  146.6170  139.4607  153.9376 O   0  0  0  0  0  0  0  0  0  0  0  0
  148.7121  138.6919  153.4287 N   0  0  0  0  0  0  0  0  0  0  0  0
  149.5419  139.5352  154.2141 C   0  0  0  0  0  0  0  0  0  0  0  0
  150.8550  139.3252  154.3971 N   0  0  0  0  0  0  0  0  0  0  0  0
  151.4299  140.3017  155.2004 N   0  0  0  0  0  0  0  0  0  0  0  0
  150.5298  141.2089  155.5897 C   0  0  0  0  0  0  0  0  0  0  0  0
  148.8918  140.9618  155.0094 S   0  0  0  0  0  0  0  0  0  0  0  0
  143.8098  135.7005  151.4075 C   0  0  0  0  0  0  0  0  0  0  0  0
  143.5929  134.3590  150.8153 N   0  3  0  0  0  0  0  0  0  0  0  0
  144.5996  133.9733  149.8068 C   0  0  0  0  0  0  0  0  0  0  0  0
  144.5394  132.4506  149.7555 C   0  0  0  0  0  0  0  0  0  0  0  0
  144.2941  132.0711  151.2125 C   0  0  0  0  0  0  0  0  0  0  0  0
  143.4919  133.2452  151.7904 C   0  0  0  0  0  0  0  0  0  0  0  0
  145.3191  135.0136  153.6839 H   0  0  0  0  0  0  0  0  0  0  0  0
  146.9089  135.1475  152.9390 H   0  0  0  0  0  0  0  0  0  0  0  0
  145.7738  133.9385  152.3642 H   0  0  0  0  0  0  0  0  0  0  0  0
  145.8759  135.8561  150.8039 H   0  0  0  0  0  0  0  0  0  0  0  0
  145.2134  138.1343  151.4807 H   0  0  0  0  0  0  0  0  0  0  0  0
  144.9333  137.6059  153.1207 H   0  0  0  0  0  0  0  0  0  0  0  0
  147.6287  137.1162  152.1006 H   0  0  0  0  0  0  0  0  0  0  0  0
  149.1992  138.0107  152.8652 H   0  0  0  0  0  0  0  0  0  0  0  0
  150.8329  142.0308  156.2212 H   0  0  0  0  0  0  0  0  0  0  0  0
  143.2279  135.7845  152.3267 H   0  0  0  0  0  0  0  0  0  0  0  0
  143.4059  136.4444  150.7201 H   0  0  0  0  0  0  0  0  0  0  0  0
  144.3990  134.4352  148.8398 H   0  0  0  0  0  0  0  0  0  0  0  0
  145.5914  134.2896  150.1349 H   0  0  0  0  0  0  0  0  0  0  0  0
  143.6962  132.1322  149.1406 H   0  0  0  0  0  0  0  0  0  0  0  0
  145.4452  132.0024  149.3460 H   0  0  0  0  0  0  0  0  0  0  0  0
  143.7761  131.1167  151.3149 H   0  0  0  0  0  0  0  0  0  0  0  0
  145.2487  131.9874  151.7344 H   0  0  0  0  0  0  0  0  0  0  0  0
  143.8795  133.5221  152.7723 H   0  0  0  0  0  0  0  0  0  0  0  0
  142.4409  132.9817  151.9137 H   0  0  0  0  0  0  0  0  0  0  0  0
  142.7093  134.3870  150.3265 H   0  0  0  0  0  0  0  0  0  0  0  0
  1  2  1  0  0  0  0
  1 19  1  0  0  0  0
  1 20  1  0  0  0  0
  1 21  1  0  0  0  0
  2  3  1  0  0  0  0
  2 13  1  0  0  0  0
  2 22  1  0  0  0  0
  3  4  1  0  0  0  0
  3 23  1  0  0  0  0
  3 24  1  0  0  0  0
  4  5  1  0  0  0  0
  4 25  1  0  0  0  0
  5  6  2  0  0  0  0
  5  7  1  0  0  0  0
  7  8  1  0  0  0  0
  7 26  1  0  0  0  0
  8 12  1  0  0  0  0
  8  9  2  0  0  0  0
  9 10  1  0  0  0  0
 10 11  2  0  0  0  0
 11 12  1  0  0  0  0
 11 27  1  0  0  0  0
 13 14  1  0  0  0  0
 13 28  1  0  0  0  0
 13 29  1  0  0  0  0
 14 18  1  0  0  0  0
 14 15  1  0  0  0  0
 14 38  1  0  0  0  0
 15 16  1  0  0  0  0
 15 30  1  0  0  0  0
 15 31  1  0  0  0  0
 16 17  1  0  0  0  0
 16 32  1  0  0  0  0
 16 33  1  0  0  0  0
 17 18  1  0  0  0  0
 17 34  1  0  0  0  0
 17 35  1  0  0  0  0
 18 36  1  0  0  0  0
 18 37  1  0  0  0  0
M  CHG  1  14   1
M  END
> <s_m_source_file>
AV-unprocessed.smi

> <i_m_source_file_index>
1801

> <i_lp_mmshare_version>
43012

> <i_f3d_flags>
0

> <s_epik_input>
W0NIMl0xW0NIMl1bQ0gyXVtDSDJdTjFbQ0gyXVtDQEhdKFtDSDNdKVtDSDJdW05IXUMoPU8pW05IXWMybm5bY0hdczI=

> <s_epik_cmdline>
J2VwaWtfcHl0aG9uJywgJy1waCcsICc3LjAnLCAnLXRuJywgJzgnLCAnLW1hJywgJzIwMCcsICctbWV0YWxfYmluZGluZycsICctaW1hZScsICc8aW5maWxlLm1hZT4nLCAnLW9tYWUnLCAnPG91dGZpbGUubWFlPic=

> <r_lp_tautomer_probability>
1

> <r_epik_Ionization_Penalty>
0.00281598

> <r_epik_Ionization_Penalty_Charging>
0.000371708

> <r_epik_Ionization_Penalty_Neutral>
0.00244427

> <r_epik_State_Penalty>
-0

> <r_epik_Charging_Adjusted_Penalty>
0.000371708

> <i_epik_Tot_Q>
1

> <i_epik_Tot_abs_Q>
1

> <r_epik_Metal_State_Penalty>
0.350595

> <b_epik_Metal_Only>
0

> <s_lp_Force_Field>
OPLS_2005

> <r_lp_Energy>
28.9171

> <b_lp_Chiralities_Consistent>
1

> <s_lp_Variant>
AV-unprocessed.smi:1801-1

> <Gold.Version>
5.8.1

> <Gold.Id.Protein>
6NUR|6NUR_protein|mol2

> <Gold.PLP.Fitness>
43.4224

> <Gold.PLP.PLP>
-32.5316

> <Gold.PLP.part.hbond>
-6.0000

> <Gold.PLP.part.metal>
0.0000

> <Gold.PLP.part.buried>
-1.5971

> <Gold.PLP.part.nonpolar>
-25.1601

> <Gold.PLP.part.repulsive>
0.4319

> <Gold.PLP.ligand.clash>
0.0000

> <Gold.PLP.ligand.torsion>
0.3940

> <Gold.PLP.Chemscore.Hbond>
3.8800

> <Gold.PLP.Chemscore.CHOScore>
0.0000

> <Gold.PLP.Chemscore.Metal>
0.0000

> <Gold.Chemscore.Hbonds>
donor molecule, donor type, donor heavy atom, donor atom, acceptor molecule, acceptor atom, score
      L1  H     4    25       P1  7948  1.00
      L1  H     7    26       P1  7948  0.90
      L1  H    14    38       P1 10186  2.00

> <Gold.PLP.Chemscore.Internal.Correction>
0.0387

> <Gold.Rescore>
     Score         DG    S(hbond)    S(metal)    S(lipo)     H(rot)  DE(clash)    DE(int)     intcor
     16.03     -17.82       2.92        0.00      65.14       1.97       0.06       1.73       ----

> <Gold.Chemscore.Fitness>
16.0279

> <Gold.Chemscore.DG>
-17.8233

> <Gold.Chemscore.ZeroCoef>
-5.4800

> <Gold.Chemscore.Hbond>
2.9213

> <Gold.Chemscore.Metal>
0.0000

> <Gold.Chemscore.Lipo>
65.1365

> <Gold.Chemscore.Internal_Hbond>
0.0000

> <Gold.Chemscore.DEClash>
0.0637

> <Gold.Chemscore.DEInternal>
1.7317

> <Gold.Chemscore.Rot>
1.9667

> <Gold.Chemscore.Internal.Correction>
   9.000000E+99

> <Gold.Chemscore.Hbonds>
donor molecule, donor type, donor heavy atom, donor atom, acceptor molecule, acceptor atom, score
      L1  H     4    25       P1  7948  0.98
      L1  H     7    26       P1  7948  0.79
      L1  H    14    38       P1 10186  0.70

> <Gold.Chemscore.Hbond.Weighted>
-9.7572

> <Gold.Chemscore.Metal.Weighted>
-0.0000

> <Gold.Chemscore.Lipo.Weighted>
-7.6210

> <Gold.Chemscore.Internal_Hbond.Weighted>
0.0000

> <Gold.Chemscore.DEClash.Weighted>
0.0637

> <Gold.Chemscore.DEInternal.Weighted>
1.7317

> <Gold.Chemscore.Rot.Weighted>
5.0348

> <Gold.Chemscore.Internal.Correction.Weighted>
   9.000000E+99

> <Gold.Protein.RotatedTorsions>
[ 6907 6896 6895 6894 ] final  -22.92 input  -60.11 | X-H torsion
[ 7974 7965 7964 7962 ] final -124.40 input  175.53 | X-H torsion
[ 8008 7997 7996 7995 ] final  -94.63 input   59.86 | X-H torsion
[ 10167 10162 10161 10158 ] final  167.04 input  -65.29 | X-H torsion
[ 10718 10713 10712 10709 ] final  179.25 input   66.30 | X-H torsion
[ 10763 10752 10751 10750 ] final  -24.25 input  -60.55 | X-H torsion
[ 11005 11000 10999 10996 ] final  177.31 input  -57.11 | X-H torsion

> <Gold.Protein.ActiveResidues>
 VAL166  LYS551  ARG553  GLY616  TRP617  ASP618  TYR619  PRO620  LYS621  CYS622 
 ASP623  PHE694  ASN695  SER759  ASP760  ASP761  ALA762  ILE779  LEU786  VAL792 
 PHE793  MET794  SER795  GLU796  ALA797  LYS798  CYS799  TRP800  GLU811  SER814 

> <Gold.Protein.RotatedAtoms>
  151.2116  135.0483  159.8913 H   0  0  0  0  0  0  0  0  0  0  0  0  # atno 6907 bound_to 6896
  152.5424  134.0739  159.8216 H   0  0  0  0  0  0  0  0  0  0  0  0  # atno 6908 bound_to 6896
  151.0893  133.5281  159.2648 H   0  0  0  0  0  0  0  0  0  0  0  0  # atno 6909 bound_to 6896
  145.0085  140.7884  143.4453 H   0  0  0  0  0  0  0  0  0  0  0  0  # atno 7974 bound_to 7965
  154.7509  140.0487  157.0893 H   0  0  0  0  0  0  0  0  0  0  0  0  # atno 8008 bound_to 7997
  155.0058  140.3130  155.4830 H   0  0  0  0  0  0  0  0  0  0  0  0  # atno 8009 bound_to 7997
  156.2885  140.2193  156.5170 H   0  0  0  0  0  0  0  0  0  0  0  0  # atno 8010 bound_to 7997
  139.4937  144.3964  151.9459 H   0  0  0  0  0  0  0  0  0  0  0  0  # atno 10167 bound_to 10162
  156.8786  130.9808  151.3065 H   0  0  0  0  0  0  0  0  0  0  0  0  # atno 10718 bound_to 10713
  153.6808  135.6967  153.5118 H   0  0  0  0  0  0  0  0  0  0  0  0  # atno 10763 bound_to 10752
  153.2486  135.4282  155.0773 H   0  0  0  0  0  0  0  0  0  0  0  0  # atno 10764 bound_to 10752
  154.8400  135.3526  154.6351 H   0  0  0  0  0  0  0  0  0  0  0  0  # atno 10765 bound_to 10752
  140.3827  134.6932  157.4461 H   0  0  0  0  0  0  0  0  0  0  0  0  # atno 11005 bound_to 11000
  145.2056  139.2230  143.5170 LP  0  0  0  0  0  0  0  0  0  0  0  0  # atno 17320 bound_to 7965
  146.3465  140.1882  142.8589 LP  0  0  0  0  0  0  0  0  0  0  0  0  # atno 17321 bound_to 7965
  140.3402  144.3212  150.5969 LP  0  0  0  0  0  0  0  0  0  0  0  0  # atno 17342 bound_to 10162
  140.5572  143.2197  151.7827 LP  0  0  0  0  0  0  0  0  0  0  0  0  # atno 17343 bound_to 10162
  157.6154  130.8614  149.9019 LP  0  0  0  0  0  0  0  0  0  0  0  0  # atno 17370 bound_to 10713
  156.0689  130.3688  150.0819 LP  0  0  0  0  0  0  0  0  0  0  0  0  # atno 17371 bound_to 10713
  140.0466  134.6190  155.8913 LP  0  0  0  0  0  0  0  0  0  0  0  0  # atno 17394 bound_to 11000
  141.1918  133.6573  156.5472 LP  0  0  0  0  0  0  0  0  0  0  0  0  # atno 17395 bound_to 11000

$$$$
