AV-unprocessed.smi:1788|AV-procd|sdf|7211|dock5
  -GOLD-   22720 8453D 1   1.00000     0.00000
 Structure written by MMmdl.
 55 57  0  0  0  0  0  0  0  0  2 V2000
  143.9430  132.4678  149.1265 C   0  0  0  0  0  0  0  0  0  0  0  0
  144.0082  132.8433  150.6174 C   0  0  1  0  0  0  0  0  0  0  0  0
  145.1001  132.0711  151.3810 C   0  0  0  0  0  0  0  0  0  0  0  0
  146.4999  132.6003  151.0387 C   0  0  0  0  0  0  0  0  0  0  0  0
  146.5820  134.1204  151.2494 C   0  0  0  0  0  0  0  0  0  0  0  0
  145.5381  134.8279  150.4638 N   0  3  2  0  0  0  0  0  0  0  0  0
  145.6885  136.3033  150.5297 C   0  0  0  0  0  0  0  0  0  0  0  0
  145.5848  136.8391  151.9710 C   0  0  0  0  0  0  0  0  0  0  0  0
  146.8783  137.2937  152.4684 N   0  0  0  0  0  0  0  0  0  0  0  0
  147.0510  138.0940  153.5300 C   0  0  0  0  0  0  0  0  0  0  0  0
  146.1192  138.5190  154.2127 O   0  0  0  0  0  0  0  0  0  0  0  0
  148.3542  138.3406  153.7482 N   0  0  0  0  0  0  0  0  0  0  0  0
  148.9469  139.1455  154.7587 C   0  0  0  0  0  0  0  0  0  0  0  0
  148.3890  139.3586  156.0407 C   0  0  0  0  0  0  0  0  0  0  0  0
  149.0656  140.1954  156.9486 C   0  0  0  0  0  0  0  0  0  0  0  0
  150.2789  140.8079  156.5557 C   0  0  0  0  0  0  0  0  0  0  0  0
  150.9713  141.6506  157.4520 N   0  0  0  0  0  0  0  0  0  0  0  0
  152.1527  141.1130  158.1244 C   0  0  0  0  0  0  0  0  0  0  0  0
  152.5953  142.0512  159.2599 C   0  0  0  0  0  0  0  0  0  0  0  0
  152.8070  143.3610  158.7436 O   0  0  0  0  0  0  0  0  0  0  0  0
  151.6156  143.9107  158.1909 C   0  0  0  0  0  0  0  0  0  0  0  0
  151.1312  143.0372  157.0205 C   0  0  0  0  0  0  0  0  0  0  0  0
  150.8072  140.6057  155.3237 N   0  0  0  0  0  0  0  0  0  0  0  0
  150.1544  139.8055  154.4556 C   0  0  0  0  0  0  0  0  0  0  0  0
  144.1718  134.3628  150.8288 C   0  0  0  0  0  0  0  0  0  0  0  0
  144.8547  132.7422  148.5961 H   0  0  0  0  0  0  0  0  0  0  0  0
  143.1117  132.9719  148.6329 H   0  0  0  0  0  0  0  0  0  0  0  0
  143.7952  131.3949  148.9994 H   0  0  0  0  0  0  0  0  0  0  0  0
  143.0478  132.5556  151.0474 H   0  0  0  0  0  0  0  0  0  0  0  0
  144.9323  132.1796  152.4534 H   0  0  0  0  0  0  0  0  0  0  0  0
  145.0353  131.0035  151.1691 H   0  0  0  0  0  0  0  0  0  0  0  0
  147.2454  132.0998  151.6573 H   0  0  0  0  0  0  0  0  0  0  0  0
  146.7486  132.3576  150.0051 H   0  0  0  0  0  0  0  0  0  0  0  0
  146.4696  134.3621  152.3076 H   0  0  0  0  0  0  0  0  0  0  0  0
  147.5713  134.4667  150.9480 H   0  0  0  0  0  0  0  0  0  0  0  0
  146.6322  136.5937  150.0651 H   0  0  0  0  0  0  0  0  0  0  0  0
  144.9000  136.7743  149.9405 H   0  0  0  0  0  0  0  0  0  0  0  0
  144.8944  137.6824  152.0041 H   0  0  0  0  0  0  0  0  0  0  0  0
  145.1867  136.0871  152.6528 H   0  0  0  0  0  0  0  0  0  0  0  0
  147.6974  136.9860  151.9642 H   0  0  0  0  0  0  0  0  0  0  0  0
  149.0050  137.8556  153.1477 H   0  0  0  0  0  0  0  0  0  0  0  0
  147.4559  138.9106  156.3441 H   0  0  0  0  0  0  0  0  0  0  0  0
  148.6523  140.3481  157.9343 H   0  0  0  0  0  0  0  0  0  0  0  0
  151.9375  140.1255  158.5349 H   0  0  0  0  0  0  0  0  0  0  0  0
  152.9602  140.9973  157.4000 H   0  0  0  0  0  0  0  0  0  0  0  0
  151.8489  142.0778  160.0559 H   0  0  0  0  0  0  0  0  0  0  0  0
  153.5225  141.6902  159.7051 H   0  0  0  0  0  0  0  0  0  0  0  0
  150.8469  143.9898  158.9615 H   0  0  0  0  0  0  0  0  0  0  0  0
  151.8210  144.9229  157.8421 H   0  0  0  0  0  0  0  0  0  0  0  0
  151.8568  143.0698  156.2066 H   0  0  0  0  0  0  0  0  0  0  0  0
  150.2011  143.4501  156.6320 H   0  0  0  0  0  0  0  0  0  0  0  0
  150.6173  139.6851  153.4869 H   0  0  0  0  0  0  0  0  0  0  0  0
  143.4161  134.8891  150.2465 H   0  0  0  0  0  0  0  0  0  0  0  0
  143.9803  134.6108  151.8742 H   0  0  0  0  0  0  0  0  0  0  0  0
  145.6908  134.5685  149.4998 H   0  0  0  0  0  0  0  0  0  0  0  0
  1  2  1  0  0  0  0
  1 26  1  0  0  0  0
  1 27  1  0  0  0  0
  1 28  1  0  0  0  0
  2 25  1  0  0  0  0
  2  3  1  0  0  0  0
  2 29  1  0  0  0  0
  3  4  1  0  0  0  0
  3 30  1  0  0  0  0
  3 31  1  0  0  0  0
  4  5  1  0  0  0  0
  4 32  1  0  0  0  0
  4 33  1  0  0  0  0
  5  6  1  0  0  0  0
  5 34  1  0  0  0  0
  5 35  1  0  0  0  0
  6  7  1  0  0  0  0
  6 25  1  0  0  0  0
  6 55  1  0  0  0  0
  7  8  1  0  0  0  0
  7 36  1  0  0  0  0
  7 37  1  0  0  0  0
  8  9  1  0  0  0  0
  8 38  1  0  0  0  0
  8 39  1  0  0  0  0
  9 10  1  0  0  0  0
  9 40  1  0  0  0  0
 10 11  2  0  0  0  0
 10 12  1  0  0  0  0
 12 13  1  0  0  0  0
 12 41  1  0  0  0  0
 13 24  1  0  0  0  0
 13 14  2  0  0  0  0
 14 15  1  0  0  0  0
 14 42  1  0  0  0  0
 15 16  2  0  0  0  0
 15 43  1  0  0  0  0
 16 17  1  0  0  0  0
 16 23  1  0  0  0  0
 17 22  1  0  0  0  0
 17 18  1  0  0  0  0
 18 19  1  0  0  0  0
 18 44  1  0  0  0  0
 18 45  1  0  0  0  0
 19 20  1  0  0  0  0
 19 46  1  0  0  0  0
 19 47  1  0  0  0  0
 20 21  1  0  0  0  0
 21 22  1  0  0  0  0
 21 48  1  0  0  0  0
 21 49  1  0  0  0  0
 22 50  1  0  0  0  0
 22 51  1  0  0  0  0
 23 24  2  0  0  0  0
 24 52  1  0  0  0  0
 25 53  1  0  0  0  0
 25 54  1  0  0  0  0
M  CHG  1   6   1
M  END
> <s_m_source_file>
AV-unprocessed.smi

> <i_m_source_file_index>
1788

> <i_lp_mmshare_version>
43012

> <i_f3d_flags>
0

> <s_epik_input>
W0NIM11bQ0BASF0xW0NIMl1bQ0gyXVtDSDJdTihbQ0gyXTEpW0NIMl1bQ0gyXVtOSF1DKD1PKVtOSF1jMltjSF1bY0hdYyhuW2NIXTIpTjNbQ0gyXVtDSDJdT1tDSDJdW0NIMl0z

> <s_epik_cmdline>
J2VwaWtfcHl0aG9uJywgJy1waCcsICc3LjAnLCAnLXRuJywgJzgnLCAnLW1hJywgJzIwMCcsICctbWV0YWxfYmluZGluZycsICctaW1hZScsICc8aW5maWxlLm1hZT4nLCAnLW9tYWUnLCAnPG91dGZpbGUubWFlPic=

> <r_lp_tautomer_probability>
1

> <r_epik_Ionization_Penalty>
0.00340126

> <r_epik_Ionization_Penalty_Charging>
0.00171832

> <r_epik_Ionization_Penalty_Neutral>
0.00168294

> <r_epik_State_Penalty>
-0

> <r_epik_Charging_Adjusted_Penalty>
0.00171832

> <i_epik_Tot_Q>
1

> <i_epik_Tot_abs_Q>
1

> <r_epik_Metal_State_Penalty>
-0

> <b_epik_Metal_Only>
0

> <s_lp_Force_Field>
OPLS_2005

> <r_lp_Energy>
36.4544

> <b_lp_Chiralities_Consistent>
1

> <s_lp_Variant>
AV-unprocessed.smi:1788-2

> <Gold.Version>
5.8.1

> <Gold.Id.Protein>
6NUR|6NUR_protein|mol2

> <Gold.PLP.Fitness>
51.6929

> <Gold.PLP.PLP>
-41.7992

> <Gold.PLP.part.hbond>
-3.7790

> <Gold.PLP.part.metal>
0.0000

> <Gold.PLP.part.buried>
-1.9571

> <Gold.PLP.part.nonpolar>
-36.4223

> <Gold.PLP.part.repulsive>
0.3409

> <Gold.PLP.ligand.clash>
0.0000

> <Gold.PLP.ligand.torsion>
0.8957

> <Gold.PLP.Chemscore.Hbond>
2.7676

> <Gold.PLP.Chemscore.CHOScore>
1.0000

> <Gold.PLP.Chemscore.Metal>
0.0000

> <Gold.Chemscore.Hbonds>
donor molecule, donor type, donor heavy atom, donor atom, acceptor molecule, acceptor atom, score
      L1  H     6    55       P1  7921  1.00
      L1  H     9    40       P1  7948  0.80
      L1  H    12    41       P1  7948  0.74
      L1  C    24    52       P1  7957  0.96

> <Gold.PLP.Chemscore.Internal.Correction>
0.3824

> <Gold.Rescore>
     Score         DG    S(hbond)    S(metal)    S(lipo)     H(rot)  DE(clash)    DE(int)     intcor
     21.80     -24.71       2.86        0.00     117.68       1.60       1.10       1.80       ----

> <Gold.Chemscore.Fitness>
21.8004

> <Gold.Chemscore.DG>
-24.7084

> <Gold.Chemscore.ZeroCoef>
-5.4800

> <Gold.Chemscore.Hbond>
2.8592

> <Gold.Chemscore.Metal>
0.0000

> <Gold.Chemscore.Lipo>
117.6807

> <Gold.Chemscore.Internal_Hbond>
0.0000

> <Gold.Chemscore.DEClash>
1.1047

> <Gold.Chemscore.DEInternal>
1.8032

> <Gold.Chemscore.Rot>
1.5976

> <Gold.Chemscore.Internal.Correction>
   9.000000E+99

> <Gold.Chemscore.Hbonds>
donor molecule, donor type, donor heavy atom, donor atom, acceptor molecule, acceptor atom, score
      L1  H     6    55       P1  7921  0.87
      L1  H     9    40       P1  7948  0.77
      L1  H    12    41       P1  7948  0.69

> <Gold.Chemscore.Hbond.Weighted>
-9.5497

> <Gold.Chemscore.Metal.Weighted>
-0.0000

> <Gold.Chemscore.Lipo.Weighted>
-13.7686

> <Gold.Chemscore.Internal_Hbond.Weighted>
0.0000

> <Gold.Chemscore.DEClash.Weighted>
1.1047

> <Gold.Chemscore.DEInternal.Weighted>
1.8032

> <Gold.Chemscore.Rot.Weighted>
4.0899

> <Gold.Chemscore.Internal.Correction.Weighted>
   9.000000E+99

> <Gold.Protein.RotatedTorsions>
[ 6907 6896 6895 6894 ] final   10.49 input  -60.11 | X-H torsion
[ 7974 7965 7964 7962 ] final  -89.68 input  175.53 | X-H torsion
[ 8008 7997 7996 7995 ] final  -76.24 input   59.86 | X-H torsion
[ 10167 10162 10161 10158 ] final  178.46 input  -65.29 | X-H torsion
[ 10718 10713 10712 10709 ] final    1.15 input   66.30 | X-H torsion
[ 10763 10752 10751 10750 ] final   30.19 input  -60.55 | X-H torsion
[ 11005 11000 10999 10996 ] final -134.88 input  -57.11 | X-H torsion

> <Gold.Protein.ActiveResidues>
 VAL166  LYS551  ARG553  GLY616  TRP617  ASP618  TYR619  PRO620  LYS621  CYS622 
 ASP623  PHE694  ASN695  SER759  ASP760  ASP761  ALA762  ILE779  LEU786  VAL792 
 PHE793  MET794  SER795  GLU796  ALA797  LYS798  CYS799  TRP800  GLU811  SER814 

> <Gold.Protein.RotatedAtoms>
  151.7391  135.0858  160.0312 H   0  0  0  0  0  0  0  0  0  0  0  0  # atno 6907 bound_to 6896
  152.3491  133.6153  159.5940 H   0  0  0  0  0  0  0  0  0  0  0  0  # atno 6908 bound_to 6896
  150.7528  133.9519  159.3530 H   0  0  0  0  0  0  0  0  0  0  0  0  # atno 6909 bound_to 6896
  145.4366  140.9557  143.2098 H   0  0  0  0  0  0  0  0  0  0  0  0  # atno 7974 bound_to 7965
  154.5488  140.0730  156.8633 H   0  0  0  0  0  0  0  0  0  0  0  0  # atno 8008 bound_to 7997
  155.3035  140.3385  155.4228 H   0  0  0  0  0  0  0  0  0  0  0  0  # atno 8009 bound_to 7997
  156.1942  140.1697  156.8017 H   0  0  0  0  0  0  0  0  0  0  0  0  # atno 8010 bound_to 7997
  139.5295  144.2677  152.0654 H   0  0  0  0  0  0  0  0  0  0  0  0  # atno 10167 bound_to 10162
  156.8439  130.5530  149.5675 H   0  0  0  0  0  0  0  0  0  0  0  0  # atno 10718 bound_to 10713
  153.0386  135.6470  154.1006 H   0  0  0  0  0  0  0  0  0  0  0  0  # atno 10763 bound_to 10752
  154.0716  135.2880  155.3308 H   0  0  0  0  0  0  0  0  0  0  0  0  # atno 10764 bound_to 10752
  154.6590  135.5398  153.8059 H   0  0  0  0  0  0  0  0  0  0  0  0  # atno 10765 bound_to 10752
  140.8949  134.1764  157.4501 H   0  0  0  0  0  0  0  0  0  0  0  0  # atno 11005 bound_to 11000
  144.8148  139.5896  143.7013 LP  0  0  0  0  0  0  0  0  0  0  0  0  # atno 17320 bound_to 7965
  146.2579  139.6343  142.9382 LP  0  0  0  0  0  0  0  0  0  0  0  0  # atno 17321 bound_to 7965
  140.2138  144.4535  150.6373 LP  0  0  0  0  0  0  0  0  0  0  0  0  # atno 17342 bound_to 10162
  140.6463  143.2214  151.6178 LP  0  0  0  0  0  0  0  0  0  0  0  0  # atno 17343 bound_to 10162
  156.0865  130.5862  150.9657 LP  0  0  0  0  0  0  0  0  0  0  0  0  # atno 17370 bound_to 10713
  157.6340  131.0918  150.8385 LP  0  0  0  0  0  0  0  0  0  0  0  0  # atno 17371 bound_to 10713
  139.8734  134.9874  156.5367 LP  0  0  0  0  0  0  0  0  0  0  0  0  # atno 17394 bound_to 11000
  140.8301  133.8286  155.8976 LP  0  0  0  0  0  0  0  0  0  0  0  0  # atno 17395 bound_to 11000

$$$$
