AV-unprocessed.smi:9|AV-procd|sdf|50|dock3
  -GOLD-   2262015163D 1   1.00000     0.00000
 Structure written by MMmdl.
 34 36  0  0  0  0  0  0  0  0  2 V2000
  152.6400  138.1163  154.6414 O   0  0  0  0  0  0  0  0  0  0  0  0
  152.4207  138.6806  155.7115 C   0  0  0  0  0  0  0  0  0  0  0  0
  152.9814  138.3402  156.9146 N   0  5  0  0  0  0  0  0  0  0  0  0
  152.6679  139.0524  158.0781 C   0  0  0  0  0  0  0  0  0  0  0  0
  153.3431  138.5858  159.3642 C   0  0  0  0  0  0  0  0  0  0  0  0
  154.6711  138.5614  159.2314 F   0  0  0  0  0  0  0  0  0  0  0  0
  153.0417  139.4108  160.3669 F   0  0  0  0  0  0  0  0  0  0  0  0
  152.9489  137.3561  159.7015 F   0  0  0  0  0  0  0  0  0  0  0  0
  151.8499  140.0530  158.1476 N   0  0  0  0  0  0  0  0  0  0  0  0
  151.2656  140.4185  156.9547 C   0  0  0  0  0  0  0  0  0  0  0  0
  151.4766  139.8287  155.7405 C   0  0  0  0  0  0  0  0  0  0  0  0
  150.7367  140.4523  154.7422 N   0  0  0  0  0  0  0  0  0  0  0  0
  150.1009  141.4073  155.4213 C   0  0  0  0  0  0  0  0  0  0  0  0
  150.3539  141.4450  156.7452 N   0  0  0  0  0  0  0  0  0  0  0  0
  149.8027  142.3707  157.7241 C   0  0  0  0  0  0  0  0  0  0  0  0
  150.8355  143.3658  158.3138 C   0  0  2  0  0  0  0  0  0  0  0  0
  151.4000  144.0784  157.2288 O   0  0  0  0  0  0  0  0  0  0  0  0
  151.9606  142.6474  159.0918 C   0  0  0  0  0  0  0  0  0  0  0  0
  152.8192  143.6331  159.8908 C   0  0  0  0  0  0  0  0  0  0  0  0
  151.9268  144.5306  160.7547 C   0  0  0  0  0  0  0  0  0  0  0  0
  151.0259  145.2370  159.9134 O   0  0  0  0  0  0  0  0  0  0  0  0
  150.1121  144.3969  159.2123 C   0  0  0  0  0  0  0  0  0  0  0  0
  149.4231  142.0981  154.9418 H   0  0  0  0  0  0  0  0  0  0  0  0
  148.9762  142.9108  157.2598 H   0  0  0  0  0  0  0  0  0  0  0  0
  149.3608  141.7781  158.5261 H   0  0  0  0  0  0  0  0  0  0  0  0
  150.7023  144.3407  156.6482 H   0  0  0  0  0  0  0  0  0  0  0  0
  151.5158  141.9335  159.7864 H   0  0  0  0  0  0  0  0  0  0  0  0
  152.5948  142.0686  158.4191 H   0  0  0  0  0  0  0  0  0  0  0  0
  153.5269  143.0899  160.5176 H   0  0  0  0  0  0  0  0  0  0  0  0
  153.4110  144.2480  159.2118 H   0  0  0  0  0  0  0  0  0  0  0  0
  151.3771  143.9466  161.4946 H   0  0  0  0  0  0  0  0  0  0  0  0
  152.5362  145.2499  161.3019 H   0  0  0  0  0  0  0  0  0  0  0  0
  149.4401  145.0203  158.6212 H   0  0  0  0  0  0  0  0  0  0  0  0
  149.4881  143.8836  159.9457 H   0  0  0  0  0  0  0  0  0  0  0  0
  1  2  2  0  0  0  0
  2 11  1  0  0  0  0
  2  3  1  0  0  0  0
  3  4  1  0  0  0  0
  4  5  1  0  0  0  0
  4  9  2  0  0  0  0
  5  6  1  0  0  0  0
  5  7  1  0  0  0  0
  5  8  1  0  0  0  0
  9 10  1  0  0  0  0
 10 14  1  0  0  0  0
 10 11  2  0  0  0  0
 11 12  1  0  0  0  0
 12 13  2  0  0  0  0
 13 14  1  0  0  0  0
 13 23  1  0  0  0  0
 14 15  1  0  0  0  0
 15 16  1  0  0  0  0
 15 24  1  0  0  0  0
 15 25  1  0  0  0  0
 16 22  1  0  0  0  0
 16 17  1  0  0  0  0
 16 18  1  0  0  0  0
 17 26  1  0  0  0  0
 18 19  1  0  0  0  0
 18 27  1  0  0  0  0
 18 28  1  0  0  0  0
 19 20  1  0  0  0  0
 19 29  1  0  0  0  0
 19 30  1  0  0  0  0
 20 21  1  0  0  0  0
 20 31  1  0  0  0  0
 20 32  1  0  0  0  0
 21 22  1  0  0  0  0
 22 33  1  0  0  0  0
 22 34  1  0  0  0  0
M  CHG  1   3  -1
M  END
> <s_m_source_file>
AV-unprocessed.smi

> <i_m_source_file_index>
9

> <i_lp_mmshare_version>
43012

> <i_f3d_flags>
0

> <s_epik_input>
RkMoRikoRiljKG4xKVtuSF1jKD1PKWMoYzEyKW5bY0hdbjJbQ0gyXVtDQEBdMyhbT0hdKVtDSDJdW0NIMl1bQ0gyXU9bQ0gyXTM=

> <s_epik_cmdline>
J2VwaWtfcHl0aG9uJywgJy1waCcsICc3LjAnLCAnLXRuJywgJzgnLCAnLW1hJywgJzIwMCcsICctbWV0YWxfYmluZGluZycsICctaW1hZScsICc8aW5maWxlLm1hZT4nLCAnLW9tYWUnLCAnPG91dGZpbGUubWFlPic=

> <r_lp_tautomer_probability>
1

> <r_epik_Ionization_Penalty>
0.188582

> <r_epik_Ionization_Penalty_Charging>
1.37005e-11

> <r_epik_Ionization_Penalty_Neutral>
0.188582

> <r_epik_State_Penalty>
0.012336

> <r_epik_Charging_Adjusted_Penalty>
0.012336

> <i_epik_Tot_Q>
-1

> <i_epik_Tot_abs_Q>
1

> <r_epik_Metal_State_Penalty>
0.0089237

> <b_epik_Metal_Only>
0

> <s_lp_Force_Field>
OPLS_2005

> <r_lp_Energy>
37.4202

> <b_lp_Chiralities_Consistent>
1

> <s_lp_Variant>
AV-unprocessed.smi:9-2

> <Gold.Version>
5.8.1

> <Gold.Id.Protein>
6NUR|6NUR_protein|mol2

> <Gold.PLP.Fitness>
45.2166

> <Gold.PLP.PLP>
-37.9704

> <Gold.PLP.part.hbond>
-3.1169

> <Gold.PLP.part.metal>
0.0000

> <Gold.PLP.part.buried>
-3.7414

> <Gold.PLP.part.nonpolar>
-30.3252

> <Gold.PLP.part.repulsive>
0.3281

> <Gold.PLP.ligand.clash>
0.0000

> <Gold.PLP.ligand.torsion>
0.1587

> <Gold.PLP.Chemscore.Hbond>
2.0000

> <Gold.PLP.Chemscore.CHOScore>
0.5172

> <Gold.PLP.Chemscore.Metal>
0.0000

> <Gold.Chemscore.Hbonds>
donor molecule, donor type, donor heavy atom, donor atom, acceptor molecule, acceptor atom, score
      L1  H    17    26       P1  8028  0.89
      P1  H  7989  7998       L1    12  1.00
      L1  C    13    23       P1  8028  0.41

> <Gold.PLP.Chemscore.Internal.Correction>
0.0120

> <Gold.Rescore>
     Score         DG    S(hbond)    S(metal)    S(lipo)     H(rot)  DE(clash)    DE(int)     intcor
     13.28     -14.98       2.08        0.00      68.31       2.12       0.27       1.44       ----

> <Gold.Chemscore.Fitness>
13.2751

> <Gold.Chemscore.DG>
-14.9846

> <Gold.Chemscore.ZeroCoef>
-5.4800

> <Gold.Chemscore.Hbond>
2.0807

> <Gold.Chemscore.Metal>
0.0000

> <Gold.Chemscore.Lipo>
68.3105

> <Gold.Chemscore.Internal_Hbond>
0.0000

> <Gold.Chemscore.DEClash>
0.2685

> <Gold.Chemscore.DEInternal>
1.4411

> <Gold.Chemscore.Rot>
2.1239

> <Gold.Chemscore.Internal.Correction>
   9.000000E+99

> <Gold.Chemscore.Hbonds>
donor molecule, donor type, donor heavy atom, donor atom, acceptor molecule, acceptor atom, score
      L1  H    17    26       P1  8028  0.86
      P1  H  7989  7998       L1    12  0.78
      P1  H 10752 10763       L1     1  0.01

> <Gold.Chemscore.Hbond.Weighted>
-6.9496

> <Gold.Chemscore.Metal.Weighted>
-0.0000

> <Gold.Chemscore.Lipo.Weighted>
-7.9923

> <Gold.Chemscore.Internal_Hbond.Weighted>
0.0000

> <Gold.Chemscore.DEClash.Weighted>
0.2685

> <Gold.Chemscore.DEInternal.Weighted>
1.4411

> <Gold.Chemscore.Rot.Weighted>
5.4373

> <Gold.Chemscore.Internal.Correction.Weighted>
   9.000000E+99

> <Gold.Protein.RotatedTorsions>
[ 6907 6896 6895 6894 ] final  -50.18 input  -60.11 | X-H torsion
[ 7974 7965 7964 7962 ] final  -29.96 input  175.53 | X-H torsion
[ 8008 7997 7996 7995 ] final  -94.02 input   59.86 | X-H torsion
[ 10167 10162 10161 10158 ] final -161.77 input  -65.29 | X-H torsion
[ 10718 10713 10712 10709 ] final  130.47 input   66.30 | X-H torsion
[ 10763 10752 10751 10750 ] final   51.04 input  -60.55 | X-H torsion
[ 11005 11000 10999 10996 ] final -164.00 input  -57.11 | X-H torsion

> <Gold.Protein.ActiveResidues>
 VAL166  LYS551  ARG553  GLY616  TRP617  ASP618  TYR619  PRO620  LYS621  CYS622 
 ASP623  PHE694  ASN695  SER759  ASP760  ASP761  ALA762  ILE779  LEU786  VAL792 
 PHE793  MET794  SER795  GLU796  ALA797  LYS798  CYS799  TRP800  GLU811  SER814 

> <Gold.Protein.RotatedAtoms>
  150.8732  134.8110  159.7170 H   0  0  0  0  0  0  0  0  0  0  0  0  # atno 6907 bound_to 6896
  152.4729  134.4913  159.9706 H   0  0  0  0  0  0  0  0  0  0  0  0  # atno 6908 bound_to 6896
  151.4998  133.3468  159.2902 H   0  0  0  0  0  0  0  0  0  0  0  0  # atno 6909 bound_to 6896
  146.1178  140.5479  142.8749 H   0  0  0  0  0  0  0  0  0  0  0  0  # atno 7974 bound_to 7965
  154.7431  140.0493  157.0828 H   0  0  0  0  0  0  0  0  0  0  0  0  # atno 8008 bound_to 7997
  155.0153  140.3140  155.4795 H   0  0  0  0  0  0  0  0  0  0  0  0  # atno 8009 bound_to 7997
  156.2869  140.2177  156.5269 H   0  0  0  0  0  0  0  0  0  0  0  0  # atno 8010 bound_to 7997
  139.6441  144.0205  152.2114 H   0  0  0  0  0  0  0  0  0  0  0  0  # atno 10167 bound_to 10162
  157.5059  131.1095  150.9361 H   0  0  0  0  0  0  0  0  0  0  0  0  # atno 10718 bound_to 10713
  152.9785  135.5859  154.4351 H   0  0  0  0  0  0  0  0  0  0  0  0  # atno 10763 bound_to 10752
  154.3959  135.2768  155.2128 H   0  0  0  0  0  0  0  0  0  0  0  0  # atno 10764 bound_to 10752
  154.3980  135.6110  153.5935 H   0  0  0  0  0  0  0  0  0  0  0  0  # atno 10765 bound_to 10752
  140.5918  134.5037  157.5194 H   0  0  0  0  0  0  0  0  0  0  0  0  # atno 11005 bound_to 11000
  144.7569  140.5329  143.6762 LP  0  0  0  0  0  0  0  0  0  0  0  0  # atno 17320 bound_to 7965
  145.5529  139.1477  143.3384 LP  0  0  0  0  0  0  0  0  0  0  0  0  # atno 17321 bound_to 7965
  139.9902  144.6367  150.7821 LP  0  0  0  0  0  0  0  0  0  0  0  0  # atno 17342 bound_to 10162
  140.7505  143.2957  151.3210 LP  0  0  0  0  0  0  0  0  0  0  0  0  # atno 17343 bound_to 10162
  157.0017  130.5602  149.5312 LP  0  0  0  0  0  0  0  0  0  0  0  0  # atno 17370 bound_to 10713
  156.0258  130.5352  150.8402 LP  0  0  0  0  0  0  0  0  0  0  0  0  # atno 17371 bound_to 10713
  139.9271  134.8035  156.1038 LP  0  0  0  0  0  0  0  0  0  0  0  0  # atno 17394 bound_to 11000
  141.0930  133.6707  156.2582 LP  0  0  0  0  0  0  0  0  0  0  0  0  # atno 17395 bound_to 11000

$$$$
