AV-unprocessed.smi:244|AV-procd|sdf|1868|dock9
  -GOLD-   2262020503D 1   1.00000     0.00000
 Structure written by MMmdl.
 57 61  0  0  0  0  0  0  0  0  2 V2000
  143.9353  135.3191  150.8784 C   0  0  0  0  0  0  0  0  0  0  0  0
  144.4769  133.9792  151.1895 N   0  3  1  0  0  0  0  0  0  0  0  0
  143.7634  132.8971  150.4677 C   0  0  0  0  0  0  0  0  0  0  0  0
  144.2455  131.5176  150.9417 C   0  0  0  0  0  0  0  0  0  0  0  0
  145.7771  131.3834  150.7948 C   0  0  2  0  0  0  0  0  0  0  0  0
  146.2672  130.1243  151.2609 O   0  0  0  0  0  0  0  0  0  0  0  0
  146.2106  129.9478  152.6752 C   0  0  0  0  0  0  0  0  0  0  0  0
  146.9642  131.0850  153.3795 C   0  0  0  0  0  0  0  0  0  0  0  0
  146.4496  132.3780  152.9442 N   0  0  0  0  0  0  0  0  0  0  0  0
  146.9381  133.4010  153.6780 C   0  0  0  0  0  0  0  0  0  0  0  0
  146.0570  134.3588  154.0562 N   0  0  0  0  0  0  0  0  0  0  0  0
  146.4796  135.4076  154.7690 C   0  0  0  0  0  0  0  0  0  0  0  0
  147.7142  135.6855  155.1932 N   0  0  0  0  0  0  0  0  0  0  0  0
  148.6024  134.7251  154.8067 C   0  0  0  0  0  0  0  0  0  0  0  0
  148.3021  133.5566  154.0530 C   0  0  0  0  0  0  0  0  0  0  0  0
  149.4577  132.8135  153.8465 N   0  0  0  0  0  0  0  0  0  0  0  0
  150.3877  133.4987  154.4542 C   0  0  0  0  0  0  0  0  0  0  0  0
  149.9638  134.6673  155.0465 N   0  0  0  0  0  0  0  0  0  0  0  0
  150.7827  135.6225  155.7772 C   0  0  0  0  0  0  0  0  0  0  0  0
  151.1544  136.8876  154.9637 C   0  0  0  0  0  0  0  0  0  0  0  0
  151.7123  136.4650  153.7313 O   0  0  0  0  0  0  0  0  0  0  0  0
  149.8918  137.7215  154.6663 C   0  0  0  0  0  0  0  0  0  0  0  0
  150.2277  139.0746  154.0148 C   0  0  0  0  0  0  0  0  0  0  0  0
  151.1412  139.7940  154.8338 O   0  0  0  0  0  0  0  0  0  0  0  0
  152.3894  139.1283  154.9798 C   0  0  0  0  0  0  0  0  0  0  0  0
  152.1903  137.7759  155.6872 C   0  0  0  0  0  0  0  0  0  0  0  0
  146.5171  132.5501  151.4898 C   0  0  2  0  0  0  0  0  0  0  0  0
  145.9452  133.9000  150.9863 C   0  0  0  0  0  0  0  0  0  0  0  0
  144.0763  135.5638  149.8249 H   0  0  0  0  0  0  0  0  0  0  0  0
  144.4315  136.0829  151.4782 H   0  0  0  0  0  0  0  0  0  0  0  0
  142.8689  135.3645  151.1016 H   0  0  0  0  0  0  0  0  0  0  0  0
  142.6901  132.9855  150.6416 H   0  0  0  0  0  0  0  0  0  0  0  0
  143.9206  133.0053  149.3933 H   0  0  0  0  0  0  0  0  0  0  0  0
  143.9386  131.3892  151.9791 H   0  0  0  0  0  0  0  0  0  0  0  0
  143.7468  130.7324  150.3730 H   0  0  0  0  0  0  0  0  0  0  0  0
  146.0083  131.4234  149.7296 H   0  0  0  0  0  0  0  0  0  0  0  0
  145.1783  129.8921  153.0195 H   0  0  0  0  0  0  0  0  0  0  0  0
  146.6676  128.9901  152.9250 H   0  0  0  0  0  0  0  0  0  0  0  0
  146.8620  130.9849  154.4610 H   0  0  0  0  0  0  0  0  0  0  0  0
  148.0277  131.0121  153.1495 H   0  0  0  0  0  0  0  0  0  0  0  0
  145.7215  136.1293  155.0358 H   0  0  0  0  0  0  0  0  0  0  0  0
  151.4180  133.1740  154.4786 H   0  0  0  0  0  0  0  0  0  0  0  0
  150.2526  135.9010  156.6893 H   0  0  0  0  0  0  0  0  0  0  0  0
  151.6885  135.1077  156.1005 H   0  0  0  0  0  0  0  0  0  0  0  0
  151.0234  136.4315  153.0851 H   0  0  0  0  0  0  0  0  0  0  0  0
  149.2027  137.1613  154.0327 H   0  0  0  0  0  0  0  0  0  0  0  0
  149.3599  137.9134  155.5991 H   0  0  0  0  0  0  0  0  0  0  0  0
  150.6442  138.9393  153.0154 H   0  0  0  0  0  0  0  0  0  0  0  0
  149.3201  139.6672  153.8995 H   0  0  0  0  0  0  0  0  0  0  0  0
  152.8603  138.9965  154.0044 H   0  0  0  0  0  0  0  0  0  0  0  0
  153.0561  139.7598  155.5671 H   0  0  0  0  0  0  0  0  0  0  0  0
  151.8517  137.9640  156.7069 H   0  0  0  0  0  0  0  0  0  0  0  0
  153.1503  137.2655  155.7721 H   0  0  0  0  0  0  0  0  0  0  0  0
  147.5694  132.5014  151.2053 H   0  0  0  0  0  0  0  0  0  0  0  0
  146.1589  134.0106  149.9219 H   0  0  0  0  0  0  0  0  0  0  0  0
  146.4375  134.7414  151.4754 H   0  0  0  0  0  0  0  0  0  0  0  0
  144.3147  133.8287  152.1754 H   0  0  0  0  0  0  0  0  0  0  0  0
  1  2  1  0  0  0  0
  1 29  1  0  0  0  0
  1 30  1  0  0  0  0
  1 31  1  0  0  0  0
  2 28  1  0  0  0  0
  2  3  1  0  0  0  0
  2 57  1  0  0  0  0
  3  4  1  0  0  0  0
  3 32  1  0  0  0  0
  3 33  1  0  0  0  0
  4  5  1  0  0  0  0
  4 34  1  0  0  0  0
  4 35  1  0  0  0  0
  5 27  1  0  0  0  0
  5  6  1  0  0  0  0
  5 36  1  0  0  0  0
  6  7  1  0  0  0  0
  7  8  1  0  0  0  0
  7 37  1  0  0  0  0
  7 38  1  0  0  0  0
  8  9  1  0  0  0  0
  8 39  1  0  0  0  0
  8 40  1  0  0  0  0
  9 10  1  0  0  0  0
  9 27  1  0  0  0  0
 10 15  1  0  0  0  0
 10 11  2  0  0  0  0
 11 12  1  0  0  0  0
 12 13  2  0  0  0  0
 12 41  1  0  0  0  0
 13 14  1  0  0  0  0
 14 18  1  0  0  0  0
 14 15  2  0  0  0  0
 15 16  1  0  0  0  0
 16 17  2  0  0  0  0
 17 18  1  0  0  0  0
 17 42  1  0  0  0  0
 18 19  1  0  0  0  0
 19 20  1  0  0  0  0
 19 43  1  0  0  0  0
 19 44  1  0  0  0  0
 20 26  1  0  0  0  0
 20 21  1  0  0  0  0
 20 22  1  0  0  0  0
 21 45  1  0  0  0  0
 22 23  1  0  0  0  0
 22 46  1  0  0  0  0
 22 47  1  0  0  0  0
 23 24  1  0  0  0  0
 23 48  1  0  0  0  0
 23 49  1  0  0  0  0
 24 25  1  0  0  0  0
 25 26  1  0  0  0  0
 25 50  1  0  0  0  0
 25 51  1  0  0  0  0
 26 52  1  0  0  0  0
 26 53  1  0  0  0  0
 27 28  1  0  0  0  0
 27 54  1  0  0  0  0
 28 55  1  0  0  0  0
 28 56  1  0  0  0  0
M  CHG  1   2   1
M  END
> <s_m_source_file>
AV-unprocessed.smi

> <i_m_source_file_index>
244

> <i_lp_mmshare_version>
43012

> <i_f3d_flags>
0

> <s_epik_input>
W0NIMl0xW0NIMl1OKFtDSDNdKVtDSDJdW0NAQEhdKFtDQEhdMTIpTihbQ0gyXVtDSDJdTzIpYyhuW2NIXW4zKWMoYzM0KW5bY0hdbjRbQ0gyXUM1KFtPSF0pW0NIMl1bQ0gyXU9bQ0gyXVtDSDJdNQ==

> <s_epik_cmdline>
J2VwaWtfcHl0aG9uJywgJy1waCcsICc3LjAnLCAnLXRuJywgJzgnLCAnLW1hJywgJzIwMCcsICctbWV0YWxfYmluZGluZycsICctaW1hZScsICc8aW5maWxlLm1hZT4nLCAnLW9tYWUnLCAnPG91dGZpbGUubWFlPic=

> <r_lp_tautomer_probability>
1

> <r_epik_Ionization_Penalty>
0.0136215

> <r_epik_Ionization_Penalty_Charging>
0.0131385

> <r_epik_Ionization_Penalty_Neutral>
0.000483022

> <r_epik_State_Penalty>
0.0104001

> <r_epik_Charging_Adjusted_Penalty>
0.0235387

> <i_epik_Tot_Q>
1

> <i_epik_Tot_abs_Q>
1

> <r_epik_Metal_State_Penalty>
0.0104469

> <b_epik_Metal_Only>
0

> <s_lp_Force_Field>
OPLS_2005

> <r_lp_Energy>
48.7962

> <b_lp_Chiralities_Consistent>
1

> <s_lp_Variant>
AV-unprocessed.smi:244-5

> <Gold.Version>
5.8.1

> <Gold.Id.Protein>
6NUR|6NUR_protein|mol2

> <Gold.PLP.Fitness>
46.1346

> <Gold.PLP.PLP>
-41.5311

> <Gold.PLP.part.hbond>
-3.0000

> <Gold.PLP.part.metal>
0.0000

> <Gold.PLP.part.buried>
-6.8428

> <Gold.PLP.part.nonpolar>
-33.8272

> <Gold.PLP.part.repulsive>
1.6887

> <Gold.PLP.ligand.clash>
0.0000

> <Gold.PLP.ligand.torsion>
0.8750

> <Gold.PLP.Chemscore.Hbond>
2.0730

> <Gold.PLP.Chemscore.CHOScore>
0.0000

> <Gold.PLP.Chemscore.Metal>
0.0000

> <Gold.Chemscore.Hbonds>
donor molecule, donor type, donor heavy atom, donor atom, acceptor molecule, acceptor atom, score
      L1  H    21    45       P1  7949  0.54
      P1  H  7989  7998       L1    24  0.52
      P1  H 10752 10764       L1    21  1.00

> <Gold.PLP.Chemscore.Internal.Correction>
0.1345

> <Gold.Rescore>
     Score         DG    S(hbond)    S(metal)    S(lipo)     H(rot)  DE(clash)    DE(int)     intcor
     14.14     -16.44       1.17        0.00     106.04       2.09       0.67       1.62       ----

> <Gold.Chemscore.Fitness>
14.1444

> <Gold.Chemscore.DG>
-16.4353

> <Gold.Chemscore.ZeroCoef>
-5.4800

> <Gold.Chemscore.Hbond>
1.1683

> <Gold.Chemscore.Metal>
0.0000

> <Gold.Chemscore.Lipo>
106.0381

> <Gold.Chemscore.Internal_Hbond>
0.0000

> <Gold.Chemscore.DEClash>
0.6712

> <Gold.Chemscore.DEInternal>
1.6197

> <Gold.Chemscore.Rot>
2.0911

> <Gold.Chemscore.Internal.Correction>
   9.000000E+99

> <Gold.Chemscore.Hbonds>
donor molecule, donor type, donor heavy atom, donor atom, acceptor molecule, acceptor atom, score
      L1  H    21    45       P1  7949  0.14
      P1  H  7989  7998       L1    24  0.01
      P1  H 10752 10764       L1    21  0.82

> <Gold.Chemscore.Hbond.Weighted>
-3.9020

> <Gold.Chemscore.Metal.Weighted>
-0.0000

> <Gold.Chemscore.Lipo.Weighted>
-12.4065

> <Gold.Chemscore.Internal_Hbond.Weighted>
0.0000

> <Gold.Chemscore.DEClash.Weighted>
0.6712

> <Gold.Chemscore.DEInternal.Weighted>
1.6197

> <Gold.Chemscore.Rot.Weighted>
5.3531

> <Gold.Chemscore.Internal.Correction.Weighted>
   9.000000E+99

> <Gold.Protein.RotatedTorsions>
[ 6907 6896 6895 6894 ] final   10.04 input  -60.11 | X-H torsion
[ 7974 7965 7964 7962 ] final   38.92 input  175.53 | X-H torsion
[ 8008 7997 7996 7995 ] final  102.47 input   59.86 | X-H torsion
[ 10167 10162 10161 10158 ] final   64.80 input  -65.29 | X-H torsion
[ 10718 10713 10712 10709 ] final -166.19 input   66.30 | X-H torsion
[ 10763 10752 10751 10750 ] final -102.12 input  -60.55 | X-H torsion
[ 11005 11000 10999 10996 ] final  -18.81 input  -57.11 | X-H torsion

> <Gold.Protein.ActiveResidues>
 VAL166  LYS551  ARG553  GLY616  TRP617  ASP618  TYR619  PRO620  LYS621  CYS622 
 ASP623  PHE694  ASN695  SER759  ASP760  ASP761  ALA762  ILE779  LEU786  VAL792 
 PHE793  MET794  SER795  GLU796  ALA797  LYS798  CYS799  TRP800  GLU811  SER814 

> <Gold.Protein.RotatedAtoms>
  151.7318  135.0873  160.0301 H   0  0  0  0  0  0  0  0  0  0  0  0  # atno 6907 bound_to 6896
  152.3536  133.6205  159.5971 H   0  0  0  0  0  0  0  0  0  0  0  0  # atno 6908 bound_to 6896
  150.7556  133.9451  159.3510 H   0  0  0  0  0  0  0  0  0  0  0  0  # atno 6909 bound_to 6896
  146.1025  139.5714  142.9405 H   0  0  0  0  0  0  0  0  0  0  0  0  # atno 7974 bound_to 7965
  156.1396  140.3180  155.8475 H   0  0  0  0  0  0  0  0  0  0  0  0  # atno 8008 bound_to 7997
  155.4179  140.0510  157.3044 H   0  0  0  0  0  0  0  0  0  0  0  0  # atno 8009 bound_to 7997
  154.4965  140.2113  155.9448 H   0  0  0  0  0  0  0  0  0  0  0  0  # atno 8010 bound_to 7997
  140.1182  144.4755  150.6936 H   0  0  0  0  0  0  0  0  0  0  0  0  # atno 10167 bound_to 10162
  156.6643  130.9058  151.3034 H   0  0  0  0  0  0  0  0  0  0  0  0  # atno 10718 bound_to 10713
  154.7710  135.4872  153.9649 H   0  0  0  0  0  0  0  0  0  0  0  0  # atno 10763 bound_to 10752
  153.1367  135.6764  153.9098 H   0  0  0  0  0  0  0  0  0  0  0  0  # atno 10764 bound_to 10752
  153.8785  135.3135  155.3423 H   0  0  0  0  0  0  0  0  0  0  0  0  # atno 10765 bound_to 10752
  140.8304  133.8001  155.9753 H   0  0  0  0  0  0  0  0  0  0  0  0  # atno 11005 bound_to 11000
  145.5827  141.0380  143.2113 LP  0  0  0  0  0  0  0  0  0  0  0  0  # atno 17320 bound_to 7965
  144.7444  139.7361  143.7298 LP  0  0  0  0  0  0  0  0  0  0  0  0  # atno 17321 bound_to 7965
  140.6887  143.2364  151.5190 LP  0  0  0  0  0  0  0  0  0  0  0  0  # atno 17342 bound_to 10162
  139.5583  144.2221  152.1648 LP  0  0  0  0  0  0  0  0  0  0  0  0  # atno 17343 bound_to 10162
  157.7099  130.9428  150.1053 LP  0  0  0  0  0  0  0  0  0  0  0  0  # atno 17370 bound_to 10713
  156.1987  130.3659  149.8816 LP  0  0  0  0  0  0  0  0  0  0  0  0  # atno 17371 bound_to 10713
  140.9004  134.2386  157.5045 LP  0  0  0  0  0  0  0  0  0  0  0  0  # atno 17394 bound_to 11000
  139.8705  134.9703  156.4698 LP  0  0  0  0  0  0  0  0  0  0  0  0  # atno 17395 bound_to 11000

$$$$
