AV-unprocessed.smi:1209|AV-procd|sdf|5072|dock6
  -GOLD-   22720 4113D 1   1.00000     0.00000
 Structure written by MMmdl.
 49 51  0  0  0  0  0  0  0  0  2 V2000
  151.9701  140.6739  156.3168 C   0  0  0  0  0  0  0  0  0  0  0  0
  150.8719  139.9325  155.6347 C   0  0  0  0  0  0  0  0  0  0  0  0
  149.8136  139.2034  156.0965 C   0  0  0  0  0  0  0  0  0  0  0  0
  149.1559  138.7767  154.9097 C   0  0  0  0  0  0  0  0  0  0  0  0
  147.9129  137.9375  154.7767 C   0  0  0  0  0  0  0  0  0  0  0  0
  146.7857  138.6570  154.1714 N   0  0  0  0  0  0  0  0  0  0  0  0
  146.5916  139.9506  154.8213 C   0  0  0  0  0  0  0  0  0  0  0  0
  146.9708  138.8477  152.7319 C   0  0  0  0  0  0  0  0  0  0  0  0
  146.1847  137.8695  151.8291 C   0  0  1  0  0  0  0  0  0  0  0  0
  146.4799  138.1753  150.4833 O   0  0  0  0  0  0  0  0  0  0  0  0
  146.5553  136.3914  152.0643 C   0  0  0  0  0  0  0  0  0  0  0  0
  145.5414  135.4602  151.5530 N   0  0  0  0  0  0  0  0  0  0  0  0
  144.3610  135.7073  150.9223 C   0  0  0  0  0  0  0  0  0  0  0  0
  143.7885  134.5048  150.6378 N   0  3  0  0  0  0  0  0  0  0  0  0
  144.6112  133.4756  151.1012 C   0  0  0  0  0  0  0  0  0  0  0  0
  144.4621  132.0947  151.0474 C   0  0  0  0  0  0  0  0  0  0  0  0
  145.4901  131.3124  151.6207 C   0  0  0  0  0  0  0  0  0  0  0  0
  145.3588  129.7995  151.5792 C   0  0  0  0  0  0  0  0  0  0  0  0
  146.6215  131.9209  152.2238 C   0  0  0  0  0  0  0  0  0  0  0  0
  147.7207  131.0699  152.8370 C   0  0  0  0  0  0  0  0  0  0  0  0
  146.7543  133.3271  152.2684 C   0  0  0  0  0  0  0  0  0  0  0  0
  145.7343  134.0824  151.6958 C   0  0  0  0  0  0  0  0  0  0  0  0
  149.7733  139.2114  153.8237 N   0  0  0  0  0  0  0  0  0  0  0  0
  150.8703  139.9527  154.2769 O   0  0  0  0  0  0  0  0  0  0  0  0
  152.0916  140.3301  157.3443 H   0  0  0  0  0  0  0  0  0  0  0  0
  151.7568  141.7427  156.3401 H   0  0  0  0  0  0  0  0  0  0  0  0
  152.9180  140.5285  155.7984 H   0  0  0  0  0  0  0  0  0  0  0  0
  149.5465  139.0085  157.1242 H   0  0  0  0  0  0  0  0  0  0  0  0
  148.1255  137.0380  154.1962 H   0  0  0  0  0  0  0  0  0  0  0  0
  147.6467  137.5828  155.7702 H   0  0  0  0  0  0  0  0  0  0  0  0
  145.7417  140.4786  154.3877 H   0  0  0  0  0  0  0  0  0  0  0  0
  147.4740  140.5828  154.7127 H   0  0  0  0  0  0  0  0  0  0  0  0
  146.3864  139.8341  155.8857 H   0  0  0  0  0  0  0  0  0  0  0  0
  146.6855  139.8632  152.4519 H   0  0  0  0  0  0  0  0  0  0  0  0
  148.0372  138.7818  152.5152 H   0  0  0  0  0  0  0  0  0  0  0  0
  145.1106  137.9837  151.9596 H   0  0  0  0  0  0  0  0  0  0  0  0
  145.6649  138.2849  150.0168 H   0  0  0  0  0  0  0  0  0  0  0  0
  147.5091  136.1460  151.5947 H   0  0  0  0  0  0  0  0  0  0  0  0
  146.6730  136.1944  153.1310 H   0  0  0  0  0  0  0  0  0  0  0  0
  143.9568  136.6803  150.6823 H   0  0  0  0  0  0  0  0  0  0  0  0
  143.5980  131.6380  150.5876 H   0  0  0  0  0  0  0  0  0  0  0  0
  146.1820  129.3594  151.0159 H   0  0  0  0  0  0  0  0  0  0  0  0
  144.4272  129.4923  151.1029 H   0  0  0  0  0  0  0  0  0  0  0  0
  145.3681  129.3864  152.5881 H   0  0  0  0  0  0  0  0  0  0  0  0
  148.5235  131.6861  153.2434 H   0  0  0  0  0  0  0  0  0  0  0  0
  148.1564  130.4087  152.0879 H   0  0  0  0  0  0  0  0  0  0  0  0
  147.3249  130.4606  153.6499 H   0  0  0  0  0  0  0  0  0  0  0  0
  147.6143  133.7916  152.7284 H   0  0  0  0  0  0  0  0  0  0  0  0
  142.9012  134.3973  150.1630 H   0  0  0  0  0  0  0  0  0  0  0  0
  1  2  1  0  0  0  0
  1 25  1  0  0  0  0
  1 26  1  0  0  0  0
  1 27  1  0  0  0  0
  2 24  1  0  0  0  0
  2  3  2  0  0  0  0
  3  4  1  0  0  0  0
  3 28  1  0  0  0  0
  4  5  1  0  0  0  0
  4 23  2  0  0  0  0
  5  6  1  0  0  0  0
  5 29  1  0  0  0  0
  5 30  1  0  0  0  0
  6  7  1  0  0  0  0
  6  8  1  0  0  0  0
  7 31  1  0  0  0  0
  7 32  1  0  0  0  0
  7 33  1  0  0  0  0
  8  9  1  0  0  0  0
  8 34  1  0  0  0  0
  8 35  1  0  0  0  0
  9 10  1  0  0  0  0
  9 11  1  0  0  0  0
  9 36  1  0  0  0  0
 10 37  1  0  0  0  0
 11 12  1  0  0  0  0
 11 38  1  0  0  0  0
 11 39  1  0  0  0  0
 12 22  1  0  0  0  0
 12 13  1  0  0  0  0
 13 14  2  0  0  0  0
 13 40  1  0  0  0  0
 14 15  1  0  0  0  0
 14 49  1  0  0  0  0
 15 22  2  0  0  0  0
 15 16  1  0  0  0  0
 16 17  2  0  0  0  0
 16 41  1  0  0  0  0
 17 18  1  0  0  0  0
 17 19  1  0  0  0  0
 18 42  1  0  0  0  0
 18 43  1  0  0  0  0
 18 44  1  0  0  0  0
 19 20  1  0  0  0  0
 19 21  2  0  0  0  0
 20 45  1  0  0  0  0
 20 46  1  0  0  0  0
 20 47  1  0  0  0  0
 21 22  1  0  0  0  0
 21 48  1  0  0  0  0
 23 24  1  0  0  0  0
M  CHG  1  14   1
M  END
> <s_m_source_file>
AV-unprocessed.smi

> <i_m_source_file_index>
1209

> <i_lp_mmshare_version>
43012

> <i_f3d_flags>
0

> <s_epik_input>
W0NIM11jMVtjSF1jKG5vMSlbQ0gyXU4oW0NIM10pW0NIMl1bQ0BIXShbT0hdKVtDSDJdbihbY0hdbjIpYyhjMjMpW2NIXWMoW0NIM10pYyhbY0hdMylbQ0gzXQ==

> <s_epik_cmdline>
J2VwaWtfcHl0aG9uJywgJy1waCcsICc3LjAnLCAnLXRuJywgJzgnLCAnLW1hJywgJzIwMCcsICctbWV0YWxfYmluZGluZycsICctaW1hZScsICc8aW5maWxlLm1hZT4nLCAnLW9tYWUnLCAnPG91dGZpbGUubWFlPic=

> <r_epik_Ionization_Penalty>
1.23608

> <r_epik_Ionization_Penalty_Charging>
1.21624

> <r_epik_Ionization_Penalty_Neutral>
0.0198409

> <r_epik_State_Penalty>
1.27749

> <r_epik_Charging_Adjusted_Penalty>
2.49372

> <i_epik_Tot_Q>
1

> <i_epik_Tot_abs_Q>
1

> <r_epik_Metal_State_Penalty>
1.34809

> <b_epik_Metal_Only>
0

> <s_lp_Force_Field>
OPLS_2005

> <r_lp_Energy>
23.0789

> <b_lp_Chiralities_Consistent>
1

> <s_lp_Variant>
AV-unprocessed.smi:1209-4

> <Gold.Version>
5.8.1

> <Gold.Id.Protein>
6NUR|6NUR_protein|mol2

> <Gold.PLP.Fitness>
51.7102

> <Gold.PLP.PLP>
-35.6850

> <Gold.PLP.part.hbond>
-4.0234

> <Gold.PLP.part.metal>
0.0000

> <Gold.PLP.part.buried>
-0.9222

> <Gold.PLP.part.nonpolar>
-31.7458

> <Gold.PLP.part.repulsive>
1.3826

> <Gold.PLP.ligand.clash>
0.0000

> <Gold.PLP.ligand.torsion>
0.8769

> <Gold.PLP.Chemscore.Hbond>
4.8960

> <Gold.PLP.Chemscore.CHOScore>
1.0000

> <Gold.PLP.Chemscore.Metal>
0.0000

> <Gold.Chemscore.Hbonds>
donor molecule, donor type, donor heavy atom, donor atom, acceptor molecule, acceptor atom, score
      L1  H    10    37       P1 10171  1.00
      L1  H    14    49       P1 10186  2.00
      P1  H  7954  7966       L1    10  0.88
      P1  H  7989  7998       L1    24  0.73
      L1  C    13    40       P1 10171  1.00

> <Gold.PLP.Chemscore.Internal.Correction>
0.0910

> <Gold.Rescore>
     Score         DG    S(hbond)    S(metal)    S(lipo)     H(rot)  DE(clash)    DE(int)     intcor
     19.22     -22.27       3.57        0.00      96.75       2.53       2.13       0.92       ----

> <Gold.Chemscore.Fitness>
19.2211

> <Gold.Chemscore.DG>
-22.2686

> <Gold.Chemscore.ZeroCoef>
-5.4800

> <Gold.Chemscore.Hbond>
3.5738

> <Gold.Chemscore.Metal>
0.0000

> <Gold.Chemscore.Lipo>
96.7503

> <Gold.Chemscore.Internal_Hbond>
0.0000

> <Gold.Chemscore.DEClash>
2.1316

> <Gold.Chemscore.DEInternal>
0.9159

> <Gold.Chemscore.Rot>
2.5265

> <Gold.Chemscore.Internal.Correction>
   9.000000E+99

> <Gold.Chemscore.Hbonds>
donor molecule, donor type, donor heavy atom, donor atom, acceptor molecule, acceptor atom, score
      L1  H    10    37       P1 10171  0.99
      L1  H    14    49       P1 10186  0.83
      P1  H  7954  7966       L1    10  0.84
      P1  H  7989  7998       L1    24  0.72

> <Gold.Chemscore.Hbond.Weighted>
-11.9366

> <Gold.Chemscore.Metal.Weighted>
-0.0000

> <Gold.Chemscore.Lipo.Weighted>
-11.3198

> <Gold.Chemscore.Internal_Hbond.Weighted>
0.0000

> <Gold.Chemscore.DEClash.Weighted>
2.1316

> <Gold.Chemscore.DEInternal.Weighted>
0.9159

> <Gold.Chemscore.Rot.Weighted>
6.4677

> <Gold.Chemscore.Internal.Correction.Weighted>
   9.000000E+99

> <Gold.Protein.RotatedTorsions>
[ 6907 6896 6895 6894 ] final   37.64 input  -60.11 | X-H torsion
[ 7974 7965 7964 7962 ] final   51.56 input  175.53 | X-H torsion
[ 8008 7997 7996 7995 ] final  -90.62 input   59.86 | X-H torsion
[ 10167 10162 10161 10158 ] final   87.24 input  -65.29 | X-H torsion
[ 10718 10713 10712 10709 ] final -171.64 input   66.30 | X-H torsion
[ 10763 10752 10751 10750 ] final  -51.93 input  -60.55 | X-H torsion
[ 11005 11000 10999 10996 ] final  -97.10 input  -57.11 | X-H torsion

> <Gold.Protein.ActiveResidues>
 VAL166  LYS551  ARG553  GLY616  TRP617  ASP618  TYR619  PRO620  LYS621  CYS622 
 ASP623  PHE694  ASN695  SER759  ASP760  ASP761  ALA762  ILE779  LEU786  VAL792 
 PHE793  MET794  SER795  GLU796  ALA797  LYS798  CYS799  TRP800  GLU811  SER814 

> <Gold.Protein.RotatedAtoms>
  152.1459  134.9026  160.0550 H   0  0  0  0  0  0  0  0  0  0  0  0  # atno 6907 bound_to 6896
  152.0077  133.3844  159.4215 H   0  0  0  0  0  0  0  0  0  0  0  0  # atno 6908 bound_to 6896
  150.6870  134.3687  159.5026 H   0  0  0  0  0  0  0  0  0  0  0  0  # atno 6909 bound_to 6896
  145.9901  139.4330  143.0078 H   0  0  0  0  0  0  0  0  0  0  0  0  # atno 7974 bound_to 7965
  154.7008  140.0528  157.0456 H   0  0  0  0  0  0  0  0  0  0  0  0  # atno 8008 bound_to 7997
  155.0688  140.3197  155.4618 H   0  0  0  0  0  0  0  0  0  0  0  0  # atno 8009 bound_to 7997
  156.2759  140.2085  156.5815 H   0  0  0  0  0  0  0  0  0  0  0  0  # atno 8010 bound_to 7997
  139.8794  144.6448  150.8860 H   0  0  0  0  0  0  0  0  0  0  0  0  # atno 10167 bound_to 10162
  156.7438  130.9352  151.3111 H   0  0  0  0  0  0  0  0  0  0  0  0  # atno 10718 bound_to 10713
  154.1345  135.6515  153.4929 H   0  0  0  0  0  0  0  0  0  0  0  0  # atno 10763 bound_to 10752
  153.0185  135.5301  154.6967 H   0  0  0  0  0  0  0  0  0  0  0  0  # atno 10764 bound_to 10752
  154.6211  135.2965  155.0295 H   0  0  0  0  0  0  0  0  0  0  0  0  # atno 10765 bound_to 10752
  141.1390  133.8146  157.0660 H   0  0  0  0  0  0  0  0  0  0  0  0  # atno 11005 bound_to 11000
  145.7642  140.9923  143.1184 LP  0  0  0  0  0  0  0  0  0  0  0  0  # atno 17320 bound_to 7965
  144.6886  139.9367  143.7473 LP  0  0  0  0  0  0  0  0  0  0  0  0  # atno 17321 bound_to 7965
  140.7747  143.3598  151.1850 LP  0  0  0  0  0  0  0  0  0  0  0  0  # atno 17342 bound_to 10162
  139.7210  143.9223  152.2985 LP  0  0  0  0  0  0  0  0  0  0  0  0  # atno 17343 bound_to 10162
  157.6807  130.9137  150.0260 LP  0  0  0  0  0  0  0  0  0  0  0  0  # atno 17370 bound_to 10713
  156.1447  130.3642  149.9529 LP  0  0  0  0  0  0  0  0  0  0  0  0  # atno 17371 bound_to 10713
  140.0541  134.9790  157.1189 LP  0  0  0  0  0  0  0  0  0  0  0  0  # atno 17394 bound_to 11000
  140.3945  134.2148  155.7165 LP  0  0  0  0  0  0  0  0  0  0  0  0  # atno 17395 bound_to 11000

$$$$
