AV-unprocessed.smi:375|AV-procd|sdf|2454|dock8
  -GOLD-   2262022393D 1   1.00000     0.00000
 Structure written by MMmdl.
 36 38  0  0  0  0  0  0  0  0  1 V2000
  153.9372  140.9494  160.1595 C   0  0  0  0  0  0  0  0  0  0  0  0
  152.9676  141.5592  159.2576 N   0  0  0  0  0  0  0  0  0  0  0  0
  152.4357  141.0118  158.1394 C   0  0  0  0  0  0  0  0  0  0  0  0
  152.6868  139.8934  157.6908 O   0  0  0  0  0  0  0  0  0  0  0  0
  151.5798  141.9114  157.5995 N   0  0  0  0  0  0  0  0  0  0  0  0
  150.7980  141.7448  156.3759 C   0  0  0  0  0  0  0  0  0  0  0  0
  149.3495  141.3106  156.6748 C   0  0  1  0  0  0  0  0  0  0  0  0
  148.7155  142.3325  157.4196 O   0  0  0  0  0  0  0  0  0  0  0  0
  148.5990  141.0100  155.3835 C   0  0  0  0  0  0  0  0  0  0  0  0
  147.4752  141.7829  155.0128 C   0  0  0  0  0  0  0  0  0  0  0  0
  146.7880  141.5128  153.8137 C   0  0  0  0  0  0  0  0  0  0  0  0
  147.2219  140.4704  152.9733 C   0  0  0  0  0  0  0  0  0  0  0  0
  148.3453  139.7017  153.3313 C   0  0  0  0  0  0  0  0  0  0  0  0
  149.0346  139.9700  154.5302 C   0  0  0  0  0  0  0  0  0  0  0  0
  150.1194  139.2249  154.8524 F   0  0  0  0  0  0  0  0  0  0  0  0
  151.5705  143.0692  158.3907 C   0  0  0  0  0  0  0  0  0  0  0  0
  150.8669  144.2786  158.2548 C   0  0  0  0  0  0  0  0  0  0  0  0
  151.0862  145.2679  159.2421 C   0  0  0  0  0  0  0  0  0  0  0  0
  151.9813  145.0352  160.3188 C   0  0  0  0  0  0  0  0  0  0  0  0
  152.6781  143.8090  160.4301 C   0  0  0  0  0  0  0  0  0  0  0  0
  152.4423  142.8452  159.4350 C   0  0  0  0  0  0  0  0  0  0  0  0
  154.2695  139.9726  159.8059 H   0  0  0  0  0  0  0  0  0  0  0  0
  153.4994  140.8198  161.1495 H   0  0  0  0  0  0  0  0  0  0  0  0
  154.8163  141.5874  160.2550 H   0  0  0  0  0  0  0  0  0  0  0  0
  150.8206  142.6465  155.7611 H   0  0  0  0  0  0  0  0  0  0  0  0
  151.2936  140.9737  155.7849 H   0  0  0  0  0  0  0  0  0  0  0  0
  149.3509  140.4141  157.2958 H   0  0  0  0  0  0  0  0  0  0  0  0
  148.4689  143.0263  156.8271 H   0  0  0  0  0  0  0  0  0  0  0  0
  147.1371  142.5903  155.6458 H   0  0  0  0  0  0  0  0  0  0  0  0
  145.9291  142.1068  153.5380 H   0  0  0  0  0  0  0  0  0  0  0  0
  146.6959  140.2632  152.0530 H   0  0  0  0  0  0  0  0  0  0  0  0
  148.6815  138.9054  152.6836 H   0  0  0  0  0  0  0  0  0  0  0  0
  150.1879  144.4500  157.4328 H   0  0  0  0  0  0  0  0  0  0  0  0
  150.5659  146.2120  159.1751 H   0  0  0  0  0  0  0  0  0  0  0  0
  152.1337  145.8041  161.0619 H   0  0  0  0  0  0  0  0  0  0  0  0
  153.3622  143.6243  161.2450 H   0  0  0  0  0  0  0  0  0  0  0  0
  1  2  1  0  0  0  0
  1 22  1  0  0  0  0
  1 23  1  0  0  0  0
  1 24  1  0  0  0  0
  2 21  1  0  0  0  0
  2  3  1  0  0  0  0
  3  4  2  0  0  0  0
  3  5  1  0  0  0  0
  5  6  1  0  0  0  0
  5 16  1  0  0  0  0
  6  7  1  0  0  0  0
  6 25  1  0  0  0  0
  6 26  1  0  0  0  0
  7  8  1  0  0  0  0
  7  9  1  0  0  0  0
  7 27  1  0  0  0  0
  8 28  1  0  0  0  0
  9 14  1  0  0  0  0
  9 10  2  0  0  0  0
 10 11  1  0  0  0  0
 10 29  1  0  0  0  0
 11 12  2  0  0  0  0
 11 30  1  0  0  0  0
 12 13  1  0  0  0  0
 12 31  1  0  0  0  0
 13 14  2  0  0  0  0
 13 32  1  0  0  0  0
 14 15  1  0  0  0  0
 16 21  2  0  0  0  0
 16 17  1  0  0  0  0
 17 18  2  0  0  0  0
 17 33  1  0  0  0  0
 18 19  1  0  0  0  0
 18 34  1  0  0  0  0
 19 20  2  0  0  0  0
 19 35  1  0  0  0  0
 20 21  1  0  0  0  0
 20 36  1  0  0  0  0
M  END
> <s_m_source_file>
AV-unprocessed.smi

> <i_m_source_file_index>
375

> <i_lp_mmshare_version>
43012

> <i_f3d_flags>
0

> <s_epik_input>
W2NIXTFbY0hdW2NIXVtjSF1jKGMxMiluKFtDSDNdKWMoPU8pbjJbQ0gyXVtDQEhdKFtPSF0pYzNbY0hdW2NIXVtjSF1bY0hdYzNG

> <s_epik_cmdline>
J2VwaWtfcHl0aG9uJywgJy1waCcsICc3LjAnLCAnLXRuJywgJzgnLCAnLW1hJywgJzIwMCcsICctbWV0YWxfYmluZGluZycsICctaW1hZScsICc8aW5maWxlLm1hZT4nLCAnLW9tYWUnLCAnPG91dGZpbGUubWFlPic=

> <r_lp_tautomer_probability>
1

> <r_epik_Ionization_Penalty>
1.34619e-06

> <r_epik_Ionization_Penalty_Charging>
2.57375e-09

> <r_epik_Ionization_Penalty_Neutral>
1.34362e-06

> <r_epik_State_Penalty>
-0

> <r_epik_Charging_Adjusted_Penalty>
2.57375e-09

> <i_epik_Tot_Q>
0

> <i_epik_Tot_abs_Q>
0

> <r_epik_Metal_State_Penalty>
-0

> <b_epik_Metal_Only>
0

> <s_lp_Force_Field>
OPLS_2005

> <r_lp_Energy>
44.2188

> <b_lp_Chiralities_Consistent>
1

> <s_lp_Variant>
AV-unprocessed.smi:375-2

> <Gold.Version>
5.8.1

> <Gold.Id.Protein>
6NUR|6NUR_protein|mol2

> <Gold.PLP.Fitness>
53.0571

> <Gold.PLP.PLP>
-47.7780

> <Gold.PLP.part.hbond>
-2.0000

> <Gold.PLP.part.metal>
0.0000

> <Gold.PLP.part.buried>
-0.9460

> <Gold.PLP.part.nonpolar>
-44.3664

> <Gold.PLP.part.repulsive>
0.0000

> <Gold.PLP.ligand.clash>
0.0000

> <Gold.PLP.ligand.torsion>
0.3513

> <Gold.PLP.Chemscore.Hbond>
1.9913

> <Gold.PLP.Chemscore.CHOScore>
0.0000

> <Gold.PLP.Chemscore.Metal>
0.0000

> <Gold.Chemscore.Hbonds>
donor molecule, donor type, donor heavy atom, donor atom, acceptor molecule, acceptor atom, score
      L1  H     8    28       P1  8028  0.86
      P1  H  7997  8008       L1     4  1.00

> <Gold.PLP.Chemscore.Internal.Correction>
0.0080

> <Gold.Rescore>
     Score         DG    S(hbond)    S(metal)    S(lipo)     H(rot)  DE(clash)    DE(int)     intcor
     18.29     -20.74       1.46        0.00     129.14       1.85       1.88       0.56       ----

> <Gold.Chemscore.Fitness>
18.2928

> <Gold.Chemscore.DG>
-20.7352

> <Gold.Chemscore.ZeroCoef>
-5.4800

> <Gold.Chemscore.Hbond>
1.4589

> <Gold.Chemscore.Metal>
0.0000

> <Gold.Chemscore.Lipo>
129.1408

> <Gold.Chemscore.Internal_Hbond>
0.0000

> <Gold.Chemscore.DEClash>
1.8783

> <Gold.Chemscore.DEInternal>
0.5641

> <Gold.Chemscore.Rot>
1.8465

> <Gold.Chemscore.Internal.Correction>
   9.000000E+99

> <Gold.Chemscore.Hbonds>
donor molecule, donor type, donor heavy atom, donor atom, acceptor molecule, acceptor atom, score
      L1  H     8    28       P1  8028  0.45
      P1  H  7997  8008       L1     4  0.49

> <Gold.Chemscore.Hbond.Weighted>
-4.8728

> <Gold.Chemscore.Metal.Weighted>
-0.0000

> <Gold.Chemscore.Lipo.Weighted>
-15.1095

> <Gold.Chemscore.Internal_Hbond.Weighted>
0.0000

> <Gold.Chemscore.DEClash.Weighted>
1.8783

> <Gold.Chemscore.DEInternal.Weighted>
0.5641

> <Gold.Chemscore.Rot.Weighted>
4.7270

> <Gold.Chemscore.Internal.Correction.Weighted>
   9.000000E+99

> <Gold.Protein.RotatedTorsions>
[ 6907 6896 6895 6894 ] final  -71.20 input  -60.11 | X-H torsion
[ 7974 7965 7964 7962 ] final -114.73 input  175.53 | X-H torsion
[ 8008 7997 7996 7995 ] final  -75.44 input   59.86 | X-H torsion
[ 10167 10162 10161 10158 ] final -102.31 input  -65.29 | X-H torsion
[ 10718 10713 10712 10709 ] final -118.41 input   66.30 | X-H torsion
[ 10763 10752 10751 10750 ] final   63.28 input  -60.55 | X-H torsion
[ 11005 11000 10999 10996 ] final  -99.16 input  -57.11 | X-H torsion

> <Gold.Protein.ActiveResidues>
 VAL166  LYS551  ARG553  GLY616  TRP617  ASP618  TYR619  PRO620  LYS621  CYS622 
 ASP623  PHE694  ASN695  SER759  ASP760  ASP761  ALA762  ILE779  LEU786  VAL792 
 PHE793  MET794  SER795  GLU796  ALA797  LYS798  CYS799  TRP800  GLU811  SER814 

> <Gold.Protein.RotatedAtoms>
  150.7223  134.5343  159.5715 H   0  0  0  0  0  0  0  0  0  0  0  0  # atno 6907 bound_to 6896
  152.2869  134.7763  160.0394 H   0  0  0  0  0  0  0  0  0  0  0  0  # atno 6908 bound_to 6896
  151.8390  133.3385  159.3673 H   0  0  0  0  0  0  0  0  0  0  0  0  # atno 6909 bound_to 6896
  145.1167  140.8644  143.3838 H   0  0  0  0  0  0  0  0  0  0  0  0  # atno 7974 bound_to 7965
  154.5417  140.0744  156.8521 H   0  0  0  0  0  0  0  0  0  0  0  0  # atno 8008 bound_to 7997
  155.3167  140.3393  155.4224 H   0  0  0  0  0  0  0  0  0  0  0  0  # atno 8009 bound_to 7997
  156.1880  140.1676  156.8133 H   0  0  0  0  0  0  0  0  0  0  0  0  # atno 8010 bound_to 7997
  140.2321  143.3599  152.0878 H   0  0  0  0  0  0  0  0  0  0  0  0  # atno 10167 bound_to 10162
  156.1104  130.6244  150.9288 H   0  0  0  0  0  0  0  0  0  0  0  0  # atno 10718 bound_to 10713
  153.0012  135.5434  154.6327 H   0  0  0  0  0  0  0  0  0  0  0  0  # atno 10763 bound_to 10752
  154.5601  135.2833  155.0929 H   0  0  0  0  0  0  0  0  0  0  0  0  # atno 10764 bound_to 10752
  154.2135  135.6463  153.5175 H   0  0  0  0  0  0  0  0  0  0  0  0  # atno 10765 bound_to 10752
  141.1319  133.8300  157.0934 H   0  0  0  0  0  0  0  0  0  0  0  0  # atno 11005 bound_to 11000
  145.0786  139.2977  143.5795 LP  0  0  0  0  0  0  0  0  0  0  0  0  # atno 17320 bound_to 7965
  146.3523  140.0285  142.8652 LP  0  0  0  0  0  0  0  0  0  0  0  0  # atno 17321 bound_to 7965
  139.5106  144.6887  151.5817 LP  0  0  0  0  0  0  0  0  0  0  0  0  # atno 17342 bound_to 10162
  140.6177  143.9317  150.6502 LP  0  0  0  0  0  0  0  0  0  0  0  0  # atno 17343 bound_to 10162
  157.6285  131.0923  150.8487 LP  0  0  0  0  0  0  0  0  0  0  0  0  # atno 17370 bound_to 10713
  156.8599  130.5109  149.5304 LP  0  0  0  0  0  0  0  0  0  0  0  0  # atno 17371 bound_to 10713
  140.0378  134.9869  157.0904 LP  0  0  0  0  0  0  0  0  0  0  0  0  # atno 17394 bound_to 11000
  140.4183  134.1907  155.7164 LP  0  0  0  0  0  0  0  0  0  0  0  0  # atno 17395 bound_to 11000

$$$$
