AV-unprocessed.smi:62|AV-procd|sdf|603|dock6
  -GOLD-   2262016493D 1   1.00000     0.00000
 Structure written by MMmdl.
 31 32  0  0  0  0  0  0  0  0  3 V2000
  148.2528  132.1930  153.6065 C   0  0  0  0  0  0  0  0  0  0  0  0
  149.1123  133.1053  154.3297 N   0  0  0  0  0  0  0  0  0  0  0  0
  149.2140  134.4721  154.2088 C   0  0  0  0  0  0  0  0  0  0  0  0
  150.1579  134.9055  155.0986 C   0  0  0  0  0  0  0  0  0  0  0  0
  150.5938  136.3366  155.3079 C   0  0  0  0  0  0  0  0  0  0  0  0
  149.8051  137.2724  154.4725 N   0  3  1  0  0  0  0  0  0  0  0  0
  148.4623  137.6098  154.9943 C   0  0  0  0  0  0  0  0  0  0  0  0
  148.1426  138.9830  154.4123 C   0  0  0  0  0  0  0  0  0  0  0  0
  149.5035  139.6712  154.4393 C   0  0  2  0  0  0  0  0  0  0  0  0
  149.5865  140.7194  153.4969 O   0  0  0  0  0  0  0  0  0  0  0  0
  150.4990  138.5403  154.1453 C   0  0  0  0  0  0  0  0  0  0  0  0
  150.5881  133.6904  155.7327 C   0  0  0  0  0  0  0  0  0  0  0  0
  151.6531  133.6686  156.7972 C   0  0  0  0  0  0  0  0  0  0  0  0
  152.3737  134.6744  156.9815 O   0  0  0  0  0  0  0  0  0  0  0  0
  151.7900  132.6214  157.4661 O   0  5  0  0  0  0  0  0  0  0  0  0
  149.9535  132.6246  155.2637 N   0  0  0  0  0  0  0  0  0  0  0  0
  147.6528  132.7406  152.8793 H   0  0  0  0  0  0  0  0  0  0  0  0
  147.5871  131.6827  154.3034 H   0  0  0  0  0  0  0  0  0  0  0  0
  148.8579  131.4529  153.0818 H   0  0  0  0  0  0  0  0  0  0  0  0
  148.6092  135.0235  153.5039 H   0  0  0  0  0  0  0  0  0  0  0  0
  150.4897  136.6281  156.3541 H   0  0  0  0  0  0  0  0  0  0  0  0
  151.6522  136.4560  155.0737 H   0  0  0  0  0  0  0  0  0  0  0  0
  147.7232  136.8564  154.7193 H   0  0  0  0  0  0  0  0  0  0  0  0
  148.4923  137.6725  156.0835 H   0  0  0  0  0  0  0  0  0  0  0  0
  147.7897  138.8721  153.3855 H   0  0  0  0  0  0  0  0  0  0  0  0
  147.3804  139.5200  154.9777 H   0  0  0  0  0  0  0  0  0  0  0  0
  149.6881  140.0682  155.4385 H   0  0  0  0  0  0  0  0  0  0  0  0
  149.3843  140.3738  152.6406 H   0  0  0  0  0  0  0  0  0  0  0  0
  151.4221  138.6740  154.7115 H   0  0  0  0  0  0  0  0  0  0  0  0
  150.7644  138.5075  153.0876 H   0  0  0  0  0  0  0  0  0  0  0  0
  149.6595  136.8077  153.5862 H   0  0  0  0  0  0  0  0  0  0  0  0
  1  2  1  0  0  0  0
  1 17  1  0  0  0  0
  1 18  1  0  0  0  0
  1 19  1  0  0  0  0
  2 16  1  0  0  0  0
  2  3  1  0  0  0  0
  3  4  2  0  0  0  0
  3 20  1  0  0  0  0
  4  5  1  0  0  0  0
  4 12  1  0  0  0  0
  5  6  1  0  0  0  0
  5 21  1  0  0  0  0
  5 22  1  0  0  0  0
  6 11  1  0  0  0  0
  6  7  1  0  0  0  0
  6 31  1  0  0  0  0
  7  8  1  0  0  0  0
  7 23  1  0  0  0  0
  7 24  1  0  0  0  0
  8  9  1  0  0  0  0
  8 25  1  0  0  0  0
  8 26  1  0  0  0  0
  9 10  1  0  0  0  0
  9 11  1  0  0  0  0
  9 27  1  0  0  0  0
 10 28  1  0  0  0  0
 11 29  1  0  0  0  0
 11 30  1  0  0  0  0
 12 13  1  0  0  0  0
 12 16  2  0  0  0  0
 13 14  2  0  0  0  0
 13 15  1  0  0  0  0
M  CHG  1   6   1
M  CHG  1  15  -1
M  END
> <s_m_source_file>
AV-unprocessed.smi

> <i_m_source_file_index>
62

> <i_lp_mmshare_version>
43012

> <i_f3d_flags>
0

> <s_epik_input>
W0NIM11uMVtjSF1jKGMobjEpQyg9TylbT0hdKVtDSDJdTjJbQ0gyXVtDSDJdW0NAQEhdKFtPSF0pW0NIMl0y

> <s_epik_cmdline>
J2VwaWtfcHl0aG9uJywgJy1waCcsICc3LjAnLCAnLXRuJywgJzgnLCAnLW1hJywgJzIwMCcsICctbWV0YWxfYmluZGluZycsICctaW1hZScsICc8aW5maWxlLm1hZT4nLCAnLW9tYWUnLCAnPG91dGZpbGUubWFlPic=

> <r_epik_Ionization_Penalty>
0.0522993

> <r_epik_Ionization_Penalty_Charging>
0.0522915

> <r_epik_Ionization_Penalty_Neutral>
7.84975e-06

> <r_epik_State_Penalty>
0.0448084

> <r_epik_Charging_Adjusted_Penalty>
0.0970998

> <i_epik_Tot_Q>
0

> <i_epik_Tot_abs_Q>
2

> <r_epik_Metal_State_Penalty>
0.0448097

> <b_epik_Metal_Only>
0

> <s_lp_Force_Field>
OPLS_2005

> <r_lp_Energy>
17.4079

> <b_lp_Chiralities_Consistent>
1

> <s_lp_Variant>
AV-unprocessed.smi:62-3

> <Gold.Version>
5.8.1

> <Gold.Id.Protein>
6NUR|6NUR_protein|mol2

> <Gold.PLP.Fitness>
50.1490

> <Gold.PLP.PLP>
-26.0000

> <Gold.PLP.part.hbond>
-6.2495

> <Gold.PLP.part.metal>
0.0000

> <Gold.PLP.part.buried>
-1.4294

> <Gold.PLP.part.nonpolar>
-18.4436

> <Gold.PLP.part.repulsive>
0.0237

> <Gold.PLP.ligand.clash>
0.0000

> <Gold.PLP.ligand.torsion>
0.3299

> <Gold.PLP.Chemscore.Hbond>
7.2656

> <Gold.PLP.Chemscore.CHOScore>
1.0000

> <Gold.PLP.Chemscore.Metal>
0.0000

> <Gold.Chemscore.Hbonds>
donor molecule, donor type, donor heavy atom, donor atom, acceptor molecule, acceptor atom, score
      L1  H     6    31       P1  7948  2.00
      L1  H    10    28       P1  7957  1.00
      P1  H  6896  6907       L1    15  2.00
      P1  H  7989  7998       L1    10  0.33
      P1  H 10752 10763       L1    14  1.59
      L1  C     3    20       P1  7948  1.00

> <Gold.PLP.Chemscore.Internal.Correction>
0.0121

> <Gold.Rescore>
     Score         DG    S(hbond)    S(metal)    S(lipo)     H(rot)  DE(clash)    DE(int)     intcor
     15.23     -18.06       3.49        0.00      47.62       1.81       1.31       1.52       ----

> <Gold.Chemscore.Fitness>
15.2306

> <Gold.Chemscore.DG>
-18.0616

> <Gold.Chemscore.ZeroCoef>
-5.4800

> <Gold.Chemscore.Hbond>
3.4853

> <Gold.Chemscore.Metal>
0.0000

> <Gold.Chemscore.Lipo>
47.6233

> <Gold.Chemscore.Internal_Hbond>
0.0000

> <Gold.Chemscore.DEClash>
1.3103

> <Gold.Chemscore.DEInternal>
1.5207

> <Gold.Chemscore.Rot>
1.8091

> <Gold.Chemscore.Internal.Correction>
   9.000000E+99

> <Gold.Chemscore.Hbonds>
donor molecule, donor type, donor heavy atom, donor atom, acceptor molecule, acceptor atom, score
      L1  H     6    31       P1  7948  0.65
      L1  H    10    28       P1  7957  0.92
      P1  H  6896  6907       L1    15  0.29
      P1  H  7989  7998       L1    10  0.03
      P1  H 10752 10763       L1    14  0.70

> <Gold.Chemscore.Hbond.Weighted>
-11.6411

> <Gold.Chemscore.Metal.Weighted>
-0.0000

> <Gold.Chemscore.Lipo.Weighted>
-5.5719

> <Gold.Chemscore.Internal_Hbond.Weighted>
0.0000

> <Gold.Chemscore.DEClash.Weighted>
1.3103

> <Gold.Chemscore.DEInternal.Weighted>
1.5207

> <Gold.Chemscore.Rot.Weighted>
4.6314

> <Gold.Chemscore.Internal.Correction.Weighted>
   9.000000E+99

> <Gold.Protein.RotatedTorsions>
[ 6907 6896 6895 6894 ] final  179.58 input  -60.11 | X-H torsion
[ 7974 7965 7964 7962 ] final  -42.58 input  175.53 | X-H torsion
[ 8008 7997 7996 7995 ] final   56.74 input   59.86 | X-H torsion
[ 10167 10162 10161 10158 ] final -174.81 input  -65.29 | X-H torsion
[ 10718 10713 10712 10709 ] final   31.32 input   66.30 | X-H torsion
[ 10763 10752 10751 10750 ] final  113.16 input  -60.55 | X-H torsion
[ 11005 11000 10999 10996 ] final  127.26 input  -57.11 | X-H torsion

> <Gold.Protein.ActiveResidues>
 VAL166  LYS551  ARG553  GLY616  TRP617  ASP618  TYR619  PRO620  LYS621  CYS622 
 ASP623  PHE694  ASN695  SER759  ASP760  ASP761  ALA762  ILE779  LEU786  VAL792 
 PHE793  MET794  SER795  GLU796  ALA797  LYS798  CYS799  TRP800  GLU811  SER814 

> <Gold.Protein.RotatedAtoms>
  151.6693  133.3314  159.3192 H   0  0  0  0  0  0  0  0  0  0  0  0  # atno 6907 bound_to 6896
  150.7875  134.6876  159.6488 H   0  0  0  0  0  0  0  0  0  0  0  0  # atno 6908 bound_to 6896
  152.3948  134.6386  160.0145 H   0  0  0  0  0  0  0  0  0  0  0  0  # atno 6909 bound_to 6896
  146.0102  140.6973  142.9228 H   0  0  0  0  0  0  0  0  0  0  0  0  # atno 7974 bound_to 7965
  155.5224  140.3480  155.4409 H   0  0  0  0  0  0  0  0  0  0  0  0  # atno 8008 bound_to 7997
  156.0775  140.1378  156.9781 H   0  0  0  0  0  0  0  0  0  0  0  0  # atno 8009 bound_to 7997
  154.4561  140.0953  156.6737 H   0  0  0  0  0  0  0  0  0  0  0  0  # atno 8010 bound_to 7997
  139.5614  144.1861  152.1244 H   0  0  0  0  0  0  0  0  0  0  0  0  # atno 10167 bound_to 10162
  157.2710  130.7208  149.6504 H   0  0  0  0  0  0  0  0  0  0  0  0  # atno 10718 bound_to 10713
  153.4884  135.3664  155.2479 H   0  0  0  0  0  0  0  0  0  0  0  0  # atno 10763 bound_to 10752
  154.8753  135.3971  154.3617 H   0  0  0  0  0  0  0  0  0  0  0  0  # atno 10764 bound_to 10752
  153.4233  135.7081  153.6345 H   0  0  0  0  0  0  0  0  0  0  0  0  # atno 10765 bound_to 10752
  139.9498  134.9624  156.8828 H   0  0  0  0  0  0  0  0  0  0  0  0  # atno 11005 bound_to 11000
  144.6950  140.3385  143.7203 LP  0  0  0  0  0  0  0  0  0  0  0  0  # atno 17320 bound_to 7965
  145.7354  139.1748  143.2406 LP  0  0  0  0  0  0  0  0  0  0  0  0  # atno 17321 bound_to 7965
  140.1376  144.5232  150.6764 LP  0  0  0  0  0  0  0  0  0  0  0  0  # atno 17342 bound_to 10162
  140.6894  143.2367  151.5173 LP  0  0  0  0  0  0  0  0  0  0  0  0  # atno 17343 bound_to 10162
  155.9663  130.4368  150.5147 LP  0  0  0  0  0  0  0  0  0  0  0  0  # atno 17370 bound_to 10713
  157.3072  131.0656  151.2027 LP  0  0  0  0  0  0  0  0  0  0  0  0  # atno 17371 bound_to 10713
  140.5746  134.0410  155.7442 LP  0  0  0  0  0  0  0  0  0  0  0  0  # atno 17394 bound_to 11000
  141.1158  133.9542  157.2825 LP  0  0  0  0  0  0  0  0  0  0  0  0  # atno 17395 bound_to 11000

$$$$
