AV-unprocessed.smi:3337|AV-procd|sdf|12861|dock8
  -GOLD-   2272019263D 1   1.00000     0.00000
 Structure written by MMmdl.
 46 47  0  0  0  0  0  0  0  0  2 V2000
  153.4219  141.5747  161.4879 C   0  0  0  0  0  0  0  0  0  0  0  0
  152.9064  142.4174  160.3127 C   0  0  2  0  0  0  0  0  0  0  0  0
  151.9480  143.5214  160.7940 C   0  0  0  0  0  0  0  0  0  0  0  0
  151.3771  144.3327  159.6167 C   0  0  1  0  0  0  0  0  0  0  0  0
  152.4025  145.3015  159.0021 C   0  0  0  0  0  0  0  0  0  0  0  0
  150.7571  143.3935  158.5630 C   0  0  0  0  0  0  0  0  0  0  0  0
  151.7213  142.3567  158.1102 N   0  3  2  0  0  0  0  0  0  0  0  0
  151.1777  141.5377  156.9977 C   0  0  0  0  0  0  0  0  0  0  0  0
  151.1112  142.3158  155.6687 C   0  0  0  0  0  0  0  0  0  0  0  0
  149.7672  142.2949  155.1037 N   0  0  0  0  0  0  0  0  0  0  0  0
  149.2511  141.2832  154.3880 C   0  0  0  0  0  0  0  0  0  0  0  0
  149.8771  140.2520  154.1396 O   0  0  0  0  0  0  0  0  0  0  0  0
  147.8137  141.4674  153.8786 C   0  0  2  0  0  0  0  0  0  0  0  0
  146.8621  141.9675  154.9842 C   0  0  0  0  0  0  0  0  0  0  0  0
  147.3398  140.2388  153.2536 N   0  0  0  0  0  0  0  0  0  0  0  0
  147.0921  139.0428  153.7927 C   0  0  0  0  0  0  0  0  0  0  0  0
  146.6228  138.1502  152.9325 N   0  0  0  0  0  0  0  0  0  0  0  0
  146.5920  138.9168  151.8025 C   0  0  0  0  0  0  0  0  0  0  0  0
  146.9989  140.1784  151.9419 N   0  0  0  0  0  0  0  0  0  0  0  0
  152.2183  141.5396  159.2495 C   0  0  0  0  0  0  0  0  0  0  0  0
  152.6052  141.0632  161.9984 H   0  0  0  0  0  0  0  0  0  0  0  0
  153.9346  142.1972  162.2217 H   0  0  0  0  0  0  0  0  0  0  0  0
  154.1287  140.8170  161.1489 H   0  0  0  0  0  0  0  0  0  0  0  0
  153.7742  142.8903  159.8515 H   0  0  0  0  0  0  0  0  0  0  0  0
  151.1232  143.0654  161.3437 H   0  0  0  0  0  0  0  0  0  0  0  0
  152.4525  144.1834  161.4991 H   0  0  0  0  0  0  0  0  0  0  0  0
  150.5723  144.9531  160.0133 H   0  0  0  0  0  0  0  0  0  0  0  0
  153.2393  144.7752  158.5430 H   0  0  0  0  0  0  0  0  0  0  0  0
  152.8080  145.9737  159.7586 H   0  0  0  0  0  0  0  0  0  0  0  0
  151.9411  145.9189  158.2311 H   0  0  0  0  0  0  0  0  0  0  0  0
  149.8757  142.9012  158.9777 H   0  0  0  0  0  0  0  0  0  0  0  0
  150.4125  143.9824  157.7117 H   0  0  0  0  0  0  0  0  0  0  0  0
  151.7699  140.6271  156.8949 H   0  0  0  0  0  0  0  0  0  0  0  0
  150.1650  141.2170  157.2471 H   0  0  0  0  0  0  0  0  0  0  0  0
  151.3927  143.3562  155.8336 H   0  0  0  0  0  0  0  0  0  0  0  0
  151.8109  141.9182  154.9332 H   0  0  0  0  0  0  0  0  0  0  0  0
  149.1901  143.1086  155.2613 H   0  0  0  0  0  0  0  0  0  0  0  0
  147.8315  142.2334  153.1013 H   0  0  0  0  0  0  0  0  0  0  0  0
  147.2082  142.9141  155.4005 H   0  0  0  0  0  0  0  0  0  0  0  0
  146.7768  141.2573  155.8080 H   0  0  0  0  0  0  0  0  0  0  0  0
  145.8602  142.1333  154.5871 H   0  0  0  0  0  0  0  0  0  0  0  0
  147.2556  138.8206  154.8371 H   0  0  0  0  0  0  0  0  0  0  0  0
  146.2535  138.5359  150.8501 H   0  0  0  0  0  0  0  0  0  0  0  0
  152.9291  140.7942  158.8951 H   0  0  0  0  0  0  0  0  0  0  0  0
  151.3853  140.9911  159.6930 H   0  0  0  0  0  0  0  0  0  0  0  0
  152.5151  142.8568  157.7362 H   0  0  0  0  0  0  0  0  0  0  0  0
  1  2  1  0  0  0  0
  1 21  1  0  0  0  0
  1 22  1  0  0  0  0
  1 23  1  0  0  0  0
  2 20  1  0  0  0  0
  2  3  1  0  0  0  0
  2 24  1  0  0  0  0
  3  4  1  0  0  0  0
  3 25  1  0  0  0  0
  3 26  1  0  0  0  0
  4  5  1  0  0  0  0
  4  6  1  0  0  0  0
  4 27  1  0  0  0  0
  5 28  1  0  0  0  0
  5 29  1  0  0  0  0
  5 30  1  0  0  0  0
  6  7  1  0  0  0  0
  6 31  1  0  0  0  0
  6 32  1  0  0  0  0
  7  8  1  0  0  0  0
  7 20  1  0  0  0  0
  7 46  1  0  0  0  0
  8  9  1  0  0  0  0
  8 33  1  0  0  0  0
  8 34  1  0  0  0  0
  9 10  1  0  0  0  0
  9 35  1  0  0  0  0
  9 36  1  0  0  0  0
 10 11  1  0  0  0  0
 10 37  1  0  0  0  0
 11 12  2  0  0  0  0
 11 13  1  0  0  0  0
 13 14  1  0  0  0  0
 13 15  1  0  0  0  0
 13 38  1  0  0  0  0
 14 39  1  0  0  0  0
 14 40  1  0  0  0  0
 14 41  1  0  0  0  0
 15 19  1  0  0  0  0
 15 16  1  0  0  0  0
 16 17  2  0  0  0  0
 16 42  1  0  0  0  0
 17 18  1  0  0  0  0
 18 19  2  0  0  0  0
 18 43  1  0  0  0  0
 20 44  1  0  0  0  0
 20 45  1  0  0  0  0
M  CHG  1   7   1
M  END
> <s_m_source_file>
AV-unprocessed.smi

> <i_m_source_file_index>
3337

> <i_lp_mmshare_version>
43012

> <i_f3d_flags>
0

> <s_epik_input>
W0NIM11bQ0BASF0xW0NIMl1bQ0BASF0oW0NIM10pW0NIMl1OKFtDSDJdMSlbQ0gyXVtDSDJdW05IXUMoPU8pW0NASF0oW0NIM10pbjJbY0hdbltjSF1uMg==

> <s_epik_cmdline>
J2VwaWtfcHl0aG9uJywgJy1waCcsICc3LjAnLCAnLXRuJywgJzgnLCAnLW1hJywgJzIwMCcsICctbWV0YWxfYmluZGluZycsICctaW1hZScsICc8aW5maWxlLm1hZT4nLCAnLW9tYWUnLCAnPG91dGZpbGUubWFlPic=

> <r_lp_tautomer_probability>
1

> <r_epik_Ionization_Penalty>
0.00175613

> <r_epik_Ionization_Penalty_Charging>
0.00174812

> <r_epik_Ionization_Penalty_Neutral>
8.01354e-06

> <r_epik_State_Penalty>
0.00118332

> <r_epik_Charging_Adjusted_Penalty>
0.00293143

> <i_epik_Tot_Q>
1

> <i_epik_Tot_abs_Q>
1

> <r_epik_Metal_State_Penalty>
-0

> <b_epik_Metal_Only>
0

> <s_lp_Force_Field>
OPLS_2005

> <r_lp_Energy>
24.9418

> <b_lp_Chiralities_Consistent>
1

> <s_lp_Variant>
AV-unprocessed.smi:3337-1

> <Gold.Version>
5.8.1

> <Gold.Id.Protein>
6NUR|6NUR_protein|mol2

> <Gold.PLP.Fitness>
46.3655

> <Gold.PLP.PLP>
-40.2195

> <Gold.PLP.part.hbond>
-2.0000

> <Gold.PLP.part.metal>
0.0000

> <Gold.PLP.part.buried>
-6.3186

> <Gold.PLP.part.nonpolar>
-34.4383

> <Gold.PLP.part.repulsive>
3.0313

> <Gold.PLP.ligand.clash>
0.0000

> <Gold.PLP.ligand.torsion>
0.8498

> <Gold.PLP.Chemscore.Hbond>
1.6800

> <Gold.PLP.Chemscore.CHOScore>
0.8927

> <Gold.PLP.Chemscore.Metal>
0.0000

> <Gold.Chemscore.Hbonds>
donor molecule, donor type, donor heavy atom, donor atom, acceptor molecule, acceptor atom, score
      L1  H    10    37       P1  8028  1.00
      P1  H  7989  7998       L1    12  0.85
      L1  C    18    43       P1 10171  0.86

> <Gold.PLP.Chemscore.Internal.Correction>
0.1273

> <Gold.Rescore>
     Score         DG    S(hbond)    S(metal)    S(lipo)     H(rot)  DE(clash)    DE(int)     intcor
     13.00     -13.86       0.97        0.00      98.96       2.51       0.15       0.71       ----

> <Gold.Chemscore.Fitness>
13.0001

> <Gold.Chemscore.DG>
-13.8632

> <Gold.Chemscore.ZeroCoef>
-5.4800

> <Gold.Chemscore.Hbond>
0.9695

> <Gold.Chemscore.Metal>
0.0000

> <Gold.Chemscore.Lipo>
98.9582

> <Gold.Chemscore.Internal_Hbond>
0.0000

> <Gold.Chemscore.DEClash>
0.1545

> <Gold.Chemscore.DEInternal>
0.7086

> <Gold.Chemscore.Rot>
2.5129

> <Gold.Chemscore.Internal.Correction>
   9.000000E+99

> <Gold.Chemscore.Hbonds>
donor molecule, donor type, donor heavy atom, donor atom, acceptor molecule, acceptor atom, score
      L1  H    10    37       P1  8028  0.98
      P1  H  7989  7998       L1    12  0.37

> <Gold.Chemscore.Hbond.Weighted>
-3.2382

> <Gold.Chemscore.Metal.Weighted>
-0.0000

> <Gold.Chemscore.Lipo.Weighted>
-11.5781

> <Gold.Chemscore.Internal_Hbond.Weighted>
0.0000

> <Gold.Chemscore.DEClash.Weighted>
0.1545

> <Gold.Chemscore.DEInternal.Weighted>
0.7086

> <Gold.Chemscore.Rot.Weighted>
6.4331

> <Gold.Chemscore.Internal.Correction.Weighted>
   9.000000E+99

> <Gold.Protein.RotatedTorsions>
[ 6907 6896 6895 6894 ] final   35.12 input  -60.11 | X-H torsion
[ 7974 7965 7964 7962 ] final   54.81 input  175.53 | X-H torsion
[ 8008 7997 7996 7995 ] final  163.60 input   59.86 | X-H torsion
[ 10167 10162 10161 10158 ] final   83.16 input  -65.29 | X-H torsion
[ 10718 10713 10712 10709 ] final    1.70 input   66.30 | X-H torsion
[ 10763 10752 10751 10750 ] final -110.34 input  -60.55 | X-H torsion
[ 11005 11000 10999 10996 ] final   51.43 input  -57.11 | X-H torsion

> <Gold.Protein.ActiveResidues>
 VAL166  LYS551  ARG553  GLY616  TRP617  ASP618  TYR619  PRO620  LYS621  CYS622 
 ASP623  PHE694  ASN695  SER759  ASP760  ASP761  ALA762  ILE779  LEU786  VAL792 
 PHE793  MET794  SER795  GLU796  ALA797  LYS798  CYS799  TRP800  GLU811  SER814 

> <Gold.Protein.RotatedAtoms>
  152.1118  134.9269  160.0566 H   0  0  0  0  0  0  0  0  0  0  0  0  # atno 6907 bound_to 6896
  152.0443  133.3986  159.4358 H   0  0  0  0  0  0  0  0  0  0  0  0  # atno 6908 bound_to 6896
  150.6844  134.3300  159.4866 H   0  0  0  0  0  0  0  0  0  0  0  0  # atno 6909 bound_to 6896
  145.9570  139.4024  143.0271 H   0  0  0  0  0  0  0  0  0  0  0  0  # atno 7974 bound_to 7965
  156.1944  140.1719  156.8027 H   0  0  0  0  0  0  0  0  0  0  0  0  # atno 8008 bound_to 7997
  154.5512  140.0717  156.8701 H   0  0  0  0  0  0  0  0  0  0  0  0  # atno 8009 bound_to 7997
  155.3026  140.3362  155.4249 H   0  0  0  0  0  0  0  0  0  0  0  0  # atno 8010 bound_to 7997
  139.9213  144.6211  150.8437 H   0  0  0  0  0  0  0  0  0  0  0  0  # atno 10167 bound_to 10162
  156.8521  130.5557  149.5669 H   0  0  0  0  0  0  0  0  0  0  0  0  # atno 10718 bound_to 10713
  154.8243  135.4567  154.0871 H   0  0  0  0  0  0  0  0  0  0  0  0  # atno 10763 bound_to 10752
  153.2198  135.6892  153.8020 H   0  0  0  0  0  0  0  0  0  0  0  0  # atno 10764 bound_to 10752
  153.7441  135.3308  155.3286 H   0  0  0  0  0  0  0  0  0  0  0  0  # atno 10765 bound_to 10752
  140.0933  134.5179  155.8831 H   0  0  0  0  0  0  0  0  0  0  0  0  # atno 11005 bound_to 11000
  145.8093  140.9734  143.0957 LP  0  0  0  0  0  0  0  0  0  0  0  0  # atno 17320 bound_to 7965
  144.6807  139.9900  143.7484 LP  0  0  0  0  0  0  0  0  0  0  0  0  # atno 17321 bound_to 7965
  140.7661  143.3295  151.2441 LP  0  0  0  0  0  0  0  0  0  0  0  0  # atno 17342 bound_to 10162
  139.6859  143.9774  152.2834 LP  0  0  0  0  0  0  0  0  0  0  0  0  # atno 17343 bound_to 10162
  156.0822  130.5830  150.9584 LP  0  0  0  0  0  0  0  0  0  0  0  0  # atno 17370 bound_to 10713
  157.6297  131.0922  150.8465 LP  0  0  0  0  0  0  0  0  0  0  0  0  # atno 17371 bound_to 10713
  141.2084  133.6674  156.6372 LP  0  0  0  0  0  0  0  0  0  0  0  0  # atno 17394 bound_to 11000
  140.3321  134.7920  157.4334 LP  0  0  0  0  0  0  0  0  0  0  0  0  # atno 17395 bound_to 11000

$$$$
