AV-unprocessed.smi:332|AV-procd|sdf|2355|dock5
  -GOLD-   2262022263D 1   1.00000     0.00000
 Structure written by MMmdl.
 42 44  0  0  0  0  0  0  0  0  1 V2000
  150.0705  139.4040  155.3887 C   0  0  0  0  0  0  0  0  0  0  0  0
  149.5103  140.4464  156.3714 C   0  0  1  0  0  0  0  0  0  0  0  0
  150.5800  141.3353  156.8118 N   0  0  0  0  0  0  0  0  0  0  0  0
  151.1895  141.3097  158.0090 C   0  0  0  0  0  0  0  0  0  0  0  0
  150.9291  140.4726  158.8724 O   0  0  0  0  0  0  0  0  0  0  0  0
  152.2434  142.3902  158.3076 C   0  0  0  0  0  0  0  0  0  0  0  0
  152.4922  142.6279  159.7411 N   0  0  0  0  0  0  0  0  0  0  0  0
  152.0124  143.8399  160.2766 C   0  0  0  0  0  0  0  0  0  0  0  0
  152.1974  144.1703  161.5642 C   0  0  0  0  0  0  0  0  0  0  0  0
  152.9088  143.2426  162.4110 C   0  0  0  0  0  0  0  0  0  0  0  0
  153.3760  142.0825  161.9080 C   0  0  0  0  0  0  0  0  0  0  0  0
  153.1831  141.7210  160.4989 C   0  0  0  0  0  0  0  0  0  0  0  0
  153.6235  140.6726  160.0274 O   0  0  0  0  0  0  0  0  0  0  0  0
  148.3750  141.2863  155.7401 C   0  0  1  0  0  0  0  0  0  0  0  0
  148.6174  141.7061  154.2730 C   0  0  0  0  0  0  0  0  0  0  0  0
  147.3076  141.2948  153.5744 C   0  0  1  0  0  0  0  0  0  0  0  0
  147.2733  139.7619  153.4323 C   0  0  0  0  0  0  0  0  0  0  0  0
  147.0191  139.2943  154.8769 C   0  0  0  0  0  0  0  0  0  0  0  0
  146.9769  140.6207  155.6629 C   0  0  2  0  0  0  0  0  0  0  0  0
  146.2703  141.5331  154.6657 C   0  0  0  0  0  0  0  0  0  0  0  0
  149.2932  138.7168  155.0543 H   0  0  0  0  0  0  0  0  0  0  0  0
  150.8544  138.8051  155.8531 H   0  0  0  0  0  0  0  0  0  0  0  0
  150.4962  139.8799  154.5048 H   0  0  0  0  0  0  0  0  0  0  0  0
  149.1133  139.9139  157.2371 H   0  0  0  0  0  0  0  0  0  0  0  0
  150.8591  142.0557  156.1619 H   0  0  0  0  0  0  0  0  0  0  0  0
  153.1735  142.0985  157.8176 H   0  0  0  0  0  0  0  0  0  0  0  0
  151.9428  143.3130  157.8085 H   0  0  0  0  0  0  0  0  0  0  0  0
  151.4981  144.4806  159.5746 H   0  0  0  0  0  0  0  0  0  0  0  0
  151.8272  145.1066  161.9554 H   0  0  0  0  0  0  0  0  0  0  0  0
  153.0673  143.4798  163.4526 H   0  0  0  0  0  0  0  0  0  0  0  0
  153.9066  141.4012  162.5569 H   0  0  0  0  0  0  0  0  0  0  0  0
  148.2635  142.1933  156.3375 H   0  0  0  0  0  0  0  0  0  0  0  0
  148.7761  142.7829  154.2059 H   0  0  0  0  0  0  0  0  0  0  0  0
  149.4829  141.2168  153.8249 H   0  0  0  0  0  0  0  0  0  0  0  0
  147.1256  141.8244  152.6390 H   0  0  0  0  0  0  0  0  0  0  0  0
  146.4578  139.4485  152.7792 H   0  0  0  0  0  0  0  0  0  0  0  0
  148.2024  139.3630  153.0232 H   0  0  0  0  0  0  0  0  0  0  0  0
  146.0579  138.7834  154.9444 H   0  0  0  0  0  0  0  0  0  0  0  0
  147.7782  138.6011  155.2375 H   0  0  0  0  0  0  0  0  0  0  0  0
  146.4772  140.5380  156.6288 H   0  0  0  0  0  0  0  0  0  0  0  0
  146.2143  142.5736  154.9907 H   0  0  0  0  0  0  0  0  0  0  0  0
  145.2703  141.1892  154.3954 H   0  0  0  0  0  0  0  0  0  0  0  0
  1  2  1  0  0  0  0
  1 21  1  0  0  0  0
  1 22  1  0  0  0  0
  1 23  1  0  0  0  0
  2  3  1  0  0  0  0
  2 14  1  0  0  0  0
  2 24  1  0  0  0  0
  3  4  1  0  0  0  0
  3 25  1  0  0  0  0
  4  5  2  0  0  0  0
  4  6  1  0  0  0  0
  6  7  1  0  0  0  0
  6 26  1  0  0  0  0
  6 27  1  0  0  0  0
  7 12  1  0  0  0  0
  7  8  1  0  0  0  0
  8  9  2  0  0  0  0
  8 28  1  0  0  0  0
  9 10  1  0  0  0  0
  9 29  1  0  0  0  0
 10 11  2  0  0  0  0
 10 30  1  0  0  0  0
 11 12  1  0  0  0  0
 11 31  1  0  0  0  0
 12 13  2  0  0  0  0
 14 19  1  0  0  0  0
 14 15  1  0  0  0  0
 14 32  1  0  0  0  0
 15 16  1  0  0  0  0
 15 33  1  0  0  0  0
 15 34  1  0  0  0  0
 16 20  1  0  0  0  0
 16 17  1  0  0  0  0
 16 35  1  0  0  0  0
 17 18  1  0  0  0  0
 17 36  1  0  0  0  0
 17 37  1  0  0  0  0
 18 19  1  0  0  0  0
 18 38  1  0  0  0  0
 18 39  1  0  0  0  0
 19 20  1  0  0  0  0
 19 40  1  0  0  0  0
 20 41  1  0  0  0  0
 20 42  1  0  0  0  0
M  END
> <s_m_source_file>
AV-unprocessed.smi

> <i_m_source_file_index>
332

> <i_lp_mmshare_version>
43012

> <i_f3d_flags>
0

> <s_epik_input>
W0NIMl0xW0NIMl1bQ0BIXShbQ0gyXTIpW0NAQEhdKFtDSDJdW0NAQEhdMTIpW0NASF0oW0NIM10pW05IXUMoPU8pW0NIMl1uM1tjSF1bY0hdW2NIXVtjSF1jMz1P

> <s_epik_cmdline>
J2VwaWtfcHl0aG9uJywgJy1waCcsICc3LjAnLCAnLXRuJywgJzgnLCAnLW1hJywgJzIwMCcsICctbWV0YWxfYmluZGluZycsICctaW1hZScsICc8aW5maWxlLm1hZT4nLCAnLW9tYWUnLCAnPG91dGZpbGUubWFlPic=

> <r_lp_tautomer_probability>
1

> <r_epik_Ionization_Penalty>
4.05802e-07

> <r_epik_Ionization_Penalty_Charging>
3.84175e-07

> <r_epik_Ionization_Penalty_Neutral>
2.16269e-08

> <r_epik_State_Penalty>
-0

> <r_epik_Charging_Adjusted_Penalty>
3.84175e-07

> <i_epik_Tot_Q>
0

> <i_epik_Tot_abs_Q>
0

> <r_epik_Metal_State_Penalty>
-0

> <b_epik_Metal_Only>
0

> <s_lp_Force_Field>
OPLS_2005

> <r_lp_Energy>
59.7758

> <b_lp_Chiralities_Consistent>
1

> <s_lp_Variant>
AV-unprocessed.smi:332-4

> <Gold.Version>
5.8.1

> <Gold.Id.Protein>
6NUR|6NUR_protein|mol2

> <Gold.PLP.Fitness>
39.8546

> <Gold.PLP.PLP>
-41.7768

> <Gold.PLP.part.hbond>
0.0000

> <Gold.PLP.part.metal>
0.0000

> <Gold.PLP.part.buried>
-5.4280

> <Gold.PLP.part.nonpolar>
-35.6710

> <Gold.PLP.part.repulsive>
0.0502

> <Gold.PLP.ligand.clash>
0.0000

> <Gold.PLP.ligand.torsion>
0.9737

> <Gold.PLP.Chemscore.Hbond>
0.0000

> <Gold.PLP.Chemscore.CHOScore>
0.0000

> <Gold.PLP.Chemscore.Metal>
0.0000

> <Gold.PLP.Chemscore.Internal.Correction>
0.0252

> <Gold.Rescore>
     Score         DG    S(hbond)    S(metal)    S(lipo)     H(rot)  DE(clash)    DE(int)     intcor
     12.43     -13.64       0.00        0.00     103.44       1.54       0.14       1.07       ----

> <Gold.Chemscore.Fitness>
12.4308

> <Gold.Chemscore.DG>
-13.6400

> <Gold.Chemscore.ZeroCoef>
-5.4800

> <Gold.Chemscore.Hbond>
0.0000

> <Gold.Chemscore.Metal>
0.0000

> <Gold.Chemscore.Lipo>
103.4353

> <Gold.Chemscore.Internal_Hbond>
0.0000

> <Gold.Chemscore.DEClash>
0.1388

> <Gold.Chemscore.DEInternal>
1.0704

> <Gold.Chemscore.Rot>
1.5398

> <Gold.Chemscore.Internal.Correction>
   9.000000E+99

> <Gold.Chemscore.Hbond.Weighted>
-0.0000

> <Gold.Chemscore.Metal.Weighted>
-0.0000

> <Gold.Chemscore.Lipo.Weighted>
-12.1019

> <Gold.Chemscore.Internal_Hbond.Weighted>
0.0000

> <Gold.Chemscore.DEClash.Weighted>
0.1388

> <Gold.Chemscore.DEInternal.Weighted>
1.0704

> <Gold.Chemscore.Rot.Weighted>
3.9419

> <Gold.Chemscore.Internal.Correction.Weighted>
   9.000000E+99

> <Gold.Protein.RotatedTorsions>
[ 6907 6896 6895 6894 ] final -107.63 input  -60.11 | X-H torsion
[ 7974 7965 7964 7962 ] final   35.92 input  175.53 | X-H torsion
[ 8008 7997 7996 7995 ] final   92.94 input   59.86 | X-H torsion
[ 10167 10162 10161 10158 ] final   97.00 input  -65.29 | X-H torsion
[ 10718 10713 10712 10709 ] final    7.28 input   66.30 | X-H torsion
[ 10763 10752 10751 10750 ] final  -86.68 input  -60.55 | X-H torsion
[ 11005 11000 10999 10996 ] final  124.67 input  -57.11 | X-H torsion

> <Gold.Protein.ActiveResidues>
 VAL166  LYS551  ARG553  GLY616  TRP617  ASP618  TYR619  PRO620  LYS621  CYS622 
 ASP623  PHE694  ASN695  SER759  ASP760  ASP761  ALA762  ILE779  LEU786  VAL792 
 PHE793  MET794  SER795  GLU796  ALA797  LYS798  CYS799  TRP800  GLU811  SER814 

> <Gold.Protein.RotatedAtoms>
  150.7455  133.9797  159.3572 H   0  0  0  0  0  0  0  0  0  0  0  0  # atno 6907 bound_to 6896
  151.7737  135.0777  160.0373 H   0  0  0  0  0  0  0  0  0  0  0  0  # atno 6908 bound_to 6896
  152.3321  133.5933  159.5853 H   0  0  0  0  0  0  0  0  0  0  0  0  # atno 6909 bound_to 6896
  146.1249  139.6082  142.9265 H   0  0  0  0  0  0  0  0  0  0  0  0  # atno 7974 bound_to 7965
  156.0411  140.3319  155.7245 H   0  0  0  0  0  0  0  0  0  0  0  0  # atno 8008 bound_to 7997
  155.5742  140.0631  157.2816 H   0  0  0  0  0  0  0  0  0  0  0  0  # atno 8009 bound_to 7997
  154.4393  140.1855  156.0899 H   0  0  0  0  0  0  0  0  0  0  0  0  # atno 8010 bound_to 7997
  139.7842  144.6877  150.9981 H   0  0  0  0  0  0  0  0  0  0  0  0  # atno 10167 bound_to 10162
  156.9346  130.5839  149.5650 H   0  0  0  0  0  0  0  0  0  0  0  0  # atno 10718 bound_to 10713
  154.6252  135.5440  153.7619 H   0  0  0  0  0  0  0  0  0  0  0  0  # atno 10763 bound_to 10752
  153.0257  135.6422  154.1382 H   0  0  0  0  0  0  0  0  0  0  0  0  # atno 10764 bound_to 10752
  154.1315  135.2914  155.3164 H   0  0  0  0  0  0  0  0  0  0  0  0  # atno 10765 bound_to 10752
  139.9370  134.9639  156.8444 H   0  0  0  0  0  0  0  0  0  0  0  0  # atno 11005 bound_to 11000
  145.5388  141.0422  143.2342 LP  0  0  0  0  0  0  0  0  0  0  0  0  # atno 17320 bound_to 7965
  144.7632  139.6907  143.7225 LP  0  0  0  0  0  0  0  0  0  0  0  0  # atno 17321 bound_to 7965
  140.7819  143.4450  151.0495 LP  0  0  0  0  0  0  0  0  0  0  0  0  # atno 17342 bound_to 10162
  139.8130  143.7925  152.3172 LP  0  0  0  0  0  0  0  0  0  0  0  0  # atno 17343 bound_to 10162
  156.0431  130.5511  150.8818 LP  0  0  0  0  0  0  0  0  0  0  0  0  # atno 17370 bound_to 10713
  157.5824  131.0946  150.9249 LP  0  0  0  0  0  0  0  0  0  0  0  0  # atno 17371 bound_to 10713
  140.6051  134.0135  155.7553 LP  0  0  0  0  0  0  0  0  0  0  0  0  # atno 17394 bound_to 11000
  141.0988  133.9802  157.3115 LP  0  0  0  0  0  0  0  0  0  0  0  0  # atno 17395 bound_to 11000

$$$$
