AV-unprocessed.smi:1177|AV-procd|sdf|4954|dock10
  -GOLD-   22720 3543D 1   1.00000     0.00000
 Structure written by MMmdl.
 30 31  0  0  0  0  0  0  0  0  1 V2000
  150.0591  140.2493  155.7987 O   0  0  0  0  0  0  0  0  0  0  0  0
  149.7480  141.4387  155.8656 C   0  0  0  0  0  0  0  0  0  0  0  0
  150.1398  142.2623  156.8479 N   0  0  0  0  0  0  0  0  0  0  0  0
  150.9825  141.8785  157.9747 C   0  0  0  0  0  0  0  0  0  0  0  0
  151.1788  143.0427  158.9603 C   0  0  0  0  0  0  0  0  0  0  0  0
  152.0815  142.6669  160.1202 C   0  0  0  0  0  0  0  0  0  0  0  0
  153.1950  141.8225  159.9223 C   0  0  0  0  0  0  0  0  0  0  0  0
  153.9978  141.4994  161.0335 C   0  0  0  0  0  0  0  0  0  0  0  0
  153.6571  142.0283  162.2933 C   0  0  0  0  0  0  0  0  0  0  0  0
  152.5233  142.8601  162.3863 C   0  0  0  0  0  0  0  0  0  0  0  0
  151.7474  143.1765  161.3273 N   0  0  0  0  0  0  0  0  0  0  0  0
  148.9762  142.0680  154.9693 N   0  0  0  0  0  0  0  0  0  0  0  0
  148.3979  141.4683  153.8106 C   0  0  0  0  0  0  0  0  0  0  0  0
  146.8879  141.4406  153.7131 C   0  0  0  0  0  0  0  0  0  0  0  0
  147.6416  140.1701  153.9943 C   0  0  0  0  0  0  0  0  0  0  0  0
  149.8354  143.2242  156.8135 H   0  0  0  0  0  0  0  0  0  0  0  0
  150.5553  141.0123  158.4833 H   0  0  0  0  0  0  0  0  0  0  0  0
  151.9481  141.5617  157.5801 H   0  0  0  0  0  0  0  0  0  0  0  0
  151.6028  143.9031  158.4408 H   0  0  0  0  0  0  0  0  0  0  0  0
  150.2163  143.3693  159.3571 H   0  0  0  0  0  0  0  0  0  0  0  0
  153.4292  141.4296  158.9438 H   0  0  0  0  0  0  0  0  0  0  0  0
  154.8585  140.8563  160.9217 H   0  0  0  0  0  0  0  0  0  0  0  0
  154.2493  141.8017  163.1675 H   0  0  0  0  0  0  0  0  0  0  0  0
  152.2318  143.2822  163.3366 H   0  0  0  0  0  0  0  0  0  0  0  0
  148.7796  143.0470  155.1183 H   0  0  0  0  0  0  0  0  0  0  0  0
  148.9356  141.5783  152.8697 H   0  0  0  0  0  0  0  0  0  0  0  0
  146.3155  141.8749  154.5307 H   0  0  0  0  0  0  0  0  0  0  0  0
  146.4474  141.5550  152.7247 H   0  0  0  0  0  0  0  0  0  0  0  0
  147.7034  139.4357  153.1938 H   0  0  0  0  0  0  0  0  0  0  0  0
  147.5726  139.7580  154.9992 H   0  0  0  0  0  0  0  0  0  0  0  0
  1  2  2  0  0  0  0
  2  3  1  0  0  0  0
  2 12  1  0  0  0  0
  3  4  1  0  0  0  0
  3 16  1  0  0  0  0
  4  5  1  0  0  0  0
  4 17  1  0  0  0  0
  4 18  1  0  0  0  0
  5  6  1  0  0  0  0
  5 19  1  0  0  0  0
  5 20  1  0  0  0  0
  6 11  1  0  0  0  0
  6  7  2  0  0  0  0
  7  8  1  0  0  0  0
  7 21  1  0  0  0  0
  8  9  2  0  0  0  0
  8 22  1  0  0  0  0
  9 10  1  0  0  0  0
  9 23  1  0  0  0  0
 10 11  2  0  0  0  0
 10 24  1  0  0  0  0
 12 13  1  0  0  0  0
 12 25  1  0  0  0  0
 13 15  1  0  0  0  0
 13 14  1  0  0  0  0
 13 26  1  0  0  0  0
 14 15  1  0  0  0  0
 14 27  1  0  0  0  0
 14 28  1  0  0  0  0
 15 29  1  0  0  0  0
 15 30  1  0  0  0  0
M  END
> <s_m_source_file>
AV-unprocessed.smi

> <i_m_source_file_index>
1177

> <i_lp_mmshare_version>
43012

> <i_f3d_flags>
0

> <s_epik_input>
W0NIMl0xW0NIMl1bQ0hdMVtOSF1DKD1PKVtOSF1bQ0gyXVtDSDJdYzJbY0hdW2NIXVtjSF1bY0hdbjI=

> <s_epik_cmdline>
J2VwaWtfcHl0aG9uJywgJy1waCcsICc3LjAnLCAnLXRuJywgJzgnLCAnLW1hJywgJzIwMCcsICctbWV0YWxfYmluZGluZycsICctaW1hZScsICc8aW5maWxlLm1hZT4nLCAnLW9tYWUnLCAnPG91dGZpbGUubWFlPic=

> <r_epik_Ionization_Penalty>
0.0440342

> <r_epik_Ionization_Penalty_Charging>
0

> <r_epik_Ionization_Penalty_Neutral>
0.0440342

> <r_epik_State_Penalty>
0.0372351

> <r_epik_Charging_Adjusted_Penalty>
0.0372351

> <i_epik_Tot_Q>
0

> <i_epik_Tot_abs_Q>
0

> <r_epik_Metal_State_Penalty>
0.0346506

> <b_epik_Metal_Only>
0

> <s_lp_Force_Field>
OPLS_2005

> <r_lp_Energy>
12.265

> <b_lp_Chiralities_Consistent>
1

> <s_lp_Variant>
AV-unprocessed.smi:1177-1

> <Gold.Version>
5.8.1

> <Gold.Id.Protein>
6NUR|6NUR_protein|mol2

> <Gold.PLP.Fitness>
41.3139

> <Gold.PLP.PLP>
-36.2441

> <Gold.PLP.part.hbond>
-2.0000

> <Gold.PLP.part.metal>
0.0000

> <Gold.PLP.part.buried>
-4.3321

> <Gold.PLP.part.nonpolar>
-29.3272

> <Gold.PLP.part.repulsive>
0.3994

> <Gold.PLP.ligand.clash>
0.0000

> <Gold.PLP.ligand.torsion>
0.3796

> <Gold.PLP.Chemscore.Hbond>
1.9280

> <Gold.PLP.Chemscore.CHOScore>
0.0000

> <Gold.PLP.Chemscore.Metal>
0.0000

> <Gold.Chemscore.Hbonds>
donor molecule, donor type, donor heavy atom, donor atom, acceptor molecule, acceptor atom, score
      L1  H     3    16       P1  8028  0.74
      L1  H    12    25       P1  8028  1.00
      P1  H  6933  6945       L1    11  0.03

> <Gold.PLP.Chemscore.Internal.Correction>
0.0450

> <Gold.Rescore>
     Score         DG    S(hbond)    S(metal)    S(lipo)     H(rot)  DE(clash)    DE(int)     intcor
     18.47     -18.77       1.94        0.00      93.54       1.61       0.02       0.28       ----

> <Gold.Chemscore.Fitness>
18.4705

> <Gold.Chemscore.DG>
-18.7732

> <Gold.Chemscore.ZeroCoef>
-5.4800

> <Gold.Chemscore.Hbond>
1.9407

> <Gold.Chemscore.Metal>
0.0000

> <Gold.Chemscore.Lipo>
93.5446

> <Gold.Chemscore.Internal_Hbond>
0.0000

> <Gold.Chemscore.DEClash>
0.0246

> <Gold.Chemscore.DEInternal>
0.2780

> <Gold.Chemscore.Rot>
1.6147

> <Gold.Chemscore.Internal.Correction>
   9.000000E+99

> <Gold.Chemscore.Hbonds>
donor molecule, donor type, donor heavy atom, donor atom, acceptor molecule, acceptor atom, score
      L1  H     3    16       P1  8028  0.71
      L1  H    12    25       P1  8028  1.00

> <Gold.Chemscore.Hbond.Weighted>
-6.4820

> <Gold.Chemscore.Metal.Weighted>
-0.0000

> <Gold.Chemscore.Lipo.Weighted>
-10.9447

> <Gold.Chemscore.Internal_Hbond.Weighted>
0.0000

> <Gold.Chemscore.DEClash.Weighted>
0.0246

> <Gold.Chemscore.DEInternal.Weighted>
0.2780

> <Gold.Chemscore.Rot.Weighted>
4.1336

> <Gold.Chemscore.Internal.Correction.Weighted>
   9.000000E+99

> <Gold.Protein.RotatedTorsions>
[ 6907 6896 6895 6894 ] final -164.73 input  -60.11 | X-H torsion
[ 7974 7965 7964 7962 ] final  -90.00 input  175.53 | X-H torsion
[ 8008 7997 7996 7995 ] final  175.81 input   59.86 | X-H torsion
[ 10167 10162 10161 10158 ] final  121.54 input  -65.29 | X-H torsion
[ 10718 10713 10712 10709 ] final  -26.60 input   66.30 | X-H torsion
[ 10763 10752 10751 10750 ] final -125.85 input  -60.55 | X-H torsion
[ 11005 11000 10999 10996 ] final -119.77 input  -57.11 | X-H torsion

> <Gold.Protein.ActiveResidues>
 VAL166  LYS551  ARG553  GLY616  TRP617  ASP618  TYR619  PRO620  LYS621  CYS622 
 ASP623  PHE694  ASN695  SER759  ASP760  ASP761  ALA762  ILE779  LEU786  VAL792 
 PHE793  MET794  SER795  GLU796  ALA797  LYS798  CYS799  TRP800  GLU811  SER814 

> <Gold.Protein.RotatedAtoms>
  151.4164  133.3711  159.2750 H   0  0  0  0  0  0  0  0  0  0  0  0  # atno 6907 bound_to 6896
  150.9325  134.8741  159.7571 H   0  0  0  0  0  0  0  0  0  0  0  0  # atno 6908 bound_to 6896
  152.5035  134.4110  159.9500 H   0  0  0  0  0  0  0  0  0  0  0  0  # atno 6909 bound_to 6896
  145.4323  140.9556  143.2121 H   0  0  0  0  0  0  0  0  0  0  0  0  # atno 7974 bound_to 7965
  156.0831  140.1399  156.9687 H   0  0  0  0  0  0  0  0  0  0  0  0  # atno 8008 bound_to 7997
  154.4596  140.0948  156.6906 H   0  0  0  0  0  0  0  0  0  0  0  0  # atno 8009 bound_to 7997
  155.5043  140.3452  155.4379 H   0  0  0  0  0  0  0  0  0  0  0  0  # atno 8010 bound_to 7997
  139.5913  144.7026  151.3282 H   0  0  0  0  0  0  0  0  0  0  0  0  # atno 10167 bound_to 10162
  156.4491  130.4480  149.7001 H   0  0  0  0  0  0  0  0  0  0  0  0  # atno 10718 bound_to 10713
  154.8740  135.4015  154.3335 H   0  0  0  0  0  0  0  0  0  0  0  0  # atno 10763 bound_to 10752
  153.4145  135.7021  153.6342 H   0  0  0  0  0  0  0  0  0  0  0  0  # atno 10764 bound_to 10752
  153.5030  135.3723  155.2520 H   0  0  0  0  0  0  0  0  0  0  0  0  # atno 10765 bound_to 10752
  141.0191  134.0150  157.3307 H   0  0  0  0  0  0  0  0  0  0  0  0  # atno 11005 bound_to 11000
  144.8174  139.5852  143.7002 LP  0  0  0  0  0  0  0  0  0  0  0  0  # atno 17320 bound_to 7965
  146.2600  139.6389  142.9368 LP  0  0  0  0  0  0  0  0  0  0  0  0  # atno 17321 bound_to 7965
  140.7176  143.7225  150.7685 LP  0  0  0  0  0  0  0  0  0  0  0  0  # atno 17342 bound_to 10162
  140.0781  143.4995  152.2544 LP  0  0  0  0  0  0  0  0  0  0  0  0  # atno 17343 bound_to 10162
  156.3835  130.7591  151.2586 LP  0  0  0  0  0  0  0  0  0  0  0  0  # atno 17370 bound_to 10713
  157.7503  131.0288  150.4067 LP  0  0  0  0  0  0  0  0  0  0  0  0  # atno 17371 bound_to 10713
  139.9135  135.0194  156.7788 LP  0  0  0  0  0  0  0  0  0  0  0  0  # atno 17394 bound_to 11000
  140.6603  133.9651  155.7801 LP  0  0  0  0  0  0  0  0  0  0  0  0  # atno 17395 bound_to 11000

$$$$
