AV-unprocessed.smi:2562|AV-procd|sdf|10042|dock8
  -GOLD-   2272014 83D 1   1.00000     0.00000
 Structure written by MMmdl.
 31 32  0  0  0  0  0  0  0  0  2 V2000
  152.2727  144.9636  159.3018 C   0  0  0  0  0  0  0  0  0  0  0  0
  152.2033  143.9888  158.1213 C   0  0  0  0  0  0  0  0  0  0  0  0
  150.8262  143.3234  157.9865 C   0  0  0  0  0  0  0  0  0  0  0  0
  150.7856  142.3062  156.8934 C   0  0  0  0  0  0  0  0  0  0  0  0
  150.0866  142.4919  155.7717 N   0  0  0  0  0  0  0  0  0  0  0  0
  150.2440  141.4213  154.9646 N   0  0  0  0  0  0  0  0  0  0  0  0
  151.0726  140.6568  155.6748 C   0  0  0  0  0  0  0  0  0  0  0  0
  151.4985  139.3139  155.1683 C   0  0  2  0  0  0  0  0  0  0  0  0
  150.5480  138.7711  154.0844 C   0  0  0  0  0  0  0  0  0  0  0  0
  150.9572  137.4076  153.6950 N   0  3  0  0  0  0  0  0  0  0  0  0
  151.0435  136.5132  154.8668 C   0  0  0  0  0  0  0  0  0  0  0  0
  151.9660  137.1256  155.9360 C   0  0  0  0  0  0  0  0  0  0  0  0
  151.5024  138.4263  156.2845 O   0  0  0  0  0  0  0  0  0  0  0  0
  151.4364  141.1478  156.8994 N   0  0  0  0  0  0  0  0  0  0  0  0
  149.5139  143.2881  155.5287 H   0  0  0  0  0  0  0  0  0  0  0  0
  153.2617  145.4165  159.3738 H   0  0  0  0  0  0  0  0  0  0  0  0
  152.0704  144.4545  160.2446 H   0  0  0  0  0  0  0  0  0  0  0  0
  151.5454  145.7686  159.1916 H   0  0  0  0  0  0  0  0  0  0  0  0
  152.4435  144.5225  157.2010 H   0  0  0  0  0  0  0  0  0  0  0  0
  152.9696  143.2226  158.2438 H   0  0  0  0  0  0  0  0  0  0  0  0
  150.5541  142.8361  158.9237 H   0  0  0  0  0  0  0  0  0  0  0  0
  150.0621  144.0782  157.7958 H   0  0  0  0  0  0  0  0  0  0  0  0
  152.5129  139.3950  154.7721 H   0  0  0  0  0  0  0  0  0  0  0  0
  149.5221  138.7427  154.4551 H   0  0  0  0  0  0  0  0  0  0  0  0
  150.5554  139.4160  153.2052 H   0  0  0  0  0  0  0  0  0  0  0  0
  150.2920  137.0324  153.0338 H   0  0  0  0  0  0  0  0  0  0  0  0
  150.0438  136.3599  155.2757 H   0  0  0  0  0  0  0  0  0  0  0  0
  151.4150  135.5380  154.5512 H   0  0  0  0  0  0  0  0  0  0  0  0
  151.9723  136.5010  156.8293 H   0  0  0  0  0  0  0  0  0  0  0  0
  152.9955  137.1790  155.5783 H   0  0  0  0  0  0  0  0  0  0  0  0
  151.8663  137.4560  153.2572 H   0  0  0  0  0  0  0  0  0  0  0  0
  1  2  1  0  0  0  0
  1 16  1  0  0  0  0
  1 17  1  0  0  0  0
  1 18  1  0  0  0  0
  2  3  1  0  0  0  0
  2 19  1  0  0  0  0
  2 20  1  0  0  0  0
  3 21  1  0  0  0  0
  3 22  1  0  0  0  0
  3  4  1  0  0  0  0
  4 14  2  0  0  0  0
  4  5  1  0  0  0  0
  5  6  1  0  0  0  0
  5 15  1  0  0  0  0
  6  7  2  0  0  0  0
  7 14  1  0  0  0  0
  7  8  1  0  0  0  0
  8 13  1  0  0  0  0
  8  9  1  0  0  0  0
  8 23  1  0  0  0  0
  9 10  1  0  0  0  0
  9 24  1  0  0  0  0
  9 25  1  0  0  0  0
 10 11  1  0  0  0  0
 10 26  1  0  0  0  0
 10 31  1  0  0  0  0
 11 12  1  0  0  0  0
 11 27  1  0  0  0  0
 11 28  1  0  0  0  0
 12 13  1  0  0  0  0
 12 29  1  0  0  0  0
 12 30  1  0  0  0  0
M  CHG  1  10   1
M  END
> <s_m_source_file>
AV-unprocessed.smi

> <i_m_source_file_index>
2562

> <i_lp_mmshare_version>
43012

> <i_f3d_flags>
0

> <s_epik_input>
W0NIM11bQ0gyXVtDSDJdYzFuW25IXWMobjEpW0NAQEhdMltDSDJdW05IXVtDSDJdW0NIMl1PMg==

> <s_epik_cmdline>
J2VwaWtfcHl0aG9uJywgJy1waCcsICc3LjAnLCAnLXRuJywgJzgnLCAnLW1hJywgJzIwMCcsICctbWV0YWxfYmluZGluZycsICctaW1hZScsICc8aW5maWxlLm1hZT4nLCAnLW9tYWUnLCAnPG91dGZpbGUubWFlPic=

> <r_lp_tautomer_probability>
0.948284

> <r_epik_Ionization_Penalty>
0.10647

> <r_epik_Ionization_Penalty_Charging>
0.100865

> <r_epik_Ionization_Penalty_Neutral>
0.0056057

> <r_epik_State_Penalty>
0.375056

> <r_epik_Charging_Adjusted_Penalty>
0.47592

> <i_epik_Tot_Q>
1

> <i_epik_Tot_abs_Q>
1

> <r_epik_Metal_State_Penalty>
0.497514

> <b_epik_Metal_Only>
0

> <s_lp_Force_Field>
OPLS_2005

> <r_lp_Energy>
10.3016

> <b_lp_Chiralities_Consistent>
1

> <s_lp_Variant>
AV-unprocessed.smi:2562-1

> <Gold.Version>
5.8.1

> <Gold.Id.Protein>
6NUR|6NUR_protein|mol2

> <Gold.PLP.Fitness>
36.5017

> <Gold.PLP.PLP>
-28.6566

> <Gold.PLP.part.hbond>
-4.0000

> <Gold.PLP.part.metal>
0.0000

> <Gold.PLP.part.buried>
-4.0013

> <Gold.PLP.part.nonpolar>
-22.0974

> <Gold.PLP.part.repulsive>
0.3596

> <Gold.PLP.ligand.clash>
0.0000

> <Gold.PLP.ligand.torsion>
0.6770

> <Gold.PLP.Chemscore.Hbond>
3.0614

> <Gold.PLP.Chemscore.CHOScore>
0.0000

> <Gold.PLP.Chemscore.Metal>
0.0000

> <Gold.Chemscore.Hbonds>
donor molecule, donor type, donor heavy atom, donor atom, acceptor molecule, acceptor atom, score
      L1  H     5    15       P1  8028  1.00
      L1  H    10    26       P1  7948  0.80

> <Gold.PLP.Chemscore.Internal.Correction>
0.0148

> <Gold.Rescore>
     Score         DG    S(hbond)    S(metal)    S(lipo)     H(rot)  DE(clash)    DE(int)     intcor
     14.15     -14.72       1.79        0.00      61.09       1.51       0.24       0.34       ----

> <Gold.Chemscore.Fitness>
14.1523

> <Gold.Chemscore.DG>
-14.7231

> <Gold.Chemscore.ZeroCoef>
-5.4800

> <Gold.Chemscore.Hbond>
1.7861

> <Gold.Chemscore.Metal>
0.0000

> <Gold.Chemscore.Lipo>
61.0858

> <Gold.Chemscore.Internal_Hbond>
0.0000

> <Gold.Chemscore.DEClash>
0.2357

> <Gold.Chemscore.DEInternal>
0.3352

> <Gold.Chemscore.Rot>
1.5115

> <Gold.Chemscore.Internal.Correction>
   9.000000E+99

> <Gold.Chemscore.Hbonds>
donor molecule, donor type, donor heavy atom, donor atom, acceptor molecule, acceptor atom, score
      L1  H     5    15       P1  8028  0.96
      L1  H    10    26       P1  7948  0.01

> <Gold.Chemscore.Hbond.Weighted>
-5.9656

> <Gold.Chemscore.Metal.Weighted>
-0.0000

> <Gold.Chemscore.Lipo.Weighted>
-7.1470

> <Gold.Chemscore.Internal_Hbond.Weighted>
0.0000

> <Gold.Chemscore.DEClash.Weighted>
0.2357

> <Gold.Chemscore.DEInternal.Weighted>
0.3352

> <Gold.Chemscore.Rot.Weighted>
3.8695

> <Gold.Chemscore.Internal.Correction.Weighted>
   9.000000E+99

> <Gold.Protein.RotatedTorsions>
[ 6907 6896 6895 6894 ] final  175.06 input  -60.11 | X-H torsion
[ 7974 7965 7964 7962 ] final  -51.10 input  175.53 | X-H torsion
[ 8008 7997 7996 7995 ] final   81.18 input   59.86 | X-H torsion
[ 10167 10162 10161 10158 ] final   92.68 input  -65.29 | X-H torsion
[ 10718 10713 10712 10709 ] final  132.62 input   66.30 | X-H torsion
[ 10763 10752 10751 10750 ] final  -43.73 input  -60.55 | X-H torsion
[ 11005 11000 10999 10996 ] final   18.86 input  -57.11 | X-H torsion

> <Gold.Protein.ActiveResidues>
 VAL166  LYS551  ARG553  GLY616  TRP617  ASP618  TYR619  PRO620  LYS621  CYS622 
 ASP623  PHE694  ASN695  SER759  ASP760  ASP761  ALA762  ILE779  LEU786  VAL792 
 PHE793  MET794  SER795  GLU796  ALA797  LYS798  CYS799  TRP800  GLU811  SER814 

> <Gold.Protein.RotatedAtoms>
  151.7422  133.3322  159.3368 H   0  0  0  0  0  0  0  0  0  0  0  0  # atno 6907 bound_to 6896
  150.7569  134.6268  159.6174 H   0  0  0  0  0  0  0  0  0  0  0  0  # atno 6908 bound_to 6896
  152.3523  134.6991  160.0284 H   0  0  0  0  0  0  0  0  0  0  0  0  # atno 6909 bound_to 6896
  145.9227  140.7820  142.9639 H   0  0  0  0  0  0  0  0  0  0  0  0  # atno 7974 bound_to 7965
  155.8936  140.3437  155.5974 H   0  0  0  0  0  0  0  0  0  0  0  0  # atno 8008 bound_to 7997
  155.7582  140.0829  157.2187 H   0  0  0  0  0  0  0  0  0  0  0  0  # atno 8009 bound_to 7997
  154.4036  140.1540  156.2790 H   0  0  0  0  0  0  0  0  0  0  0  0  # atno 8010 bound_to 7997
  139.8253  144.6712  150.9467 H   0  0  0  0  0  0  0  0  0  0  0  0  # atno 10167 bound_to 10162
  157.4853  131.1088  150.9628 H   0  0  0  0  0  0  0  0  0  0  0  0  # atno 10718 bound_to 10713
  154.0004  135.6694  153.4759 H   0  0  0  0  0  0  0  0  0  0  0  0  # atno 10763 bound_to 10752
  153.0665  135.4998  154.8207 H   0  0  0  0  0  0  0  0  0  0  0  0  # atno 10764 bound_to 10752
  154.7056  135.3087  154.9238 H   0  0  0  0  0  0  0  0  0  0  0  0  # atno 10765 bound_to 10752
  140.4201  134.1528  155.7672 H   0  0  0  0  0  0  0  0  0  0  0  0  # atno 11005 bound_to 11000
  144.6755  140.2001  143.7388 LP  0  0  0  0  0  0  0  0  0  0  0  0  # atno 17320 bound_to 7965
  145.8529  139.2184  143.1761 LP  0  0  0  0  0  0  0  0  0  0  0  0  # atno 17321 bound_to 7965
  140.7810  143.4052  151.1083 LP  0  0  0  0  0  0  0  0  0  0  0  0  # atno 17342 bound_to 10162
  139.7710  143.8495  152.3120 LP  0  0  0  0  0  0  0  0  0  0  0  0  # atno 17343 bound_to 10162
  157.0347  130.5725  149.5348 LP  0  0  0  0  0  0  0  0  0  0  0  0  # atno 17370 bound_to 10713
  156.0144  130.5237  150.8088 LP  0  0  0  0  0  0  0  0  0  0  0  0  # atno 17371 bound_to 10713
  141.1787  133.8459  157.1332 LP  0  0  0  0  0  0  0  0  0  0  0  0  # atno 17394 bound_to 11000
  140.0206  134.9947  157.0584 LP  0  0  0  0  0  0  0  0  0  0  0  0  # atno 17395 bound_to 11000

$$$$
