AV-unprocessed.smi:3032|AV-procd|sdf|11558|dock9
  -GOLD-   2272016523D 1   1.00000     0.00000
 Structure written by MMmdl.
 37 38  0  0  0  0  0  0  0  0  1 V2000
  151.7881  145.0237  160.4319 C   0  0  0  0  0  0  0  0  0  0  0  0
  152.0831  143.8465  159.4916 C   0  0  1  0  0  0  0  0  0  0  0  0
  152.7411  142.6741  160.2443 C   0  0  0  0  0  0  0  0  0  0  0  0
  153.0261  141.4894  159.3072 C   0  0  0  0  0  0  0  0  0  0  0  0
  151.7493  141.0285  158.5868 C   0  0  0  0  0  0  0  0  0  0  0  0
  151.0957  142.1933  157.8149 C   0  0  1  0  0  0  0  0  0  0  0  0
  149.8081  141.7438  157.1133 C   0  0  0  0  0  0  0  0  0  0  0  0
  148.7285  141.8037  157.7023 O   0  0  0  0  0  0  0  0  0  0  0  0
  149.9339  141.3227  155.8442 N   0  0  0  0  0  0  0  0  0  0  0  0
  148.8294  140.9587  154.9593 C   0  0  0  0  0  0  0  0  0  0  0  0
  149.0512  139.5906  154.2848 C   0  0  0  0  0  0  0  0  0  0  0  0
  150.4904  139.2562  154.0447 C   0  0  0  0  0  0  0  0  0  0  0  0
  150.8683  138.1408  153.4163 N   0  0  0  0  0  0  0  0  0  0  0  0
  152.2157  138.0825  153.3822 N   0  0  0  0  0  0  0  0  0  0  0  0
  152.5586  139.2060  154.0096 C   0  0  0  0  0  0  0  0  0  0  0  0
  151.5249  139.9868  154.4460 N   0  0  0  0  0  0  0  0  0  0  0  0
  150.8077  143.3730  158.7680 C   0  0  0  0  0  0  0  0  0  0  0  0
  150.2746  137.4228  153.0259 H   0  0  0  0  0  0  0  0  0  0  0  0
  151.0909  144.7364  161.2196 H   0  0  0  0  0  0  0  0  0  0  0  0
  151.3491  145.8604  159.8879 H   0  0  0  0  0  0  0  0  0  0  0  0
  152.7000  145.3832  160.9089 H   0  0  0  0  0  0  0  0  0  0  0  0
  152.7869  144.1986  158.7362 H   0  0  0  0  0  0  0  0  0  0  0  0
  153.6714  143.0031  160.7088 H   0  0  0  0  0  0  0  0  0  0  0  0
  152.0908  142.3454  161.0560 H   0  0  0  0  0  0  0  0  0  0  0  0
  153.7771  141.7778  158.5708 H   0  0  0  0  0  0  0  0  0  0  0  0
  153.4515  140.6614  159.8751 H   0  0  0  0  0  0  0  0  0  0  0  0
  151.9906  140.2128  157.9039 H   0  0  0  0  0  0  0  0  0  0  0  0
  151.0510  140.6214  159.3201 H   0  0  0  0  0  0  0  0  0  0  0  0
  151.8009  142.5338  157.0543 H   0  0  0  0  0  0  0  0  0  0  0  0
  150.8618  141.2967  155.4470 H   0  0  0  0  0  0  0  0  0  0  0  0
  147.9136  140.9305  155.5500 H   0  0  0  0  0  0  0  0  0  0  0  0
  148.6750  141.7263  154.1991 H   0  0  0  0  0  0  0  0  0  0  0  0
  148.6073  138.8043  154.8969 H   0  0  0  0  0  0  0  0  0  0  0  0
  148.5264  139.5645  153.3294 H   0  0  0  0  0  0  0  0  0  0  0  0
  153.5939  139.4748  154.1590 H   0  0  0  0  0  0  0  0  0  0  0  0
  150.0588  143.0827  159.5073 H   0  0  0  0  0  0  0  0  0  0  0  0
  150.3769  144.2036  158.2068 H   0  0  0  0  0  0  0  0  0  0  0  0
  1  2  1  0  0  0  0
  1 19  1  0  0  0  0
  1 20  1  0  0  0  0
  1 21  1  0  0  0  0
  2 17  1  0  0  0  0
  2  3  1  0  0  0  0
  2 22  1  0  0  0  0
  3  4  1  0  0  0  0
  3 23  1  0  0  0  0
  3 24  1  0  0  0  0
  4  5  1  0  0  0  0
  4 25  1  0  0  0  0
  4 26  1  0  0  0  0
  5  6  1  0  0  0  0
  5 27  1  0  0  0  0
  5 28  1  0  0  0  0
  6  7  1  0  0  0  0
  6 17  1  0  0  0  0
  6 29  1  0  0  0  0
  7  8  2  0  0  0  0
  7  9  1  0  0  0  0
  9 10  1  0  0  0  0
  9 30  1  0  0  0  0
 10 11  1  0  0  0  0
 10 31  1  0  0  0  0
 10 32  1  0  0  0  0
 11 33  1  0  0  0  0
 11 34  1  0  0  0  0
 11 12  1  0  0  0  0
 12 16  2  0  0  0  0
 12 13  1  0  0  0  0
 13 18  1  0  0  0  0
 13 14  1  0  0  0  0
 14 15  2  0  0  0  0
 15 16  1  0  0  0  0
 15 35  1  0  0  0  0
 17 36  1  0  0  0  0
 17 37  1  0  0  0  0
M  END
> <s_m_source_file>
AV-unprocessed.smi

> <i_m_source_file_index>
3032

> <i_lp_mmshare_version>
43012

> <i_f3d_flags>
0

> <s_epik_input>
W0NIM11bQ0BASF0xW0NIMl1bQ0gyXVtDSDJdW0NASF0oW0NIMl0xKUMoPU8pW05IXVtDSDJdW0NIMl1jMm5uW2NIXVtuSF0y

> <s_epik_cmdline>
J2VwaWtfcHl0aG9uJywgJy1waCcsICc3LjAnLCAnLXRuJywgJzgnLCAnLW1hJywgJzIwMCcsICctbWV0YWxfYmluZGluZycsICctaW1hZScsICc8aW5maWxlLm1hZT4nLCAnLW9tYWUnLCAnPG91dGZpbGUubWFlPic=

> <r_lp_tautomer_probability>
0.948284

> <r_epik_Ionization_Penalty>
0.000474052

> <r_epik_Ionization_Penalty_Charging>
0

> <r_epik_Ionization_Penalty_Neutral>
0.000474052

> <r_epik_State_Penalty>
0.271807

> <r_epik_Charging_Adjusted_Penalty>
0.271807

> <i_epik_Tot_Q>
0

> <i_epik_Tot_abs_Q>
0

> <r_epik_Metal_State_Penalty>
0.397201

> <b_epik_Metal_Only>
0

> <s_lp_Force_Field>
OPLS_2005

> <r_lp_Energy>
10.7407

> <b_lp_Chiralities_Consistent>
1

> <s_lp_Variant>
AV-unprocessed.smi:3032-2

> <Gold.Version>
5.8.1

> <Gold.Id.Protein>
6NUR|6NUR_protein|mol2

> <Gold.PLP.Fitness>
45.9277

> <Gold.PLP.PLP>
-39.9521

> <Gold.PLP.part.hbond>
-4.0000

> <Gold.PLP.part.metal>
0.0000

> <Gold.PLP.part.buried>
-7.1117

> <Gold.PLP.part.nonpolar>
-31.3736

> <Gold.PLP.part.repulsive>
1.7873

> <Gold.PLP.ligand.clash>
0.0000

> <Gold.PLP.ligand.torsion>
0.9699

> <Gold.PLP.Chemscore.Hbond>
2.6336

> <Gold.PLP.Chemscore.CHOScore>
0.0000

> <Gold.PLP.Chemscore.Metal>
0.0000

> <Gold.Chemscore.Hbonds>
donor molecule, donor type, donor heavy atom, donor atom, acceptor molecule, acceptor atom, score
      L1  H    13    18       P1  7948  0.55
      P1  H  7989  7998       L1    16  0.28

> <Gold.PLP.Chemscore.Internal.Correction>
0.0146

> <Gold.Rescore>
     Score         DG    S(hbond)    S(metal)    S(lipo)     H(rot)  DE(clash)    DE(int)     intcor
     12.98     -15.57       1.86        0.00      82.31       2.25       0.02       2.56       ----

> <Gold.Chemscore.Fitness>
12.9786

> <Gold.Chemscore.DG>
-15.5665

> <Gold.Chemscore.ZeroCoef>
-5.4800

> <Gold.Chemscore.Hbond>
1.8614

> <Gold.Chemscore.Metal>
0.0000

> <Gold.Chemscore.Lipo>
82.3063

> <Gold.Chemscore.Internal_Hbond>
0.0000

> <Gold.Chemscore.DEClash>
0.0234

> <Gold.Chemscore.DEInternal>
2.5646

> <Gold.Chemscore.Rot>
2.2501

> <Gold.Chemscore.Internal.Correction>
   9.000000E+99

> <Gold.Chemscore.Hbonds>
donor molecule, donor type, donor heavy atom, donor atom, acceptor molecule, acceptor atom, score
      L1  H    13    18       P1  7948  0.04
      P1  H  7989  7998       L1    16  0.01

> <Gold.Chemscore.Hbond.Weighted>
-6.2170

> <Gold.Chemscore.Metal.Weighted>
-0.0000

> <Gold.Chemscore.Lipo.Weighted>
-9.6298

> <Gold.Chemscore.Internal_Hbond.Weighted>
0.0000

> <Gold.Chemscore.DEClash.Weighted>
0.0234

> <Gold.Chemscore.DEInternal.Weighted>
2.5646

> <Gold.Chemscore.Rot.Weighted>
5.7603

> <Gold.Chemscore.Internal.Correction.Weighted>
   9.000000E+99

> <Gold.Protein.RotatedTorsions>
[ 6907 6896 6895 6894 ] final  133.21 input  -60.11 | X-H torsion
[ 7974 7965 7964 7962 ] final -173.52 input  175.53 | X-H torsion
[ 8008 7997 7996 7995 ] final  159.23 input   59.86 | X-H torsion
[ 10167 10162 10161 10158 ] final  141.09 input  -65.29 | X-H torsion
[ 10718 10713 10712 10709 ] final    3.06 input   66.30 | X-H torsion
[ 10763 10752 10751 10750 ] final  -92.99 input  -60.55 | X-H torsion
[ 11005 11000 10999 10996 ] final  161.45 input  -57.11 | X-H torsion

> <Gold.Protein.ActiveResidues>
 VAL166  LYS551  ARG553  GLY616  TRP617  ASP618  TYR619  PRO620  LYS621  CYS622 
 ASP623  PHE694  ASN695  SER759  ASP760  ASP761  ALA762  ILE779  LEU786  VAL792 
 PHE793  MET794  SER795  GLU796  ALA797  LYS798  CYS799  TRP800  GLU811  SER814 

> <Gold.Protein.RotatedAtoms>
  152.3243  133.5888  159.5765 H   0  0  0  0  0  0  0  0  0  0  0  0  # atno 6907 bound_to 6896
  150.7388  133.9964  159.3632 H   0  0  0  0  0  0  0  0  0  0  0  0  # atno 6908 bound_to 6896
  151.7845  135.0753  160.0429 H   0  0  0  0  0  0  0  0  0  0  0  0  # atno 6909 bound_to 6896
  144.7137  140.1609  143.6376 H   0  0  0  0  0  0  0  0  0  0  0  0  # atno 7974 bound_to 7965
  156.2252  140.1837  156.7381 H   0  0  0  0  0  0  0  0  0  0  0  0  # atno 8008 bound_to 7997
  154.5929  140.0648  156.9292 H   0  0  0  0  0  0  0  0  0  0  0  0  # atno 8009 bound_to 7997
  155.2305  140.3314  155.4306 H   0  0  0  0  0  0  0  0  0  0  0  0  # atno 8010 bound_to 7997
  139.5030  144.6193  151.6089 H   0  0  0  0  0  0  0  0  0  0  0  0  # atno 10167 bound_to 10162
  156.8722  130.5624  149.5657 H   0  0  0  0  0  0  0  0  0  0  0  0  # atno 10718 bound_to 10713
  154.6915  135.5211  153.8399 H   0  0  0  0  0  0  0  0  0  0  0  0  # atno 10763 bound_to 10752
  153.0635  135.6577  154.0416 H   0  0  0  0  0  0  0  0  0  0  0  0  # atno 10764 bound_to 10752
  154.0289  135.2987  155.3351 H   0  0  0  0  0  0  0  0  0  0  0  0  # atno 10765 bound_to 10752
  140.2160  134.8232  157.3170 H   0  0  0  0  0  0  0  0  0  0  0  0  # atno 11005 bound_to 11000
  145.9031  139.2442  143.1482 LP  0  0  0  0  0  0  0  0  0  0  0  0  # atno 17320 bound_to 7965
  145.9791  140.8697  143.0123 LP  0  0  0  0  0  0  0  0  0  0  0  0  # atno 17321 bound_to 7965
  140.5891  143.9812  150.6313 LP  0  0  0  0  0  0  0  0  0  0  0  0  # atno 17342 bound_to 10162
  140.2987  143.3275  152.0993 LP  0  0  0  0  0  0  0  0  0  0  0  0  # atno 17343 bound_to 10162
  156.0721  130.5751  150.9403 LP  0  0  0  0  0  0  0  0  0  0  0  0  # atno 17370 bound_to 10713
  157.6189  131.0931  150.8659 LP  0  0  0  0  0  0  0  0  0  0  0  0  # atno 17371 bound_to 10713
  140.1900  134.4383  155.7721 LP  0  0  0  0  0  0  0  0  0  0  0  0  # atno 17394 bound_to 11000
  141.2225  133.7023  156.8012 LP  0  0  0  0  0  0  0  0  0  0  0  0  # atno 17395 bound_to 11000

$$$$
