AV-unprocessed.smi:3167|AV-procd|sdf|12097|dock8
  -GOLD-   2272017533D 1   1.00000     0.00000
 Structure written by MMmdl.
 37 38  0  0  0  0  0  0  0  0  2 V2000
  146.7344  139.5606  151.4458 C   0  0  0  0  0  0  0  0  0  0  0  0
  146.7704  139.3840  152.9806 C   0  0  2  0  0  0  0  0  0  0  0  0
  146.0163  138.0957  153.4030 C   0  0  0  0  0  0  0  0  0  0  0  0
  146.3878  136.9298  152.6070 N   0  0  0  0  0  0  0  0  0  0  0  0
  145.5172  136.0762  152.0494 C   0  0  0  0  0  0  0  0  0  0  0  0
  144.2959  136.1896  152.1552 O   0  0  0  0  0  0  0  0  0  0  0  0
  146.1491  135.1022  151.3753 N   0  0  0  0  0  0  0  0  0  0  0  0
  145.5575  134.0140  150.6866 C   0  0  0  0  0  0  0  0  0  0  0  0
  144.2070  133.8402  150.2633 C   0  0  0  0  0  0  0  0  0  0  0  0
  144.0428  132.6769  149.6494 N   0  0  0  0  0  0  0  0  0  0  0  0
  145.2692  132.1087  149.6767 N   0  0  0  0  0  0  0  0  0  0  0  0
  146.2197  132.8878  150.2988 C   0  0  0  0  0  0  0  0  0  0  0  0
  146.2078  140.5758  153.6791 N   0  3  0  0  0  0  0  0  0  0  0  0
  146.1883  140.4857  155.1619 C   0  0  0  0  0  0  0  0  0  0  0  0
  146.5203  141.8805  155.7100 C   0  0  0  0  0  0  0  0  0  0  0  0
  146.4663  142.8008  154.4964 C   0  0  0  0  0  0  0  0  0  0  0  0
  146.8359  141.8730  153.3450 C   0  0  0  0  0  0  0  0  0  0  0  0
  145.4389  131.1993  149.2709 H   0  0  0  0  0  0  0  0  0  0  0  0
  147.1395  138.6893  150.9313 H   0  0  0  0  0  0  0  0  0  0  0  0
  147.3325  140.4102  151.1170 H   0  0  0  0  0  0  0  0  0  0  0  0
  145.7151  139.7098  151.0883 H   0  0  0  0  0  0  0  0  0  0  0  0
  147.8159  139.2959  153.2808 H   0  0  0  0  0  0  0  0  0  0  0  0
  146.1854  137.8578  154.4539 H   0  0  0  0  0  0  0  0  0  0  0  0
  144.9415  138.2449  153.2962 H   0  0  0  0  0  0  0  0  0  0  0  0
  147.3746  136.7640  152.4692 H   0  0  0  0  0  0  0  0  0  0  0  0
  147.1576  135.1388  151.3561 H   0  0  0  0  0  0  0  0  0  0  0  0
  143.3555  134.4948  150.3744 H   0  0  0  0  0  0  0  0  0  0  0  0
  147.2496  132.5807  150.4059 H   0  0  0  0  0  0  0  0  0  0  0  0
  145.2016  140.1557  155.4888 H   0  0  0  0  0  0  0  0  0  0  0  0
  146.9188  139.7645  155.5320 H   0  0  0  0  0  0  0  0  0  0  0  0
  145.8369  142.1946  156.4996 H   0  0  0  0  0  0  0  0  0  0  0  0
  147.5289  141.8802  156.1261 H   0  0  0  0  0  0  0  0  0  0  0  0
  145.4511  143.1758  154.3594 H   0  0  0  0  0  0  0  0  0  0  0  0
  147.1346  143.6580  154.5829 H   0  0  0  0  0  0  0  0  0  0  0  0
  147.9204  141.7577  153.2999 H   0  0  0  0  0  0  0  0  0  0  0  0
  146.4916  142.2591  152.3851 H   0  0  0  0  0  0  0  0  0  0  0  0
  145.2427  140.6589  153.3934 H   0  0  0  0  0  0  0  0  0  0  0  0
  1  2  1  0  0  0  0
  1 19  1  0  0  0  0
  1 20  1  0  0  0  0
  1 21  1  0  0  0  0
  2  3  1  0  0  0  0
  2 13  1  0  0  0  0
  2 22  1  0  0  0  0
  3  4  1  0  0  0  0
  3 23  1  0  0  0  0
  3 24  1  0  0  0  0
  4  5  1  0  0  0  0
  4 25  1  0  0  0  0
  5  6  2  0  0  0  0
  5  7  1  0  0  0  0
  7  8  1  0  0  0  0
  7 26  1  0  0  0  0
  8 12  2  0  0  0  0
  8  9  1  0  0  0  0
  9 10  2  0  0  0  0
  9 27  1  0  0  0  0
 10 11  1  0  0  0  0
 11 18  1  0  0  0  0
 11 12  1  0  0  0  0
 12 28  1  0  0  0  0
 13 17  1  0  0  0  0
 13 14  1  0  0  0  0
 13 37  1  0  0  0  0
 14 15  1  0  0  0  0
 14 29  1  0  0  0  0
 14 30  1  0  0  0  0
 15 16  1  0  0  0  0
 15 31  1  0  0  0  0
 15 32  1  0  0  0  0
 16 17  1  0  0  0  0
 16 33  1  0  0  0  0
 16 34  1  0  0  0  0
 17 35  1  0  0  0  0
 17 36  1  0  0  0  0
M  CHG  1  13   1
M  END
> <s_m_source_file>
AV-unprocessed.smi

> <i_m_source_file_index>
3167

> <i_lp_mmshare_version>
43012

> <i_f3d_flags>
0

> <s_epik_input>
W0NIMl0xW0NIMl1bQ0gyXVtDSDJdTjFbQ0BIXShbQ0gzXSlbQ0gyXVtOSF1DKD1PKVtOSF1jMltjSF1uW25IXVtjSF0y

> <s_epik_cmdline>
J2VwaWtfcHl0aG9uJywgJy1waCcsICc3LjAnLCAnLXRuJywgJzgnLCAnLW1hJywgJzIwMCcsICctbWV0YWxfYmluZGluZycsICctaW1hZScsICc8aW5maWxlLm1hZT4nLCAnLW9tYWUnLCAnPG91dGZpbGUubWFlPic=

> <r_lp_tautomer_probability>
0.5

> <r_epik_Ionization_Penalty>
0.000801258

> <r_epik_Ionization_Penalty_Charging>
0.000761583

> <r_epik_Ionization_Penalty_Neutral>
3.96747e-05

> <r_epik_State_Penalty>
0.000487427

> <r_epik_Charging_Adjusted_Penalty>
0.00124901

> <i_epik_Tot_Q>
1

> <i_epik_Tot_abs_Q>
1

> <r_epik_Metal_State_Penalty>
-0

> <b_epik_Metal_Only>
0

> <s_lp_Force_Field>
OPLS_2005

> <r_lp_Energy>
32.1126

> <b_lp_Chiralities_Consistent>
1

> <s_lp_Variant>
AV-unprocessed.smi:3167-1

> <Gold.Version>
5.8.1

> <Gold.Id.Protein>
6NUR|6NUR_protein|mol2

> <Gold.PLP.Fitness>
44.1674

> <Gold.PLP.PLP>
-26.9152

> <Gold.PLP.part.hbond>
-3.0000

> <Gold.PLP.part.metal>
0.0000

> <Gold.PLP.part.buried>
-3.6481

> <Gold.PLP.part.nonpolar>
-21.0172

> <Gold.PLP.part.repulsive>
0.6210

> <Gold.PLP.ligand.clash>
0.0000

> <Gold.PLP.ligand.torsion>
0.1967

> <Gold.PLP.Chemscore.Hbond>
3.9672

> <Gold.PLP.Chemscore.CHOScore>
1.9039

> <Gold.PLP.Chemscore.Metal>
0.0000

> <Gold.Chemscore.Hbonds>
donor molecule, donor type, donor heavy atom, donor atom, acceptor molecule, acceptor atom, score
      L1  H     4    25       P1  7948  1.00
      L1  H     7    26       P1  7948  0.78
      L1  H    13    37       P1 10175  2.00
      L1  C     9    27       P1 10186  1.00
      L1  C    12    28       P1 10747  1.00

> <Gold.PLP.Chemscore.Internal.Correction>
0.0322

> <Gold.Rescore>
     Score         DG    S(hbond)    S(metal)    S(lipo)     H(rot)  DE(clash)    DE(int)     intcor
     16.22     -18.19       2.82        0.00      63.76       1.63       1.00       0.97       ----

> <Gold.Chemscore.Fitness>
16.2228

> <Gold.Chemscore.DG>
-18.1865

> <Gold.Chemscore.ZeroCoef>
-5.4800

> <Gold.Chemscore.Hbond>
2.8211

> <Gold.Chemscore.Metal>
0.0000

> <Gold.Chemscore.Lipo>
63.7589

> <Gold.Chemscore.Internal_Hbond>
0.0000

> <Gold.Chemscore.DEClash>
0.9953

> <Gold.Chemscore.DEInternal>
0.9683

> <Gold.Chemscore.Rot>
1.6311

> <Gold.Chemscore.Internal.Correction>
   9.000000E+99

> <Gold.Chemscore.Hbonds>
donor molecule, donor type, donor heavy atom, donor atom, acceptor molecule, acceptor atom, score
      L1  H     4    25       P1  7948  1.00
      L1  H     7    26       P1  7948  0.58
      L1  H    13    37       P1 10175  0.93

> <Gold.Chemscore.Hbond.Weighted>
-9.4223

> <Gold.Chemscore.Metal.Weighted>
-0.0000

> <Gold.Chemscore.Lipo.Weighted>
-7.4598

> <Gold.Chemscore.Internal_Hbond.Weighted>
0.0000

> <Gold.Chemscore.DEClash.Weighted>
0.9953

> <Gold.Chemscore.DEInternal.Weighted>
0.9683

> <Gold.Chemscore.Rot.Weighted>
4.1757

> <Gold.Chemscore.Internal.Correction.Weighted>
   9.000000E+99

> <Gold.Protein.RotatedTorsions>
[ 6907 6896 6895 6894 ] final  -54.27 input  -60.11 | X-H torsion
[ 7974 7965 7964 7962 ] final  129.50 input  175.53 | X-H torsion
[ 8008 7997 7996 7995 ] final -133.11 input   59.86 | X-H torsion
[ 10167 10162 10161 10158 ] final   68.83 input  -65.29 | X-H torsion
[ 10718 10713 10712 10709 ] final  -73.00 input   66.30 | X-H torsion
[ 10763 10752 10751 10750 ] final  -32.08 input  -60.55 | X-H torsion
[ 11005 11000 10999 10996 ] final  -37.48 input  -57.11 | X-H torsion

> <Gold.Protein.ActiveResidues>
 VAL166  LYS551  ARG553  GLY616  TRP617  ASP618  TYR619  PRO620  LYS621  CYS622 
 ASP623  PHE694  ASN695  SER759  ASP760  ASP761  ALA762  ILE779  LEU786  VAL792 
 PHE793  MET794  SER795  GLU796  ALA797  LYS798  CYS799  TRP800  GLU811  SER814 

> <Gold.Protein.RotatedAtoms>
  150.8353  134.7623  159.6887 H   0  0  0  0  0  0  0  0  0  0  0  0  # atno 6907 bound_to 6896
  152.4450  134.5509  159.9876 H   0  0  0  0  0  0  0  0  0  0  0  0  # atno 6908 bound_to 6896
  151.5661  133.3358  159.3016 H   0  0  0  0  0  0  0  0  0  0  0  0  # atno 6909 bound_to 6896
  145.0279  139.4072  143.5164 H   0  0  0  0  0  0  0  0  0  0  0  0  # atno 7974 bound_to 7965
  155.3400  140.0471  157.3044 H   0  0  0  0  0  0  0  0  0  0  0  0  # atno 8008 bound_to 7997
  154.5282  140.2248  155.8816 H   0  0  0  0  0  0  0  0  0  0  0  0  # atno 8009 bound_to 7997
  156.1761  140.3084  155.9069 H   0  0  0  0  0  0  0  0  0  0  0  0  # atno 8010 bound_to 7997
  140.0744  144.5125  150.7205 H   0  0  0  0  0  0  0  0  0  0  0  0  # atno 10167 bound_to 10162
  156.0297  130.4384  150.2677 H   0  0  0  0  0  0  0  0  0  0  0  0  # atno 10718 bound_to 10713
  153.8079  135.6885  153.4845 H   0  0  0  0  0  0  0  0  0  0  0  0  # atno 10763 bound_to 10752
  153.1647  135.4566  154.9819 H   0  0  0  0  0  0  0  0  0  0  0  0  # atno 10764 bound_to 10752
  154.7980  135.3326  154.7562 H   0  0  0  0  0  0  0  0  0  0  0  0  # atno 10765 bound_to 10752
  140.9955  133.6982  156.1926 H   0  0  0  0  0  0  0  0  0  0  0  0  # atno 11005 bound_to 11000
  146.3495  139.9813  142.8695 LP  0  0  0  0  0  0  0  0  0  0  0  0  # atno 17320 bound_to 7965
  145.1809  140.9766  143.4267 LP  0  0  0  0  0  0  0  0  0  0  0  0  # atno 17321 bound_to 7965
  140.7109  143.2504  151.4583 LP  0  0  0  0  0  0  0  0  0  0  0  0  # atno 17342 bound_to 10162
  139.5816  144.1696  152.1976 LP  0  0  0  0  0  0  0  0  0  0  0  0  # atno 17343 bound_to 10162
  157.0780  131.0135  151.3167 LP  0  0  0  0  0  0  0  0  0  0  0  0  # atno 17370 bound_to 10713
  157.4949  130.7844  149.7545 LP  0  0  0  0  0  0  0  0  0  0  0  0  # atno 17371 bound_to 10713
  140.6973  134.4602  157.5587 LP  0  0  0  0  0  0  0  0  0  0  0  0  # atno 17394 bound_to 11000
  139.9012  134.8551  156.1887 LP  0  0  0  0  0  0  0  0  0  0  0  0  # atno 17395 bound_to 11000

$$$$
