AV-unprocessed.smi:275|AV-procd|sdf|2069|dock4
  -GOLD-   2262021323D 1   1.00000     0.00000
 Structure written by MMmdl.
 65 69  0  0  0  0  0  0  0  0  1 V2000
  149.8021  141.2673  158.2181 C   0  0  0  0  0  0  0  0  0  0  0  0
  148.7094  141.4140  157.1462 C   0  0  0  0  0  0  0  0  0  0  0  0
  147.3688  141.6645  157.8640 C   0  0  0  0  0  0  0  0  0  0  0  0
  148.6234  140.2044  156.1784 C   0  0  1  0  0  0  0  0  0  0  0  0
  147.5758  140.5032  155.1979 N   0  0  0  0  0  0  0  0  0  0  0  0
  146.6091  139.4772  154.9360 C   0  0  0  0  0  0  0  0  0  0  0  0
  145.8562  139.0028  155.9658 N   0  0  0  0  0  0  0  0  0  0  0  0
  144.9483  138.0406  155.7846 C   0  0  0  0  0  0  0  0  0  0  0  0
  144.6336  137.3952  154.6629 N   0  0  0  0  0  0  0  0  0  0  0  0
  145.3953  137.8329  153.6224 C   0  0  0  0  0  0  0  0  0  0  0  0
  146.3944  138.8491  153.6713 C   0  0  0  0  0  0  0  0  0  0  0  0
  146.9607  138.9974  152.4098 N   0  0  0  0  0  0  0  0  0  0  0  0
  146.3292  138.1359  151.6617 C   0  0  0  0  0  0  0  0  0  0  0  0
  145.3663  137.3990  152.3094 N   0  0  0  0  0  0  0  0  0  0  0  0
  144.5152  136.3764  151.7267 C   0  0  0  0  0  0  0  0  0  0  0  0
  144.9537  134.9342  152.0848 C   0  0  1  0  0  0  0  0  0  0  0  0
  144.7568  134.5996  153.5838 C   0  0  0  0  0  0  0  0  0  0  0  0
  143.3931  134.6517  153.9503 O   0  0  0  0  0  0  0  0  0  0  0  0
  144.2832  133.8900  151.1569 C   0  0  1  0  0  0  0  0  0  0  0  0
  144.6012  134.0517  149.6808 C   0  0  0  0  0  0  0  0  0  0  0  0
  144.2250  132.6847  149.1199 C   0  0  0  0  0  0  0  0  0  0  0  0
  144.5094  131.7537  150.1575 O   0  0  0  0  0  0  0  0  0  0  0  0
  144.7375  132.4439  151.3824 C   0  0  0  0  0  0  0  0  0  0  0  0
  148.5551  140.7756  154.1530 C   0  0  0  0  0  0  0  0  0  0  0  0
  149.5778  139.9681  154.9653 C   0  0  0  0  0  0  0  0  0  0  0  0
  149.7327  138.5022  154.4914 C   0  0  0  0  0  0  0  0  0  0  0  0
  150.7058  137.6731  155.3416 C   0  0  0  0  0  0  0  0  0  0  0  0
  152.0998  138.3036  155.3322 C   0  0  0  0  0  0  0  0  0  0  0  0
  152.0247  139.7580  155.8008 C   0  0  0  0  0  0  0  0  0  0  0  0
  150.9984  140.5695  154.9822 C   0  0  0  0  0  0  0  0  0  0  0  0
  149.7761  140.2811  158.6824 H   0  0  0  0  0  0  0  0  0  0  0  0
  149.6782  142.0055  159.0110 H   0  0  0  0  0  0  0  0  0  0  0  0
  150.7966  141.4358  157.8134 H   0  0  0  0  0  0  0  0  0  0  0  0
  148.9422  142.3177  156.5805 H   0  0  0  0  0  0  0  0  0  0  0  0
  147.0987  140.8217  158.5004 H   0  0  0  0  0  0  0  0  0  0  0  0
  146.5525  141.8268  157.1601 H   0  0  0  0  0  0  0  0  0  0  0  0
  147.4209  142.5502  158.4976 H   0  0  0  0  0  0  0  0  0  0  0  0
  148.4701  139.2660  156.7092 H   0  0  0  0  0  0  0  0  0  0  0  0
  144.3974  137.7455  156.6655 H   0  0  0  0  0  0  0  0  0  0  0  0
  146.5463  138.0179  150.6099 H   0  0  0  0  0  0  0  0  0  0  0  0
  143.4911  136.5511  152.0596 H   0  0  0  0  0  0  0  0  0  0  0  0
  144.5170  136.5216  150.6461 H   0  0  0  0  0  0  0  0  0  0  0  0
  146.0280  134.8786  151.9031 H   0  0  0  0  0  0  0  0  0  0  0  0
  145.1423  133.6067  153.8143 H   0  0  0  0  0  0  0  0  0  0  0  0
  145.3162  135.2889  154.2164 H   0  0  0  0  0  0  0  0  0  0  0  0
  143.0659  133.7674  154.0156 H   0  0  0  0  0  0  0  0  0  0  0  0
  143.1995  133.9360  151.2779 H   0  0  0  0  0  0  0  0  0  0  0  0
  144.0473  134.8622  149.2062 H   0  0  0  0  0  0  0  0  0  0  0  0
  145.6671  134.2353  149.5369 H   0  0  0  0  0  0  0  0  0  0  0  0
  143.1572  132.6438  148.9005 H   0  0  0  0  0  0  0  0  0  0  0  0
  144.7693  132.4433  148.2063 H   0  0  0  0  0  0  0  0  0  0  0  0
  145.8051  132.4022  151.6027 H   0  0  0  0  0  0  0  0  0  0  0  0
  144.2053  131.9646  152.2044 H   0  0  0  0  0  0  0  0  0  0  0  0
  148.3544  140.3754  153.1592 H   0  0  0  0  0  0  0  0  0  0  0  0
  148.7911  141.8396  154.1058 H   0  0  0  0  0  0  0  0  0  0  0  0
  148.7722  137.9888  154.4867 H   0  0  0  0  0  0  0  0  0  0  0  0
  150.0684  138.4848  153.4536 H   0  0  0  0  0  0  0  0  0  0  0  0
  150.3357  137.6035  156.3652 H   0  0  0  0  0  0  0  0  0  0  0  0
  150.7583  136.6535  154.9594 H   0  0  0  0  0  0  0  0  0  0  0  0
  152.7752  137.7356  155.9726 H   0  0  0  0  0  0  0  0  0  0  0  0
  152.5155  138.2625  154.3246 H   0  0  0  0  0  0  0  0  0  0  0  0
  151.7634  139.7585  156.8567 H   0  0  0  0  0  0  0  0  0  0  0  0
  153.0082  140.2229  155.7282 H   0  0  0  0  0  0  0  0  0  0  0  0
  151.3658  140.6442  153.9578 H   0  0  0  0  0  0  0  0  0  0  0  0
  150.9745  141.5982  155.3398 H   0  0  0  0  0  0  0  0  0  0  0  0
  1  2  1  0  0  0  0
  1 31  1  0  0  0  0
  1 32  1  0  0  0  0
  1 33  1  0  0  0  0
  2  3  1  0  0  0  0
  2  4  1  0  0  0  0
  2 34  1  0  0  0  0
  3 35  1  0  0  0  0
  3 36  1  0  0  0  0
  3 37  1  0  0  0  0
  4 25  1  0  0  0  0
  4  5  1  0  0  0  0
  4 38  1  0  0  0  0
  5  6  1  0  0  0  0
  5 24  1  0  0  0  0
  6 11  1  0  0  0  0
  6  7  2  0  0  0  0
  7  8  1  0  0  0  0
  8  9  2  0  0  0  0
  8 39  1  0  0  0  0
  9 10  1  0  0  0  0
 10 14  1  0  0  0  0
 10 11  2  0  0  0  0
 11 12  1  0  0  0  0
 12 13  2  0  0  0  0
 13 14  1  0  0  0  0
 13 40  1  0  0  0  0
 14 15  1  0  0  0  0
 15 16  1  0  0  0  0
 15 41  1  0  0  0  0
 15 42  1  0  0  0  0
 16 17  1  0  0  0  0
 16 19  1  0  0  0  0
 16 43  1  0  0  0  0
 17 18  1  0  0  0  0
 17 44  1  0  0  0  0
 17 45  1  0  0  0  0
 18 46  1  0  0  0  0
 19 23  1  0  0  0  0
 19 20  1  0  0  0  0
 19 47  1  0  0  0  0
 20 21  1  0  0  0  0
 20 48  1  0  0  0  0
 20 49  1  0  0  0  0
 21 22  1  0  0  0  0
 21 50  1  0  0  0  0
 21 51  1  0  0  0  0
 22 23  1  0  0  0  0
 23 52  1  0  0  0  0
 23 53  1  0  0  0  0
 24 25  1  0  0  0  0
 24 54  1  0  0  0  0
 24 55  1  0  0  0  0
 25 30  1  0  0  0  0
 25 26  1  0  0  0  0
 26 27  1  0  0  0  0
 26 56  1  0  0  0  0
 26 57  1  0  0  0  0
 27 28  1  0  0  0  0
 27 58  1  0  0  0  0
 27 59  1  0  0  0  0
 28 29  1  0  0  0  0
 28 60  1  0  0  0  0
 28 61  1  0  0  0  0
 29 30  1  0  0  0  0
 29 62  1  0  0  0  0
 29 63  1  0  0  0  0
 30 64  1  0  0  0  0
 30 65  1  0  0  0  0
M  END
> <s_m_source_file>
AV-unprocessed.smi

> <i_m_source_file_index>
275

> <i_lp_mmshare_version>
43012

> <i_f3d_flags>
0

> <s_epik_input>
W0NIMl0xW0NIMl1bQ0gyXVtDSDJdW0NIMl1DMTJbQ0BIXShbQ0hdKFtDSDNdKVtDSDNdKU4oW0NIMl0yKWMobltjSF1uMyljKGMzNCluW2NIXW40W0NIMl1bQ0BIXShbQ0gyXVtPSF0pW0NAQEhdNVtDSDJdW0NIMl1PW0NIMl01

> <s_epik_cmdline>
J2VwaWtfcHl0aG9uJywgJy1waCcsICc3LjAnLCAnLXRuJywgJzgnLCAnLW1hJywgJzIwMCcsICctbWV0YWxfYmluZGluZycsICctaW1hZScsICc8aW5maWxlLm1hZT4nLCAnLW9tYWUnLCAnPG91dGZpbGUubWFlPic=

> <r_lp_tautomer_probability>
1

> <r_epik_Ionization_Penalty>
0.00375122

> <r_epik_Ionization_Penalty_Charging>
0

> <r_epik_Ionization_Penalty_Neutral>
0.00375122

> <r_epik_State_Penalty>
0.00260593

> <r_epik_Charging_Adjusted_Penalty>
0.00260593

> <i_epik_Tot_Q>
0

> <i_epik_Tot_abs_Q>
0

> <r_epik_Metal_State_Penalty>
-0

> <b_epik_Metal_Only>
0

> <s_lp_Force_Field>
OPLS_2005

> <r_lp_Energy>
68.7999

> <b_lp_Chiralities_Consistent>
1

> <s_lp_Variant>
AV-unprocessed.smi:275-8

> <Gold.Version>
5.8.1

> <Gold.Id.Protein>
6NUR|6NUR_protein|mol2

> <Gold.PLP.Fitness>
41.0412

> <Gold.PLP.PLP>
-38.1179

> <Gold.PLP.part.hbond>
-1.1078

> <Gold.PLP.part.metal>
0.0000

> <Gold.PLP.part.buried>
0.0079

> <Gold.PLP.part.nonpolar>
-36.6919

> <Gold.PLP.part.repulsive>
0.5743

> <Gold.PLP.ligand.clash>
0.0000

> <Gold.PLP.ligand.torsion>
0.6452

> <Gold.PLP.Chemscore.Hbond>
1.0000

> <Gold.PLP.Chemscore.CHOScore>
0.2447

> <Gold.PLP.Chemscore.Metal>
0.0000

> <Gold.Chemscore.Hbonds>
donor molecule, donor type, donor heavy atom, donor atom, acceptor molecule, acceptor atom, score
      L1  H    18    46       P1 10957  0.62
      L1  C    13    40       P1 10171  0.07

> <Gold.PLP.Chemscore.Internal.Correction>
0.4795

> <Gold.Rescore>
     Score         DG    S(hbond)    S(metal)    S(lipo)     H(rot)  DE(clash)    DE(int)     intcor
     10.83     -14.33       1.00        0.00     102.63       2.54       1.60       1.90       ----

> <Gold.Chemscore.Fitness>
10.8288

> <Gold.Chemscore.DG>
-14.3277

> <Gold.Chemscore.ZeroCoef>
-5.4800

> <Gold.Chemscore.Hbond>
0.9991

> <Gold.Chemscore.Metal>
0.0000

> <Gold.Chemscore.Lipo>
102.6267

> <Gold.Chemscore.Internal_Hbond>
0.0000

> <Gold.Chemscore.DEClash>
1.5970

> <Gold.Chemscore.DEInternal>
1.9019

> <Gold.Chemscore.Rot>
2.5377

> <Gold.Chemscore.Internal.Correction>
   9.000000E+99

> <Gold.Chemscore.Hbonds>
donor molecule, donor type, donor heavy atom, donor atom, acceptor molecule, acceptor atom, score
      L1  H    18    46       P1 10957  0.62

> <Gold.Chemscore.Hbond.Weighted>
-3.3369

> <Gold.Chemscore.Metal.Weighted>
-0.0000

> <Gold.Chemscore.Lipo.Weighted>
-12.0073

> <Gold.Chemscore.Internal_Hbond.Weighted>
0.0000

> <Gold.Chemscore.DEClash.Weighted>
1.5970

> <Gold.Chemscore.DEInternal.Weighted>
1.9019

> <Gold.Chemscore.Rot.Weighted>
6.4966

> <Gold.Chemscore.Internal.Correction.Weighted>
   9.000000E+99

> <Gold.Protein.RotatedTorsions>
[ 6907 6896 6895 6894 ] final  -87.02 input  -60.11 | X-H torsion
[ 7974 7965 7964 7962 ] final  102.66 input  175.53 | X-H torsion
[ 8008 7997 7996 7995 ] final    1.24 input   59.86 | X-H torsion
[ 10167 10162 10161 10158 ] final  177.14 input  -65.29 | X-H torsion
[ 10718 10713 10712 10709 ] final  154.27 input   66.30 | X-H torsion
[ 10763 10752 10751 10750 ] final -131.88 input  -60.55 | X-H torsion
[ 11005 11000 10999 10996 ] final  116.33 input  -57.11 | X-H torsion

> <Gold.Protein.ActiveResidues>
 VAL166  LYS551  ARG553  GLY616  TRP617  ASP618  TYR619  PRO620  LYS621  CYS622 
 ASP623  PHE694  ASN695  SER759  ASP760  ASP761  ALA762  ILE779  LEU786  VAL792 
 PHE793  MET794  SER795  GLU796  ALA797  LYS798  CYS799  TRP800  GLU811  SER814 

> <Gold.Protein.RotatedAtoms>
  150.6866  134.2961  159.4686 H   0  0  0  0  0  0  0  0  0  0  0  0  # atno 6907 bound_to 6896
  152.0861  134.9436  160.0582 H   0  0  0  0  0  0  0  0  0  0  0  0  # atno 6908 bound_to 6896
  152.0770  133.4099  159.4521 H   0  0  0  0  0  0  0  0  0  0  0  0  # atno 6909 bound_to 6896
  145.3562  139.2428  143.3531 H   0  0  0  0  0  0  0  0  0  0  0  0  # atno 7974 bound_to 7965
  154.6774  140.2625  155.6944 H   0  0  0  0  0  0  0  0  0  0  0  0  # atno 8008 bound_to 7997
  156.2683  140.2817  156.1228 H   0  0  0  0  0  0  0  0  0  0  0  0  # atno 8009 bound_to 7997
  155.1080  140.0375  157.2706 H   0  0  0  0  0  0  0  0  0  0  0  0  # atno 8010 bound_to 7997
  139.5241  144.2834  152.0527 H   0  0  0  0  0  0  0  0  0  0  0  0  # atno 10167 bound_to 10162
  157.2338  131.0745  151.1836 H   0  0  0  0  0  0  0  0  0  0  0  0  # atno 10718 bound_to 10713
  154.8747  135.3816  154.4319 H   0  0  0  0  0  0  0  0  0  0  0  0  # atno 10763 bound_to 10752
  153.5012  135.7030  153.5836 H   0  0  0  0  0  0  0  0  0  0  0  0  # atno 10764 bound_to 10752
  153.4167  135.3911  155.2051 H   0  0  0  0  0  0  0  0  0  0  0  0  # atno 10765 bound_to 10752
  139.9038  134.9596  156.7181 H   0  0  0  0  0  0  0  0  0  0  0  0  # atno 11005 bound_to 11000
  146.2947  140.4187  142.8726 LP  0  0  0  0  0  0  0  0  0  0  0  0  # atno 17320 bound_to 7965
  144.8680  140.7233  143.6065 LP  0  0  0  0  0  0  0  0  0  0  0  0  # atno 17321 bound_to 7965
  140.2288  144.4390  150.6309 LP  0  0  0  0  0  0  0  0  0  0  0  0  # atno 17342 bound_to 10162
  140.6369  143.2196  151.6374 LP  0  0  0  0  0  0  0  0  0  0  0  0  # atno 17343 bound_to 10162
  157.3450  130.7053  149.6405 LP  0  0  0  0  0  0  0  0  0  0  0  0  # atno 17370 bound_to 10713
  155.9674  130.4269  150.4719 LP  0  0  0  0  0  0  0  0  0  0  0  0  # atno 17371 bound_to 10713
  140.7022  133.9296  155.8031 LP  0  0  0  0  0  0  0  0  0  0  0  0  # atno 17394 bound_to 11000
  141.0363  134.0685  157.3955 LP  0  0  0  0  0  0  0  0  0  0  0  0  # atno 17395 bound_to 11000

$$$$
