AV-unprocessed.smi:370|AV-procd|sdf|2438|dock7
  -GOLD-   2262022373D 1   1.00000     0.00000
 Structure written by MMmdl.
 41 42  0  0  0  0  0  0  0  0  2 V2000
  137.9232  137.2685  154.2150 C   0  0  0  0  0  0  0  0  0  0  0  0
  139.4126  137.3077  154.1793 C   0  0  0  0  0  0  0  0  0  0  0  0
  140.3046  137.8888  153.3233 C   0  0  0  0  0  0  0  0  0  0  0  0
  141.5650  137.5429  153.8830 C   0  0  0  0  0  0  0  0  0  0  0  0
  142.7670  137.8814  153.3917 N   0  5  0  0  0  0  0  0  0  0  0  0
  143.8827  137.6880  154.1326 C   0  0  0  0  0  0  0  0  0  0  0  0
  143.9966  136.9305  155.0992 O   0  0  0  0  0  0  0  0  0  0  0  0
  144.9330  138.4154  153.7310 N   0  0  0  0  0  0  0  0  0  0  0  0
  146.2558  138.3966  154.3496 C   0  0  0  0  0  0  0  0  0  0  0  0
  147.0100  139.7464  154.1798 C   0  0  0  0  0  0  0  0  0  0  0  0
  147.0050  140.0841  152.6692 C   0  0  0  0  0  0  0  0  0  0  0  0
  146.1486  140.8184  154.8951 C   0  0  0  0  0  0  0  0  0  0  0  0
  148.3816  139.6902  154.7593 N   0  0  0  0  0  0  0  0  0  0  0  0
  149.0652  140.9848  154.8579 C   0  0  0  0  0  0  0  0  0  0  0  0
  150.4213  140.8700  155.5745 C   0  0  0  0  0  0  0  0  0  0  0  0
  151.2408  139.9213  154.9025 O   0  0  0  0  0  0  0  0  0  0  0  0
  150.6387  138.6341  154.8420 C   0  0  0  0  0  0  0  0  0  0  0  0
  149.2854  138.7287  154.1173 C   0  0  0  0  0  0  0  0  0  0  0  0
  141.4480  136.8001  154.9712 N   0  0  0  0  0  0  0  0  0  0  0  0
  140.0707  136.6511  155.1724 O   0  0  0  0  0  0  0  0  0  0  0  0
  137.5268  136.8471  153.2912 H   0  0  0  0  0  0  0  0  0  0  0  0
  137.5149  138.2724  154.3321 H   0  0  0  0  0  0  0  0  0  0  0  0
  137.5648  136.6594  155.0452 H   0  0  0  0  0  0  0  0  0  0  0  0
  140.0912  138.4737  152.4412 H   0  0  0  0  0  0  0  0  0  0  0  0
  144.8063  139.0285  152.9390 H   0  0  0  0  0  0  0  0  0  0  0  0
  146.1588  138.1284  155.4021 H   0  0  0  0  0  0  0  0  0  0  0  0
  146.8321  137.5859  153.9001 H   0  0  0  0  0  0  0  0  0  0  0  0
  145.9865  140.1195  152.2806 H   0  0  0  0  0  0  0  0  0  0  0  0
  147.5394  139.3395  152.0799 H   0  0  0  0  0  0  0  0  0  0  0  0
  147.4524  141.0559  152.4614 H   0  0  0  0  0  0  0  0  0  0  0  0
  145.1006  140.7511  154.6008 H   0  0  0  0  0  0  0  0  0  0  0  0
  146.4661  141.8328  154.6550 H   0  0  0  0  0  0  0  0  0  0  0  0
  146.1882  140.7085  155.9796 H   0  0  0  0  0  0  0  0  0  0  0  0
  149.2285  141.4021  153.8644 H   0  0  0  0  0  0  0  0  0  0  0  0
  148.4602  141.7029  155.4085 H   0  0  0  0  0  0  0  0  0  0  0  0
  150.9277  141.8354  155.5830 H   0  0  0  0  0  0  0  0  0  0  0  0
  150.2837  140.5714  156.6149 H   0  0  0  0  0  0  0  0  0  0  0  0
  151.3052  137.9533  154.3124 H   0  0  0  0  0  0  0  0  0  0  0  0
  150.5096  138.2361  155.8498 H   0  0  0  0  0  0  0  0  0  0  0  0
  148.8486  137.7320  154.1055 H   0  0  0  0  0  0  0  0  0  0  0  0
  149.4611  139.0108  153.0792 H   0  0  0  0  0  0  0  0  0  0  0  0
  1  2  1  0  0  0  0
  1 21  1  0  0  0  0
  1 22  1  0  0  0  0
  1 23  1  0  0  0  0
  2 20  1  0  0  0  0
  2  3  2  0  0  0  0
  3  4  1  0  0  0  0
  3 24  1  0  0  0  0
  4  5  1  0  0  0  0
  4 19  2  0  0  0  0
  5  6  1  0  0  0  0
  6  7  2  0  0  0  0
  6  8  1  0  0  0  0
  8  9  1  0  0  0  0
  8 25  1  0  0  0  0
  9 10  1  0  0  0  0
  9 26  1  0  0  0  0
  9 27  1  0  0  0  0
 10 11  1  0  0  0  0
 10 12  1  0  0  0  0
 10 13  1  0  0  0  0
 11 28  1  0  0  0  0
 11 29  1  0  0  0  0
 11 30  1  0  0  0  0
 12 31  1  0  0  0  0
 12 32  1  0  0  0  0
 12 33  1  0  0  0  0
 13 18  1  0  0  0  0
 13 14  1  0  0  0  0
 14 15  1  0  0  0  0
 14 34  1  0  0  0  0
 14 35  1  0  0  0  0
 15 16  1  0  0  0  0
 15 36  1  0  0  0  0
 15 37  1  0  0  0  0
 16 17  1  0  0  0  0
 17 18  1  0  0  0  0
 17 38  1  0  0  0  0
 17 39  1  0  0  0  0
 18 40  1  0  0  0  0
 18 41  1  0  0  0  0
 19 20  1  0  0  0  0
M  CHG  1   5  -1
M  END
> <s_m_source_file>
AV-unprocessed.smi

> <i_m_source_file_index>
370

> <i_lp_mmshare_version>
43012

> <i_f3d_flags>
0

> <s_epik_input>
W0NIM11jMVtjSF1jKG5vMSlbTkhdQyg9TylbTkhdW0NIMl1DKFtDSDNdKShbQ0gzXSlOMltDSDJdW0NIMl1PW0NIMl1bQ0gyXTI=

> <s_epik_cmdline>
J2VwaWtfcHl0aG9uJywgJy1waCcsICc3LjAnLCAnLXRuJywgJzgnLCAnLW1hJywgJzIwMCcsICctbWV0YWxfYmluZGluZycsICctaW1hZScsICc8aW5maWxlLm1hZT4nLCAnLW9tYWUnLCAnPG91dGZpbGUubWFlPic=

> <r_epik_Ionization_Penalty>
6.88367

> <r_epik_Ionization_Penalty_Charging>
6.57198

> <r_epik_Ionization_Penalty_Neutral>
0.311685

> <r_epik_State_Penalty>
6.77619

> <r_epik_Charging_Adjusted_Penalty>
13.3482

> <i_epik_Tot_Q>
-1

> <i_epik_Tot_abs_Q>
1

> <r_epik_Metal_State_Penalty>
2.70533

> <b_epik_Metal_Only>
1

> <s_lp_Force_Field>
OPLS_2005

> <r_lp_Energy>
34.5841

> <b_lp_Chiralities_Consistent>
1

> <s_lp_Variant>
AV-unprocessed.smi:370-3

> <Gold.Version>
5.8.1

> <Gold.Id.Protein>
6NUR|6NUR_protein|mol2

> <Gold.PLP.Fitness>
36.0831

> <Gold.PLP.PLP>
-28.6016

> <Gold.PLP.part.hbond>
-3.0613

> <Gold.PLP.part.metal>
0.0000

> <Gold.PLP.part.buried>
-3.8588

> <Gold.PLP.part.nonpolar>
-23.3790

> <Gold.PLP.part.repulsive>
2.0694

> <Gold.PLP.ligand.clash>
0.0000

> <Gold.PLP.ligand.torsion>
0.3923

> <Gold.PLP.Chemscore.Hbond>
2.7280

> <Gold.PLP.Chemscore.CHOScore>
0.0000

> <Gold.PLP.Chemscore.Metal>
0.0000

> <Gold.Chemscore.Hbonds>
donor molecule, donor type, donor heavy atom, donor atom, acceptor molecule, acceptor atom, score
      L1  H     8    25       P1 10175  0.75
      P1  H  7989  7998       L1    16  0.95
      P1  H 11000 11005       L1    20  0.92

> <Gold.PLP.Chemscore.Internal.Correction>
0.0821

> <Gold.Rescore>
     Score         DG    S(hbond)    S(metal)    S(lipo)     H(rot)  DE(clash)    DE(int)     intcor
     14.93     -17.44       2.51        0.00      64.05       1.53       0.47       2.04       ----

> <Gold.Chemscore.Fitness>
14.9348

> <Gold.Chemscore.DG>
-17.4449

> <Gold.Chemscore.ZeroCoef>
-5.4800

> <Gold.Chemscore.Hbond>
2.5089

> <Gold.Chemscore.Metal>
0.0000

> <Gold.Chemscore.Lipo>
64.0516

> <Gold.Chemscore.Internal_Hbond>
0.0000

> <Gold.Chemscore.DEClash>
0.4747

> <Gold.Chemscore.DEInternal>
2.0353

> <Gold.Chemscore.Rot>
1.5269

> <Gold.Chemscore.Internal.Correction>
   9.000000E+99

> <Gold.Chemscore.Hbonds>
donor molecule, donor type, donor heavy atom, donor atom, acceptor molecule, acceptor atom, score
      L1  H     8    25       P1 10175  0.74
      P1  H  7989  7998       L1    16  0.21
      P1  H 11000 11005       L1    20  0.37

> <Gold.Chemscore.Hbond.Weighted>
-8.3798

> <Gold.Chemscore.Metal.Weighted>
-0.0000

> <Gold.Chemscore.Lipo.Weighted>
-7.4940

> <Gold.Chemscore.Internal_Hbond.Weighted>
0.0000

> <Gold.Chemscore.DEClash.Weighted>
0.4747

> <Gold.Chemscore.DEInternal.Weighted>
2.0353

> <Gold.Chemscore.Rot.Weighted>
3.9090

> <Gold.Chemscore.Internal.Correction.Weighted>
   9.000000E+99

> <Gold.Protein.RotatedTorsions>
[ 6907 6896 6895 6894 ] final  107.29 input  -60.11 | X-H torsion
[ 7974 7965 7964 7962 ] final  135.52 input  175.53 | X-H torsion
[ 8008 7997 7996 7995 ] final   40.36 input   59.86 | X-H torsion
[ 10167 10162 10161 10158 ] final   54.33 input  -65.29 | X-H torsion
[ 10718 10713 10712 10709 ] final  -57.50 input   66.30 | X-H torsion
[ 10763 10752 10751 10750 ] final  -76.63 input  -60.55 | X-H torsion
[ 11005 11000 10999 10996 ] final   85.22 input  -57.11 | X-H torsion

> <Gold.Protein.ActiveResidues>
 VAL166  LYS551  ARG553  GLY616  TRP617  ASP618  TYR619  PRO620  LYS621  CYS622 
 ASP623  PHE694  ASN695  SER759  ASP760  ASP761  ALA762  ILE779  LEU786  VAL792 
 PHE793  MET794  SER795  GLU796  ALA797  LYS798  CYS799  TRP800  GLU811  SER814 

> <Gold.Protein.RotatedAtoms>
  152.5160  133.9256  159.7555 H   0  0  0  0  0  0  0  0  0  0  0  0  # atno 6907 bound_to 6896
  150.9618  133.6429  159.2760 H   0  0  0  0  0  0  0  0  0  0  0  0  # atno 6908 bound_to 6896
  151.3671  135.0921  159.9506 H   0  0  0  0  0  0  0  0  0  0  0  0  # atno 6909 bound_to 6896
  144.9655  139.4663  143.5459 H   0  0  0  0  0  0  0  0  0  0  0  0  # atno 7974 bound_to 7965
  155.2519  140.3353  155.4281 H   0  0  0  0  0  0  0  0  0  0  0  0  # atno 8008 bound_to 7997
  156.2212  140.1810  156.7516 H   0  0  0  0  0  0  0  0  0  0  0  0  # atno 8009 bound_to 7997
  154.5828  140.0651  156.9113 H   0  0  0  0  0  0  0  0  0  0  0  0  # atno 8010 bound_to 7997
  140.2313  144.3684  150.6413 H   0  0  0  0  0  0  0  0  0  0  0  0  # atno 10167 bound_to 10162
  156.1206  130.4166  150.0449 H   0  0  0  0  0  0  0  0  0  0  0  0  # atno 10718 bound_to 10713
  154.5023  135.5791  153.6541 H   0  0  0  0  0  0  0  0  0  0  0  0  # atno 10763 bound_to 10752
  152.9881  135.6139  154.2986 H   0  0  0  0  0  0  0  0  0  0  0  0  # atno 10764 bound_to 10752
  154.2894  135.2849  155.2641 H   0  0  0  0  0  0  0  0  0  0  0  0  # atno 10765 bound_to 10752
  139.8977  134.8272  156.2553 H   0  0  0  0  0  0  0  0  0  0  0  0  # atno 11005 bound_to 11000
  146.3366  139.8833  142.8821 LP  0  0  0  0  0  0  0  0  0  0  0  0  # atno 17320 bound_to 7965
  145.2636  141.0085  143.3812 LP  0  0  0  0  0  0  0  0  0  0  0  0  # atno 17321 bound_to 7965
  140.6183  143.2174  151.6746 LP  0  0  0  0  0  0  0  0  0  0  0  0  # atno 17342 bound_to 10162
  139.5109  144.3527  152.0637 LP  0  0  0  0  0  0  0  0  0  0  0  0  # atno 17343 bound_to 10162
  156.8389  130.9418  151.3633 LP  0  0  0  0  0  0  0  0  0  0  0  0  # atno 17370 bound_to 10713
  157.6389  130.8789  149.9411 LP  0  0  0  0  0  0  0  0  0  0  0  0  # atno 17371 bound_to 10713
  141.0198  133.7048  156.1248 LP  0  0  0  0  0  0  0  0  0  0  0  0  # atno 17394 bound_to 11000
  140.7250  134.4316  157.5571 LP  0  0  0  0  0  0  0  0  0  0  0  0  # atno 17395 bound_to 11000

$$$$
