AV-unprocessed.smi:2700|AV-procd|sdf|10426|dock6
  -GOLD-   2272014463D 1   1.00000     0.00000
 Structure written by MMmdl.
 20 21  0  0  0  0  0  0  0  0  2 V2000
  152.6373  139.8942  156.8459 O   0  0  0  0  0  0  0  0  0  0  0  0
  151.5984  140.3542  156.3233 C   0  0  0  0  0  0  0  0  0  0  0  0
  151.2581  140.2112  155.1285 O   0  5  0  0  0  0  0  0  0  0  0  0
  150.6741  141.1835  157.2185 C   0  0  0  0  0  0  0  0  0  0  0  0
  151.3345  142.2742  158.0074 C   0  0  0  0  0  0  0  0  0  0  0  0
  151.9114  142.0161  159.2687 C   0  0  0  0  0  0  0  0  0  0  0  0
  152.5116  143.0738  159.9783 C   0  0  0  0  0  0  0  0  0  0  0  0
  152.5081  144.3562  159.3959 C   0  0  0  0  0  0  0  0  0  0  0  0
  151.9573  144.6215  158.1924 N   0  0  0  0  0  0  0  0  0  0  0  0
  151.3821  143.5992  157.5224 C   0  0  0  0  0  0  0  0  0  0  0  0
  149.2674  141.3946  156.6892 C   0  0  0  0  0  0  0  0  0  0  0  0
  149.5027  140.4307  157.8224 C   0  0  0  0  0  0  0  0  0  0  0  0
  151.8920  141.0206  159.6874 H   0  0  0  0  0  0  0  0  0  0  0  0
  152.9607  142.9062  160.9460 H   0  0  0  0  0  0  0  0  0  0  0  0
  152.9580  145.1916  159.9118 H   0  0  0  0  0  0  0  0  0  0  0  0
  150.9459  143.8460  156.5656 H   0  0  0  0  0  0  0  0  0  0  0  0
  148.7663  142.3299  156.9299 H   0  0  0  0  0  0  0  0  0  0  0  0
  148.9985  140.9592  155.7283 H   0  0  0  0  0  0  0  0  0  0  0  0
  149.3857  139.3729  157.5929 H   0  0  0  0  0  0  0  0  0  0  0  0
  149.1585  140.7308  158.8099 H   0  0  0  0  0  0  0  0  0  0  0  0
  1  2  2  0  0  0  0
  2  3  1  0  0  0  0
  2  4  1  0  0  0  0
  4 12  1  0  0  0  0
  4  5  1  0  0  0  0
  4 11  1  0  0  0  0
  5 10  1  0  0  0  0
  5  6  2  0  0  0  0
  6  7  1  0  0  0  0
  6 13  1  0  0  0  0
  7  8  2  0  0  0  0
  7 14  1  0  0  0  0
  8  9  1  0  0  0  0
  8 15  1  0  0  0  0
  9 10  2  0  0  0  0
 10 16  1  0  0  0  0
 11 12  1  0  0  0  0
 11 17  1  0  0  0  0
 11 18  1  0  0  0  0
 12 19  1  0  0  0  0
 12 20  1  0  0  0  0
M  CHG  1   3  -1
M  END
> <s_m_source_file>
AV-unprocessed.smi

> <i_m_source_file_index>
2700

> <i_lp_mmshare_version>
43012

> <i_f3d_flags>
0

> <s_epik_input>
Tz1DKFtPSF0pQzEoW0NIMl1bQ0gyXTEpYzJbY0hdW2NIXVtjSF1uW2NIXTI=

> <s_epik_cmdline>
J2VwaWtfcHl0aG9uJywgJy1waCcsICc3LjAnLCAnLXRuJywgJzgnLCAnLW1hJywgJzIwMCcsICctbWV0YWxfYmluZGluZycsICctaW1hZScsICc8aW5maWxlLm1hZT4nLCAnLW9tYWUnLCAnPG91dGZpbGUubWFlPic=

> <r_epik_Ionization_Penalty>
0.0484924

> <r_epik_Ionization_Penalty_Charging>
0.000756486

> <r_epik_Ionization_Penalty_Neutral>
0.0477359

> <r_epik_State_Penalty>
0.04067

> <r_epik_Charging_Adjusted_Penalty>
0.0414265

> <i_epik_Tot_Q>
-1

> <i_epik_Tot_abs_Q>
1

> <r_epik_Metal_State_Penalty>
4.20968e-05

> <b_epik_Metal_Only>
0

> <s_lp_Force_Field>
OPLS_2005

> <r_lp_Energy>
7.44883

> <b_lp_Chiralities_Consistent>
1

> <s_lp_Variant>
AV-unprocessed.smi:2700-1

> <Gold.Version>
5.8.1

> <Gold.Id.Protein>
6NUR|6NUR_protein|mol2

> <Gold.PLP.Fitness>
37.0710

> <Gold.PLP.PLP>
-25.5979

> <Gold.PLP.part.hbond>
-2.0000

> <Gold.PLP.part.metal>
0.0000

> <Gold.PLP.part.buried>
-4.1560

> <Gold.PLP.part.nonpolar>
-19.9319

> <Gold.PLP.part.repulsive>
0.1247

> <Gold.PLP.ligand.clash>
0.0000

> <Gold.PLP.ligand.torsion>
1.0816

> <Gold.PLP.Chemscore.Hbond>
3.0000

> <Gold.PLP.Chemscore.CHOScore>
1.0000

> <Gold.PLP.Chemscore.Metal>
0.0000

> <Gold.Chemscore.Hbonds>
donor molecule, donor type, donor heavy atom, donor atom, acceptor molecule, acceptor atom, score
      P1  H  7989  7998       L1     3  1.00
      P1  H  7997  8010       L1     1  2.00
      L1  C    10    16       P1  8028  1.00

> <Gold.PLP.Chemscore.Internal.Correction>
1.6363

> <Gold.Rescore>
     Score         DG    S(hbond)    S(metal)    S(lipo)     H(rot)  DE(clash)    DE(int)     intcor
     15.62     -16.62       1.99        0.00      68.42       1.36       0.05       0.95       ----

> <Gold.Chemscore.Fitness>
15.6235

> <Gold.Chemscore.DG>
-16.6210

> <Gold.Chemscore.ZeroCoef>
-5.4800

> <Gold.Chemscore.Hbond>
1.9850

> <Gold.Chemscore.Metal>
0.0000

> <Gold.Chemscore.Lipo>
68.4165

> <Gold.Chemscore.Internal_Hbond>
0.0000

> <Gold.Chemscore.DEClash>
0.0491

> <Gold.Chemscore.DEInternal>
0.9484

> <Gold.Chemscore.Rot>
1.3647

> <Gold.Chemscore.Internal.Correction>
   9.000000E+99

> <Gold.Chemscore.Hbonds>
donor molecule, donor type, donor heavy atom, donor atom, acceptor molecule, acceptor atom, score
      P1  H  7989  7998       L1     3  0.98
      P1  H  7997  8010       L1     1  1.00

> <Gold.Chemscore.Hbond.Weighted>
-6.6299

> <Gold.Chemscore.Metal.Weighted>
-0.0000

> <Gold.Chemscore.Lipo.Weighted>
-8.0047

> <Gold.Chemscore.Internal_Hbond.Weighted>
0.0000

> <Gold.Chemscore.DEClash.Weighted>
0.0491

> <Gold.Chemscore.DEInternal.Weighted>
0.9484

> <Gold.Chemscore.Rot.Weighted>
3.4936

> <Gold.Chemscore.Internal.Correction.Weighted>
   9.000000E+99

> <Gold.Protein.RotatedTorsions>
[ 6907 6896 6895 6894 ] final   -1.92 input  -60.11 | X-H torsion
[ 7974 7965 7964 7962 ] final  -88.16 input  175.53 | X-H torsion
[ 8008 7997 7996 7995 ] final   64.80 input   59.86 | X-H torsion
[ 10167 10162 10161 10158 ] final   22.59 input  -65.29 | X-H torsion
[ 10718 10713 10712 10709 ] final -163.64 input   66.30 | X-H torsion
[ 10763 10752 10751 10750 ] final  111.70 input  -60.55 | X-H torsion
[ 11005 11000 10999 10996 ] final  -71.89 input  -57.11 | X-H torsion

> <Gold.Protein.ActiveResidues>
 VAL166  LYS551  ARG553  GLY616  TRP617  ASP618  TYR619  PRO620  LYS621  CYS622 
 ASP623  PHE694  ASN695  SER759  ASP760  ASP761  ALA762  ILE779  LEU786  VAL792 
 PHE793  MET794  SER795  GLU796  ALA797  LYS798  CYS799  TRP800  GLU811  SER814 

> <Gold.Protein.RotatedAtoms>
  151.5382  135.1068  159.9919 H   0  0  0  0  0  0  0  0  0  0  0  0  # atno 6907 bound_to 6896
  152.4547  133.7696  159.6802 H   0  0  0  0  0  0  0  0  0  0  0  0  # atno 6908 bound_to 6896
  150.8487  133.7755  159.3058 H   0  0  0  0  0  0  0  0  0  0  0  0  # atno 6909 bound_to 6896
  145.4569  140.9561  143.1991 H   0  0  0  0  0  0  0  0  0  0  0  0  # atno 7974 bound_to 7965
  155.6517  140.3497  155.4750 H   0  0  0  0  0  0  0  0  0  0  0  0  # atno 8008 bound_to 7997
  155.9843  140.1180  157.0721 H   0  0  0  0  0  0  0  0  0  0  0  0  # atno 8009 bound_to 7997
  154.4200  140.1132  156.5464 H   0  0  0  0  0  0  0  0  0  0  0  0  # atno 8010 bound_to 7997
  140.5337  143.9798  150.6479 H   0  0  0  0  0  0  0  0  0  0  0  0  # atno 10167 bound_to 10162
  156.6276  130.8916  151.2971 H   0  0  0  0  0  0  0  0  0  0  0  0  # atno 10718 bound_to 10713
  153.4671  135.3709  155.2370 H   0  0  0  0  0  0  0  0  0  0  0  0  # atno 10763 bound_to 10752
  154.8757  135.3922  154.3856 H   0  0  0  0  0  0  0  0  0  0  0  0  # atno 10764 bound_to 10752
  153.4438  135.7084  153.6216 H   0  0  0  0  0  0  0  0  0  0  0  0  # atno 10765 bound_to 10752
  141.1600  133.6830  156.6975 H   0  0  0  0  0  0  0  0  0  0  0  0  # atno 11005 bound_to 11000
  144.8027  139.6110  143.7064 LP  0  0  0  0  0  0  0  0  0  0  0  0  # atno 17320 bound_to 7965
  146.2473  139.6125  142.9451 LP  0  0  0  0  0  0  0  0  0  0  0  0  # atno 17321 bound_to 7965
  140.3180  143.3155  152.0813 LP  0  0  0  0  0  0  0  0  0  0  0  0  # atno 17342 bound_to 10162
  139.4963  144.6593  151.6502 LP  0  0  0  0  0  0  0  0  0  0  0  0  # atno 17343 bound_to 10162
  157.7209  130.9558  150.1437 LP  0  0  0  0  0  0  0  0  0  0  0  0  # atno 17370 bound_to 10713
  156.2261  130.3678  149.8499 LP  0  0  0  0  0  0  0  0  0  0  0  0  # atno 17371 bound_to 10713
  140.2984  134.8184  157.4077 LP  0  0  0  0  0  0  0  0  0  0  0  0  # atno 17394 bound_to 11000
  140.1284  134.5128  155.8126 LP  0  0  0  0  0  0  0  0  0  0  0  0  # atno 17395 bound_to 11000

$$$$
