AV-unprocessed.smi:2526|AV-procd|sdf|9936|dock4
  -GOLD-   2272013583D 1   1.00000     0.00000
 Structure written by MMmdl.
 29 30  0  0  0  0  0  0  0  0  2 V2000
  146.5366  129.8178  151.9925 C   0  0  0  0  0  0  0  0  0  0  0  0
  146.2140  131.2220  152.1293 N   0  0  0  0  0  0  0  0  0  0  0  0
  146.3550  132.2317  151.2029 C   0  0  0  0  0  0  0  0  0  0  0  0
  145.9255  133.3934  151.7861 C   0  0  0  0  0  0  0  0  0  0  0  0
  145.8735  134.7985  151.2197 C   0  0  2  0  0  0  0  0  0  0  0  0
  146.3986  135.7685  152.1844 N   0  0  0  0  0  0  0  0  0  0  0  0
  145.6781  136.5394  153.0205 C   0  0  0  0  0  0  0  0  0  0  0  0
  146.2199  137.2360  153.8747 O   0  0  0  0  0  0  0  0  0  0  0  0
  144.1481  136.5880  152.8685 C   0  0  0  0  0  0  0  0  0  0  0  0
  143.5602  135.4727  151.9849 C   0  0  0  0  0  0  0  0  0  0  0  0
  144.4510  135.2058  150.7642 C   0  0  2  0  0  0  0  0  0  0  0  0
  143.8448  134.2209  149.8488 N   0  3  0  0  0  0  0  0  0  0  0  0
  145.5226  132.9704  153.0862 C   0  0  0  0  0  0  0  0  0  0  0  0
  145.7030  131.6768  153.2907 N   0  0  0  0  0  0  0  0  0  0  0  0
  146.9593  129.6252  151.0062 H   0  0  0  0  0  0  0  0  0  0  0  0
  145.6341  129.2179  152.1143 H   0  0  0  0  0  0  0  0  0  0  0  0
  147.2644  129.5298  152.7518 H   0  0  0  0  0  0  0  0  0  0  0  0
  146.7518  132.0434  150.2158 H   0  0  0  0  0  0  0  0  0  0  0  0
  146.5289  134.8558  150.3496 H   0  0  0  0  0  0  0  0  0  0  0  0
  147.4034  135.7994  152.2844 H   0  0  0  0  0  0  0  0  0  0  0  0
  143.6824  136.5683  153.8542 H   0  0  0  0  0  0  0  0  0  0  0  0
  143.9022  137.5564  152.4316 H   0  0  0  0  0  0  0  0  0  0  0  0
  143.4393  134.5619  152.5732 H   0  0  0  0  0  0  0  0  0  0  0  0
  142.5590  135.7602  151.6621 H   0  0  0  0  0  0  0  0  0  0  0  0
  144.5273  136.1362  150.1992 H   0  0  0  0  0  0  0  0  0  0  0  0
  142.8574  134.4130  149.7566 H   0  0  0  0  0  0  0  0  0  0  0  0
  143.9732  133.2902  150.2196 H   0  0  0  0  0  0  0  0  0  0  0  0
  145.1117  133.5668  153.8874 H   0  0  0  0  0  0  0  0  0  0  0  0
  144.2862  134.2857  148.9426 H   0  0  0  0  0  0  0  0  0  0  0  0
  1  2  1  0  0  0  0
  1 15  1  0  0  0  0
  1 16  1  0  0  0  0
  1 17  1  0  0  0  0
  2 14  1  0  0  0  0
  2  3  1  0  0  0  0
  3  4  2  0  0  0  0
  3 18  1  0  0  0  0
  4  5  1  0  0  0  0
  4 13  1  0  0  0  0
  5 11  1  0  0  0  0
  5  6  1  0  0  0  0
  5 19  1  0  0  0  0
  6  7  1  0  0  0  0
  6 20  1  0  0  0  0
  7  8  2  0  0  0  0
  7  9  1  0  0  0  0
  9 10  1  0  0  0  0
  9 21  1  0  0  0  0
  9 22  1  0  0  0  0
 10 11  1  0  0  0  0
 10 23  1  0  0  0  0
 10 24  1  0  0  0  0
 11 12  1  0  0  0  0
 11 25  1  0  0  0  0
 12 26  1  0  0  0  0
 12 27  1  0  0  0  0
 12 29  1  0  0  0  0
 13 14  2  0  0  0  0
 13 28  1  0  0  0  0
M  CHG  1  12   1
M  END
> <s_m_source_file>
AV-unprocessed.smi

> <i_m_source_file_index>
2526

> <i_lp_mmshare_version>
43012

> <i_f3d_flags>
0

> <s_epik_input>
W0NIM11uMVtjSF1jKFtjSF1uMSlbQ0BASF0yW05IXUMoPU8pW0NIMl1bQ0gyXVtDQEhdMltOSDJd

> <s_epik_cmdline>
J2VwaWtfcHl0aG9uJywgJy1waCcsICc3LjAnLCAnLXRuJywgJzgnLCAnLW1hJywgJzIwMCcsICctbWV0YWxfYmluZGluZycsICctaW1hZScsICc8aW5maWxlLm1hZT4nLCAnLW9tYWUnLCAnPG91dGZpbGUubWFlPic=

> <r_lp_tautomer_probability>
1

> <r_epik_Ionization_Penalty>
0.00878543

> <r_epik_Ionization_Penalty_Charging>
0.00874185

> <r_epik_Ionization_Penalty_Neutral>
4.35793e-05

> <r_epik_State_Penalty>
0.00660351

> <r_epik_Charging_Adjusted_Penalty>
0.0153454

> <i_epik_Tot_Q>
1

> <i_epik_Tot_abs_Q>
1

> <r_epik_Metal_State_Penalty>
0.00660727

> <b_epik_Metal_Only>
0

> <s_lp_Force_Field>
OPLS_2005

> <r_lp_Energy>
11.1602

> <b_lp_Chiralities_Consistent>
1

> <s_lp_Variant>
AV-unprocessed.smi:2526-3

> <Gold.Version>
5.8.1

> <Gold.Id.Protein>
6NUR|6NUR_protein|mol2

> <Gold.PLP.Fitness>
35.7613

> <Gold.PLP.PLP>
-22.4355

> <Gold.PLP.part.hbond>
-2.8654

> <Gold.PLP.part.metal>
0.0000

> <Gold.PLP.part.buried>
-2.5273

> <Gold.PLP.part.nonpolar>
-17.5239

> <Gold.PLP.part.repulsive>
0.4490

> <Gold.PLP.ligand.clash>
0.0000

> <Gold.PLP.ligand.torsion>
0.4246

> <Gold.PLP.Chemscore.Hbond>
4.0000

> <Gold.PLP.Chemscore.CHOScore>
0.7187

> <Gold.PLP.Chemscore.Metal>
0.0000

> <Gold.Chemscore.Hbonds>
donor molecule, donor type, donor heavy atom, donor atom, acceptor molecule, acceptor atom, score
      L1  H     6    20       P1  7948  1.00
      L1  H    12    26       P1 10186  2.00
      L1  H    12    29       P1  7921  0.28
      L1  C     3    18       P1 10747  0.67

> <Gold.PLP.Chemscore.Internal.Correction>
0.0189

> <Gold.Rescore>
     Score         DG    S(hbond)    S(metal)    S(lipo)     H(rot)  DE(clash)    DE(int)     intcor
     17.31     -17.89       2.84        0.00      46.90       1.00       0.09       0.49       ----

> <Gold.Chemscore.Fitness>
17.3054

> <Gold.Chemscore.DG>
-17.8864

> <Gold.Chemscore.ZeroCoef>
-5.4800

> <Gold.Chemscore.Hbond>
2.8380

> <Gold.Chemscore.Metal>
0.0000

> <Gold.Chemscore.Lipo>
46.9023

> <Gold.Chemscore.Internal_Hbond>
0.0000

> <Gold.Chemscore.DEClash>
0.0894

> <Gold.Chemscore.DEInternal>
0.4916

> <Gold.Chemscore.Rot>
1.0000

> <Gold.Chemscore.Internal.Correction>
   9.000000E+99

> <Gold.Chemscore.Hbonds>
donor molecule, donor type, donor heavy atom, donor atom, acceptor molecule, acceptor atom, score
      L1  H     6    20       P1  7948  0.98
      L1  H    12    26       P1 10186  0.97
      L1  H    12    29       P1  7921  0.28

> <Gold.Chemscore.Hbond.Weighted>
-9.4788

> <Gold.Chemscore.Metal.Weighted>
-0.0000

> <Gold.Chemscore.Lipo.Weighted>
-5.4876

> <Gold.Chemscore.Internal_Hbond.Weighted>
0.0000

> <Gold.Chemscore.DEClash.Weighted>
0.0894

> <Gold.Chemscore.DEInternal.Weighted>
0.4916

> <Gold.Chemscore.Rot.Weighted>
2.5600

> <Gold.Chemscore.Internal.Correction.Weighted>
   9.000000E+99

> <Gold.Protein.RotatedTorsions>
[ 6907 6896 6895 6894 ] final  -82.95 input  -60.11 | X-H torsion
[ 7974 7965 7964 7962 ] final   73.78 input  175.53 | X-H torsion
[ 8008 7997 7996 7995 ] final -157.58 input   59.86 | X-H torsion
[ 10167 10162 10161 10158 ] final  -35.57 input  -65.29 | X-H torsion
[ 10718 10713 10712 10709 ] final  -25.81 input   66.30 | X-H torsion
[ 10763 10752 10751 10750 ] final -159.50 input  -60.55 | X-H torsion
[ 11005 11000 10999 10996 ] final  -79.49 input  -57.11 | X-H torsion

> <Gold.Protein.ActiveResidues>
 VAL166  LYS551  ARG553  GLY616  TRP617  ASP618  TYR619  PRO620  LYS621  CYS622 
 ASP623  PHE694  ASN695  SER759  ASP760  ASP761  ALA762  ILE779  LEU786  VAL792 
 PHE793  MET794  SER795  GLU796  ALA797  LYS798  CYS799  TRP800  GLU811  SER814 

> <Gold.Protein.RotatedAtoms>
  150.6891  134.3587  159.4940 H   0  0  0  0  0  0  0  0  0  0  0  0  # atno 6907 bound_to 6896
  152.1419  134.9053  160.0562 H   0  0  0  0  0  0  0  0  0  0  0  0  # atno 6908 bound_to 6896
  152.0184  133.3854  159.4285 H   0  0  0  0  0  0  0  0  0  0  0  0  # atno 6909 bound_to 6896
  145.7365  139.2704  143.1511 H   0  0  0  0  0  0  0  0  0  0  0  0  # atno 7974 bound_to 7965
  155.7346  140.0806  157.2273 H   0  0  0  0  0  0  0  0  0  0  0  0  # atno 8008 bound_to 7997
  154.4029  140.1589  156.2602 H   0  0  0  0  0  0  0  0  0  0  0  0  # atno 8009 bound_to 7997
  155.9077  140.3406  155.6077 H   0  0  0  0  0  0  0  0  0  0  0  0  # atno 8010 bound_to 7997
  140.7162  143.3468  151.2240 H   0  0  0  0  0  0  0  0  0  0  0  0  # atno 10167 bound_to 10162
  156.4594  130.4501  149.6938 H   0  0  0  0  0  0  0  0  0  0  0  0  # atno 10718 bound_to 10713
  154.7469  135.3082  154.8628 H   0  0  0  0  0  0  0  0  0  0  0  0  # atno 10763 bound_to 10752
  153.9426  135.6773  153.4748 H   0  0  0  0  0  0  0  0  0  0  0  0  # atno 10764 bound_to 10752
  153.1066  135.4886  154.8888 H   0  0  0  0  0  0  0  0  0  0  0  0  # atno 10765 bound_to 10752
  141.1667  133.7108  156.8131 H   0  0  0  0  0  0  0  0  0  0  0  0  # atno 11005 bound_to 11000
  146.0488  140.8090  142.9792 LP  0  0  0  0  0  0  0  0  0  0  0  0  # atno 17320 bound_to 7965
  144.6880  140.3021  143.7261 LP  0  0  0  0  0  0  0  0  0  0  0  0  # atno 17321 bound_to 7965
  139.6989  143.9566  152.2896 LP  0  0  0  0  0  0  0  0  0  0  0  0  # atno 17342 bound_to 10162
  139.9253  144.6775  150.8419 LP  0  0  0  0  0  0  0  0  0  0  0  0  # atno 17343 bound_to 10162
  156.3732  130.7541  151.2526 LP  0  0  0  0  0  0  0  0  0  0  0  0  # atno 17370 bound_to 10713
  157.7498  131.0317  150.4193 LP  0  0  0  0  0  0  0  0  0  0  0  0  # atno 17371 bound_to 10713
  140.2173  134.8783  157.3340 LP  0  0  0  0  0  0  0  0  0  0  0  0  # atno 17394 bound_to 11000
  140.2024  134.4238  155.7656 LP  0  0  0  0  0  0  0  0  0  0  0  0  # atno 17395 bound_to 11000

$$$$
