AV-unprocessed.smi:193|AV-procd|sdf|1504|dock8
  -GOLD-   2262019333D 1   1.00000     0.00000
 Structure written by MMmdl.
 62 66  0  0  0  0  0  0  0  0  2 V2000
  153.8013  140.9006  160.8955 C   0  0  0  0  0  0  0  0  0  0  0  0
  152.7616  141.2479  159.8176 C   0  0  2  0  0  0  0  0  0  0  0  0
  153.0925  140.4827  158.5190 C   0  0  0  0  0  0  0  0  0  0  0  0
  151.9493  140.2956  157.6229 N   0  0  0  0  0  0  0  0  0  0  0  0
  152.0197  139.3101  156.6900 C   0  0  0  0  0  0  0  0  0  0  0  0
  152.7555  139.5170  155.5656 N   0  0  0  0  0  0  0  0  0  0  0  0
  152.8281  138.5738  154.6218 C   0  0  0  0  0  0  0  0  0  0  0  0
  152.2539  137.3702  154.5999 N   0  0  0  0  0  0  0  0  0  0  0  0
  151.5225  137.1498  155.7291 C   0  0  0  0  0  0  0  0  0  0  0  0
  151.3586  138.0538  156.8171 C   0  0  0  0  0  0  0  0  0  0  0  0
  150.5649  137.4701  157.7987 N   0  0  0  0  0  0  0  0  0  0  0  0
  150.2654  136.2968  157.3125 C   0  0  0  0  0  0  0  0  0  0  0  0
  150.7851  136.0282  156.0666 N   0  0  0  0  0  0  0  0  0  0  0  0
  150.5980  134.8131  155.2884 C   0  0  0  0  0  0  0  0  0  0  0  0
  149.1364  134.5805  154.8289 C   0  0  0  0  0  0  0  0  0  0  0  0
  148.6452  135.8033  154.3079 O   0  0  0  0  0  0  0  0  0  0  0  0
  149.0879  133.5224  153.7087 C   0  0  0  0  0  0  0  0  0  0  0  0
  147.6458  133.1297  153.3413 C   0  0  0  0  0  0  0  0  0  0  0  0
  146.9518  132.6876  154.5013 O   0  0  0  0  0  0  0  0  0  0  0  0
  146.8221  133.7065  155.4848 C   0  0  0  0  0  0  0  0  0  0  0  0
  148.2115  134.1399  155.9851 C   0  0  0  0  0  0  0  0  0  0  0  0
  150.9044  141.3064  157.4640 C   0  0  0  0  0  0  0  0  0  0  0  0
  151.4372  142.7444  157.4912 C   0  0  0  0  0  0  0  0  0  0  0  0
  151.5296  143.2557  158.8792 N   0  3  2  0  0  0  0  0  0  0  0  0
  151.4120  144.7324  158.9244 C   0  0  2  0  0  0  0  0  0  0  0  0
  151.5669  145.3213  160.3086 C   0  0  0  0  0  0  0  0  0  0  0  0
  150.1970  145.2572  159.6695 C   0  0  2  0  0  0  0  0  0  0  0  0
  149.1227  144.3594  160.2568 C   0  0  0  0  0  0  0  0  0  0  0  0
  152.7343  142.7775  159.6010 C   0  0  0  0  0  0  0  0  0  0  0  0
  154.8056  141.1942  160.5879 H   0  0  0  0  0  0  0  0  0  0  0  0
  153.8155  139.8294  161.0990 H   0  0  0  0  0  0  0  0  0  0  0  0
  153.5799  141.4040  161.8371 H   0  0  0  0  0  0  0  0  0  0  0  0
  151.7935  140.9174  160.1979 H   0  0  0  0  0  0  0  0  0  0  0  0
  153.9063  140.9731  157.9830 H   0  0  0  0  0  0  0  0  0  0  0  0
  153.4589  139.4904  158.7880 H   0  0  0  0  0  0  0  0  0  0  0  0
  153.4303  138.8190  153.7592 H   0  0  0  0  0  0  0  0  0  0  0  0
  149.6435  135.5942  157.8483 H   0  0  0  0  0  0  0  0  0  0  0  0
  151.2664  134.8501  154.4266 H   0  0  0  0  0  0  0  0  0  0  0  0
  150.9351  133.9723  155.8961 H   0  0  0  0  0  0  0  0  0  0  0  0
  148.6713  135.7610  153.3643 H   0  0  0  0  0  0  0  0  0  0  0  0
  149.6153  133.8787  152.8228 H   0  0  0  0  0  0  0  0  0  0  0  0
  149.6152  132.6254  154.0364 H   0  0  0  0  0  0  0  0  0  0  0  0
  147.1143  133.9641  152.8809 H   0  0  0  0  0  0  0  0  0  0  0  0
  147.6555  132.3214  152.6101 H   0  0  0  0  0  0  0  0  0  0  0  0
  146.2689  134.5538  155.0772 H   0  0  0  0  0  0  0  0  0  0  0  0
  146.2334  133.3178  156.3157 H   0  0  0  0  0  0  0  0  0  0  0  0
  148.6681  133.3005  156.5106 H   0  0  0  0  0  0  0  0  0  0  0  0
  148.0989  134.9379  156.7200 H   0  0  0  0  0  0  0  0  0  0  0  0
  150.4145  141.1711  156.4992 H   0  0  0  0  0  0  0  0  0  0  0  0
  150.1312  141.1608  158.2193 H   0  0  0  0  0  0  0  0  0  0  0  0
  152.3843  142.8455  156.9585 H   0  0  0  0  0  0  0  0  0  0  0  0
  150.7213  143.3619  156.9475 H   0  0  0  0  0  0  0  0  0  0  0  0
  151.8034  145.2665  158.0601 H   0  0  0  0  0  0  0  0  0  0  0  0
  151.7705  144.6450  161.1370 H   0  0  0  0  0  0  0  0  0  0  0  0
  152.0320  146.3020  160.3878 H   0  0  0  0  0  0  0  0  0  0  0  0
  149.8034  146.2018  159.2995 H   0  0  0  0  0  0  0  0  0  0  0  0
  149.5526  143.4658  160.7100 H   0  0  0  0  0  0  0  0  0  0  0  0
  148.4206  144.0552  159.4804 H   0  0  0  0  0  0  0  0  0  0  0  0
  148.5707  144.8982  161.0270 H   0  0  0  0  0  0  0  0  0  0  0  0
  152.7483  143.2635  160.5774 H   0  0  0  0  0  0  0  0  0  0  0  0
  153.6360  143.1116  159.0851 H   0  0  0  0  0  0  0  0  0  0  0  0
  150.7257  142.8987  159.3755 H   0  0  0  0  0  0  0  0  0  0  0  0
  1  2  1  0  0  0  0
  1 30  1  0  0  0  0
  1 31  1  0  0  0  0
  1 32  1  0  0  0  0
  2 29  1  0  0  0  0
  2  3  1  0  0  0  0
  2 33  1  0  0  0  0
  3  4  1  0  0  0  0
  3 34  1  0  0  0  0
  3 35  1  0  0  0  0
  4  5  1  0  0  0  0
  4 22  1  0  0  0  0
  5 10  1  0  0  0  0
  5  6  2  0  0  0  0
  6  7  1  0  0  0  0
  7  8  2  0  0  0  0
  7 36  1  0  0  0  0
  8  9  1  0  0  0  0
  9 13  1  0  0  0  0
  9 10  2  0  0  0  0
 10 11  1  0  0  0  0
 11 12  2  0  0  0  0
 12 13  1  0  0  0  0
 12 37  1  0  0  0  0
 13 14  1  0  0  0  0
 14 15  1  0  0  0  0
 14 38  1  0  0  0  0
 14 39  1  0  0  0  0
 15 21  1  0  0  0  0
 15 16  1  0  0  0  0
 15 17  1  0  0  0  0
 16 40  1  0  0  0  0
 17 18  1  0  0  0  0
 17 41  1  0  0  0  0
 17 42  1  0  0  0  0
 18 19  1  0  0  0  0
 18 43  1  0  0  0  0
 18 44  1  0  0  0  0
 19 20  1  0  0  0  0
 20 21  1  0  0  0  0
 20 45  1  0  0  0  0
 20 46  1  0  0  0  0
 21 47  1  0  0  0  0
 21 48  1  0  0  0  0
 22 23  1  0  0  0  0
 22 49  1  0  0  0  0
 22 50  1  0  0  0  0
 23 24  1  0  0  0  0
 23 51  1  0  0  0  0
 23 52  1  0  0  0  0
 24 25  1  0  0  0  0
 24 29  1  0  0  0  0
 24 62  1  0  0  0  0
 25 27  1  0  0  0  0
 25 26  1  0  0  0  0
 25 53  1  0  0  0  0
 26 27  1  0  0  0  0
 26 54  1  0  0  0  0
 26 55  1  0  0  0  0
 27 28  1  0  0  0  0
 27 56  1  0  0  0  0
 28 57  1  0  0  0  0
 28 58  1  0  0  0  0
 28 59  1  0  0  0  0
 29 60  1  0  0  0  0
 29 61  1  0  0  0  0
M  CHG  1  24   1
M  END
> <s_m_source_file>
AV-unprocessed.smi

> <i_m_source_file_index>
193

> <i_lp_mmshare_version>
43012

> <i_f3d_flags>
0

> <s_epik_input>
W0NIM11bQ0BASF0xW0NIMl1bQ0BIXTFOKFtDSDJdMilbQ0gyXVtDSDJdTihbQ0gyXVtDQEhdMltDSDNdKWMobltjSF1uMyljKGMzNCluW2NIXW40W0NIMl1DNShbT0hdKVtDSDJdW0NIMl1PW0NIMl1bQ0gyXTU=

> <s_epik_cmdline>
J2VwaWtfcHl0aG9uJywgJy1waCcsICc3LjAnLCAnLXRuJywgJzgnLCAnLW1hJywgJzIwMCcsICctbWV0YWxfYmluZGluZycsICctaW1hZScsICc8aW5maWxlLm1hZT4nLCAnLW9tYWUnLCAnPG91dGZpbGUubWFlPic=

> <r_lp_tautomer_probability>
1

> <r_epik_Ionization_Penalty>
0.0540825

> <r_epik_Ionization_Penalty_Charging>
0.0538476

> <r_epik_Ionization_Penalty_Neutral>
0.000234891

> <r_epik_State_Penalty>
0.0200719

> <r_epik_Charging_Adjusted_Penalty>
0.0739194

> <i_epik_Tot_Q>
1

> <i_epik_Tot_abs_Q>
1

> <r_epik_Metal_State_Penalty>
0.0199414

> <b_epik_Metal_Only>
0

> <s_lp_Force_Field>
OPLS_2005

> <r_lp_Energy>
56.2911

> <b_lp_Chiralities_Consistent>
1

> <s_lp_Variant>
AV-unprocessed.smi:193-9

> <Gold.Version>
5.8.1

> <Gold.Id.Protein>
6NUR|6NUR_protein|mol2

> <Gold.PLP.Fitness>
53.8091

> <Gold.PLP.PLP>
-49.0964

> <Gold.PLP.part.hbond>
-3.0000

> <Gold.PLP.part.metal>
0.0000

> <Gold.PLP.part.buried>
-7.4485

> <Gold.PLP.part.nonpolar>
-40.1445

> <Gold.PLP.part.repulsive>
0.2002

> <Gold.PLP.ligand.clash>
0.0000

> <Gold.PLP.ligand.torsion>
2.4184

> <Gold.PLP.Chemscore.Hbond>
2.7440

> <Gold.PLP.Chemscore.CHOScore>
0.0000

> <Gold.PLP.Chemscore.Metal>
0.0000

> <Gold.Chemscore.Hbonds>
donor molecule, donor type, donor heavy atom, donor atom, acceptor molecule, acceptor atom, score
      L1  H    16    40       P1  7948  1.00
      P1  H  7997  8010       L1     6  0.66
      P1  H 10752 10764       L1     8  0.59

> <Gold.PLP.Chemscore.Internal.Correction>
1.3175

> <Gold.Rescore>
     Score         DG    S(hbond)    S(metal)    S(lipo)     H(rot)  DE(clash)    DE(int)     intcor
     20.30     -22.61       2.58        0.00     114.88       1.93       0.01       2.30       ----

> <Gold.Chemscore.Fitness>
20.3034

> <Gold.Chemscore.DG>
-22.6090

> <Gold.Chemscore.ZeroCoef>
-5.4800

> <Gold.Chemscore.Hbond>
2.5828

> <Gold.Chemscore.Metal>
0.0000

> <Gold.Chemscore.Lipo>
114.8777

> <Gold.Chemscore.Internal_Hbond>
0.0000

> <Gold.Chemscore.DEClash>
0.0072

> <Gold.Chemscore.DEInternal>
2.2984

> <Gold.Chemscore.Rot>
1.9290

> <Gold.Chemscore.Internal.Correction>
   9.000000E+99

> <Gold.Chemscore.Hbonds>
donor molecule, donor type, donor heavy atom, donor atom, acceptor molecule, acceptor atom, score
      L1  H    16    40       P1  7948  0.97
      P1  H  7997  8010       L1     6  0.08
      P1  H 10752 10764       L1     8  0.08

> <Gold.Chemscore.Hbond.Weighted>
-8.6266

> <Gold.Chemscore.Metal.Weighted>
-0.0000

> <Gold.Chemscore.Lipo.Weighted>
-13.4407

> <Gold.Chemscore.Internal_Hbond.Weighted>
0.0000

> <Gold.Chemscore.DEClash.Weighted>
0.0072

> <Gold.Chemscore.DEInternal.Weighted>
2.2984

> <Gold.Chemscore.Rot.Weighted>
4.9383

> <Gold.Chemscore.Internal.Correction.Weighted>
   9.000000E+99

> <Gold.Protein.RotatedTorsions>
[ 6907 6896 6895 6894 ] final -137.39 input  -60.11 | X-H torsion
[ 7974 7965 7964 7962 ] final   61.14 input  175.53 | X-H torsion
[ 8008 7997 7996 7995 ] final   65.44 input   59.86 | X-H torsion
[ 10167 10162 10161 10158 ] final  126.21 input  -65.29 | X-H torsion
[ 10718 10713 10712 10709 ] final  157.65 input   66.30 | X-H torsion
[ 10763 10752 10751 10750 ] final  -65.44 input  -60.55 | X-H torsion
[ 11005 11000 10999 10996 ] final -135.01 input  -57.11 | X-H torsion

> <Gold.Protein.ActiveResidues>
 VAL166  LYS551  ARG553  GLY616  TRP617  ASP618  TYR619  PRO620  LYS621  CYS622 
 ASP623  PHE694  ASN695  SER759  ASP760  ASP761  ALA762  ILE779  LEU786  VAL792 
 PHE793  MET794  SER795  GLU796  ALA797  LYS798  CYS799  TRP800  GLU811  SER814 

> <Gold.Protein.RotatedAtoms>
  151.0219  133.5869  159.2670 H   0  0  0  0  0  0  0  0  0  0  0  0  # atno 6907 bound_to 6896
  151.2983  135.0760  159.9239 H   0  0  0  0  0  0  0  0  0  0  0  0  # atno 6908 bound_to 6896
  152.5325  133.9905  159.7902 H   0  0  0  0  0  0  0  0  0  0  0  0  # atno 6909 bound_to 6896
  145.8882  139.3491  143.0665 H   0  0  0  0  0  0  0  0  0  0  0  0  # atno 7974 bound_to 7965
  155.6618  140.3497  155.4785 H   0  0  0  0  0  0  0  0  0  0  0  0  # atno 8008 bound_to 7997
  155.9762  140.1165  157.0791 H   0  0  0  0  0  0  0  0  0  0  0  0  # atno 8009 bound_to 7997
  154.4179  140.1147  156.5359 H   0  0  0  0  0  0  0  0  0  0  0  0  # atno 8010 bound_to 7997
  139.5643  144.6901  151.3954 H   0  0  0  0  0  0  0  0  0  0  0  0  # atno 10167 bound_to 10162
  157.1885  131.0649  151.2092 H   0  0  0  0  0  0  0  0  0  0  0  0  # atno 10718 bound_to 10713
  154.3450  135.6148  153.5615 H   0  0  0  0  0  0  0  0  0  0  0  0  # atno 10763 bound_to 10752
  152.9801  135.5778  154.4809 H   0  0  0  0  0  0  0  0  0  0  0  0  # atno 10764 bound_to 10752
  154.4520  135.2853  155.1751 H   0  0  0  0  0  0  0  0  0  0  0  0  # atno 10765 bound_to 10752
  140.8937  134.1779  157.4510 H   0  0  0  0  0  0  0  0  0  0  0  0  # atno 11005 bound_to 11000
  145.8941  140.9285  143.0537 LP  0  0  0  0  0  0  0  0  0  0  0  0  # atno 17320 bound_to 7965
  144.6729  140.0945  143.7463 LP  0  0  0  0  0  0  0  0  0  0  0  0  # atno 17321 bound_to 7965
  140.6926  143.7826  150.7277 LP  0  0  0  0  0  0  0  0  0  0  0  0  # atno 17342 bound_to 10162
  140.1313  143.4523  152.2252 LP  0  0  0  0  0  0  0  0  0  0  0  0  # atno 17343 bound_to 10162
  157.3883  130.7268  149.6679 LP  0  0  0  0  0  0  0  0  0  0  0  0  # atno 17370 bound_to 10713
  155.9715  130.4153  150.4176 LP  0  0  0  0  0  0  0  0  0  0  0  0  # atno 17371 bound_to 10713
  139.8733  134.9869  156.5345 LP  0  0  0  0  0  0  0  0  0  0  0  0  # atno 17394 bound_to 11000
  140.8315  133.8275  155.8989 LP  0  0  0  0  0  0  0  0  0  0  0  0  # atno 17395 bound_to 11000

$$$$
