AV-unprocessed.smi:2480|AV-procd|sdf|9770|dock4
  -GOLD-   2272013413D 1   1.00000     0.00000
 Structure written by MMmdl.
 33 34  0  0  0  0  0  0  0  0  3 V2000
  150.7430  142.7147  157.2861 O   0  0  0  0  0  0  0  0  0  0  0  0
  151.5137  141.7685  157.4321 C   0  0  0  0  0  0  0  0  0  0  0  0
  151.4424  140.6049  156.7554 N   0  0  0  0  0  0  0  0  0  0  0  0
  150.5200  140.1965  155.7487 C   0  0  0  0  0  0  0  0  0  0  0  0
  149.2506  140.8053  155.5884 C   0  0  0  0  0  0  0  0  0  0  0  0
  148.3757  140.3127  154.6020 C   0  0  0  0  0  0  0  0  0  0  0  0
  148.6747  139.2732  153.7989 N   0  0  0  0  0  0  0  0  0  0  0  0
  149.8756  138.6812  153.9606 C   0  0  0  0  0  0  0  0  0  0  0  0
  150.8381  139.0922  154.9104 C   0  0  0  0  0  0  0  0  0  0  0  0
  152.1171  138.3633  154.9978 N   0  3  0  0  0  0  0  0  0  0  0  0
  153.0256  138.8886  155.6321 O   0  0  0  0  0  0  0  0  0  0  0  0
  152.2066  137.2652  154.4594 O   0  5  0  0  0  0  0  0  0  0  0  0
  152.5342  141.8347  158.3077 N   0  0  0  0  0  0  0  0  0  0  0  0
  152.9047  142.9371  159.1985 C   0  0  1  0  0  0  0  0  0  0  0  0
  152.6490  144.2769  158.5212 C   0  0  0  0  0  0  0  0  0  0  0  0
  152.0724  145.3253  159.1330 C   0  0  0  0  0  0  0  0  0  0  0  0
  151.6154  145.3029  160.5797 C   0  0  0  0  0  0  0  0  0  0  0  0
  152.1944  144.1046  161.3529 C   0  0  0  0  0  0  0  0  0  0  0  0
  152.1300  142.8102  160.5275 C   0  0  0  0  0  0  0  0  0  0  0  0
  152.1953  139.9560  156.9336 H   0  0  0  0  0  0  0  0  0  0  0  0
  148.9203  141.6227  156.2100 H   0  0  0  0  0  0  0  0  0  0  0  0
  147.4026  140.7599  154.4631 H   0  0  0  0  0  0  0  0  0  0  0  0
  150.0761  137.8498  153.3006 H   0  0  0  0  0  0  0  0  0  0  0  0
  153.1097  141.0080  158.3812 H   0  0  0  0  0  0  0  0  0  0  0  0
  153.9701  142.8932  159.4299 H   0  0  0  0  0  0  0  0  0  0  0  0
  152.9524  144.3701  157.4887 H   0  0  0  0  0  0  0  0  0  0  0  0
  151.9026  146.2394  158.5832 H   0  0  0  0  0  0  0  0  0  0  0  0
  151.9079  146.2343  161.0646 H   0  0  0  0  0  0  0  0  0  0  0  0
  150.5256  145.2677  160.5891 H   0  0  0  0  0  0  0  0  0  0  0  0
  153.2343  144.3089  161.6108 H   0  0  0  0  0  0  0  0  0  0  0  0
  151.6627  143.9795  162.2966 H   0  0  0  0  0  0  0  0  0  0  0  0
  151.0827  142.5784  160.3268 H   0  0  0  0  0  0  0  0  0  0  0  0
  152.5229  141.9748  161.1084 H   0  0  0  0  0  0  0  0  0  0  0  0
  1  2  2  0  0  0  0
  2  3  1  0  0  0  0
  2 13  1  0  0  0  0
  3  4  1  0  0  0  0
  3 20  1  0  0  0  0
  4  9  1  0  0  0  0
  4  5  2  0  0  0  0
  5  6  1  0  0  0  0
  5 21  1  0  0  0  0
  6  7  2  0  0  0  0
  6 22  1  0  0  0  0
  7  8  1  0  0  0  0
  8  9  2  0  0  0  0
  8 23  1  0  0  0  0
  9 10  1  0  0  0  0
 10 11  2  0  0  0  0
 10 12  1  0  0  0  0
 13 14  1  0  0  0  0
 13 24  1  0  0  0  0
 14 19  1  0  0  0  0
 14 15  1  0  0  0  0
 14 25  1  0  0  0  0
 15 16  2  0  0  0  0
 15 26  1  0  0  0  0
 16 17  1  0  0  0  0
 16 27  1  0  0  0  0
 17 18  1  0  0  0  0
 17 28  1  0  0  0  0
 17 29  1  0  0  0  0
 18 19  1  0  0  0  0
 18 30  1  0  0  0  0
 18 31  1  0  0  0  0
 19 32  1  0  0  0  0
 19 33  1  0  0  0  0
M  CHG  1  10   1
M  CHG  1  12  -1
M  END
> <s_m_source_file>
AV-unprocessed.smi

> <i_m_source_file_index>
2480

> <i_lp_mmshare_version>
43012

> <i_f3d_flags>
0

> <s_epik_input>
W0NIMl0xW0NIMl1bQ0gyXVtDSF09W0NIXVtDQEhdMVtOSF1DKD1PKVtOSF1jMltjSF1bY0hdbltjSF1jMltOK10oPU8pW08tXQ==

> <s_epik_cmdline>
J2VwaWtfcHl0aG9uJywgJy1waCcsICc3LjAnLCAnLXRuJywgJzgnLCAnLW1hJywgJzIwMCcsICctbWV0YWxfYmluZGluZycsICctaW1hZScsICc8aW5maWxlLm1hZT4nLCAnLW9tYWUnLCAnPG91dGZpbGUubWFlPic=

> <r_lp_tautomer_probability>
1

> <r_epik_Ionization_Penalty>
0.000149203

> <r_epik_Ionization_Penalty_Charging>
0

> <r_epik_Ionization_Penalty_Neutral>
0.000149203

> <r_epik_State_Penalty>
-0

> <r_epik_Charging_Adjusted_Penalty>
0

> <i_epik_Tot_Q>
0

> <i_epik_Tot_abs_Q>
2

> <r_epik_Metal_State_Penalty>
-0

> <b_epik_Metal_Only>
0

> <s_lp_Force_Field>
OPLS_2005

> <r_lp_Energy>
27.1636

> <b_lp_Chiralities_Consistent>
1

> <s_lp_Variant>
AV-unprocessed.smi:2480-2

> <Gold.Version>
5.8.1

> <Gold.Id.Protein>
6NUR|6NUR_protein|mol2

> <Gold.PLP.Fitness>
48.5156

> <Gold.PLP.PLP>
-40.9441

> <Gold.PLP.part.hbond>
-2.0000

> <Gold.PLP.part.metal>
0.0000

> <Gold.PLP.part.buried>
-3.5269

> <Gold.PLP.part.nonpolar>
-37.4905

> <Gold.PLP.part.repulsive>
1.9924

> <Gold.PLP.ligand.clash>
0.0000

> <Gold.PLP.ligand.torsion>
0.5326

> <Gold.PLP.Chemscore.Hbond>
1.8320

> <Gold.PLP.Chemscore.CHOScore>
1.0434

> <Gold.PLP.Chemscore.Metal>
0.0000

> <Gold.Chemscore.Hbonds>
donor molecule, donor type, donor heavy atom, donor atom, acceptor molecule, acceptor atom, score
      P1  H  7997  8008       L1    11  1.00
      P1  H 10752 10765       L1    12  0.83
      L1  C     8    23       P1  7948  1.00
      L1  C     8    23       P1  7949  0.04

> <Gold.PLP.Chemscore.Internal.Correction>
0.0103

> <Gold.Rescore>
     Score         DG    S(hbond)    S(metal)    S(lipo)     H(rot)  DE(clash)    DE(int)     intcor
     15.59     -21.79       1.85        0.00     108.31       1.00       1.35       4.84       ----

> <Gold.Chemscore.Fitness>
15.5906

> <Gold.Chemscore.DG>
-21.7864

> <Gold.Chemscore.ZeroCoef>
-5.4800

> <Gold.Chemscore.Hbond>
1.8547

> <Gold.Chemscore.Metal>
0.0000

> <Gold.Chemscore.Lipo>
108.3054

> <Gold.Chemscore.Internal_Hbond>
0.0000

> <Gold.Chemscore.DEClash>
1.3549

> <Gold.Chemscore.DEInternal>
4.8409

> <Gold.Chemscore.Rot>
1.0000

> <Gold.Chemscore.Internal.Correction>
   9.000000E+99

> <Gold.Chemscore.Hbonds>
donor molecule, donor type, donor heavy atom, donor atom, acceptor molecule, acceptor atom, score
      P1  H  7997  8008       L1    11  0.99
      P1  H 10752 10765       L1    12  0.81

> <Gold.Chemscore.Hbond.Weighted>
-6.1947

> <Gold.Chemscore.Metal.Weighted>
-0.0000

> <Gold.Chemscore.Lipo.Weighted>
-12.6717

> <Gold.Chemscore.Internal_Hbond.Weighted>
0.0000

> <Gold.Chemscore.DEClash.Weighted>
1.3549

> <Gold.Chemscore.DEInternal.Weighted>
4.8409

> <Gold.Chemscore.Rot.Weighted>
2.5600

> <Gold.Chemscore.Internal.Correction.Weighted>
   9.000000E+99

> <Gold.Protein.RotatedTorsions>
[ 6907 6896 6895 6894 ] final  -45.29 input  -60.11 | X-H torsion
[ 7974 7965 7964 7962 ] final -115.87 input  175.53 | X-H torsion
[ 8008 7997 7996 7995 ] final  -27.06 input   59.86 | X-H torsion
[ 10167 10162 10161 10158 ] final    0.77 input  -65.29 | X-H torsion
[ 10718 10713 10712 10709 ] final  -42.94 input   66.30 | X-H torsion
[ 10763 10752 10751 10750 ] final  157.72 input  -60.55 | X-H torsion
[ 11005 11000 10999 10996 ] final   89.78 input  -57.11 | X-H torsion

> <Gold.Protein.ActiveResidues>
 VAL166  LYS551  ARG553  GLY616  TRP617  ASP618  TYR619  PRO620  LYS621  CYS622 
 ASP623  PHE694  ASN695  SER759  ASP760  ASP761  ALA762  ILE779  LEU786  VAL792 
 PHE793  MET794  SER795  GLU796  ALA797  LYS798  CYS799  TRP800  GLU811  SER814 

> <Gold.Protein.RotatedAtoms>
  150.9236  134.8653  159.7504 H   0  0  0  0  0  0  0  0  0  0  0  0  # atno 6907 bound_to 6896
  152.5004  134.4182  159.9482 H   0  0  0  0  0  0  0  0  0  0  0  0  # atno 6908 bound_to 6896
  151.4215  133.3657  159.2792 H   0  0  0  0  0  0  0  0  0  0  0  0  # atno 6909 bound_to 6896
  145.1034  140.8566  143.3913 H   0  0  0  0  0  0  0  0  0  0  0  0  # atno 7974 bound_to 7965
  154.4395  140.1882  156.0872 H   0  0  0  0  0  0  0  0  0  0  0  0  # atno 8008 bound_to 7997
  156.0393  140.3321  155.7200 H   0  0  0  0  0  0  0  0  0  0  0  0  # atno 8009 bound_to 7997
  155.5723  140.0614  157.2794 H   0  0  0  0  0  0  0  0  0  0  0  0  # atno 8010 bound_to 7997
  140.6714  143.7039  150.7930 H   0  0  0  0  0  0  0  0  0  0  0  0  # atno 10167 bound_to 10162
  156.2543  130.4191  149.8614 H   0  0  0  0  0  0  0  0  0  0  0  0  # atno 10718 bound_to 10713
  154.2046  135.2789  155.2979 H   0  0  0  0  0  0  0  0  0  0  0  0  # atno 10763 bound_to 10752
  154.5827  135.5584  153.7204 H   0  0  0  0  0  0  0  0  0  0  0  0  # atno 10764 bound_to 10752
  153.0079  135.6348  154.2185 H   0  0  0  0  0  0  0  0  0  0  0  0  # atno 10765 bound_to 10752
  139.8868  134.8573  156.3191 H   0  0  0  0  0  0  0  0  0  0  0  0  # atno 11005 bound_to 11000
  145.0930  139.2877  143.5725 LP  0  0  0  0  0  0  0  0  0  0  0  0  # atno 17320 bound_to 7965
  146.3529  140.0473  142.8638 LP  0  0  0  0  0  0  0  0  0  0  0  0  # atno 17321 bound_to 7965
  140.0725  143.5047  152.2572 LP  0  0  0  0  0  0  0  0  0  0  0  0  # atno 17342 bound_to 10162
  139.5984  144.7574  151.3231 LP  0  0  0  0  0  0  0  0  0  0  0  0  # atno 17343 bound_to 10162
  156.6152  130.8603  151.3463 LP  0  0  0  0  0  0  0  0  0  0  0  0  # atno 17370 bound_to 10713
  157.7226  130.9579  150.1502 LP  0  0  0  0  0  0  0  0  0  0  0  0  # atno 17371 bound_to 10713
  140.9799  133.7274  156.0656 LP  0  0  0  0  0  0  0  0  0  0  0  0  # atno 17394 bound_to 11000
  140.7763  134.3776  157.5497 LP  0  0  0  0  0  0  0  0  0  0  0  0  # atno 17395 bound_to 11000

$$$$
