AV-unprocessed.smi:1682|AV-procd|sdf|6743|dock9
  -GOLD-   22720 7493D 1   1.00000     0.00000
 Structure written by MMmdl.
 38 39  0  0  0  0  0  0  0  0  1 V2000
  147.2371  137.4536  160.5227 O   0  0  0  0  0  0  0  0  0  0  0  0
  147.8789  136.4123  160.6676 C   0  0  0  0  0  0  0  0  0  0  0  0
  148.6694  135.8980  159.7132 N   0  0  0  0  0  0  0  0  0  0  0  0
  148.8562  136.4730  158.3861 C   0  0  0  0  0  0  0  0  0  0  0  0
  150.2988  136.9671  158.1849 C   0  0  0  0  0  0  0  0  0  0  0  0
  150.5112  137.5829  156.8153 C   0  0  0  0  0  0  0  0  0  0  0  0
  151.2210  138.7943  156.6741 C   0  0  0  0  0  0  0  0  0  0  0  0
  151.3937  139.3236  155.3807 C   0  0  0  0  0  0  0  0  0  0  0  0
  150.8541  138.6244  154.2841 C   0  0  0  0  0  0  0  0  0  0  0  0
  150.1635  137.4212  154.5309 C   0  0  0  0  0  0  0  0  0  0  0  0
  149.9925  136.9045  155.7671 N   0  0  0  0  0  0  0  0  0  0  0  0
  147.7932  135.6286  161.9868 C   0  0  2  0  0  0  0  0  0  0  0  0
  147.5723  134.1243  161.7311 C   0  0  0  0  0  0  0  0  0  0  0  0
  146.1451  133.8804  162.1932 C   0  0  0  0  0  0  0  0  0  0  0  0
  145.5716  132.8028  162.0439 O   0  0  0  0  0  0  0  0  0  0  0  0
  145.6293  134.9788  162.7547 N   0  0  0  0  0  0  0  0  0  0  0  0
  144.2806  135.1269  163.2970 C   0  0  0  0  0  0  0  0  0  0  0  0
  143.1942  134.8624  162.2390 C   0  0  0  0  0  0  0  0  0  0  0  0
  142.0068  135.1930  162.7444 F   0  0  0  0  0  0  0  0  0  0  0  0
  143.4150  135.6040  161.1535 F   0  0  0  0  0  0  0  0  0  0  0  0
  143.1627  133.5762  161.8916 F   0  0  0  0  0  0  0  0  0  0  0  0
  146.5914  136.0641  162.8520 C   0  0  0  0  0  0  0  0  0  0  0  0
  149.1648  135.0415  159.9143 H   0  0  0  0  0  0  0  0  0  0  0  0
  148.5929  135.7409  157.6207 H   0  0  0  0  0  0  0  0  0  0  0  0
  148.1581  137.3032  158.2747 H   0  0  0  0  0  0  0  0  0  0  0  0
  150.5510  137.7049  158.9480 H   0  0  0  0  0  0  0  0  0  0  0  0
  151.0015  136.1430  158.3136 H   0  0  0  0  0  0  0  0  0  0  0  0
  151.6247  139.3066  157.5351 H   0  0  0  0  0  0  0  0  0  0  0  0
  151.9305  140.2491  155.2325 H   0  0  0  0  0  0  0  0  0  0  0  0
  150.9666  139.0009  153.2784 H   0  0  0  0  0  0  0  0  0  0  0  0
  149.7375  136.8588  153.7133 H   0  0  0  0  0  0  0  0  0  0  0  0
  148.7176  135.7768  162.5479 H   0  0  0  0  0  0  0  0  0  0  0  0
  147.6914  133.8334  160.6858 H   0  0  0  0  0  0  0  0  0  0  0  0
  148.2549  133.5193  162.3285 H   0  0  0  0  0  0  0  0  0  0  0  0
  144.1498  134.4510  164.1437 H   0  0  0  0  0  0  0  0  0  0  0  0
  144.1675  136.1363  163.6949 H   0  0  0  0  0  0  0  0  0  0  0  0
  146.8908  136.1873  163.8936 H   0  0  0  0  0  0  0  0  0  0  0  0
  146.1470  137.0056  162.5248 H   0  0  0  0  0  0  0  0  0  0  0  0
  1  2  2  0  0  0  0
  2  3  1  0  0  0  0
  2 12  1  0  0  0  0
  3  4  1  0  0  0  0
  3 23  1  0  0  0  0
  4  5  1  0  0  0  0
  4 24  1  0  0  0  0
  4 25  1  0  0  0  0
  5  6  1  0  0  0  0
  5 26  1  0  0  0  0
  5 27  1  0  0  0  0
  6 11  1  0  0  0  0
  6  7  2  0  0  0  0
  7  8  1  0  0  0  0
  7 28  1  0  0  0  0
  8  9  2  0  0  0  0
  8 29  1  0  0  0  0
  9 10  1  0  0  0  0
  9 30  1  0  0  0  0
 10 11  2  0  0  0  0
 10 31  1  0  0  0  0
 12 22  1  0  0  0  0
 12 13  1  0  0  0  0
 12 32  1  0  0  0  0
 13 14  1  0  0  0  0
 13 33  1  0  0  0  0
 13 34  1  0  0  0  0
 14 15  2  0  0  0  0
 14 16  1  0  0  0  0
 16 17  1  0  0  0  0
 16 22  1  0  0  0  0
 17 18  1  0  0  0  0
 17 35  1  0  0  0  0
 17 36  1  0  0  0  0
 18 19  1  0  0  0  0
 18 20  1  0  0  0  0
 18 21  1  0  0  0  0
 22 37  1  0  0  0  0
 22 38  1  0  0  0  0
M  END
> <s_m_source_file>
AV-unprocessed.smi

> <i_m_source_file_index>
1682

> <i_lp_mmshare_version>
43012

> <i_f3d_flags>
0

> <s_epik_input>
RkMoRikoRilbQ0gyXU4oW0NIMl0xKUMoPU8pW0NIMl1bQ0BIXTFDKD1PKVtOSF1bQ0gyXVtDSDJdYzJbY0hdW2NIXVtjSF1bY0hdbjI=

> <s_epik_cmdline>
J2VwaWtfcHl0aG9uJywgJy1waCcsICc3LjAnLCAnLXRuJywgJzgnLCAnLW1hJywgJzIwMCcsICctbWV0YWxfYmluZGluZycsICctaW1hZScsICc8aW5maWxlLm1hZT4nLCAnLW9tYWUnLCAnPG91dGZpbGUubWFlPic=

> <r_epik_Ionization_Penalty>
0.0252359

> <r_epik_Ionization_Penalty_Charging>
0

> <r_epik_Ionization_Penalty_Neutral>
0.0252359

> <r_epik_State_Penalty>
0.020532

> <r_epik_Charging_Adjusted_Penalty>
0.020532

> <i_epik_Tot_Q>
0

> <i_epik_Tot_abs_Q>
0

> <r_epik_Metal_State_Penalty>
0.0196899

> <b_epik_Metal_Only>
0

> <s_lp_Force_Field>
OPLS_2005

> <r_lp_Energy>
9.5977

> <b_lp_Chiralities_Consistent>
1

> <s_lp_Variant>
AV-unprocessed.smi:1682-1

> <Gold.Version>
5.8.1

> <Gold.Id.Protein>
6NUR|6NUR_protein|mol2

> <Gold.PLP.Fitness>
42.0643

> <Gold.PLP.PLP>
-36.9395

> <Gold.PLP.part.hbond>
-1.6294

> <Gold.PLP.part.metal>
0.0000

> <Gold.PLP.part.buried>
-5.6825

> <Gold.PLP.part.nonpolar>
-30.6494

> <Gold.PLP.part.repulsive>
0.2817

> <Gold.PLP.ligand.clash>
0.0000

> <Gold.PLP.ligand.torsion>
0.6189

> <Gold.PLP.Chemscore.Hbond>
1.0000

> <Gold.PLP.Chemscore.CHOScore>
1.0865

> <Gold.PLP.Chemscore.Metal>
0.0000

> <Gold.Chemscore.Hbonds>
donor molecule, donor type, donor heavy atom, donor atom, acceptor molecule, acceptor atom, score
      P1  H  6934  6947       L1     1  1.00
      L1  C    10    31       P1  7948  1.00

> <Gold.PLP.Chemscore.Internal.Correction>
0.1031

> <Gold.Rescore>
     Score         DG    S(hbond)    S(metal)    S(lipo)     H(rot)  DE(clash)    DE(int)     intcor
      9.77     -12.08       1.00        0.00      73.58       2.09       0.03       2.27       ----

> <Gold.Chemscore.Fitness>
9.7698

> <Gold.Chemscore.DG>
-12.0753

> <Gold.Chemscore.ZeroCoef>
-5.4800

> <Gold.Chemscore.Hbond>
0.9977

> <Gold.Chemscore.Metal>
0.0000

> <Gold.Chemscore.Lipo>
73.5834

> <Gold.Chemscore.Internal_Hbond>
0.0000

> <Gold.Chemscore.DEClash>
0.0324

> <Gold.Chemscore.DEInternal>
2.2731

> <Gold.Chemscore.Rot>
2.0884

> <Gold.Chemscore.Internal.Correction>
   9.000000E+99

> <Gold.Chemscore.Hbonds>
donor molecule, donor type, donor heavy atom, donor atom, acceptor molecule, acceptor atom, score
      P1  H  6934  6947       L1     1  0.98

> <Gold.Chemscore.Hbond.Weighted>
-3.3324

> <Gold.Chemscore.Metal.Weighted>
-0.0000

> <Gold.Chemscore.Lipo.Weighted>
-8.6093

> <Gold.Chemscore.Internal_Hbond.Weighted>
0.0000

> <Gold.Chemscore.DEClash.Weighted>
0.0324

> <Gold.Chemscore.DEInternal.Weighted>
2.2731

> <Gold.Chemscore.Rot.Weighted>
5.3464

> <Gold.Chemscore.Internal.Correction.Weighted>
   9.000000E+99

> <Gold.Protein.RotatedTorsions>
[ 6907 6896 6895 6894 ] final   97.90 input  -60.11 | X-H torsion
[ 7974 7965 7964 7962 ] final   19.79 input  175.53 | X-H torsion
[ 8008 7997 7996 7995 ] final  -90.33 input   59.86 | X-H torsion
[ 10167 10162 10161 10158 ] final  125.35 input  -65.29 | X-H torsion
[ 10718 10713 10712 10709 ] final  165.94 input   66.30 | X-H torsion
[ 10763 10752 10751 10750 ] final   23.57 input  -60.55 | X-H torsion
[ 11005 11000 10999 10996 ] final  170.48 input  -57.11 | X-H torsion

> <Gold.Protein.ActiveResidues>
 VAL166  LYS551  ARG553  GLY616  TRP617  ASP618  TYR619  PRO620  LYS621  CYS622 
 ASP623  PHE694  ASN695  SER759  ASP760  ASP761  ALA762  ILE779  LEU786  VAL792 
 PHE793  MET794  SER795  GLU796  ALA797  LYS798  CYS799  TRP800  GLU811  SER814 

> <Gold.Protein.RotatedAtoms>
  152.5417  134.0663  159.8174 H   0  0  0  0  0  0  0  0  0  0  0  0  # atno 6907 bound_to 6896
  151.0784  133.5402  159.2629 H   0  0  0  0  0  0  0  0  0  0  0  0  # atno 6908 bound_to 6896
  151.2239  135.0537  159.9015 H   0  0  0  0  0  0  0  0  0  0  0  0  # atno 6909 bound_to 6896
  146.2136  139.8262  142.8669 H   0  0  0  0  0  0  0  0  0  0  0  0  # atno 7974 bound_to 7965
  154.6973  140.0531  157.0423 H   0  0  0  0  0  0  0  0  0  0  0  0  # atno 8008 bound_to 7997
  155.0734  140.3202  155.4605 H   0  0  0  0  0  0  0  0  0  0  0  0  # atno 8009 bound_to 7997
  156.2748  140.2078  156.5861 H   0  0  0  0  0  0  0  0  0  0  0  0  # atno 8010 bound_to 7997
  139.5690  144.6928  151.3830 H   0  0  0  0  0  0  0  0  0  0  0  0  # atno 10167 bound_to 10162
  157.0730  131.0371  151.2604 H   0  0  0  0  0  0  0  0  0  0  0  0  # atno 10718 bound_to 10713
  153.0829  135.6624  154.0009 H   0  0  0  0  0  0  0  0  0  0  0  0  # atno 10763 bound_to 10752
  153.9626  135.2972  155.3434 H   0  0  0  0  0  0  0  0  0  0  0  0  # atno 10764 bound_to 10752
  154.7231  135.5156  153.8916 H   0  0  0  0  0  0  0  0  0  0  0  0  # atno 10765 bound_to 10752
  140.3088  134.7534  157.3975 H   0  0  0  0  0  0  0  0  0  0  0  0  # atno 11005 bound_to 11000
  145.3045  141.0203  143.3590 LP  0  0  0  0  0  0  0  0  0  0  0  0  # atno 17320 bound_to 7965
  144.8981  139.4685  143.6645 LP  0  0  0  0  0  0  0  0  0  0  0  0  # atno 17321 bound_to 7965
  140.6974  143.7715  150.7349 LP  0  0  0  0  0  0  0  0  0  0  0  0  # atno 17342 bound_to 10162
  140.1215  143.4607  152.2310 LP  0  0  0  0  0  0  0  0  0  0  0  0  # atno 17343 bound_to 10162
  157.4862  130.7795  149.7463 LP  0  0  0  0  0  0  0  0  0  0  0  0  # atno 17370 bound_to 10713
  155.9945  130.3917  150.2857 LP  0  0  0  0  0  0  0  0  0  0  0  0  # atno 17371 bound_to 10713
  140.1043  134.5431  155.8324 LP  0  0  0  0  0  0  0  0  0  0  0  0  # atno 17394 bound_to 11000
  141.2112  133.6704  156.6569 LP  0  0  0  0  0  0  0  0  0  0  0  0  # atno 17395 bound_to 11000

$$$$
