AV-unprocessed.smi:2226|AV-procd|sdf|9005|dock6
  -GOLD-   2272012213D 1   1.00000     0.00000
 Structure written by MMmdl.
 41 43  0  0  0  0  0  0  0  0  3 V2000
  143.1715  132.3165  151.4964 C   0  0  0  0  0  0  0  0  0  0  0  0
  144.0364  133.0532  152.4489 N   0  3  2  0  0  0  0  0  0  0  0  0
  143.6967  134.4864  152.6174 C   0  0  2  0  0  0  0  0  0  0  0  0
  144.0503  135.3054  151.3505 C   0  0  0  0  0  0  0  0  0  0  0  0
  145.4908  135.0991  150.8480 C   0  0  0  0  0  0  0  0  0  0  0  0
  145.9388  133.6290  150.9236 C   0  0  0  0  0  0  0  0  0  0  0  0
  145.4923  132.8996  152.2149 C   0  0  1  0  0  0  0  0  0  0  0  0
  146.2577  133.3077  153.4955 C   0  0  0  0  0  0  0  0  0  0  0  0
  145.8198  134.6485  154.1498 C   0  0  1  0  0  0  0  0  0  0  0  0
  146.6936  135.7714  153.8127 N   0  0  0  0  0  0  0  0  0  0  0  0
  146.6155  137.0072  154.3310 C   0  0  0  0  0  0  0  0  0  0  0  0
  145.7904  137.3384  155.1826 O   0  0  0  0  0  0  0  0  0  0  0  0
  147.5417  137.8244  153.8067 N   0  0  0  0  0  0  0  0  0  0  0  0
  147.7397  139.1791  154.1596 C   0  0  0  0  0  0  0  0  0  0  0  0
  148.1805  140.1118  153.3171 N   0  3  0  0  0  0  0  0  0  0  0  0
  148.2599  141.3077  153.9866 C   0  0  0  0  0  0  0  0  0  0  0  0
  147.8464  141.0453  155.2707 C   0  0  0  0  0  0  0  0  0  0  0  0
  147.5156  139.7108  155.3950 O   0  0  0  0  0  0  0  0  0  0  0  0
  144.3263  135.0034  153.9322 C   0  0  0  0  0  0  0  0  0  0  0  0
  143.2661  132.6884  150.4765 H   0  0  0  0  0  0  0  0  0  0  0  0
  142.1251  132.4017  151.7904 H   0  0  0  0  0  0  0  0  0  0  0  0
  143.4266  131.2564  151.4935 H   0  0  0  0  0  0  0  0  0  0  0  0
  142.6160  134.5575  152.7496 H   0  0  0  0  0  0  0  0  0  0  0  0
  143.3655  135.0233  150.5502 H   0  0  0  0  0  0  0  0  0  0  0  0
  143.8672  136.3662  151.5249 H   0  0  0  0  0  0  0  0  0  0  0  0
  145.5697  135.4498  149.8186 H   0  0  0  0  0  0  0  0  0  0  0  0
  146.1786  135.7296  151.4007 H   0  0  0  0  0  0  0  0  0  0  0  0
  145.5287  133.1006  150.0626 H   0  0  0  0  0  0  0  0  0  0  0  0
  147.0216  133.5657  150.8116 H   0  0  0  0  0  0  0  0  0  0  0  0
  145.6931  131.8376  152.0651 H   0  0  0  0  0  0  0  0  0  0  0  0
  146.0787  132.5229  154.2322 H   0  0  0  0  0  0  0  0  0  0  0  0
  147.3332  133.2817  153.3175 H   0  0  0  0  0  0  0  0  0  0  0  0
  145.9399  134.5239  155.2282 H   0  0  0  0  0  0  0  0  0  0  0  0
  147.4044  135.5942  153.1177 H   0  0  0  0  0  0  0  0  0  0  0  0
  148.4259  140.0010  152.3411 H   0  0  0  0  0  0  0  0  0  0  0  0
  148.5963  142.2085  153.4932 H   0  0  0  0  0  0  0  0  0  0  0  0
  147.7358  141.6518  156.1579 H   0  0  0  0  0  0  0  0  0  0  0  0
  144.1591  136.0761  154.0410 H   0  0  0  0  0  0  0  0  0  0  0  0
  143.7665  134.5480  154.7506 H   0  0  0  0  0  0  0  0  0  0  0  0
  143.8554  132.6207  153.3436 H   0  0  0  0  0  0  0  0  0  0  0  0
  148.1589  137.4469  153.1032 H   0  0  0  0  0  0  0  0  0  0  0  0
  1  2  1  0  0  0  0
  1 20  1  0  0  0  0
  1 21  1  0  0  0  0
  1 22  1  0  0  0  0
  2  7  1  0  0  0  0
  2  3  1  0  0  0  0
  2 40  1  0  0  0  0
  3 19  1  0  0  0  0
  3  4  1  0  0  0  0
  3 23  1  0  0  0  0
  4  5  1  0  0  0  0
  4 24  1  0  0  0  0
  4 25  1  0  0  0  0
  5  6  1  0  0  0  0
  5 26  1  0  0  0  0
  5 27  1  0  0  0  0
  6  7  1  0  0  0  0
  6 28  1  0  0  0  0
  6 29  1  0  0  0  0
  7  8  1  0  0  0  0
  7 30  1  0  0  0  0
  8  9  1  0  0  0  0
  8 31  1  0  0  0  0
  8 32  1  0  0  0  0
  9 10  1  0  0  0  0
  9 19  1  0  0  0  0
  9 33  1  0  0  0  0
 10 34  1  0  0  0  0
 10 11  1  0  0  0  0
 11 13  1  0  0  0  0
 11 12  2  0  0  0  0
 13 14  1  0  0  0  0
 13 41  1  0  0  0  0
 14 18  1  0  0  0  0
 14 15  2  0  0  0  0
 15 35  1  0  0  0  0
 15 16  1  0  0  0  0
 16 36  1  0  0  0  0
 16 17  2  0  0  0  0
 17 37  1  0  0  0  0
 17 18  1  0  0  0  0
 19 38  1  0  0  0  0
 19 39  1  0  0  0  0
M  CHG  1   2   1
M  CHG  1  15   1
M  END
> <s_m_source_file>
AV-unprocessed.smi

> <i_m_source_file_index>
2226

> <i_lp_mmshare_version>
43012

> <i_f3d_flags>
0

> <s_epik_input>
W0NIMl0xW0NIMl1bQ0gyXVtDQEhdKE4oW0NIM10pW0NIXTEyKVtDSDJdW0NASF0oW0NIMl0yKVtOSF1DKD1PKVtOSF1jM25bY0hdW2NIXW8z

> <s_epik_cmdline>
J2VwaWtfcHl0aG9uJywgJy1waCcsICc3LjAnLCAnLXRuJywgJzgnLCAnLW1hJywgJzIwMCcsICctbWV0YWxfYmluZGluZycsICctaW1hZScsICc8aW5maWxlLm1hZT4nLCAnLW9tYWUnLCAnPG91dGZpbGUubWFlPic=

> <r_epik_Ionization_Penalty>
6.92532

> <r_epik_Ionization_Penalty_Charging>
6.82059

> <r_epik_Ionization_Penalty_Neutral>
0.104727

> <r_epik_State_Penalty>
2.17671

> <r_epik_Charging_Adjusted_Penalty>
8.99731

> <i_epik_Tot_Q>
2

> <i_epik_Tot_abs_Q>
2

> <r_epik_Metal_State_Penalty>
2.20618

> <b_epik_Metal_Only>
0

> <s_lp_Force_Field>
OPLS_2005

> <r_lp_Energy>
47.9723

> <b_lp_Chiralities_Consistent>
1

> <s_lp_Variant>
AV-unprocessed.smi:2226-5

> <Gold.Version>
5.8.1

> <Gold.Id.Protein>
6NUR|6NUR_protein|mol2

> <Gold.PLP.Fitness>
37.3465

> <Gold.PLP.PLP>
-24.4875

> <Gold.PLP.part.hbond>
-3.6379

> <Gold.PLP.part.metal>
0.0000

> <Gold.PLP.part.buried>
-4.8914

> <Gold.PLP.part.nonpolar>
-17.8359

> <Gold.PLP.part.repulsive>
0.1679

> <Gold.PLP.ligand.clash>
0.0000

> <Gold.PLP.ligand.torsion>
0.2318

> <Gold.PLP.Chemscore.Hbond>
4.4220

> <Gold.PLP.Chemscore.CHOScore>
0.0000

> <Gold.PLP.Chemscore.Metal>
0.0000

> <Gold.Chemscore.Hbonds>
donor molecule, donor type, donor heavy atom, donor atom, acceptor molecule, acceptor atom, score
      L1  H     2    40       P1 10957  1.95
      L1  H    10    34       P1  7948  0.86
      L1  H    13    41       P1  7948  1.00
      L1  H    15    35       P1  7957  0.99

> <Gold.PLP.Chemscore.Internal.Correction>
0.0566

> <Gold.Rescore>
     Score         DG    S(hbond)    S(metal)    S(lipo)     H(rot)  DE(clash)    DE(int)     intcor
     19.07     -19.55       3.16        0.00      51.92       1.00       0.00       0.48       ----

> <Gold.Chemscore.Fitness>
19.0746

> <Gold.Chemscore.DG>
-19.5550

> <Gold.Chemscore.ZeroCoef>
-5.4800

> <Gold.Chemscore.Hbond>
3.1618

> <Gold.Chemscore.Metal>
0.0000

> <Gold.Chemscore.Lipo>
51.9181

> <Gold.Chemscore.Internal_Hbond>
0.0000

> <Gold.Chemscore.DEClash>
0.0000

> <Gold.Chemscore.DEInternal>
0.4804

> <Gold.Chemscore.Rot>
1.0000

> <Gold.Chemscore.Internal.Correction>
   9.000000E+99

> <Gold.Chemscore.Hbonds>
donor molecule, donor type, donor heavy atom, donor atom, acceptor molecule, acceptor atom, score
      L1  H     2    40       P1 10957  0.31
      L1  H    10    34       P1  7948  0.81
      L1  H    13    41       P1  7948  1.00
      L1  H    15    35       P1  7957  0.93

> <Gold.Chemscore.Hbond.Weighted>
-10.5606

> <Gold.Chemscore.Metal.Weighted>
-0.0000

> <Gold.Chemscore.Lipo.Weighted>
-6.0744

> <Gold.Chemscore.Internal_Hbond.Weighted>
0.0000

> <Gold.Chemscore.DEClash.Weighted>
0.0000

> <Gold.Chemscore.DEInternal.Weighted>
0.4804

> <Gold.Chemscore.Rot.Weighted>
2.5600

> <Gold.Chemscore.Internal.Correction.Weighted>
   9.000000E+99

> <Gold.Protein.RotatedTorsions>
[ 6907 6896 6895 6894 ] final  135.86 input  -60.11 | X-H torsion
[ 7974 7965 7964 7962 ] final   26.11 input  175.53 | X-H torsion
[ 8008 7997 7996 7995 ] final    8.12 input   59.86 | X-H torsion
[ 10167 10162 10161 10158 ] final  -47.63 input  -65.29 | X-H torsion
[ 10718 10713 10712 10709 ] final   41.08 input   66.30 | X-H torsion
[ 10763 10752 10751 10750 ] final  144.04 input  -60.55 | X-H torsion
[ 11005 11000 10999 10996 ] final -162.93 input  -57.11 | X-H torsion

> <Gold.Protein.ActiveResidues>
 VAL166  LYS551  ARG553  GLY616  TRP617  ASP618  TYR619  PRO620  LYS621  CYS622 
 ASP623  PHE694  ASN695  SER759  ASP760  ASP761  ALA762  ILE779  LEU786  VAL792 
 PHE793  MET794  SER795  GLU796  ALA797  LYS798  CYS799  TRP800  GLU811  SER814 

> <Gold.Protein.RotatedAtoms>
  152.2958  133.5606  159.5586 H   0  0  0  0  0  0  0  0  0  0  0  0  # atno 6907 bound_to 6896
  150.7255  134.0363  159.3759 H   0  0  0  0  0  0  0  0  0  0  0  0  # atno 6908 bound_to 6896
  151.8266  135.0635  160.0482 H   0  0  0  0  0  0  0  0  0  0  0  0  # atno 6909 bound_to 6896
  146.1854  139.7373  142.8870 H   0  0  0  0  0  0  0  0  0  0  0  0  # atno 7974 bound_to 7965
  154.7627  140.2787  155.6201 H   0  0  0  0  0  0  0  0  0  0  0  0  # atno 8008 bound_to 7997
  156.2919  140.2656  156.2337 H   0  0  0  0  0  0  0  0  0  0  0  0  # atno 8009 bound_to 7997
  154.9997  140.0373  157.2344 H   0  0  0  0  0  0  0  0  0  0  0  0  # atno 8010 bound_to 7997
  140.6766  143.2775  151.3955 H   0  0  0  0  0  0  0  0  0  0  0  0  # atno 10167 bound_to 10162
  157.3895  130.7798  149.7258 H   0  0  0  0  0  0  0  0  0  0  0  0  # atno 10718 bound_to 10713
  153.9824  135.2940  155.3419 H   0  0  0  0  0  0  0  0  0  0  0  0  # atno 10763 bound_to 10752
  154.7261  135.5088  153.8892 H   0  0  0  0  0  0  0  0  0  0  0  0  # atno 10764 bound_to 10752
  153.0848  135.6690  154.0085 H   0  0  0  0  0  0  0  0  0  0  0  0  # atno 10765 bound_to 10752
  140.6038  134.4920  157.5208 H   0  0  0  0  0  0  0  0  0  0  0  0  # atno 11005 bound_to 11000
  145.3953  141.0378  143.3101 LP  0  0  0  0  0  0  0  0  0  0  0  0  # atno 17320 bound_to 7965
  144.8388  139.5506  143.6910 LP  0  0  0  0  0  0  0  0  0  0  0  0  # atno 17321 bound_to 7965
  139.6063  144.1191  152.2252 LP  0  0  0  0  0  0  0  0  0  0  0  0  # atno 17342 bound_to 10162
  140.0591  144.5871  150.7277 LP  0  0  0  0  0  0  0  0  0  0  0  0  # atno 17343 bound_to 10162
  155.9795  130.4040  150.3585 LP  0  0  0  0  0  0  0  0  0  0  0  0  # atno 17370 bound_to 10713
  157.1699  131.0366  151.2800 LP  0  0  0  0  0  0  0  0  0  0  0  0  # atno 17371 bound_to 10713
  139.9221  134.8128  156.1179 LP  0  0  0  0  0  0  0  0  0  0  0  0  # atno 17394 bound_to 11000
  141.0854  133.6736  156.2426 LP  0  0  0  0  0  0  0  0  0  0  0  0  # atno 17395 bound_to 11000

$$$$
