AV-unprocessed.smi:652|AV-procd|sdf|3196|dock1
  -GOLD-   22720 0123D 1   1.00000     0.00000
 Structure written by MMmdl.
 47 48  0  0  0  0  0  0  0  0  1 V2000
  146.1775  146.4476  160.0695 C   0  0  0  0  0  0  0  0  0  0  0  0
  146.8381  145.1029  160.4124 C   0  0  0  0  0  0  0  0  0  0  0  0
  148.0896  145.2901  161.2802 C   0  0  0  0  0  0  0  0  0  0  0  0
  147.1965  144.3873  159.1918 N   0  0  0  0  0  0  0  0  0  0  0  0
  146.8413  143.1273  158.8958 C   0  0  0  0  0  0  0  0  0  0  0  0
  146.1755  142.4151  159.6476 O   0  0  0  0  0  0  0  0  0  0  0  0
  147.3070  142.5888  157.5393 C   0  0  0  0  0  0  0  0  0  0  0  0
  147.1156  141.0644  157.3920 C   0  0  0  0  0  0  0  0  0  0  0  0
  148.0636  140.3843  156.5064 N   0  0  0  0  0  0  0  0  0  0  0  0
  147.8342  140.6904  155.0972 C   0  0  0  0  0  0  0  0  0  0  0  0
  148.8541  139.9857  154.1884 C   0  0  0  0  0  0  0  0  0  0  0  0
  150.1711  140.3460  154.5888 O   0  0  0  0  0  0  0  0  0  0  0  0
  150.4590  140.0041  155.9427 C   0  0  1  0  0  0  0  0  0  0  0  0
  151.9018  140.4232  156.2725 C   0  0  0  0  0  0  0  0  0  0  0  0
  152.2332  140.2159  157.6778 N   0  0  0  0  0  0  0  0  0  0  0  0
  152.3968  141.3004  158.5520 C   0  0  0  0  0  0  0  0  0  0  0  0
  153.1133  141.1041  159.7495 C   0  0  0  0  0  0  0  0  0  0  0  0
  153.2605  142.2051  160.6110 C   0  0  0  0  0  0  0  0  0  0  0  0
  152.6770  143.4205  160.2099 C   0  0  0  0  0  0  0  0  0  0  0  0
  151.9948  143.5528  159.0503 N   0  0  0  0  0  0  0  0  0  0  0  0
  151.8553  142.5031  158.2326 N   0  0  0  0  0  0  0  0  0  0  0  0
  149.4402  140.7232  156.8490 C   0  0  0  0  0  0  0  0  0  0  0  0
  145.9081  146.9929  160.9744 H   0  0  0  0  0  0  0  0  0  0  0  0
  145.2648  146.3041  159.4902 H   0  0  0  0  0  0  0  0  0  0  0  0
  146.8456  147.0812  159.4853 H   0  0  0  0  0  0  0  0  0  0  0  0
  146.1270  144.5016  160.9820 H   0  0  0  0  0  0  0  0  0  0  0  0
  147.8461  145.8000  162.2127 H   0  0  0  0  0  0  0  0  0  0  0  0
  148.8467  145.8824  160.7651 H   0  0  0  0  0  0  0  0  0  0  0  0
  148.5360  144.3291  161.5383 H   0  0  0  0  0  0  0  0  0  0  0  0
  147.7435  144.8951  158.5119 H   0  0  0  0  0  0  0  0  0  0  0  0
  146.7962  143.1150  156.7321 H   0  0  0  0  0  0  0  0  0  0  0  0
  148.3645  142.8297  157.4279 H   0  0  0  0  0  0  0  0  0  0  0  0
  147.1464  140.6053  158.3810 H   0  0  0  0  0  0  0  0  0  0  0  0
  146.1036  140.8925  157.0223 H   0  0  0  0  0  0  0  0  0  0  0  0
  146.8313  140.3835  154.8013 H   0  0  0  0  0  0  0  0  0  0  0  0
  147.8932  141.7682  154.9377 H   0  0  0  0  0  0  0  0  0  0  0  0
  148.7335  138.9024  154.2372 H   0  0  0  0  0  0  0  0  0  0  0  0
  148.7045  140.2791  153.1495 H   0  0  0  0  0  0  0  0  0  0  0  0
  150.3572  138.9250  156.0741 H   0  0  0  0  0  0  0  0  0  0  0  0
  152.6133  139.9224  155.6149 H   0  0  0  0  0  0  0  0  0  0  0  0
  152.0149  141.4899  156.0777 H   0  0  0  0  0  0  0  0  0  0  0  0
  152.6313  139.3258  157.9392 H   0  0  0  0  0  0  0  0  0  0  0  0
  153.5384  140.1434  160.0005 H   0  0  0  0  0  0  0  0  0  0  0  0
  153.7999  142.1220  161.5428 H   0  0  0  0  0  0  0  0  0  0  0  0
  152.7557  144.3015  160.8296 H   0  0  0  0  0  0  0  0  0  0  0  0
  149.5841  141.8024  156.7727 H   0  0  0  0  0  0  0  0  0  0  0  0
  149.6346  140.4565  157.8885 H   0  0  0  0  0  0  0  0  0  0  0  0
  1  2  1  0  0  0  0
  1 23  1  0  0  0  0
  1 24  1  0  0  0  0
  1 25  1  0  0  0  0
  2  3  1  0  0  0  0
  2  4  1  0  0  0  0
  2 26  1  0  0  0  0
  3 27  1  0  0  0  0
  3 28  1  0  0  0  0
  3 29  1  0  0  0  0
  4  5  1  0  0  0  0
  4 30  1  0  0  0  0
  5  6  2  0  0  0  0
  5  7  1  0  0  0  0
  7  8  1  0  0  0  0
  7 31  1  0  0  0  0
  7 32  1  0  0  0  0
  8  9  1  0  0  0  0
  8 33  1  0  0  0  0
  8 34  1  0  0  0  0
  9 22  1  0  0  0  0
  9 10  1  0  0  0  0
 10 11  1  0  0  0  0
 10 35  1  0  0  0  0
 10 36  1  0  0  0  0
 11 12  1  0  0  0  0
 11 37  1  0  0  0  0
 11 38  1  0  0  0  0
 12 13  1  0  0  0  0
 13 14  1  0  0  0  0
 13 22  1  0  0  0  0
 13 39  1  0  0  0  0
 14 15  1  0  0  0  0
 14 40  1  0  0  0  0
 14 41  1  0  0  0  0
 15 16  1  0  0  0  0
 15 42  1  0  0  0  0
 16 21  1  0  0  0  0
 16 17  2  0  0  0  0
 17 18  1  0  0  0  0
 17 43  1  0  0  0  0
 18 19  2  0  0  0  0
 18 44  1  0  0  0  0
 19 20  1  0  0  0  0
 19 45  1  0  0  0  0
 20 21  2  0  0  0  0
 22 46  1  0  0  0  0
 22 47  1  0  0  0  0
M  END
> <s_m_source_file>
AV-unprocessed.smi

> <i_m_source_file_index>
652

> <i_lp_mmshare_version>
43012

> <i_f3d_flags>
0

> <s_epik_input>
W0NIM11bQ0hdKFtDSDNdKVtOSF1DKD1PKVtDSDJdW0NIMl1OMVtDSDJdW0NIMl1PW0NASF0oW0NIMl0xKVtDSDJdW05IXWMyW2NIXVtjSF1bY0hdbm4y

> <s_epik_cmdline>
J2VwaWtfcHl0aG9uJywgJy1waCcsICc3LjAnLCAnLXRuJywgJzgnLCAnLW1hJywgJzIwMCcsICctbWV0YWxfYmluZGluZycsICctaW1hZScsICc8aW5maWxlLm1hZT4nLCAnLW9tYWUnLCAnPG91dGZpbGUubWFlPic=

> <r_lp_tautomer_probability>
0.999978

> <r_epik_Ionization_Penalty>
0.428793

> <r_epik_Ionization_Penalty_Charging>
0

> <r_epik_Ionization_Penalty_Neutral>
0.428793

> <r_epik_State_Penalty>
0.437051

> <r_epik_Charging_Adjusted_Penalty>
0.437051

> <i_epik_Tot_Q>
0

> <i_epik_Tot_abs_Q>
0

> <r_epik_Metal_State_Penalty>
0.432371

> <b_epik_Metal_Only>
0

> <s_lp_Force_Field>
OPLS_2005

> <r_lp_Energy>
21.7245

> <b_lp_Chiralities_Consistent>
1

> <s_lp_Variant>
AV-unprocessed.smi:652-5

> <Gold.Version>
5.8.1

> <Gold.Id.Protein>
6NUR|6NUR_protein|mol2

> <Gold.PLP.Fitness>
45.4235

> <Gold.PLP.PLP>
-37.4152

> <Gold.PLP.part.hbond>
-3.0000

> <Gold.PLP.part.metal>
0.0000

> <Gold.PLP.part.buried>
-6.6925

> <Gold.PLP.part.nonpolar>
-27.7978

> <Gold.PLP.part.repulsive>
0.3344

> <Gold.PLP.ligand.clash>
0.0000

> <Gold.PLP.ligand.torsion>
0.5828

> <Gold.PLP.Chemscore.Hbond>
3.0000

> <Gold.PLP.Chemscore.CHOScore>
0.0000

> <Gold.PLP.Chemscore.Metal>
0.0000

> <Gold.Chemscore.Hbonds>
donor molecule, donor type, donor heavy atom, donor atom, acceptor molecule, acceptor atom, score
      L1  H     4    30       P1  8029  1.00
      P1  H  6934  6946       L1     6  1.00
      P1  H  7989  7998       L1    12  1.00

> <Gold.PLP.Chemscore.Internal.Correction>
0.1740

> <Gold.Rescore>
     Score         DG    S(hbond)    S(metal)    S(lipo)     H(rot)  DE(clash)    DE(int)     intcor
     18.09     -18.73       2.92        0.00      78.04       2.20       0.11       0.53       ----

> <Gold.Chemscore.Fitness>
18.0875

> <Gold.Chemscore.DG>
-18.7287

> <Gold.Chemscore.ZeroCoef>
-5.4800

> <Gold.Chemscore.Hbond>
2.9201

> <Gold.Chemscore.Metal>
0.0000

> <Gold.Chemscore.Lipo>
78.0423

> <Gold.Chemscore.Internal_Hbond>
0.0000

> <Gold.Chemscore.DEClash>
0.1144

> <Gold.Chemscore.DEInternal>
0.5268

> <Gold.Chemscore.Rot>
2.2013

> <Gold.Chemscore.Internal.Correction>
   9.000000E+99

> <Gold.Chemscore.Hbonds>
donor molecule, donor type, donor heavy atom, donor atom, acceptor molecule, acceptor atom, score
      L1  H     4    30       P1  8029  0.95
      P1  H  6934  6946       L1     6  0.94
      P1  H  7989  7998       L1    12  0.90

> <Gold.Chemscore.Hbond.Weighted>
-9.7531

> <Gold.Chemscore.Metal.Weighted>
-0.0000

> <Gold.Chemscore.Lipo.Weighted>
-9.1309

> <Gold.Chemscore.Internal_Hbond.Weighted>
0.0000

> <Gold.Chemscore.DEClash.Weighted>
0.1144

> <Gold.Chemscore.DEInternal.Weighted>
0.5268

> <Gold.Chemscore.Rot.Weighted>
5.6354

> <Gold.Chemscore.Internal.Correction.Weighted>
   9.000000E+99

> <Gold.Protein.RotatedTorsions>
[ 6907 6896 6895 6894 ] final  -76.66 input  -60.11 | X-H torsion
[ 7974 7965 7964 7962 ] final -141.98 input  175.53 | X-H torsion
[ 8008 7997 7996 7995 ] final  -49.98 input   59.86 | X-H torsion
[ 10167 10162 10161 10158 ] final  169.77 input  -65.29 | X-H torsion
[ 10718 10713 10712 10709 ] final  -43.72 input   66.30 | X-H torsion
[ 10763 10752 10751 10750 ] final   98.73 input  -60.55 | X-H torsion
[ 11005 11000 10999 10996 ] final  -44.10 input  -57.11 | X-H torsion

> <Gold.Protein.ActiveResidues>
 VAL166  LYS551  ARG553  GLY616  TRP617  ASP618  TYR619  PRO620  LYS621  CYS622 
 ASP623  PHE694  ASN695  SER759  ASP760  ASP761  ALA762  ILE779  LEU786  VAL792 
 PHE793  MET794  SER795  GLU796  ALA797  LYS798  CYS799  TRP800  GLU811  SER814 

> <Gold.Protein.RotatedAtoms>
  150.7021  134.4539  159.5348 H   0  0  0  0  0  0  0  0  0  0  0  0  # atno 6907 bound_to 6896
  152.2226  134.8395  160.0493 H   0  0  0  0  0  0  0  0  0  0  0  0  # atno 6908 bound_to 6896
  151.9240  133.3558  159.3944 H   0  0  0  0  0  0  0  0  0  0  0  0  # atno 6909 bound_to 6896
  144.8478  140.6014  143.5410 H   0  0  0  0  0  0  0  0  0  0  0  0  # atno 7974 bound_to 7965
  154.4053  140.1283  156.4591 H   0  0  0  0  0  0  0  0  0  0  0  0  # atno 8008 bound_to 7997
  155.7290  140.3491  155.5031 H   0  0  0  0  0  0  0  0  0  0  0  0  # atno 8009 bound_to 7997
  155.9144  140.1041  157.1245 H   0  0  0  0  0  0  0  0  0  0  0  0  # atno 8010 bound_to 7997
  139.5001  144.3670  151.9765 H   0  0  0  0  0  0  0  0  0  0  0  0  # atno 10167 bound_to 10162
  156.2460  130.4184  149.8704 H   0  0  0  0  0  0  0  0  0  0  0  0  # atno 10718 bound_to 10713
  153.2927  135.4138  155.1181 H   0  0  0  0  0  0  0  0  0  0  0  0  # atno 10763 bound_to 10752
  154.8525  135.3522  154.5960 H   0  0  0  0  0  0  0  0  0  0  0  0  # atno 10764 bound_to 10752
  153.6382  135.7058  153.5309 H   0  0  0  0  0  0  0  0  0  0  0  0  # atno 10765 bound_to 10752
  141.0428  133.6773  156.2826 H   0  0  0  0  0  0  0  0  0  0  0  0  # atno 11005 bound_to 11000
  145.4561  139.1518  143.3892 LP  0  0  0  0  0  0  0  0  0  0  0  0  # atno 17320 bound_to 7965
  146.2759  140.4689  142.8795 LP  0  0  0  0  0  0  0  0  0  0  0  0  # atno 17321 bound_to 7965
  140.3106  144.3542  150.6035 LP  0  0  0  0  0  0  0  0  0  0  0  0  # atno 17342 bound_to 10162
  140.5802  143.2173  151.7443 LP  0  0  0  0  0  0  0  0  0  0  0  0  # atno 17343 bound_to 10162
  156.6269  130.8650  151.3487 LP  0  0  0  0  0  0  0  0  0  0  0  0  # atno 17370 bound_to 10713
  157.7195  130.9540  150.1384 LP  0  0  0  0  0  0  0  0  0  0  0  0  # atno 17371 bound_to 10713
  140.6202  134.5369  157.5546 LP  0  0  0  0  0  0  0  0  0  0  0  0  # atno 17394 bound_to 11000
  139.9289  134.8002  156.0988 LP  0  0  0  0  0  0  0  0  0  0  0  0  # atno 17395 bound_to 11000

$$$$
