AV-unprocessed.smi:3331|AV-procd|sdf|12825|dock2
  -GOLD-   2272019203D 1   1.00000     0.00000
 Structure written by MMmdl.
 46 47  0  0  0  0  0  0  0  0  1 V2000
  152.2860  137.1271  156.3932 C   0  0  0  0  0  0  0  0  0  0  0  0
  151.7153  136.6794  155.0360 C   0  0  1  0  0  0  0  0  0  0  0  0
  150.4755  135.7711  155.1943 C   0  0  0  0  0  0  0  0  0  0  0  0
  149.1957  136.5586  155.5545 C   0  0  2  0  0  0  0  0  0  0  0  0
  147.9621  135.6453  155.5715 C   0  0  0  0  0  0  0  0  0  0  0  0
  149.0097  137.7461  154.5871 C   0  0  0  0  0  0  0  0  0  0  0  0
  150.2108  138.5924  154.6210 N   0  0  0  0  0  0  0  0  0  0  0  0
  150.2033  139.8496  155.1356 C   0  0  0  0  0  0  0  0  0  0  0  0
  151.2290  140.5302  155.1983 O   0  0  0  0  0  0  0  0  0  0  0  0
  148.8869  140.4528  155.6711 C   0  0  2  0  0  0  0  0  0  0  0  0
  147.8611  140.6880  154.5407 C   0  0  0  0  0  0  0  0  0  0  0  0
  149.1690  141.7015  156.3980 N   0  0  0  0  0  0  0  0  0  0  0  0
  150.0285  141.5036  157.5566 C   0  0  0  0  0  0  0  0  0  0  0  0
  151.1696  142.5303  157.5224 C   0  0  0  0  0  0  0  0  0  0  0  0
  151.1205  143.4211  158.6656 N   0  0  0  0  0  0  0  0  0  0  0  0
  151.9026  144.5269  158.9248 C   0  0  0  0  0  0  0  0  0  0  0  0
  151.4858  145.0487  160.1160 C   0  0  0  0  0  0  0  0  0  0  0  0
  150.4304  144.1810  160.5145 C   0  0  0  0  0  0  0  0  0  0  0  0
  150.2150  143.2069  159.6449 N   0  0  0  0  0  0  0  0  0  0  0  0
  151.3844  137.8685  154.1080 C   0  0  0  0  0  0  0  0  0  0  0  0
  151.5701  137.7202  156.9624 H   0  0  0  0  0  0  0  0  0  0  0  0
  153.1831  137.7317  156.2582 H   0  0  0  0  0  0  0  0  0  0  0  0
  152.5613  136.2672  157.0042 H   0  0  0  0  0  0  0  0  0  0  0  0
  152.4940  136.0897  154.5511 H   0  0  0  0  0  0  0  0  0  0  0  0
  150.3095  135.2480  154.2515 H   0  0  0  0  0  0  0  0  0  0  0  0
  150.6664  134.9958  155.9373 H   0  0  0  0  0  0  0  0  0  0  0  0
  149.3145  136.9616  156.5612 H   0  0  0  0  0  0  0  0  0  0  0  0
  147.7770  135.2099  154.5889 H   0  0  0  0  0  0  0  0  0  0  0  0
  147.0688  136.1975  155.8647 H   0  0  0  0  0  0  0  0  0  0  0  0
  148.0905  134.8268  156.2802 H   0  0  0  0  0  0  0  0  0  0  0  0
  148.8539  137.3843  153.5697 H   0  0  0  0  0  0  0  0  0  0  0  0
  148.1012  138.2923  154.8440 H   0  0  0  0  0  0  0  0  0  0  0  0
  148.4463  139.7215  156.3490 H   0  0  0  0  0  0  0  0  0  0  0  0
  147.7173  139.7866  153.9434 H   0  0  0  0  0  0  0  0  0  0  0  0
  148.1786  141.4858  153.8677 H   0  0  0  0  0  0  0  0  0  0  0  0
  146.8821  140.9592  154.9349 H   0  0  0  0  0  0  0  0  0  0  0  0
  148.3194  142.1735  156.6728 H   0  0  0  0  0  0  0  0  0  0  0  0
  149.4575  141.6193  158.4778 H   0  0  0  0  0  0  0  0  0  0  0  0
  150.4376  140.4920  157.5465 H   0  0  0  0  0  0  0  0  0  0  0  0
  152.1388  142.0285  157.5133 H   0  0  0  0  0  0  0  0  0  0  0  0
  151.1156  143.1316  156.6137 H   0  0  0  0  0  0  0  0  0  0  0  0
  152.6802  144.8476  158.2471 H   0  0  0  0  0  0  0  0  0  0  0  0
  151.8744  145.9182  160.6252 H   0  0  0  0  0  0  0  0  0  0  0  0
  149.8187  144.2298  161.4033 H   0  0  0  0  0  0  0  0  0  0  0  0
  152.2670  138.4896  153.9707 H   0  0  0  0  0  0  0  0  0  0  0  0
  151.1511  137.4962  153.1094 H   0  0  0  0  0  0  0  0  0  0  0  0
  1  2  1  0  0  0  0
  1 21  1  0  0  0  0
  1 22  1  0  0  0  0
  1 23  1  0  0  0  0
  2 20  1  0  0  0  0
  2  3  1  0  0  0  0
  2 24  1  0  0  0  0
  3  4  1  0  0  0  0
  3 25  1  0  0  0  0
  3 26  1  0  0  0  0
  4  5  1  0  0  0  0
  4  6  1  0  0  0  0
  4 27  1  0  0  0  0
  5 28  1  0  0  0  0
  5 29  1  0  0  0  0
  5 30  1  0  0  0  0
  6  7  1  0  0  0  0
  6 31  1  0  0  0  0
  6 32  1  0  0  0  0
  7  8  1  0  0  0  0
  7 20  1  0  0  0  0
  8  9  2  0  0  0  0
  8 10  1  0  0  0  0
 10 11  1  0  0  0  0
 10 12  1  0  0  0  0
 10 33  1  0  0  0  0
 11 34  1  0  0  0  0
 11 35  1  0  0  0  0
 11 36  1  0  0  0  0
 12 13  1  0  0  0  0
 12 37  1  0  0  0  0
 13 14  1  0  0  0  0
 13 38  1  0  0  0  0
 13 39  1  0  0  0  0
 14 15  1  0  0  0  0
 14 40  1  0  0  0  0
 14 41  1  0  0  0  0
 15 19  1  0  0  0  0
 15 16  1  0  0  0  0
 16 17  2  0  0  0  0
 16 42  1  0  0  0  0
 17 18  1  0  0  0  0
 17 43  1  0  0  0  0
 18 19  2  0  0  0  0
 18 44  1  0  0  0  0
 20 45  1  0  0  0  0
 20 46  1  0  0  0  0
M  END
> <s_m_source_file>
AV-unprocessed.smi

> <i_m_source_file_index>
3331

> <i_lp_mmshare_version>
43012

> <i_f3d_flags>
0

> <s_epik_input>
W0NIM11bQ0BASF0xW0NIMl1bQ0BASF0oW0NIM10pW0NIMl1OKFtDSDJdMSlDKD1PKVtDQEhdKFtDSDNdKVtOSF1bQ0gyXVtDSDJdbjJbY0hdW2NIXVtjSF1uMg==

> <s_epik_cmdline>
J2VwaWtfcHl0aG9uJywgJy1waCcsICc3LjAnLCAnLXRuJywgJzgnLCAnLW1hJywgJzIwMCcsICctbWV0YWxfYmluZGluZycsICctaW1hZScsICc8aW5maWxlLm1hZT4nLCAnLW9tYWUnLCAnPG91dGZpbGUubWFlPic=

> <r_lp_tautomer_probability>
1

> <r_epik_Ionization_Penalty>
0.767994

> <r_epik_Ionization_Penalty_Charging>
0

> <r_epik_Ionization_Penalty_Neutral>
0.767994

> <r_epik_State_Penalty>
0.795453

> <r_epik_Charging_Adjusted_Penalty>
0.795453

> <i_epik_Tot_Q>
0

> <i_epik_Tot_abs_Q>
0

> <r_epik_Metal_State_Penalty>
0.794784

> <b_epik_Metal_Only>
0

> <s_lp_Force_Field>
OPLS_2005

> <r_lp_Energy>
29.2756

> <b_lp_Chiralities_Consistent>
1

> <s_lp_Variant>
AV-unprocessed.smi:3331-9

> <Gold.Version>
5.8.1

> <Gold.Id.Protein>
6NUR|6NUR_protein|mol2

> <Gold.PLP.Fitness>
42.4851

> <Gold.PLP.PLP>
-39.5943

> <Gold.PLP.part.hbond>
-1.8082

> <Gold.PLP.part.metal>
0.0000

> <Gold.PLP.part.buried>
-4.4014

> <Gold.PLP.part.nonpolar>
-33.6575

> <Gold.PLP.part.repulsive>
0.1914

> <Gold.PLP.ligand.clash>
0.0000

> <Gold.PLP.ligand.torsion>
0.9016

> <Gold.PLP.Chemscore.Hbond>
1.5360

> <Gold.PLP.Chemscore.CHOScore>
0.0000

> <Gold.PLP.Chemscore.Metal>
0.0000

> <Gold.Chemscore.Hbonds>
donor molecule, donor type, donor heavy atom, donor atom, acceptor molecule, acceptor atom, score
      P1  H  7989  7998       L1     9  0.93

> <Gold.PLP.Chemscore.Internal.Correction>
0.0859

> <Gold.Rescore>
     Score         DG    S(hbond)    S(metal)    S(lipo)     H(rot)  DE(clash)    DE(int)     intcor
     14.02     -16.68       1.67        0.00      84.49       1.66       0.22       2.43       ----

> <Gold.Chemscore.Fitness>
14.0237

> <Gold.Chemscore.DG>
-16.6809

> <Gold.Chemscore.ZeroCoef>
-5.4800

> <Gold.Chemscore.Hbond>
1.6701

> <Gold.Chemscore.Metal>
0.0000

> <Gold.Chemscore.Lipo>
84.4868

> <Gold.Chemscore.Internal_Hbond>
0.0000

> <Gold.Chemscore.DEClash>
0.2232

> <Gold.Chemscore.DEInternal>
2.4341

> <Gold.Chemscore.Rot>
1.6649

> <Gold.Chemscore.Internal.Correction>
   9.000000E+99

> <Gold.Chemscore.Hbonds>
donor molecule, donor type, donor heavy atom, donor atom, acceptor molecule, acceptor atom, score
      P1  H  7989  7998       L1     9  0.45

> <Gold.Chemscore.Hbond.Weighted>
-5.5780

> <Gold.Chemscore.Metal.Weighted>
-0.0000

> <Gold.Chemscore.Lipo.Weighted>
-9.8850

> <Gold.Chemscore.Internal_Hbond.Weighted>
0.0000

> <Gold.Chemscore.DEClash.Weighted>
0.2232

> <Gold.Chemscore.DEInternal.Weighted>
2.4341

> <Gold.Chemscore.Rot.Weighted>
4.2621

> <Gold.Chemscore.Internal.Correction.Weighted>
   9.000000E+99

> <Gold.Protein.RotatedTorsions>
[ 6907 6896 6895 6894 ] final   27.69 input  -60.11 | X-H torsion
[ 7974 7965 7964 7962 ] final   31.51 input  175.53 | X-H torsion
[ 8008 7997 7996 7995 ] final  109.06 input   59.86 | X-H torsion
[ 10167 10162 10161 10158 ] final  -17.54 input  -65.29 | X-H torsion
[ 10718 10713 10712 10709 ] final  -42.45 input   66.30 | X-H torsion
[ 10763 10752 10751 10750 ] final  -45.63 input  -60.55 | X-H torsion
[ 11005 11000 10999 10996 ] final  154.30 input  -57.11 | X-H torsion

> <Gold.Protein.ActiveResidues>
 VAL166  LYS551  ARG553  GLY616  TRP617  ASP618  TYR619  PRO620  LYS621  CYS622 
 ASP623  PHE694  ASN695  SER759  ASP760  ASP761  ALA762  ILE779  LEU786  VAL792 
 PHE793  MET794  SER795  GLU796  ALA797  LYS798  CYS799  TRP800  GLU811  SER814 

> <Gold.Protein.RotatedAtoms>
  152.0060  134.9902  160.0566 H   0  0  0  0  0  0  0  0  0  0  0  0  # atno 6907 bound_to 6896
  152.1474  133.4496  159.4805 H   0  0  0  0  0  0  0  0  0  0  0  0  # atno 6908 bound_to 6896
  150.6871  134.2149  159.4417 H   0  0  0  0  0  0  0  0  0  0  0  0  # atno 6909 bound_to 6896
  146.1545  139.6647  142.9076 H   0  0  0  0  0  0  0  0  0  0  0  0  # atno 7974 bound_to 7965
  156.1950  140.3065  155.9410 H   0  0  0  0  0  0  0  0  0  0  0  0  # atno 8008 bound_to 7997
  155.3086  140.0450  157.3050 H   0  0  0  0  0  0  0  0  0  0  0  0  # atno 8009 bound_to 7997
  154.5499  140.2288  155.8511 H   0  0  0  0  0  0  0  0  0  0  0  0  # atno 8010 bound_to 7997
  140.7248  143.5005  150.9875 H   0  0  0  0  0  0  0  0  0  0  0  0  # atno 10167 bound_to 10162
  156.2594  130.4195  149.8559 H   0  0  0  0  0  0  0  0  0  0  0  0  # atno 10718 bound_to 10713
  154.0316  135.6656  153.4781 H   0  0  0  0  0  0  0  0  0  0  0  0  # atno 10763 bound_to 10752
  153.0538  135.5068  154.7927 H   0  0  0  0  0  0  0  0  0  0  0  0  # atno 10764 bound_to 10752
  154.6874  135.3055  154.9493 H   0  0  0  0  0  0  0  0  0  0  0  0  # atno 10765 bound_to 10752
  140.1477  134.8696  157.2414 H   0  0  0  0  0  0  0  0  0  0  0  0  # atno 11005 bound_to 11000
  145.4742  141.0437  143.2682 LP  0  0  0  0  0  0  0  0  0  0  0  0  # atno 17320 bound_to 7965
  144.7946  139.6260  143.7098 LP  0  0  0  0  0  0  0  0  0  0  0  0  # atno 17321 bound_to 7965
  139.8714  143.7187  152.3166 LP  0  0  0  0  0  0  0  0  0  0  0  0  # atno 17342 bound_to 10162
  139.7437  144.7553  151.0612 LP  0  0  0  0  0  0  0  0  0  0  0  0  # atno 17343 bound_to 10162
  156.6079  130.8574  151.3447 LP  0  0  0  0  0  0  0  0  0  0  0  0  # atno 17370 bound_to 10713
  157.7245  130.9603  150.1576 LP  0  0  0  0  0  0  0  0  0  0  0  0  # atno 17371 bound_to 10713
  140.2643  134.3534  155.7395 LP  0  0  0  0  0  0  0  0  0  0  0  0  # atno 17394 bound_to 11000
  141.2195  133.7387  156.9128 LP  0  0  0  0  0  0  0  0  0  0  0  0  # atno 17395 bound_to 11000

$$$$
