AV-unprocessed.smi:527|AV-procd|sdf|2816|dock2
  -GOLD-   2262023293D 1   1.00000     0.00000
 Structure written by MMmdl.
 42 43  0  0  0  0  0  0  0  0  1 V2000
  149.7601  140.8536  156.3678 C   0  0  0  0  0  0  0  0  0  0  0  0
  148.5553  140.5282  155.4693 C   0  0  1  0  0  0  0  0  0  0  0  0
  148.3521  141.5970  154.3761 C   0  0  0  0  0  0  0  0  0  0  0  0
  147.0907  141.3187  153.5432 C   0  0  0  0  0  0  0  0  0  0  0  0
  147.1043  139.9008  152.9520 C   0  0  0  0  0  0  0  0  0  0  0  0
  147.3001  138.8415  154.0533 C   0  0  1  0  0  0  0  0  0  0  0  0
  147.2706  137.5032  153.4671 N   0  0  0  0  0  0  0  0  0  0  0  0
  146.3869  136.5412  153.7712 C   0  0  0  0  0  0  0  0  0  0  0  0
  145.4936  136.6816  154.6093 O   0  0  0  0  0  0  0  0  0  0  0  0
  146.6186  135.4290  153.0482 N   0  0  0  0  0  0  0  0  0  0  0  0
  145.9656  134.2507  153.1198 C   0  0  0  0  0  0  0  0  0  0  0  0
  145.0154  134.0077  153.8662 O   0  0  0  0  0  0  0  0  0  0  0  0
  146.4796  133.1540  152.1862 C   0  0  0  0  0  0  0  0  0  0  0  0
  145.4359  132.7154  151.2793 N   0  0  0  0  0  0  0  0  0  0  0  0
  144.0860  133.0382  151.3351 C   0  0  0  0  0  0  0  0  0  0  0  0
  143.4820  132.3869  150.2834 C   0  0  0  0  0  0  0  0  0  0  0  0
  144.4350  131.6620  149.5714 N   0  0  0  0  0  0  0  0  0  0  0  0
  145.5666  131.9051  150.2194 C   0  0  0  0  0  0  0  0  0  0  0  0
  148.5963  139.0968  154.8702 C   0  0  1  0  0  0  0  0  0  0  0  0
  149.8872  138.7969  154.0728 C   0  0  0  0  0  0  0  0  0  0  0  0
  150.6822  140.9423  155.7937 H   0  0  0  0  0  0  0  0  0  0  0  0
  149.9064  140.0831  157.1250 H   0  0  0  0  0  0  0  0  0  0  0  0
  149.6111  141.8003  156.8879 H   0  0  0  0  0  0  0  0  0  0  0  0
  147.6786  140.5697  156.1178 H   0  0  0  0  0  0  0  0  0  0  0  0
  148.2698  142.5836  154.8334 H   0  0  0  0  0  0  0  0  0  0  0  0
  149.2239  141.6383  153.7225 H   0  0  0  0  0  0  0  0  0  0  0  0
  146.2079  141.4396  154.1722 H   0  0  0  0  0  0  0  0  0  0  0  0
  147.0020  142.0551  152.7442 H   0  0  0  0  0  0  0  0  0  0  0  0
  146.1669  139.7205  152.4244 H   0  0  0  0  0  0  0  0  0  0  0  0
  147.8942  139.8222  152.2044 H   0  0  0  0  0  0  0  0  0  0  0  0
  146.4491  138.9290  154.7322 H   0  0  0  0  0  0  0  0  0  0  0  0
  147.9855  137.2942  152.7859 H   0  0  0  0  0  0  0  0  0  0  0  0
  147.3732  135.4793  152.3800 H   0  0  0  0  0  0  0  0  0  0  0  0
  147.3239  133.5239  151.6029 H   0  0  0  0  0  0  0  0  0  0  0  0
  146.8362  132.2990  152.7626 H   0  0  0  0  0  0  0  0  0  0  0  0
  143.6781  133.6839  152.0991 H   0  0  0  0  0  0  0  0  0  0  0  0
  142.4433  132.3833  149.9879 H   0  0  0  0  0  0  0  0  0  0  0  0
  146.5132  131.4799  149.9189 H   0  0  0  0  0  0  0  0  0  0  0  0
  148.5892  138.4008  155.7105 H   0  0  0  0  0  0  0  0  0  0  0  0
  150.0040  139.4596  153.2162 H   0  0  0  0  0  0  0  0  0  0  0  0
  149.8988  137.7732  153.6989 H   0  0  0  0  0  0  0  0  0  0  0  0
  150.7750  138.9043  154.6949 H   0  0  0  0  0  0  0  0  0  0  0  0
  1  2  1  0  0  0  0
  1 21  1  0  0  0  0
  1 22  1  0  0  0  0
  1 23  1  0  0  0  0
  2 19  1  0  0  0  0
  2  3  1  0  0  0  0
  2 24  1  0  0  0  0
  3  4  1  0  0  0  0
  3 25  1  0  0  0  0
  3 26  1  0  0  0  0
  4  5  1  0  0  0  0
  4 27  1  0  0  0  0
  4 28  1  0  0  0  0
  5  6  1  0  0  0  0
  5 29  1  0  0  0  0
  5 30  1  0  0  0  0
  6  7  1  0  0  0  0
  6 19  1  0  0  0  0
  6 31  1  0  0  0  0
  7  8  1  0  0  0  0
  7 32  1  0  0  0  0
  8  9  2  0  0  0  0
  8 10  1  0  0  0  0
 10 11  1  0  0  0  0
 10 33  1  0  0  0  0
 11 12  2  0  0  0  0
 11 13  1  0  0  0  0
 13 14  1  0  0  0  0
 13 34  1  0  0  0  0
 13 35  1  0  0  0  0
 14 18  1  0  0  0  0
 14 15  1  0  0  0  0
 15 16  2  0  0  0  0
 15 36  1  0  0  0  0
 16 17  1  0  0  0  0
 16 37  1  0  0  0  0
 17 18  2  0  0  0  0
 18 38  1  0  0  0  0
 19 20  1  0  0  0  0
 19 39  1  0  0  0  0
 20 40  1  0  0  0  0
 20 41  1  0  0  0  0
 20 42  1  0  0  0  0
M  END
> <s_m_source_file>
AV-unprocessed.smi

> <i_m_source_file_index>
527

> <i_lp_mmshare_version>
43012

> <i_f3d_flags>
0

> <s_epik_input>
W0NIM11bQ0BASF0xW0NIMl1bQ0gyXVtDSDJdW0NASF0oW0NASF0xW0NIM10pW05IXUMoPU8pW05IXUMoPU8pW0NIMl1uMltjSF1bY0hdbltjSF0y

> <s_epik_cmdline>
J2VwaWtfcHl0aG9uJywgJy1waCcsICc3LjAnLCAnLXRuJywgJzgnLCAnLW1hJywgJzIwMCcsICctbWV0YWxfYmluZGluZycsICctaW1hZScsICc8aW5maWxlLm1hZT4nLCAnLW9tYWUnLCAnPG91dGZpbGUubWFlPic=

> <r_lp_tautomer_probability>
1

> <r_epik_Ionization_Penalty>
0.172132

> <r_epik_Ionization_Penalty_Charging>
0.172105

> <r_epik_Ionization_Penalty_Neutral>
2.71747e-05

> <r_epik_State_Penalty>
0.161503

> <r_epik_Charging_Adjusted_Penalty>
0.333607

> <i_epik_Tot_Q>
0

> <i_epik_Tot_abs_Q>
0

> <r_epik_Metal_State_Penalty>
0.124763

> <b_epik_Metal_Only>
0

> <s_lp_Force_Field>
OPLS_2005

> <r_lp_Energy>
16.646

> <b_lp_Chiralities_Consistent>
1

> <s_lp_Variant>
AV-unprocessed.smi:527-2

> <Gold.Version>
5.8.1

> <Gold.Id.Protein>
6NUR|6NUR_protein|mol2

> <Gold.PLP.Fitness>
46.2469

> <Gold.PLP.PLP>
-31.2725

> <Gold.PLP.part.hbond>
-3.0000

> <Gold.PLP.part.metal>
0.0000

> <Gold.PLP.part.buried>
-2.9339

> <Gold.PLP.part.nonpolar>
-26.0323

> <Gold.PLP.part.repulsive>
0.3030

> <Gold.PLP.ligand.clash>
0.0000

> <Gold.PLP.ligand.torsion>
0.1016

> <Gold.PLP.Chemscore.Hbond>
2.3788

> <Gold.PLP.Chemscore.CHOScore>
2.6726

> <Gold.PLP.Chemscore.Metal>
0.0000

> <Gold.Chemscore.Hbonds>
donor molecule, donor type, donor heavy atom, donor atom, acceptor molecule, acceptor atom, score
      L1  H     7    32       P1  7948  1.00
      L1  H    10    33       P1  7948  1.00
      P1  H 10785 10796       L1    17  0.39
      L1  C    16    37       P1 10186  0.94
      L1  C    16    37       P1 10952  0.76
      L1  C    18    38       P1 10747  0.95

> <Gold.PLP.Chemscore.Internal.Correction>
0.0233

> <Gold.Rescore>
     Score         DG    S(hbond)    S(metal)    S(lipo)     H(rot)  DE(clash)    DE(int)     intcor
     14.70     -17.34       2.34        0.00      70.99       1.66       0.31       2.32       ----

> <Gold.Chemscore.Fitness>
14.7002

> <Gold.Chemscore.DG>
-17.3377

> <Gold.Chemscore.ZeroCoef>
-5.4800

> <Gold.Chemscore.Hbond>
2.3380

> <Gold.Chemscore.Metal>
0.0000

> <Gold.Chemscore.Lipo>
70.9893

> <Gold.Chemscore.Internal_Hbond>
0.0000

> <Gold.Chemscore.DEClash>
0.3143

> <Gold.Chemscore.DEInternal>
2.3232

> <Gold.Chemscore.Rot>
1.6629

> <Gold.Chemscore.Internal.Correction>
   9.000000E+99

> <Gold.Chemscore.Hbonds>
donor molecule, donor type, donor heavy atom, donor atom, acceptor molecule, acceptor atom, score
      L1  H     7    32       P1  7948  0.98
      L1  H    10    33       P1  7948  0.94
      P1  H 10785 10796       L1    17  0.12

> <Gold.Chemscore.Hbond.Weighted>
-7.8089

> <Gold.Chemscore.Metal.Weighted>
-0.0000

> <Gold.Chemscore.Lipo.Weighted>
-8.3058

> <Gold.Chemscore.Internal_Hbond.Weighted>
0.0000

> <Gold.Chemscore.DEClash.Weighted>
0.3143

> <Gold.Chemscore.DEInternal.Weighted>
2.3232

> <Gold.Chemscore.Rot.Weighted>
4.2569

> <Gold.Chemscore.Internal.Correction.Weighted>
   9.000000E+99

> <Gold.Protein.RotatedTorsions>
[ 6907 6896 6895 6894 ] final  178.32 input  -60.11 | X-H torsion
[ 7974 7965 7964 7962 ] final  172.43 input  175.53 | X-H torsion
[ 8008 7997 7996 7995 ] final   84.16 input   59.86 | X-H torsion
[ 10167 10162 10161 10158 ] final  -85.82 input  -65.29 | X-H torsion
[ 10718 10713 10712 10709 ] final -113.47 input   66.30 | X-H torsion
[ 10763 10752 10751 10750 ] final  158.86 input  -60.55 | X-H torsion
[ 11005 11000 10999 10996 ] final  146.72 input  -57.11 | X-H torsion

> <Gold.Protein.ActiveResidues>
 VAL166  LYS551  ARG553  GLY616  TRP617  ASP618  TYR619  PRO620  LYS621  CYS622 
 ASP623  PHE694  ASN695  SER759  ASP760  ASP761  ALA762  ILE779  LEU786  VAL792 
 PHE793  MET794  SER795  GLU796  ALA797  LYS798  CYS799  TRP800  GLU811  SER814 

> <Gold.Protein.RotatedAtoms>
  151.6898  133.3311  159.3239 H   0  0  0  0  0  0  0  0  0  0  0  0  # atno 6907 bound_to 6896
  150.7784  134.6709  159.6400 H   0  0  0  0  0  0  0  0  0  0  0  0  # atno 6908 bound_to 6896
  152.3834  134.6558  160.0186 H   0  0  0  0  0  0  0  0  0  0  0  0  # atno 6909 bound_to 6896
  144.7268  139.9497  143.6431 H   0  0  0  0  0  0  0  0  0  0  0  0  # atno 7974 bound_to 7965
  155.9334  140.3413  155.6268 H   0  0  0  0  0  0  0  0  0  0  0  0  # atno 8008 bound_to 7997
  155.7129  140.0774  157.2382 H   0  0  0  0  0  0  0  0  0  0  0  0  # atno 8009 bound_to 7997
  154.4089  140.1619  156.2304 H   0  0  0  0  0  0  0  0  0  0  0  0  # atno 8010 bound_to 7997
  140.4000  143.2667  151.9154 H   0  0  0  0  0  0  0  0  0  0  0  0  # atno 10167 bound_to 10162
  156.0768  130.5975  150.8646 H   0  0  0  0  0  0  0  0  0  0  0  0  # atno 10718 bound_to 10713
  154.2227  135.2781  155.2919 H   0  0  0  0  0  0  0  0  0  0  0  0  # atno 10763 bound_to 10752
  154.5688  135.5625  153.7079 H   0  0  0  0  0  0  0  0  0  0  0  0  # atno 10764 bound_to 10752
  153.0038  135.6316  154.2368 H   0  0  0  0  0  0  0  0  0  0  0  0  # atno 10765 bound_to 10752
  140.0816  134.9094  157.1510 H   0  0  0  0  0  0  0  0  0  0  0  0  # atno 11005 bound_to 11000
  146.0721  139.3710  143.0516 LP  0  0  0  0  0  0  0  0  0  0  0  0  # atno 17320 bound_to 7965
  145.7954  140.9795  143.1027 LP  0  0  0  0  0  0  0  0  0  0  0  0  # atno 17321 bound_to 7965
  139.4785  144.5643  151.8190 LP  0  0  0  0  0  0  0  0  0  0  0  0  # atno 17342 bound_to 10162
  140.4749  144.1533  150.5923 LP  0  0  0  0  0  0  0  0  0  0  0  0  # atno 17343 bound_to 10162
  157.5868  131.0945  150.9184 LP  0  0  0  0  0  0  0  0  0  0  0  0  # atno 17370 bound_to 10713
  156.9368  130.5370  149.5279 LP  0  0  0  0  0  0  0  0  0  0  0  0  # atno 17371 bound_to 10713
  140.3480  134.2631  155.7202 LP  0  0  0  0  0  0  0  0  0  0  0  0  # atno 17394 bound_to 11000
  141.2048  133.7875  157.0265 LP  0  0  0  0  0  0  0  0  0  0  0  0  # atno 17395 bound_to 11000

$$$$
