AV-unprocessed.smi:2074|AV-procd|sdf|8455|dock1
  -GOLD-   2272011153D 1   1.00000     0.00000
 Structure written by MMmdl.
 44 45  0  0  0  0  0  0  0  0  2 V2000
  153.7138  137.7086  155.3089 C   0  0  0  0  0  0  0  0  0  0  0  0
  152.6083  138.7017  155.5261 C   0  0  0  0  0  0  0  0  0  0  0  0
  152.8091  139.7352  156.3258 N   0  0  0  0  0  0  0  0  0  0  0  0
  151.6155  140.4633  156.3185 O   0  0  0  0  0  0  0  0  0  0  0  0
  150.7334  139.8336  155.5015 C   0  0  0  0  0  0  0  0  0  0  0  0
  149.3888  140.4630  155.3585 C   0  0  0  0  0  0  0  0  0  0  0  0
  151.2987  138.7092  154.9647 C   0  0  0  0  0  0  0  0  0  0  0  0
  150.6889  137.7155  154.0094 C   0  0  0  0  0  0  0  0  0  0  0  0
  150.7494  136.3145  154.6174 C   0  0  0  0  0  0  0  0  0  0  0  0
  151.5067  136.0857  155.5601 O   0  0  0  0  0  0  0  0  0  0  0  0
  149.9475  135.3877  154.0688 N   0  0  0  0  0  0  0  0  0  0  0  0
  149.8110  134.0063  154.5252 C   0  0  0  0  0  0  0  0  0  0  0  0
  148.9446  133.1252  153.5808 C   0  0  1  0  0  0  0  0  0  0  0  0
  148.5695  131.7907  154.2706 C   0  0  0  0  0  0  0  0  0  0  0  0
  147.7202  133.8428  153.0873 N   0  3  0  0  0  0  0  0  0  0  0  0
  146.8733  133.0464  152.1539 C   0  0  0  0  0  0  0  0  0  0  0  0
  145.6392  133.8386  151.6894 C   0  0  0  0  0  0  0  0  0  0  0  0
  144.8869  134.2624  152.8145 O   0  0  0  0  0  0  0  0  0  0  0  0
  145.6452  135.1330  153.6384 C   0  0  0  0  0  0  0  0  0  0  0  0
  146.8728  134.3868  154.1864 C   0  0  0  0  0  0  0  0  0  0  0  0
  153.3324  136.6877  155.3240 H   0  0  0  0  0  0  0  0  0  0  0  0
  154.4807  137.7835  156.0812 H   0  0  0  0  0  0  0  0  0  0  0  0
  154.1961  137.8688  154.3447 H   0  0  0  0  0  0  0  0  0  0  0  0
  148.9666  140.2614  154.3739 H   0  0  0  0  0  0  0  0  0  0  0  0
  149.4485  141.5444  155.4821 H   0  0  0  0  0  0  0  0  0  0  0  0
  148.6996  140.0735  156.1079 H   0  0  0  0  0  0  0  0  0  0  0  0
  149.6527  137.9641  153.7771 H   0  0  0  0  0  0  0  0  0  0  0  0
  151.2169  137.7101  153.0552 H   0  0  0  0  0  0  0  0  0  0  0  0
  149.3638  135.6712  153.2950 H   0  0  0  0  0  0  0  0  0  0  0  0
  150.7875  133.5450  154.6823 H   0  0  0  0  0  0  0  0  0  0  0  0
  149.3477  134.0912  155.5072 H   0  0  0  0  0  0  0  0  0  0  0  0
  149.5566  132.8887  152.7088 H   0  0  0  0  0  0  0  0  0  0  0  0
  149.4453  131.2676  154.6520 H   0  0  0  0  0  0  0  0  0  0  0  0
  148.0969  131.0832  153.5919 H   0  0  0  0  0  0  0  0  0  0  0  0
  147.8952  131.9565  155.1113 H   0  0  0  0  0  0  0  0  0  0  0  0
  147.4280  132.7755  151.2572 H   0  0  0  0  0  0  0  0  0  0  0  0
  146.5626  132.1209  152.6412 H   0  0  0  0  0  0  0  0  0  0  0  0
  145.9323  134.6984  151.0845 H   0  0  0  0  0  0  0  0  0  0  0  0
  145.0071  133.2109  151.0610 H   0  0  0  0  0  0  0  0  0  0  0  0
  145.9442  136.0211  153.0789 H   0  0  0  0  0  0  0  0  0  0  0  0
  145.0165  135.4741  154.4612 H   0  0  0  0  0  0  0  0  0  0  0  0
  146.5519  133.5724  154.8377 H   0  0  0  0  0  0  0  0  0  0  0  0
  147.4279  135.0909  154.8024 H   0  0  0  0  0  0  0  0  0  0  0  0
  148.0497  134.6371  152.5572 H   0  0  0  0  0  0  0  0  0  0  0  0
  1  2  1  0  0  0  0
  1 21  1  0  0  0  0
  1 22  1  0  0  0  0
  1 23  1  0  0  0  0
  2  7  1  0  0  0  0
  2  3  2  0  0  0  0
  3  4  1  0  0  0  0
  4  5  1  0  0  0  0
  5  6  1  0  0  0  0
  5  7  2  0  0  0  0
  6 24  1  0  0  0  0
  6 25  1  0  0  0  0
  6 26  1  0  0  0  0
  7  8  1  0  0  0  0
  8  9  1  0  0  0  0
  8 27  1  0  0  0  0
  8 28  1  0  0  0  0
  9 10  2  0  0  0  0
  9 11  1  0  0  0  0
 11 12  1  0  0  0  0
 11 29  1  0  0  0  0
 12 13  1  0  0  0  0
 12 30  1  0  0  0  0
 12 31  1  0  0  0  0
 13 14  1  0  0  0  0
 13 15  1  0  0  0  0
 13 32  1  0  0  0  0
 14 33  1  0  0  0  0
 14 34  1  0  0  0  0
 14 35  1  0  0  0  0
 15 20  1  0  0  0  0
 15 16  1  0  0  0  0
 15 44  1  0  0  0  0
 16 17  1  0  0  0  0
 16 36  1  0  0  0  0
 16 37  1  0  0  0  0
 17 18  1  0  0  0  0
 17 38  1  0  0  0  0
 17 39  1  0  0  0  0
 18 19  1  0  0  0  0
 19 20  1  0  0  0  0
 19 40  1  0  0  0  0
 19 41  1  0  0  0  0
 20 42  1  0  0  0  0
 20 43  1  0  0  0  0
M  CHG  1  15   1
M  END
> <s_m_source_file>
AV-unprocessed.smi

> <i_m_source_file_index>
2074

> <i_lp_mmshare_version>
43012

> <i_f3d_flags>
0

> <s_epik_input>
W0NIM11jMW5vYyhbQ0gzXSljMVtDSDJdQyg9TylbTkhdW0NIMl1bQ0BIXShbQ0gzXSlOMltDSDJdW0NIMl1PW0NIMl1bQ0gyXTI=

> <s_epik_cmdline>
J2VwaWtfcHl0aG9uJywgJy1waCcsICc3LjAnLCAnLXRuJywgJzgnLCAnLW1hJywgJzIwMCcsICctbWV0YWxfYmluZGluZycsICctaW1hZScsICc8aW5maWxlLm1hZT4nLCAnLW9tYWUnLCAnPG91dGZpbGUubWFlPic=

> <r_epik_Ionization_Penalty>
0.663207

> <r_epik_Ionization_Penalty_Charging>
0.663207

> <r_epik_Ionization_Penalty_Neutral>
1.0751e-07

> <r_epik_State_Penalty>
0.682743

> <r_epik_Charging_Adjusted_Penalty>
1.34595

> <i_epik_Tot_Q>
1

> <i_epik_Tot_abs_Q>
1

> <r_epik_Metal_State_Penalty>
0.682743

> <b_epik_Metal_Only>
0

> <s_lp_Force_Field>
OPLS_2005

> <r_lp_Energy>
15.6967

> <b_lp_Chiralities_Consistent>
1

> <s_lp_Variant>
AV-unprocessed.smi:2074-4

> <Gold.Version>
5.8.1

> <Gold.Id.Protein>
6NUR|6NUR_protein|mol2

> <Gold.PLP.Fitness>
43.9614

> <Gold.PLP.PLP>
-29.8796

> <Gold.PLP.part.hbond>
-5.0000

> <Gold.PLP.part.metal>
0.0000

> <Gold.PLP.part.buried>
3.9223

> <Gold.PLP.part.nonpolar>
-29.0278

> <Gold.PLP.part.repulsive>
0.1917

> <Gold.PLP.ligand.clash>
0.0000

> <Gold.PLP.ligand.torsion>
0.4174

> <Gold.PLP.Chemscore.Hbond>
4.9500

> <Gold.PLP.Chemscore.CHOScore>
0.0000

> <Gold.PLP.Chemscore.Metal>
0.0000

> <Gold.Chemscore.Hbonds>
donor molecule, donor type, donor heavy atom, donor atom, acceptor molecule, acceptor atom, score
      L1  H    11    29       P1  7948  1.00
      L1  H    15    44       P1  7948  2.00
      P1  H  7997  8009       L1     3  1.00
      P1  H 10752 10763       L1    10  1.00

> <Gold.PLP.Chemscore.Internal.Correction>
0.0665

> <Gold.Rescore>
     Score         DG    S(hbond)    S(metal)    S(lipo)     H(rot)  DE(clash)    DE(int)     intcor
     15.21     -20.44       3.42        0.00      69.67       1.80       2.15       3.09       ----

> <Gold.Chemscore.Fitness>
15.2056

> <Gold.Chemscore.DG>
-20.4416

> <Gold.Chemscore.ZeroCoef>
-5.4800

> <Gold.Chemscore.Hbond>
3.4155

> <Gold.Chemscore.Metal>
0.0000

> <Gold.Chemscore.Lipo>
69.6731

> <Gold.Chemscore.Internal_Hbond>
0.0000

> <Gold.Chemscore.DEClash>
2.1453

> <Gold.Chemscore.DEInternal>
3.0908

> <Gold.Chemscore.Rot>
1.7961

> <Gold.Chemscore.Internal.Correction>
   9.000000E+99

> <Gold.Chemscore.Hbonds>
donor molecule, donor type, donor heavy atom, donor atom, acceptor molecule, acceptor atom, score
      L1  H    11    29       P1  7948  0.24
      L1  H    15    44       P1  7948  0.55
      P1  H  7997  8009       L1     3  0.83
      P1  H 10752 10763       L1    10  0.84

> <Gold.Chemscore.Hbond.Weighted>
-11.4079

> <Gold.Chemscore.Metal.Weighted>
-0.0000

> <Gold.Chemscore.Lipo.Weighted>
-8.1517

> <Gold.Chemscore.Internal_Hbond.Weighted>
0.0000

> <Gold.Chemscore.DEClash.Weighted>
2.1453

> <Gold.Chemscore.DEInternal.Weighted>
3.0908

> <Gold.Chemscore.Rot.Weighted>
4.5980

> <Gold.Chemscore.Internal.Correction.Weighted>
   9.000000E+99

> <Gold.Protein.RotatedTorsions>
[ 6907 6896 6895 6894 ] final  108.62 input  -60.11 | X-H torsion
[ 7974 7965 7964 7962 ] final   70.72 input  175.53 | X-H torsion
[ 8008 7997 7996 7995 ] final -170.80 input   59.86 | X-H torsion
[ 10167 10162 10161 10158 ] final -171.63 input  -65.29 | X-H torsion
[ 10718 10713 10712 10709 ] final   26.45 input   66.30 | X-H torsion
[ 10763 10752 10751 10750 ] final   88.95 input  -60.55 | X-H torsion
[ 11005 11000 10999 10996 ] final  119.96 input  -57.11 | X-H torsion

> <Gold.Protein.ActiveResidues>
 VAL166  LYS551  ARG553  GLY616  TRP617  ASP618  TYR619  PRO620  LYS621  CYS622 
 ASP623  PHE694  ASN695  SER759  ASP760  ASP761  ALA762  ILE779  LEU786  VAL792 
 PHE793  MET794  SER795  GLU796  ALA797  LYS798  CYS799  TRP800  GLU811  SER814 

> <Gold.Protein.RotatedAtoms>
  152.5104  133.9062  159.7465 H   0  0  0  0  0  0  0  0  0  0  0  0  # atno 6907 bound_to 6896
  150.9466  133.6587  159.2787 H   0  0  0  0  0  0  0  0  0  0  0  0  # atno 6908 bound_to 6896
  151.3880  135.0956  159.9570 H   0  0  0  0  0  0  0  0  0  0  0  0  # atno 6909 bound_to 6896
  145.7747  139.2859  143.1301 H   0  0  0  0  0  0  0  0  0  0  0  0  # atno 7974 bound_to 7965
  155.9232  140.1078  157.1190 H   0  0  0  0  0  0  0  0  0  0  0  0  # atno 8008 bound_to 7997
  154.4058  140.1252  156.4772 H   0  0  0  0  0  0  0  0  0  0  0  0  # atno 8009 bound_to 7997
  155.7170  140.3470  155.5001 H   0  0  0  0  0  0  0  0  0  0  0  0  # atno 8010 bound_to 7997
  139.5791  144.1464  152.1491 H   0  0  0  0  0  0  0  0  0  0  0  0  # atno 10167 bound_to 10162
  157.2069  130.6916  149.6212 H   0  0  0  0  0  0  0  0  0  0  0  0  # atno 10718 bound_to 10713
  153.1821  135.4488  155.0041 H   0  0  0  0  0  0  0  0  0  0  0  0  # atno 10763 bound_to 10752
  154.8037  135.3265  154.7489 H   0  0  0  0  0  0  0  0  0  0  0  0  # atno 10764 bound_to 10752
  153.7952  135.6967  153.4920 H   0  0  0  0  0  0  0  0  0  0  0  0  # atno 10765 bound_to 10752
  139.9167  134.9632  156.7735 H   0  0  0  0  0  0  0  0  0  0  0  0  # atno 11005 bound_to 11000
  146.0135  140.8414  142.9959 LP  0  0  0  0  0  0  0  0  0  0  0  0  # atno 17320 bound_to 7965
  144.6806  140.2524  143.7330 LP  0  0  0  0  0  0  0  0  0  0  0  0  # atno 17321 bound_to 7965
  140.1013  144.5537  150.6987 LP  0  0  0  0  0  0  0  0  0  0  0  0  # atno 17342 bound_to 10162
  140.7071  143.2476  151.4693 LP  0  0  0  0  0  0  0  0  0  0  0  0  # atno 17343 bound_to 10162
  155.9694  130.4564  150.5923 LP  0  0  0  0  0  0  0  0  0  0  0  0  # atno 17370 bound_to 10713
  157.3711  131.0765  151.1557 LP  0  0  0  0  0  0  0  0  0  0  0  0  # atno 17371 bound_to 10713
  140.6602  133.9652  155.7801 LP  0  0  0  0  0  0  0  0  0  0  0  0  # atno 17394 bound_to 11000
  141.0649  134.0292  157.3608 LP  0  0  0  0  0  0  0  0  0  0  0  0  # atno 17395 bound_to 11000

$$$$
