AV-unprocessed.smi:942|AV-procd|sdf|4227|dock4
  -GOLD-   22720 2133D 1   1.00000     0.00000
 Structure written by MMmdl.
 42 44  0  0  0  0  0  0  0  0  1 V2000
  149.1705  141.3491  157.2951 O   0  0  0  0  0  0  0  0  0  0  0  0
  150.1899  141.6941  156.6968 C   0  0  0  0  0  0  0  0  0  0  0  0
  150.3448  141.5636  155.3713 N   0  0  0  0  0  0  0  0  0  0  0  0
  149.3286  141.0681  154.4424 C   0  0  2  0  0  0  0  0  0  0  0  0
  147.9524  141.6957  154.7528 C   0  0  0  0  0  0  0  0  0  0  0  0
  147.0380  140.5517  155.2135 C   0  0  0  0  0  0  0  0  0  0  0  0
  147.9788  139.4091  155.5912 C   0  0  0  0  0  0  0  0  0  0  0  0
  149.1221  139.5437  154.5805 C   0  0  2  0  0  0  0  0  0  0  0  0
  150.3313  138.7874  154.8959 N   0  0  0  0  0  0  0  0  0  0  0  0
  151.0348  138.7337  156.0958 C   0  0  0  0  0  0  0  0  0  0  0  0
  152.0941  137.8779  155.8961 C   0  0  0  0  0  0  0  0  0  0  0  0
  152.0569  137.3809  154.5965 N   0  0  0  0  0  0  0  0  0  0  0  0
  150.9836  137.9552  154.0705 C   0  0  0  0  0  0  0  0  0  0  0  0
  151.3640  142.3220  157.4586 C   0  0  0  0  0  0  0  0  0  0  0  0
  151.8793  141.3809  158.5681 C   0  0  0  0  0  0  0  0  0  0  0  0
  153.0471  142.0166  159.3404 C   0  0  0  0  0  0  0  0  0  0  0  0
  152.6525  143.3829  159.9234 C   0  0  0  0  0  0  0  0  0  0  0  0
  152.1287  144.3249  158.8279 C   0  0  0  0  0  0  0  0  0  0  0  0
  150.9619  143.6868  158.0568 C   0  0  0  0  0  0  0  0  0  0  0  0
  151.2174  141.8708  154.9661 H   0  0  0  0  0  0  0  0  0  0  0  0
  149.6335  141.2966  153.4193 H   0  0  0  0  0  0  0  0  0  0  0  0
  148.0276  142.4541  155.5337 H   0  0  0  0  0  0  0  0  0  0  0  0
  147.5364  142.1892  153.8740 H   0  0  0  0  0  0  0  0  0  0  0  0
  146.3870  140.8444  156.0378 H   0  0  0  0  0  0  0  0  0  0  0  0
  146.4005  140.2390  154.3856 H   0  0  0  0  0  0  0  0  0  0  0  0
  148.3415  139.5663  156.6079 H   0  0  0  0  0  0  0  0  0  0  0  0
  147.4907  138.4349  155.5513 H   0  0  0  0  0  0  0  0  0  0  0  0
  148.7571  139.1672  153.6232 H   0  0  0  0  0  0  0  0  0  0  0  0
  150.7423  139.2921  156.9724 H   0  0  0  0  0  0  0  0  0  0  0  0
  152.8709  137.5793  156.5846 H   0  0  0  0  0  0  0  0  0  0  0  0
  150.6678  137.7740  153.0535 H   0  0  0  0  0  0  0  0  0  0  0  0
  152.1797  142.4897  156.7525 H   0  0  0  0  0  0  0  0  0  0  0  0
  151.0745  141.1446  159.2661 H   0  0  0  0  0  0  0  0  0  0  0  0
  152.2018  140.4324  158.1366 H   0  0  0  0  0  0  0  0  0  0  0  0
  153.3704  141.3504  160.1407 H   0  0  0  0  0  0  0  0  0  0  0  0
  153.9024  142.1375  158.6744 H   0  0  0  0  0  0  0  0  0  0  0  0
  151.8838  143.2468  160.6852 H   0  0  0  0  0  0  0  0  0  0  0  0
  153.5088  143.8350  160.4247 H   0  0  0  0  0  0  0  0  0  0  0  0
  151.8092  145.2685  159.2713 H   0  0  0  0  0  0  0  0  0  0  0  0
  152.9358  144.5671  158.1355 H   0  0  0  0  0  0  0  0  0  0  0  0
  150.6357  144.3628  157.2650 H   0  0  0  0  0  0  0  0  0  0  0  0
  150.1111  143.5667  158.7295 H   0  0  0  0  0  0  0  0  0  0  0  0
  1  2  2  0  0  0  0
  2  3  1  0  0  0  0
  2 14  1  0  0  0  0
  3  4  1  0  0  0  0
  3 20  1  0  0  0  0
  4  8  1  0  0  0  0
  4  5  1  0  0  0  0
  4 21  1  0  0  0  0
  5  6  1  0  0  0  0
  5 22  1  0  0  0  0
  5 23  1  0  0  0  0
  6  7  1  0  0  0  0
  6 24  1  0  0  0  0
  6 25  1  0  0  0  0
  7  8  1  0  0  0  0
  7 26  1  0  0  0  0
  7 27  1  0  0  0  0
  8  9  1  0  0  0  0
  8 28  1  0  0  0  0
  9 13  1  0  0  0  0
  9 10  1  0  0  0  0
 10 11  2  0  0  0  0
 10 29  1  0  0  0  0
 11 12  1  0  0  0  0
 11 30  1  0  0  0  0
 12 13  2  0  0  0  0
 13 31  1  0  0  0  0
 14 19  1  0  0  0  0
 14 15  1  0  0  0  0
 14 32  1  0  0  0  0
 15 16  1  0  0  0  0
 15 33  1  0  0  0  0
 15 34  1  0  0  0  0
 16 17  1  0  0  0  0
 16 35  1  0  0  0  0
 16 36  1  0  0  0  0
 17 18  1  0  0  0  0
 17 37  1  0  0  0  0
 17 38  1  0  0  0  0
 18 19  1  0  0  0  0
 18 39  1  0  0  0  0
 18 40  1  0  0  0  0
 19 41  1  0  0  0  0
 19 42  1  0  0  0  0
M  END
> <s_m_source_file>
AV-unprocessed.smi

> <i_m_source_file_index>
942

> <i_lp_mmshare_version>
43012

> <i_f3d_flags>
0

> <s_epik_input>
W0NIMl0xW0NIMl1bQ0gyXVtDSDJdW0NIMl1bQ0hdMUMoPU8pW05IXVtDQEBIXTJbQ0gyXVtDSDJdW0NIMl1bQ0BIXTJuM1tjSF1bY0hdbltjSF0z

> <s_epik_cmdline>
J2VwaWtfcHl0aG9uJywgJy1waCcsICc3LjAnLCAnLXRuJywgJzgnLCAnLW1hJywgJzIwMCcsICctbWV0YWxfYmluZGluZycsICctaW1hZScsICc8aW5maWxlLm1hZT4nLCAnLW9tYWUnLCAnPG91dGZpbGUubWFlPic=

> <r_lp_tautomer_probability>
1

> <r_epik_Ionization_Penalty>
0.778458

> <r_epik_Ionization_Penalty_Charging>
0.778458

> <r_epik_Ionization_Penalty_Neutral>
2.79355e-08

> <r_epik_State_Penalty>
0.807804

> <r_epik_Charging_Adjusted_Penalty>
1.58626

> <i_epik_Tot_Q>
0

> <i_epik_Tot_abs_Q>
0

> <r_epik_Metal_State_Penalty>
0.343007

> <b_epik_Metal_Only>
0

> <s_lp_Force_Field>
OPLS_2005

> <r_lp_Energy>
33.2669

> <b_lp_Chiralities_Consistent>
1

> <s_lp_Variant>
AV-unprocessed.smi:942-7

> <Gold.Version>
5.8.1

> <Gold.Id.Protein>
6NUR|6NUR_protein|mol2

> <Gold.PLP.Fitness>
41.5727

> <Gold.PLP.PLP>
-36.5027

> <Gold.PLP.part.hbond>
-1.0000

> <Gold.PLP.part.metal>
0.0000

> <Gold.PLP.part.buried>
-2.9188

> <Gold.PLP.part.nonpolar>
-33.7233

> <Gold.PLP.part.repulsive>
1.0405

> <Gold.PLP.ligand.clash>
0.0000

> <Gold.PLP.ligand.torsion>
0.4298

> <Gold.PLP.Chemscore.Hbond>
0.8800

> <Gold.PLP.Chemscore.CHOScore>
1.0892

> <Gold.PLP.Chemscore.Metal>
0.0000

> <Gold.Chemscore.Hbonds>
donor molecule, donor type, donor heavy atom, donor atom, acceptor molecule, acceptor atom, score
      P1  H 10752 10765       L1    12  0.86
      L1  C    13    31       P1  7948  0.41
      L1  C    13    31       P1  7949  0.67

> <Gold.PLP.Chemscore.Internal.Correction>
0.0221

> <Gold.Rescore>
     Score         DG    S(hbond)    S(metal)    S(lipo)     H(rot)  DE(clash)    DE(int)     intcor
     11.26     -15.79       0.81        0.00      96.60       1.44       0.06       4.47       ----

> <Gold.Chemscore.Fitness>
11.2618

> <Gold.Chemscore.DG>
-15.7932

> <Gold.Chemscore.ZeroCoef>
-5.4800

> <Gold.Chemscore.Hbond>
0.8074

> <Gold.Chemscore.Metal>
0.0000

> <Gold.Chemscore.Lipo>
96.5968

> <Gold.Chemscore.Internal_Hbond>
0.0000

> <Gold.Chemscore.DEClash>
0.0597

> <Gold.Chemscore.DEInternal>
4.4717

> <Gold.Chemscore.Rot>
1.4395

> <Gold.Chemscore.Internal.Correction>
   9.000000E+99

> <Gold.Chemscore.Hbonds>
donor molecule, donor type, donor heavy atom, donor atom, acceptor molecule, acceptor atom, score
      P1  H 10752 10765       L1    12  0.74

> <Gold.Chemscore.Hbond.Weighted>
-2.6966

> <Gold.Chemscore.Metal.Weighted>
-0.0000

> <Gold.Chemscore.Lipo.Weighted>
-11.3018

> <Gold.Chemscore.Internal_Hbond.Weighted>
0.0000

> <Gold.Chemscore.DEClash.Weighted>
0.0597

> <Gold.Chemscore.DEInternal.Weighted>
4.4717

> <Gold.Chemscore.Rot.Weighted>
3.6852

> <Gold.Chemscore.Internal.Correction.Weighted>
   9.000000E+99

> <Gold.Protein.RotatedTorsions>
[ 6907 6896 6895 6894 ] final   39.51 input  -60.11 | X-H torsion
[ 7974 7965 7964 7962 ] final  -22.61 input  175.53 | X-H torsion
[ 8008 7997 7996 7995 ] final  -32.85 input   59.86 | X-H torsion
[ 10167 10162 10161 10158 ] final  -40.77 input  -65.29 | X-H torsion
[ 10718 10713 10712 10709 ] final  135.73 input   66.30 | X-H torsion
[ 10763 10752 10751 10750 ] final  167.37 input  -60.55 | X-H torsion
[ 11005 11000 10999 10996 ] final -129.79 input  -57.11 | X-H torsion

> <Gold.Protein.ActiveResidues>
 VAL166  LYS551  ARG553  GLY616  TRP617  ASP618  TYR619  PRO620  LYS621  CYS622 
 ASP623  PHE694  ASN695  SER759  ASP760  ASP761  ALA762  ILE779  LEU786  VAL792 
 PHE793  MET794  SER795  GLU796  ALA797  LYS798  CYS799  TRP800  GLU811  SER814 

> <Gold.Protein.RotatedAtoms>
  152.1705  134.8838  160.0534 H   0  0  0  0  0  0  0  0  0  0  0  0  # atno 6907 bound_to 6896
  151.9799  133.3749  159.4112 H   0  0  0  0  0  0  0  0  0  0  0  0  # atno 6908 bound_to 6896
  150.6901  134.3972  159.5147 H   0  0  0  0  0  0  0  0  0  0  0  0  # atno 6909 bound_to 6896
  146.1666  140.4502  142.8549 H   0  0  0  0  0  0  0  0  0  0  0  0  # atno 7974 bound_to 7965
  154.4167  140.1726  156.1793 H   0  0  0  0  0  0  0  0  0  0  0  0  # atno 8008 bound_to 7997
  155.9695  140.3387  155.6539 H   0  0  0  0  0  0  0  0  0  0  0  0  # atno 8009 bound_to 7997
  155.6643  140.0704  157.2533 H   0  0  0  0  0  0  0  0  0  0  0  0  # atno 8010 bound_to 7997
  140.7024  143.3133  151.2972 H   0  0  0  0  0  0  0  0  0  0  0  0  # atno 10167 bound_to 10162
  157.4541  131.1068  150.9999 H   0  0  0  0  0  0  0  0  0  0  0  0  # atno 10718 bound_to 10713
  154.3529  135.2753  155.2362 H   0  0  0  0  0  0  0  0  0  0  0  0  # atno 10763 bound_to 10752
  154.4584  135.5913  153.6242 H   0  0  0  0  0  0  0  0  0  0  0  0  # atno 10764 bound_to 10752
  152.9848  135.6059  154.3741 H   0  0  0  0  0  0  0  0  0  0  0  0  # atno 10765 bound_to 10752
  140.9401  134.1204  157.4158 H   0  0  0  0  0  0  0  0  0  0  0  0  # atno 11005 bound_to 11000
  144.8101  140.6370  143.6421 LP  0  0  0  0  0  0  0  0  0  0  0  0  # atno 17320 bound_to 7965
  145.4452  139.1530  143.3948 LP  0  0  0  0  0  0  0  0  0  0  0  0  # atno 17321 bound_to 7965
  139.6564  144.0269  152.2662 LP  0  0  0  0  0  0  0  0  0  0  0  0  # atno 17342 bound_to 10162
  139.9822  144.6420  150.7890 LP  0  0  0  0  0  0  0  0  0  0  0  0  # atno 17343 bound_to 10162
  157.0819  130.5906  149.5422 LP  0  0  0  0  0  0  0  0  0  0  0  0  # atno 17370 bound_to 10713
  155.9999  130.5076  150.7625 LP  0  0  0  0  0  0  0  0  0  0  0  0  # atno 17371 bound_to 10713
  139.8818  135.0034  156.6183 LP  0  0  0  0  0  0  0  0  0  0  0  0  # atno 17394 bound_to 11000
  140.7746  133.8710  155.8518 LP  0  0  0  0  0  0  0  0  0  0  0  0  # atno 17395 bound_to 11000

$$$$
