AV-unprocessed.smi:65|AV-procd|sdf|614|dock10
  -GOLD-   2262016503D 1   1.00000     0.00000
 Structure written by MMmdl.
 25 26  0  0  0  0  0  0  0  0  1 V2000
  141.3299  135.9826  154.7959 N   0  0  0  0  0  0  0  0  0  0  0  0
  142.2532  135.9690  153.7793 C   0  0  0  0  0  0  0  0  0  0  0  0
  142.6620  137.1563  153.3275 N   0  0  0  0  0  0  0  0  0  0  0  0
  143.5671  137.1439  152.3251 C   0  0  0  0  0  0  0  0  0  0  0  0
  144.0578  135.9391  151.7817 C   0  0  0  0  0  0  0  0  0  0  0  0
  143.5600  134.7450  152.3449 C   0  0  0  0  0  0  0  0  0  0  0  0
  143.9897  133.5091  151.8375 N   0  0  0  0  0  0  0  0  0  0  0  0
  145.4346  133.3108  151.9178 C   0  0  0  0  0  0  0  0  0  0  0  0
  145.9054  132.9534  150.5058 C   0  0  0  0  0  0  0  0  0  0  0  0
  144.6629  132.3207  149.8910 C   0  0  2  0  0  0  0  0  0  0  0  0
  144.6736  132.3637  148.4801 O   0  0  0  0  0  0  0  0  0  0  0  0
  143.5401  133.1644  150.4911 C   0  0  0  0  0  0  0  0  0  0  0  0
  142.6463  134.7696  153.3458 N   0  0  0  0  0  0  0  0  0  0  0  0
  140.9804  135.1171  155.1803 H   0  0  0  0  0  0  0  0  0  0  0  0
  140.9889  136.8585  155.1645 H   0  0  0  0  0  0  0  0  0  0  0  0
  143.9009  138.1007  151.9523 H   0  0  0  0  0  0  0  0  0  0  0  0
  144.7783  135.9341  150.9770 H   0  0  0  0  0  0  0  0  0  0  0  0
  145.9641  134.1836  152.3033 H   0  0  0  0  0  0  0  0  0  0  0  0
  145.6257  132.4826  152.6009 H   0  0  0  0  0  0  0  0  0  0  0  0
  146.1681  133.8664  149.9689 H   0  0  0  0  0  0  0  0  0  0  0  0
  146.7736  132.2939  150.4988 H   0  0  0  0  0  0  0  0  0  0  0  0
  144.5710  131.2862  150.2258 H   0  0  0  0  0  0  0  0  0  0  0  0
  145.1948  133.1028  148.2059 H   0  0  0  0  0  0  0  0  0  0  0  0
  142.6016  132.6107  150.5251 H   0  0  0  0  0  0  0  0  0  0  0  0
  143.3755  134.0565  149.8857 H   0  0  0  0  0  0  0  0  0  0  0  0
  1  2  1  0  0  0  0
  1 14  1  0  0  0  0
  1 15  1  0  0  0  0
  2 13  1  0  0  0  0
  2  3  2  0  0  0  0
  3  4  1  0  0  0  0
  4  5  2  0  0  0  0
  4 16  1  0  0  0  0
  5  6  1  0  0  0  0
  5 17  1  0  0  0  0
  6  7  1  0  0  0  0
  6 13  2  0  0  0  0
  7 12  1  0  0  0  0
  7  8  1  0  0  0  0
  8  9  1  0  0  0  0
  8 18  1  0  0  0  0
  8 19  1  0  0  0  0
  9 10  1  0  0  0  0
  9 20  1  0  0  0  0
  9 21  1  0  0  0  0
 10 11  1  0  0  0  0
 10 12  1  0  0  0  0
 10 22  1  0  0  0  0
 11 23  1  0  0  0  0
 12 24  1  0  0  0  0
 12 25  1  0  0  0  0
M  END
> <s_m_source_file>
AV-unprocessed.smi

> <i_m_source_file_index>
65

> <i_lp_mmshare_version>
43012

> <i_f3d_flags>
0

> <s_epik_input>
W05IMl1jMW5bY0hdW2NIXWMobjEpTjJbQ0gyXVtDSDJdW0NAQEhdKFtPSF0pW0NIMl0y

> <s_epik_cmdline>
J2VwaWtfcHl0aG9uJywgJy1waCcsICc3LjAnLCAnLXRuJywgJzgnLCAnLW1hJywgJzIwMCcsICctbWV0YWxfYmluZGluZycsICctaW1hZScsICc8aW5maWxlLm1hZT4nLCAnLW9tYWUnLCAnPG91dGZpbGUubWFlPic=

> <r_lp_tautomer_probability>
1

> <r_epik_Ionization_Penalty>
0.99295

> <r_epik_Ionization_Penalty_Charging>
0

> <r_epik_Ionization_Penalty_Neutral>
0.99295

> <r_epik_State_Penalty>
0.750885

> <r_epik_Charging_Adjusted_Penalty>
0.750885

> <i_epik_Tot_Q>
0

> <i_epik_Tot_abs_Q>
0

> <r_epik_Metal_State_Penalty>
0.338511

> <b_epik_Metal_Only>
0

> <s_lp_Force_Field>
OPLS_2005

> <r_lp_Energy>
21.5088

> <b_lp_Chiralities_Consistent>
1

> <s_lp_Variant>
AV-unprocessed.smi:65-4

> <Gold.Version>
5.8.1

> <Gold.Id.Protein>
6NUR|6NUR_protein|mol2

> <Gold.PLP.Fitness>
32.1842

> <Gold.PLP.PLP>
-21.0101

> <Gold.PLP.part.hbond>
-3.2662

> <Gold.PLP.part.metal>
0.0000

> <Gold.PLP.part.buried>
-2.2318

> <Gold.PLP.part.nonpolar>
-15.8627

> <Gold.PLP.part.repulsive>
0.5075

> <Gold.PLP.ligand.clash>
0.0000

> <Gold.PLP.ligand.torsion>
0.0929

> <Gold.PLP.Chemscore.Hbond>
1.8940

> <Gold.PLP.Chemscore.CHOScore>
1.8706

> <Gold.PLP.Chemscore.Metal>
0.0000

> <Gold.Chemscore.Hbonds>
donor molecule, donor type, donor heavy atom, donor atom, acceptor molecule, acceptor atom, score
      L1  H     1    14       P1 11000  0.99
      L1  H    11    23       P1  7921  0.90
      L1  C     4    16       P1 10171  0.84
      L1  C     4    16       P1 10175  1.00

> <Gold.PLP.Chemscore.Internal.Correction>
0.0659

> <Gold.Rescore>
     Score         DG    S(hbond)    S(metal)    S(lipo)     H(rot)  DE(clash)    DE(int)     intcor
      9.44     -11.15       1.41        0.00      42.06       1.55       1.51       0.20       ----

> <Gold.Chemscore.Fitness>
9.4356

> <Gold.Chemscore.DG>
-11.1485

> <Gold.Chemscore.ZeroCoef>
-5.4800

> <Gold.Chemscore.Hbond>
1.4117

> <Gold.Chemscore.Metal>
0.0000

> <Gold.Chemscore.Lipo>
42.0559

> <Gold.Chemscore.Internal_Hbond>
0.0000

> <Gold.Chemscore.DEClash>
1.5109

> <Gold.Chemscore.DEInternal>
0.2020

> <Gold.Chemscore.Rot>
1.5496

> <Gold.Chemscore.Internal.Correction>
   9.000000E+99

> <Gold.Chemscore.Hbonds>
donor molecule, donor type, donor heavy atom, donor atom, acceptor molecule, acceptor atom, score
      L1  H     1    14       P1 11000  0.33
      L1  H    11    23       P1  7921  0.17

> <Gold.Chemscore.Hbond.Weighted>
-4.7150

> <Gold.Chemscore.Metal.Weighted>
-0.0000

> <Gold.Chemscore.Lipo.Weighted>
-4.9205

> <Gold.Chemscore.Internal_Hbond.Weighted>
0.0000

> <Gold.Chemscore.DEClash.Weighted>
1.5109

> <Gold.Chemscore.DEInternal.Weighted>
0.2020

> <Gold.Chemscore.Rot.Weighted>
3.9670

> <Gold.Chemscore.Internal.Correction.Weighted>
   9.000000E+99

> <Gold.Protein.RotatedTorsions>
[ 6907 6896 6895 6894 ] final  -52.57 input  -60.11 | X-H torsion
[ 7974 7965 7964 7962 ] final  103.06 input  175.53 | X-H torsion
[ 8008 7997 7996 7995 ] final  -92.12 input   59.86 | X-H torsion
[ 10167 10162 10161 10158 ] final  -27.68 input  -65.29 | X-H torsion
[ 10718 10713 10712 10709 ] final   24.92 input   66.30 | X-H torsion
[ 10763 10752 10751 10750 ] final -117.49 input  -60.55 | X-H torsion
[ 11005 11000 10999 10996 ] final  169.02 input  -57.11 | X-H torsion

> <Gold.Protein.ActiveResidues>
 VAL166  LYS551  ARG553  GLY616  TRP617  ASP618  TYR619  PRO620  LYS621  CYS622 
 ASP623  PHE694  ASN695  SER759  ASP760  ASP761  ALA762  ILE779  LEU786  VAL792 
 PHE793  MET794  SER795  GLU796  ALA797  LYS798  CYS799  TRP800  GLU811  SER814 

> <Gold.Protein.RotatedAtoms>
  150.8506  134.7829  159.7005 H   0  0  0  0  0  0  0  0  0  0  0  0  # atno 6907 bound_to 6896
  152.4572  134.5263  159.9807 H   0  0  0  0  0  0  0  0  0  0  0  0  # atno 6908 bound_to 6896
  151.5385  133.3399  159.2966 H   0  0  0  0  0  0  0  0  0  0  0  0  # atno 6909 bound_to 6896
  145.3509  139.2440  143.3559 H   0  0  0  0  0  0  0  0  0  0  0  0  # atno 7974 bound_to 7965
  154.7192  140.0512  157.0624 H   0  0  0  0  0  0  0  0  0  0  0  0  # atno 8008 bound_to 7997
  155.0450  140.3173  155.4692 H   0  0  0  0  0  0  0  0  0  0  0  0  # atno 8009 bound_to 7997
  156.2812  140.2126  156.5574 H   0  0  0  0  0  0  0  0  0  0  0  0  # atno 8010 bound_to 7997
  140.7275  143.4073  151.1164 H   0  0  0  0  0  0  0  0  0  0  0  0  # atno 10167 bound_to 10162
  157.1863  130.6825  149.6132 H   0  0  0  0  0  0  0  0  0  0  0  0  # atno 10718 bound_to 10713
  154.8556  135.4308  154.1987 H   0  0  0  0  0  0  0  0  0  0  0  0  # atno 10763 bound_to 10752
  153.3039  135.6971  153.7183 H   0  0  0  0  0  0  0  0  0  0  0  0  # atno 10764 bound_to 10752
  153.6303  135.3486  155.3013 H   0  0  0  0  0  0  0  0  0  0  0  0  # atno 10765 bound_to 10752
  140.2934  134.7655  157.3857 H   0  0  0  0  0  0  0  0  0  0  0  0  # atno 11005 bound_to 11000
  146.2968  140.4124  142.8718 LP  0  0  0  0  0  0  0  0  0  0  0  0  # atno 17320 bound_to 7965
  144.8719  140.7283  143.6041 LP  0  0  0  0  0  0  0  0  0  0  0  0  # atno 17321 bound_to 7965
  139.7701  143.8507  152.3119 LP  0  0  0  0  0  0  0  0  0  0  0  0  # atno 17342 bound_to 10162
  139.8422  144.7204  150.9316 LP  0  0  0  0  0  0  0  0  0  0  0  0  # atno 17343 bound_to 10162
  155.9717  130.4629  150.6164 LP  0  0  0  0  0  0  0  0  0  0  0  0  # atno 17370 bound_to 10713
  157.3904  131.0795  151.1399 LP  0  0  0  0  0  0  0  0  0  0  0  0  # atno 17371 bound_to 10713
  140.1175  134.5264  155.8212 LP  0  0  0  0  0  0  0  0  0  0  0  0  # atno 17394 bound_to 11000
  141.2142  133.6745  156.6804 LP  0  0  0  0  0  0  0  0  0  0  0  0  # atno 17395 bound_to 11000

$$$$
