AV-unprocessed.smi:540|AV-procd|sdf|2869|dock9
  -GOLD-   2262023363D 1   1.00000     0.00000
 Structure written by MMmdl.
 49 51  0  0  0  0  0  0  0  0  1 V2000
  147.1575  142.0288  154.0895 C   0  0  0  0  0  0  0  0  0  0  0  0
  148.3029  141.0144  154.0609 C   0  0  0  0  0  0  0  0  0  0  0  0
  149.5040  141.6685  154.4333 O   0  0  0  0  0  0  0  0  0  0  0  0
  149.6806  141.7296  155.8380 C   0  0  0  0  0  0  0  0  0  0  0  0
  151.1420  142.0843  156.1362 C   0  0  0  0  0  0  0  0  0  0  0  0
  151.7903  141.0499  156.9378 N   0  0  0  0  0  0  0  0  0  0  0  0
  152.4010  141.1745  158.1493 C   0  0  0  0  0  0  0  0  0  0  0  0
  152.5109  142.3997  158.8109 N   0  0  0  0  0  0  0  0  0  0  0  0
  152.5867  143.7230  158.1921 C   0  0  0  0  0  0  0  0  0  0  0  0
  151.5399  144.6844  158.7832 C   0  0  0  0  0  0  0  0  0  0  0  0
  151.7225  144.8217  160.3049 C   0  0  0  0  0  0  0  0  0  0  0  0
  150.6290  145.6968  160.9331 C   0  0  0  0  0  0  0  0  0  0  0  0
  151.7740  143.4223  160.9437 C   0  0  0  0  0  0  0  0  0  0  0  0
  152.8070  142.5264  160.2364 C   0  0  0  0  0  0  0  0  0  0  0  0
  152.8357  140.0247  158.6724 N   0  0  0  0  0  0  0  0  0  0  0  0
  152.4975  139.0903  157.7064 C   0  0  0  0  0  0  0  0  0  0  0  0
  151.8575  139.6813  156.6651 C   0  0  0  0  0  0  0  0  0  0  0  0
  151.3424  138.9121  155.5226 C   0  0  0  0  0  0  0  0  0  0  0  0
  150.7337  139.4148  154.5810 O   0  0  0  0  0  0  0  0  0  0  0  0
  151.5982  137.5846  155.6156 N   0  0  0  0  0  0  0  0  0  0  0  0
  152.2436  136.9305  156.6284 C   0  0  0  0  0  0  0  0  0  0  0  0
  152.3957  135.7102  156.5741 O   0  0  0  0  0  0  0  0  0  0  0  0
  152.6980  137.6805  157.6827 N   0  0  0  0  0  0  0  0  0  0  0  0
  153.3863  137.0317  158.8004 C   0  0  0  0  0  0  0  0  0  0  0  0
  151.2683  137.0115  154.8528 H   0  0  0  0  0  0  0  0  0  0  0  0
  146.2144  141.5597  153.8087 H   0  0  0  0  0  0  0  0  0  0  0  0
  147.3434  142.8487  153.3952 H   0  0  0  0  0  0  0  0  0  0  0  0
  147.0365  142.4535  155.0863 H   0  0  0  0  0  0  0  0  0  0  0  0
  148.0900  140.1961  154.7506 H   0  0  0  0  0  0  0  0  0  0  0  0
  148.4008  140.5887  153.0610 H   0  0  0  0  0  0  0  0  0  0  0  0
  149.0178  142.4862  156.2603 H   0  0  0  0  0  0  0  0  0  0  0  0
  149.4225  140.7729  156.2948 H   0  0  0  0  0  0  0  0  0  0  0  0
  151.6919  142.2407  155.2108 H   0  0  0  0  0  0  0  0  0  0  0  0
  151.1989  143.0389  156.6495 H   0  0  0  0  0  0  0  0  0  0  0  0
  153.5869  144.1272  158.3545 H   0  0  0  0  0  0  0  0  0  0  0  0
  152.4788  143.6457  157.1110 H   0  0  0  0  0  0  0  0  0  0  0  0
  151.6272  145.6611  158.3064 H   0  0  0  0  0  0  0  0  0  0  0  0
  150.5356  144.3219  158.5621 H   0  0  0  0  0  0  0  0  0  0  0  0
  152.6828  145.3070  160.4852 H   0  0  0  0  0  0  0  0  0  0  0  0
  149.6396  145.2626  160.7847 H   0  0  0  0  0  0  0  0  0  0  0  0
  150.6246  146.6943  160.4928 H   0  0  0  0  0  0  0  0  0  0  0  0
  150.7863  145.8106  162.0059 H   0  0  0  0  0  0  0  0  0  0  0  0
  152.0206  143.5038  162.0027 H   0  0  0  0  0  0  0  0  0  0  0  0
  150.7906  142.9533  160.8904 H   0  0  0  0  0  0  0  0  0  0  0  0
  152.8078  141.5391  160.6994 H   0  0  0  0  0  0  0  0  0  0  0  0
  153.8125  142.9293  160.3645 H   0  0  0  0  0  0  0  0  0  0  0  0
  154.2102  136.4123  158.4425 H   0  0  0  0  0  0  0  0  0  0  0  0
  152.6947  136.3935  159.3515 H   0  0  0  0  0  0  0  0  0  0  0  0
  153.8074  137.7484  159.5054 H   0  0  0  0  0  0  0  0  0  0  0  0
  1  2  1  0  0  0  0
  1 26  1  0  0  0  0
  1 27  1  0  0  0  0
  1 28  1  0  0  0  0
  2  3  1  0  0  0  0
  2 29  1  0  0  0  0
  2 30  1  0  0  0  0
  3  4  1  0  0  0  0
  4  5  1  0  0  0  0
  4 31  1  0  0  0  0
  4 32  1  0  0  0  0
  5  6  1  0  0  0  0
  5 33  1  0  0  0  0
  5 34  1  0  0  0  0
  6 17  1  0  0  0  0
  6  7  1  0  0  0  0
  7  8  1  0  0  0  0
  7 15  2  0  0  0  0
  8 14  1  0  0  0  0
  8  9  1  0  0  0  0
  9 10  1  0  0  0  0
  9 35  1  0  0  0  0
  9 36  1  0  0  0  0
 10 11  1  0  0  0  0
 10 37  1  0  0  0  0
 10 38  1  0  0  0  0
 11 12  1  0  0  0  0
 11 13  1  0  0  0  0
 11 39  1  0  0  0  0
 12 40  1  0  0  0  0
 12 41  1  0  0  0  0
 12 42  1  0  0  0  0
 13 14  1  0  0  0  0
 13 43  1  0  0  0  0
 13 44  1  0  0  0  0
 14 45  1  0  0  0  0
 14 46  1  0  0  0  0
 15 16  1  0  0  0  0
 16 23  1  0  0  0  0
 16 17  2  0  0  0  0
 17 18  1  0  0  0  0
 18 19  2  0  0  0  0
 18 20  1  0  0  0  0
 20 25  1  0  0  0  0
 20 21  1  0  0  0  0
 21 22  2  0  0  0  0
 21 23  1  0  0  0  0
 23 24  1  0  0  0  0
 24 47  1  0  0  0  0
 24 48  1  0  0  0  0
 24 49  1  0  0  0  0
M  END
> <s_m_source_file>
AV-unprocessed.smi

> <i_m_source_file_index>
540

> <i_lp_mmshare_version>
43012

> <i_f3d_flags>
0

> <s_epik_input>
W0NIM11uMWMoPU8pW25IXWMoPU8pYyhjMTIpbihbQ0gyXVtDSDJdT1tDSDJdW0NIM10pYyhuMilOM1tDSDJdW0NIMl1bQ0hdKFtDSDNdKVtDSDJdW0NIMl0z

> <s_epik_cmdline>
J2VwaWtfcHl0aG9uJywgJy1waCcsICc3LjAnLCAnLXRuJywgJzgnLCAnLW1hJywgJzIwMCcsICctbWV0YWxfYmluZGluZycsICctaW1hZScsICc8aW5maWxlLm1hZT4nLCAnLW9tYWUnLCAnPG91dGZpbGUubWFlPic=

> <r_lp_tautomer_probability>
1

> <r_epik_Ionization_Penalty>
0.000763957

> <r_epik_Ionization_Penalty_Charging>
0.000121351

> <r_epik_Ionization_Penalty_Neutral>
0.000642606

> <r_epik_State_Penalty>
-0

> <r_epik_Charging_Adjusted_Penalty>
0.000121351

> <i_epik_Tot_Q>
0

> <i_epik_Tot_abs_Q>
0

> <r_epik_Metal_State_Penalty>
0.0930422

> <b_epik_Metal_Only>
0

> <s_lp_Force_Field>
OPLS_2005

> <r_lp_Energy>
38.5385

> <b_lp_Chiralities_Consistent>
1

> <s_lp_Variant>
AV-unprocessed.smi:540-1

> <Gold.Version>
5.8.1

> <Gold.Id.Protein>
6NUR|6NUR_protein|mol2

> <Gold.PLP.Fitness>
44.4616

> <Gold.PLP.PLP>
-39.2264

> <Gold.PLP.part.hbond>
-4.0235

> <Gold.PLP.part.metal>
0.0000

> <Gold.PLP.part.buried>
0.7382

> <Gold.PLP.part.nonpolar>
-35.2957

> <Gold.PLP.part.repulsive>
0.3927

> <Gold.PLP.ligand.clash>
0.0037

> <Gold.PLP.ligand.torsion>
0.8207

> <Gold.PLP.Chemscore.Hbond>
2.1354

> <Gold.PLP.Chemscore.CHOScore>
0.0000

> <Gold.PLP.Chemscore.Metal>
0.0000

> <Gold.Chemscore.Hbonds>
donor molecule, donor type, donor heavy atom, donor atom, acceptor molecule, acceptor atom, score
      P1  H  7989  7998       L1    19  1.00
      P1  H  8011  8017       L1     3  0.14
      P1  H 10752 10763       L1    22  1.00

> <Gold.PLP.Chemscore.Internal.Correction>
0.4741

> <Gold.Rescore>
     Score         DG    S(hbond)    S(metal)    S(lipo)     H(rot)  DE(clash)    DE(int)     intcor
     13.09     -19.73       1.83        0.00     104.19       1.58       3.11       3.53       ----

> <Gold.Chemscore.Fitness>
13.0875

> <Gold.Chemscore.DG>
-19.7269

> <Gold.Chemscore.ZeroCoef>
-5.4800

> <Gold.Chemscore.Hbond>
1.8271

> <Gold.Chemscore.Metal>
0.0000

> <Gold.Chemscore.Lipo>
104.1923

> <Gold.Chemscore.Internal_Hbond>
0.0000

> <Gold.Chemscore.DEClash>
3.1054

> <Gold.Chemscore.DEInternal>
3.5340

> <Gold.Chemscore.Rot>
1.5806

> <Gold.Chemscore.Internal.Correction>
   9.000000E+99

> <Gold.Chemscore.Hbonds>
donor molecule, donor type, donor heavy atom, donor atom, acceptor molecule, acceptor atom, score
      P1  H  7989  7998       L1    19  0.91
      P1  H  8011  8017       L1     3  0.01
      P1  H 10752 10763       L1    22  0.50

> <Gold.Chemscore.Hbond.Weighted>
-6.1026

> <Gold.Chemscore.Metal.Weighted>
-0.0000

> <Gold.Chemscore.Lipo.Weighted>
-12.1905

> <Gold.Chemscore.Internal_Hbond.Weighted>
0.0000

> <Gold.Chemscore.DEClash.Weighted>
3.1054

> <Gold.Chemscore.DEInternal.Weighted>
3.5340

> <Gold.Chemscore.Rot.Weighted>
4.0463

> <Gold.Chemscore.Internal.Correction.Weighted>
   9.000000E+99

> <Gold.Protein.RotatedTorsions>
[ 6907 6896 6895 6894 ] final  138.71 input  -60.11 | X-H torsion
[ 7974 7965 7964 7962 ] final  110.61 input  175.53 | X-H torsion
[ 8008 7997 7996 7995 ] final    7.03 input   59.86 | X-H torsion
[ 10167 10162 10161 10158 ] final  179.10 input  -65.29 | X-H torsion
[ 10718 10713 10712 10709 ] final   21.54 input   66.30 | X-H torsion
[ 10763 10752 10751 10750 ] final   96.37 input  -60.55 | X-H torsion
[ 11005 11000 10999 10996 ] final  -93.55 input  -57.11 | X-H torsion

> <Gold.Protein.ActiveResidues>
 VAL166  LYS551  ARG553  GLY616  TRP617  ASP618  TYR619  PRO620  LYS621  CYS622 
 ASP623  PHE694  ASN695  SER759  ASP760  ASP761  ALA762  ILE779  LEU786  VAL792 
 PHE793  MET794  SER795  GLU796  ALA797  LYS798  CYS799  TRP800  GLU811  SER814 

> <Gold.Protein.RotatedAtoms>
  152.2634  133.5317  159.5394 H   0  0  0  0  0  0  0  0  0  0  0  0  # atno 6907 bound_to 6896
  150.7133  134.0798  159.3903 H   0  0  0  0  0  0  0  0  0  0  0  0  # atno 6908 bound_to 6896
  151.8715  135.0487  160.0530 H   0  0  0  0  0  0  0  0  0  0  0  0  # atno 6909 bound_to 6896
  145.2528  139.2733  143.4058 H   0  0  0  0  0  0  0  0  0  0  0  0  # atno 7974 bound_to 7965
  154.7486  140.2762  155.6312 H   0  0  0  0  0  0  0  0  0  0  0  0  # atno 8008 bound_to 7997
  156.2890  140.2683  156.2159 H   0  0  0  0  0  0  0  0  0  0  0  0  # atno 8009 bound_to 7997
  155.0166  140.0372  157.2410 H   0  0  0  0  0  0  0  0  0  0  0  0  # atno 8010 bound_to 7997
  139.5322  144.2601  152.0714 H   0  0  0  0  0  0  0  0  0  0  0  0  # atno 10167 bound_to 10162
  157.1399  130.6628  149.5978 H   0  0  0  0  0  0  0  0  0  0  0  0  # atno 10718 bound_to 10713
  153.2641  135.4221  155.0923 H   0  0  0  0  0  0  0  0  0  0  0  0  # atno 10763 bound_to 10752
  154.8431  135.3456  154.6336 H   0  0  0  0  0  0  0  0  0  0  0  0  # atno 10764 bound_to 10752
  153.6756  135.7041  153.5191 H   0  0  0  0  0  0  0  0  0  0  0  0  # atno 10765 bound_to 10752
  141.1494  133.7895  157.0175 H   0  0  0  0  0  0  0  0  0  0  0  0  # atno 11005 bound_to 11000
  146.3298  140.2923  142.8616 LP  0  0  0  0  0  0  0  0  0  0  0  0  # atno 17320 bound_to 7965
  144.9488  140.8156  143.5585 LP  0  0  0  0  0  0  0  0  0  0  0  0  # atno 17321 bound_to 7965
  140.2066  144.4605  150.6405 LP  0  0  0  0  0  0  0  0  0  0  0  0  # atno 17342 bound_to 10162
  140.6507  143.2224  151.6084 LP  0  0  0  0  0  0  0  0  0  0  0  0  # atno 17343 bound_to 10162
  155.9791  130.4781  150.6693 LP  0  0  0  0  0  0  0  0  0  0  0  0  # atno 17370 bound_to 10713
  157.4316  131.0850  151.1032 LP  0  0  0  0  0  0  0  0  0  0  0  0  # atno 17371 bound_to 10713
  140.0837  134.9633  157.1666 LP  0  0  0  0  0  0  0  0  0  0  0  0  # atno 17394 bound_to 11000
  140.3541  134.2566  155.7195 LP  0  0  0  0  0  0  0  0  0  0  0  0  # atno 17395 bound_to 11000

$$$$
