AV-unprocessed.smi:1550|AV-procd|sdf|6227|dock1
  -GOLD-   22720 6403D 1   1.00000     0.00000
 Structure written by MMmdl.
 43 44  0  0  0  0  0  0  0  0  1 V2000
  147.8392  138.9369  157.4219 C   0  0  0  0  0  0  0  0  0  0  0  0
  149.2176  138.3937  157.8268 C   0  0  1  0  0  0  0  0  0  0  0  0
  149.8374  139.3749  158.6535 O   0  0  0  0  0  0  0  0  0  0  0  0
  149.9942  140.6607  158.0639 C   0  0  0  0  0  0  0  0  0  0  0  0
  151.0371  141.4454  158.8692 C   0  0  1  0  0  0  0  0  0  0  0  0
  152.4382  140.8115  158.7670 C   0  0  0  0  0  0  0  0  0  0  0  0
  153.4699  141.6634  159.5152 C   0  0  0  0  0  0  0  0  0  0  0  0
  153.3998  143.1129  159.0232 C   0  0  0  0  0  0  0  0  0  0  0  0
  151.9548  143.6317  159.0930 C   0  0  0  0  0  0  0  0  0  0  0  0
  151.0949  142.7727  158.3504 O   0  0  0  0  0  0  0  0  0  0  0  0
  149.0933  137.0631  158.5864 C   0  0  0  0  0  0  0  0  0  0  0  0
  149.7043  136.0744  158.1803 O   0  0  0  0  0  0  0  0  0  0  0  0
  148.2975  137.0867  159.6737 N   0  0  0  0  0  0  0  0  0  0  0  0
  147.9303  136.0292  160.5219 C   0  0  0  0  0  0  0  0  0  0  0  0
  147.9829  134.7147  160.1819 C   0  0  0  0  0  0  0  0  0  0  0  0
  147.5692  133.6650  161.0995 C   0  0  0  0  0  0  0  0  0  0  0  0
  147.6299  132.1900  160.7348 C   0  0  0  0  0  0  0  0  0  0  0  0
  148.4977  131.5567  161.5232 F   0  0  0  0  0  0  0  0  0  0  0  0
  146.4343  131.6252  160.9032 F   0  0  0  0  0  0  0  0  0  0  0  0
  148.0042  132.0092  159.4680 F   0  0  0  0  0  0  0  0  0  0  0  0
  147.1191  134.0628  162.3030 C   0  0  0  0  0  0  0  0  0  0  0  0
  147.0517  135.4126  162.6556 N   0  0  0  0  0  0  0  0  0  0  0  0
  147.4229  136.4289  161.8448 C   0  0  0  0  0  0  0  0  0  0  0  0
  147.3285  137.5948  162.2267 O   0  0  0  0  0  0  0  0  0  0  0  0
  146.6993  135.6295  163.5769 H   0  0  0  0  0  0  0  0  0  0  0  0
  147.3032  138.2264  156.7917 H   0  0  0  0  0  0  0  0  0  0  0  0
  147.9409  139.8649  156.8586 H   0  0  0  0  0  0  0  0  0  0  0  0
  147.2180  139.1489  158.2931 H   0  0  0  0  0  0  0  0  0  0  0  0
  149.8111  138.2550  156.9207 H   0  0  0  0  0  0  0  0  0  0  0  0
  150.3373  140.5617  157.0334 H   0  0  0  0  0  0  0  0  0  0  0  0
  149.0435  141.1957  158.0421 H   0  0  0  0  0  0  0  0  0  0  0  0
  150.7278  141.4716  159.9159 H   0  0  0  0  0  0  0  0  0  0  0  0
  152.4275  139.7994  159.1730 H   0  0  0  0  0  0  0  0  0  0  0  0
  152.7275  140.7250  157.7187 H   0  0  0  0  0  0  0  0  0  0  0  0
  153.2657  141.6288  160.5861 H   0  0  0  0  0  0  0  0  0  0  0  0
  154.4728  141.2604  159.3730 H   0  0  0  0  0  0  0  0  0  0  0  0
  154.0581  143.7462  159.6185 H   0  0  0  0  0  0  0  0  0  0  0  0
  153.7569  143.1688  157.9942 H   0  0  0  0  0  0  0  0  0  0  0  0
  151.6142  143.6987  160.1274 H   0  0  0  0  0  0  0  0  0  0  0  0
  151.8967  144.6362  158.6738 H   0  0  0  0  0  0  0  0  0  0  0  0
  147.9353  137.9900  159.9441 H   0  0  0  0  0  0  0  0  0  0  0  0
  148.3157  134.4161  159.2012 H   0  0  0  0  0  0  0  0  0  0  0  0
  146.7804  133.3875  163.0749 H   0  0  0  0  0  0  0  0  0  0  0  0
  1  2  1  0  0  0  0
  1 26  1  0  0  0  0
  1 27  1  0  0  0  0
  1 28  1  0  0  0  0
  2  3  1  0  0  0  0
  2 11  1  0  0  0  0
  2 29  1  0  0  0  0
  3  4  1  0  0  0  0
  4  5  1  0  0  0  0
  4 30  1  0  0  0  0
  4 31  1  0  0  0  0
  5 10  1  0  0  0  0
  5  6  1  0  0  0  0
  5 32  1  0  0  0  0
  6  7  1  0  0  0  0
  6 33  1  0  0  0  0
  6 34  1  0  0  0  0
  7  8  1  0  0  0  0
  7 35  1  0  0  0  0
  7 36  1  0  0  0  0
  8  9  1  0  0  0  0
  8 37  1  0  0  0  0
  8 38  1  0  0  0  0
  9 10  1  0  0  0  0
  9 39  1  0  0  0  0
  9 40  1  0  0  0  0
 11 12  2  0  0  0  0
 11 13  1  0  0  0  0
 13 14  1  0  0  0  0
 13 41  1  0  0  0  0
 14 23  1  0  0  0  0
 14 15  2  0  0  0  0
 15 16  1  0  0  0  0
 15 42  1  0  0  0  0
 16 17  1  0  0  0  0
 16 21  2  0  0  0  0
 17 18  1  0  0  0  0
 17 19  1  0  0  0  0
 17 20  1  0  0  0  0
 21 22  1  0  0  0  0
 21 43  1  0  0  0  0
 22 25  1  0  0  0  0
 22 23  1  0  0  0  0
 23 24  2  0  0  0  0
M  END
> <s_m_source_file>
AV-unprocessed.smi

> <i_m_source_file_index>
1550

> <i_lp_mmshare_version>
43012

> <i_f3d_flags>
0

> <s_epik_input>
TzFbQ0gyXVtDSDJdW0NIMl1bQ0gyXVtDQEhdMVtDSDJdT1tDQEBIXShbQ0gzXSlDKD1PKVtOSF1jMltjSF1jKEMoRikoRilGKVtjSF1bbkhdYzI9Tw==

> <s_epik_cmdline>
J2VwaWtfcHl0aG9uJywgJy1waCcsICc3LjAnLCAnLXRuJywgJzgnLCAnLW1hJywgJzIwMCcsICctbWV0YWxfYmluZGluZycsICctaW1hZScsICc8aW5maWxlLm1hZT4nLCAnLW9tYWUnLCAnPG91dGZpbGUubWFlPic=

> <r_lp_tautomer_probability>
0.999

> <r_epik_Ionization_Penalty>
0.00891333

> <r_epik_Ionization_Penalty_Charging>
0.00891323

> <r_epik_Ionization_Penalty_Neutral>
1.00146e-07

> <r_epik_State_Penalty>
0.00674197

> <r_epik_Charging_Adjusted_Penalty>
0.0156552

> <i_epik_Tot_Q>
0

> <i_epik_Tot_abs_Q>
0

> <r_epik_Metal_State_Penalty>
0.321024

> <b_epik_Metal_Only>
0

> <s_lp_Force_Field>
OPLS_2005

> <r_lp_Energy>
24.886

> <b_lp_Chiralities_Consistent>
1

> <s_lp_Variant>
AV-unprocessed.smi:1550-4

> <Gold.Version>
5.8.1

> <Gold.Id.Protein>
6NUR|6NUR_protein|mol2

> <Gold.PLP.Fitness>
47.6883

> <Gold.PLP.PLP>
-41.3200

> <Gold.PLP.part.hbond>
-3.3047

> <Gold.PLP.part.metal>
0.0000

> <Gold.PLP.part.buried>
-5.2036

> <Gold.PLP.part.nonpolar>
-33.3085

> <Gold.PLP.part.repulsive>
0.3934

> <Gold.PLP.ligand.clash>
0.0000

> <Gold.PLP.ligand.torsion>
0.2877

> <Gold.PLP.Chemscore.Hbond>
2.2800

> <Gold.PLP.Chemscore.CHOScore>
0.0000

> <Gold.PLP.Chemscore.Metal>
0.0000

> <Gold.Chemscore.Hbonds>
donor molecule, donor type, donor heavy atom, donor atom, acceptor molecule, acceptor atom, score
      P1  H  6896  6908       L1    12  0.50
      P1  H  6931  6943       L1    24  0.64
      P1  H  6934  6947       L1    24  0.53

> <Gold.PLP.Chemscore.Internal.Correction>
0.1037

> <Gold.Rescore>
     Score         DG    S(hbond)    S(metal)    S(lipo)     H(rot)  DE(clash)    DE(int)     intcor
     15.64     -17.21       1.93        0.00      85.78       1.86       0.00       1.56       ----

> <Gold.Chemscore.Fitness>
15.6384

> <Gold.Chemscore.DG>
-17.2059

> <Gold.Chemscore.ZeroCoef>
-5.4800

> <Gold.Chemscore.Hbond>
1.9294

> <Gold.Chemscore.Metal>
0.0000

> <Gold.Chemscore.Lipo>
85.7762

> <Gold.Chemscore.Internal_Hbond>
0.0000

> <Gold.Chemscore.DEClash>
0.0044

> <Gold.Chemscore.DEInternal>
1.5630

> <Gold.Chemscore.Rot>
1.8571

> <Gold.Chemscore.Internal.Correction>
   9.000000E+99

> <Gold.Chemscore.Hbonds>
donor molecule, donor type, donor heavy atom, donor atom, acceptor molecule, acceptor atom, score
      P1  H  6896  6908       L1    12  0.48
      P1  H  6931  6943       L1    24  0.25
      P1  H  6934  6947       L1    24  0.53

> <Gold.Chemscore.Hbond.Weighted>
-6.4441

> <Gold.Chemscore.Metal.Weighted>
-0.0000

> <Gold.Chemscore.Lipo.Weighted>
-10.0358

> <Gold.Chemscore.Internal_Hbond.Weighted>
0.0000

> <Gold.Chemscore.DEClash.Weighted>
0.0044

> <Gold.Chemscore.DEInternal.Weighted>
1.5630

> <Gold.Chemscore.Rot.Weighted>
4.7541

> <Gold.Chemscore.Internal.Correction.Weighted>
   9.000000E+99

> <Gold.Protein.RotatedTorsions>
[ 6907 6896 6895 6894 ] final  172.60 input  -60.11 | X-H torsion
[ 7974 7965 7964 7962 ] final  -16.49 input  175.53 | X-H torsion
[ 8008 7997 7996 7995 ] final  -39.90 input   59.86 | X-H torsion
[ 10167 10162 10161 10158 ] final -131.26 input  -65.29 | X-H torsion
[ 10718 10713 10712 10709 ] final   33.02 input   66.30 | X-H torsion
[ 10763 10752 10751 10750 ] final  174.74 input  -60.55 | X-H torsion
[ 11005 11000 10999 10996 ] final   16.32 input  -57.11 | X-H torsion

> <Gold.Protein.ActiveResidues>
 VAL166  LYS551  ARG553  GLY616  TRP617  ASP618  TYR619  PRO620  LYS621  CYS622 
 ASP623  PHE694  ASN695  SER759  ASP760  ASP761  ALA762  ILE779  LEU786  VAL792 
 PHE793  MET794  SER795  GLU796  ALA797  LYS798  CYS799  TRP800  GLU811  SER814 

> <Gold.Protein.RotatedAtoms>
  151.7817  133.3350  159.3473 H   0  0  0  0  0  0  0  0  0  0  0  0  # atno 6907 bound_to 6896
  150.7424  134.5925  159.6004 H   0  0  0  0  0  0  0  0  0  0  0  0  # atno 6908 bound_to 6896
  152.3271  134.7308  160.0350 H   0  0  0  0  0  0  0  0  0  0  0  0  # atno 6909 bound_to 6896
  146.1985  140.3643  142.8432 H   0  0  0  0  0  0  0  0  0  0  0  0  # atno 7974 bound_to 7965
  154.4018  140.1539  156.2939 H   0  0  0  0  0  0  0  0  0  0  0  0  # atno 8008 bound_to 7997
  155.8761  140.3446  155.5833 H   0  0  0  0  0  0  0  0  0  0  0  0  # atno 8009 bound_to 7997
  155.7720  140.0831  157.2093 H   0  0  0  0  0  0  0  0  0  0  0  0  # atno 8010 bound_to 7997
  139.9208  143.6385  152.2554 H   0  0  0  0  0  0  0  0  0  0  0  0  # atno 10167 bound_to 10162
  157.2926  130.7310  149.6620 H   0  0  0  0  0  0  0  0  0  0  0  0  # atno 10718 bound_to 10713
  154.4581  135.2767  155.1733 H   0  0  0  0  0  0  0  0  0  0  0  0  # atno 10763 bound_to 10752
  154.3532  135.6145  153.5657 H   0  0  0  0  0  0  0  0  0  0  0  0  # atno 10764 bound_to 10752
  152.9852  135.5816  154.4938 H   0  0  0  0  0  0  0  0  0  0  0  0  # atno 10765 bound_to 10752
  140.4484  134.1250  155.7699 H   0  0  0  0  0  0  0  0  0  0  0  0  # atno 11005 bound_to 11000
  144.8632  140.7169  143.6094 LP  0  0  0  0  0  0  0  0  0  0  0  0  # atno 17320 bound_to 7965
  145.3563  139.1693  143.4407 LP  0  0  0  0  0  0  0  0  0  0  0  0  # atno 17321 bound_to 7965
  139.6863  144.7651  151.1518 LP  0  0  0  0  0  0  0  0  0  0  0  0  # atno 17342 bound_to 10162
  140.7662  143.5652  150.9055 LP  0  0  0  0  0  0  0  0  0  0  0  0  # atno 17343 bound_to 10162
  155.9668  130.4304  150.4875 LP  0  0  0  0  0  0  0  0  0  0  0  0  # atno 17370 bound_to 10713
  157.2840  131.0613  151.2178 LP  0  0  0  0  0  0  0  0  0  0  0  0  # atno 17371 bound_to 10713
  141.1675  133.8674  157.1671 LP  0  0  0  0  0  0  0  0  0  0  0  0  # atno 17394 bound_to 11000
  140.0023  135.0023  157.0217 LP  0  0  0  0  0  0  0  0  0  0  0  0  # atno 17395 bound_to 11000

$$$$
