AV-unprocessed.smi:218|AV-procd|sdf|1670|dock5
  -GOLD-   2262020 83D 1   1.00000     0.00000
 Structure written by MMmdl.
 54 57  0  0  0  0  0  0  0  0  1 V2000
  152.0510  143.4882  158.1949 C   0  0  0  0  0  0  0  0  0  0  0  0
  151.1344  142.5744  157.3725 C   0  0  0  0  0  0  0  0  0  0  0  0
  149.7082  142.5522  157.9488 C   0  0  0  0  0  0  0  0  0  0  0  0
  151.7089  141.2667  157.4140 O   0  0  0  0  0  0  0  0  0  0  0  0
  151.4460  140.3597  156.4055 C   0  0  0  0  0  0  0  0  0  0  0  0
  150.1197  140.2430  155.9422 C   0  0  0  0  0  0  0  0  0  0  0  0
  149.8334  139.3165  154.9184 C   0  0  0  0  0  0  0  0  0  0  0  0
  148.4204  139.1550  154.3963 C   0  0  0  0  0  0  0  0  0  0  0  0
  147.8005  137.9017  154.8045 N   0  0  0  0  0  0  0  0  0  0  0  0
  146.7300  137.4266  154.1335 C   0  0  0  0  0  0  0  0  0  0  0  0
  145.7112  138.2486  153.7686 N   0  0  0  0  0  0  0  0  0  0  0  0
  144.6634  137.7572  153.1003 C   0  0  0  0  0  0  0  0  0  0  0  0
  144.4379  136.5011  152.7091 N   0  0  0  0  0  0  0  0  0  0  0  0
  145.4585  135.6719  153.0751 C   0  0  0  0  0  0  0  0  0  0  0  0
  146.6304  136.0552  153.7841 C   0  0  0  0  0  0  0  0  0  0  0  0
  147.4443  134.9472  153.9817 N   0  0  0  0  0  0  0  0  0  0  0  0
  146.7852  133.9672  153.4230 C   0  0  0  0  0  0  0  0  0  0  0  0
  145.5775  134.3140  152.8589 N   0  0  0  0  0  0  0  0  0  0  0  0
  144.6064  133.4236  152.1467 C   0  0  2  0  0  0  0  0  0  0  0  0
  145.0371  132.1119  152.3240 O   0  0  0  0  0  0  0  0  0  0  0  0
  144.8036  131.3720  151.1348 C   0  0  2  0  0  0  0  0  0  0  0  0
  145.7442  130.1584  151.0868 C   0  0  0  0  0  0  0  0  0  0  0  0
  146.8371  130.3570  151.9582 O   0  0  0  0  0  0  0  0  0  0  0  0
  145.0753  132.3999  150.0322 C   0  0  1  0  0  0  0  0  0  0  0  0
  144.3758  132.0577  148.8524 O   0  0  0  0  0  0  0  0  0  0  0  0
  144.5289  133.6927  150.6261 C   0  0  2  0  0  0  0  0  0  0  0  0
  145.2758  134.8120  150.1830 O   0  0  0  0  0  0  0  0  0  0  0  0
  150.8872  138.5393  154.3976 C   0  0  0  0  0  0  0  0  0  0  0  0
  152.1801  138.7267  154.9240 C   0  0  0  0  0  0  0  0  0  0  0  0
  152.4603  139.6116  155.9040 N   0  0  0  0  0  0  0  0  0  0  0  0
  143.6542  133.5855  152.6535 H   0  0  0  0  0  0  0  0  0  0  0  0
  143.7554  131.0656  151.1068 H   0  0  0  0  0  0  0  0  0  0  0  0
  146.1463  132.4767  149.8377 H   0  0  0  0  0  0  0  0  0  0  0  0
  143.4772  133.8288  150.3689 H   0  0  0  0  0  0  0  0  0  0  0  0
  151.6816  144.5141  158.2004 H   0  0  0  0  0  0  0  0  0  0  0  0
  153.0598  143.5019  157.7815 H   0  0  0  0  0  0  0  0  0  0  0  0
  152.1206  143.1519  159.2299 H   0  0  0  0  0  0  0  0  0  0  0  0
  151.1194  142.9658  156.3542 H   0  0  0  0  0  0  0  0  0  0  0  0
  149.2784  143.5541  157.9645 H   0  0  0  0  0  0  0  0  0  0  0  0
  149.7036  142.1720  158.9706 H   0  0  0  0  0  0  0  0  0  0  0  0
  149.0427  141.9220  157.3595 H   0  0  0  0  0  0  0  0  0  0  0  0
  149.3369  140.8520  156.3701 H   0  0  0  0  0  0  0  0  0  0  0  0
  147.8070  139.9881  154.7419 H   0  0  0  0  0  0  0  0  0  0  0  0
  148.4534  139.2082  153.3074 H   0  0  0  0  0  0  0  0  0  0  0  0
  148.2098  137.4406  155.6045 H   0  0  0  0  0  0  0  0  0  0  0  0
  143.8958  138.4721  152.8429 H   0  0  0  0  0  0  0  0  0  0  0  0
  147.1643  132.9558  153.4100 H   0  0  0  0  0  0  0  0  0  0  0  0
  145.2195  129.2631  151.4214 H   0  0  0  0  0  0  0  0  0  0  0  0
  146.0943  129.9684  150.0717 H   0  0  0  0  0  0  0  0  0  0  0  0
  147.5434  130.7512  151.4693 H   0  0  0  0  0  0  0  0  0  0  0  0
  144.9987  131.9991  148.1439 H   0  0  0  0  0  0  0  0  0  0  0  0
  145.3319  134.7764  149.2397 H   0  0  0  0  0  0  0  0  0  0  0  0
  150.7138  137.8168  153.6138 H   0  0  0  0  0  0  0  0  0  0  0  0
  153.0115  138.1492  154.5480 H   0  0  0  0  0  0  0  0  0  0  0  0
  1  2  1  0  0  0  0
  1 35  1  0  0  0  0
  1 36  1  0  0  0  0
  1 37  1  0  0  0  0
  2  3  1  0  0  0  0
  2  4  1  0  0  0  0
  2 38  1  0  0  0  0
  3 39  1  0  0  0  0
  3 40  1  0  0  0  0
  3 41  1  0  0  0  0
  4  5  1  0  0  0  0
  5 30  1  0  0  0  0
  5  6  2  0  0  0  0
  6  7  1  0  0  0  0
  6 42  1  0  0  0  0
  7  8  1  0  0  0  0
  7 28  2  0  0  0  0
  8  9  1  0  0  0  0
  8 43  1  0  0  0  0
  8 44  1  0  0  0  0
  9 10  1  0  0  0  0
  9 45  1  0  0  0  0
 10 15  1  0  0  0  0
 10 11  2  0  0  0  0
 11 12  1  0  0  0  0
 12 13  2  0  0  0  0
 12 46  1  0  0  0  0
 13 14  1  0  0  0  0
 14 18  1  0  0  0  0
 14 15  2  0  0  0  0
 15 16  1  0  0  0  0
 16 17  2  0  0  0  0
 17 18  1  0  0  0  0
 17 47  1  0  0  0  0
 18 19  1  0  0  0  0
 19 31  1  0  0  0  0
 19 26  1  0  0  0  0
 19 20  1  0  0  0  0
 20 21  1  0  0  0  0
 21 32  1  0  0  0  0
 21 22  1  0  0  0  0
 21 24  1  0  0  0  0
 22 23  1  0  0  0  0
 22 48  1  0  0  0  0
 22 49  1  0  0  0  0
 23 50  1  0  0  0  0
 24 33  1  0  0  0  0
 24 25  1  0  0  0  0
 24 26  1  0  0  0  0
 25 51  1  0  0  0  0
 26 34  1  0  0  0  0
 26 27  1  0  0  0  0
 27 52  1  0  0  0  0
 28 29  1  0  0  0  0
 28 53  1  0  0  0  0
 29 30  2  0  0  0  0
 29 54  1  0  0  0  0
M  END
> <s_m_source_file>
AV-unprocessed.smi

> <i_m_source_file_index>
218

> <i_lp_mmshare_version>
43012

> <i_f3d_flags>
0

> <s_epik_input>
W0NIM11bQ0hdKFtDSDNdKU9jMVtjSF1jKFtjSF1bY0hdbjEpW0NIMl1bTkhdYyhuW2NIXW4yKWMoYzIzKW5bY0hdbjNbQ0BASF00T1tDQEhdKFtDSDJdW09IXSlbQ0BASF0oW09IXSlbQ0BIXTRbT0hd

> <s_epik_cmdline>
J2VwaWtfcHl0aG9uJywgJy1waCcsICc3LjAnLCAnLXRuJywgJzgnLCAnLW1hJywgJzIwMCcsICctbWV0YWxfYmluZGluZycsICctaW1hZScsICc8aW5maWxlLm1hZT4nLCAnLW9tYWUnLCAnPG91dGZpbGUubWFlPic=

> <r_lp_tautomer_probability>
1

> <r_epik_Ionization_Penalty>
0.00457014

> <r_epik_Ionization_Penalty_Charging>
0

> <r_epik_Ionization_Penalty_Neutral>
0.00457014

> <r_epik_State_Penalty>
-0

> <r_epik_Charging_Adjusted_Penalty>
0

> <i_epik_Tot_Q>
0

> <i_epik_Tot_abs_Q>
0

> <r_epik_Metal_State_Penalty>
-0

> <b_epik_Metal_Only>
0

> <s_epik_Chemistry_Notes>
This compound contains an acetal/aminal-like group ( X-CH(R)-Y where X, Y are N, S, or O) that may be acid/base labile, releasing an aldehyde.

> <s_lp_Force_Field>
OPLS_2005

> <r_lp_Energy>
38.9245

> <b_lp_Chiralities_Consistent>
1

> <s_lp_Variant>
AV-unprocessed.smi:218-9

> <Gold.Version>
5.8.1

> <Gold.Id.Protein>
6NUR|6NUR_protein|mol2

> <Gold.PLP.Fitness>
49.6070

> <Gold.PLP.PLP>
-40.1342

> <Gold.PLP.part.hbond>
-4.0000

> <Gold.PLP.part.metal>
0.0000

> <Gold.PLP.part.buried>
-6.1591

> <Gold.PLP.part.nonpolar>
-31.8686

> <Gold.PLP.part.repulsive>
2.2615

> <Gold.PLP.ligand.clash>
0.0000

> <Gold.PLP.ligand.torsion>
1.7728

> <Gold.PLP.Chemscore.Hbond>
3.2257

> <Gold.PLP.Chemscore.CHOScore>
1.0000

> <Gold.PLP.Chemscore.Metal>
0.0000

> <Gold.Chemscore.Hbonds>
donor molecule, donor type, donor heavy atom, donor atom, acceptor molecule, acceptor atom, score
      L1  H    23    50       P1 10747  1.00
      L1  H    27    52       P1  7921  1.00
      P1  H  7997  8010       L1    30  0.99
      P1  H 10785 10796       L1    25  0.23
      L1  C    12    46       P1 10175  0.96

> <Gold.PLP.Chemscore.Internal.Correction>
0.3413

> <Gold.Rescore>
     Score         DG    S(hbond)    S(metal)    S(lipo)     H(rot)  DE(clash)    DE(int)     intcor
     10.77     -14.14       2.96        0.00      96.70       4.90       0.94       2.43       ----

> <Gold.Chemscore.Fitness>
10.7700

> <Gold.Chemscore.DG>
-14.1371

> <Gold.Chemscore.ZeroCoef>
-5.4800

> <Gold.Chemscore.Hbond>
2.9625

> <Gold.Chemscore.Metal>
0.0000

> <Gold.Chemscore.Lipo>
96.7008

> <Gold.Chemscore.Internal_Hbond>
0.0000

> <Gold.Chemscore.DEClash>
0.9356

> <Gold.Chemscore.DEInternal>
2.4315

> <Gold.Chemscore.Rot>
4.9029

> <Gold.Chemscore.Internal.Correction>
   9.000000E+99

> <Gold.Chemscore.Hbonds>
donor molecule, donor type, donor heavy atom, donor atom, acceptor molecule, acceptor atom, score
      L1  H    23    50       P1 10747  0.99
      L1  H    27    52       P1  7921  0.98
      P1  H  7997  8010       L1    30  0.86
      P1  H 10785 10796       L1    25  0.10

> <Gold.Chemscore.Hbond.Weighted>
-9.8946

> <Gold.Chemscore.Metal.Weighted>
-0.0000

> <Gold.Chemscore.Lipo.Weighted>
-11.3140

> <Gold.Chemscore.Internal_Hbond.Weighted>
0.0000

> <Gold.Chemscore.DEClash.Weighted>
0.9356

> <Gold.Chemscore.DEInternal.Weighted>
2.4315

> <Gold.Chemscore.Rot.Weighted>
12.5515

> <Gold.Chemscore.Internal.Correction.Weighted>
   9.000000E+99

> <Gold.Protein.RotatedTorsions>
[ 6907 6896 6895 6894 ] final  124.60 input  -60.11 | X-H torsion
[ 7974 7965 7964 7962 ] final -156.51 input  175.53 | X-H torsion
[ 8008 7997 7996 7995 ] final   67.57 input   59.86 | X-H torsion
[ 10167 10162 10161 10158 ] final   -6.14 input  -65.29 | X-H torsion
[ 10718 10713 10712 10709 ] final   58.98 input   66.30 | X-H torsion
[ 10763 10752 10751 10750 ] final  -56.15 input  -60.55 | X-H torsion
[ 11005 11000 10999 10996 ] final   94.39 input  -57.11 | X-H torsion

> <Gold.Protein.ActiveResidues>
 VAL166  LYS551  ARG553  GLY616  TRP617  ASP618  TYR619  PRO620  LYS621  CYS622 
 ASP623  PHE694  ASN695  SER759  ASP760  ASP761  ALA762  ILE779  LEU786  VAL792 
 PHE793  MET794  SER795  GLU796  ALA797  LYS798  CYS799  TRP800  GLU811  SER814 

> <Gold.Protein.RotatedAtoms>
  152.4064  133.6896  159.6359 H   0  0  0  0  0  0  0  0  0  0  0  0  # atno 6907 bound_to 6896
  150.7949  133.8701  159.3265 H   0  0  0  0  0  0  0  0  0  0  0  0  # atno 6908 bound_to 6896
  151.6454  135.1009  160.0201 H   0  0  0  0  0  0  0  0  0  0  0  0  # atno 6909 bound_to 6896
  144.7590  140.4099  143.5991 H   0  0  0  0  0  0  0  0  0  0  0  0  # atno 7974 bound_to 7965
  155.6949  140.3496  155.4909 H   0  0  0  0  0  0  0  0  0  0  0  0  # atno 8008 bound_to 7997
  155.9491  140.1116  157.1014 H   0  0  0  0  0  0  0  0  0  0  0  0  # atno 8009 bound_to 7997
  154.4118  140.1197  156.5015 H   0  0  0  0  0  0  0  0  0  0  0  0  # atno 8010 bound_to 7997
  140.6987  143.6228  150.8596 H   0  0  0  0  0  0  0  0  0  0  0  0  # atno 10167 bound_to 10162
  157.5640  130.8857  149.9157 H   0  0  0  0  0  0  0  0  0  0  0  0  # atno 10718 bound_to 10713
  154.2021  135.6409  153.5090 H   0  0  0  0  0  0  0  0  0  0  0  0  # atno 10763 bound_to 10752
  153.0009  135.5454  154.6305 H   0  0  0  0  0  0  0  0  0  0  0  0  # atno 10764 bound_to 10752
  154.5720  135.2917  155.0791 H   0  0  0  0  0  0  0  0  0  0  0  0  # atno 10765 bound_to 10752
  139.8799  134.8842  156.3857 H   0  0  0  0  0  0  0  0  0  0  0  0  # atno 11005 bound_to 11000
  145.6684  139.1594  143.2769 LP  0  0  0  0  0  0  0  0  0  0  0  0  # atno 17320 bound_to 7965
  146.1632  140.6757  142.9268 LP  0  0  0  0  0  0  0  0  0  0  0  0  # atno 17321 bound_to 7965
  139.9948  143.5807  152.2897 LP  0  0  0  0  0  0  0  0  0  0  0  0  # atno 17342 bound_to 10162
  139.6476  144.7659  151.2213 LP  0  0  0  0  0  0  0  0  0  0  0  0  # atno 17343 bound_to 10162
  156.0690  130.3688  150.0817 LP  0  0  0  0  0  0  0  0  0  0  0  0  # atno 17370 bound_to 10713
  156.8978  130.9610  151.3580 LP  0  0  0  0  0  0  0  0  0  0  0  0  # atno 17371 bound_to 10713
  140.9368  133.7542  156.0095 LP  0  0  0  0  0  0  0  0  0  0  0  0  # atno 17394 bound_to 11000
  140.8266  134.3227  157.5363 LP  0  0  0  0  0  0  0  0  0  0  0  0  # atno 17395 bound_to 11000

$$$$
