AV-unprocessed.smi:344|AV-procd|sdf|2389|dock7
  -GOLD-   2262022313D 1   1.00000     0.00000
 Structure written by MMmdl.
 38 39  0  0  0  0  0  0  0  0  1 V2000
  156.1643  134.7681  157.9716 N   0  0  0  0  0  0  0  0  0  0  0  0
  155.3817  134.5946  159.0401 C   0  0  0  0  0  0  0  0  0  0  0  0
  154.1649  134.4482  158.9426 O   0  0  0  0  0  0  0  0  0  0  0  0
  156.0623  134.5866  160.4118 C   0  0  0  0  0  0  0  0  0  0  0  0
  155.5058  135.6750  161.2845 C   0  0  0  0  0  0  0  0  0  0  0  0
  155.0985  135.5585  162.5922 C   0  0  0  0  0  0  0  0  0  0  0  0
  154.5175  137.0709  163.2351 S   0  0  0  0  0  0  0  0  0  0  0  0
  154.8623  137.8182  161.6834 C   0  0  0  0  0  0  0  0  0  0  0  0
  154.6194  139.1961  161.4433 N   0  0  0  0  0  0  0  0  0  0  0  0
  154.7106  139.8710  160.2822 C   0  0  0  0  0  0  0  0  0  0  0  0
  155.0230  139.3644  159.2037 O   0  0  0  0  0  0  0  0  0  0  0  0
  154.3927  141.3679  160.3757 C   0  0  0  0  0  0  0  0  0  0  0  0
  153.2626  141.8272  159.4332 C   0  0  0  0  0  0  0  0  0  0  0  0
  152.9474  143.3287  159.5558 C   0  0  0  0  0  0  0  0  0  0  0  0
  152.3432  143.7461  160.9011 C   0  0  0  0  0  0  0  0  0  0  0  0
  151.6096  145.0660  160.6307 C   0  0  0  0  0  0  0  0  0  0  0  0
  151.4136  145.1510  159.1099 C   0  0  0  0  0  0  0  0  0  0  0  0
  151.9089  143.8174  158.5442 C   0  0  0  0  0  0  0  0  0  0  0  0
  155.3704  136.9727  160.7800 N   0  0  0  0  0  0  0  0  0  0  0  0
  155.7539  134.7832  157.0490 H   0  0  0  0  0  0  0  0  0  0  0  0
  157.1600  134.8870  158.0878 H   0  0  0  0  0  0  0  0  0  0  0  0
  155.9329  133.6147  160.8902 H   0  0  0  0  0  0  0  0  0  0  0  0
  157.1355  134.7157  160.2664 H   0  0  0  0  0  0  0  0  0  0  0  0
  155.1019  134.6748  163.2128 H   0  0  0  0  0  0  0  0  0  0  0  0
  154.3460  139.7351  162.2518 H   0  0  0  0  0  0  0  0  0  0  0  0
  154.1277  141.5974  161.4085 H   0  0  0  0  0  0  0  0  0  0  0  0
  155.3043  141.9243  160.1544 H   0  0  0  0  0  0  0  0  0  0  0  0
  153.5465  141.6172  158.4009 H   0  0  0  0  0  0  0  0  0  0  0  0
  152.3595  141.2459  159.6257 H   0  0  0  0  0  0  0  0  0  0  0  0
  153.8644  143.8989  159.3979 H   0  0  0  0  0  0  0  0  0  0  0  0
  151.6247  142.9959  161.2342 H   0  0  0  0  0  0  0  0  0  0  0  0
  153.0969  143.8475  161.6826 H   0  0  0  0  0  0  0  0  0  0  0  0
  150.6570  145.0973  161.1603 H   0  0  0  0  0  0  0  0  0  0  0  0
  152.2025  145.9130  160.9776 H   0  0  0  0  0  0  0  0  0  0  0  0
  150.3759  145.3461  158.8380 H   0  0  0  0  0  0  0  0  0  0  0  0
  152.0154  145.9677  158.7090 H   0  0  0  0  0  0  0  0  0  0  0  0
  152.3184  143.9184  157.5386 H   0  0  0  0  0  0  0  0  0  0  0  0
  151.0774  143.1128  158.4937 H   0  0  0  0  0  0  0  0  0  0  0  0
  1  2  1  0  0  0  0
  1 20  1  0  0  0  0
  1 21  1  0  0  0  0
  2  3  2  0  0  0  0
  2  4  1  0  0  0  0
  4  5  1  0  0  0  0
  4 22  1  0  0  0  0
  4 23  1  0  0  0  0
  5 19  1  0  0  0  0
  5  6  2  0  0  0  0
  6  7  1  0  0  0  0
  6 24  1  0  0  0  0
  7  8  1  0  0  0  0
  8  9  1  0  0  0  0
  8 19  2  0  0  0  0
  9 10  1  0  0  0  0
  9 25  1  0  0  0  0
 10 11  2  0  0  0  0
 10 12  1  0  0  0  0
 12 13  1  0  0  0  0
 12 26  1  0  0  0  0
 12 27  1  0  0  0  0
 13 14  1  0  0  0  0
 13 28  1  0  0  0  0
 13 29  1  0  0  0  0
 14 18  1  0  0  0  0
 14 15  1  0  0  0  0
 14 30  1  0  0  0  0
 15 16  1  0  0  0  0
 15 31  1  0  0  0  0
 15 32  1  0  0  0  0
 16 17  1  0  0  0  0
 16 33  1  0  0  0  0
 16 34  1  0  0  0  0
 17 18  1  0  0  0  0
 17 35  1  0  0  0  0
 17 36  1  0  0  0  0
 18 37  1  0  0  0  0
 18 38  1  0  0  0  0
M  END
> <s_m_source_file>
AV-unprocessed.smi

> <i_m_source_file_index>
344

> <i_lp_mmshare_version>
43012

> <i_f3d_flags>
0

> <s_epik_input>
W05IMl1DKD1PKVtDSDJdYzFbY0hdc2MobjEpW05IXUMoPU8pW0NIMl1bQ0gyXVtDSF0yW0NIMl1bQ0gyXVtDSDJdW0NIMl0y

> <s_epik_cmdline>
J2VwaWtfcHl0aG9uJywgJy1waCcsICc3LjAnLCAnLXRuJywgJzgnLCAnLW1hJywgJzIwMCcsICctbWV0YWxfYmluZGluZycsICctaW1hZScsICc8aW5maWxlLm1hZT4nLCAnLW9tYWUnLCAnPG91dGZpbGUubWFlPic=

> <r_lp_tautomer_probability>
1

> <r_epik_Ionization_Penalty>
0.000156249

> <r_epik_Ionization_Penalty_Charging>
0

> <r_epik_Ionization_Penalty_Neutral>
0.000156249

> <r_epik_State_Penalty>
-0

> <r_epik_Charging_Adjusted_Penalty>
0

> <i_epik_Tot_Q>
0

> <i_epik_Tot_abs_Q>
0

> <r_epik_Metal_State_Penalty>
0.0972404

> <b_epik_Metal_Only>
0

> <s_lp_Force_Field>
OPLS_2005

> <r_lp_Energy>
21.4861

> <b_lp_Chiralities_Consistent>
1

> <s_lp_Variant>
AV-unprocessed.smi:344-1

> <Gold.Version>
5.8.1

> <Gold.Id.Protein>
6NUR|6NUR_protein|mol2

> <Gold.PLP.Fitness>
46.0873

> <Gold.PLP.PLP>
-40.4225

> <Gold.PLP.part.hbond>
-2.0000

> <Gold.PLP.part.metal>
0.0000

> <Gold.PLP.part.buried>
-4.2171

> <Gold.PLP.part.nonpolar>
-33.9331

> <Gold.PLP.part.repulsive>
0.0374

> <Gold.PLP.ligand.clash>
0.0000

> <Gold.PLP.ligand.torsion>
0.1840

> <Gold.PLP.Chemscore.Hbond>
2.0000

> <Gold.PLP.Chemscore.CHOScore>
0.0000

> <Gold.PLP.Chemscore.Metal>
0.0000

> <Gold.Chemscore.Hbonds>
donor molecule, donor type, donor heavy atom, donor atom, acceptor molecule, acceptor atom, score
      P1  H  6896  6908       L1     3  1.00
      P1  H  7997  8008       L1    11  1.00

> <Gold.PLP.Chemscore.Internal.Correction>
0.0328

> <Gold.Rescore>
     Score         DG    S(hbond)    S(metal)    S(lipo)     H(rot)  DE(clash)    DE(int)     intcor
     16.26     -17.67       1.96        0.00     101.54       2.44       0.00       1.41       ----

> <Gold.Chemscore.Fitness>
16.2572

> <Gold.Chemscore.DG>
-17.6691

> <Gold.Chemscore.ZeroCoef>
-5.4800

> <Gold.Chemscore.Hbond>
1.9628

> <Gold.Chemscore.Metal>
0.0000

> <Gold.Chemscore.Lipo>
101.5372

> <Gold.Chemscore.Internal_Hbond>
0.0000

> <Gold.Chemscore.DEClash>
0.0021

> <Gold.Chemscore.DEInternal>
1.4097

> <Gold.Chemscore.Rot>
2.4400

> <Gold.Chemscore.Internal.Correction>
   9.000000E+99

> <Gold.Chemscore.Hbonds>
donor molecule, donor type, donor heavy atom, donor atom, acceptor molecule, acceptor atom, score
      P1  H  6896  6908       L1     3  0.98
      P1  H  7997  8008       L1    11  0.98

> <Gold.Chemscore.Hbond.Weighted>
-6.5557

> <Gold.Chemscore.Metal.Weighted>
-0.0000

> <Gold.Chemscore.Lipo.Weighted>
-11.8798

> <Gold.Chemscore.Internal_Hbond.Weighted>
0.0000

> <Gold.Chemscore.DEClash.Weighted>
0.0021

> <Gold.Chemscore.DEInternal.Weighted>
1.4097

> <Gold.Chemscore.Rot.Weighted>
6.2465

> <Gold.Chemscore.Internal.Correction.Weighted>
   9.000000E+99

> <Gold.Protein.RotatedTorsions>
[ 6907 6896 6895 6894 ] final  -33.92 input  -60.11 | X-H torsion
[ 7974 7965 7964 7962 ] final  -86.33 input  175.53 | X-H torsion
[ 8008 7997 7996 7995 ] final -129.18 input   59.86 | X-H torsion
[ 10167 10162 10161 10158 ] final -159.50 input  -65.29 | X-H torsion
[ 10718 10713 10712 10709 ] final   31.56 input   66.30 | X-H torsion
[ 10763 10752 10751 10750 ] final   90.89 input  -60.55 | X-H torsion
[ 11005 11000 10999 10996 ] final  -85.97 input  -57.11 | X-H torsion

> <Gold.Protein.ActiveResidues>
 VAL166  LYS551  ARG553  GLY616  TRP617  ASP618  TYR619  PRO620  LYS621  CYS622 
 ASP623  PHE694  ASN695  SER759  ASP760  ASP761  ALA762  ILE779  LEU786  VAL792 
 PHE793  MET794  SER795  GLU796  ALA797  LYS798  CYS799  TRP800  GLU811  SER814 

> <Gold.Protein.RotatedAtoms>
  151.0593  134.9726  159.8251 H   0  0  0  0  0  0  0  0  0  0  0  0  # atno 6907 bound_to 6896
  152.5393  134.2437  159.8882 H   0  0  0  0  0  0  0  0  0  0  0  0  # atno 6908 bound_to 6896
  151.2457  133.4333  159.2643 H   0  0  0  0  0  0  0  0  0  0  0  0  # atno 6909 bound_to 6896
  145.4813  140.9557  143.1863 H   0  0  0  0  0  0  0  0  0  0  0  0  # atno 7974 bound_to 7965
  155.2749  140.0441  157.3010 H   0  0  0  0  0  0  0  0  0  0  0  0  # atno 8008 bound_to 7997
  154.5631  140.2352  155.8273 H   0  0  0  0  0  0  0  0  0  0  0  0  # atno 8009 bound_to 7997
  156.2063  140.3011  155.9642 H   0  0  0  0  0  0  0  0  0  0  0  0  # atno 8010 bound_to 7997
  139.6610  143.9913  152.2225 H   0  0  0  0  0  0  0  0  0  0  0  0  # atno 10167 bound_to 10162
  157.2740  130.7222  149.6520 H   0  0  0  0  0  0  0  0  0  0  0  0  # atno 10718 bound_to 10713
  153.2024  135.4417  155.0282 H   0  0  0  0  0  0  0  0  0  0  0  0  # atno 10763 bound_to 10752
  154.8154  135.3313  154.7192 H   0  0  0  0  0  0  0  0  0  0  0  0  # atno 10764 bound_to 10752
  153.7636  135.6990  153.4976 H   0  0  0  0  0  0  0  0  0  0  0  0  # atno 10765 bound_to 10752
  141.1635  133.7429  156.9093 H   0  0  0  0  0  0  0  0  0  0  0  0  # atno 11005 bound_to 11000
  144.7887  139.6373  143.7123 LP  0  0  0  0  0  0  0  0  0  0  0  0  # atno 17320 bound_to 7965
  146.2339  139.5867  142.9537 LP  0  0  0  0  0  0  0  0  0  0  0  0  # atno 17321 bound_to 7965
  139.9652  144.6531  150.8042 LP  0  0  0  0  0  0  0  0  0  0  0  0  # atno 17342 bound_to 10162
  140.7580  143.3098  151.2874 LP  0  0  0  0  0  0  0  0  0  0  0  0  # atno 17343 bound_to 10162
  155.9663  130.4358  150.5109 LP  0  0  0  0  0  0  0  0  0  0  0  0  # atno 17370 bound_to 10713
  157.3039  131.0650  151.2049 LP  0  0  0  0  0  0  0  0  0  0  0  0  # atno 17371 bound_to 10713
  140.1528  134.9219  157.2614 LP  0  0  0  0  0  0  0  0  0  0  0  0  # atno 17394 bound_to 11000
  140.2703  134.3468  155.7376 LP  0  0  0  0  0  0  0  0  0  0  0  0  # atno 17395 bound_to 11000

$$$$
