AV-unprocessed.smi:546|AV-procd|sdf|2884|dock3
  -GOLD-   2262023373D 1   1.00000     0.00000
 Structure written by MMmdl.
 52 54  0  0  0  0  0  0  0  0  1 V2000
  155.1596  136.4481  158.1502 C   0  0  0  0  0  0  0  0  0  0  0  0
  153.6967  136.8063  157.8805 C   0  0  0  0  0  0  0  0  0  0  0  0
  153.6262  138.1762  157.5291 O   0  0  0  0  0  0  0  0  0  0  0  0
  152.3422  138.5682  157.0748 C   0  0  0  0  0  0  0  0  0  0  0  0
  152.4075  139.9748  156.4612 C   0  0  0  0  0  0  0  0  0  0  0  0
  151.0788  140.4975  156.1650 N   0  0  0  0  0  0  0  0  0  0  0  0
  150.4494  141.5487  156.7488 C   0  0  0  0  0  0  0  0  0  0  0  0
  151.0398  142.2559  157.7918 N   0  0  0  0  0  0  0  0  0  0  0  0
  151.6037  141.5676  158.9506 C   0  0  0  0  0  0  0  0  0  0  0  0
  152.8375  142.2861  159.5245 C   0  0  2  0  0  0  0  0  0  0  0  0
  153.4286  141.5166  160.7136 C   0  0  0  0  0  0  0  0  0  0  0  0
  152.4598  143.7232  159.9168 C   0  0  0  0  0  0  0  0  0  0  0  0
  151.8027  144.4633  158.7394 C   0  0  1  0  0  0  0  0  0  0  0  0
  152.8259  144.9208  157.6872 C   0  0  0  0  0  0  0  0  0  0  0  0
  150.6513  143.6229  158.1413 C   0  0  0  0  0  0  0  0  0  0  0  0
  149.2342  141.8175  156.2643 N   0  0  0  0  0  0  0  0  0  0  0  0
  149.0741  140.8472  155.2860 C   0  0  0  0  0  0  0  0  0  0  0  0
  150.1642  140.0421  155.2146 C   0  0  0  0  0  0  0  0  0  0  0  0
  150.2559  138.9247  154.2657 C   0  0  0  0  0  0  0  0  0  0  0  0
  151.2267  138.1751  154.1892 O   0  0  0  0  0  0  0  0  0  0  0  0
  149.1562  138.8026  153.4830 N   0  0  0  0  0  0  0  0  0  0  0  0
  148.0297  139.5790  153.5013 C   0  0  0  0  0  0  0  0  0  0  0  0
  147.1113  139.3383  152.7186 O   0  0  0  0  0  0  0  0  0  0  0  0
  147.9796  140.6074  154.4100 N   0  0  0  0  0  0  0  0  0  0  0  0
  146.8187  141.4935  154.5145 C   0  0  0  0  0  0  0  0  0  0  0  0
  149.1691  138.0507  152.8095 H   0  0  0  0  0  0  0  0  0  0  0  0
  155.2590  135.3989  158.4288 H   0  0  0  0  0  0  0  0  0  0  0  0
  155.5660  137.0513  158.9626 H   0  0  0  0  0  0  0  0  0  0  0  0
  155.7735  136.6208  157.2659 H   0  0  0  0  0  0  0  0  0  0  0  0
  153.3019  136.1892  157.0722 H   0  0  0  0  0  0  0  0  0  0  0  0
  153.0959  136.6128  158.7704 H   0  0  0  0  0  0  0  0  0  0  0  0
  151.9716  137.8558  156.3366 H   0  0  0  0  0  0  0  0  0  0  0  0
  151.6475  138.5647  157.9142 H   0  0  0  0  0  0  0  0  0  0  0  0
  152.9239  140.6612  157.1306 H   0  0  0  0  0  0  0  0  0  0  0  0
  152.9984  139.9605  155.5456 H   0  0  0  0  0  0  0  0  0  0  0  0
  150.8311  141.4711  159.7146 H   0  0  0  0  0  0  0  0  0  0  0  0
  151.8762  140.5530  158.6574 H   0  0  0  0  0  0  0  0  0  0  0  0
  153.6026  142.3237  158.7482 H   0  0  0  0  0  0  0  0  0  0  0  0
  152.7106  141.4354  161.5304 H   0  0  0  0  0  0  0  0  0  0  0  0
  154.3184  142.0143  161.0998 H   0  0  0  0  0  0  0  0  0  0  0  0
  153.7166  140.5062  160.4220 H   0  0  0  0  0  0  0  0  0  0  0  0
  151.7599  143.6951  160.7534 H   0  0  0  0  0  0  0  0  0  0  0  0
  153.3358  144.2686  160.2698 H   0  0  0  0  0  0  0  0  0  0  0  0
  151.3591  145.3754  159.1403 H   0  0  0  0  0  0  0  0  0  0  0  0
  153.3148  144.0787  157.1996 H   0  0  0  0  0  0  0  0  0  0  0  0
  153.6044  145.5342  158.1412 H   0  0  0  0  0  0  0  0  0  0  0  0
  152.3481  145.5240  156.9154 H   0  0  0  0  0  0  0  0  0  0  0  0
  150.2489  144.1202  157.2580 H   0  0  0  0  0  0  0  0  0  0  0  0
  149.8312  143.5671  158.8582 H   0  0  0  0  0  0  0  0  0  0  0  0
  146.0023  141.2394  153.8378 H   0  0  0  0  0  0  0  0  0  0  0  0
  147.1150  142.5205  154.2993 H   0  0  0  0  0  0  0  0  0  0  0  0
  146.4198  141.4659  155.5290 H   0  0  0  0  0  0  0  0  0  0  0  0
  1  2  1  0  0  0  0
  1 27  1  0  0  0  0
  1 28  1  0  0  0  0
  1 29  1  0  0  0  0
  2  3  1  0  0  0  0
  2 30  1  0  0  0  0
  2 31  1  0  0  0  0
  3  4  1  0  0  0  0
  4  5  1  0  0  0  0
  4 32  1  0  0  0  0
  4 33  1  0  0  0  0
  5  6  1  0  0  0  0
  5 34  1  0  0  0  0
  5 35  1  0  0  0  0
  6 18  1  0  0  0  0
  6  7  1  0  0  0  0
  7  8  1  0  0  0  0
  7 16  2  0  0  0  0
  8 15  1  0  0  0  0
  8  9  1  0  0  0  0
  9 10  1  0  0  0  0
  9 36  1  0  0  0  0
  9 37  1  0  0  0  0
 10 11  1  0  0  0  0
 10 12  1  0  0  0  0
 10 38  1  0  0  0  0
 11 39  1  0  0  0  0
 11 40  1  0  0  0  0
 11 41  1  0  0  0  0
 12 13  1  0  0  0  0
 12 42  1  0  0  0  0
 12 43  1  0  0  0  0
 13 14  1  0  0  0  0
 13 15  1  0  0  0  0
 13 44  1  0  0  0  0
 14 45  1  0  0  0  0
 14 46  1  0  0  0  0
 14 47  1  0  0  0  0
 15 48  1  0  0  0  0
 15 49  1  0  0  0  0
 16 17  1  0  0  0  0
 17 24  1  0  0  0  0
 17 18  2  0  0  0  0
 18 19  1  0  0  0  0
 19 20  2  0  0  0  0
 19 21  1  0  0  0  0
 21 26  1  0  0  0  0
 21 22  1  0  0  0  0
 22 23  2  0  0  0  0
 22 24  1  0  0  0  0
 24 25  1  0  0  0  0
 25 50  1  0  0  0  0
 25 51  1  0  0  0  0
 25 52  1  0  0  0  0
M  END
> <s_m_source_file>
AV-unprocessed.smi

> <i_m_source_file_index>
546

> <i_lp_mmshare_version>
43012

> <i_f3d_flags>
0

> <s_epik_input>
W0NIM11uMWMoPU8pW25IXWMoPU8pYyhjMTIpbihbQ0gyXVtDSDJdT1tDSDJdW0NIM10pYyhuMilOM1tDSDJdW0NAQEhdKFtDSDNdKVtDSDJdW0NAQEhdKFtDSDNdKVtDSDJdMw==

> <s_epik_cmdline>
J2VwaWtfcHl0aG9uJywgJy1waCcsICc3LjAnLCAnLXRuJywgJzgnLCAnLW1hJywgJzIwMCcsICctbWV0YWxfYmluZGluZycsICctaW1hZScsICc8aW5maWxlLm1hZT4nLCAnLW9tYWUnLCAnPG91dGZpbGUubWFlPic=

> <r_lp_tautomer_probability>
1

> <r_epik_Ionization_Penalty>
0.000576472

> <r_epik_Ionization_Penalty_Charging>
0.000118943

> <r_epik_Ionization_Penalty_Neutral>
0.000457529

> <r_epik_State_Penalty>
-0

> <r_epik_Charging_Adjusted_Penalty>
0.000118943

> <i_epik_Tot_Q>
0

> <i_epik_Tot_abs_Q>
0

> <r_epik_Metal_State_Penalty>
0.0916165

> <b_epik_Metal_Only>
0

> <s_lp_Force_Field>
OPLS_2005

> <r_lp_Energy>
41.9283

> <b_lp_Chiralities_Consistent>
1

> <s_lp_Variant>
AV-unprocessed.smi:546-2

> <Gold.Version>
5.8.1

> <Gold.Id.Protein>
6NUR|6NUR_protein|mol2

> <Gold.PLP.Fitness>
51.0116

> <Gold.PLP.PLP>
-45.9063

> <Gold.PLP.part.hbond>
-3.0000

> <Gold.PLP.part.metal>
0.0000

> <Gold.PLP.part.buried>
-2.8875

> <Gold.PLP.part.nonpolar>
-41.3045

> <Gold.PLP.part.repulsive>
1.8669

> <Gold.PLP.ligand.clash>
0.0000

> <Gold.PLP.ligand.torsion>
0.6669

> <Gold.PLP.Chemscore.Hbond>
1.8437

> <Gold.PLP.Chemscore.CHOScore>
0.0000

> <Gold.PLP.Chemscore.Metal>
0.0000

> <Gold.Chemscore.Hbonds>
donor molecule, donor type, donor heavy atom, donor atom, acceptor molecule, acceptor atom, score
      L1  H    21    26       P1  7948  1.00
      P1  H  7997  8010       L1     3  0.61

> <Gold.PLP.Chemscore.Internal.Correction>
0.9080

> <Gold.Rescore>
     Score         DG    S(hbond)    S(metal)    S(lipo)     H(rot)  DE(clash)    DE(int)     intcor
     16.24     -17.99       1.25        0.00     104.93       1.55       0.92       0.83       ----

> <Gold.Chemscore.Fitness>
16.2390

> <Gold.Chemscore.DG>
-17.9882

> <Gold.Chemscore.ZeroCoef>
-5.4800

> <Gold.Chemscore.Hbond>
1.2547

> <Gold.Chemscore.Metal>
0.0000

> <Gold.Chemscore.Lipo>
104.9280

> <Gold.Chemscore.Internal_Hbond>
0.0000

> <Gold.Chemscore.DEClash>
0.9173

> <Gold.Chemscore.DEInternal>
0.8319

> <Gold.Chemscore.Rot>
1.5465

> <Gold.Chemscore.Internal.Correction>
   9.000000E+99

> <Gold.Chemscore.Hbonds>
donor molecule, donor type, donor heavy atom, donor atom, acceptor molecule, acceptor atom, score
      L1  H    21    26       P1  7948  0.91
      P1  H  7997  8010       L1     3  0.13

> <Gold.Chemscore.Hbond.Weighted>
-4.1907

> <Gold.Chemscore.Metal.Weighted>
-0.0000

> <Gold.Chemscore.Lipo.Weighted>
-12.2766

> <Gold.Chemscore.Internal_Hbond.Weighted>
0.0000

> <Gold.Chemscore.DEClash.Weighted>
0.9173

> <Gold.Chemscore.DEInternal.Weighted>
0.8319

> <Gold.Chemscore.Rot.Weighted>
3.9591

> <Gold.Chemscore.Internal.Correction.Weighted>
   9.000000E+99

> <Gold.Protein.RotatedTorsions>
[ 6907 6896 6895 6894 ] final   -1.18 input  -60.11 | X-H torsion
[ 7974 7965 7964 7962 ] final -158.77 input  175.53 | X-H torsion
[ 8008 7997 7996 7995 ] final   27.05 input   59.86 | X-H torsion
[ 10167 10162 10161 10158 ] final    0.86 input  -65.29 | X-H torsion
[ 10718 10713 10712 10709 ] final  132.43 input   66.30 | X-H torsion
[ 10763 10752 10751 10750 ] final  -61.39 input  -60.55 | X-H torsion
[ 11005 11000 10999 10996 ] final -173.67 input  -57.11 | X-H torsion

> <Gold.Protein.ActiveResidues>
 VAL166  LYS551  ARG553  GLY616  TRP617  ASP618  TYR619  PRO620  LYS621  CYS622 
 ASP623  PHE694  ASN695  SER759  ASP760  ASP761  ALA762  ILE779  LEU786  VAL792 
 PHE793  MET794  SER795  GLU796  ALA797  LYS798  CYS799  TRP800  GLU811  SER814 

> <Gold.Protein.RotatedAtoms>
  151.5502  135.1067  159.9947 H   0  0  0  0  0  0  0  0  0  0  0  0  # atno 6907 bound_to 6896
  152.4495  133.7597  159.6750 H   0  0  0  0  0  0  0  0  0  0  0  0  # atno 6908 bound_to 6896
  150.8419  133.7855  159.3082 H   0  0  0  0  0  0  0  0  0  0  0  0  # atno 6909 bound_to 6896
  144.7492  140.3780  143.6061 H   0  0  0  0  0  0  0  0  0  0  0  0  # atno 7974 bound_to 7965
  155.0369  140.3165  155.4738 H   0  0  0  0  0  0  0  0  0  0  0  0  # atno 8008 bound_to 7997
  156.2862  140.2170  156.5435 H   0  0  0  0  0  0  0  0  0  0  0  0  # atno 8009 bound_to 7997
  154.7322  140.0480  157.0725 H   0  0  0  0  0  0  0  0  0  0  0  0  # atno 8010 bound_to 7997
  140.6709  143.7050  150.7922 H   0  0  0  0  0  0  0  0  0  0  0  0  # atno 10167 bound_to 10162
  157.4872  131.1089  150.9604 H   0  0  0  0  0  0  0  0  0  0  0  0  # atno 10718 bound_to 10713
  154.2838  135.6267  153.5357 H   0  0  0  0  0  0  0  0  0  0  0  0  # atno 10763 bound_to 10752
  152.9862  135.5639  154.5466 H   0  0  0  0  0  0  0  0  0  0  0  0  # atno 10764 bound_to 10752
  154.5062  135.2874  155.1356 H   0  0  0  0  0  0  0  0  0  0  0  0  # atno 10765 bound_to 10752
  140.4831  134.6056  157.4927 H   0  0  0  0  0  0  0  0  0  0  0  0  # atno 11005 bound_to 11000
  145.7007  139.1660  143.2594 LP  0  0  0  0  0  0  0  0  0  0  0  0  # atno 17320 bound_to 7965
  146.1417  140.7048  142.9364 LP  0  0  0  0  0  0  0  0  0  0  0  0  # atno 17321 bound_to 7965
  140.0736  143.5037  152.2567 LP  0  0  0  0  0  0  0  0  0  0  0  0  # atno 17342 bound_to 10162
  139.5977  144.7572  151.3245 LP  0  0  0  0  0  0  0  0  0  0  0  0  # atno 17343 bound_to 10162
  157.0318  130.5714  149.5344 LP  0  0  0  0  0  0  0  0  0  0  0  0  # atno 17370 bound_to 10713
  156.0153  130.5247  150.8116 LP  0  0  0  0  0  0  0  0  0  0  0  0  # atno 17371 bound_to 10713
  139.9814  134.7131  155.9853 LP  0  0  0  0  0  0  0  0  0  0  0  0  # atno 17394 bound_to 11000
  141.1521  133.6547  156.4046 LP  0  0  0  0  0  0  0  0  0  0  0  0  # atno 17395 bound_to 11000

$$$$
