AV-unprocessed.smi:1741|AV-procd|sdf|7018|dock2
  -GOLD-   22720 8233D 1   1.00000     0.00000
 Structure written by MMmdl.
 38 39  0  0  0  0  0  0  0  0  1 V2000
  151.4084  141.4265  157.3337 C   0  0  0  0  0  0  0  0  0  0  0  0
  152.1760  140.1602  156.9348 C   0  0  0  0  0  0  0  0  0  0  0  0
  151.4587  139.3863  155.9402 N   0  0  0  0  0  0  0  0  0  0  0  0
  151.0242  138.0783  156.0268 C   0  0  0  0  0  0  0  0  0  0  0  0
  150.4053  137.8154  154.8373 C   0  0  0  0  0  0  0  0  0  0  0  0
  149.7813  136.6229  154.3912 N   0  0  0  0  0  0  0  0  0  0  0  0
  149.4848  135.5345  155.1201 C   0  0  0  0  0  0  0  0  0  0  0  0
  149.6908  135.4161  156.3281 O   0  0  0  0  0  0  0  0  0  0  0  0
  148.9312  134.5797  154.3585 N   0  0  0  0  0  0  0  0  0  0  0  0
  148.4916  133.2637  154.8177 C   0  0  2  0  0  0  0  0  0  0  0  0
  149.6962  132.5275  155.4243 C   0  0  0  0  0  0  0  0  0  0  0  0
  147.8649  132.4920  153.6400 C   0  0  1  0  0  0  0  0  0  0  0  0
  147.2146  131.1610  154.0206 C   0  0  0  0  0  0  0  0  0  0  0  0
  146.1758  130.9426  152.9319 C   0  0  0  0  0  0  0  0  0  0  0  0
  146.0432  132.3129  152.2619 C   0  0  0  0  0  0  0  0  0  0  0  0
  146.7645  133.2065  153.0980 O   0  0  0  0  0  0  0  0  0  0  0  0
  150.5033  139.0100  154.0777 C   0  0  0  0  0  0  0  0  0  0  0  0
  151.1415  139.9552  154.7507 N   0  0  0  0  0  0  0  0  0  0  0  0
  151.9575  141.9903  158.0878 H   0  0  0  0  0  0  0  0  0  0  0  0
  150.4306  141.1799  157.7485 H   0  0  0  0  0  0  0  0  0  0  0  0
  151.2539  142.0825  156.4765 H   0  0  0  0  0  0  0  0  0  0  0  0
  153.1577  140.4207  156.5371 H   0  0  0  0  0  0  0  0  0  0  0  0
  152.3451  139.5321  157.8101 H   0  0  0  0  0  0  0  0  0  0  0  0
  151.1932  137.4747  156.9061 H   0  0  0  0  0  0  0  0  0  0  0  0
  149.5492  136.5893  153.4093 H   0  0  0  0  0  0  0  0  0  0  0  0
  148.7995  134.7792  153.3779 H   0  0  0  0  0  0  0  0  0  0  0  0
  147.7383  133.3688  155.6004 H   0  0  0  0  0  0  0  0  0  0  0  0
  149.4067  131.5577  155.8291 H   0  0  0  0  0  0  0  0  0  0  0  0
  150.1350  133.1012  156.2413 H   0  0  0  0  0  0  0  0  0  0  0  0
  150.4748  132.3581  154.6797 H   0  0  0  0  0  0  0  0  0  0  0  0
  148.6032  132.3316  152.8516 H   0  0  0  0  0  0  0  0  0  0  0  0
  147.9342  130.3445  154.0869 H   0  0  0  0  0  0  0  0  0  0  0  0
  146.7157  131.2482  154.9868 H   0  0  0  0  0  0  0  0  0  0  0  0
  146.5039  130.1934  152.2104 H   0  0  0  0  0  0  0  0  0  0  0  0
  145.2297  130.6075  153.3583 H   0  0  0  0  0  0  0  0  0  0  0  0
  146.4999  132.3000  151.2713 H   0  0  0  0  0  0  0  0  0  0  0  0
  145.0052  132.6285  152.1542 H   0  0  0  0  0  0  0  0  0  0  0  0
  150.1414  139.2185  153.0817 H   0  0  0  0  0  0  0  0  0  0  0  0
  1  2  1  0  0  0  0
  1 19  1  0  0  0  0
  1 20  1  0  0  0  0
  1 21  1  0  0  0  0
  2  3  1  0  0  0  0
  2 22  1  0  0  0  0
  2 23  1  0  0  0  0
  3 18  1  0  0  0  0
  3  4  1  0  0  0  0
  4  5  2  0  0  0  0
  4 24  1  0  0  0  0
  5  6  1  0  0  0  0
  5 17  1  0  0  0  0
  6  7  1  0  0  0  0
  6 25  1  0  0  0  0
  7  8  2  0  0  0  0
  7  9  1  0  0  0  0
  9 10  1  0  0  0  0
  9 26  1  0  0  0  0
 10 11  1  0  0  0  0
 10 12  1  0  0  0  0
 10 27  1  0  0  0  0
 11 28  1  0  0  0  0
 11 29  1  0  0  0  0
 11 30  1  0  0  0  0
 12 16  1  0  0  0  0
 12 13  1  0  0  0  0
 12 31  1  0  0  0  0
 13 14  1  0  0  0  0
 13 32  1  0  0  0  0
 13 33  1  0  0  0  0
 14 15  1  0  0  0  0
 14 34  1  0  0  0  0
 14 35  1  0  0  0  0
 15 16  1  0  0  0  0
 15 36  1  0  0  0  0
 15 37  1  0  0  0  0
 17 18  2  0  0  0  0
 17 38  1  0  0  0  0
M  END
> <s_m_source_file>
AV-unprocessed.smi

> <i_m_source_file_index>
1741

> <i_lp_mmshare_version>
43012

> <i_f3d_flags>
0

> <s_epik_input>
W0NIM11bQ0gyXW4xW2NIXWMoW2NIXW4xKVtOSF1DKD1PKVtOSF1bQ0BIXShbQ0gzXSlbQ0BASF0yW0NIMl1bQ0gyXVtDSDJdTzI=

> <s_epik_cmdline>
J2VwaWtfcHl0aG9uJywgJy1waCcsICc3LjAnLCAnLXRuJywgJzgnLCAnLW1hJywgJzIwMCcsICctbWV0YWxfYmluZGluZycsICctaW1hZScsICc8aW5maWxlLm1hZT4nLCAnLW9tYWUnLCAnPG91dGZpbGUubWFlPic=

> <r_lp_tautomer_probability>
1

> <r_epik_Ionization_Penalty>
0.000179292

> <r_epik_Ionization_Penalty_Charging>
0

> <r_epik_Ionization_Penalty_Neutral>
0.000179292

> <r_epik_State_Penalty>
-0

> <r_epik_Charging_Adjusted_Penalty>
0

> <i_epik_Tot_Q>
0

> <i_epik_Tot_abs_Q>
0

> <r_epik_Metal_State_Penalty>
-0

> <b_epik_Metal_Only>
0

> <s_lp_Force_Field>
OPLS_2005

> <r_lp_Energy>
22.1528

> <b_lp_Chiralities_Consistent>
1

> <s_lp_Variant>
AV-unprocessed.smi:1741-3

> <Gold.Version>
5.8.1

> <Gold.Id.Protein>
6NUR|6NUR_protein|mol2

> <Gold.PLP.Fitness>
39.9924

> <Gold.PLP.PLP>
-29.4458

> <Gold.PLP.part.hbond>
-3.7619

> <Gold.PLP.part.metal>
0.0000

> <Gold.PLP.part.buried>
-1.7513

> <Gold.PLP.part.nonpolar>
-23.4141

> <Gold.PLP.part.repulsive>
0.2733

> <Gold.PLP.ligand.clash>
0.0000

> <Gold.PLP.ligand.torsion>
0.0511

> <Gold.PLP.Chemscore.Hbond>
2.5384

> <Gold.PLP.Chemscore.CHOScore>
1.0000

> <Gold.PLP.Chemscore.Metal>
0.0000

> <Gold.Chemscore.Hbonds>
donor molecule, donor type, donor heavy atom, donor atom, acceptor molecule, acceptor atom, score
      L1  H     6    25       P1  7948  1.00
      L1  H     9    26       P1  7948  0.84
      P1  H  7989  7998       L1    18  0.95
      L1  C    17    38       P1  7957  1.00

> <Gold.PLP.Chemscore.Internal.Correction>
0.0335

> <Gold.Rescore>
     Score         DG    S(hbond)    S(metal)    S(lipo)     H(rot)  DE(clash)    DE(int)     intcor
     13.20     -14.42       1.73        0.00      57.24       1.38       0.00       1.22       ----

> <Gold.Chemscore.Fitness>
13.2004

> <Gold.Chemscore.DG>
-14.4248

> <Gold.Chemscore.ZeroCoef>
-5.4800

> <Gold.Chemscore.Hbond>
1.7298

> <Gold.Chemscore.Metal>
0.0000

> <Gold.Chemscore.Lipo>
57.2429

> <Gold.Chemscore.Internal_Hbond>
0.0000

> <Gold.Chemscore.DEClash>
0.0009

> <Gold.Chemscore.DEInternal>
1.2235

> <Gold.Chemscore.Rot>
1.3790

> <Gold.Chemscore.Internal.Correction>
   9.000000E+99

> <Gold.Chemscore.Hbonds>
donor molecule, donor type, donor heavy atom, donor atom, acceptor molecule, acceptor atom, score
      L1  H     6    25       P1  7948  0.65
      L1  H     9    26       P1  7948  0.27
      P1  H  7989  7998       L1    18  0.21

> <Gold.Chemscore.Hbond.Weighted>
-5.7775

> <Gold.Chemscore.Metal.Weighted>
-0.0000

> <Gold.Chemscore.Lipo.Weighted>
-6.6974

> <Gold.Chemscore.Internal_Hbond.Weighted>
0.0000

> <Gold.Chemscore.DEClash.Weighted>
0.0009

> <Gold.Chemscore.DEInternal.Weighted>
1.2235

> <Gold.Chemscore.Rot.Weighted>
3.5302

> <Gold.Chemscore.Internal.Correction.Weighted>
   9.000000E+99

> <Gold.Protein.RotatedTorsions>
[ 6907 6896 6895 6894 ] final   -9.54 input  -60.11 | X-H torsion
[ 7974 7965 7964 7962 ] final  131.99 input  175.53 | X-H torsion
[ 8008 7997 7996 7995 ] final  -41.73 input   59.86 | X-H torsion
[ 10167 10162 10161 10158 ] final   21.54 input  -65.29 | X-H torsion
[ 10718 10713 10712 10709 ] final -168.39 input   66.30 | X-H torsion
[ 10763 10752 10751 10750 ] final -118.26 input  -60.55 | X-H torsion
[ 11005 11000 10999 10996 ] final  -80.51 input  -57.11 | X-H torsion

> <Gold.Protein.ActiveResidues>
 VAL166  LYS551  ARG553  GLY616  TRP617  ASP618  TYR619  PRO620  LYS621  CYS622 
 ASP623  PHE694  ASN695  SER759  ASP760  ASP761  ALA762  ILE779  LEU786  VAL792 
 PHE793  MET794  SER795  GLU796  ALA797  LYS798  CYS799  TRP800  GLU811  SER814 

> <Gold.Protein.RotatedAtoms>
  151.4161  135.0991  159.9599 H   0  0  0  0  0  0  0  0  0  0  0  0  # atno 6907 bound_to 6896
  152.5004  133.8751  159.7329 H   0  0  0  0  0  0  0  0  0  0  0  0  # atno 6908 bound_to 6896
  150.9257  133.6769  159.2850 H   0  0  0  0  0  0  0  0  0  0  0  0  # atno 6909 bound_to 6896
  145.0015  139.4308  143.5290 H   0  0  0  0  0  0  0  0  0  0  0  0  # atno 7974 bound_to 7965
  154.4002  140.1491  156.3240 H   0  0  0  0  0  0  0  0  0  0  0  0  # atno 8008 bound_to 7997
  155.8504  140.3458  155.5668 H   0  0  0  0  0  0  0  0  0  0  0  0  # atno 8009 bound_to 7997
  155.7990  140.0867  157.1958 H   0  0  0  0  0  0  0  0  0  0  0  0  # atno 8010 bound_to 7997
  140.5418  143.9663  150.6524 H   0  0  0  0  0  0  0  0  0  0  0  0  # atno 10167 bound_to 10162
  156.6963  130.9179  151.3075 H   0  0  0  0  0  0  0  0  0  0  0  0  # atno 10718 bound_to 10713
  154.8582  135.4280  154.2111 H   0  0  0  0  0  0  0  0  0  0  0  0  # atno 10763 bound_to 10752
  153.3136  135.6977  153.7099 H   0  0  0  0  0  0  0  0  0  0  0  0  # atno 10764 bound_to 10752
  153.6182  135.3507  155.2976 H   0  0  0  0  0  0  0  0  0  0  0  0  # atno 10765 bound_to 10752
  141.1668  133.7153  156.8283 H   0  0  0  0  0  0  0  0  0  0  0  0  # atno 11005 bound_to 11000
  146.3453  139.9406  142.8741 LP  0  0  0  0  0  0  0  0  0  0  0  0  # atno 17320 bound_to 7965
  145.2147  140.9910  143.4080 LP  0  0  0  0  0  0  0  0  0  0  0  0  # atno 17321 bound_to 7965
  140.3066  143.3225  152.0920 LP  0  0  0  0  0  0  0  0  0  0  0  0  # atno 17342 bound_to 10162
  139.4992  144.6663  151.6348 LP  0  0  0  0  0  0  0  0  0  0  0  0  # atno 17343 bound_to 10162
  157.6990  130.9312  150.0728 LP  0  0  0  0  0  0  0  0  0  0  0  0  # atno 17370 bound_to 10713
  156.1761  130.3648  149.9099 LP  0  0  0  0  0  0  0  0  0  0  0  0  # atno 17371 bound_to 10713
  140.2069  134.8856  157.3232 LP  0  0  0  0  0  0  0  0  0  0  0  0  # atno 17394 bound_to 11000
  140.2127  134.4118  155.7604 LP  0  0  0  0  0  0  0  0  0  0  0  0  # atno 17395 bound_to 11000

$$$$
