AV-unprocessed.smi:2113|AV-procd|sdf|8616|dock1
  -GOLD-   2272011353D 1   1.00000     0.00000
 Structure written by MMmdl.
 44 45  0  0  0  0  0  0  0  0  1 V2000
  149.7963  131.6653  153.9107 C   0  0  0  0  0  0  0  0  0  0  0  0
  149.0860  133.0058  153.7104 C   0  0  0  0  0  0  0  0  0  0  0  0
  150.0587  134.0439  153.7299 O   0  0  0  0  0  0  0  0  0  0  0  0
  150.1720  134.7573  154.9590 C   0  0  1  0  0  0  0  0  0  0  0  0
  150.6216  133.7576  156.0347 C   0  0  0  0  0  0  0  0  0  0  0  0
  151.1738  135.9145  154.8209 C   0  0  0  0  0  0  0  0  0  0  0  0
  152.1549  135.9788  155.5622 O   0  0  0  0  0  0  0  0  0  0  0  0
  150.9151  136.8186  153.8633 N   0  0  0  0  0  0  0  0  0  0  0  0
  151.7255  138.0017  153.5968 C   0  0  0  0  0  0  0  0  0  0  0  0
  151.7246  138.9955  154.7464 C   0  0  0  0  0  0  0  0  0  0  0  0
  150.5763  139.7494  155.0605 C   0  0  0  0  0  0  0  0  0  0  0  0
  150.6240  140.6466  156.1442 C   0  0  0  0  0  0  0  0  0  0  0  0
  151.8225  140.7687  156.8871 C   0  0  0  0  0  0  0  0  0  0  0  0
  151.8896  141.6536  157.9847 N   0  0  0  0  0  0  0  0  0  0  0  0
  152.2940  141.0599  159.2564 C   0  0  0  0  0  0  0  0  0  0  0  0
  152.6336  142.1600  160.2769 C   0  0  0  0  0  0  0  0  0  0  0  0
  151.5336  143.0543  160.4073 O   0  0  0  0  0  0  0  0  0  0  0  0
  151.2317  143.7053  159.1775 C   0  0  0  0  0  0  0  0  0  0  0  0
  150.8375  142.6592  158.1215 C   0  0  0  0  0  0  0  0  0  0  0  0
  152.9254  140.0417  156.5790 N   0  0  0  0  0  0  0  0  0  0  0  0
  152.8751  139.1847  155.5377 C   0  0  0  0  0  0  0  0  0  0  0  0
  149.0826  130.8415  153.9056 H   0  0  0  0  0  0  0  0  0  0  0  0
  150.3273  131.6421  154.8627 H   0  0  0  0  0  0  0  0  0  0  0  0
  150.5219  131.4843  153.1175 H   0  0  0  0  0  0  0  0  0  0  0  0
  148.5448  132.9933  152.7639 H   0  0  0  0  0  0  0  0  0  0  0  0
  148.3563  133.1585  154.5066 H   0  0  0  0  0  0  0  0  0  0  0  0
  149.1927  135.1475  155.2434 H   0  0  0  0  0  0  0  0  0  0  0  0
  150.7457  134.2454  157.0019 H   0  0  0  0  0  0  0  0  0  0  0  0
  151.5693  133.2848  155.7734 H   0  0  0  0  0  0  0  0  0  0  0  0
  149.8835  132.9651  156.1587 H   0  0  0  0  0  0  0  0  0  0  0  0
  150.0932  136.6863  153.2922 H   0  0  0  0  0  0  0  0  0  0  0  0
  152.7467  137.7054  153.3508 H   0  0  0  0  0  0  0  0  0  0  0  0
  151.3261  138.4981  152.7123 H   0  0  0  0  0  0  0  0  0  0  0  0
  149.6688  139.6393  154.4852 H   0  0  0  0  0  0  0  0  0  0  0  0
  149.7415  141.2125  156.4025 H   0  0  0  0  0  0  0  0  0  0  0  0
  151.4763  140.4433  159.6317 H   0  0  0  0  0  0  0  0  0  0  0  0
  153.1570  140.4058  159.1413 H   0  0  0  0  0  0  0  0  0  0  0  0
  152.8467  141.7163  161.2494 H   0  0  0  0  0  0  0  0  0  0  0  0
  153.5277  142.7079  159.9742 H   0  0  0  0  0  0  0  0  0  0  0  0
  150.4110  144.4046  159.3370 H   0  0  0  0  0  0  0  0  0  0  0  0
  152.0892  144.2920  158.8434 H   0  0  0  0  0  0  0  0  0  0  0  0
  150.6642  143.1576  157.1668 H   0  0  0  0  0  0  0  0  0  0  0  0
  149.9056  142.1707  158.4095 H   0  0  0  0  0  0  0  0  0  0  0  0
  153.7791  138.6285  155.3381 H   0  0  0  0  0  0  0  0  0  0  0  0
  1  2  1  0  0  0  0
  1 22  1  0  0  0  0
  1 23  1  0  0  0  0
  1 24  1  0  0  0  0
  2  3  1  0  0  0  0
  2 25  1  0  0  0  0
  2 26  1  0  0  0  0
  3  4  1  0  0  0  0
  4  5  1  0  0  0  0
  4  6  1  0  0  0  0
  4 27  1  0  0  0  0
  5 28  1  0  0  0  0
  5 29  1  0  0  0  0
  5 30  1  0  0  0  0
  6  7  2  0  0  0  0
  6  8  1  0  0  0  0
  8  9  1  0  0  0  0
  8 31  1  0  0  0  0
  9 10  1  0  0  0  0
  9 32  1  0  0  0  0
  9 33  1  0  0  0  0
 10 21  1  0  0  0  0
 10 11  2  0  0  0  0
 11 12  1  0  0  0  0
 11 34  1  0  0  0  0
 12 13  2  0  0  0  0
 12 35  1  0  0  0  0
 13 14  1  0  0  0  0
 13 20  1  0  0  0  0
 14 19  1  0  0  0  0
 14 15  1  0  0  0  0
 15 16  1  0  0  0  0
 15 36  1  0  0  0  0
 15 37  1  0  0  0  0
 16 17  1  0  0  0  0
 16 38  1  0  0  0  0
 16 39  1  0  0  0  0
 17 18  1  0  0  0  0
 18 19  1  0  0  0  0
 18 40  1  0  0  0  0
 18 41  1  0  0  0  0
 19 42  1  0  0  0  0
 19 43  1  0  0  0  0
 20 21  2  0  0  0  0
 21 44  1  0  0  0  0
M  END
> <s_m_source_file>
AV-unprocessed.smi

> <i_m_source_file_index>
2113

> <i_lp_mmshare_version>
43012

> <i_f3d_flags>
0

> <s_epik_input>
W0NIM11bQ0gyXU9bQ0BIXShbQ0gzXSlDKD1PKVtOSF1bQ0gyXWMxW2NIXVtjSF1jKG5bY0hdMSlOMltDSDJdW0NIMl1PW0NIMl1bQ0gyXTI=

> <s_epik_cmdline>
J2VwaWtfcHl0aG9uJywgJy1waCcsICc3LjAnLCAnLXRuJywgJzgnLCAnLW1hJywgJzIwMCcsICctbWV0YWxfYmluZGluZycsICctaW1hZScsICc8aW5maWxlLm1hZT4nLCAnLW9tYWUnLCAnPG91dGZpbGUubWFlPic=

> <r_lp_tautomer_probability>
1

> <r_epik_Ionization_Penalty>
0.00454344

> <r_epik_Ionization_Penalty_Charging>
0

> <r_epik_Ionization_Penalty_Neutral>
0.00454344

> <r_epik_State_Penalty>
0.00328127

> <r_epik_Charging_Adjusted_Penalty>
0.00328127

> <i_epik_Tot_Q>
0

> <i_epik_Tot_abs_Q>
0

> <r_epik_Metal_State_Penalty>
-0

> <b_epik_Metal_Only>
0

> <s_lp_Force_Field>
OPLS_2005

> <r_lp_Energy>
17.3963

> <b_lp_Chiralities_Consistent>
1

> <s_lp_Variant>
AV-unprocessed.smi:2113-2

> <Gold.Version>
5.8.1

> <Gold.Id.Protein>
6NUR|6NUR_protein|mol2

> <Gold.PLP.Fitness>
45.3510

> <Gold.PLP.PLP>
-37.3189

> <Gold.PLP.part.hbond>
-4.4486

> <Gold.PLP.part.metal>
0.0000

> <Gold.PLP.part.buried>
-0.2112

> <Gold.PLP.part.nonpolar>
-31.6942

> <Gold.PLP.part.repulsive>
0.3394

> <Gold.PLP.ligand.clash>
0.0000

> <Gold.PLP.ligand.torsion>
0.6211

> <Gold.PLP.Chemscore.Hbond>
2.9420

> <Gold.PLP.Chemscore.CHOScore>
0.0000

> <Gold.PLP.Chemscore.Metal>
0.0000

> <Gold.Chemscore.Hbonds>
donor molecule, donor type, donor heavy atom, donor atom, acceptor molecule, acceptor atom, score
      L1  H     8    31       P1  7948  0.65
      P1  H  7997  8010       L1    20  0.73
      P1  H 10752 10763       L1     7  0.23

> <Gold.PLP.Chemscore.Internal.Correction>
0.4483

> <Gold.Rescore>
     Score         DG    S(hbond)    S(metal)    S(lipo)     H(rot)  DE(clash)    DE(int)     intcor
     17.80     -18.76       2.25        0.00      90.67       1.90       0.21       0.76       ----

> <Gold.Chemscore.Fitness>
17.7978

> <Gold.Chemscore.DG>
-18.7621

> <Gold.Chemscore.ZeroCoef>
-5.4800

> <Gold.Chemscore.Hbond>
2.2530

> <Gold.Chemscore.Metal>
0.0000

> <Gold.Chemscore.Lipo>
90.6725

> <Gold.Chemscore.Internal_Hbond>
0.0000

> <Gold.Chemscore.DEClash>
0.2051

> <Gold.Chemscore.DEInternal>
0.7592

> <Gold.Chemscore.Rot>
1.8952

> <Gold.Chemscore.Internal.Correction>
   9.000000E+99

> <Gold.Chemscore.Hbonds>
donor molecule, donor type, donor heavy atom, donor atom, acceptor molecule, acceptor atom, score
      L1  H     8    31       P1  7948  0.06
      P1  H  7997  8010       L1    20  0.14
      P1  H 10752 10763       L1     7  0.19

> <Gold.Chemscore.Hbond.Weighted>
-7.5251

> <Gold.Chemscore.Metal.Weighted>
-0.0000

> <Gold.Chemscore.Lipo.Weighted>
-10.6087

> <Gold.Chemscore.Internal_Hbond.Weighted>
0.0000

> <Gold.Chemscore.DEClash.Weighted>
0.2051

> <Gold.Chemscore.DEInternal.Weighted>
0.7592

> <Gold.Chemscore.Rot.Weighted>
4.8516

> <Gold.Chemscore.Internal.Correction.Weighted>
   9.000000E+99

> <Gold.Protein.RotatedTorsions>
[ 6907 6896 6895 6894 ] final  -30.64 input  -60.11 | X-H torsion
[ 7974 7965 7964 7962 ] final  -72.58 input  175.53 | X-H torsion
[ 8008 7997 7996 7995 ] final   50.37 input   59.86 | X-H torsion
[ 10167 10162 10161 10158 ] final -144.37 input  -65.29 | X-H torsion
[ 10718 10713 10712 10709 ] final  -16.57 input   66.30 | X-H torsion
[ 10763 10752 10751 10750 ] final   90.73 input  -60.55 | X-H torsion
[ 11005 11000 10999 10996 ] final   83.20 input  -57.11 | X-H torsion

> <Gold.Protein.ActiveResidues>
 VAL166  LYS551  ARG553  GLY616  TRP617  ASP618  TYR619  PRO620  LYS621  CYS622 
 ASP623  PHE694  ASN695  SER759  ASP760  ASP761  ALA762  ILE779  LEU786  VAL792 
 PHE793  MET794  SER795  GLU796  ALA797  LYS798  CYS799  TRP800  GLU811  SER814 

> <Gold.Protein.RotatedAtoms>
  151.1028  134.9982  159.8456 H   0  0  0  0  0  0  0  0  0  0  0  0  # atno 6907 bound_to 6896
  152.5438  134.1929  159.8691 H   0  0  0  0  0  0  0  0  0  0  0  0  # atno 6908 bound_to 6896
  151.1973  133.4587  159.2629 H   0  0  0  0  0  0  0  0  0  0  0  0  # atno 6909 bound_to 6896
  145.6633  140.9245  143.0922 H   0  0  0  0  0  0  0  0  0  0  0  0  # atno 7974 bound_to 7965
  155.4176  140.3445  155.4268 H   0  0  0  0  0  0  0  0  0  0  0  0  # atno 8008 bound_to 7997
  156.1412  140.1542  156.8949 H   0  0  0  0  0  0  0  0  0  0  0  0  # atno 8009 bound_to 7997
  154.4972  140.0824  156.7703 H   0  0  0  0  0  0  0  0  0  0  0  0  # atno 8010 bound_to 7997
  139.7905  143.7972  152.2649 H   0  0  0  0  0  0  0  0  0  0  0  0  # atno 10167 bound_to 10162
  156.5858  130.4786  149.6300 H   0  0  0  0  0  0  0  0  0  0  0  0  # atno 10718 bound_to 10713
  153.2006  135.4423  155.0262 H   0  0  0  0  0  0  0  0  0  0  0  0  # atno 10763 bound_to 10752
  154.8145  135.3309  154.7217 H   0  0  0  0  0  0  0  0  0  0  0  0  # atno 10764 bound_to 10752
  153.7663  135.6988  153.4971 H   0  0  0  0  0  0  0  0  0  0  0  0  # atno 10765 bound_to 10752
  139.9038  134.8127  156.2278 H   0  0  0  0  0  0  0  0  0  0  0  0  # atno 11005 bound_to 11000
  144.7082  139.8477  143.7423 LP  0  0  0  0  0  0  0  0  0  0  0  0  # atno 17320 bound_to 7965
  146.1107  139.4112  143.0289 LP  0  0  0  0  0  0  0  0  0  0  0  0  # atno 17321 bound_to 7965
  139.8062  144.7354  150.9758 LP  0  0  0  0  0  0  0  0  0  0  0  0  # atno 17342 bound_to 10162
  140.7820  143.4296  151.0715 LP  0  0  0  0  0  0  0  0  0  0  0  0  # atno 17343 bound_to 10162
  156.2592  130.6952  151.1715 LP  0  0  0  0  0  0  0  0  0  0  0  0  # atno 17370 bound_to 10713
  157.7315  131.0607  150.5672 LP  0  0  0  0  0  0  0  0  0  0  0  0  # atno 17371 bound_to 10713
  141.0365  133.6960  156.1521 LP  0  0  0  0  0  0  0  0  0  0  0  0  # atno 17394 bound_to 11000
  140.7019  134.4554  157.5586 LP  0  0  0  0  0  0  0  0  0  0  0  0  # atno 17395 bound_to 11000

$$$$
