AV-unprocessed.smi:300|AV-procd|sdf|2269|dock6
  -GOLD-   2262022163D 1   1.00000     0.00000
 Structure written by MMmdl.
 45 46  0  0  0  0  0  0  0  0  1 V2000
  146.9136  134.9641  162.5486 C   0  0  0  0  0  0  0  0  0  0  0  0
  147.2558  134.8693  161.1446 N   0  0  0  0  0  0  0  0  0  0  0  0
  147.3991  133.5886  160.5583 C   0  0  0  0  0  0  0  0  0  0  0  0
  147.2409  132.5457  161.1935 O   0  0  0  0  0  0  0  0  0  0  0  0
  147.7576  133.6091  159.1452 C   0  0  0  0  0  0  0  0  0  0  0  0
  147.9360  134.7775  158.4909 C   0  0  0  0  0  0  0  0  0  0  0  0
  147.7994  136.0161  159.0908 N   0  0  0  0  0  0  0  0  0  0  0  0
  148.0273  137.2353  158.3044 C   0  0  0  0  0  0  0  0  0  0  0  0
  149.4217  137.2906  157.6655 C   0  0  0  0  0  0  0  0  0  0  0  0
  149.7266  136.5272  156.7479 O   0  0  0  0  0  0  0  0  0  0  0  0
  150.2543  138.2230  158.1520 N   0  0  0  0  0  0  0  0  0  0  0  0
  151.6156  138.4544  157.6853 C   0  0  0  0  0  0  0  0  0  0  0  0
  151.7620  139.8450  157.0396 C   0  0  0  0  0  0  0  0  0  0  0  0
  151.7604  140.9086  158.0548 N   0  0  0  0  0  0  0  0  0  0  0  0
  150.7033  141.9222  157.9158 C   0  0  0  0  0  0  0  0  0  0  0  0
  151.2618  143.3265  157.6147 C   0  0  0  0  0  0  0  0  0  0  0  0
  151.7562  144.0824  158.8568 C   0  0  0  0  0  0  0  0  0  0  0  0
  152.9427  143.4197  159.5717 C   0  0  0  0  0  0  0  0  0  0  0  0
  152.6180  142.0191  160.1167 C   0  0  0  0  0  0  0  0  0  0  0  0
  152.6931  140.9323  159.0370 C   0  0  0  0  0  0  0  0  0  0  0  0
  153.5989  140.1008  159.1123 O   0  0  0  0  0  0  0  0  0  0  0  0
  147.4559  136.0872  160.4578 C   0  0  0  0  0  0  0  0  0  0  0  0
  147.3420  137.1783  161.0223 O   0  0  0  0  0  0  0  0  0  0  0  0
  146.5749  134.0032  162.9352 H   0  0  0  0  0  0  0  0  0  0  0  0
  146.1013  135.6866  162.6481 H   0  0  0  0  0  0  0  0  0  0  0  0
  147.8108  135.2975  163.0724 H   0  0  0  0  0  0  0  0  0  0  0  0
  147.8847  132.6759  158.6164 H   0  0  0  0  0  0  0  0  0  0  0  0
  148.2050  134.7384  157.4454 H   0  0  0  0  0  0  0  0  0  0  0  0
  147.2863  137.3067  157.5072 H   0  0  0  0  0  0  0  0  0  0  0  0
  147.8723  138.1170  158.9292 H   0  0  0  0  0  0  0  0  0  0  0  0
  149.9223  138.8128  158.9016 H   0  0  0  0  0  0  0  0  0  0  0  0
  152.2834  138.3620  158.5422 H   0  0  0  0  0  0  0  0  0  0  0  0
  151.9068  137.6727  156.9815 H   0  0  0  0  0  0  0  0  0  0  0  0
  152.6718  139.8863  156.4399 H   0  0  0  0  0  0  0  0  0  0  0  0
  150.9537  140.0075  156.3241 H   0  0  0  0  0  0  0  0  0  0  0  0
  150.0302  141.6551  157.1007 H   0  0  0  0  0  0  0  0  0  0  0  0
  150.0758  141.9365  158.8080 H   0  0  0  0  0  0  0  0  0  0  0  0
  152.0527  143.2666  156.8658 H   0  0  0  0  0  0  0  0  0  0  0  0
  150.4678  143.9196  157.1597 H   0  0  0  0  0  0  0  0  0  0  0  0
  152.0468  145.0905  158.5600 H   0  0  0  0  0  0  0  0  0  0  0  0
  150.9307  144.2051  159.5591 H   0  0  0  0  0  0  0  0  0  0  0  0
  153.8037  143.3778  158.9029 H   0  0  0  0  0  0  0  0  0  0  0  0
  153.2445  144.0566  160.4037 H   0  0  0  0  0  0  0  0  0  0  0  0
  153.3439  141.7698  160.8920 H   0  0  0  0  0  0  0  0  0  0  0  0
  151.6447  142.0014  160.6081 H   0  0  0  0  0  0  0  0  0  0  0  0
  1  2  1  0  0  0  0
  1 24  1  0  0  0  0
  1 25  1  0  0  0  0
  1 26  1  0  0  0  0
  2 22  1  0  0  0  0
  2  3  1  0  0  0  0
  3  4  2  0  0  0  0
  3  5  1  0  0  0  0
  5  6  2  0  0  0  0
  5 27  1  0  0  0  0
  6  7  1  0  0  0  0
  6 28  1  0  0  0  0
  7  8  1  0  0  0  0
  7 22  1  0  0  0  0
  8  9  1  0  0  0  0
  8 29  1  0  0  0  0
  8 30  1  0  0  0  0
  9 10  2  0  0  0  0
  9 11  1  0  0  0  0
 11 12  1  0  0  0  0
 11 31  1  0  0  0  0
 12 13  1  0  0  0  0
 12 32  1  0  0  0  0
 12 33  1  0  0  0  0
 13 14  1  0  0  0  0
 13 34  1  0  0  0  0
 13 35  1  0  0  0  0
 14 20  1  0  0  0  0
 14 15  1  0  0  0  0
 15 16  1  0  0  0  0
 15 36  1  0  0  0  0
 15 37  1  0  0  0  0
 16 17  1  0  0  0  0
 16 38  1  0  0  0  0
 16 39  1  0  0  0  0
 17 18  1  0  0  0  0
 17 40  1  0  0  0  0
 17 41  1  0  0  0  0
 18 19  1  0  0  0  0
 18 42  1  0  0  0  0
 18 43  1  0  0  0  0
 19 20  1  0  0  0  0
 19 44  1  0  0  0  0
 19 45  1  0  0  0  0
 20 21  2  0  0  0  0
 22 23  2  0  0  0  0
M  END
> <s_m_source_file>
AV-unprocessed.smi

> <i_m_source_file_index>
300

> <i_lp_mmshare_version>
43012

> <i_f3d_flags>
0

> <s_epik_input>
W0NIM11uMWMoPU8pW2NIXVtjSF1uKGMxPU8pW0NIMl1DKD1PKVtOSF1bQ0gyXVtDSDJdTjJbQ0gyXVtDSDJdW0NIMl1bQ0gyXVtDSDJdQzI9Tw==

> <s_epik_cmdline>
J2VwaWtfcHl0aG9uJywgJy1waCcsICc3LjAnLCAnLXRuJywgJzgnLCAnLW1hJywgJzIwMCcsICctbWV0YWxfYmluZGluZycsICctaW1hZScsICc8aW5maWxlLm1hZT4nLCAnLW9tYWUnLCAnPG91dGZpbGUubWFlPic=

> <r_lp_tautomer_probability>
1

> <r_epik_Ionization_Penalty>
6.11943e-08

> <r_epik_Ionization_Penalty_Charging>
1.13819e-08

> <r_epik_Ionization_Penalty_Neutral>
4.98124e-08

> <r_epik_State_Penalty>
-0

> <r_epik_Charging_Adjusted_Penalty>
1.13819e-08

> <i_epik_Tot_Q>
0

> <i_epik_Tot_abs_Q>
0

> <r_epik_Metal_State_Penalty>
-0

> <b_epik_Metal_Only>
0

> <s_lp_Force_Field>
OPLS_2005

> <r_lp_Energy>
25.2871

> <b_lp_Chiralities_Consistent>
1

> <s_lp_Variant>
AV-unprocessed.smi:300-1

> <Gold.Version>
5.8.1

> <Gold.Id.Protein>
6NUR|6NUR_protein|mol2

> <Gold.PLP.Fitness>
51.0528

> <Gold.PLP.PLP>
-42.9453

> <Gold.PLP.part.hbond>
-3.0000

> <Gold.PLP.part.metal>
0.0000

> <Gold.PLP.part.buried>
-4.9394

> <Gold.PLP.part.nonpolar>
-34.6203

> <Gold.PLP.part.repulsive>
0.1120

> <Gold.PLP.ligand.clash>
0.0000

> <Gold.PLP.ligand.torsion>
0.1417

> <Gold.PLP.Chemscore.Hbond>
2.7840

> <Gold.PLP.Chemscore.CHOScore>
0.0000

> <Gold.PLP.Chemscore.Metal>
0.0000

> <Gold.Chemscore.Hbonds>
donor molecule, donor type, donor heavy atom, donor atom, acceptor molecule, acceptor atom, score
      P1  H  6931  6943       L1    23  0.51
      P1  H  6934  6947       L1    23  1.00
      P1  H  7997  8008       L1    21  0.45

> <Gold.PLP.Chemscore.Internal.Correction>
0.0389

> <Gold.Rescore>
     Score         DG    S(hbond)    S(metal)    S(lipo)     H(rot)  DE(clash)    DE(int)     intcor
     16.75     -18.13       2.69        0.00      79.01       2.18       0.00       1.38       ----

> <Gold.Chemscore.Fitness>
16.7466

> <Gold.Chemscore.DG>
-18.1281

> <Gold.Chemscore.ZeroCoef>
-5.4800

> <Gold.Chemscore.Hbond>
2.6916

> <Gold.Chemscore.Metal>
0.0000

> <Gold.Chemscore.Lipo>
79.0095

> <Gold.Chemscore.Internal_Hbond>
0.0000

> <Gold.Chemscore.DEClash>
0.0009

> <Gold.Chemscore.DEInternal>
1.3806

> <Gold.Chemscore.Rot>
2.1820

> <Gold.Chemscore.Internal.Correction>
   9.000000E+99

> <Gold.Chemscore.Hbonds>
donor molecule, donor type, donor heavy atom, donor atom, acceptor molecule, acceptor atom, score
      P1  H  6931  6943       L1    23  0.50
      P1  H  6934  6947       L1    23  0.98
      P1  H  7997  8008       L1    21  0.34

> <Gold.Chemscore.Hbond.Weighted>
-8.9900

> <Gold.Chemscore.Metal.Weighted>
-0.0000

> <Gold.Chemscore.Lipo.Weighted>
-9.2441

> <Gold.Chemscore.Internal_Hbond.Weighted>
0.0000

> <Gold.Chemscore.DEClash.Weighted>
0.0009

> <Gold.Chemscore.DEInternal.Weighted>
1.3806

> <Gold.Chemscore.Rot.Weighted>
5.5860

> <Gold.Chemscore.Internal.Correction.Weighted>
   9.000000E+99

> <Gold.Protein.RotatedTorsions>
[ 6907 6896 6895 6894 ] final -126.70 input  -60.11 | X-H torsion
[ 7974 7965 7964 7962 ] final   90.36 input  175.53 | X-H torsion
[ 8008 7997 7996 7995 ] final -100.54 input   59.86 | X-H torsion
[ 10167 10162 10161 10158 ] final   81.38 input  -65.29 | X-H torsion
[ 10718 10713 10712 10709 ] final  108.61 input   66.30 | X-H torsion
[ 10763 10752 10751 10750 ] final -173.70 input  -60.55 | X-H torsion
[ 11005 11000 10999 10996 ] final  121.30 input  -57.11 | X-H torsion

> <Gold.Protein.ActiveResidues>
 VAL166  LYS551  ARG553  GLY616  TRP617  ASP618  TYR619  PRO620  LYS621  CYS622 
 ASP623  PHE694  ASN695  SER759  ASP760  ASP761  ALA762  ILE779  LEU786  VAL792 
 PHE793  MET794  SER795  GLU796  ALA797  LYS798  CYS799  TRP800  GLU811  SER814 

> <Gold.Protein.RotatedAtoms>
  150.8996  133.7136  159.2882 H   0  0  0  0  0  0  0  0  0  0  0  0  # atno 6907 bound_to 6896
  151.4659  135.1041  159.9747 H   0  0  0  0  0  0  0  0  0  0  0  0  # atno 6908 bound_to 6896
  152.4869  133.8348  159.7177 H   0  0  0  0  0  0  0  0  0  0  0  0  # atno 6909 bound_to 6896
  145.5200  139.2279  143.2677 H   0  0  0  0  0  0  0  0  0  0  0  0  # atno 7974 bound_to 7965
  154.8300  140.0440  157.1470 H   0  0  0  0  0  0  0  0  0  0  0  0  # atno 8008 bound_to 7997
  154.9163  140.3020  155.5219 H   0  0  0  0  0  0  0  0  0  0  0  0  # atno 8009 bound_to 7997
  156.2986  140.2349  156.4208 H   0  0  0  0  0  0  0  0  0  0  0  0  # atno 8010 bound_to 7997
  139.9398  144.6097  150.8263 H   0  0  0  0  0  0  0  0  0  0  0  0  # atno 10167 bound_to 10162
  157.6578  131.0897  150.6331 H   0  0  0  0  0  0  0  0  0  0  0  0  # atno 10718 bound_to 10713
  154.6048  135.2858  155.0496 H   0  0  0  0  0  0  0  0  0  0  0  0  # atno 10763 bound_to 10752
  154.1748  135.6466  153.5022 H   0  0  0  0  0  0  0  0  0  0  0  0  # atno 10764 bound_to 10752
  153.0171  135.5409  154.6780 H   0  0  0  0  0  0  0  0  0  0  0  0  # atno 10765 bound_to 10752
  139.9220  134.9638  156.7938 H   0  0  0  0  0  0  0  0  0  0  0  0  # atno 11005 bound_to 11000
  146.2112  140.6012  142.9059 LP  0  0  0  0  0  0  0  0  0  0  0  0  # atno 17320 bound_to 7965
  144.7681  140.5576  143.6689 LP  0  0  0  0  0  0  0  0  0  0  0  0  # atno 17321 bound_to 7965
  140.7614  143.3173  151.2702 LP  0  0  0  0  0  0  0  0  0  0  0  0  # atno 17342 bound_to 10162
  139.6714  144.0014  152.2755 LP  0  0  0  0  0  0  0  0  0  0  0  0  # atno 17343 bound_to 10162
  156.6636  130.4519  149.5679 LP  0  0  0  0  0  0  0  0  0  0  0  0  # atno 17370 bound_to 10713
  156.2049  130.6643  151.1207 LP  0  0  0  0  0  0  0  0  0  0  0  0  # atno 17371 bound_to 10713
  140.6445  133.9787  155.7724 LP  0  0  0  0  0  0  0  0  0  0  0  0  # atno 17394 bound_to 11000
  141.0749  134.0150  157.3472 LP  0  0  0  0  0  0  0  0  0  0  0  0  # atno 17395 bound_to 11000

$$$$
