AV-unprocessed.smi:1163|AV-procd|sdf|4920|dock1
  -GOLD-   22720 3503D 1   1.00000     0.00000
 Structure written by MMmdl.
 39 40  0  0  0  0  0  0  0  0  1 V2000
  151.9821  139.5061  155.0455 C   0  0  0  0  0  0  0  0  0  0  0  0
  151.0643  140.5219  154.6553 O   0  0  0  0  0  0  0  0  0  0  0  0
  149.7917  140.1445  154.2781 C   0  0  0  0  0  0  0  0  0  0  0  0
  148.8529  141.1498  153.9724 C   0  0  0  0  0  0  0  0  0  0  0  0
  147.5526  140.7698  153.5894 C   0  0  0  0  0  0  0  0  0  0  0  0
  147.2248  139.4002  153.5334 C   0  0  0  0  0  0  0  0  0  0  0  0
  145.9119  139.0402  153.1260 N   0  0  0  0  0  0  0  0  0  0  0  0
  145.3797  137.8095  153.0323 C   0  0  0  0  0  0  0  0  0  0  0  0
  145.9507  136.7632  153.3396 O   0  0  0  0  0  0  0  0  0  0  0  0
  144.1191  137.8576  152.5793 N   0  0  0  0  0  0  0  0  0  0  0  0
  143.2568  136.6956  152.3870 C   0  0  2  0  0  0  0  0  0  0  0  0
  142.8965  136.0117  153.7015 C   0  0  0  0  0  0  0  0  0  0  0  0
  142.8766  134.5360  153.3219 C   0  0  0  0  0  0  0  0  0  0  0  0
  144.0129  134.4269  152.4206 N   0  0  0  0  0  0  0  0  0  0  0  0
  144.0133  133.1562  151.6991 C   0  0  0  0  0  0  0  0  0  0  0  0
  145.4273  132.6914  151.2994 C   0  0  0  0  0  0  0  0  0  0  0  0
  145.3198  131.7920  150.3225 F   0  0  0  0  0  0  0  0  0  0  0  0
  146.1692  133.7047  150.8527 F   0  0  0  0  0  0  0  0  0  0  0  0
  146.0401  132.1193  152.3362 F   0  0  0  0  0  0  0  0  0  0  0  0
  143.9410  135.5996  151.5509 C   0  0  0  0  0  0  0  0  0  0  0  0
  148.2419  138.4658  153.8466 C   0  0  0  0  0  0  0  0  0  0  0  0
  149.4917  138.8238  154.2112 N   0  0  0  0  0  0  0  0  0  0  0  0
  152.9339  139.9638  155.3145 H   0  0  0  0  0  0  0  0  0  0  0  0
  152.1711  138.8051  154.2313 H   0  0  0  0  0  0  0  0  0  0  0  0
  151.6224  138.9556  155.9161 H   0  0  0  0  0  0  0  0  0  0  0  0
  149.1256  142.1932  154.0301 H   0  0  0  0  0  0  0  0  0  0  0  0
  146.8169  141.5231  153.3473 H   0  0  0  0  0  0  0  0  0  0  0  0
  145.2896  139.8113  152.9333 H   0  0  0  0  0  0  0  0  0  0  0  0
  143.7238  138.7598  152.3583 H   0  0  0  0  0  0  0  0  0  0  0  0
  142.3355  136.9997  151.8862 H   0  0  0  0  0  0  0  0  0  0  0  0
  143.6644  136.1847  154.4577 H   0  0  0  0  0  0  0  0  0  0  0  0
  141.9434  136.3534  154.1066 H   0  0  0  0  0  0  0  0  0  0  0  0
  142.9733  133.8768  154.1850 H   0  0  0  0  0  0  0  0  0  0  0  0
  141.9511  134.2915  152.7976 H   0  0  0  0  0  0  0  0  0  0  0  0
  143.5788  132.3993  152.3536 H   0  0  0  0  0  0  0  0  0  0  0  0
  143.3670  133.2172  150.8224 H   0  0  0  0  0  0  0  0  0  0  0  0
  143.3318  135.3859  150.6714 H   0  0  0  0  0  0  0  0  0  0  0  0
  144.9362  135.8841  151.2076 H   0  0  0  0  0  0  0  0  0  0  0  0
  148.0763  137.4013  153.7876 H   0  0  0  0  0  0  0  0  0  0  0  0
  1  2  1  0  0  0  0
  1 23  1  0  0  0  0
  1 24  1  0  0  0  0
  1 25  1  0  0  0  0
  2  3  1  0  0  0  0
  3 22  1  0  0  0  0
  3  4  2  0  0  0  0
  4  5  1  0  0  0  0
  4 26  1  0  0  0  0
  5  6  2  0  0  0  0
  5 27  1  0  0  0  0
  6  7  1  0  0  0  0
  6 21  1  0  0  0  0
  7  8  1  0  0  0  0
  7 28  1  0  0  0  0
  8  9  2  0  0  0  0
  8 10  1  0  0  0  0
 10 11  1  0  0  0  0
 10 29  1  0  0  0  0
 11 20  1  0  0  0  0
 11 12  1  0  0  0  0
 11 30  1  0  0  0  0
 12 13  1  0  0  0  0
 12 31  1  0  0  0  0
 12 32  1  0  0  0  0
 13 14  1  0  0  0  0
 13 33  1  0  0  0  0
 13 34  1  0  0  0  0
 14 15  1  0  0  0  0
 14 20  1  0  0  0  0
 15 16  1  0  0  0  0
 15 35  1  0  0  0  0
 15 36  1  0  0  0  0
 16 17  1  0  0  0  0
 16 18  1  0  0  0  0
 16 19  1  0  0  0  0
 20 37  1  0  0  0  0
 20 38  1  0  0  0  0
 21 22  2  0  0  0  0
 21 39  1  0  0  0  0
M  END
> <s_m_source_file>
AV-unprocessed.smi

> <i_m_source_file_index>
1163

> <i_lp_mmshare_version>
43012

> <i_f3d_flags>
0

> <s_epik_input>
W0NIM11PYzFbY0hdW2NIXWMoW2NIXW4xKVtOSF1DKD1PKVtOSF1bQ0BASF0yW0NIMl1bQ0gyXU4oW0NIMl0yKVtDSDJdQyhGKShGKUY=

> <s_epik_cmdline>
J2VwaWtfcHl0aG9uJywgJy1waCcsICc3LjAnLCAnLXRuJywgJzgnLCAnLW1hJywgJzIwMCcsICctbWV0YWxfYmluZGluZycsICctaW1hZScsICc8aW5maWxlLm1hZT4nLCAnLW9tYWUnLCAnPG91dGZpbGUubWFlPic=

> <r_lp_tautomer_probability>
1

> <r_epik_Ionization_Penalty>
0.0970123

> <r_epik_Ionization_Penalty_Charging>
0

> <r_epik_Ionization_Penalty_Neutral>
0.0970123

> <r_epik_State_Penalty>
0.0870533

> <r_epik_Charging_Adjusted_Penalty>
0.0870533

> <i_epik_Tot_Q>
0

> <i_epik_Tot_abs_Q>
0

> <r_epik_Metal_State_Penalty>
0.0870519

> <b_epik_Metal_Only>
0

> <s_lp_Force_Field>
OPLS_2005

> <r_lp_Energy>
33.5904

> <b_lp_Chiralities_Consistent>
1

> <s_lp_Variant>
AV-unprocessed.smi:1163-1

> <Gold.Version>
5.8.1

> <Gold.Id.Protein>
6NUR|6NUR_protein|mol2

> <Gold.PLP.Fitness>
47.2892

> <Gold.PLP.PLP>
-36.8427

> <Gold.PLP.part.hbond>
-4.0000

> <Gold.PLP.part.metal>
0.0000

> <Gold.PLP.part.buried>
-2.7483

> <Gold.PLP.part.nonpolar>
-30.6444

> <Gold.PLP.part.repulsive>
0.5306

> <Gold.PLP.ligand.clash>
0.0000

> <Gold.PLP.ligand.torsion>
0.6689

> <Gold.PLP.Chemscore.Hbond>
3.0000

> <Gold.PLP.Chemscore.CHOScore>
0.7368

> <Gold.PLP.Chemscore.Metal>
0.0000

> <Gold.Chemscore.Hbonds>
donor molecule, donor type, donor heavy atom, donor atom, acceptor molecule, acceptor atom, score
      L1  H     7    28       P1 10175  1.00
      L1  H    10    29       P1 10175  1.00
      P1  H  7989  7998       L1     2  0.48
      L1  C    21    39       P1  7948  0.74

> <Gold.PLP.Chemscore.Internal.Correction>
0.5739

> <Gold.Rescore>
     Score         DG    S(hbond)    S(metal)    S(lipo)     H(rot)  DE(clash)    DE(int)     intcor
     11.62     -15.07       1.96        0.00      62.16       1.65       0.24       3.21       ----

> <Gold.Chemscore.Fitness>
11.6172

> <Gold.Chemscore.DG>
-15.0684

> <Gold.Chemscore.ZeroCoef>
-5.4800

> <Gold.Chemscore.Hbond>
1.9592

> <Gold.Chemscore.Metal>
0.0000

> <Gold.Chemscore.Lipo>
62.1583

> <Gold.Chemscore.Internal_Hbond>
0.0000

> <Gold.Chemscore.DEClash>
0.2382

> <Gold.Chemscore.DEInternal>
3.2130

> <Gold.Chemscore.Rot>
1.6515

> <Gold.Chemscore.Internal.Correction>
   9.000000E+99

> <Gold.Chemscore.Hbonds>
donor molecule, donor type, donor heavy atom, donor atom, acceptor molecule, acceptor atom, score
      L1  H     7    28       P1 10175  0.96
      L1  H    10    29       P1 10175  0.98
      P1  H  7989  7998       L1     2  0.04

> <Gold.Chemscore.Hbond.Weighted>
-6.5437

> <Gold.Chemscore.Metal.Weighted>
-0.0000

> <Gold.Chemscore.Lipo.Weighted>
-7.2725

> <Gold.Chemscore.Internal_Hbond.Weighted>
0.0000

> <Gold.Chemscore.DEClash.Weighted>
0.2382

> <Gold.Chemscore.DEInternal.Weighted>
3.2130

> <Gold.Chemscore.Rot.Weighted>
4.2279

> <Gold.Chemscore.Internal.Correction.Weighted>
   9.000000E+99

> <Gold.Protein.RotatedTorsions>
[ 6907 6896 6895 6894 ] final  -45.44 input  -60.11 | X-H torsion
[ 7974 7965 7964 7962 ] final  111.86 input  175.53 | X-H torsion
[ 8008 7997 7996 7995 ] final  -20.13 input   59.86 | X-H torsion
[ 10167 10162 10161 10158 ] final  158.83 input  -65.29 | X-H torsion
[ 10718 10713 10712 10709 ] final  -32.82 input   66.30 | X-H torsion
[ 10763 10752 10751 10750 ] final   75.10 input  -60.55 | X-H torsion
[ 11005 11000 10999 10996 ] final  151.38 input  -57.11 | X-H torsion

> <Gold.Protein.ActiveResidues>
 VAL166  LYS551  ARG553  GLY616  TRP617  ASP618  TYR619  PRO620  LYS621  CYS622 
 ASP623  PHE694  ASN695  SER759  ASP760  ASP761  ALA762  ILE779  LEU786  VAL792 
 PHE793  MET794  SER795  GLU796  ALA797  LYS798  CYS799  TRP800  GLU811  SER814 

> <Gold.Protein.RotatedAtoms>
  150.9219  134.8637  159.7494 H   0  0  0  0  0  0  0  0  0  0  0  0  # atno 6907 bound_to 6896
  152.4997  134.4205  159.9489 H   0  0  0  0  0  0  0  0  0  0  0  0  # atno 6908 bound_to 6896
  151.4239  133.3650  159.2795 H   0  0  0  0  0  0  0  0  0  0  0  0  # atno 6909 bound_to 6896
  145.2369  139.2795  143.4138 H   0  0  0  0  0  0  0  0  0  0  0  0  # atno 7974 bound_to 7965
  154.4790  140.2070  155.9809 H   0  0  0  0  0  0  0  0  0  0  0  0  # atno 8008 bound_to 7997
  156.1135  140.3225  155.8076 H   0  0  0  0  0  0  0  0  0  0  0  0  # atno 8009 bound_to 7997
  155.4593  140.0523  157.2983 H   0  0  0  0  0  0  0  0  0  0  0  0  # atno 8010 bound_to 7997
  139.4829  144.4788  151.8474 H   0  0  0  0  0  0  0  0  0  0  0  0  # atno 10167 bound_to 10162
  156.3702  130.4338  149.7551 H   0  0  0  0  0  0  0  0  0  0  0  0  # atno 10718 bound_to 10713
  153.0631  135.5001  154.8139 H   0  0  0  0  0  0  0  0  0  0  0  0  # atno 10763 bound_to 10752
  154.6913  135.2985  154.9477 H   0  0  0  0  0  0  0  0  0  0  0  0  # atno 10764 bound_to 10752
  154.0231  135.6739  153.4827 H   0  0  0  0  0  0  0  0  0  0  0  0  # atno 10765 bound_to 10752
  140.1214  134.8861  157.2077 H   0  0  0  0  0  0  0  0  0  0  0  0  # atno 11005 bound_to 11000
  146.3338  140.2721  142.8606 LP  0  0  0  0  0  0  0  0  0  0  0  0  # atno 17320 bound_to 7965
  144.9625  140.8289  143.5505 LP  0  0  0  0  0  0  0  0  0  0  0  0  # atno 17321 bound_to 7965
  140.4262  144.2177  150.5887 LP  0  0  0  0  0  0  0  0  0  0  0  0  # atno 17342 bound_to 10162
  140.4825  143.2374  151.8935 LP  0  0  0  0  0  0  0  0  0  0  0  0  # atno 17343 bound_to 10162
  156.4681  130.7984  151.3002 LP  0  0  0  0  0  0  0  0  0  0  0  0  # atno 17370 bound_to 10713
  157.7483  131.0044  150.3076 LP  0  0  0  0  0  0  0  0  0  0  0  0  # atno 17371 bound_to 10713
  140.2961  134.3185  155.7302 LP  0  0  0  0  0  0  0  0  0  0  0  0  # atno 17394 bound_to 11000
  141.2152  133.7563  156.9573 LP  0  0  0  0  0  0  0  0  0  0  0  0  # atno 17395 bound_to 11000

$$$$
