AV-unprocessed.smi:948|AV-procd|sdf|4241|dock1
  -GOLD-   22720 2153D 1   1.00000     0.00000
 Structure written by MMmdl.
 19 19  0  0  0  0  0  0  0  0  3 V2000
  142.2924  132.4512  148.3008 N   0  3  0  0  0  0  0  0  0  0  0  0
  143.6918  132.5985  148.7374 C   0  0  0  0  0  0  0  0  0  0  0  0
  143.8263  132.4363  150.2590 C   0  0  0  0  0  0  0  0  0  0  0  0
  145.1203  132.9872  150.7635 C   0  0  0  0  0  0  0  0  0  0  0  0
  145.6609  134.2480  150.6933 C   0  0  0  0  0  0  0  0  0  0  0  0
  146.8764  134.1972  151.3215 N   0  0  0  0  0  0  0  0  0  0  0  0
  147.1065  132.9621  151.7742 C   0  0  0  0  0  0  0  0  0  0  0  0
  146.0425  132.2260  151.4378 N   0  3  0  0  0  0  0  0  0  0  0  0
  147.5119  134.9786  151.4274 H   0  0  0  0  0  0  0  0  0  0  0  0
  142.2439  132.5227  147.2941 H   0  0  0  0  0  0  0  0  0  0  0  0
  141.7270  133.1790  148.7145 H   0  0  0  0  0  0  0  0  0  0  0  0
  144.2973  131.8522  148.2218 H   0  0  0  0  0  0  0  0  0  0  0  0
  144.0531  133.5788  148.4245 H   0  0  0  0  0  0  0  0  0  0  0  0
  143.0050  132.9417  150.7690 H   0  0  0  0  0  0  0  0  0  0  0  0
  143.7651  131.3820  150.5324 H   0  0  0  0  0  0  0  0  0  0  0  0
  145.2800  135.1576  150.2510 H   0  0  0  0  0  0  0  0  0  0  0  0
  147.9794  132.6253  152.3046 H   0  0  0  0  0  0  0  0  0  0  0  0
  141.9399  131.5489  148.5876 H   0  0  0  0  0  0  0  0  0  0  0  0
  145.9404  131.2411  151.6492 H   0  0  0  0  0  0  0  0  0  0  0  0
  1  2  1  0  0  0  0
  1 10  1  0  0  0  0
  1 11  1  0  0  0  0
  1 18  1  0  0  0  0
  2  3  1  0  0  0  0
  2 12  1  0  0  0  0
  2 13  1  0  0  0  0
  3  4  1  0  0  0  0
  3 14  1  0  0  0  0
  3 15  1  0  0  0  0
  4  8  1  0  0  0  0
  4  5  2  0  0  0  0
  5  6  1  0  0  0  0
  5 16  1  0  0  0  0
  6  9  1  0  0  0  0
  6  7  1  0  0  0  0
  7  8  2  0  0  0  0
  7 17  1  0  0  0  0
  8 19  1  0  0  0  0
M  CHG  1   1   1
M  CHG  1   8   1
M  END
> <s_m_source_file>
AV-unprocessed.smi

> <i_m_source_file_index>
948

> <i_lp_mmshare_version>
43012

> <i_f3d_flags>
0

> <s_epik_input>
W05IMl1bQ0gyXVtDSDJdYzFbY0hdW25IXVtjSF1uMQ==

> <s_epik_cmdline>
J2VwaWtfcHl0aG9uJywgJy1waCcsICc3LjAnLCAnLXRuJywgJzgnLCAnLW1hJywgJzIwMCcsICctbWV0YWxfYmluZGluZycsICctaW1hZScsICc8aW5maWxlLm1hZT4nLCAnLW9tYWUnLCAnPG91dGZpbGUubWFlPic=

> <r_lp_tautomer_probability>
1

> <r_epik_Ionization_Penalty>
2.37896

> <r_epik_Ionization_Penalty_Charging>
0.0086666

> <r_epik_Ionization_Penalty_Neutral>
2.3703

> <r_epik_State_Penalty>
1.3316

> <r_epik_Charging_Adjusted_Penalty>
1.34027

> <i_epik_Tot_Q>
2

> <i_epik_Tot_abs_Q>
2

> <r_epik_Metal_State_Penalty>
5.35027

> <b_epik_Metal_Only>
0

> <s_lp_Force_Field>
OPLS_2005

> <r_lp_Energy>
12.2927

> <b_lp_Chiralities_Consistent>
1

> <s_lp_Variant>
AV-unprocessed.smi:948-3

> <Gold.Version>
5.8.1

> <Gold.Id.Protein>
6NUR|6NUR_protein|mol2

> <Gold.PLP.Fitness>
38.7248

> <Gold.PLP.PLP>
-20.8768

> <Gold.PLP.part.hbond>
-4.0000

> <Gold.PLP.part.metal>
0.0000

> <Gold.PLP.part.buried>
-3.2782

> <Gold.PLP.part.nonpolar>
-13.2361

> <Gold.PLP.part.repulsive>
0.2795

> <Gold.PLP.ligand.clash>
0.0000

> <Gold.PLP.ligand.torsion>
0.0762

> <Gold.PLP.Chemscore.Hbond>
6.0000

> <Gold.PLP.Chemscore.CHOScore>
0.0000

> <Gold.PLP.Chemscore.Metal>
0.0000

> <Gold.Chemscore.Hbonds>
donor molecule, donor type, donor heavy atom, donor atom, acceptor molecule, acceptor atom, score
      L1  H     1    10       P1 10195  1.00
      L1  H     1    11       P1 10186  2.00
      L1  H     1    18       P1 10952  1.00
      L1  H     6     9       P1  7948  2.00

> <Gold.PLP.Chemscore.Internal.Correction>
0.0003

> <Gold.Rescore>
     Score         DG    S(hbond)    S(metal)    S(lipo)     H(rot)  DE(clash)    DE(int)     intcor
     18.55     -18.65       3.85        0.00      36.32       1.53       0.00       0.10       ----

> <Gold.Chemscore.Fitness>
18.5506

> <Gold.Chemscore.DG>
-18.6547

> <Gold.Chemscore.ZeroCoef>
-5.4800

> <Gold.Chemscore.Hbond>
3.8485

> <Gold.Chemscore.Metal>
0.0000

> <Gold.Chemscore.Lipo>
36.3187

> <Gold.Chemscore.Internal_Hbond>
0.0000

> <Gold.Chemscore.DEClash>
0.0000

> <Gold.Chemscore.DEInternal>
0.1042

> <Gold.Chemscore.Rot>
1.5345

> <Gold.Chemscore.Internal.Correction>
   9.000000E+99

> <Gold.Chemscore.Hbonds>
donor molecule, donor type, donor heavy atom, donor atom, acceptor molecule, acceptor atom, score
      L1  H     1    10       P1 10195  0.99
      L1  H     1    11       P1 10186  1.00
      L1  H     1    18       P1 10952  0.98
      L1  H     6     9       P1  7948  0.50

> <Gold.Chemscore.Hbond.Weighted>
-12.8538

> <Gold.Chemscore.Metal.Weighted>
-0.0000

> <Gold.Chemscore.Lipo.Weighted>
-4.2493

> <Gold.Chemscore.Internal_Hbond.Weighted>
0.0000

> <Gold.Chemscore.DEClash.Weighted>
0.0000

> <Gold.Chemscore.DEInternal.Weighted>
0.1042

> <Gold.Chemscore.Rot.Weighted>
3.9284

> <Gold.Chemscore.Internal.Correction.Weighted>
   9.000000E+99

> <Gold.Protein.RotatedTorsions>
[ 6907 6896 6895 6894 ] final  130.49 input  -60.11 | X-H torsion
[ 7974 7965 7964 7962 ] final   43.66 input  175.53 | X-H torsion
[ 8008 7997 7996 7995 ] final -122.80 input   59.86 | X-H torsion
[ 10167 10162 10161 10158 ] final  -86.71 input  -65.29 | X-H torsion
[ 10718 10713 10712 10709 ] final   19.01 input   66.30 | X-H torsion
[ 10763 10752 10751 10750 ] final  128.62 input  -60.55 | X-H torsion
[ 11005 11000 10999 10996 ] final  -15.27 input  -57.11 | X-H torsion

> <Gold.Protein.ActiveResidues>
 VAL166  LYS551  ARG553  GLY616  TRP617  ASP618  TYR619  PRO620  LYS621  CYS622 
 ASP623  PHE694  ASN695  SER759  ASP760  ASP761  ALA762  ILE779  LEU786  VAL792 
 PHE793  MET794  SER795  GLU796  ALA797  LYS798  CYS799  TRP800  GLU811  SER814 

> <Gold.Protein.RotatedAtoms>
  152.3521  133.6192  159.5952 H   0  0  0  0  0  0  0  0  0  0  0  0  # atno 6907 bound_to 6896
  150.7544  133.9558  159.3509 H   0  0  0  0  0  0  0  0  0  0  0  0  # atno 6908 bound_to 6896
  151.7408  135.0855  160.0366 H   0  0  0  0  0  0  0  0  0  0  0  0  # atno 6909 bound_to 6896
  146.0636  139.5162  142.9642 H   0  0  0  0  0  0  0  0  0  0  0  0  # atno 7974 bound_to 7965
  155.1701  140.0408  157.2861 H   0  0  0  0  0  0  0  0  0  0  0  0  # atno 8008 bound_to 7997
  154.6275  140.2516  155.7446 H   0  0  0  0  0  0  0  0  0  0  0  0  # atno 8009 bound_to 7997
  156.2467  140.2882  156.0612 H   0  0  0  0  0  0  0  0  0  0  0  0  # atno 8010 bound_to 7997
  140.3915  143.2702  151.9258 H   0  0  0  0  0  0  0  0  0  0  0  0  # atno 10167 bound_to 10162
  157.1043  130.6481  149.5880 H   0  0  0  0  0  0  0  0  0  0  0  0  # atno 10718 bound_to 10713
  153.7284  135.3242  155.3281 H   0  0  0  0  0  0  0  0  0  0  0  0  # atno 10763 bound_to 10752
  154.8334  135.4516  154.1146 H   0  0  0  0  0  0  0  0  0  0  0  0  # atno 10764 bound_to 10752
  153.2287  135.6957  153.7996 H   0  0  0  0  0  0  0  0  0  0  0  0  # atno 10765 bound_to 10752
  140.7949  133.8259  155.9415 H   0  0  0  0  0  0  0  0  0  0  0  0  # atno 11005 bound_to 11000
  145.6516  141.0261  143.1757 LP  0  0  0  0  0  0  0  0  0  0  0  0  # atno 17320 bound_to 7965
  144.7189  139.8098  143.7389 LP  0  0  0  0  0  0  0  0  0  0  0  0  # atno 17321 bound_to 7965
  139.4789  144.5723  151.8069 LP  0  0  0  0  0  0  0  0  0  0  0  0  # atno 17342 bound_to 10162
  140.4835  144.1415  150.5937 LP  0  0  0  0  0  0  0  0  0  0  0  0  # atno 17343 bound_to 10162
  155.9866  130.4901  150.7085 LP  0  0  0  0  0  0  0  0  0  0  0  0  # atno 17370 bound_to 10713
  157.4614  131.0883  151.0742 LP  0  0  0  0  0  0  0  0  0  0  0  0  # atno 17371 bound_to 10713
  140.9352  134.1971  157.4836 LP  0  0  0  0  0  0  0  0  0  0  0  0  # atno 17394 bound_to 11000
  139.8727  134.9849  156.5260 LP  0  0  0  0  0  0  0  0  0  0  0  0  # atno 17395 bound_to 11000

$$$$
