AV-unprocessed.smi:2531|AV-procd|sdf|9964|dock8
  -GOLD-   2272014 03D 1   1.00000     0.00000
 Structure written by MMmdl.
 46 48  0  0  0  0  0  0  0  0  1 V2000
  149.9082  143.2059  158.2389 O   0  0  0  0  0  0  0  0  0  0  0  0
  150.9838  142.6083  158.2937 C   0  0  0  0  0  0  0  0  0  0  0  0
  152.2908  143.3443  158.6681 C   0  0  0  0  0  0  0  0  0  0  0  0
  152.8493  142.9539  160.0472 C   0  0  0  0  0  0  0  0  0  0  0  0
  152.1319  143.8550  161.0613 C   0  0  0  0  0  0  0  0  0  0  0  0
  151.6177  145.0671  160.2695 C   0  0  0  0  0  0  0  0  0  0  0  0
  152.0754  144.8582  158.8203 C   0  0  0  0  0  0  0  0  0  0  0  0
  151.0523  141.2254  158.0981 N   0  0  0  0  0  0  0  0  0  0  0  0
  150.2653  140.5494  157.0777 C   0  0  0  0  0  0  0  0  0  0  0  0
  151.4019  139.5213  157.0458 C   0  0  0  0  0  0  0  0  0  0  0  0
  151.8949  139.0573  155.3267 S   0  0  0  0  0  0  0  0  0  0  0  0
  150.8690  139.5572  154.3984 O   0  0  0  0  0  0  0  0  0  0  0  0
  153.3101  139.3901  155.1020 O   0  0  0  0  0  0  0  0  0  0  0  0
  151.7704  137.3392  155.3597 N   0  0  0  0  0  0  0  0  0  0  0  0
  150.4457  136.7562  155.5624 C   0  0  0  0  0  0  0  0  0  0  0  0
  150.5660  135.2652  155.9050 C   0  0  0  0  0  0  0  0  0  0  0  0
  149.6239  134.4093  155.0798 C   0  0  0  0  0  0  0  0  0  0  0  0
  149.9533  133.0740  154.7628 C   0  0  0  0  0  0  0  0  0  0  0  0
  149.0399  132.3211  153.9995 C   0  0  0  0  0  0  0  0  0  0  0  0
  147.8386  132.9284  153.5860 C   0  0  0  0  0  0  0  0  0  0  0  0
  147.6028  134.2676  153.9559 C   0  0  0  0  0  0  0  0  0  0  0  0
  148.4719  134.9985  154.6869 N   0  0  0  0  0  0  0  0  0  0  0  0
  152.2961  140.5790  157.7080 C   0  0  0  0  0  0  0  0  0  0  0  0
  153.0368  143.1337  157.9016 H   0  0  0  0  0  0  0  0  0  0  0  0
  152.7406  141.8946  160.2844 H   0  0  0  0  0  0  0  0  0  0  0  0
  153.9188  143.1681  160.0688 H   0  0  0  0  0  0  0  0  0  0  0  0
  151.2920  143.3237  161.5106 H   0  0  0  0  0  0  0  0  0  0  0  0
  152.8006  144.1503  161.8705 H   0  0  0  0  0  0  0  0  0  0  0  0
  150.5286  145.0998  160.3163 H   0  0  0  0  0  0  0  0  0  0  0  0
  151.9894  146.0090  160.6737 H   0  0  0  0  0  0  0  0  0  0  0  0
  153.0241  145.3719  158.6599 H   0  0  0  0  0  0  0  0  0  0  0  0
  151.3652  145.2759  158.1053 H   0  0  0  0  0  0  0  0  0  0  0  0
  149.3108  140.1609  157.4342 H   0  0  0  0  0  0  0  0  0  0  0  0
  150.1709  141.1180  156.1503 H   0  0  0  0  0  0  0  0  0  0  0  0
  151.2036  138.6441  157.6641 H   0  0  0  0  0  0  0  0  0  0  0  0
  152.2246  136.9301  154.5434 H   0  0  0  0  0  0  0  0  0  0  0  0
  149.9358  137.2917  156.3640 H   0  0  0  0  0  0  0  0  0  0  0  0
  149.8566  136.8909  154.6544 H   0  0  0  0  0  0  0  0  0  0  0  0
  151.5888  134.9234  155.7391 H   0  0  0  0  0  0  0  0  0  0  0  0
  150.3583  135.1080  156.9645 H   0  0  0  0  0  0  0  0  0  0  0  0
  150.8819  132.6346  155.0966 H   0  0  0  0  0  0  0  0  0  0  0  0
  149.2566  131.2962  153.7369 H   0  0  0  0  0  0  0  0  0  0  0  0
  147.1147  132.3812  153.0004 H   0  0  0  0  0  0  0  0  0  0  0  0
  146.6919  134.7649  153.6568 H   0  0  0  0  0  0  0  0  0  0  0  0
  152.8909  141.1745  157.0133 H   0  0  0  0  0  0  0  0  0  0  0  0
  152.8831  140.2115  158.5500 H   0  0  0  0  0  0  0  0  0  0  0  0
  1  2  2  0  0  0  0
  2  3  1  0  0  0  0
  2  8  1  0  0  0  0
  3  7  1  0  0  0  0
  3  4  1  0  0  0  0
  3 24  1  0  0  0  0
  4  5  1  0  0  0  0
  4 25  1  0  0  0  0
  4 26  1  0  0  0  0
  5  6  1  0  0  0  0
  5 27  1  0  0  0  0
  5 28  1  0  0  0  0
  6  7  1  0  0  0  0
  6 29  1  0  0  0  0
  6 30  1  0  0  0  0
  7 31  1  0  0  0  0
  7 32  1  0  0  0  0
  8 23  1  0  0  0  0
  8  9  1  0  0  0  0
  9 10  1  0  0  0  0
  9 33  1  0  0  0  0
  9 34  1  0  0  0  0
 10 11  1  0  0  0  0
 10 23  1  0  0  0  0
 10 35  1  0  0  0  0
 11 12  2  0  0  0  0
 11 13  2  0  0  0  0
 11 14  1  0  0  0  0
 14 15  1  0  0  0  0
 14 36  1  0  0  0  0
 15 16  1  0  0  0  0
 15 37  1  0  0  0  0
 15 38  1  0  0  0  0
 16 17  1  0  0  0  0
 16 39  1  0  0  0  0
 16 40  1  0  0  0  0
 17 22  1  0  0  0  0
 17 18  2  0  0  0  0
 18 19  1  0  0  0  0
 18 41  1  0  0  0  0
 19 20  2  0  0  0  0
 19 42  1  0  0  0  0
 20 21  1  0  0  0  0
 20 43  1  0  0  0  0
 21 22  2  0  0  0  0
 21 44  1  0  0  0  0
 23 45  1  0  0  0  0
 23 46  1  0  0  0  0
M  END
> <s_m_source_file>
AV-unprocessed.smi

> <i_m_source_file_index>
2531

> <i_lp_mmshare_version>
43012

> <i_f3d_flags>
0

> <s_epik_input>
W0NIMl0xW0NIMl1bQ0gyXVtDSDJdW0NIXTFDKD1PKU4yW0NIMl1bQ0hdKFtDSDJdMilTKD1PKSg9TylbTkhdW0NIMl1bQ0gyXWMzW2NIXVtjSF1bY0hdW2NIXW4z

> <s_epik_cmdline>
J2VwaWtfcHl0aG9uJywgJy1waCcsICc3LjAnLCAnLXRuJywgJzgnLCAnLW1hJywgJzIwMCcsICctbWV0YWxfYmluZGluZycsICctaW1hZScsICc8aW5maWxlLm1hZT4nLCAnLW9tYWUnLCAnPG91dGZpbGUubWFlPic=

> <r_epik_Ionization_Penalty>
0.0203172

> <r_epik_Ionization_Penalty_Charging>
0

> <r_epik_Ionization_Penalty_Neutral>
0.0203172

> <r_epik_State_Penalty>
0.0162494

> <r_epik_Charging_Adjusted_Penalty>
0.0162494

> <i_epik_Tot_Q>
0

> <i_epik_Tot_abs_Q>
0

> <r_epik_Metal_State_Penalty>
0.0444853

> <b_epik_Metal_Only>
0

> <s_lp_Force_Field>
OPLS_2005

> <r_lp_Energy>
30.9959

> <b_lp_Chiralities_Consistent>
1

> <s_lp_Variant>
AV-unprocessed.smi:2531-1

> <Gold.Version>
5.8.1

> <Gold.Id.Protein>
6NUR|6NUR_protein|mol2

> <Gold.PLP.Fitness>
52.9446

> <Gold.PLP.PLP>
-48.8034

> <Gold.PLP.part.hbond>
-3.0503

> <Gold.PLP.part.metal>
0.0000

> <Gold.PLP.part.buried>
-6.2685

> <Gold.PLP.part.nonpolar>
-40.0731

> <Gold.PLP.part.repulsive>
0.5769

> <Gold.PLP.ligand.clash>
0.0000

> <Gold.PLP.ligand.torsion>
1.6857

> <Gold.PLP.Chemscore.Hbond>
1.9440

> <Gold.PLP.Chemscore.CHOScore>
0.0000

> <Gold.PLP.Chemscore.Metal>
0.0000

> <Gold.Chemscore.Hbonds>
donor molecule, donor type, donor heavy atom, donor atom, acceptor molecule, acceptor atom, score
      P1  H  7989  7998       L1    12  1.00
      P1  H  7997  8009       L1    13  0.96

> <Gold.PLP.Chemscore.Internal.Correction>
1.6807

> <Gold.Rescore>
     Score         DG    S(hbond)    S(metal)    S(lipo)     H(rot)  DE(clash)    DE(int)     intcor
     18.11     -19.83       1.79        0.00     111.88       1.85       0.03       1.69       ----

> <Gold.Chemscore.Fitness>
18.1121

> <Gold.Chemscore.DG>
-19.8286

> <Gold.Chemscore.ZeroCoef>
-5.4800

> <Gold.Chemscore.Hbond>
1.7944

> <Gold.Chemscore.Metal>
0.0000

> <Gold.Chemscore.Lipo>
111.8795

> <Gold.Chemscore.Internal_Hbond>
0.0000

> <Gold.Chemscore.DEClash>
0.0277

> <Gold.Chemscore.DEInternal>
1.6888

> <Gold.Chemscore.Rot>
1.8494

> <Gold.Chemscore.Internal.Correction>
   9.000000E+99

> <Gold.Chemscore.Hbonds>
donor molecule, donor type, donor heavy atom, donor atom, acceptor molecule, acceptor atom, score
      P1  H  7989  7998       L1    12  0.55
      P1  H  7997  8009       L1    13  0.92

> <Gold.Chemscore.Hbond.Weighted>
-5.9932

> <Gold.Chemscore.Metal.Weighted>
-0.0000

> <Gold.Chemscore.Lipo.Weighted>
-13.0899

> <Gold.Chemscore.Internal_Hbond.Weighted>
0.0000

> <Gold.Chemscore.DEClash.Weighted>
0.0277

> <Gold.Chemscore.DEInternal.Weighted>
1.6888

> <Gold.Chemscore.Rot.Weighted>
4.7346

> <Gold.Chemscore.Internal.Correction.Weighted>
   9.000000E+99

> <Gold.Protein.RotatedTorsions>
[ 6907 6896 6895 6894 ] final -148.39 input  -60.11 | X-H torsion
[ 7974 7965 7964 7962 ] final -123.13 input  175.53 | X-H torsion
[ 8008 7997 7996 7995 ] final -155.63 input   59.86 | X-H torsion
[ 10167 10162 10161 10158 ] final  123.91 input  -65.29 | X-H torsion
[ 10718 10713 10712 10709 ] final -167.84 input   66.30 | X-H torsion
[ 10763 10752 10751 10750 ] final   51.54 input  -60.55 | X-H torsion
[ 11005 11000 10999 10996 ] final  147.86 input  -57.11 | X-H torsion

> <Gold.Protein.ActiveResidues>
 VAL166  LYS551  ARG553  GLY616  TRP617  ASP618  TYR619  PRO620  LYS621  CYS622 
 ASP623  PHE694  ASN695  SER759  ASP760  ASP761  ALA762  ILE779  LEU786  VAL792 
 PHE793  MET794  SER795  GLU796  ALA797  LYS798  CYS799  TRP800  GLU811  SER814 

> <Gold.Protein.RotatedAtoms>
  151.1691  133.4796  159.2593 H   0  0  0  0  0  0  0  0  0  0  0  0  # atno 6907 bound_to 6896
  151.1374  135.0162  159.8620 H   0  0  0  0  0  0  0  0  0  0  0  0  # atno 6908 bound_to 6896
  152.5461  134.1588  159.8602 H   0  0  0  0  0  0  0  0  0  0  0  0  # atno 6909 bound_to 6896
  145.0220  140.7996  143.4375 H   0  0  0  0  0  0  0  0  0  0  0  0  # atno 7974 bound_to 7965
  155.7047  140.0771  157.2396 H   0  0  0  0  0  0  0  0  0  0  0  0  # atno 8008 bound_to 7997
  154.4067  140.1641  156.2283 H   0  0  0  0  0  0  0  0  0  0  0  0  # atno 8009 bound_to 7997
  155.9336  140.3389  155.6272 H   0  0  0  0  0  0  0  0  0  0  0  0  # atno 8010 bound_to 7997
  139.5772  144.6969  151.3623 H   0  0  0  0  0  0  0  0  0  0  0  0  # atno 10167 bound_to 10162
  156.6882  130.9149  151.3065 H   0  0  0  0  0  0  0  0  0  0  0  0  # atno 10718 bound_to 10713
  152.9785  135.5842  154.4432 H   0  0  0  0  0  0  0  0  0  0  0  0  # atno 10763 bound_to 10752
  154.4031  135.2769  155.2086 H   0  0  0  0  0  0  0  0  0  0  0  0  # atno 10764 bound_to 10752
  154.3908  135.6125  153.5896 H   0  0  0  0  0  0  0  0  0  0  0  0  # atno 10765 bound_to 10752
  140.0911  134.9040  157.1652 H   0  0  0  0  0  0  0  0  0  0  0  0  # atno 11005 bound_to 11000
  145.1883  139.2315  143.5256 LP  0  0  0  0  0  0  0  0  0  0  0  0  # atno 17320 bound_to 7965
  146.3487  140.1673  142.8590 LP  0  0  0  0  0  0  0  0  0  0  0  0  # atno 17321 bound_to 7965
  140.7053  143.7528  150.7472 LP  0  0  0  0  0  0  0  0  0  0  0  0  # atno 17342 bound_to 10162
  140.1051  143.4751  152.2403 LP  0  0  0  0  0  0  0  0  0  0  0  0  # atno 17343 bound_to 10162
  157.7019  130.9342  150.0810 LP  0  0  0  0  0  0  0  0  0  0  0  0  # atno 17370 bound_to 10713
  156.1817  130.3650  149.9026 LP  0  0  0  0  0  0  0  0  0  0  0  0  # atno 17371 bound_to 10713
  140.3350  134.2767  155.7221 LP  0  0  0  0  0  0  0  0  0  0  0  0  # atno 17394 bound_to 11000
  141.2078  133.7795  157.0097 LP  0  0  0  0  0  0  0  0  0  0  0  0  # atno 17395 bound_to 11000

$$$$
