AV-unprocessed.smi:278|AV-procd|sdf|2090|dock2
  -GOLD-   2262021363D 1   1.00000     0.00000
 Structure written by MMmdl.
 50 54  0  0  0  0  0  0  0  0  1 V2000
  150.0831  144.0834  160.3997 O   0  0  0  0  0  0  0  0  0  0  0  0
  151.3533  144.8118  160.5411 S   0  0  0  0  0  0  0  0  0  0  0  0
  151.3836  146.2805  160.6093 O   0  0  0  0  0  0  0  0  0  0  0  0
  152.2942  144.1029  161.9324 C   0  0  0  0  0  0  0  0  0  0  0  0
  152.8851  142.7956  161.3846 C   0  0  0  0  0  0  0  0  0  0  0  0
  153.1537  142.9270  159.8620 C   0  0  1  0  0  0  0  0  0  0  0  0
  152.5119  141.8235  159.0145 C   0  0  0  0  0  0  0  0  0  0  0  0
  152.2623  142.4345  157.7189 N   0  0  0  0  0  0  0  0  0  0  0  0
  151.4310  141.7474  156.9073 C   0  0  0  0  0  0  0  0  0  0  0  0
  150.1856  142.2536  156.7365 N   0  0  0  0  0  0  0  0  0  0  0  0
  149.3085  141.6201  155.9517 C   0  0  0  0  0  0  0  0  0  0  0  0
  149.4705  140.4896  155.2605 N   0  0  0  0  0  0  0  0  0  0  0  0
  150.7240  139.9794  155.4302 C   0  0  0  0  0  0  0  0  0  0  0  0
  151.7600  140.5387  156.2294 C   0  0  0  0  0  0  0  0  0  0  0  0
  152.8945  139.7387  156.1602 N   0  0  0  0  0  0  0  0  0  0  0  0
  152.5489  138.7615  155.3676 C   0  0  0  0  0  0  0  0  0  0  0  0
  151.2614  138.8265  154.8857 N   0  0  0  0  0  0  0  0  0  0  0  0
  150.6189  137.8745  153.9970 C   0  0  0  0  0  0  0  0  0  0  0  0
  150.3259  136.5304  154.6913 C   0  0  1  0  0  0  0  0  0  0  0  0
  151.5279  135.8311  154.9540 O   0  0  0  0  0  0  0  0  0  0  0  0
  149.4962  136.6936  155.9817 C   0  0  1  0  0  0  0  0  0  0  0  0
  149.1411  135.4066  156.7337 C   0  0  0  0  0  0  0  0  0  0  0  0
  148.9400  135.9280  158.1393 C   0  0  0  0  0  0  0  0  0  0  0  0
  150.0330  136.9891  158.2326 C   0  0  0  0  0  0  0  0  0  0  0  0
  150.1392  137.5473  156.9264 O   0  0  0  0  0  0  0  0  0  0  0  0
  151.8923  143.8238  157.9523 C   0  0  0  0  0  0  0  0  0  0  0  0
  152.5442  144.2139  159.2861 C   0  0  1  0  0  0  0  0  0  0  0  0
  154.2280  142.9418  159.6721 H   0  0  0  0  0  0  0  0  0  0  0  0
  153.3127  144.9766  159.1559 H   0  0  0  0  0  0  0  0  0  0  0  0
  153.0860  144.8048  162.1947 H   0  0  0  0  0  0  0  0  0  0  0  0
  151.6464  143.9594  162.7973 H   0  0  0  0  0  0  0  0  0  0  0  0
  153.7921  142.5214  161.9236 H   0  0  0  0  0  0  0  0  0  0  0  0
  152.1693  141.9934  161.5661 H   0  0  0  0  0  0  0  0  0  0  0  0
  153.1682  140.9579  158.9207 H   0  0  0  0  0  0  0  0  0  0  0  0
  151.5754  141.4874  159.4601 H   0  0  0  0  0  0  0  0  0  0  0  0
  148.3371  142.0843  155.8662 H   0  0  0  0  0  0  0  0  0  0  0  0
  153.2266  137.9592  155.1141 H   0  0  0  0  0  0  0  0  0  0  0  0
  149.6992  138.3192  153.6149 H   0  0  0  0  0  0  0  0  0  0  0  0
  151.2700  137.7194  153.1359 H   0  0  0  0  0  0  0  0  0  0  0  0
  149.7524  135.9071  154.0041 H   0  0  0  0  0  0  0  0  0  0  0  0
  151.3254  134.9132  155.0514 H   0  0  0  0  0  0  0  0  0  0  0  0
  148.5611  137.1933  155.7240 H   0  0  0  0  0  0  0  0  0  0  0  0
  148.2588  134.9089  156.3310 H   0  0  0  0  0  0  0  0  0  0  0  0
  149.9659  134.6933  156.7268 H   0  0  0  0  0  0  0  0  0  0  0  0
  147.9563  136.3900  158.2326 H   0  0  0  0  0  0  0  0  0  0  0  0
  149.0302  135.1540  158.9018 H   0  0  0  0  0  0  0  0  0  0  0  0
  149.8146  137.7534  158.9787 H   0  0  0  0  0  0  0  0  0  0  0  0
  150.9873  136.5278  158.4898 H   0  0  0  0  0  0  0  0  0  0  0  0
  152.2786  144.4427  157.1419 H   0  0  0  0  0  0  0  0  0  0  0  0
  150.8112  143.9604  157.9759 H   0  0  0  0  0  0  0  0  0  0  0  0
  1  2  2  0  0  0  0
  2 27  1  0  0  0  0
  2  3  2  0  0  0  0
  2  4  1  0  0  0  0
  4  5  1  0  0  0  0
  4 30  1  0  0  0  0
  4 31  1  0  0  0  0
  5  6  1  0  0  0  0
  5 32  1  0  0  0  0
  5 33  1  0  0  0  0
  6 28  1  0  0  0  0
  6 27  1  0  0  0  0
  6  7  1  0  0  0  0
  7  8  1  0  0  0  0
  7 34  1  0  0  0  0
  7 35  1  0  0  0  0
  8  9  1  0  0  0  0
  8 26  1  0  0  0  0
  9 14  1  0  0  0  0
  9 10  2  0  0  0  0
 10 11  1  0  0  0  0
 11 12  2  0  0  0  0
 11 36  1  0  0  0  0
 12 13  1  0  0  0  0
 13 17  1  0  0  0  0
 13 14  2  0  0  0  0
 14 15  1  0  0  0  0
 15 16  2  0  0  0  0
 16 17  1  0  0  0  0
 16 37  1  0  0  0  0
 17 18  1  0  0  0  0
 18 19  1  0  0  0  0
 18 38  1  0  0  0  0
 18 39  1  0  0  0  0
 19 20  1  0  0  0  0
 19 21  1  0  0  0  0
 19 40  1  0  0  0  0
 20 41  1  0  0  0  0
 21 25  1  0  0  0  0
 21 22  1  0  0  0  0
 21 42  1  0  0  0  0
 22 23  1  0  0  0  0
 22 43  1  0  0  0  0
 22 44  1  0  0  0  0
 23 24  1  0  0  0  0
 23 45  1  0  0  0  0
 23 46  1  0  0  0  0
 24 25  1  0  0  0  0
 24 47  1  0  0  0  0
 24 48  1  0  0  0  0
 26 27  1  0  0  0  0
 26 49  1  0  0  0  0
 26 50  1  0  0  0  0
 27 29  1  0  0  0  0
M  END
> <s_m_source_file>
AV-unprocessed.smi

> <i_m_source_file_index>
278

> <i_lp_mmshare_version>
43012

> <i_f3d_flags>
0

> <s_epik_input>
W0NIMl0xW0NIMl1TKD1PKSg9TylbQ0BASF0oW0NAQEhdMTIpW0NIMl1OKFtDSDJdMiljKG5bY0hdbjMpYyhjMzQpbltjSF1uNFtDSDJdW0NASF0oW09IXSlbQ0BASF01W0NIMl1bQ0gyXVtDSDJdTzU=

> <s_epik_cmdline>
J2VwaWtfcHl0aG9uJywgJy1waCcsICc3LjAnLCAnLXRuJywgJzgnLCAnLW1hJywgJzIwMCcsICctbWV0YWxfYmluZGluZycsICctaW1hZScsICc8aW5maWxlLm1hZT4nLCAnLW9tYWUnLCAnPG91dGZpbGUubWFlPic=

> <r_lp_tautomer_probability>
1

> <r_epik_Ionization_Penalty>
0.000636766

> <r_epik_Ionization_Penalty_Charging>
0

> <r_epik_Ionization_Penalty_Neutral>
0.000636766

> <r_epik_State_Penalty>
0.000329976

> <r_epik_Charging_Adjusted_Penalty>
0.000329976

> <i_epik_Tot_Q>
0

> <i_epik_Tot_abs_Q>
0

> <r_epik_Metal_State_Penalty>
-0

> <b_epik_Metal_Only>
0

> <s_lp_Force_Field>
OPLS_2005

> <r_lp_Energy>
54.1016

> <b_lp_Chiralities_Consistent>
1

> <s_lp_Variant>
AV-unprocessed.smi:278-4

> <Gold.Version>
5.8.1

> <Gold.Id.Protein>
6NUR|6NUR_protein|mol2

> <Gold.PLP.Fitness>
49.3787

> <Gold.PLP.PLP>
-43.3001

> <Gold.PLP.part.hbond>
-4.3319

> <Gold.PLP.part.metal>
0.0000

> <Gold.PLP.part.buried>
0.4303

> <Gold.PLP.part.nonpolar>
-41.4939

> <Gold.PLP.part.repulsive>
2.2848

> <Gold.PLP.ligand.clash>
0.0000

> <Gold.PLP.ligand.torsion>
0.5631

> <Gold.PLP.Chemscore.Hbond>
2.0000

> <Gold.PLP.Chemscore.CHOScore>
0.3759

> <Gold.PLP.Chemscore.Metal>
0.0000

> <Gold.Chemscore.Hbonds>
donor molecule, donor type, donor heavy atom, donor atom, acceptor molecule, acceptor atom, score
      P1  H  7997  8010       L1    15  0.96
      P1  H 10752 10764       L1    20  0.51
      L1  C    11    36       P1  8028  0.30

> <Gold.PLP.Chemscore.Internal.Correction>
0.0771

> <Gold.Rescore>
     Score         DG    S(hbond)    S(metal)    S(lipo)     H(rot)  DE(clash)    DE(int)     intcor
     12.04     -16.53       1.76        0.00      98.04       2.46       2.42       2.07       ----

> <Gold.Chemscore.Fitness>
12.0385

> <Gold.Chemscore.DG>
-16.5266

> <Gold.Chemscore.ZeroCoef>
-5.4800

> <Gold.Chemscore.Hbond>
1.7611

> <Gold.Chemscore.Metal>
0.0000

> <Gold.Chemscore.Lipo>
98.0447

> <Gold.Chemscore.Internal_Hbond>
0.0000

> <Gold.Chemscore.DEClash>
2.4155

> <Gold.Chemscore.DEInternal>
2.0725

> <Gold.Chemscore.Rot>
2.4636

> <Gold.Chemscore.Internal.Correction>
   9.000000E+99

> <Gold.Chemscore.Hbonds>
donor molecule, donor type, donor heavy atom, donor atom, acceptor molecule, acceptor atom, score
      P1  H  7997  8010       L1    15  0.86
      P1  H 10752 10764       L1    20  0.03

> <Gold.Chemscore.Hbond.Weighted>
-5.8822

> <Gold.Chemscore.Metal.Weighted>
-0.0000

> <Gold.Chemscore.Lipo.Weighted>
-11.4712

> <Gold.Chemscore.Internal_Hbond.Weighted>
0.0000

> <Gold.Chemscore.DEClash.Weighted>
2.4155

> <Gold.Chemscore.DEInternal.Weighted>
2.0725

> <Gold.Chemscore.Rot.Weighted>
6.3068

> <Gold.Chemscore.Internal.Correction.Weighted>
   9.000000E+99

> <Gold.Protein.RotatedTorsions>
[ 6907 6896 6895 6894 ] final -170.57 input  -60.11 | X-H torsion
[ 7974 7965 7964 7962 ] final  -25.30 input  175.53 | X-H torsion
[ 8008 7997 7996 7995 ] final   87.00 input   59.86 | X-H torsion
[ 10167 10162 10161 10158 ] final   39.45 input  -65.29 | X-H torsion
[ 10718 10713 10712 10709 ] final  -67.99 input   66.30 | X-H torsion
[ 10763 10752 10751 10750 ] final  -53.79 input  -60.55 | X-H torsion
[ 11005 11000 10999 10996 ] final  -47.51 input  -57.11 | X-H torsion

> <Gold.Protein.ActiveResidues>
 VAL166  LYS551  ARG553  GLY616  TRP617  ASP618  TYR619  PRO620  LYS621  CYS622 
 ASP623  PHE694  ASN695  SER759  ASP760  ASP761  ALA762  ILE779  LEU786  VAL792 
 PHE793  MET794  SER795  GLU796  ALA797  LYS798  CYS799  TRP800  GLU811  SER814 

> <Gold.Protein.RotatedAtoms>
  151.5099  133.3487  159.2882 H   0  0  0  0  0  0  0  0  0  0  0  0  # atno 6907 bound_to 6896
  150.8719  134.8096  159.7172 H   0  0  0  0  0  0  0  0  0  0  0  0  # atno 6908 bound_to 6896
  152.4704  134.4984  159.9769 H   0  0  0  0  0  0  0  0  0  0  0  0  # atno 6909 bound_to 6896
  146.1500  140.4868  142.8615 H   0  0  0  0  0  0  0  0  0  0  0  0  # atno 7974 bound_to 7965
  155.9698  140.3386  155.6565 H   0  0  0  0  0  0  0  0  0  0  0  0  # atno 8008 bound_to 7997
  155.6689  140.0724  157.2545 H   0  0  0  0  0  0  0  0  0  0  0  0  # atno 8009 bound_to 7997
  154.4163  140.1695  156.1845 H   0  0  0  0  0  0  0  0  0  0  0  0  # atno 8010 bound_to 7997
  140.3838  144.1944  150.6130 H   0  0  0  0  0  0  0  0  0  0  0  0  # atno 10167 bound_to 10162
  156.0528  130.4287  150.1935 H   0  0  0  0  0  0  0  0  0  0  0  0  # atno 10718 bound_to 10713
  154.1645  135.6469  153.4994 H   0  0  0  0  0  0  0  0  0  0  0  0  # atno 10763 bound_to 10752
  153.0101  135.5368  154.6676 H   0  0  0  0  0  0  0  0  0  0  0  0  # atno 10764 bound_to 10752
  154.5999  135.2942  155.0518 H   0  0  0  0  0  0  0  0  0  0  0  0  # atno 10765 bound_to 10752
  141.0645  133.6698  156.3307 H   0  0  0  0  0  0  0  0  0  0  0  0  # atno 11005 bound_to 11000
  144.7892  140.5997  143.6553 LP  0  0  0  0  0  0  0  0  0  0  0  0  # atno 17320 bound_to 7965
  145.4847  139.1493  143.3743 LP  0  0  0  0  0  0  0  0  0  0  0  0  # atno 17321 bound_to 7965
  140.4910  143.2347  151.8818 LP  0  0  0  0  0  0  0  0  0  0  0  0  # atno 17342 bound_to 10162
  139.4793  144.5165  151.8860 LP  0  0  0  0  0  0  0  0  0  0  0  0  # atno 17343 bound_to 10162
  157.0016  130.9924  151.3389 LP  0  0  0  0  0  0  0  0  0  0  0  0  # atno 17370 bound_to 10713
  157.5471  130.8158  149.8099 LP  0  0  0  0  0  0  0  0  0  0  0  0  # atno 17371 bound_to 10713
  140.5802  134.5753  157.5478 LP  0  0  0  0  0  0  0  0  0  0  0  0  # atno 17394 bound_to 11000
  139.9463  134.7696  156.0554 LP  0  0  0  0  0  0  0  0  0  0  0  0  # atno 17395 bound_to 11000

$$$$
