AV-unprocessed.smi:2605|AV-procd|sdf|10194|dock10
  -GOLD-   2272014203D 1   1.00000     0.00000
 Structure written by MMmdl.
 26 27  0  0  0  0  0  0  0  0  2 V2000
  151.7179  139.3369  155.3466 C   0  0  0  0  0  0  0  0  0  0  0  0
  151.8445  140.2630  156.4016 C   0  0  0  0  0  0  0  0  0  0  0  0
  150.9599  141.3607  156.4453 C   0  0  0  0  0  0  0  0  0  0  0  0
  151.0665  142.3880  157.5611 C   0  0  1  0  0  0  0  0  0  0  0  0
  152.1905  142.0202  158.5564 C   0  0  0  0  0  0  0  0  0  0  0  0
  152.2530  143.0063  159.6548 N   0  3  0  0  0  0  0  0  0  0  0  0
  152.4124  144.3773  159.1309 C   0  0  0  0  0  0  0  0  0  0  0  0
  151.2803  144.6961  158.1376 C   0  0  0  0  0  0  0  0  0  0  0  0
  151.3024  143.7345  157.0399 N   0  0  0  0  0  0  0  0  0  0  0  0
  149.9920  141.4830  155.4245 C   0  0  0  0  0  0  0  0  0  0  0  0
  149.9499  140.5012  154.4145 C   0  0  0  0  0  0  0  0  0  0  0  0
  150.7924  139.4474  154.3700 N   0  0  0  0  0  0  0  0  0  0  0  0
  152.3787  138.4848  155.2859 H   0  0  0  0  0  0  0  0  0  0  0  0
  152.6041  140.1275  157.1575 H   0  0  0  0  0  0  0  0  0  0  0  0
  150.1117  142.3970  158.0896 H   0  0  0  0  0  0  0  0  0  0  0  0
  152.0121  141.0331  158.9839 H   0  0  0  0  0  0  0  0  0  0  0  0
  153.1580  141.9797  158.0532 H   0  0  0  0  0  0  0  0  0  0  0  0
  151.3930  142.9594  160.1823 H   0  0  0  0  0  0  0  0  0  0  0  0
  152.3969  145.0811  159.9633 H   0  0  0  0  0  0  0  0  0  0  0  0
  153.3860  144.4729  158.6476 H   0  0  0  0  0  0  0  0  0  0  0  0
  150.3085  144.6757  158.6330 H   0  0  0  0  0  0  0  0  0  0  0  0
  151.4109  145.6991  157.7307 H   0  0  0  0  0  0  0  0  0  0  0  0
  150.5866  143.9651  156.3646 H   0  0  0  0  0  0  0  0  0  0  0  0
  149.2949  142.3080  155.4118 H   0  0  0  0  0  0  0  0  0  0  0  0
  149.2203  140.5651  153.6209 H   0  0  0  0  0  0  0  0  0  0  0  0
  153.0283  142.7848  160.2629 H   0  0  0  0  0  0  0  0  0  0  0  0
  1 12  1  0  0  0  0
  1  2  2  0  0  0  0
  1 13  1  0  0  0  0
  2  3  1  0  0  0  0
  2 14  1  0  0  0  0
  3  4  1  0  0  0  0
  3 10  2  0  0  0  0
  4  9  1  0  0  0  0
  4  5  1  0  0  0  0
  4 15  1  0  0  0  0
  5  6  1  0  0  0  0
  5 16  1  0  0  0  0
  5 17  1  0  0  0  0
  6  7  1  0  0  0  0
  6 18  1  0  0  0  0
  6 26  1  0  0  0  0
  7  8  1  0  0  0  0
  7 19  1  0  0  0  0
  7 20  1  0  0  0  0
  8  9  1  0  0  0  0
  8 21  1  0  0  0  0
  8 22  1  0  0  0  0
  9 23  1  0  0  0  0
 10 11  1  0  0  0  0
 10 24  1  0  0  0  0
 11 12  2  0  0  0  0
 11 25  1  0  0  0  0
M  CHG  1   6   1
M  END
> <s_m_source_file>
AV-unprocessed.smi

> <i_m_source_file_index>
2605

> <i_lp_mmshare_version>
43012

> <i_f3d_flags>
0

> <s_epik_input>
W2NIXTFbY0hdbltjSF1bY0hdYzFbQ0BASF0yW0NIMl1bTkhdW0NIMl1bQ0gyXVtOSF0y

> <s_epik_cmdline>
J2VwaWtfcHl0aG9uJywgJy1waCcsICc3LjAnLCAnLXRuJywgJzgnLCAnLW1hJywgJzIwMCcsICctbWV0YWxfYmluZGluZycsICctaW1hZScsICc8aW5maWxlLm1hZT4nLCAnLW9tYWUnLCAnPG91dGZpbGUubWFlPic=

> <r_epik_Ionization_Penalty>
0.0197506

> <r_epik_Ionization_Penalty_Charging>
0.010317

> <r_epik_Ionization_Penalty_Neutral>
0.00943359

> <r_epik_State_Penalty>
0.319455

> <r_epik_Charging_Adjusted_Penalty>
0.329772

> <i_epik_Tot_Q>
1

> <i_epik_Tot_abs_Q>
1

> <r_epik_Metal_State_Penalty>
0.318246

> <b_epik_Metal_Only>
0

> <s_lp_Force_Field>
OPLS_2005

> <r_lp_Energy>
9.79217

> <b_lp_Chiralities_Consistent>
1

> <s_lp_Variant>
AV-unprocessed.smi:2605-2

> <Gold.Version>
5.8.1

> <Gold.Id.Protein>
6NUR|6NUR_protein|mol2

> <Gold.PLP.Fitness>
34.3144

> <Gold.PLP.PLP>
-28.6220

> <Gold.PLP.part.hbond>
-2.0000

> <Gold.PLP.part.metal>
0.0000

> <Gold.PLP.part.buried>
-1.2041

> <Gold.PLP.part.nonpolar>
-24.9234

> <Gold.PLP.part.repulsive>
0.1925

> <Gold.PLP.ligand.clash>
0.0000

> <Gold.PLP.ligand.torsion>
0.0041

> <Gold.PLP.Chemscore.Hbond>
1.0000

> <Gold.PLP.Chemscore.CHOScore>
0.8977

> <Gold.PLP.Chemscore.Metal>
0.0000

> <Gold.Chemscore.Hbonds>
donor molecule, donor type, donor heavy atom, donor atom, acceptor molecule, acceptor atom, score
      L1  H     9    23       P1  8028  1.00
      L1  C    11    25       P1  7957  0.90

> <Gold.PLP.Chemscore.Internal.Correction>
0.0074

> <Gold.Rescore>
     Score         DG    S(hbond)    S(metal)    S(lipo)     H(rot)  DE(clash)    DE(int)     intcor
     15.69     -15.70       1.00        0.00      80.73       1.00       0.00       0.01       ----

> <Gold.Chemscore.Fitness>
15.6905

> <Gold.Chemscore.DG>
-15.7027

> <Gold.Chemscore.ZeroCoef>
-5.4800

> <Gold.Chemscore.Hbond>
0.9992

> <Gold.Chemscore.Metal>
0.0000

> <Gold.Chemscore.Lipo>
80.7294

> <Gold.Chemscore.Internal_Hbond>
0.0000

> <Gold.Chemscore.DEClash>
0.0015

> <Gold.Chemscore.DEInternal>
0.0107

> <Gold.Chemscore.Rot>
1.0000

> <Gold.Chemscore.Internal.Correction>
   9.000000E+99

> <Gold.Chemscore.Hbonds>
donor molecule, donor type, donor heavy atom, donor atom, acceptor molecule, acceptor atom, score
      L1  H     9    23       P1  8028  0.97

> <Gold.Chemscore.Hbond.Weighted>
-3.3374

> <Gold.Chemscore.Metal.Weighted>
-0.0000

> <Gold.Chemscore.Lipo.Weighted>
-9.4453

> <Gold.Chemscore.Internal_Hbond.Weighted>
0.0000

> <Gold.Chemscore.DEClash.Weighted>
0.0015

> <Gold.Chemscore.DEInternal.Weighted>
0.0107

> <Gold.Chemscore.Rot.Weighted>
2.5600

> <Gold.Chemscore.Internal.Correction.Weighted>
   9.000000E+99

> <Gold.Protein.RotatedTorsions>
[ 6907 6896 6895 6894 ] final   57.90 input  -60.11 | X-H torsion
[ 7974 7965 7964 7962 ] final  -95.96 input  175.53 | X-H torsion
[ 8008 7997 7996 7995 ] final   90.09 input   59.86 | X-H torsion
[ 10167 10162 10161 10158 ] final   -8.21 input  -65.29 | X-H torsion
[ 10718 10713 10712 10709 ] final -178.73 input   66.30 | X-H torsion
[ 10763 10752 10751 10750 ] final   72.01 input  -60.55 | X-H torsion
[ 11005 11000 10999 10996 ] final   43.89 input  -57.11 | X-H torsion

> <Gold.Protein.ActiveResidues>
 VAL166  LYS551  ARG553  GLY616  TRP617  ASP618  TYR619  PRO620  LYS621  CYS622 
 ASP623  PHE694  ASN695  SER759  ASP760  ASP761  ALA762  ILE779  LEU786  VAL792 
 PHE793  MET794  SER795  GLU796  ALA797  LYS798  CYS799  TRP800  GLU811  SER814 

> <Gold.Protein.RotatedAtoms>
  152.3774  134.6642  160.0154 H   0  0  0  0  0  0  0  0  0  0  0  0  # atno 6907 bound_to 6896
  151.6916  133.3305  159.3252 H   0  0  0  0  0  0  0  0  0  0  0  0  # atno 6908 bound_to 6896
  150.7720  134.6629  159.6394 H   0  0  0  0  0  0  0  0  0  0  0  0  # atno 6909 bound_to 6896
  145.3531  140.9480  143.2543 H   0  0  0  0  0  0  0  0  0  0  0  0  # atno 7974 bound_to 7965
  156.0078  140.3353  155.6910 H   0  0  0  0  0  0  0  0  0  0  0  0  # atno 8008 bound_to 7997
  155.6199  140.0674  157.2699 H   0  0  0  0  0  0  0  0  0  0  0  0  # atno 8009 bound_to 7997
  154.4271  140.1778  156.1349 H   0  0  0  0  0  0  0  0  0  0  0  0  # atno 8010 bound_to 7997
  140.7052  143.5994  150.8813 H   0  0  0  0  0  0  0  0  0  0  0  0  # atno 10167 bound_to 10162
  156.8486  130.9711  151.3094 H   0  0  0  0  0  0  0  0  0  0  0  0  # atno 10718 bound_to 10713
  153.0433  135.5116  154.7679 H   0  0  0  0  0  0  0  0  0  0  0  0  # atno 10763 bound_to 10752
  154.6599  135.2937  154.9882 H   0  0  0  0  0  0  0  0  0  0  0  0  # atno 10764 bound_to 10752
  154.0737  135.6674  153.4880 H   0  0  0  0  0  0  0  0  0  0  0  0  # atno 10765 bound_to 10752
  140.1603  134.4350  155.8322 H   0  0  0  0  0  0  0  0  0  0  0  0  # atno 11005 bound_to 11000
  144.8702  139.5048  143.6771 LP  0  0  0  0  0  0  0  0  0  0  0  0  # atno 17320 bound_to 7965
  146.2959  139.7278  142.9127 LP  0  0  0  0  0  0  0  0  0  0  0  0  # atno 17321 bound_to 7965
  139.9719  143.6047  152.2971 LP  0  0  0  0  0  0  0  0  0  0  0  0  # atno 17342 bound_to 10162
  139.6637  144.7662  151.1914 LP  0  0  0  0  0  0  0  0  0  0  0  0  # atno 17343 bound_to 10162
  157.6316  130.8734  149.9284 LP  0  0  0  0  0  0  0  0  0  0  0  0  # atno 17370 bound_to 10713
  156.0841  130.3670  150.0523 LP  0  0  0  0  0  0  0  0  0  0  0  0  # atno 17371 bound_to 10713
  141.2208  133.6910  156.7581 LP  0  0  0  0  0  0  0  0  0  0  0  0  # atno 17394 bound_to 11000
  140.2498  134.8549  157.3656 LP  0  0  0  0  0  0  0  0  0  0  0  0  # atno 17395 bound_to 11000

$$$$
