AV-unprocessed.smi:3303|AV-procd|sdf|12685|dock8
  -GOLD-   2272019 23D 1   1.00000     0.00000
 Structure written by MMmdl.
 44 45  0  0  0  0  0  0  0  0  2 V2000
  144.0079  132.3924  149.8209 C   0  0  0  0  0  0  0  0  0  0  0  0
  144.2647  132.6270  151.3202 C   0  0  2  0  0  0  0  0  0  0  0  0
  143.5014  133.8805  151.7975 C   0  0  0  0  0  0  0  0  0  0  0  0
  143.7330  134.1490  153.2390 N   0  3  2  0  0  0  0  0  0  0  0  0
  142.8516  135.2107  153.7756 C   0  0  0  0  0  0  0  0  0  0  0  0
  145.1726  134.3189  153.5841 C   0  0  2  0  0  0  0  0  0  0  0  0
  145.7936  135.6236  153.0392 C   0  0  0  0  0  0  0  0  0  0  0  0
  145.9613  133.0696  153.1494 C   0  0  0  0  0  0  0  0  0  0  0  0
  145.7714  132.7478  151.6550 C   0  0  1  0  0  0  0  0  0  0  0  0
  146.4384  131.4782  151.3961 N   0  0  0  0  0  0  0  0  0  0  0  0
  146.0112  130.4451  152.3293 C   0  0  0  0  0  0  0  0  0  0  0  0
  145.8653  129.0883  151.6196 C   0  0  0  0  0  0  0  0  0  0  0  0
  147.0451  128.1598  151.8588 C   0  0  0  0  0  0  0  0  0  0  0  0
  147.8101  127.6825  150.7732 C   0  0  0  0  0  0  0  0  0  0  0  0
  148.8808  126.8071  151.0391 C   0  0  0  0  0  0  0  0  0  0  0  0
  149.1429  126.4418  152.3735 C   0  0  0  0  0  0  0  0  0  0  0  0
  148.3201  126.9720  153.3870 C   0  0  0  0  0  0  0  0  0  0  0  0
  147.2918  127.8126  153.1428 N   0  0  0  0  0  0  0  0  0  0  0  0
  144.4264  133.1973  149.2160 H   0  0  0  0  0  0  0  0  0  0  0  0
  142.9397  132.3388  149.6094 H   0  0  0  0  0  0  0  0  0  0  0  0
  144.4483  131.4550  149.4799 H   0  0  0  0  0  0  0  0  0  0  0  0
  143.8598  131.7706  151.8623 H   0  0  0  0  0  0  0  0  0  0  0  0
  143.7834  134.7517  151.2055 H   0  0  0  0  0  0  0  0  0  0  0  0
  142.4328  133.7323  151.6353 H   0  0  0  0  0  0  0  0  0  0  0  0
  143.0003  136.1567  153.2543 H   0  0  0  0  0  0  0  0  0  0  0  0
  143.0363  135.3685  154.8387 H   0  0  0  0  0  0  0  0  0  0  0  0
  141.8052  134.9272  153.6603 H   0  0  0  0  0  0  0  0  0  0  0  0
  145.2336  134.3691  154.6721 H   0  0  0  0  0  0  0  0  0  0  0  0
  146.8435  135.6963  153.3245 H   0  0  0  0  0  0  0  0  0  0  0  0
  145.2975  136.5073  153.4402 H   0  0  0  0  0  0  0  0  0  0  0  0
  145.7514  135.6832  151.9522 H   0  0  0  0  0  0  0  0  0  0  0  0
  147.0206  133.1993  153.3758 H   0  0  0  0  0  0  0  0  0  0  0  0
  145.6267  132.2212  153.7492 H   0  0  0  0  0  0  0  0  0  0  0  0
  146.2184  133.5473  151.0619 H   0  0  0  0  0  0  0  0  0  0  0  0
  146.2607  131.1723  150.4499 H   0  0  0  0  0  0  0  0  0  0  0  0
  146.7249  130.3540  153.1488 H   0  0  0  0  0  0  0  0  0  0  0  0
  145.0557  130.7402  152.7644 H   0  0  0  0  0  0  0  0  0  0  0  0
  144.9590  128.5943  151.9717 H   0  0  0  0  0  0  0  0  0  0  0  0
  145.7281  129.2356  150.5471 H   0  0  0  0  0  0  0  0  0  0  0  0
  147.5803  127.9755  149.7592 H   0  0  0  0  0  0  0  0  0  0  0  0
  149.4885  126.4214  150.2340 H   0  0  0  0  0  0  0  0  0  0  0  0
  149.9545  125.7715  152.6146 H   0  0  0  0  0  0  0  0  0  0  0  0
  148.4913  126.7127  154.4212 H   0  0  0  0  0  0  0  0  0  0  0  0
  143.4482  133.3048  153.7153 H   0  0  0  0  0  0  0  0  0  0  0  0
  1  2  1  0  0  0  0
  1 19  1  0  0  0  0
  1 20  1  0  0  0  0
  1 21  1  0  0  0  0
  2  9  1  0  0  0  0
  2  3  1  0  0  0  0
  2 22  1  0  0  0  0
  3  4  1  0  0  0  0
  3 23  1  0  0  0  0
  3 24  1  0  0  0  0
  4  5  1  0  0  0  0
  4  6  1  0  0  0  0
  4 44  1  0  0  0  0
  5 25  1  0  0  0  0
  5 26  1  0  0  0  0
  5 27  1  0  0  0  0
  6  7  1  0  0  0  0
  6  8  1  0  0  0  0
  6 28  1  0  0  0  0
  7 29  1  0  0  0  0
  7 30  1  0  0  0  0
  7 31  1  0  0  0  0
  8  9  1  0  0  0  0
  8 32  1  0  0  0  0
  8 33  1  0  0  0  0
  9 10  1  0  0  0  0
  9 34  1  0  0  0  0
 10 11  1  0  0  0  0
 10 35  1  0  0  0  0
 11 12  1  0  0  0  0
 11 36  1  0  0  0  0
 11 37  1  0  0  0  0
 12 13  1  0  0  0  0
 12 38  1  0  0  0  0
 12 39  1  0  0  0  0
 13 18  1  0  0  0  0
 13 14  2  0  0  0  0
 14 15  1  0  0  0  0
 14 40  1  0  0  0  0
 15 16  2  0  0  0  0
 15 41  1  0  0  0  0
 16 17  1  0  0  0  0
 16 42  1  0  0  0  0
 17 18  2  0  0  0  0
 17 43  1  0  0  0  0
M  CHG  1   4   1
M  END
> <s_m_source_file>
AV-unprocessed.smi

> <i_m_source_file_index>
3303

> <i_lp_mmshare_version>
43012

> <i_f3d_flags>
0

> <s_epik_input>
W0NIM11bQ0BASF0xW0NIMl1OKFtDSDNdKVtDQEBIXShbQ0gzXSlbQ0gyXVtDQEhdMVtOSF1bQ0gyXVtDSDJdYzJbY0hdW2NIXVtjSF1bY0hdbjI=

> <s_epik_cmdline>
J2VwaWtfcHl0aG9uJywgJy1waCcsICc3LjAnLCAnLXRuJywgJzgnLCAnLW1hJywgJzIwMCcsICctbWV0YWxfYmluZGluZycsICctaW1hZScsICc8aW5maWxlLm1hZT4nLCAnLW9tYWUnLCAnPG91dGZpbGUubWFlPic=

> <r_epik_Ionization_Penalty>
2.31085

> <r_epik_Ionization_Penalty_Charging>
0.000313057

> <r_epik_Ionization_Penalty_Neutral>
2.31054

> <r_epik_State_Penalty>
2.4087

> <r_epik_Charging_Adjusted_Penalty>
2.40902

> <i_epik_Tot_Q>
1

> <i_epik_Tot_abs_Q>
1

> <r_epik_Metal_State_Penalty>
2.30979

> <b_epik_Metal_Only>
0

> <s_lp_Force_Field>
OPLS_2005

> <r_lp_Energy>
26.7889

> <b_lp_Chiralities_Consistent>
1

> <s_lp_Variant>
AV-unprocessed.smi:3303-29

> <Gold.Version>
5.8.1

> <Gold.Id.Protein>
6NUR|6NUR_protein|mol2

> <Gold.PLP.Fitness>
42.4485

> <Gold.PLP.PLP>
-37.6352

> <Gold.PLP.part.hbond>
-1.9911

> <Gold.PLP.part.metal>
0.0000

> <Gold.PLP.part.buried>
-6.5904

> <Gold.PLP.part.nonpolar>
-29.1284

> <Gold.PLP.part.repulsive>
0.0406

> <Gold.PLP.ligand.clash>
0.0000

> <Gold.PLP.ligand.torsion>
0.5959

> <Gold.PLP.Chemscore.Hbond>
2.0000

> <Gold.PLP.Chemscore.CHOScore>
0.0000

> <Gold.PLP.Chemscore.Metal>
0.0000

> <Gold.Chemscore.Hbonds>
donor molecule, donor type, donor heavy atom, donor atom, acceptor molecule, acceptor atom, score
      L1  H     4    44       P1 10957  2.00

> <Gold.PLP.Chemscore.Internal.Correction>
0.0051

> <Gold.Rescore>
     Score         DG    S(hbond)    S(metal)    S(lipo)     H(rot)  DE(clash)    DE(int)     intcor
     16.73     -17.35       0.99        0.00     102.13       1.33       0.07       0.55       ----

> <Gold.Chemscore.Fitness>
16.7334

> <Gold.Chemscore.DG>
-17.3543

> <Gold.Chemscore.ZeroCoef>
-5.4800

> <Gold.Chemscore.Hbond>
0.9948

> <Gold.Chemscore.Metal>
0.0000

> <Gold.Chemscore.Lipo>
102.1318

> <Gold.Chemscore.Internal_Hbond>
0.0000

> <Gold.Chemscore.DEClash>
0.0736

> <Gold.Chemscore.DEInternal>
0.5473

> <Gold.Chemscore.Rot>
1.3272

> <Gold.Chemscore.Internal.Correction>
   9.000000E+99

> <Gold.Chemscore.Hbonds>
donor molecule, donor type, donor heavy atom, donor atom, acceptor molecule, acceptor atom, score
      L1  H     4    44       P1 10957  0.93

> <Gold.Chemscore.Hbond.Weighted>
-3.3225

> <Gold.Chemscore.Metal.Weighted>
-0.0000

> <Gold.Chemscore.Lipo.Weighted>
-11.9494

> <Gold.Chemscore.Internal_Hbond.Weighted>
0.0000

> <Gold.Chemscore.DEClash.Weighted>
0.0736

> <Gold.Chemscore.DEInternal.Weighted>
0.5473

> <Gold.Chemscore.Rot.Weighted>
3.3976

> <Gold.Chemscore.Internal.Correction.Weighted>
   9.000000E+99

> <Gold.Protein.RotatedTorsions>
[ 6907 6896 6895 6894 ] final   83.58 input  -60.11 | X-H torsion
[ 7974 7965 7964 7962 ] final  -53.64 input  175.53 | X-H torsion
[ 8008 7997 7996 7995 ] final   62.36 input   59.86 | X-H torsion
[ 10167 10162 10161 10158 ] final  -70.50 input  -65.29 | X-H torsion
[ 10718 10713 10712 10709 ] final -116.54 input   66.30 | X-H torsion
[ 10763 10752 10751 10750 ] final  135.83 input  -60.55 | X-H torsion
[ 11005 11000 10999 10996 ] final   66.85 input  -57.11 | X-H torsion

> <Gold.Protein.ActiveResidues>
 VAL166  LYS551  ARG553  GLY616  TRP617  ASP618  TYR619  PRO620  LYS621  CYS622 
 ASP623  PHE694  ASN695  SER759  ASP760  ASP761  ALA762  ILE779  LEU786  VAL792 
 PHE793  MET794  SER795  GLU796  ALA797  LYS798  CYS799  TRP800  GLU811  SER814 

> <Gold.Protein.RotatedAtoms>
  152.5331  134.2873  159.9029 H   0  0  0  0  0  0  0  0  0  0  0  0  # atno 6907 bound_to 6896
  151.2826  133.4196  159.2635 H   0  0  0  0  0  0  0  0  0  0  0  0  # atno 6908 bound_to 6896
  151.0270  134.9527  159.8147 H   0  0  0  0  0  0  0  0  0  0  0  0  # atno 6909 bound_to 6896
  145.8946  140.8043  142.9774 H   0  0  0  0  0  0  0  0  0  0  0  0  # atno 7974 bound_to 7965
  155.6131  140.3495  155.4628 H   0  0  0  0  0  0  0  0  0  0  0  0  # atno 8008 bound_to 7997
  156.0138  140.1239  157.0451 H   0  0  0  0  0  0  0  0  0  0  0  0  # atno 8009 bound_to 7997
  154.4290  140.1076  156.5853 H   0  0  0  0  0  0  0  0  0  0  0  0  # atno 8010 bound_to 7997
  140.5348  143.2319  151.7197 H   0  0  0  0  0  0  0  0  0  0  0  0  # atno 10167 bound_to 10162
  156.0970  130.6141  150.9048 H   0  0  0  0  0  0  0  0  0  0  0  0  # atno 10718 bound_to 10713
  153.8465  135.3085  155.3429 H   0  0  0  0  0  0  0  0  0  0  0  0  # atno 10763 bound_to 10752
  154.7910  135.4782  154.0055 H   0  0  0  0  0  0  0  0  0  0  0  0  # atno 10764 bound_to 10752
  153.1544  135.6849  153.8927 H   0  0  0  0  0  0  0  0  0  0  0  0  # atno 10765 bound_to 10752
  139.9807  134.6749  156.0269 H   0  0  0  0  0  0  0  0  0  0  0  0  # atno 11005 bound_to 11000
  144.6732  140.1582  143.7424 LP  0  0  0  0  0  0  0  0  0  0  0  0  # atno 17320 bound_to 7965
  145.8866  139.2352  143.1574 LP  0  0  0  0  0  0  0  0  0  0  0  0  # atno 17321 bound_to 7965
  139.4967  144.4060  152.0131 LP  0  0  0  0  0  0  0  0  0  0  0  0  # atno 17342 bound_to 10162
  140.3164  144.3478  150.6020 LP  0  0  0  0  0  0  0  0  0  0  0  0  # atno 17343 bound_to 10162
  157.6133  131.0935  150.8755 LP  0  0  0  0  0  0  0  0  0  0  0  0  # atno 17370 bound_to 10713
  156.8891  130.5206  149.5287 LP  0  0  0  0  0  0  0  0  0  0  0  0  # atno 17371 bound_to 10713
  141.1479  133.6553  156.3923 LP  0  0  0  0  0  0  0  0  0  0  0  0  # atno 17394 bound_to 11000
  140.5103  134.6401  157.5282 LP  0  0  0  0  0  0  0  0  0  0  0  0  # atno 17395 bound_to 11000

$$$$
