AV-unprocessed.smi:1166|AV-procd|sdf|4934|dock8
  -GOLD-   22720 3523D 1   1.00000     0.00000
 Structure written by MMmdl.
 47 48  0  0  0  0  0  0  0  0  2 V2000
  151.5927  144.4787  156.8378 C   0  0  0  0  0  0  0  0  0  0  0  0
  151.4466  143.2756  157.6495 N   0  0  0  0  0  0  0  0  0  0  0  0
  151.5617  143.3484  159.1000 C   0  0  0  0  0  0  0  0  0  0  0  0
  151.1587  142.0406  157.0292 C   0  0  0  0  0  0  0  0  0  0  0  0
  151.8227  140.8334  157.3589 C   0  0  0  0  0  0  0  0  0  0  0  0
  151.4787  139.6391  156.6932 C   0  0  0  0  0  0  0  0  0  0  0  0
  150.4809  139.6518  155.6966 C   0  0  0  0  0  0  0  0  0  0  0  0
  150.1606  138.4194  155.0648 N   0  0  0  0  0  0  0  0  0  0  0  0
  150.4438  137.1695  155.4706 C   0  0  0  0  0  0  0  0  0  0  0  0
  151.0315  136.8748  156.5109 O   0  0  0  0  0  0  0  0  0  0  0  0
  149.9854  136.2615  154.5974 N   0  0  0  0  0  0  0  0  0  0  0  0
  150.1028  134.8143  154.7466 C   0  0  2  0  0  0  0  0  0  0  0  0
  149.1470  134.0861  153.7872 C   0  0  0  0  0  0  0  0  0  0  0  0
  149.2491  132.5724  154.0043 C   0  0  0  0  0  0  0  0  0  0  0  0
  148.9765  132.1984  155.4717 C   0  0  0  0  0  0  0  0  0  0  0  0
  149.8396  132.9595  156.3981 N   0  0  0  0  0  0  0  0  0  0  0  0
  151.2426  132.2061  157.1003 S   0  0  0  0  0  0  0  0  0  0  0  0
  151.9602  131.2163  155.7257 C   0  0  0  0  0  0  0  0  0  0  0  0
  152.1981  133.2696  157.4458 O   0  0  0  0  0  0  0  0  0  0  0  0
  150.7789  131.2762  158.1414 O   0  0  0  0  0  0  0  0  0  0  0  0
  149.8075  134.4233  156.2080 C   0  0  0  0  0  0  0  0  0  0  0  0
  149.8389  140.8802  155.4101 C   0  0  0  0  0  0  0  0  0  0  0  0
  150.1990  142.0005  156.0728 N   0  3  0  0  0  0  0  0  0  0  0  0
  152.3772  144.3467  156.0918 H   0  0  0  0  0  0  0  0  0  0  0  0
  151.8586  145.3406  157.4502 H   0  0  0  0  0  0  0  0  0  0  0  0
  150.6588  144.7085  156.3234 H   0  0  0  0  0  0  0  0  0  0  0  0
  150.6433  143.0033  159.5760 H   0  0  0  0  0  0  0  0  0  0  0  0
  151.7438  144.3705  159.4332 H   0  0  0  0  0  0  0  0  0  0  0  0
  152.3895  142.7310  159.4499 H   0  0  0  0  0  0  0  0  0  0  0  0
  152.5936  140.8021  158.1143 H   0  0  0  0  0  0  0  0  0  0  0  0
  151.9855  138.7195  156.9472 H   0  0  0  0  0  0  0  0  0  0  0  0
  149.6098  138.4957  154.2221 H   0  0  0  0  0  0  0  0  0  0  0  0
  149.5118  136.5930  153.7696 H   0  0  0  0  0  0  0  0  0  0  0  0
  151.1262  134.5232  154.5095 H   0  0  0  0  0  0  0  0  0  0  0  0
  148.1206  134.4141  153.9580 H   0  0  0  0  0  0  0  0  0  0  0  0
  149.3858  134.3272  152.7507 H   0  0  0  0  0  0  0  0  0  0  0  0
  148.5396  132.0579  153.3558 H   0  0  0  0  0  0  0  0  0  0  0  0
  150.2378  132.2261  153.7058 H   0  0  0  0  0  0  0  0  0  0  0  0
  147.9362  132.4167  155.7155 H   0  0  0  0  0  0  0  0  0  0  0  0
  149.1078  131.1273  155.6219 H   0  0  0  0  0  0  0  0  0  0  0  0
  152.8390  130.6860  156.0917 H   0  0  0  0  0  0  0  0  0  0  0  0
  152.2607  131.8733  154.9114 H   0  0  0  0  0  0  0  0  0  0  0  0
  151.2319  130.4891  155.3710 H   0  0  0  0  0  0  0  0  0  0  0  0
  150.5155  134.9051  156.8822 H   0  0  0  0  0  0  0  0  0  0  0  0
  148.8182  134.7822  156.4950 H   0  0  0  0  0  0  0  0  0  0  0  0
  149.0465  141.0177  154.6902 H   0  0  0  0  0  0  0  0  0  0  0  0
  149.7162  142.8684  155.8404 H   0  0  0  0  0  0  0  0  0  0  0  0
  1  2  1  0  0  0  0
  1 24  1  0  0  0  0
  1 25  1  0  0  0  0
  1 26  1  0  0  0  0
  2  3  1  0  0  0  0
  2  4  1  0  0  0  0
  3 27  1  0  0  0  0
  3 28  1  0  0  0  0
  3 29  1  0  0  0  0
  4 23  1  0  0  0  0
  4  5  2  0  0  0  0
  5  6  1  0  0  0  0
  5 30  1  0  0  0  0
  6  7  2  0  0  0  0
  6 31  1  0  0  0  0
  7  8  1  0  0  0  0
  7 22  1  0  0  0  0
  8  9  1  0  0  0  0
  8 32  1  0  0  0  0
  9 10  2  0  0  0  0
  9 11  1  0  0  0  0
 11 12  1  0  0  0  0
 11 33  1  0  0  0  0
 12 21  1  0  0  0  0
 12 13  1  0  0  0  0
 12 34  1  0  0  0  0
 13 14  1  0  0  0  0
 13 35  1  0  0  0  0
 13 36  1  0  0  0  0
 14 15  1  0  0  0  0
 14 37  1  0  0  0  0
 14 38  1  0  0  0  0
 15 16  1  0  0  0  0
 15 39  1  0  0  0  0
 15 40  1  0  0  0  0
 16 17  1  0  0  0  0
 16 21  1  0  0  0  0
 17 18  1  0  0  0  0
 17 19  2  0  0  0  0
 17 20  2  0  0  0  0
 18 41  1  0  0  0  0
 18 42  1  0  0  0  0
 18 43  1  0  0  0  0
 21 44  1  0  0  0  0
 21 45  1  0  0  0  0
 22 23  2  0  0  0  0
 22 46  1  0  0  0  0
 23 47  1  0  0  0  0
M  CHG  1  23   1
M  END
> <s_m_source_file>
AV-unprocessed.smi

> <i_m_source_file_index>
1166

> <i_lp_mmshare_version>
43012

> <i_f3d_flags>
0

> <s_epik_input>
W0NIM11OKFtDSDNdKWMxW2NIXVtjSF1jKFtjSF1uMSlbTkhdQyg9TylbTkhdW0NAQEhdMltDSDJdW0NIMl1bQ0gyXU4oW0NIMl0yKVMoPU8pKD1PKVtDSDNd

> <s_epik_cmdline>
J2VwaWtfcHl0aG9uJywgJy1waCcsICc3LjAnLCAnLXRuJywgJzgnLCAnLW1hJywgJzIwMCcsICctbWV0YWxfYmluZGluZycsICctaW1hZScsICc8aW5maWxlLm1hZT4nLCAnLW9tYWUnLCAnPG91dGZpbGUubWFlPic=

> <r_lp_tautomer_probability>
0.999994

> <r_epik_Ionization_Penalty>
0.276583

> <r_epik_Ionization_Penalty_Charging>
0.276565

> <r_epik_Ionization_Penalty_Neutral>
1.87575e-05

> <r_epik_State_Penalty>
0.268949

> <r_epik_Charging_Adjusted_Penalty>
0.545513

> <i_epik_Tot_Q>
1

> <i_epik_Tot_abs_Q>
1

> <r_epik_Metal_State_Penalty>
0.551815

> <b_epik_Metal_Only>
0

> <s_lp_Force_Field>
OPLS_2005

> <r_lp_Energy>
7.52153

> <b_lp_Chiralities_Consistent>
1

> <s_lp_Variant>
AV-unprocessed.smi:1166-1

> <Gold.Version>
5.8.1

> <Gold.Id.Protein>
6NUR|6NUR_protein|mol2

> <Gold.PLP.Fitness>
40.4071

> <Gold.PLP.PLP>
-32.0667

> <Gold.PLP.part.hbond>
-2.9559

> <Gold.PLP.part.metal>
0.0000

> <Gold.PLP.part.buried>
-1.0534

> <Gold.PLP.part.nonpolar>
-28.3597

> <Gold.PLP.part.repulsive>
0.1975

> <Gold.PLP.ligand.clash>
0.0000

> <Gold.PLP.ligand.torsion>
2.1609

> <Gold.PLP.Chemscore.Hbond>
3.5345

> <Gold.PLP.Chemscore.CHOScore>
0.0000

> <Gold.PLP.Chemscore.Metal>
0.0000

> <Gold.Chemscore.Hbonds>
donor molecule, donor type, donor heavy atom, donor atom, acceptor molecule, acceptor atom, score
      L1  H    11    33       P1  7948  0.94
      L1  H    23    47       P1  8028  1.98
      P1  H  6896  6909       L1    19  0.61

> <Gold.PLP.Chemscore.Internal.Correction>
2.0587

> <Gold.Rescore>
     Score         DG    S(hbond)    S(metal)    S(lipo)     H(rot)  DE(clash)    DE(int)     intcor
     12.93     -19.17       2.18        0.00      76.74       1.00       1.37       4.86       ----

> <Gold.Chemscore.Fitness>
12.9320

> <Gold.Chemscore.DG>
-19.1656

> <Gold.Chemscore.ZeroCoef>
-5.4800

> <Gold.Chemscore.Hbond>
2.1756

> <Gold.Chemscore.Metal>
0.0000

> <Gold.Chemscore.Lipo>
76.7449

> <Gold.Chemscore.Internal_Hbond>
0.0000

> <Gold.Chemscore.DEClash>
1.3730

> <Gold.Chemscore.DEInternal>
4.8606

> <Gold.Chemscore.Rot>
1.0000

> <Gold.Chemscore.Internal.Correction>
   9.000000E+99

> <Gold.Chemscore.Hbonds>
donor molecule, donor type, donor heavy atom, donor atom, acceptor molecule, acceptor atom, score
      L1  H    11    33       P1  7948  0.69
      L1  H    23    47       P1  8028  0.92
      P1  H  6896  6909       L1    19  0.15

> <Gold.Chemscore.Hbond.Weighted>
-7.2664

> <Gold.Chemscore.Metal.Weighted>
-0.0000

> <Gold.Chemscore.Lipo.Weighted>
-8.9791

> <Gold.Chemscore.Internal_Hbond.Weighted>
0.0000

> <Gold.Chemscore.DEClash.Weighted>
1.3730

> <Gold.Chemscore.DEInternal.Weighted>
4.8606

> <Gold.Chemscore.Rot.Weighted>
2.5600

> <Gold.Chemscore.Internal.Correction.Weighted>
   9.000000E+99

> <Gold.Protein.RotatedTorsions>
[ 6907 6896 6895 6894 ] final  -75.42 input  -60.11 | X-H torsion
[ 7974 7965 7964 7962 ] final    8.66 input  175.53 | X-H torsion
[ 8008 7997 7996 7995 ] final -163.53 input   59.86 | X-H torsion
[ 10167 10162 10161 10158 ] final -175.09 input  -65.29 | X-H torsion
[ 10718 10713 10712 10709 ] final  -65.90 input   66.30 | X-H torsion
[ 10763 10752 10751 10750 ] final  116.58 input  -60.55 | X-H torsion
[ 11005 11000 10999 10996 ] final   -1.39 input  -57.11 | X-H torsion

> <Gold.Protein.ActiveResidues>
 VAL166  LYS551  ARG553  GLY616  TRP617  ASP618  TYR619  PRO620  LYS621  CYS622 
 ASP623  PHE694  ASN695  SER759  ASP760  ASP761  ALA762  ILE779  LEU786  VAL792 
 PHE793  MET794  SER795  GLU796  ALA797  LYS798  CYS799  TRP800  GLU811  SER814 

> <Gold.Protein.RotatedAtoms>
  150.7059  134.4723  159.5430 H   0  0  0  0  0  0  0  0  0  0  0  0  # atno 6907 bound_to 6896
  152.2377  134.8257  160.0474 H   0  0  0  0  0  0  0  0  0  0  0  0  # atno 6908 bound_to 6896
  151.9050  133.3512  159.3880 H   0  0  0  0  0  0  0  0  0  0  0  0  # atno 6909 bound_to 6896
  146.2413  139.9899  142.8427 H   0  0  0  0  0  0  0  0  0  0  0  0  # atno 7974 bound_to 7965
  155.8227  140.0922  157.1840 H   0  0  0  0  0  0  0  0  0  0  0  0  # atno 8008 bound_to 7997
  154.3979  140.1434  156.3579 H   0  0  0  0  0  0  0  0  0  0  0  0  # atno 8009 bound_to 7997
  155.8250  140.3445  155.5539 H   0  0  0  0  0  0  0  0  0  0  0  0  # atno 8010 bound_to 7997
  139.5599  144.1896  152.1221 H   0  0  0  0  0  0  0  0  0  0  0  0  # atno 10167 bound_to 10162
  156.0643  130.4254  150.1631 H   0  0  0  0  0  0  0  0  0  0  0  0  # atno 10718 bound_to 10713
  153.5393  135.3562  155.2711 H   0  0  0  0  0  0  0  0  0  0  0  0  # atno 10763 bound_to 10752
  154.8719  135.4087  154.3062 H   0  0  0  0  0  0  0  0  0  0  0  0  # atno 10764 bound_to 10752
  153.3766  135.7066  153.6665 H   0  0  0  0  0  0  0  0  0  0  0  0  # atno 10765 bound_to 10752
  140.6468  133.9440  155.8357 H   0  0  0  0  0  0  0  0  0  0  0  0  # atno 11005 bound_to 11000
  145.1513  140.9624  143.4431 LP  0  0  0  0  0  0  0  0  0  0  0  0  # atno 17320 bound_to 7965
  145.0203  139.3430  143.6076 LP  0  0  0  0  0  0  0  0  0  0  0  0  # atno 17321 bound_to 7965
  140.1407  144.5204  150.6746 LP  0  0  0  0  0  0  0  0  0  0  0  0  # atno 17342 bound_to 10162
  140.6877  143.2359  151.5215 LP  0  0  0  0  0  0  0  0  0  0  0  0  # atno 17343 bound_to 10162
  156.9693  130.9830  151.3462 LP  0  0  0  0  0  0  0  0  0  0  0  0  # atno 17370 bound_to 10713
  157.5674  130.8287  149.8345 LP  0  0  0  0  0  0  0  0  0  0  0  0  # atno 17371 bound_to 10713
  141.0566  134.0407  157.3714 LP  0  0  0  0  0  0  0  0  0  0  0  0  # atno 17394 bound_to 11000
  139.9060  135.0179  156.7487 LP  0  0  0  0  0  0  0  0  0  0  0  0  # atno 17395 bound_to 11000

$$$$
