AV-unprocessed.smi:1135|AV-procd|sdf|4859|dock2
  -GOLD-   22720 3433D 1   1.00000     0.00000
 Structure written by MMmdl.
 45 46  0  0  0  0  0  0  0  0  1 V2000
  145.7029  131.7578  150.7712 C   0  0  0  0  0  0  0  0  0  0  0  0
  145.0541  133.0885  151.1773 C   0  0  2  0  0  0  0  0  0  0  0  0
  145.7991  134.2888  150.5645 C   0  0  0  0  0  0  0  0  0  0  0  0
  145.1724  135.6292  150.9946 C   0  0  0  0  0  0  0  0  0  0  0  0
  145.0999  135.7949  152.5317 C   0  0  2  0  0  0  0  0  0  0  0  0
  144.3482  137.1023  152.8609 C   0  0  0  0  0  0  0  0  0  0  0  0
  146.4791  135.8728  153.0362 N   0  0  0  0  0  0  0  0  0  0  0  0
  146.9200  135.7122  154.2946 C   0  0  0  0  0  0  0  0  0  0  0  0
  146.2001  135.4821  155.2662 O   0  0  0  0  0  0  0  0  0  0  0  0
  148.2534  135.8261  154.3653 N   0  0  0  0  0  0  0  0  0  0  0  0
  149.0374  135.6851  155.5867 C   0  0  0  0  0  0  0  0  0  0  0  0
  150.3226  134.8767  155.3425 C   0  0  0  0  0  0  0  0  0  0  0  0
  150.0348  133.4157  155.0527 C   0  0  0  0  0  0  0  0  0  0  0  0
  150.5604  132.4012  155.8809 C   0  0  0  0  0  0  0  0  0  0  0  0
  150.2737  131.0596  155.5633 C   0  0  0  0  0  0  0  0  0  0  0  0
  149.4775  130.7853  154.4347 C   0  0  0  0  0  0  0  0  0  0  0  0
  149.0001  131.8697  153.6717 C   0  0  0  0  0  0  0  0  0  0  0  0
  149.2690  133.1598  153.9677 N   0  0  0  0  0  0  0  0  0  0  0  0
  144.3415  134.5741  153.1172 C   0  0  0  0  0  0  0  0  0  0  0  0
  144.9702  133.2298  152.7081 C   0  0  0  0  0  0  0  0  0  0  0  0
  146.7279  131.6879  151.1371 H   0  0  0  0  0  0  0  0  0  0  0  0
  145.7280  131.6483  149.6868 H   0  0  0  0  0  0  0  0  0  0  0  0
  145.1469  130.9112  151.1749 H   0  0  0  0  0  0  0  0  0  0  0  0
  144.0361  133.0910  150.7846 H   0  0  0  0  0  0  0  0  0  0  0  0
  146.8500  134.2602  150.8554 H   0  0  0  0  0  0  0  0  0  0  0  0
  145.7846  134.2160  149.4764 H   0  0  0  0  0  0  0  0  0  0  0  0
  145.7358  136.4523  150.5527 H   0  0  0  0  0  0  0  0  0  0  0  0
  144.1683  135.6950  150.5726 H   0  0  0  0  0  0  0  0  0  0  0  0
  143.3484  137.1031  152.4255 H   0  0  0  0  0  0  0  0  0  0  0  0
  144.8757  137.9729  152.4695 H   0  0  0  0  0  0  0  0  0  0  0  0
  144.2279  137.2457  153.9347 H   0  0  0  0  0  0  0  0  0  0  0  0
  147.1814  136.0577  152.3351 H   0  0  0  0  0  0  0  0  0  0  0  0
  148.7631  136.0167  153.5150 H   0  0  0  0  0  0  0  0  0  0  0  0
  149.2873  136.6837  155.9462 H   0  0  0  0  0  0  0  0  0  0  0  0
  148.4338  135.2169  156.3662 H   0  0  0  0  0  0  0  0  0  0  0  0
  150.8807  135.2997  154.5062 H   0  0  0  0  0  0  0  0  0  0  0  0
  150.9784  134.9432  156.2120 H   0  0  0  0  0  0  0  0  0  0  0  0
  151.1717  132.6438  156.7379 H   0  0  0  0  0  0  0  0  0  0  0  0
  150.6593  130.2563  156.1733 H   0  0  0  0  0  0  0  0  0  0  0  0
  149.2386  129.7686  154.1599 H   0  0  0  0  0  0  0  0  0  0  0  0
  148.3872  131.6959  152.7995 H   0  0  0  0  0  0  0  0  0  0  0  0
  144.2790  134.6336  154.2034 H   0  0  0  0  0  0  0  0  0  0  0  0
  143.3081  134.5938  152.7682 H   0  0  0  0  0  0  0  0  0  0  0  0
  144.3785  132.4133  153.1230 H   0  0  0  0  0  0  0  0  0  0  0  0
  145.9645  133.1374  153.1468 H   0  0  0  0  0  0  0  0  0  0  0  0
  1  2  1  0  0  0  0
  1 21  1  0  0  0  0
  1 22  1  0  0  0  0
  1 23  1  0  0  0  0
  2 20  1  0  0  0  0
  2  3  1  0  0  0  0
  2 24  1  0  0  0  0
  3  4  1  0  0  0  0
  3 25  1  0  0  0  0
  3 26  1  0  0  0  0
  4  5  1  0  0  0  0
  4 27  1  0  0  0  0
  4 28  1  0  0  0  0
  5  6  1  0  0  0  0
  5  7  1  0  0  0  0
  5 19  1  0  0  0  0
  6 29  1  0  0  0  0
  6 30  1  0  0  0  0
  6 31  1  0  0  0  0
  7  8  1  0  0  0  0
  7 32  1  0  0  0  0
  8  9  2  0  0  0  0
  8 10  1  0  0  0  0
 10 11  1  0  0  0  0
 10 33  1  0  0  0  0
 11 12  1  0  0  0  0
 11 34  1  0  0  0  0
 11 35  1  0  0  0  0
 12 13  1  0  0  0  0
 12 36  1  0  0  0  0
 12 37  1  0  0  0  0
 13 18  1  0  0  0  0
 13 14  2  0  0  0  0
 14 15  1  0  0  0  0
 14 38  1  0  0  0  0
 15 16  2  0  0  0  0
 15 39  1  0  0  0  0
 16 17  1  0  0  0  0
 16 40  1  0  0  0  0
 17 18  2  0  0  0  0
 17 41  1  0  0  0  0
 19 20  1  0  0  0  0
 19 42  1  0  0  0  0
 19 43  1  0  0  0  0
 20 44  1  0  0  0  0
 20 45  1  0  0  0  0
M  END
> <s_m_source_file>
AV-unprocessed.smi

> <i_m_source_file_index>
1135

> <i_lp_mmshare_version>
43012

> <i_f3d_flags>
0

> <s_epik_input>
W0NIMl0xW0NIMl1bQ0BIXShbQ0gzXSlbQ0gyXVtDSDJdW0NAQF0xKFtDSDNdKVtOSF1DKD1PKVtOSF1bQ0gyXVtDSDJdYzJbY0hdW2NIXVtjSF1bY0hdbjI=

> <s_epik_cmdline>
J2VwaWtfcHl0aG9uJywgJy1waCcsICc3LjAnLCAnLXRuJywgJzgnLCAnLW1hJywgJzIwMCcsICctbWV0YWxfYmluZGluZycsICctaW1hZScsICc8aW5maWxlLm1hZT4nLCAnLW9tYWUnLCAnPG91dGZpbGUubWFlPic=

> <r_epik_Ionization_Penalty>
0.0448679

> <r_epik_Ionization_Penalty_Charging>
0

> <r_epik_Ionization_Penalty_Neutral>
0.0448679

> <r_epik_State_Penalty>
0.0379931

> <r_epik_Charging_Adjusted_Penalty>
0.0379931

> <i_epik_Tot_Q>
0

> <i_epik_Tot_abs_Q>
0

> <r_epik_Metal_State_Penalty>
0.0353093

> <b_epik_Metal_Only>
0

> <s_lp_Force_Field>
OPLS_2005

> <r_lp_Energy>
6.34065

> <b_lp_Chiralities_Consistent>
1

> <s_lp_Variant>
AV-unprocessed.smi:1135-2

> <Gold.Version>
5.8.1

> <Gold.Id.Protein>
6NUR|6NUR_protein|mol2

> <Gold.PLP.Fitness>
38.9986

> <Gold.PLP.PLP>
-30.9720

> <Gold.PLP.part.hbond>
-2.0000

> <Gold.PLP.part.metal>
0.0000

> <Gold.PLP.part.buried>
-2.8752

> <Gold.PLP.part.nonpolar>
-25.8370

> <Gold.PLP.part.repulsive>
0.1843

> <Gold.PLP.ligand.clash>
0.0000

> <Gold.PLP.ligand.torsion>
0.4793

> <Gold.PLP.Chemscore.Hbond>
2.0000

> <Gold.PLP.Chemscore.CHOScore>
0.9907

> <Gold.PLP.Chemscore.Metal>
0.0000

> <Gold.Chemscore.Hbonds>
donor molecule, donor type, donor heavy atom, donor atom, acceptor molecule, acceptor atom, score
      L1  H     7    32       P1  7948  1.00
      L1  H    10    33       P1  7948  1.00
      L1  C    17    41       P1 10747  0.56

> <Gold.PLP.Chemscore.Internal.Correction>
0.0131

> <Gold.Rescore>
     Score         DG    S(hbond)    S(metal)    S(lipo)     H(rot)  DE(clash)    DE(int)     intcor
     15.51     -17.48       1.93        0.00      78.41       1.42       0.42       1.55       ----

> <Gold.Chemscore.Fitness>
15.5057

> <Gold.Chemscore.DG>
-17.4760

> <Gold.Chemscore.ZeroCoef>
-5.4800

> <Gold.Chemscore.Hbond>
1.9344

> <Gold.Chemscore.Metal>
0.0000

> <Gold.Chemscore.Lipo>
78.4064

> <Gold.Chemscore.Internal_Hbond>
0.0000

> <Gold.Chemscore.DEClash>
0.4212

> <Gold.Chemscore.DEInternal>
1.5492

> <Gold.Chemscore.Rot>
1.4213

> <Gold.Chemscore.Internal.Correction>
   9.000000E+99

> <Gold.Chemscore.Hbonds>
donor molecule, donor type, donor heavy atom, donor atom, acceptor molecule, acceptor atom, score
      L1  H     7    32       P1  7948  0.95
      L1  H    10    33       P1  7948  0.98

> <Gold.Chemscore.Hbond.Weighted>
-6.4610

> <Gold.Chemscore.Metal.Weighted>
-0.0000

> <Gold.Chemscore.Lipo.Weighted>
-9.1735

> <Gold.Chemscore.Internal_Hbond.Weighted>
0.0000

> <Gold.Chemscore.DEClash.Weighted>
0.4212

> <Gold.Chemscore.DEInternal.Weighted>
1.5492

> <Gold.Chemscore.Rot.Weighted>
3.6385

> <Gold.Chemscore.Internal.Correction.Weighted>
   9.000000E+99

> <Gold.Protein.RotatedTorsions>
[ 6907 6896 6895 6894 ] final  -92.68 input  -60.11 | X-H torsion
[ 7974 7965 7964 7962 ] final   34.55 input  175.53 | X-H torsion
[ 8008 7997 7996 7995 ] final    2.90 input   59.86 | X-H torsion
[ 10167 10162 10161 10158 ] final  161.93 input  -65.29 | X-H torsion
[ 10718 10713 10712 10709 ] final  -82.41 input   66.30 | X-H torsion
[ 10763 10752 10751 10750 ] final  -72.71 input  -60.55 | X-H torsion
[ 11005 11000 10999 10996 ] final  -52.79 input  -57.11 | X-H torsion

> <Gold.Protein.ActiveResidues>
 VAL166  LYS551  ARG553  GLY616  TRP617  ASP618  TYR619  PRO620  LYS621  CYS622 
 ASP623  PHE694  ASN695  SER759  ASP760  ASP761  ALA762  ILE779  LEU786  VAL792 
 PHE793  MET794  SER795  GLU796  ALA797  LYS798  CYS799  TRP800  GLU811  SER814 

> <Gold.Protein.RotatedAtoms>
  150.6910  134.2084  159.4349 H   0  0  0  0  0  0  0  0  0  0  0  0  # atno 6907 bound_to 6896
  152.0047  134.9907  160.0575 H   0  0  0  0  0  0  0  0  0  0  0  0  # atno 6908 bound_to 6896
  152.1545  133.4508  159.4867 H   0  0  0  0  0  0  0  0  0  0  0  0  # atno 6909 bound_to 6896
  146.1345  139.6254  142.9205 H   0  0  0  0  0  0  0  0  0  0  0  0  # atno 7974 bound_to 7965
  154.6972  140.2665  155.6755 H   0  0  0  0  0  0  0  0  0  0  0  0  # atno 8008 bound_to 7997
  156.2752  140.2779  156.1494 H   0  0  0  0  0  0  0  0  0  0  0  0  # atno 8009 bound_to 7997
  155.0815  140.0372  157.2630 H   0  0  0  0  0  0  0  0  0  0  0  0  # atno 8010 bound_to 7997
  139.4855  144.4487  151.8858 H   0  0  0  0  0  0  0  0  0  0  0  0  # atno 10167 bound_to 10162
  156.0033  130.4633  150.4101 H   0  0  0  0  0  0  0  0  0  0  0  0  # atno 10718 bound_to 10713
  154.4494  135.5921  153.6182 H   0  0  0  0  0  0  0  0  0  0  0  0  # atno 10763 bound_to 10752
  152.9812  135.6017  154.3623 H   0  0  0  0  0  0  0  0  0  0  0  0  # atno 10764 bound_to 10752
  154.3482  135.2841  155.2365 H   0  0  0  0  0  0  0  0  0  0  0  0  # atno 10765 bound_to 10752
  141.0943  133.6627  156.4077 H   0  0  0  0  0  0  0  0  0  0  0  0  # atno 11005 bound_to 11000
  145.5187  141.0433  143.2447 LP  0  0  0  0  0  0  0  0  0  0  0  0  # atno 17320 bound_to 7965
  144.7725  139.6703  143.7189 LP  0  0  0  0  0  0  0  0  0  0  0  0  # atno 17321 bound_to 7965
  140.3943  144.2575  150.5897 LP  0  0  0  0  0  0  0  0  0  0  0  0  # atno 17342 bound_to 10162
  140.5117  143.2289  151.8525 LP  0  0  0  0  0  0  0  0  0  0  0  0  # atno 17343 bound_to 10162
  157.2164  131.0472  151.2571 LP  0  0  0  0  0  0  0  0  0  0  0  0  # atno 17370 bound_to 10713
  157.3841  130.7247  149.6651 LP  0  0  0  0  0  0  0  0  0  0  0  0  # atno 17371 bound_to 10713
  140.5178  134.6333  157.5307 LP  0  0  0  0  0  0  0  0  0  0  0  0  # atno 17394 bound_to 11000
  139.9776  134.7190  155.9921 LP  0  0  0  0  0  0  0  0  0  0  0  0  # atno 17395 bound_to 11000

$$$$
