AV-unprocessed.smi:1731|AV-procd|sdf|6975|dock9
  -GOLD-   22720 8183D 1   1.00000     0.00000
 Structure written by MMmdl.
 41 42  0  0  0  0  0  0  0  0  1 V2000
  152.5948  142.5620  162.8712 C   0  0  0  0  0  0  0  0  0  0  0  0
  152.8318  143.3261  161.5608 C   0  0  2  0  0  0  0  0  0  0  0  0
  151.7502  144.3992  161.3312 C   0  0  0  0  0  0  0  0  0  0  0  0
  151.9788  145.1652  160.0157 C   0  0  0  0  0  0  0  0  0  0  0  0
  152.0762  144.2234  158.8002 C   0  0  2  0  0  0  0  0  0  0  0  0
  150.7680  143.6400  158.5073 N   0  0  0  0  0  0  0  0  0  0  0  0
  150.4439  142.9757  157.3890 C   0  0  0  0  0  0  0  0  0  0  0  0
  151.2272  142.7821  156.4589 O   0  0  0  0  0  0  0  0  0  0  0  0
  149.1691  142.5552  157.4256 N   0  0  0  0  0  0  0  0  0  0  0  0
  148.4762  141.8217  156.4299 C   0  0  0  0  0  0  0  0  0  0  0  0
  147.5714  140.7599  156.6894 C   0  0  0  0  0  0  0  0  0  0  0  0
  147.0773  140.2658  155.5645 N   0  0  0  0  0  0  0  0  0  0  0  0
  147.6550  140.9935  154.5756 N   0  0  0  0  0  0  0  0  0  0  0  0
  147.3307  140.7088  153.1889 C   0  0  0  0  0  0  0  0  0  0  0  0
  147.5065  139.2216  152.8746 C   0  0  0  0  0  0  0  0  0  0  0  0
  148.4443  138.8931  151.9821 N   0  0  0  0  0  0  0  0  0  0  0  0
  146.8075  138.3785  153.4329 O   0  0  0  0  0  0  0  0  0  0  0  0
  148.5124  141.9572  155.0710 C   0  0  0  0  0  0  0  0  0  0  0  0
  153.1395  143.1306  159.0392 C   0  0  0  0  0  0  0  0  0  0  0  0
  152.9057  142.3687  160.3559 C   0  0  0  0  0  0  0  0  0  0  0  0
  151.6448  142.0269  162.8526 H   0  0  0  0  0  0  0  0  0  0  0  0
  152.5780  143.2413  163.7239 H   0  0  0  0  0  0  0  0  0  0  0  0
  153.3849  141.8318  163.0482 H   0  0  0  0  0  0  0  0  0  0  0  0
  153.7941  143.8327  161.6462 H   0  0  0  0  0  0  0  0  0  0  0  0
  150.7641  143.9333  161.3179 H   0  0  0  0  0  0  0  0  0  0  0  0
  151.7434  145.1038  162.1635 H   0  0  0  0  0  0  0  0  0  0  0  0
  151.1829  145.8955  159.8649 H   0  0  0  0  0  0  0  0  0  0  0  0
  152.9030  145.7390  160.0964 H   0  0  0  0  0  0  0  0  0  0  0  0
  152.3802  144.8220  157.9396 H   0  0  0  0  0  0  0  0  0  0  0  0
  150.0579  143.7472  159.2167 H   0  0  0  0  0  0  0  0  0  0  0  0
  148.6393  142.7790  158.2553 H   0  0  0  0  0  0  0  0  0  0  0  0
  147.2629  140.3397  157.6354 H   0  0  0  0  0  0  0  0  0  0  0  0
  146.3001  141.0041  152.9852 H   0  0  0  0  0  0  0  0  0  0  0  0
  147.9707  141.3181  152.5492 H   0  0  0  0  0  0  0  0  0  0  0  0
  148.5977  137.9242  151.7424 H   0  0  0  0  0  0  0  0  0  0  0  0
  148.9983  139.6181  151.5496 H   0  0  0  0  0  0  0  0  0  0  0  0
  149.0553  142.6287  154.4226 H   0  0  0  0  0  0  0  0  0  0  0  0
  153.1641  142.4310  158.2027 H   0  0  0  0  0  0  0  0  0  0  0  0
  154.1258  143.5953  159.0696 H   0  0  0  0  0  0  0  0  0  0  0  0
  153.7091  141.6464  160.5039 H   0  0  0  0  0  0  0  0  0  0  0  0
  151.9836  141.7902  160.2855 H   0  0  0  0  0  0  0  0  0  0  0  0
  1  2  1  0  0  0  0
  1 21  1  0  0  0  0
  1 22  1  0  0  0  0
  1 23  1  0  0  0  0
  2 20  1  0  0  0  0
  2  3  1  0  0  0  0
  2 24  1  0  0  0  0
  3  4  1  0  0  0  0
  3 25  1  0  0  0  0
  3 26  1  0  0  0  0
  4  5  1  0  0  0  0
  4 27  1  0  0  0  0
  4 28  1  0  0  0  0
  5  6  1  0  0  0  0
  5 19  1  0  0  0  0
  5 29  1  0  0  0  0
  6  7  1  0  0  0  0
  6 30  1  0  0  0  0
  7  8  2  0  0  0  0
  7  9  1  0  0  0  0
  9 10  1  0  0  0  0
  9 31  1  0  0  0  0
 10 18  2  0  0  0  0
 10 11  1  0  0  0  0
 11 12  2  0  0  0  0
 11 32  1  0  0  0  0
 12 13  1  0  0  0  0
 13 14  1  0  0  0  0
 13 18  1  0  0  0  0
 14 15  1  0  0  0  0
 14 33  1  0  0  0  0
 14 34  1  0  0  0  0
 15 16  1  0  0  0  0
 15 17  2  0  0  0  0
 16 35  1  0  0  0  0
 16 36  1  0  0  0  0
 18 37  1  0  0  0  0
 19 20  1  0  0  0  0
 19 38  1  0  0  0  0
 19 39  1  0  0  0  0
 20 40  1  0  0  0  0
 20 41  1  0  0  0  0
M  END
> <s_m_source_file>
AV-unprocessed.smi

> <i_m_source_file_index>
1731

> <i_lp_mmshare_version>
43012

> <i_f3d_flags>
0

> <s_epik_input>
W0NIM11bQ0BASF0xW0NIMl1bQ0gyXVtDQEhdKFtDSDJdW0NIMl0xKVtOSF1DKD1PKVtOSF1jMltjSF1ubihbY0hdMilbQ0gyXUMoPU8pW05IMl0=

> <s_epik_cmdline>
J2VwaWtfcHl0aG9uJywgJy1waCcsICc3LjAnLCAnLXRuJywgJzgnLCAnLW1hJywgJzIwMCcsICctbWV0YWxfYmluZGluZycsICctaW1hZScsICc8aW5maWxlLm1hZT4nLCAnLW9tYWUnLCAnPG91dGZpbGUubWFlPic=

> <r_lp_tautomer_probability>
1

> <r_epik_Ionization_Penalty>
4.81284e-05

> <r_epik_Ionization_Penalty_Charging>
0

> <r_epik_Ionization_Penalty_Neutral>
4.81284e-05

> <r_epik_State_Penalty>
-0

> <r_epik_Charging_Adjusted_Penalty>
0

> <i_epik_Tot_Q>
0

> <i_epik_Tot_abs_Q>
0

> <r_epik_Metal_State_Penalty>
-0

> <b_epik_Metal_Only>
0

> <s_lp_Force_Field>
OPLS_2005

> <r_lp_Energy>
11.3018

> <b_lp_Chiralities_Consistent>
1

> <s_lp_Variant>
AV-unprocessed.smi:1731-2

> <Gold.Version>
5.8.1

> <Gold.Id.Protein>
6NUR|6NUR_protein|mol2

> <Gold.PLP.Fitness>
43.4447

> <Gold.PLP.PLP>
-36.5724

> <Gold.PLP.part.hbond>
-2.5932

> <Gold.PLP.part.metal>
0.0000

> <Gold.PLP.part.buried>
-2.9944

> <Gold.PLP.part.nonpolar>
-31.7857

> <Gold.PLP.part.repulsive>
0.6422

> <Gold.PLP.ligand.clash>
0.0000

> <Gold.PLP.ligand.torsion>
0.5093

> <Gold.PLP.Chemscore.Hbond>
1.9913

> <Gold.PLP.Chemscore.CHOScore>
0.6367

> <Gold.PLP.Chemscore.Metal>
0.0000

> <Gold.Chemscore.Hbonds>
donor molecule, donor type, donor heavy atom, donor atom, acceptor molecule, acceptor atom, score
      L1  H    16    35       P1  7948  1.00
      L1  C    18    37       P1  8028  0.44

> <Gold.PLP.Chemscore.Internal.Correction>
0.0071

> <Gold.Rescore>
     Score         DG    S(hbond)    S(metal)    S(lipo)     H(rot)  DE(clash)    DE(int)     intcor
     17.00     -18.70       1.96        0.00      98.81       1.90       0.08       1.62       ----

> <Gold.Chemscore.Fitness>
16.9982

> <Gold.Chemscore.DG>
-18.6997

> <Gold.Chemscore.ZeroCoef>
-5.4800

> <Gold.Chemscore.Hbond>
1.9552

> <Gold.Chemscore.Metal>
0.0000

> <Gold.Chemscore.Lipo>
98.8101

> <Gold.Chemscore.Internal_Hbond>
0.0000

> <Gold.Chemscore.DEClash>
0.0843

> <Gold.Chemscore.DEInternal>
1.6172

> <Gold.Chemscore.Rot>
1.9029

> <Gold.Chemscore.Internal.Correction>
   9.000000E+99

> <Gold.Chemscore.Hbonds>
donor molecule, donor type, donor heavy atom, donor atom, acceptor molecule, acceptor atom, score
      L1  H    16    35       P1  7948  0.98

> <Gold.Chemscore.Hbond.Weighted>
-6.5303

> <Gold.Chemscore.Metal.Weighted>
-0.0000

> <Gold.Chemscore.Lipo.Weighted>
-11.5608

> <Gold.Chemscore.Internal_Hbond.Weighted>
0.0000

> <Gold.Chemscore.DEClash.Weighted>
0.0843

> <Gold.Chemscore.DEInternal.Weighted>
1.6172

> <Gold.Chemscore.Rot.Weighted>
4.8714

> <Gold.Chemscore.Internal.Correction.Weighted>
   9.000000E+99

> <Gold.Protein.RotatedTorsions>
[ 6907 6896 6895 6894 ] final  138.71 input  -60.11 | X-H torsion
[ 7974 7965 7964 7962 ] final -166.89 input  175.53 | X-H torsion
[ 8008 7997 7996 7995 ] final   61.34 input   59.86 | X-H torsion
[ 10167 10162 10161 10158 ] final -146.85 input  -65.29 | X-H torsion
[ 10718 10713 10712 10709 ] final  128.63 input   66.30 | X-H torsion
[ 10763 10752 10751 10750 ] final   20.34 input  -60.55 | X-H torsion
[ 11005 11000 10999 10996 ] final   89.66 input  -57.11 | X-H torsion

> <Gold.Protein.ActiveResidues>
 VAL166  LYS551  ARG553  GLY616  TRP617  ASP618  TYR619  PRO620  LYS621  CYS622 
 ASP623  PHE694  ASN695  SER759  ASP760  ASP761  ALA762  ILE779  LEU786  VAL792 
 PHE793  MET794  SER795  GLU796  ALA797  LYS798  CYS799  TRP800  GLU811  SER814 

> <Gold.Protein.RotatedAtoms>
  152.2634  133.5318  159.5395 H   0  0  0  0  0  0  0  0  0  0  0  0  # atno 6907 bound_to 6896
  150.7133  134.0798  159.3903 H   0  0  0  0  0  0  0  0  0  0  0  0  # atno 6908 bound_to 6896
  151.8715  135.0488  160.0530 H   0  0  0  0  0  0  0  0  0  0  0  0  # atno 6909 bound_to 6896
  144.7235  140.2599  143.6266 H   0  0  0  0  0  0  0  0  0  0  0  0  # atno 7974 bound_to 7965
  155.5968  140.3493  155.4582 H   0  0  0  0  0  0  0  0  0  0  0  0  # atno 8008 bound_to 7997
  156.0259  140.1264  157.0334 H   0  0  0  0  0  0  0  0  0  0  0  0  # atno 8009 bound_to 7997
  154.4333  140.1053  156.6016 H   0  0  0  0  0  0  0  0  0  0  0  0  # atno 8010 bound_to 7997
  139.7675  143.8286  152.2619 H   0  0  0  0  0  0  0  0  0  0  0  0  # atno 10167 bound_to 10162
  157.5227  131.1098  150.9130 H   0  0  0  0  0  0  0  0  0  0  0  0  # atno 10718 bound_to 10713
  153.1086  135.6691  153.9542 H   0  0  0  0  0  0  0  0  0  0  0  0  # atno 10763 bound_to 10752
  153.9092  135.3027  155.3450 H   0  0  0  0  0  0  0  0  0  0  0  0  # atno 10764 bound_to 10752
  154.7506  135.5036  153.9359 H   0  0  0  0  0  0  0  0  0  0  0  0  # atno 10765 bound_to 10752
  139.8871  134.8565  156.3173 H   0  0  0  0  0  0  0  0  0  0  0  0  # atno 11005 bound_to 11000
  145.8146  139.2017  143.1973 LP  0  0  0  0  0  0  0  0  0  0  0  0  # atno 17320 bound_to 7965
  146.0567  140.8014  142.9755 LP  0  0  0  0  0  0  0  0  0  0  0  0  # atno 17321 bound_to 7965
  139.8310  144.7253  150.9450 LP  0  0  0  0  0  0  0  0  0  0  0  0  # atno 17342 bound_to 10162
  140.7812  143.4069  151.1055 LP  0  0  0  0  0  0  0  0  0  0  0  0  # atno 17343 bound_to 10162
  156.9735  130.5500  149.5292 LP  0  0  0  0  0  0  0  0  0  0  0  0  # atno 17370 bound_to 10713
  156.0365  130.5452  150.8665 LP  0  0  0  0  0  0  0  0  0  0  0  0  # atno 17371 bound_to 10713
  140.9810  133.7267  156.0672 LP  0  0  0  0  0  0  0  0  0  0  0  0  # atno 17394 bound_to 11000
  140.7749  134.3791  157.5500 LP  0  0  0  0  0  0  0  0  0  0  0  0  # atno 17395 bound_to 11000

$$$$
