AV-unprocessed.smi:1883|AV-procd|sdf|7642|dock5
  -GOLD-   22720 9373D 1   1.00000     0.00000
 Structure written by MMmdl.
 35 37  0  0  0  0  0  0  0  0  1 V2000
  151.9026  138.3996  155.8042 C   0  0  0  0  0  0  0  0  0  0  0  0
  150.7387  139.0187  155.0975 C   0  0  0  0  0  0  0  0  0  0  0  0
  149.9201  138.3087  154.3204 N   0  0  0  0  0  0  0  0  0  0  0  0
  149.0165  139.2587  153.8846 C   0  0  0  0  0  0  0  0  0  0  0  0
  147.8982  139.1390  153.0287 C   0  0  0  0  0  0  0  0  0  0  0  0
  147.1115  140.2681  152.7199 C   0  0  0  0  0  0  0  0  0  0  0  0
  147.4300  141.5305  153.2619 C   0  0  0  0  0  0  0  0  0  0  0  0
  148.5388  141.6714  154.1186 C   0  0  0  0  0  0  0  0  0  0  0  0
  149.3209  140.5412  154.4227 C   0  0  0  0  0  0  0  0  0  0  0  0
  150.4506  140.3391  155.2089 N   0  0  0  0  0  0  0  0  0  0  0  0
  151.1509  141.3572  155.9801 C   0  0  0  0  0  0  0  0  0  0  0  0
  150.3508  141.8221  157.2128 C   0  0  2  0  0  0  0  0  0  0  0  0
  149.3510  142.7434  156.8194 O   0  0  0  0  0  0  0  0  0  0  0  0
  151.2732  142.3861  158.2851 C   0  0  0  0  0  0  0  0  0  0  0  0
  151.3348  143.7792  158.5148 C   0  0  0  0  0  0  0  0  0  0  0  0
  152.1946  144.3017  159.5000 C   0  0  0  0  0  0  0  0  0  0  0  0
  152.2461  145.6377  159.7140 F   0  0  0  0  0  0  0  0  0  0  0  0
  153.0022  143.4354  160.2608 C   0  0  0  0  0  0  0  0  0  0  0  0
  152.9527  142.0473  160.0322 C   0  0  0  0  0  0  0  0  0  0  0  0
  152.0940  141.5225  159.0461 C   0  0  0  0  0  0  0  0  0  0  0  0
  152.0673  140.1849  158.8323 F   0  0  0  0  0  0  0  0  0  0  0  0
  152.0105  137.3528  155.5188 H   0  0  0  0  0  0  0  0  0  0  0  0
  151.7570  138.4489  156.8833 H   0  0  0  0  0  0  0  0  0  0  0  0
  152.8252  138.9200  155.5473 H   0  0  0  0  0  0  0  0  0  0  0  0
  147.6460  138.1766  152.6088 H   0  0  0  0  0  0  0  0  0  0  0  0
  146.2596  140.1653  152.0639 H   0  0  0  0  0  0  0  0  0  0  0  0
  146.8224  142.3902  153.0199 H   0  0  0  0  0  0  0  0  0  0  0  0
  148.7861  142.6363  154.5358 H   0  0  0  0  0  0  0  0  0  0  0  0
  152.1055  140.9352  156.2970 H   0  0  0  0  0  0  0  0  0  0  0  0
  151.3939  142.2039  155.3376 H   0  0  0  0  0  0  0  0  0  0  0  0
  149.8209  140.9656  157.6306 H   0  0  0  0  0  0  0  0  0  0  0  0
  149.7199  143.3307  156.1776 H   0  0  0  0  0  0  0  0  0  0  0  0
  150.7244  144.4547  157.9331 H   0  0  0  0  0  0  0  0  0  0  0  0
  153.6616  143.8360  161.0167 H   0  0  0  0  0  0  0  0  0  0  0  0
  153.5765  141.3835  160.6126 H   0  0  0  0  0  0  0  0  0  0  0  0
  1  2  1  0  0  0  0
  1 22  1  0  0  0  0
  1 23  1  0  0  0  0
  1 24  1  0  0  0  0
  2 10  1  0  0  0  0
  2  3  2  0  0  0  0
  3  4  1  0  0  0  0
  4  9  2  0  0  0  0
  4  5  1  0  0  0  0
  5  6  2  0  0  0  0
  5 25  1  0  0  0  0
  6  7  1  0  0  0  0
  6 26  1  0  0  0  0
  7  8  2  0  0  0  0
  7 27  1  0  0  0  0
  8  9  1  0  0  0  0
  8 28  1  0  0  0  0
  9 10  1  0  0  0  0
 10 11  1  0  0  0  0
 11 12  1  0  0  0  0
 11 29  1  0  0  0  0
 11 30  1  0  0  0  0
 12 13  1  0  0  0  0
 12 14  1  0  0  0  0
 12 31  1  0  0  0  0
 13 32  1  0  0  0  0
 14 20  1  0  0  0  0
 14 15  2  0  0  0  0
 15 16  1  0  0  0  0
 15 33  1  0  0  0  0
 16 17  1  0  0  0  0
 16 18  2  0  0  0  0
 18 19  1  0  0  0  0
 18 34  1  0  0  0  0
 19 20  2  0  0  0  0
 19 35  1  0  0  0  0
 20 21  1  0  0  0  0
M  END
> <s_m_source_file>
AV-unprocessed.smi

> <i_m_source_file_index>
1883

> <i_lp_mmshare_version>
43012

> <i_f3d_flags>
0

> <s_epik_input>
W2NIXTFbY0hdW2NIXVtjSF1jKGMxMiluKGMobjIpW0NIM10pW0NIMl1bQ0BIXShbT0hdKWMzW2NIXWMoRilbY0hdW2NIXWMzRg==

> <s_epik_cmdline>
J2VwaWtfcHl0aG9uJywgJy1waCcsICc3LjAnLCAnLXRuJywgJzgnLCAnLW1hJywgJzIwMCcsICctbWV0YWxfYmluZGluZycsICctaW1hZScsICc8aW5maWxlLm1hZT4nLCAnLW9tYWUnLCAnPG91dGZpbGUubWFlPic=

> <r_epik_Ionization_Penalty>
0.129664

> <r_epik_Ionization_Penalty_Charging>
0

> <r_epik_Ionization_Penalty_Neutral>
0.129664

> <r_epik_State_Penalty>
0.119073

> <r_epik_Charging_Adjusted_Penalty>
0.119073

> <i_epik_Tot_Q>
0

> <i_epik_Tot_abs_Q>
0

> <r_epik_Metal_State_Penalty>
0.000131867

> <b_epik_Metal_Only>
0

> <s_lp_Force_Field>
OPLS_2005

> <r_lp_Energy>
11.5832

> <b_lp_Chiralities_Consistent>
1

> <s_lp_Variant>
AV-unprocessed.smi:1883-1

> <Gold.Version>
5.8.1

> <Gold.Id.Protein>
6NUR|6NUR_protein|mol2

> <Gold.PLP.Fitness>
51.5165

> <Gold.PLP.PLP>
-49.9432

> <Gold.PLP.part.hbond>
-1.0000

> <Gold.PLP.part.metal>
0.0000

> <Gold.PLP.part.buried>
-2.5687

> <Gold.PLP.part.nonpolar>
-46.8690

> <Gold.PLP.part.repulsive>
0.2262

> <Gold.PLP.ligand.clash>
0.0000

> <Gold.PLP.ligand.torsion>
0.7253

> <Gold.PLP.Chemscore.Hbond>
1.0000

> <Gold.PLP.Chemscore.CHOScore>
0.0000

> <Gold.PLP.Chemscore.Metal>
0.0000

> <Gold.Chemscore.Hbonds>
donor molecule, donor type, donor heavy atom, donor atom, acceptor molecule, acceptor atom, score
      L1  H    13    32       P1  8028  0.43

> <Gold.PLP.Chemscore.Internal.Correction>
0.0238

> <Gold.Rescore>
     Score         DG    S(hbond)    S(metal)    S(lipo)     H(rot)  DE(clash)    DE(int)     intcor
     17.44     -18.57       0.95        0.00     125.96       1.88       0.24       0.89       ----

> <Gold.Chemscore.Fitness>
17.4360

> <Gold.Chemscore.DG>
-18.5654

> <Gold.Chemscore.ZeroCoef>
-5.4800

> <Gold.Chemscore.Hbond>
0.9493

> <Gold.Chemscore.Metal>
0.0000

> <Gold.Chemscore.Lipo>
125.9604

> <Gold.Chemscore.Internal_Hbond>
0.0000

> <Gold.Chemscore.DEClash>
0.2420

> <Gold.Chemscore.DEInternal>
0.8875

> <Gold.Chemscore.Rot>
1.8839

> <Gold.Chemscore.Internal.Correction>
   9.000000E+99

> <Gold.Chemscore.Hbonds>
donor molecule, donor type, donor heavy atom, donor atom, acceptor molecule, acceptor atom, score
      L1  H    13    32       P1  8028  0.44

> <Gold.Chemscore.Hbond.Weighted>
-3.1708

> <Gold.Chemscore.Metal.Weighted>
-0.0000

> <Gold.Chemscore.Lipo.Weighted>
-14.7374

> <Gold.Chemscore.Internal_Hbond.Weighted>
0.0000

> <Gold.Chemscore.DEClash.Weighted>
0.2420

> <Gold.Chemscore.DEInternal.Weighted>
0.8875

> <Gold.Chemscore.Rot.Weighted>
4.8227

> <Gold.Chemscore.Internal.Correction.Weighted>
   9.000000E+99

> <Gold.Protein.RotatedTorsions>
[ 6907 6896 6895 6894 ] final   47.31 input  -60.11 | X-H torsion
[ 7974 7965 7964 7962 ] final    3.16 input  175.53 | X-H torsion
[ 8008 7997 7996 7995 ] final -134.25 input   59.86 | X-H torsion
[ 10167 10162 10161 10158 ] final  177.41 input  -65.29 | X-H torsion
[ 10718 10713 10712 10709 ] final  128.01 input   66.30 | X-H torsion
[ 10763 10752 10751 10750 ] final   24.86 input  -60.55 | X-H torsion
[ 11005 11000 10999 10996 ] final    6.94 input  -57.11 | X-H torsion

> <Gold.Protein.ActiveResidues>
 VAL166  LYS551  ARG553  GLY616  TRP617  ASP618  TYR619  PRO620  LYS621  CYS622 
 ASP623  PHE694  ASN695  SER759  ASP760  ASP761  ALA762  ILE779  LEU786  VAL792 
 PHE793  MET794  SER795  GLU796  ALA797  LYS798  CYS799  TRP800  GLU811  SER814 

> <Gold.Protein.RotatedAtoms>
  152.2665  134.7978  160.0421 H   0  0  0  0  0  0  0  0  0  0  0  0  # atno 6907 bound_to 6896
  151.8606  133.3451  159.3710 H   0  0  0  0  0  0  0  0  0  0  0  0  # atno 6908 bound_to 6896
  150.7136  134.5138  159.5664 H   0  0  0  0  0  0  0  0  0  0  0  0  # atno 6909 bound_to 6896
  146.2445  140.0726  142.8361 H   0  0  0  0  0  0  0  0  0  0  0  0  # atno 7974 bound_to 7965
  155.3589  140.0481  157.3046 H   0  0  0  0  0  0  0  0  0  0  0  0  # atno 8008 bound_to 7997
  154.5188  140.2218  155.8978 H   0  0  0  0  0  0  0  0  0  0  0  0  # atno 8009 bound_to 7997
  156.1667  140.3105  155.8906 H   0  0  0  0  0  0  0  0  0  0  0  0  # atno 8010 bound_to 7997
  139.5252  144.2801  152.0554 H   0  0  0  0  0  0  0  0  0  0  0  0  # atno 10167 bound_to 10162
  157.5283  131.1098  150.9049 H   0  0  0  0  0  0  0  0  0  0  0  0  # atno 10718 bound_to 10713
  153.0733  135.6596  154.0200 H   0  0  0  0  0  0  0  0  0  0  0  0  # atno 10763 bound_to 10752
  153.9840  135.2952  155.3419 H   0  0  0  0  0  0  0  0  0  0  0  0  # atno 10764 bound_to 10752
  154.7114  135.5203  153.8742 H   0  0  0  0  0  0  0  0  0  0  0  0  # atno 10765 bound_to 10752
  140.5538  134.0257  155.7946 H   0  0  0  0  0  0  0  0  0  0  0  0  # atno 11005 bound_to 11000
  145.0802  140.9216  143.4830 LP  0  0  0  0  0  0  0  0  0  0  0  0  # atno 17320 bound_to 7965
  145.0878  139.2912  143.5750 LP  0  0  0  0  0  0  0  0  0  0  0  0  # atno 17321 bound_to 7965
  140.2257  144.4421  150.6322 LP  0  0  0  0  0  0  0  0  0  0  0  0  # atno 17342 bound_to 10162
  140.6389  143.2200  151.6334 LP  0  0  0  0  0  0  0  0  0  0  0  0  # atno 17343 bound_to 10162
  156.9638  130.5465  149.5287 LP  0  0  0  0  0  0  0  0  0  0  0  0  # atno 17370 bound_to 10713
  156.0403  130.5486  150.8754 LP  0  0  0  0  0  0  0  0  0  0  0  0  # atno 17371 bound_to 10713
  141.1155  133.9546  157.2829 LP  0  0  0  0  0  0  0  0  0  0  0  0  # atno 17394 bound_to 11000
  139.9442  135.0186  156.8800 LP  0  0  0  0  0  0  0  0  0  0  0  0  # atno 17395 bound_to 11000

$$$$
