AV-unprocessed.smi:3156|AV-procd|sdf|12029|dock10
  -GOLD-   2272017443D 1   1.00000     0.00000
 Structure written by MMmdl.
 41 42  0  0  0  0  0  0  0  0  2 V2000
  147.0268  142.0866  155.4395 C   0  0  0  0  0  0  0  0  0  0  0  0
  148.3303  141.2844  155.6226 C   0  0  2  0  0  0  0  0  0  0  0  0
  149.4155  142.1753  156.0992 N   0  3  0  0  0  0  0  0  0  0  0  0
  150.0169  141.8124  157.3997 C   0  0  0  0  0  0  0  0  0  0  0  0
  151.2203  142.7113  157.7146 C   0  0  2  0  0  0  0  0  0  0  0  0
  152.1071  142.1145  158.8247 C   0  0  0  0  0  0  0  0  0  0  0  0
  153.2508  143.0733  159.1747 C   0  0  0  0  0  0  0  0  0  0  0  0
  152.6819  144.4575  159.5030 C   0  0  0  0  0  0  0  0  0  0  0  0
  151.7583  144.9375  158.3723 C   0  0  0  0  0  0  0  0  0  0  0  0
  150.7286  143.9788  158.1462 O   0  0  0  0  0  0  0  0  0  0  0  0
  148.7698  140.5670  154.3155 C   0  0  2  0  0  0  0  0  0  0  0  0
  147.6035  139.8859  153.5753 C   0  0  0  0  0  0  0  0  0  0  0  0
  149.8257  139.5879  154.5550 N   0  0  0  0  0  0  0  0  0  0  0  0
  149.7741  138.2208  154.3746 C   0  0  0  0  0  0  0  0  0  0  0  0
  150.9861  137.7128  154.7444 C   0  0  0  0  0  0  0  0  0  0  0  0
  151.7212  138.8584  155.1575 C   0  0  0  0  0  0  0  0  0  0  0  0
  151.0233  139.9771  155.0492 N   0  0  0  0  0  0  0  0  0  0  0  0
  146.1954  141.4442  155.1516 H   0  0  0  0  0  0  0  0  0  0  0  0
  147.1371  142.8532  154.6721 H   0  0  0  0  0  0  0  0  0  0  0  0
  146.7241  142.5823  156.3612 H   0  0  0  0  0  0  0  0  0  0  0  0
  148.1603  140.5236  156.3861 H   0  0  0  0  0  0  0  0  0  0  0  0
  150.1547  142.1316  155.4117 H   0  0  0  0  0  0  0  0  0  0  0  0
  149.2753  141.8859  158.1949 H   0  0  0  0  0  0  0  0  0  0  0  0
  150.3443  140.7728  157.3577 H   0  0  0  0  0  0  0  0  0  0  0  0
  151.8139  142.8410  156.8073 H   0  0  0  0  0  0  0  0  0  0  0  0
  151.5057  141.9255  159.7151 H   0  0  0  0  0  0  0  0  0  0  0  0
  152.5119  141.1518  158.5111 H   0  0  0  0  0  0  0  0  0  0  0  0
  153.8267  142.6888  160.0169 H   0  0  0  0  0  0  0  0  0  0  0  0
  153.9386  143.1486  158.3315 H   0  0  0  0  0  0  0  0  0  0  0  0
  152.1201  144.4107  160.4366 H   0  0  0  0  0  0  0  0  0  0  0  0
  153.4912  145.1712  159.6596 H   0  0  0  0  0  0  0  0  0  0  0  0
  151.3005  145.8894  158.6412 H   0  0  0  0  0  0  0  0  0  0  0  0
  152.3228  145.1048  157.4536 H   0  0  0  0  0  0  0  0  0  0  0  0
  149.1894  141.3192  153.6456 H   0  0  0  0  0  0  0  0  0  0  0  0
  146.8680  140.6081  153.2231 H   0  0  0  0  0  0  0  0  0  0  0  0
  147.0891  139.1687  154.2159 H   0  0  0  0  0  0  0  0  0  0  0  0
  147.9611  139.3464  152.6976 H   0  0  0  0  0  0  0  0  0  0  0  0
  148.8890  137.7273  154.0003 H   0  0  0  0  0  0  0  0  0  0  0  0
  151.2983  136.6789  154.7286 H   0  0  0  0  0  0  0  0  0  0  0  0
  152.7330  138.9098  155.5321 H   0  0  0  0  0  0  0  0  0  0  0  0
  149.0751  143.1254  156.1408 H   0  0  0  0  0  0  0  0  0  0  0  0
  1  2  1  0  0  0  0
  1 18  1  0  0  0  0
  1 19  1  0  0  0  0
  1 20  1  0  0  0  0
  2  3  1  0  0  0  0
  2 11  1  0  0  0  0
  2 21  1  0  0  0  0
  3  4  1  0  0  0  0
  3 22  1  0  0  0  0
  3 41  1  0  0  0  0
  4  5  1  0  0  0  0
  4 23  1  0  0  0  0
  4 24  1  0  0  0  0
  5 10  1  0  0  0  0
  5  6  1  0  0  0  0
  5 25  1  0  0  0  0
  6  7  1  0  0  0  0
  6 26  1  0  0  0  0
  6 27  1  0  0  0  0
  7  8  1  0  0  0  0
  7 28  1  0  0  0  0
  7 29  1  0  0  0  0
  8  9  1  0  0  0  0
  8 30  1  0  0  0  0
  8 31  1  0  0  0  0
  9 10  1  0  0  0  0
  9 32  1  0  0  0  0
  9 33  1  0  0  0  0
 11 12  1  0  0  0  0
 11 13  1  0  0  0  0
 11 34  1  0  0  0  0
 12 35  1  0  0  0  0
 12 36  1  0  0  0  0
 12 37  1  0  0  0  0
 13 17  1  0  0  0  0
 13 14  1  0  0  0  0
 14 15  2  0  0  0  0
 14 38  1  0  0  0  0
 15 16  1  0  0  0  0
 15 39  1  0  0  0  0
 16 17  2  0  0  0  0
 16 40  1  0  0  0  0
M  CHG  1   3   1
M  END
> <s_m_source_file>
AV-unprocessed.smi

> <i_m_source_file_index>
3156

> <i_lp_mmshare_version>
43012

> <i_f3d_flags>
0

> <s_epik_input>
bjFbY0hdW2NIXVtjSF1uMVtDQEBIXShbQ0gzXSlbQ0BIXShbQ0gzXSlbTkhdW0NIMl1bQ0BASF0yW0NIMl1bQ0gyXVtDSDJdW0NIMl1PMg==

> <s_epik_cmdline>
J2VwaWtfcHl0aG9uJywgJy1waCcsICc3LjAnLCAnLXRuJywgJzgnLCAnLW1hJywgJzIwMCcsICctbWV0YWxfYmluZGluZycsICctaW1hZScsICc8aW5maWxlLm1hZT4nLCAnLW9tYWUnLCAnPG91dGZpbGUubWFlPic=

> <r_lp_tautomer_probability>
1

> <r_epik_Ionization_Penalty>
0.00658015

> <r_epik_Ionization_Penalty_Charging>
0.00656881

> <r_epik_Ionization_Penalty_Neutral>
1.13431e-05

> <r_epik_State_Penalty>
0.0048654

> <r_epik_Charging_Adjusted_Penalty>
0.0114342

> <i_epik_Tot_Q>
1

> <i_epik_Tot_abs_Q>
1

> <r_epik_Metal_State_Penalty>
-0

> <b_epik_Metal_Only>
0

> <s_lp_Force_Field>
OPLS_2005

> <r_lp_Energy>
17.2589

> <b_lp_Chiralities_Consistent>
1

> <s_lp_Variant>
AV-unprocessed.smi:3156-1

> <Gold.Version>
5.8.1

> <Gold.Id.Protein>
6NUR|6NUR_protein|mol2

> <Gold.PLP.Fitness>
48.2484

> <Gold.PLP.PLP>
-39.4344

> <Gold.PLP.part.hbond>
-2.0000

> <Gold.PLP.part.metal>
0.0000

> <Gold.PLP.part.buried>
-2.3616

> <Gold.PLP.part.nonpolar>
-35.1676

> <Gold.PLP.part.repulsive>
0.3261

> <Gold.PLP.ligand.clash>
0.0000

> <Gold.PLP.ligand.torsion>
1.1416

> <Gold.PLP.Chemscore.Hbond>
2.6700

> <Gold.PLP.Chemscore.CHOScore>
0.9990

> <Gold.PLP.Chemscore.Metal>
0.0000

> <Gold.Chemscore.Hbonds>
donor molecule, donor type, donor heavy atom, donor atom, acceptor molecule, acceptor atom, score
      L1  H     3    41       P1  8028  2.00
      P1  H  7989  7998       L1    17  0.85
      L1  C    14    38       P1  7948  0.68

> <Gold.PLP.Chemscore.Internal.Correction>
0.0902

> <Gold.Rescore>
     Score         DG    S(hbond)    S(metal)    S(lipo)     H(rot)  DE(clash)    DE(int)     intcor
     15.82     -17.63       0.98        0.00     110.68       1.59       0.19       1.62       ----

> <Gold.Chemscore.Fitness>
15.8162

> <Gold.Chemscore.DG>
-17.6265

> <Gold.Chemscore.ZeroCoef>
-5.4800

> <Gold.Chemscore.Hbond>
0.9812

> <Gold.Chemscore.Metal>
0.0000

> <Gold.Chemscore.Lipo>
110.6792

> <Gold.Chemscore.Internal_Hbond>
0.0000

> <Gold.Chemscore.DEClash>
0.1886

> <Gold.Chemscore.DEInternal>
1.6217

> <Gold.Chemscore.Rot>
1.5938

> <Gold.Chemscore.Internal.Correction>
   9.000000E+99

> <Gold.Chemscore.Hbonds>
donor molecule, donor type, donor heavy atom, donor atom, acceptor molecule, acceptor atom, score
      L1  H     3    41       P1  8028  0.99
      P1  H  7989  7998       L1    17  0.09

> <Gold.Chemscore.Hbond.Weighted>
-3.2773

> <Gold.Chemscore.Metal.Weighted>
-0.0000

> <Gold.Chemscore.Lipo.Weighted>
-12.9495

> <Gold.Chemscore.Internal_Hbond.Weighted>
0.0000

> <Gold.Chemscore.DEClash.Weighted>
0.1886

> <Gold.Chemscore.DEInternal.Weighted>
1.6217

> <Gold.Chemscore.Rot.Weighted>
4.0802

> <Gold.Chemscore.Internal.Correction.Weighted>
   9.000000E+99

> <Gold.Protein.RotatedTorsions>
[ 6907 6896 6895 6894 ] final  -93.69 input  -60.11 | X-H torsion
[ 7974 7965 7964 7962 ] final  177.29 input  175.53 | X-H torsion
[ 8008 7997 7996 7995 ] final   66.28 input   59.86 | X-H torsion
[ 10167 10162 10161 10158 ] final   59.44 input  -65.29 | X-H torsion
[ 10718 10713 10712 10709 ] final   98.86 input   66.30 | X-H torsion
[ 10763 10752 10751 10750 ] final  169.87 input  -60.55 | X-H torsion
[ 11005 11000 10999 10996 ] final  174.74 input  -57.11 | X-H torsion

> <Gold.Protein.ActiveResidues>
 VAL166  LYS551  ARG553  GLY616  TRP617  ASP618  TYR619  PRO620  LYS621  CYS622 
 ASP623  PHE694  ASN695  SER759  ASP760  ASP761  ALA762  ILE779  LEU786  VAL792 
 PHE793  MET794  SER795  GLU796  ALA797  LYS798  CYS799  TRP800  GLU811  SER814 

> <Gold.Protein.RotatedAtoms>
  150.6927  134.1928  159.4291 H   0  0  0  0  0  0  0  0  0  0  0  0  # atno 6907 bound_to 6896
  151.9897  134.9983  160.0570 H   0  0  0  0  0  0  0  0  0  0  0  0  # atno 6908 bound_to 6896
  152.1678  133.4589  159.4930 H   0  0  0  0  0  0  0  0  0  0  0  0  # atno 6909 bound_to 6896
  144.7171  140.0225  143.6440 H   0  0  0  0  0  0  0  0  0  0  0  0  # atno 7974 bound_to 7965
  155.6749  140.3497  155.4832 H   0  0  0  0  0  0  0  0  0  0  0  0  # atno 8008 bound_to 7997
  155.9657  140.1146  157.0879 H   0  0  0  0  0  0  0  0  0  0  0  0  # atno 8009 bound_to 7997
  154.4154  140.1167  156.5225 H   0  0  0  0  0  0  0  0  0  0  0  0  # atno 8010 bound_to 7997
  140.1764  144.4225  150.6636 H   0  0  0  0  0  0  0  0  0  0  0  0  # atno 10167 bound_to 10162
  157.6887  131.0652  150.4861 H   0  0  0  0  0  0  0  0  0  0  0  0  # atno 10718 bound_to 10713
  154.3894  135.2754  155.2164 H   0  0  0  0  0  0  0  0  0  0  0  0  # atno 10763 bound_to 10752
  154.4237  135.5994  153.6029 H   0  0  0  0  0  0  0  0  0  0  0  0  # atno 10764 bound_to 10752
  152.9832  135.5978  154.4146 H   0  0  0  0  0  0  0  0  0  0  0  0  # atno 10765 bound_to 10752
  140.3546  134.7166  157.4290 H   0  0  0  0  0  0  0  0  0  0  0  0  # atno 11005 bound_to 11000
  146.0169  139.3217  143.0836 LP  0  0  0  0  0  0  0  0  0  0  0  0  # atno 17320 bound_to 7965
  145.8615  140.9472  143.0697 LP  0  0  0  0  0  0  0  0  0  0  0  0  # atno 17321 bound_to 7965
  140.6548  143.2234  151.5993 LP  0  0  0  0  0  0  0  0  0  0  0  0  # atno 17342 bound_to 10162
  139.5315  144.2902  152.1158 LP  0  0  0  0  0  0  0  0  0  0  0  0  # atno 17343 bound_to 10162
  156.5190  130.4157  149.6261 LP  0  0  0  0  0  0  0  0  0  0  0  0  # atno 17370 bound_to 10713
  156.3172  130.7261  151.2165 LP  0  0  0  0  0  0  0  0  0  0  0  0  # atno 17371 bound_to 10713
  140.0676  134.5908  155.8678 LP  0  0  0  0  0  0  0  0  0  0  0  0  # atno 17394 bound_to 11000
  141.2002  133.6611  156.5885 LP  0  0  0  0  0  0  0  0  0  0  0  0  # atno 17395 bound_to 11000

$$$$
