AV-unprocessed.smi:1683|AV-procd|sdf|6751|dock5
  -GOLD-   22720 7503D 1   1.00000     0.00000
 Structure written by MMmdl.
 37 38  0  0  0  0  0  0  0  0  2 V2000
  147.9689  140.2566  153.9484 O   0  0  0  0  0  0  0  0  0  0  0  0
  148.4962  139.2501  153.4755 C   0  0  0  0  0  0  0  0  0  0  0  0
  147.8973  138.4530  152.5790 N   0  0  0  0  0  0  0  0  0  0  0  0
  146.5475  138.6421  152.0571 C   0  0  0  0  0  0  0  0  0  0  0  0
  145.6791  137.3759  152.1937 C   0  0  2  0  0  0  0  0  0  0  0  0
  146.0705  136.4779  153.3623 C   0  0  0  0  0  0  0  0  0  0  0  0
  145.4226  135.1486  152.9872 C   0  0  0  0  0  0  0  0  0  0  0  0
  145.5425  135.0508  151.5149 N   0  3  1  0  0  0  0  0  0  0  0  0
  144.4669  134.2792  150.8436 C   0  0  0  0  0  0  0  0  0  0  0  0
  144.7721  132.7728  150.7579 C   0  0  0  0  0  0  0  0  0  0  0  0
  143.7806  132.1105  150.1628 F   0  0  0  0  0  0  0  0  0  0  0  0
  145.8827  132.5962  150.0438 F   0  0  0  0  0  0  0  0  0  0  0  0
  144.9655  132.2737  151.9787 F   0  0  0  0  0  0  0  0  0  0  0  0
  145.7256  136.4254  150.9878 C   0  0  0  0  0  0  0  0  0  0  0  0
  149.7274  138.8073  153.7777 N   0  0  0  0  0  0  0  0  0  0  0  0
  150.6538  139.3947  154.6752 C   0  0  0  0  0  0  0  0  0  0  0  0
  151.9870  138.9959  154.9867 C   0  0  0  0  0  0  0  0  0  0  0  0
  152.5333  139.8067  155.8819 N   0  0  0  0  0  0  0  0  0  0  0  0
  151.5665  140.7146  156.1443 N   0  0  0  0  0  0  0  0  0  0  0  0
  150.4065  140.5000  155.4332 C   0  0  0  0  0  0  0  0  0  0  0  0
  151.7128  141.4663  156.8031 H   0  0  0  0  0  0  0  0  0  0  0  0
  148.4041  137.6439  152.2502 H   0  0  0  0  0  0  0  0  0  0  0  0
  146.0907  139.4693  152.6015 H   0  0  0  0  0  0  0  0  0  0  0  0
  146.5993  138.9534  151.0123 H   0  0  0  0  0  0  0  0  0  0  0  0
  144.6397  137.6714  152.3477 H   0  0  0  0  0  0  0  0  0  0  0  0
  147.1547  136.3644  153.4121 H   0  0  0  0  0  0  0  0  0  0  0  0
  145.7249  136.8586  154.3239 H   0  0  0  0  0  0  0  0  0  0  0  0
  145.8947  134.3025  153.4870 H   0  0  0  0  0  0  0  0  0  0  0  0
  144.3702  135.1674  153.2756 H   0  0  0  0  0  0  0  0  0  0  0  0
  143.5116  134.4526  151.3418 H   0  0  0  0  0  0  0  0  0  0  0  0
  144.3602  134.6616  149.8273 H   0  0  0  0  0  0  0  0  0  0  0  0
  144.9715  136.6989  150.2481 H   0  0  0  0  0  0  0  0  0  0  0  0
  146.6973  136.4683  150.4944 H   0  0  0  0  0  0  0  0  0  0  0  0
  150.0323  137.9586  153.3242 H   0  0  0  0  0  0  0  0  0  0  0  0
  152.5704  138.1689  154.6096 H   0  0  0  0  0  0  0  0  0  0  0  0
  149.5372  141.1343  155.5261 H   0  0  0  0  0  0  0  0  0  0  0  0
  146.4100  134.5684  151.3267 H   0  0  0  0  0  0  0  0  0  0  0  0
  1  2  2  0  0  0  0
  2  3  1  0  0  0  0
  2 15  1  0  0  0  0
  3  4  1  0  0  0  0
  3 22  1  0  0  0  0
  4  5  1  0  0  0  0
  4 23  1  0  0  0  0
  4 24  1  0  0  0  0
  5 14  1  0  0  0  0
  5  6  1  0  0  0  0
  5 25  1  0  0  0  0
  6  7  1  0  0  0  0
  6 26  1  0  0  0  0
  6 27  1  0  0  0  0
  7  8  1  0  0  0  0
  7 28  1  0  0  0  0
  7 29  1  0  0  0  0
  8  9  1  0  0  0  0
  8 14  1  0  0  0  0
  8 37  1  0  0  0  0
  9 10  1  0  0  0  0
  9 30  1  0  0  0  0
  9 31  1  0  0  0  0
 10 11  1  0  0  0  0
 10 12  1  0  0  0  0
 10 13  1  0  0  0  0
 14 32  1  0  0  0  0
 14 33  1  0  0  0  0
 15 16  1  0  0  0  0
 15 34  1  0  0  0  0
 16 20  2  0  0  0  0
 16 17  1  0  0  0  0
 17 18  2  0  0  0  0
 17 35  1  0  0  0  0
 18 19  1  0  0  0  0
 19 21  1  0  0  0  0
 19 20  1  0  0  0  0
 20 36  1  0  0  0  0
M  CHG  1   8   1
M  END
> <s_m_source_file>
AV-unprocessed.smi

> <i_m_source_file_index>
1683

> <i_lp_mmshare_version>
43012

> <i_f3d_flags>
0

> <s_epik_input>
W2NIXTFbbkhdbltjSF1jMVtOSF1DKD1PKVtOSF1bQ0gyXVtDQEBIXTJbQ0gyXVtDSDJdTihbQ0gyXTIpW0NIMl1DKEYpKEYpRg==

> <s_epik_cmdline>
J2VwaWtfcHl0aG9uJywgJy1waCcsICc3LjAnLCAnLXRuJywgJzgnLCAnLW1hJywgJzIwMCcsICctbWV0YWxfYmluZGluZycsICctaW1hZScsICc8aW5maWxlLm1hZT4nLCAnLW9tYWUnLCAnPG91dGZpbGUubWFlPic=

> <r_lp_tautomer_probability>
0.5

> <r_epik_Ionization_Penalty>
0.641865

> <r_epik_Ionization_Penalty_Charging>
0.64182

> <r_epik_Ionization_Penalty_Neutral>
4.50685e-05

> <r_epik_State_Penalty>
0.65957

> <r_epik_Charging_Adjusted_Penalty>
1.30139

> <i_epik_Tot_Q>
1

> <i_epik_Tot_abs_Q>
1

> <r_epik_Metal_State_Penalty>
0.659571

> <b_epik_Metal_Only>
0

> <s_lp_Force_Field>
OPLS_2005

> <r_lp_Energy>
31.6125

> <b_lp_Chiralities_Consistent>
1

> <s_lp_Variant>
AV-unprocessed.smi:1683-5

> <Gold.Version>
5.8.1

> <Gold.Id.Protein>
6NUR|6NUR_protein|mol2

> <Gold.PLP.Fitness>
42.3064

> <Gold.PLP.PLP>
-37.5280

> <Gold.PLP.part.hbond>
-4.1789

> <Gold.PLP.part.metal>
0.0000

> <Gold.PLP.part.buried>
-0.2197

> <Gold.PLP.part.nonpolar>
-33.5575

> <Gold.PLP.part.repulsive>
0.4533

> <Gold.PLP.ligand.clash>
0.0000

> <Gold.PLP.ligand.torsion>
0.8196

> <Gold.PLP.Chemscore.Hbond>
2.0000

> <Gold.PLP.Chemscore.CHOScore>
0.0000

> <Gold.PLP.Chemscore.Metal>
0.0000

> <Gold.Chemscore.Hbonds>
donor molecule, donor type, donor heavy atom, donor atom, acceptor molecule, acceptor atom, score
      L1  H     3    22       P1  7948  1.00
      P1  H  7997  8009       L1    18  1.00

> <Gold.PLP.Chemscore.Internal.Correction>
0.4176

> <Gold.Rescore>
     Score         DG    S(hbond)    S(metal)    S(lipo)     H(rot)  DE(clash)    DE(int)     intcor
     12.00     -14.61       1.99        0.00      60.70       1.81       0.58       2.02       ----

> <Gold.Chemscore.Fitness>
12.0041

> <Gold.Chemscore.DG>
-14.6051

> <Gold.Chemscore.ZeroCoef>
-5.4800

> <Gold.Chemscore.Hbond>
1.9944

> <Gold.Chemscore.Metal>
0.0000

> <Gold.Chemscore.Lipo>
60.6980

> <Gold.Chemscore.Internal_Hbond>
0.0000

> <Gold.Chemscore.DEClash>
0.5816

> <Gold.Chemscore.DEInternal>
2.0195

> <Gold.Chemscore.Rot>
1.8116

> <Gold.Chemscore.Internal.Correction>
   9.000000E+99

> <Gold.Chemscore.Hbonds>
donor molecule, donor type, donor heavy atom, donor atom, acceptor molecule, acceptor atom, score
      L1  H     3    22       P1  7948  0.93
      L1  H    15    34       P1  7948  0.01
      P1  H  7997  8009       L1    18  0.98

> <Gold.Chemscore.Hbond.Weighted>
-6.6612

> <Gold.Chemscore.Metal.Weighted>
-0.0000

> <Gold.Chemscore.Lipo.Weighted>
-7.1017

> <Gold.Chemscore.Internal_Hbond.Weighted>
0.0000

> <Gold.Chemscore.DEClash.Weighted>
0.5816

> <Gold.Chemscore.DEInternal.Weighted>
2.0195

> <Gold.Chemscore.Rot.Weighted>
4.6378

> <Gold.Chemscore.Internal.Correction.Weighted>
   9.000000E+99

> <Gold.Protein.RotatedTorsions>
[ 6907 6896 6895 6894 ] final  120.04 input  -60.11 | X-H torsion
[ 7974 7965 7964 7962 ] final  120.85 input  175.53 | X-H torsion
[ 8008 7997 7996 7995 ] final -166.13 input   59.86 | X-H torsion
[ 10167 10162 10161 10158 ] final   69.21 input  -65.29 | X-H torsion
[ 10718 10713 10712 10709 ] final   -0.09 input   66.30 | X-H torsion
[ 10763 10752 10751 10750 ] final   71.94 input  -60.55 | X-H torsion
[ 11005 11000 10999 10996 ] final  114.40 input  -57.11 | X-H torsion

> <Gold.Protein.ActiveResidues>
 VAL166  LYS551  ARG553  GLY616  TRP617  ASP618  TYR619  PRO620  LYS621  CYS622 
 ASP623  PHE694  ASN695  SER759  ASP760  ASP761  ALA762  ILE779  LEU786  VAL792 
 PHE793  MET794  SER795  GLU796  ALA797  LYS798  CYS799  TRP800  GLU811  SER814 

> <Gold.Protein.RotatedAtoms>
  152.4427  133.7479  159.6677 H   0  0  0  0  0  0  0  0  0  0  0  0  # atno 6907 bound_to 6896
  150.8321  133.8063  159.3100 H   0  0  0  0  0  0  0  0  0  0  0  0  # atno 6908 bound_to 6896
  151.5714  135.1065  160.0048 H   0  0  0  0  0  0  0  0  0  0  0  0  # atno 6909 bound_to 6896
  145.1263  139.3356  143.4688 H   0  0  0  0  0  0  0  0  0  0  0  0  # atno 7974 bound_to 7965
  155.8595  140.0976  157.1623 H   0  0  0  0  0  0  0  0  0  0  0  0  # atno 8008 bound_to 7997
  154.3989  140.1368  156.4005 H   0  0  0  0  0  0  0  0  0  0  0  0  # atno 8009 bound_to 7997
  155.7873  140.3457  155.5332 H   0  0  0  0  0  0  0  0  0  0  0  0  # atno 8010 bound_to 7997
  140.0703  144.5158  150.7232 H   0  0  0  0  0  0  0  0  0  0  0  0  # atno 10167 bound_to 10162
  156.8255  130.5471  149.5692 H   0  0  0  0  0  0  0  0  0  0  0  0  # atno 10718 bound_to 10713
  153.0429  135.5118  154.7669 H   0  0  0  0  0  0  0  0  0  0  0  0  # atno 10763 bound_to 10752
  154.6592  135.2936  154.9890 H   0  0  0  0  0  0  0  0  0  0  0  0  # atno 10764 bound_to 10752
  154.0747  135.6672  153.4882 H   0  0  0  0  0  0  0  0  0  0  0  0  # atno 10765 bound_to 10752
  139.8979  134.9567  156.6887 H   0  0  0  0  0  0  0  0  0  0  0  0  # atno 11005 bound_to 11000
  146.3517  140.1243  142.8599 LP  0  0  0  0  0  0  0  0  0  0  0  0  # atno 17320 bound_to 7965
  145.0685  140.9138  143.4896 LP  0  0  0  0  0  0  0  0  0  0  0  0  # atno 17321 bound_to 7965
  140.7129  143.2520  151.4526 LP  0  0  0  0  0  0  0  0  0  0  0  0  # atno 17342 bound_to 10162
  139.5840  144.1646  152.2005 LP  0  0  0  0  0  0  0  0  0  0  0  0  # atno 17343 bound_to 10162
  156.0964  130.5935  150.9820 LP  0  0  0  0  0  0  0  0  0  0  0  0  # atno 17370 bound_to 10713
  157.6434  131.0907  150.8203 LP  0  0  0  0  0  0  0  0  0  0  0  0  # atno 17371 bound_to 10713
  140.7242  133.9114  155.8167 LP  0  0  0  0  0  0  0  0  0  0  0  0  # atno 17394 bound_to 11000
  141.0204  134.0897  157.4127 LP  0  0  0  0  0  0  0  0  0  0  0  0  # atno 17395 bound_to 11000

$$$$
