AV-unprocessed.smi:234|AV-procd|sdf|1796|dock5
  -GOLD-   2262020363D 1   1.00000     0.00000
 Structure written by MMmdl.
 59 62  0  0  0  0  0  0  0  0  1 V2000
  153.6382  142.4173  161.9680 C   0  0  0  0  0  0  0  0  0  0  0  0
  152.4581  143.2560  161.4723 C   0  0  0  0  0  0  0  0  0  0  0  0
  151.6978  142.4804  160.5605 O   0  0  0  0  0  0  0  0  0  0  0  0
  152.0323  142.7217  159.1984 C   0  0  1  0  0  0  0  0  0  0  0  0
  152.7753  141.5094  158.6354 C   0  0  0  0  0  0  0  0  0  0  0  0
  151.4015  140.9629  158.2344 C   0  0  2  0  0  0  0  0  0  0  0  0
  151.4127  140.2546  156.9494 N   0  0  0  0  0  0  0  0  0  0  0  0
  152.0971  138.9660  156.8975 C   0  0  0  0  0  0  0  0  0  0  0  0
  150.2588  140.2238  156.2379 C   0  0  0  0  0  0  0  0  0  0  0  0
  150.2183  140.7281  154.9762 N   0  0  0  0  0  0  0  0  0  0  0  0
  149.0776  140.7082  154.2811 C   0  0  0  0  0  0  0  0  0  0  0  0
  147.8809  140.2503  154.6542 N   0  0  0  0  0  0  0  0  0  0  0  0
  147.9120  139.7605  155.9267 C   0  0  0  0  0  0  0  0  0  0  0  0
  149.0500  139.7074  156.7793 C   0  0  0  0  0  0  0  0  0  0  0  0
  148.7073  139.1291  157.9948 N   0  0  0  0  0  0  0  0  0  0  0  0
  147.4365  138.8597  157.8699 C   0  0  0  0  0  0  0  0  0  0  0  0
  146.8731  139.2211  156.6661 N   0  0  0  0  0  0  0  0  0  0  0  0
  145.4844  139.0436  156.2684 C   0  0  0  0  0  0  0  0  0  0  0  0
  144.6561  140.3543  156.1647 C   0  0  1  0  0  0  0  0  0  0  0  0
  143.4336  140.0004  155.5446 O   0  0  0  0  0  0  0  0  0  0  0  0
  144.3724  141.0177  157.5109 C   0  0  0  0  0  0  0  0  0  0  0  0
  145.4713  142.0747  157.6591 C   0  0  0  0  0  0  0  0  0  0  0  0
  146.1481  142.1340  156.4068 O   0  0  0  0  0  0  0  0  0  0  0  0
  145.3773  141.4850  155.4027 C   0  0  2  0  0  0  0  0  0  0  0  0
  144.4624  142.5430  154.7547 C   0  0  0  0  0  0  0  0  0  0  0  0
  150.8858  142.4326  158.1904 C   0  0  0  0  0  0  0  0  0  0  0  0
  149.4608  142.6820  158.6932 C   0  0  0  0  0  0  0  0  0  0  0  0
  151.0168  143.1951  156.8610 C   0  0  0  0  0  0  0  0  0  0  0  0
  154.2476  142.9808  162.6746 H   0  0  0  0  0  0  0  0  0  0  0  0
  154.2793  142.1153  161.1394 H   0  0  0  0  0  0  0  0  0  0  0  0
  153.2920  141.5139  162.4706 H   0  0  0  0  0  0  0  0  0  0  0  0
  151.8454  143.5703  162.3174 H   0  0  0  0  0  0  0  0  0  0  0  0
  152.8232  144.1578  160.9789 H   0  0  0  0  0  0  0  0  0  0  0  0
  152.5704  143.6569  159.0327 H   0  0  0  0  0  0  0  0  0  0  0  0
  153.4172  141.7583  157.7885 H   0  0  0  0  0  0  0  0  0  0  0  0
  153.3049  140.9111  159.3775 H   0  0  0  0  0  0  0  0  0  0  0  0
  150.9523  140.3904  159.0483 H   0  0  0  0  0  0  0  0  0  0  0  0
  151.3983  138.1383  156.7642 H   0  0  0  0  0  0  0  0  0  0  0  0
  152.6579  138.7734  157.8121 H   0  0  0  0  0  0  0  0  0  0  0  0
  152.8015  138.9532  156.0657 H   0  0  0  0  0  0  0  0  0  0  0  0
  149.1316  141.1197  153.2840 H   0  0  0  0  0  0  0  0  0  0  0  0
  146.8691  138.3948  158.6629 H   0  0  0  0  0  0  0  0  0  0  0  0
  145.4699  138.5166  155.3133 H   0  0  0  0  0  0  0  0  0  0  0  0
  145.0200  138.3694  156.9896 H   0  0  0  0  0  0  0  0  0  0  0  0
  143.6191  139.6947  154.6699 H   0  0  0  0  0  0  0  0  0  0  0  0
  143.4051  141.5226  157.4920 H   0  0  0  0  0  0  0  0  0  0  0  0
  144.3450  140.3123  158.3412 H   0  0  0  0  0  0  0  0  0  0  0  0
  145.0464  143.0489  157.9031 H   0  0  0  0  0  0  0  0  0  0  0  0
  146.1824  141.8136  158.4429 H   0  0  0  0  0  0  0  0  0  0  0  0
  146.0325  141.0860  154.6288 H   0  0  0  0  0  0  0  0  0  0  0  0
  143.8685  142.1137  153.9476 H   0  0  0  0  0  0  0  0  0  0  0  0
  145.0549  143.3510  154.3255 H   0  0  0  0  0  0  0  0  0  0  0  0
  143.7752  142.9858  155.4758 H   0  0  0  0  0  0  0  0  0  0  0  0
  148.7136  142.3961  157.9532 H   0  0  0  0  0  0  0  0  0  0  0  0
  149.2966  143.7351  158.9211 H   0  0  0  0  0  0  0  0  0  0  0  0
  149.2479  142.1137  159.5990 H   0  0  0  0  0  0  0  0  0  0  0  0
  150.2641  142.8804  156.1377 H   0  0  0  0  0  0  0  0  0  0  0  0
  151.9906  143.0448  156.3949 H   0  0  0  0  0  0  0  0  0  0  0  0
  150.8962  144.2690  157.0067 H   0  0  0  0  0  0  0  0  0  0  0  0
  1  2  1  0  0  0  0
  1 29  1  0  0  0  0
  1 30  1  0  0  0  0
  1 31  1  0  0  0  0
  2  3  1  0  0  0  0
  2 32  1  0  0  0  0
  2 33  1  0  0  0  0
  3  4  1  0  0  0  0
  4 26  1  0  0  0  0
  4  5  1  0  0  0  0
  4 34  1  0  0  0  0
  5  6  1  0  0  0  0
  5 35  1  0  0  0  0
  5 36  1  0  0  0  0
  6  7  1  0  0  0  0
  6 26  1  0  0  0  0
  6 37  1  0  0  0  0
  7  8  1  0  0  0  0
  7  9  1  0  0  0  0
  8 38  1  0  0  0  0
  8 39  1  0  0  0  0
  8 40  1  0  0  0  0
  9 14  1  0  0  0  0
  9 10  2  0  0  0  0
 10 11  1  0  0  0  0
 11 12  2  0  0  0  0
 11 41  1  0  0  0  0
 12 13  1  0  0  0  0
 13 17  1  0  0  0  0
 13 14  2  0  0  0  0
 14 15  1  0  0  0  0
 15 16  2  0  0  0  0
 16 17  1  0  0  0  0
 16 42  1  0  0  0  0
 17 18  1  0  0  0  0
 18 19  1  0  0  0  0
 18 43  1  0  0  0  0
 18 44  1  0  0  0  0
 19 24  1  0  0  0  0
 19 20  1  0  0  0  0
 19 21  1  0  0  0  0
 20 45  1  0  0  0  0
 21 22  1  0  0  0  0
 21 46  1  0  0  0  0
 21 47  1  0  0  0  0
 22 23  1  0  0  0  0
 22 48  1  0  0  0  0
 22 49  1  0  0  0  0
 23 24  1  0  0  0  0
 24 25  1  0  0  0  0
 24 50  1  0  0  0  0
 25 51  1  0  0  0  0
 25 52  1  0  0  0  0
 25 53  1  0  0  0  0
 26 27  1  0  0  0  0
 26 28  1  0  0  0  0
 27 54  1  0  0  0  0
 27 55  1  0  0  0  0
 27 56  1  0  0  0  0
 28 57  1  0  0  0  0
 28 58  1  0  0  0  0
 28 59  1  0  0  0  0
M  END
> <s_m_source_file>
AV-unprocessed.smi

> <i_m_source_file_index>
234

> <i_lp_mmshare_version>
43012

> <i_f3d_flags>
0

> <s_epik_input>
W0NIM11bQ0gyXU9bQ0BASF0oQzEoW0NIM10pW0NIM10pW0NIMl1bQ0BIXTFOKFtDSDNdKWMobltjSF1uMiljKGMyMyluW2NIXW4zW0NIMl1bQ0BAXTQoW09IXSlbQ0gyXVtDSDJdT1tDQEhdNFtDSDNd

> <s_epik_cmdline>
J2VwaWtfcHl0aG9uJywgJy1waCcsICc3LjAnLCAnLXRuJywgJzgnLCAnLW1hJywgJzIwMCcsICctbWV0YWxfYmluZGluZycsICctaW1hZScsICc8aW5maWxlLm1hZT4nLCAnLW9tYWUnLCAnPG91dGZpbGUubWFlPic=

> <r_lp_tautomer_probability>
1

> <r_epik_Ionization_Penalty>
0.00349132

> <r_epik_Ionization_Penalty_Charging>
0

> <r_epik_Ionization_Penalty_Neutral>
0.00349132

> <r_epik_State_Penalty>
0.00242418

> <r_epik_Charging_Adjusted_Penalty>
0.00242418

> <i_epik_Tot_Q>
0

> <i_epik_Tot_abs_Q>
0

> <r_epik_Metal_State_Penalty>
-0

> <b_epik_Metal_Only>
0

> <s_lp_Force_Field>
OPLS_2005

> <r_lp_Energy>
50.3749

> <b_lp_Chiralities_Consistent>
1

> <s_lp_Variant>
AV-unprocessed.smi:234-12

> <Gold.Version>
5.8.1

> <Gold.Id.Protein>
6NUR|6NUR_protein|mol2

> <Gold.PLP.Fitness>
41.9438

> <Gold.PLP.PLP>
-35.8625

> <Gold.PLP.part.hbond>
-3.4517

> <Gold.PLP.part.metal>
0.0000

> <Gold.PLP.part.buried>
-4.0010

> <Gold.PLP.part.nonpolar>
-28.5222

> <Gold.PLP.part.repulsive>
0.9499

> <Gold.PLP.ligand.clash>
0.0000

> <Gold.PLP.ligand.torsion>
1.4857

> <Gold.PLP.Chemscore.Hbond>
1.7275

> <Gold.PLP.Chemscore.CHOScore>
0.9811

> <Gold.PLP.Chemscore.Metal>
0.0000

> <Gold.Chemscore.Hbonds>
donor molecule, donor type, donor heavy atom, donor atom, acceptor molecule, acceptor atom, score
      L1  H    20    45       P1 10175  0.25
      P1  H  7989  7998       L1    10  0.83
      L1  C    11    41       P1  7957  1.00

> <Gold.PLP.Chemscore.Internal.Correction>
0.9270

> <Gold.Rescore>
     Score         DG    S(hbond)    S(metal)    S(lipo)     H(rot)  DE(clash)    DE(int)     intcor
      9.86     -13.42       1.27        0.00      88.88       2.62       0.85       2.71       ----

> <Gold.Chemscore.Fitness>
9.8604

> <Gold.Chemscore.DG>
-13.4161

> <Gold.Chemscore.ZeroCoef>
-5.4800

> <Gold.Chemscore.Hbond>
1.2722

> <Gold.Chemscore.Metal>
0.0000

> <Gold.Chemscore.Lipo>
88.8814

> <Gold.Chemscore.Internal_Hbond>
0.0000

> <Gold.Chemscore.DEClash>
0.8496

> <Gold.Chemscore.DEInternal>
2.7060

> <Gold.Chemscore.Rot>
2.6219

> <Gold.Chemscore.Internal.Correction>
   9.000000E+99

> <Gold.Chemscore.Hbonds>
donor molecule, donor type, donor heavy atom, donor atom, acceptor molecule, acceptor atom, score
      L1  H    20    45       P1 10175  0.26
      P1  H  7989  7998       L1    10  0.26

> <Gold.Chemscore.Hbond.Weighted>
-4.2491

> <Gold.Chemscore.Metal.Weighted>
-0.0000

> <Gold.Chemscore.Lipo.Weighted>
-10.3991

> <Gold.Chemscore.Internal_Hbond.Weighted>
0.0000

> <Gold.Chemscore.DEClash.Weighted>
0.8496

> <Gold.Chemscore.DEInternal.Weighted>
2.7060

> <Gold.Chemscore.Rot.Weighted>
6.7121

> <Gold.Chemscore.Internal.Correction.Weighted>
   9.000000E+99

> <Gold.Protein.RotatedTorsions>
[ 6907 6896 6895 6894 ] final -107.30 input  -60.11 | X-H torsion
[ 7974 7965 7964 7962 ] final  -47.52 input  175.53 | X-H torsion
[ 8008 7997 7996 7995 ] final -123.36 input   59.86 | X-H torsion
[ 10167 10162 10161 10158 ] final  -35.42 input  -65.29 | X-H torsion
[ 10718 10713 10712 10709 ] final    4.61 input   66.30 | X-H torsion
[ 10763 10752 10751 10750 ] final -132.68 input  -60.55 | X-H torsion
[ 11005 11000 10999 10996 ] final  138.11 input  -57.11 | X-H torsion

> <Gold.Protein.ActiveResidues>
 VAL166  LYS551  ARG553  GLY616  TRP617  ASP618  TYR619  PRO620  LYS621  CYS622 
 ASP623  PHE694  ASN695  SER759  ASP760  ASP761  ALA762  ILE779  LEU786  VAL792 
 PHE793  MET794  SER795  GLU796  ALA797  LYS798  CYS799  TRP800  GLU811  SER814 

> <Gold.Protein.RotatedAtoms>
  150.7436  133.9847  159.3587 H   0  0  0  0  0  0  0  0  0  0  0  0  # atno 6907 bound_to 6896
  151.7791  135.0764  160.0380 H   0  0  0  0  0  0  0  0  0  0  0  0  # atno 6908 bound_to 6896
  152.3286  133.5897  159.5830 H   0  0  0  0  0  0  0  0  0  0  0  0  # atno 6909 bound_to 6896
  145.9607  140.7482  142.9459 H   0  0  0  0  0  0  0  0  0  0  0  0  # atno 7974 bound_to 7965
  155.1793  140.0410  157.2879 H   0  0  0  0  0  0  0  0  0  0  0  0  # atno 8008 bound_to 7997
  154.6215  140.2502  155.7516 H   0  0  0  0  0  0  0  0  0  0  0  0  # atno 8009 bound_to 7997
  156.2436  140.2894  156.0525 H   0  0  0  0  0  0  0  0  0  0  0  0  # atno 8010 bound_to 7997
  140.7165  143.3478  151.2219 H   0  0  0  0  0  0  0  0  0  0  0  0  # atno 10167 bound_to 10162
  156.8952  130.5702  149.5649 H   0  0  0  0  0  0  0  0  0  0  0  0  # atno 10718 bound_to 10713
  154.8740  135.3790  154.4450 H   0  0  0  0  0  0  0  0  0  0  0  0  # atno 10763 bound_to 10752
  153.5131  135.7029  153.5775 H   0  0  0  0  0  0  0  0  0  0  0  0  # atno 10764 bound_to 10752
  153.4056  135.3937  155.1982 H   0  0  0  0  0  0  0  0  0  0  0  0  # atno 10765 bound_to 10752
  140.0160  134.9418  157.0378 H   0  0  0  0  0  0  0  0  0  0  0  0  # atno 11005 bound_to 11000
  144.6814  140.2587  143.7322 LP  0  0  0  0  0  0  0  0  0  0  0  0  # atno 17320 bound_to 7965
  145.8043  139.1977  143.2030 LP  0  0  0  0  0  0  0  0  0  0  0  0  # atno 17321 bound_to 7965
  139.7002  143.9546  152.2902 LP  0  0  0  0  0  0  0  0  0  0  0  0  # atno 17342 bound_to 10162
  139.9236  144.6784  150.8435 LP  0  0  0  0  0  0  0  0  0  0  0  0  # atno 17343 bound_to 10162
  156.0609  130.5662  150.9190 LP  0  0  0  0  0  0  0  0  0  0  0  0  # atno 17370 bound_to 10713
  157.6060  131.0939  150.8879 LP  0  0  0  0  0  0  0  0  0  0  0  0  # atno 17371 bound_to 10713
  140.4469  134.1622  155.7178 LP  0  0  0  0  0  0  0  0  0  0  0  0  # atno 17394 bound_to 11000
  141.1743  133.8545  157.1471 LP  0  0  0  0  0  0  0  0  0  0  0  0  # atno 17395 bound_to 11000

$$$$
