AV-unprocessed.smi:44|AV-procd|sdf|399|dock6
  -GOLD-   2262016253D 1   1.00000     0.00000
 Structure written by MMmdl.
 29 31  0  0  0  0  0  0  0  0  3 V2000
  149.3555  141.1795  154.0451 O   0  0  0  0  0  0  0  0  0  0  0  0
  150.0738  140.5903  154.8500 C   0  0  0  0  0  0  0  0  0  0  0  0
  150.6469  139.3506  154.7194 N   0  5  0  0  0  0  0  0  0  0  0  0
  151.4399  138.8016  155.7210 C   0  0  0  0  0  0  0  0  0  0  0  0
  151.7472  139.3297  156.8523 N   0  0  0  0  0  0  0  0  0  0  0  0
  151.2110  140.6065  157.0783 C   0  0  0  0  0  0  0  0  0  0  0  0
  150.4101  141.2429  156.1588 C   0  0  0  0  0  0  0  0  0  0  0  0
  150.0231  142.4597  156.6517 N   0  3  0  0  0  0  0  0  0  0  0  0
  150.6085  142.5063  157.8484 C   0  0  0  0  0  0  0  0  0  0  0  0
  151.3637  141.4143  158.1776 N   0  0  0  0  0  0  0  0  0  0  0  0
  152.1177  141.1668  159.4479 C   0  0  1  0  0  0  0  0  0  0  0  0
  153.6170  141.3394  159.2017 C   0  0  0  0  0  0  0  0  0  0  0  0
  153.7780  142.8287  159.4067 C   0  0  0  0  0  0  0  0  0  0  0  0
  152.8263  143.0761  160.5775 C   0  0  1  0  0  0  0  0  0  0  0  0
  152.3054  144.5197  160.6428 C   0  0  0  0  0  0  0  0  0  0  0  0
  151.3309  144.6353  161.6565 O   0  0  0  0  0  0  0  0  0  0  0  0
  151.7534  142.1526  160.3718 O   0  0  0  0  0  0  0  0  0  0  0  0
  149.4279  143.1529  156.2169 H   0  0  0  0  0  0  0  0  0  0  0  0
  151.8182  140.1645  159.7562 H   0  0  0  0  0  0  0  0  0  0  0  0
  153.3399  142.8090  161.5029 H   0  0  0  0  0  0  0  0  0  0  0  0
  151.8101  137.8097  155.4499 H   0  0  0  0  0  0  0  0  0  0  0  0
  150.4904  143.3444  158.5105 H   0  0  0  0  0  0  0  0  0  0  0  0
  154.1650  140.7825  159.9631 H   0  0  0  0  0  0  0  0  0  0  0  0
  153.9245  140.9890  158.2162 H   0  0  0  0  0  0  0  0  0  0  0  0
  154.8054  143.1206  159.6258 H   0  0  0  0  0  0  0  0  0  0  0  0
  153.4516  143.3693  158.5167 H   0  0  0  0  0  0  0  0  0  0  0  0
  153.1204  145.1986  160.8956 H   0  0  0  0  0  0  0  0  0  0  0  0
  151.8999  144.8458  159.6854 H   0  0  0  0  0  0  0  0  0  0  0  0
  150.4764  144.6605  161.2533 H   0  0  0  0  0  0  0  0  0  0  0  0
  1  2  2  0  0  0  0
  2  7  1  0  0  0  0
  2  3  1  0  0  0  0
  3  4  1  0  0  0  0
  4 21  1  0  0  0  0
  4  5  2  0  0  0  0
  5  6  1  0  0  0  0
  6 10  1  0  0  0  0
  6  7  2  0  0  0  0
  7  8  1  0  0  0  0
  8  9  2  0  0  0  0
  8 18  1  0  0  0  0
  9 10  1  0  0  0  0
  9 22  1  0  0  0  0
 10 11  1  0  0  0  0
 11 19  1  0  0  0  0
 11 17  1  0  0  0  0
 11 12  1  0  0  0  0
 12 13  1  0  0  0  0
 12 23  1  0  0  0  0
 12 24  1  0  0  0  0
 13 14  1  0  0  0  0
 13 25  1  0  0  0  0
 13 26  1  0  0  0  0
 14 20  1  0  0  0  0
 14 15  1  0  0  0  0
 14 17  1  0  0  0  0
 15 16  1  0  0  0  0
 15 27  1  0  0  0  0
 15 28  1  0  0  0  0
 16 29  1  0  0  0  0
M  CHG  1   3  -1
M  CHG  1   8   1
M  END
> <s_m_source_file>
AV-unprocessed.smi

> <i_m_source_file_index>
44

> <i_lp_mmshare_version>
43012

> <i_f3d_flags>
0

> <s_epik_input>
bjFbY0hdW25IXWMoPU8pYyhjMTIpbltjSF1uMltDQEhdM1tDSDJdW0NIMl1bQ0BIXShPMylbQ0gyXVtPSF0=

> <s_epik_cmdline>
J2VwaWtfcHl0aG9uJywgJy1waCcsICc3LjAnLCAnLXRuJywgJzgnLCAnLW1hJywgJzIwMCcsICctbWV0YWxfYmluZGluZycsICctaW1hZScsICc8aW5maWxlLm1hZT4nLCAnLW9tYWUnLCAnPG91dGZpbGUubWFlPic=

> <r_lp_tautomer_probability>
0.144281

> <r_epik_Ionization_Penalty>
5.63685

> <r_epik_Ionization_Penalty_Charging>
5.58669

> <r_epik_Ionization_Penalty_Neutral>
0.0501585

> <r_epik_State_Penalty>
1.20809

> <r_epik_Charging_Adjusted_Penalty>
6.79478

> <i_epik_Tot_Q>
0

> <i_epik_Tot_abs_Q>
2

> <r_epik_Metal_State_Penalty>
1.52487

> <b_epik_Metal_Only>
0

> <s_epik_Chemistry_Notes>
This compound contains an acetal/aminal-like group ( X-CH(R)-Y where X, Y are N, S, or O) that may be acid/base labile, releasing an aldehyde.

> <s_lp_Force_Field>
OPLS_2005

> <r_lp_Energy>
45.4458

> <b_lp_Chiralities_Consistent>
1

> <s_lp_Variant>
AV-unprocessed.smi:44-5

> <Gold.Version>
5.8.1

> <Gold.Id.Protein>
6NUR|6NUR_protein|mol2

> <Gold.PLP.Fitness>
44.2802

> <Gold.PLP.PLP>
-36.6135

> <Gold.PLP.part.hbond>
-7.4658

> <Gold.PLP.part.metal>
0.0000

> <Gold.PLP.part.buried>
-3.2506

> <Gold.PLP.part.nonpolar>
-25.6337

> <Gold.PLP.part.repulsive>
0.7803

> <Gold.PLP.ligand.clash>
0.0000

> <Gold.PLP.ligand.torsion>
0.3164

> <Gold.PLP.Chemscore.Hbond>
2.7575

> <Gold.PLP.Chemscore.CHOScore>
0.0000

> <Gold.PLP.Chemscore.Metal>
0.0000

> <Gold.Chemscore.Hbonds>
donor molecule, donor type, donor heavy atom, donor atom, acceptor molecule, acceptor atom, score
      L1  H     8    18       P1  8028  2.00
      P1  H  8011  8017       L1     1  0.56

> <Gold.PLP.Chemscore.Internal.Correction>
0.0271

> <Gold.Rescore>
     Score         DG    S(hbond)    S(metal)    S(lipo)     H(rot)  DE(clash)    DE(int)     intcor
      7.92     -11.96       1.78        0.00      54.33       2.27       3.40       0.64       ----

> <Gold.Chemscore.Fitness>
7.9208

> <Gold.Chemscore.DG>
-11.9645

> <Gold.Chemscore.ZeroCoef>
-5.4800

> <Gold.Chemscore.Hbond>
1.7798

> <Gold.Chemscore.Metal>
0.0000

> <Gold.Chemscore.Lipo>
54.3289

> <Gold.Chemscore.Internal_Hbond>
0.0000

> <Gold.Chemscore.DEClash>
3.4007

> <Gold.Chemscore.DEInternal>
0.6429

> <Gold.Chemscore.Rot>
2.2720

> <Gold.Chemscore.Internal.Correction>
   9.000000E+99

> <Gold.Chemscore.Hbonds>
donor molecule, donor type, donor heavy atom, donor atom, acceptor molecule, acceptor atom, score
      L1  H     8    18       P1  8028  0.99
      P1  H  8011  8017       L1     1  0.56

> <Gold.Chemscore.Hbond.Weighted>
-5.9444

> <Gold.Chemscore.Metal.Weighted>
-0.0000

> <Gold.Chemscore.Lipo.Weighted>
-6.3565

> <Gold.Chemscore.Internal_Hbond.Weighted>
0.0000

> <Gold.Chemscore.DEClash.Weighted>
3.4007

> <Gold.Chemscore.DEInternal.Weighted>
0.6429

> <Gold.Chemscore.Rot.Weighted>
5.8164

> <Gold.Chemscore.Internal.Correction.Weighted>
   9.000000E+99

> <Gold.Protein.RotatedTorsions>
[ 6907 6896 6895 6894 ] final  -69.84 input  -60.11 | X-H torsion
[ 7974 7965 7964 7962 ] final   28.78 input  175.53 | X-H torsion
[ 8008 7997 7996 7995 ] final   26.30 input   59.86 | X-H torsion
[ 10167 10162 10161 10158 ] final -135.81 input  -65.29 | X-H torsion
[ 10718 10713 10712 10709 ] final  -84.17 input   66.30 | X-H torsion
[ 10763 10752 10751 10750 ] final -167.02 input  -60.55 | X-H torsion
[ 11005 11000 10999 10996 ] final -174.52 input  -57.11 | X-H torsion

> <Gold.Protein.ActiveResidues>
 VAL166  LYS551  ARG553  GLY616  TRP617  ASP618  TYR619  PRO620  LYS621  CYS622 
 ASP623  PHE694  ASN695  SER759  ASP760  ASP761  ALA762  ILE779  LEU786  VAL792 
 PHE793  MET794  SER795  GLU796  ALA797  LYS798  CYS799  TRP800  GLU811  SER814 

> <Gold.Protein.RotatedAtoms>
  150.7286  134.5539  159.5808 H   0  0  0  0  0  0  0  0  0  0  0  0  # atno 6907 bound_to 6896
  152.3020  134.7597  160.0365 H   0  0  0  0  0  0  0  0  0  0  0  0  # atno 6908 bound_to 6896
  151.8175  133.3354  159.3610 H   0  0  0  0  0  0  0  0  0  0  0  0  # atno 6909 bound_to 6896
  146.1709  139.7010  142.8968 H   0  0  0  0  0  0  0  0  0  0  0  0  # atno 7974 bound_to 7965
  155.0251  140.3152  155.4779 H   0  0  0  0  0  0  0  0  0  0  0  0  # atno 8008 bound_to 7997
  156.2885  140.2190  156.5313 H   0  0  0  0  0  0  0  0  0  0  0  0  # atno 8009 bound_to 7997
  154.7418  140.0473  157.0806 H   0  0  0  0  0  0  0  0  0  0  0  0  # atno 8010 bound_to 7997
  139.8741  143.6921  152.2636 H   0  0  0  0  0  0  0  0  0  0  0  0  # atno 10167 bound_to 10162
  156.0009  130.4689  150.4369 H   0  0  0  0  0  0  0  0  0  0  0  0  # atno 10718 bound_to 10713
  154.6774  135.2949  154.9660 H   0  0  0  0  0  0  0  0  0  0  0  0  # atno 10763 bound_to 10752
  154.0666  135.6624  153.4823 H   0  0  0  0  0  0  0  0  0  0  0  0  # atno 10764 bound_to 10752
  153.0525  135.5165  154.7800 H   0  0  0  0  0  0  0  0  0  0  0  0  # atno 10765 bound_to 10752
  140.4736  134.6142  157.4892 H   0  0  0  0  0  0  0  0  0  0  0  0  # atno 11005 bound_to 11000
  145.4341  141.0417  143.2894 LP  0  0  0  0  0  0  0  0  0  0  0  0  # atno 17320 bound_to 7965
  144.8162  139.5872  143.7007 LP  0  0  0  0  0  0  0  0  0  0  0  0  # atno 17321 bound_to 7965
  139.7257  144.7593  151.0883 LP  0  0  0  0  0  0  0  0  0  0  0  0  # atno 17342 bound_to 10162
  140.7756  143.5152  150.9604 LP  0  0  0  0  0  0  0  0  0  0  0  0  # atno 17343 bound_to 10162
  157.2413  131.0526  151.2435 LP  0  0  0  0  0  0  0  0  0  0  0  0  # atno 17370 bound_to 10713
  157.3617  130.7135  149.6506 LP  0  0  0  0  0  0  0  0  0  0  0  0  # atno 17371 bound_to 10713
  139.9870  134.7046  155.9756 LP  0  0  0  0  0  0  0  0  0  0  0  0  # atno 17394 bound_to 11000
  141.1565  133.6542  156.4179 LP  0  0  0  0  0  0  0  0  0  0  0  0  # atno 17395 bound_to 11000

$$$$
