AV-unprocessed.smi:855|AV-procd|sdf|3958|dock1
  -GOLD-   22720 1423D 1   1.00000     0.00000
 Structure written by MMmdl.
 35 36  0  0  0  0  0  0  0  0  3 V2000
  153.3979  142.1237  161.1979 C   0  0  0  0  0  0  0  0  0  0  0  0
  153.1460  141.4158  159.9111 C   0  0  0  0  0  0  0  0  0  0  0  0
  152.2672  141.6308  158.8871 C   0  0  0  0  0  0  0  0  0  0  0  0
  152.5677  140.5799  157.9798 C   0  0  0  0  0  0  0  0  0  0  0  0
  151.8511  140.4492  156.7607 N   0  0  0  0  0  0  0  0  0  0  0  0
  152.1887  139.7610  155.6546 C   0  0  0  0  0  0  0  0  0  0  0  0
  153.2574  139.1407  155.6066 O   0  0  0  0  0  0  0  0  0  0  0  0
  151.2400  139.8526  154.6827 N   0  5  0  0  0  0  0  0  0  0  0  0
  150.3482  138.7600  154.2911 C   0  0  0  0  0  0  0  0  0  0  0  0
  148.8851  139.2463  154.3140 C   0  0  0  0  0  0  0  0  0  0  0  0
  147.9567  138.3219  153.6086 N   0  3  0  0  0  0  0  0  0  0  0  0
  147.1964  137.4140  154.5010 C   0  0  0  0  0  0  0  0  0  0  0  0
  145.7672  137.3318  153.9480 C   0  0  0  0  0  0  0  0  0  0  0  0
  145.8587  137.9284  152.5478 C   0  0  0  0  0  0  0  0  0  0  0  0
  146.9809  138.9507  152.6876 C   0  0  0  0  0  0  0  0  0  0  0  0
  153.5439  139.7955  158.4121 N   0  0  0  0  0  0  0  0  0  0  0  0
  153.9195  140.3272  159.6513 O   0  0  0  0  0  0  0  0  0  0  0  0
  152.6486  142.8963  161.3710 H   0  0  0  0  0  0  0  0  0  0  0  0
  154.3790  142.5986  161.1910 H   0  0  0  0  0  0  0  0  0  0  0  0
  153.3641  141.4268  162.0354 H   0  0  0  0  0  0  0  0  0  0  0  0
  151.5282  142.4137  158.8030 H   0  0  0  0  0  0  0  0  0  0  0  0
  150.9674  140.9344  156.7221 H   0  0  0  0  0  0  0  0  0  0  0  0
  150.5789  138.3917  153.2911 H   0  0  0  0  0  0  0  0  0  0  0  0
  150.4435  137.8997  154.9549 H   0  0  0  0  0  0  0  0  0  0  0  0
  148.5774  139.3311  155.3576 H   0  0  0  0  0  0  0  0  0  0  0  0
  148.8061  140.2492  153.8933 H   0  0  0  0  0  0  0  0  0  0  0  0
  147.6788  136.4362  154.4971 H   0  0  0  0  0  0  0  0  0  0  0  0
  147.1802  137.7715  155.5318 H   0  0  0  0  0  0  0  0  0  0  0  0
  145.3748  136.3145  153.9451 H   0  0  0  0  0  0  0  0  0  0  0  0
  145.1023  137.9418  154.5610 H   0  0  0  0  0  0  0  0  0  0  0  0
  146.1459  137.1567  151.8325 H   0  0  0  0  0  0  0  0  0  0  0  0
  144.9204  138.3702  152.2112 H   0  0  0  0  0  0  0  0  0  0  0  0
  146.5871  139.8667  153.1309 H   0  0  0  0  0  0  0  0  0  0  0  0
  147.4306  139.2050  151.7273 H   0  0  0  0  0  0  0  0  0  0  0  0
  148.5414  137.7217  153.0433 H   0  0  0  0  0  0  0  0  0  0  0  0
  1  2  1  0  0  0  0
  1 18  1  0  0  0  0
  1 19  1  0  0  0  0
  1 20  1  0  0  0  0
  2 17  1  0  0  0  0
  2  3  2  0  0  0  0
  3  4  1  0  0  0  0
  3 21  1  0  0  0  0
  4  5  1  0  0  0  0
  4 16  2  0  0  0  0
  5  6  1  0  0  0  0
  5 22  1  0  0  0  0
  6  7  2  0  0  0  0
  6  8  1  0  0  0  0
  8  9  1  0  0  0  0
  9 10  1  0  0  0  0
  9 23  1  0  0  0  0
  9 24  1  0  0  0  0
 10 11  1  0  0  0  0
 10 25  1  0  0  0  0
 10 26  1  0  0  0  0
 11 15  1  0  0  0  0
 11 12  1  0  0  0  0
 11 35  1  0  0  0  0
 12 13  1  0  0  0  0
 12 27  1  0  0  0  0
 12 28  1  0  0  0  0
 13 14  1  0  0  0  0
 13 29  1  0  0  0  0
 13 30  1  0  0  0  0
 14 15  1  0  0  0  0
 14 31  1  0  0  0  0
 14 32  1  0  0  0  0
 15 33  1  0  0  0  0
 15 34  1  0  0  0  0
 16 17  1  0  0  0  0
M  CHG  1   8  -1
M  CHG  1  11   1
M  END
> <s_m_source_file>
AV-unprocessed.smi

> <i_m_source_file_index>
855

> <i_lp_mmshare_version>
43012

> <i_f3d_flags>
0

> <s_epik_input>
W0NIM11jMVtjSF1jKG5vMSlbTkhdQyg9TylbTkhdW0NIMl1bQ0gyXU4yW0NIMl1bQ0gyXVtDSDJdW0NIMl0y

> <s_epik_cmdline>
J2VwaWtfcHl0aG9uJywgJy1waCcsICc3LjAnLCAnLXRuJywgJzgnLCAnLW1hJywgJzIwMCcsICctbWV0YWxfYmluZGluZycsICctaW1hZScsICc8aW5maWxlLm1hZT4nLCAnLW9tYWUnLCAnPG91dGZpbGUubWFlPic=

> <r_epik_Ionization_Penalty>
6.76467

> <r_epik_Ionization_Penalty_Charging>
6.76466

> <r_epik_Ionization_Penalty_Neutral>
5.76722e-06

> <r_epik_State_Penalty>
6.79042

> <r_epik_Charging_Adjusted_Penalty>
13.5551

> <i_epik_Tot_Q>
0

> <i_epik_Tot_abs_Q>
2

> <r_epik_Metal_State_Penalty>
2.72416

> <b_epik_Metal_Only>
1

> <s_lp_Force_Field>
OPLS_2005

> <r_lp_Energy>
21.5232

> <b_lp_Chiralities_Consistent>
1

> <s_lp_Variant>
AV-unprocessed.smi:855-3

> <Gold.Version>
5.8.1

> <Gold.Id.Protein>
6NUR|6NUR_protein|mol2

> <Gold.PLP.Fitness>
40.6519

> <Gold.PLP.PLP>
-30.1926

> <Gold.PLP.part.hbond>
-4.0363

> <Gold.PLP.part.metal>
0.0000

> <Gold.PLP.part.buried>
-2.8428

> <Gold.PLP.part.nonpolar>
-23.1845

> <Gold.PLP.part.repulsive>
0.2225

> <Gold.PLP.ligand.clash>
0.0000

> <Gold.PLP.ligand.torsion>
1.4397

> <Gold.PLP.Chemscore.Hbond>
4.4240

> <Gold.PLP.Chemscore.CHOScore>
0.0000

> <Gold.PLP.Chemscore.Metal>
0.0000

> <Gold.Chemscore.Hbonds>
donor molecule, donor type, donor heavy atom, donor atom, acceptor molecule, acceptor atom, score
      L1  H    11    35       P1  7948  2.00
      P1  H  7989  7998       L1     8  1.00
      P1  H  7997  8008       L1     7  0.56
      P1  H  7997  8010       L1    16  0.88

> <Gold.PLP.Chemscore.Internal.Correction>
0.0667

> <Gold.Rescore>
     Score         DG    S(hbond)    S(metal)    S(lipo)     H(rot)  DE(clash)    DE(int)     intcor
     15.72     -18.45       3.02        0.00      59.13       1.57       0.01       2.73       ----

> <Gold.Chemscore.Fitness>
15.7172

> <Gold.Chemscore.DG>
-18.4500

> <Gold.Chemscore.ZeroCoef>
-5.4800

> <Gold.Chemscore.Hbond>
3.0176

> <Gold.Chemscore.Metal>
0.0000

> <Gold.Chemscore.Lipo>
59.1301

> <Gold.Chemscore.Internal_Hbond>
0.0000

> <Gold.Chemscore.DEClash>
0.0077

> <Gold.Chemscore.DEInternal>
2.7251

> <Gold.Chemscore.Rot>
1.5731

> <Gold.Chemscore.Internal.Correction>
   9.000000E+99

> <Gold.Chemscore.Hbonds>
donor molecule, donor type, donor heavy atom, donor atom, acceptor molecule, acceptor atom, score
      L1  H    11    35       P1  7948  0.99
      P1  H  7989  7998       L1     8  0.77
      P1  H  7997  8008       L1     7  0.48
      P1  H  7997  8010       L1    16  0.31

> <Gold.Chemscore.Hbond.Weighted>
-10.0789

> <Gold.Chemscore.Metal.Weighted>
-0.0000

> <Gold.Chemscore.Lipo.Weighted>
-6.9182

> <Gold.Chemscore.Internal_Hbond.Weighted>
0.0000

> <Gold.Chemscore.DEClash.Weighted>
0.0077

> <Gold.Chemscore.DEInternal.Weighted>
2.7251

> <Gold.Chemscore.Rot.Weighted>
4.0271

> <Gold.Chemscore.Internal.Correction.Weighted>
   9.000000E+99

> <Gold.Protein.RotatedTorsions>
[ 6907 6896 6895 6894 ] final  -53.62 input  -60.11 | X-H torsion
[ 7974 7965 7964 7962 ] final  116.78 input  175.53 | X-H torsion
[ 8008 7997 7996 7995 ] final    7.10 input   59.86 | X-H torsion
[ 10167 10162 10161 10158 ] final -164.68 input  -65.29 | X-H torsion
[ 10718 10713 10712 10709 ] final -147.60 input   66.30 | X-H torsion
[ 10763 10752 10751 10750 ] final  -94.89 input  -60.55 | X-H torsion
[ 11005 11000 10999 10996 ] final  162.07 input  -57.11 | X-H torsion

> <Gold.Protein.ActiveResidues>
 VAL166  LYS551  ARG553  GLY616  TRP617  ASP618  TYR619  PRO620  LYS621  CYS622 
 ASP623  PHE694  ASN695  SER759  ASP760  ASP761  ALA762  ILE779  LEU786  VAL792 
 PHE793  MET794  SER795  GLU796  ALA797  LYS798  CYS799  TRP800  GLU811  SER814 

> <Gold.Protein.RotatedAtoms>
  150.8410  134.7702  159.6932 H   0  0  0  0  0  0  0  0  0  0  0  0  # atno 6907 bound_to 6896
  152.4498  134.5415  159.9850 H   0  0  0  0  0  0  0  0  0  0  0  0  # atno 6908 bound_to 6896
  151.5555  133.3373  159.2997 H   0  0  0  0  0  0  0  0  0  0  0  0  # atno 6909 bound_to 6896
  145.1754  139.3079  143.4446 H   0  0  0  0  0  0  0  0  0  0  0  0  # atno 7974 bound_to 7965
  154.7495  140.2764  155.6304 H   0  0  0  0  0  0  0  0  0  0  0  0  # atno 8008 bound_to 7997
  156.2892  140.2681  156.2171 H   0  0  0  0  0  0  0  0  0  0  0  0  # atno 8009 bound_to 7997
  155.0155  140.0372  157.2406 H   0  0  0  0  0  0  0  0  0  0  0  0  # atno 8010 bound_to 7997
  139.6234  144.0580  152.1953 H   0  0  0  0  0  0  0  0  0  0  0  0  # atno 10167 bound_to 10162
  156.4096  130.7975  151.2191 H   0  0  0  0  0  0  0  0  0  0  0  0  # atno 10718 bound_to 10713
  154.7097  135.5141  153.8648 H   0  0  0  0  0  0  0  0  0  0  0  0  # atno 10763 bound_to 10752
  153.0770  135.6619  154.0133 H   0  0  0  0  0  0  0  0  0  0  0  0  # atno 10764 bound_to 10752
  153.9977  135.3014  155.3385 H   0  0  0  0  0  0  0  0  0  0  0  0  # atno 10765 bound_to 10752
  140.2221  134.8188  157.3231 H   0  0  0  0  0  0  0  0  0  0  0  0  # atno 11005 bound_to 11000
  146.3462  140.1914  142.8589 LP  0  0  0  0  0  0  0  0  0  0  0  0  # atno 17320 bound_to 7965
  145.0190  140.8778  143.5178 LP  0  0  0  0  0  0  0  0  0  0  0  0  # atno 17321 bound_to 7965
  140.0227  144.6141  150.7553 LP  0  0  0  0  0  0  0  0  0  0  0  0  # atno 17342 bound_to 10162
  140.7396  143.2793  151.3645 LP  0  0  0  0  0  0  0  0  0  0  0  0  # atno 17343 bound_to 10162
  157.7506  131.0261  150.3950 LP  0  0  0  0  0  0  0  0  0  0  0  0  # atno 17370 bound_to 10713
  156.4245  130.3959  149.6802 LP  0  0  0  0  0  0  0  0  0  0  0  0  # atno 17371 bound_to 10713
  140.1839  134.4456  155.7756 LP  0  0  0  0  0  0  0  0  0  0  0  0  # atno 17394 bound_to 11000
  141.2222  133.6996  156.7914 LP  0  0  0  0  0  0  0  0  0  0  0  0  # atno 17395 bound_to 11000

$$$$
