AV-unprocessed.smi:69|AV-procd|sdf|652|dock3
  -GOLD-   2262016553D 1   1.00000     0.00000
 Structure written by MMmdl.
 32 34  0  0  0  0  0  0  0  0  1 V2000
  139.7640  136.7305  155.2127 N   0  0  0  0  0  0  0  0  0  0  0  0
  140.7505  136.9297  154.3278 C   0  0  0  0  0  0  0  0  0  0  0  0
  140.8413  138.1395  153.7265 N   0  0  0  0  0  0  0  0  0  0  0  0
  141.8189  138.3642  152.8419 C   0  0  0  0  0  0  0  0  0  0  0  0
  142.7800  137.5331  152.4283 N   0  0  0  0  0  0  0  0  0  0  0  0
  142.6823  136.3135  153.0348 C   0  0  0  0  0  0  0  0  0  0  0  0
  141.7039  135.9348  153.9938 C   0  0  0  0  0  0  0  0  0  0  0  0
  141.9237  134.6255  154.3991 N   0  0  0  0  0  0  0  0  0  0  0  0
  142.9766  134.2574  153.7180 C   0  0  0  0  0  0  0  0  0  0  0  0
  143.4862  135.2082  152.8564 N   0  0  0  0  0  0  0  0  0  0  0  0
  144.6776  135.1365  151.9489 C   0  0  1  0  0  0  0  0  0  0  0  0
  145.2319  133.8608  152.0368 O   0  0  0  0  0  0  0  0  0  0  0  0
  144.6439  133.0261  151.0477 C   0  0  2  0  0  0  0  0  0  0  0  0
  145.5366  131.8015  150.7981 C   0  0  0  0  0  0  0  0  0  0  0  0
  146.7979  132.2135  150.3160 O   0  0  0  0  0  0  0  0  0  0  0  0
  144.5488  133.9727  149.8475 C   0  0  1  0  0  0  0  0  0  0  0  0
  143.4957  133.5753  148.9921 O   0  0  0  0  0  0  0  0  0  0  0  0
  144.2466  135.3303  150.4813 C   0  0  2  0  0  0  0  0  0  0  0  0
  144.9939  136.3490  149.8482 O   0  0  0  0  0  0  0  0  0  0  0  0
  145.3578  135.8962  152.3369 H   0  0  0  0  0  0  0  0  0  0  0  0
  143.6431  132.7240  151.3626 H   0  0  0  0  0  0  0  0  0  0  0  0
  145.4959  133.9933  149.3054 H   0  0  0  0  0  0  0  0  0  0  0  0
  143.1837  135.5730  150.4297 H   0  0  0  0  0  0  0  0  0  0  0  0
  139.6780  135.8365  155.6745 H   0  0  0  0  0  0  0  0  0  0  0  0
  139.1090  137.4719  155.4139 H   0  0  0  0  0  0  0  0  0  0  0  0
  141.8331  139.3508  152.4027 H   0  0  0  0  0  0  0  0  0  0  0  0
  143.4081  133.2737  153.8320 H   0  0  0  0  0  0  0  0  0  0  0  0
  145.7034  131.2630  151.7314 H   0  0  0  0  0  0  0  0  0  0  0  0
  145.0706  131.1052  150.1003 H   0  0  0  0  0  0  0  0  0  0  0  0
  146.7863  132.1733  149.3720 H   0  0  0  0  0  0  0  0  0  0  0  0
  142.7502  134.1324  149.1579 H   0  0  0  0  0  0  0  0  0  0  0  0
  144.4824  137.1439  149.8600 H   0  0  0  0  0  0  0  0  0  0  0  0
  1  2  1  0  0  0  0
  1 24  1  0  0  0  0
  1 25  1  0  0  0  0
  2  7  1  0  0  0  0
  2  3  2  0  0  0  0
  3  4  1  0  0  0  0
  4  5  2  0  0  0  0
  4 26  1  0  0  0  0
  5  6  1  0  0  0  0
  6 10  1  0  0  0  0
  6  7  2  0  0  0  0
  7  8  1  0  0  0  0
  8  9  2  0  0  0  0
  9 10  1  0  0  0  0
  9 27  1  0  0  0  0
 10 11  1  0  0  0  0
 11 20  1  0  0  0  0
 11 18  1  0  0  0  0
 11 12  1  0  0  0  0
 12 13  1  0  0  0  0
 13 21  1  0  0  0  0
 13 14  1  0  0  0  0
 13 16  1  0  0  0  0
 14 15  1  0  0  0  0
 14 28  1  0  0  0  0
 14 29  1  0  0  0  0
 15 30  1  0  0  0  0
 16 22  1  0  0  0  0
 16 17  1  0  0  0  0
 16 18  1  0  0  0  0
 17 31  1  0  0  0  0
 18 23  1  0  0  0  0
 18 19  1  0  0  0  0
 19 32  1  0  0  0  0
M  END
> <s_m_source_file>
AV-unprocessed.smi

> <i_m_source_file_index>
69

> <i_lp_mmshare_version>
43012

> <i_f3d_flags>
0

> <s_epik_input>
bjFbY0hdbmMoW05IMl0pYyhjMTIpbltjSF1uMltDQEBIXTNPW0NASF0oW0NIMl1bT0hdKVtDQEBIXShbT0hdKVtDQEhdM1tPSF0=

> <s_epik_cmdline>
J2VwaWtfcHl0aG9uJywgJy1waCcsICc3LjAnLCAnLXRuJywgJzgnLCAnLW1hJywgJzIwMCcsICctbWV0YWxfYmluZGluZycsICctaW1hZScsICc8aW5maWxlLm1hZT4nLCAnLW9tYWUnLCAnPG91dGZpbGUubWFlPic=

> <r_lp_tautomer_probability>
1

> <r_epik_Ionization_Penalty>
0.000428445

> <r_epik_Ionization_Penalty_Charging>
0

> <r_epik_Ionization_Penalty_Neutral>
0.000428445

> <r_epik_State_Penalty>
-0

> <r_epik_Charging_Adjusted_Penalty>
0

> <i_epik_Tot_Q>
0

> <i_epik_Tot_abs_Q>
0

> <r_epik_Metal_State_Penalty>
-0

> <b_epik_Metal_Only>
0

> <s_epik_Chemistry_Notes>
This compound contains an acetal/aminal-like group ( X-CH(R)-Y where X, Y are N, S, or O) that may be acid/base labile, releasing an aldehyde.

> <s_lp_Force_Field>
OPLS_2005

> <r_lp_Energy>
31.7018

> <b_lp_Chiralities_Consistent>
1

> <s_lp_Variant>
AV-unprocessed.smi:69-10

> <Gold.Version>
5.8.1

> <Gold.Id.Protein>
6NUR|6NUR_protein|mol2

> <Gold.PLP.Fitness>
41.6864

> <Gold.PLP.PLP>
-23.4158

> <Gold.PLP.part.hbond>
-6.4978

> <Gold.PLP.part.metal>
0.0000

> <Gold.PLP.part.buried>
0.9131

> <Gold.PLP.part.nonpolar>
-21.1455

> <Gold.PLP.part.repulsive>
2.9978

> <Gold.PLP.ligand.clash>
0.0000

> <Gold.PLP.ligand.torsion>
0.0271

> <Gold.PLP.Chemscore.Hbond>
3.6503

> <Gold.PLP.Chemscore.CHOScore>
2.4479

> <Gold.PLP.Chemscore.Metal>
0.0000

> <Gold.Chemscore.Hbonds>
donor molecule, donor type, donor heavy atom, donor atom, acceptor molecule, acceptor atom, score
      L1  H     1    24       P1 11000  0.96
      L1  H    17    31       P1 10186  1.00
      L1  H    19    32       P1 10171  1.00
      P1  H 11000 11005       L1     8  0.57
      L1  C     4    26       P1 10160  1.00
      L1  C     4    26       P1 10175  0.80
      L1  C     9    27       P1 10957  0.72

> <Gold.PLP.Chemscore.Internal.Correction>
0.0304

> <Gold.Rescore>
     Score         DG    S(hbond)    S(metal)    S(lipo)     H(rot)  DE(clash)    DE(int)     intcor
      7.30     -10.48       3.41        0.00      33.60       4.03       3.05       0.13       ----

> <Gold.Chemscore.Fitness>
7.2963

> <Gold.Chemscore.DG>
-10.4767

> <Gold.Chemscore.ZeroCoef>
-5.4800

> <Gold.Chemscore.Hbond>
3.4062

> <Gold.Chemscore.Metal>
0.0000

> <Gold.Chemscore.Lipo>
33.5981

> <Gold.Chemscore.Internal_Hbond>
0.0000

> <Gold.Chemscore.DEClash>
3.0505

> <Gold.Chemscore.DEInternal>
0.1299

> <Gold.Chemscore.Rot>
4.0277

> <Gold.Chemscore.Internal.Correction>
   9.000000E+99

> <Gold.Chemscore.Hbonds>
donor molecule, donor type, donor heavy atom, donor atom, acceptor molecule, acceptor atom, score
      L1  H     1    24       P1 11000  0.22
      L1  H    17    31       P1 10186  0.98
      L1  H    19    32       P1 10171  0.95
      P1  H 11000 11005       L1     8  0.55

> <Gold.Chemscore.Hbond.Weighted>
-11.3767

> <Gold.Chemscore.Metal.Weighted>
-0.0000

> <Gold.Chemscore.Lipo.Weighted>
-3.9310

> <Gold.Chemscore.Internal_Hbond.Weighted>
0.0000

> <Gold.Chemscore.DEClash.Weighted>
3.0505

> <Gold.Chemscore.DEInternal.Weighted>
0.1299

> <Gold.Chemscore.Rot.Weighted>
10.3110

> <Gold.Chemscore.Internal.Correction.Weighted>
   9.000000E+99

> <Gold.Protein.RotatedTorsions>
[ 6907 6896 6895 6894 ] final  107.24 input  -60.11 | X-H torsion
[ 7974 7965 7964 7962 ] final   46.15 input  175.53 | X-H torsion
[ 8008 7997 7996 7995 ] final  151.32 input   59.86 | X-H torsion
[ 10167 10162 10161 10158 ] final  -97.32 input  -65.29 | X-H torsion
[ 10718 10713 10712 10709 ] final  151.59 input   66.30 | X-H torsion
[ 10763 10752 10751 10750 ] final   59.19 input  -60.55 | X-H torsion
[ 11005 11000 10999 10996 ] final  -27.37 input  -57.11 | X-H torsion

> <Gold.Protein.ActiveResidues>
 VAL166  LYS551  ARG553  GLY616  TRP617  ASP618  TYR619  PRO620  LYS621  CYS622 
 ASP623  PHE694  ASN695  SER759  ASP760  ASP761  ALA762  ILE779  LEU786  VAL792 
 PHE793  MET794  SER795  GLU796  ALA797  LYS798  CYS799  TRP800  GLU811  SER814 

> <Gold.Protein.RotatedAtoms>
  152.5162  133.9263  159.7558 H   0  0  0  0  0  0  0  0  0  0  0  0  # atno 6907 bound_to 6896
  150.9623  133.6423  159.2759 H   0  0  0  0  0  0  0  0  0  0  0  0  # atno 6908 bound_to 6896
  151.3664  135.0919  159.9504 H   0  0  0  0  0  0  0  0  0  0  0  0  # atno 6909 bound_to 6896
  146.0416  139.4887  142.9775 H   0  0  0  0  0  0  0  0  0  0  0  0  # atno 7974 bound_to 7965
  156.2679  140.2051  156.6157 H   0  0  0  0  0  0  0  0  0  0  0  0  # atno 8008 bound_to 7997
  154.6796  140.0541  157.0276 H   0  0  0  0  0  0  0  0  0  0  0  0  # atno 8009 bound_to 7997
  155.1019  140.3207  155.4547 H   0  0  0  0  0  0  0  0  0  0  0  0  # atno 8010 bound_to 7997
  140.2847  143.3259  152.0406 H   0  0  0  0  0  0  0  0  0  0  0  0  # atno 10167 bound_to 10162
  157.2688  131.0813  151.1614 H   0  0  0  0  0  0  0  0  0  0  0  0  # atno 10718 bound_to 10713
  152.9888  135.5580  154.5673 H   0  0  0  0  0  0  0  0  0  0  0  0  # atno 10763 bound_to 10752
  154.5080  135.2801  155.1368 H   0  0  0  0  0  0  0  0  0  0  0  0  # atno 10764 bound_to 10752
  154.2771  135.6352  153.5385 H   0  0  0  0  0  0  0  0  0  0  0  0  # atno 10765 bound_to 10752
  140.9113  133.7459  156.0675 H   0  0  0  0  0  0  0  0  0  0  0  0  # atno 11005 bound_to 11000
  145.6876  141.0173  143.1573 LP  0  0  0  0  0  0  0  0  0  0  0  0  # atno 17320 bound_to 7965
  144.7077  139.8494  143.7424 LP  0  0  0  0  0  0  0  0  0  0  0  0  # atno 17321 bound_to 7965
  139.4953  144.6567  151.6556 LP  0  0  0  0  0  0  0  0  0  0  0  0  # atno 17342 bound_to 10162
  140.5783  143.9991  150.6254 LP  0  0  0  0  0  0  0  0  0  0  0  0  # atno 17343 bound_to 10162
  157.3095  130.6882  149.6208 LP  0  0  0  0  0  0  0  0  0  0  0  0  # atno 17370 bound_to 10713
  155.9663  130.4368  150.5148 LP  0  0  0  0  0  0  0  0  0  0  0  0  # atno 17371 bound_to 10713
  140.8106  134.3404  157.5413 LP  0  0  0  0  0  0  0  0  0  0  0  0  # atno 17394 bound_to 11000
  139.8758  134.9252  156.3368 LP  0  0  0  0  0  0  0  0  0  0  0  0  # atno 17395 bound_to 11000

$$$$
