AV-unprocessed.smi:1234|AV-procd|sdf|5173|dock5
  -GOLD-   22720 4243D 1   1.00000     0.00000
 Structure written by MMmdl.
 33 34  0  0  0  0  0  0  0  0  1 V2000
  147.5406  141.0320  158.3294 O   0  0  0  0  0  0  0  0  0  0  0  0
  147.7828  142.1994  158.0211 C   0  0  0  0  0  0  0  0  0  0  0  0
  148.5293  142.5431  156.9617 N   0  0  0  0  0  0  0  0  0  0  0  0
  149.1379  141.6016  156.0285 C   0  0  0  0  0  0  0  0  0  0  0  0
  150.6722  141.7514  155.9903 C   0  0  0  0  0  0  0  0  0  0  0  0
  151.3529  141.4550  157.3374 C   0  0  0  0  0  0  0  0  0  0  0  0
  151.5209  140.2884  157.6962 O   0  0  0  0  0  0  0  0  0  0  0  0
  151.7488  142.4990  158.0948 N   0  0  0  0  0  0  0  0  0  0  0  0
  152.3874  142.4105  159.4078 C   0  0  0  0  0  0  0  0  0  0  0  0
  152.4203  143.8408  159.9485 C   0  0  0  0  0  0  0  0  0  0  0  0
  152.3923  144.7132  158.7012 C   0  0  0  0  0  0  0  0  0  0  0  0
  151.5879  143.8947  157.6914 C   0  0  0  0  0  0  0  0  0  0  0  0
  147.3466  143.2855  158.6834 N   0  0  0  0  0  0  0  0  0  0  0  0
  146.5225  143.3388  159.8387 C   0  0  0  0  0  0  0  0  0  0  0  0
  145.7891  142.3040  160.2782 N   0  0  0  0  0  0  0  0  0  0  0  0
  145.0735  142.6240  161.4245 N   0  0  0  0  0  0  0  0  0  0  0  0
  145.2953  143.8854  161.8043 C   0  0  0  0  0  0  0  0  0  0  0  0
  146.4023  144.8058  160.7999 S   0  0  0  0  0  0  0  0  0  0  0  0
  148.6792  143.5248  156.7800 H   0  0  0  0  0  0  0  0  0  0  0  0
  148.8544  140.5814  156.2942 H   0  0  0  0  0  0  0  0  0  0  0  0
  148.7160  141.7944  155.0417 H   0  0  0  0  0  0  0  0  0  0  0  0
  151.0835  141.0789  155.2369 H   0  0  0  0  0  0  0  0  0  0  0  0
  150.9296  142.7668  155.6865 H   0  0  0  0  0  0  0  0  0  0  0  0
  151.8494  141.7489  160.0878 H   0  0  0  0  0  0  0  0  0  0  0  0
  153.4012  142.0257  159.2869 H   0  0  0  0  0  0  0  0  0  0  0  0
  151.5248  144.0277  160.5428 H   0  0  0  0  0  0  0  0  0  0  0  0
  153.2868  144.0340  160.5813 H   0  0  0  0  0  0  0  0  0  0  0  0
  151.9646  145.6996  158.8832 H   0  0  0  0  0  0  0  0  0  0  0  0
  153.4089  144.8529  158.3313 H   0  0  0  0  0  0  0  0  0  0  0  0
  151.9354  144.0707  156.6721 H   0  0  0  0  0  0  0  0  0  0  0  0
  150.5300  144.1576  157.7391 H   0  0  0  0  0  0  0  0  0  0  0  0
  147.6282  144.1804  158.3112 H   0  0  0  0  0  0  0  0  0  0  0  0
  144.8034  144.2765  162.6826 H   0  0  0  0  0  0  0  0  0  0  0  0
  1  2  2  0  0  0  0
  2  3  1  0  0  0  0
  2 13  1  0  0  0  0
  3  4  1  0  0  0  0
  3 19  1  0  0  0  0
  4  5  1  0  0  0  0
  4 20  1  0  0  0  0
  4 21  1  0  0  0  0
  5  6  1  0  0  0  0
  5 22  1  0  0  0  0
  5 23  1  0  0  0  0
  6  7  2  0  0  0  0
  6  8  1  0  0  0  0
  8 12  1  0  0  0  0
  8  9  1  0  0  0  0
  9 10  1  0  0  0  0
  9 24  1  0  0  0  0
  9 25  1  0  0  0  0
 10 11  1  0  0  0  0
 10 26  1  0  0  0  0
 10 27  1  0  0  0  0
 11 12  1  0  0  0  0
 11 28  1  0  0  0  0
 11 29  1  0  0  0  0
 12 30  1  0  0  0  0
 12 31  1  0  0  0  0
 13 14  1  0  0  0  0
 13 32  1  0  0  0  0
 14 18  1  0  0  0  0
 14 15  2  0  0  0  0
 15 16  1  0  0  0  0
 16 17  2  0  0  0  0
 17 18  1  0  0  0  0
 17 33  1  0  0  0  0
M  END
> <s_m_source_file>
AV-unprocessed.smi

> <i_m_source_file_index>
1234

> <i_lp_mmshare_version>
43012

> <i_f3d_flags>
0

> <s_epik_input>
czFbY0hdbm5jMVtOSF1DKD1PKVtOSF1bQ0gyXVtDSDJdQyg9TylOMltDSDJdW0NIMl1bQ0gyXVtDSDJdMg==

> <s_epik_cmdline>
J2VwaWtfcHl0aG9uJywgJy1waCcsICc3LjAnLCAnLXRuJywgJzgnLCAnLW1hJywgJzIwMCcsICctbWV0YWxfYmluZGluZycsICctaW1hZScsICc8aW5maWxlLm1hZT4nLCAnLW9tYWUnLCAnPG91dGZpbGUubWFlPic=

> <r_lp_tautomer_probability>
1

> <r_epik_Ionization_Penalty>
0.00246339

> <r_epik_Ionization_Penalty_Charging>
0

> <r_epik_Ionization_Penalty_Neutral>
0.00246339

> <r_epik_State_Penalty>
-0

> <r_epik_Charging_Adjusted_Penalty>
0

> <i_epik_Tot_Q>
0

> <i_epik_Tot_abs_Q>
0

> <r_epik_Metal_State_Penalty>
0.351039

> <b_epik_Metal_Only>
0

> <s_lp_Force_Field>
OPLS_2005

> <r_lp_Energy>
26.1559

> <b_lp_Chiralities_Consistent>
1

> <s_lp_Variant>
AV-unprocessed.smi:1234-1

> <Gold.Version>
5.8.1

> <Gold.Id.Protein>
6NUR|6NUR_protein|mol2

> <Gold.PLP.Fitness>
45.9432

> <Gold.PLP.PLP>
-37.5538

> <Gold.PLP.part.hbond>
-4.0000

> <Gold.PLP.part.metal>
0.0000

> <Gold.PLP.part.buried>
-4.8225

> <Gold.PLP.part.nonpolar>
-28.6439

> <Gold.PLP.part.repulsive>
0.1472

> <Gold.PLP.ligand.clash>
0.0000

> <Gold.PLP.ligand.torsion>
0.3103

> <Gold.PLP.Chemscore.Hbond>
3.0000

> <Gold.PLP.Chemscore.CHOScore>
0.0000

> <Gold.PLP.Chemscore.Metal>
0.0000

> <Gold.Chemscore.Hbonds>
donor molecule, donor type, donor heavy atom, donor atom, acceptor molecule, acceptor atom, score
      L1  H     3    19       P1  8028  0.98
      L1  H    13    32       P1  8029  0.94
      P1  H  6934  6946       L1    15  1.00

> <Gold.PLP.Chemscore.Internal.Correction>
0.0100

> <Gold.Rescore>
     Score         DG    S(hbond)    S(metal)    S(lipo)     H(rot)  DE(clash)    DE(int)     intcor
     15.30     -16.90       2.11        0.00      76.43       1.79       0.02       1.58       ----

> <Gold.Chemscore.Fitness>
15.3012

> <Gold.Chemscore.DG>
-16.8959

> <Gold.Chemscore.ZeroCoef>
-5.4800

> <Gold.Chemscore.Hbond>
2.1099

> <Gold.Chemscore.Metal>
0.0000

> <Gold.Chemscore.Lipo>
76.4300

> <Gold.Chemscore.Internal_Hbond>
0.0000

> <Gold.Chemscore.DEClash>
0.0170

> <Gold.Chemscore.DEInternal>
1.5777

> <Gold.Chemscore.Rot>
1.7865

> <Gold.Chemscore.Internal.Correction>
   9.000000E+99

> <Gold.Chemscore.Hbonds>
donor molecule, donor type, donor heavy atom, donor atom, acceptor molecule, acceptor atom, score
      L1  H     3    19       P1  8028  0.42
      L1  H    13    32       P1  8029  0.54
      P1  H  6934  6946       L1    15  0.47

> <Gold.Chemscore.Hbond.Weighted>
-7.0470

> <Gold.Chemscore.Metal.Weighted>
-0.0000

> <Gold.Chemscore.Lipo.Weighted>
-8.9423

> <Gold.Chemscore.Internal_Hbond.Weighted>
0.0000

> <Gold.Chemscore.DEClash.Weighted>
0.0170

> <Gold.Chemscore.DEInternal.Weighted>
1.5777

> <Gold.Chemscore.Rot.Weighted>
4.5735

> <Gold.Chemscore.Internal.Correction.Weighted>
   9.000000E+99

> <Gold.Protein.RotatedTorsions>
[ 6907 6896 6895 6894 ] final   23.14 input  -60.11 | X-H torsion
[ 7974 7965 7964 7962 ] final -120.21 input  175.53 | X-H torsion
[ 8008 7997 7996 7995 ] final  161.63 input   59.86 | X-H torsion
[ 10167 10162 10161 10158 ] final  146.25 input  -65.29 | X-H torsion
[ 10718 10713 10712 10709 ] final -111.81 input   66.30 | X-H torsion
[ 10763 10752 10751 10750 ] final  -89.47 input  -60.55 | X-H torsion
[ 11005 11000 10999 10996 ] final  169.45 input  -57.11 | X-H torsion

> <Gold.Protein.ActiveResidues>
 VAL166  LYS551  ARG553  GLY616  TRP617  ASP618  TYR619  PRO620  LYS621  CYS622 
 ASP623  PHE694  ASN695  SER759  ASP760  ASP761  ALA762  ILE779  LEU786  VAL792 
 PHE793  MET794  SER795  GLU796  ALA797  LYS798  CYS799  TRP800  GLU811  SER814 

> <Gold.Protein.RotatedAtoms>
  151.9379  135.0227  160.0533 H   0  0  0  0  0  0  0  0  0  0  0  0  # atno 6907 bound_to 6896
  152.2062  133.4873  159.5093 H   0  0  0  0  0  0  0  0  0  0  0  0  # atno 6908 bound_to 6896
  150.6965  134.1443  159.4159 H   0  0  0  0  0  0  0  0  0  0  0  0  # atno 6909 bound_to 6896
  145.0538  140.8239  143.4193 H   0  0  0  0  0  0  0  0  0  0  0  0  # atno 7974 bound_to 7965
  156.2089  140.1772  156.7738 H   0  0  0  0  0  0  0  0  0  0  0  0  # atno 8008 bound_to 7997
  154.5694  140.0685  156.8972 H   0  0  0  0  0  0  0  0  0  0  0  0  # atno 8009 bound_to 7997
  155.2700  140.3342  155.4268 H   0  0  0  0  0  0  0  0  0  0  0  0  # atno 8010 bound_to 7997
  139.4910  144.5843  151.6809 H   0  0  0  0  0  0  0  0  0  0  0  0  # atno 10167 bound_to 10162
  156.0669  130.5887  150.8424 H   0  0  0  0  0  0  0  0  0  0  0  0  # atno 10718 bound_to 10713
  154.6556  135.5340  153.7954 H   0  0  0  0  0  0  0  0  0  0  0  0  # atno 10763 bound_to 10752
  153.0411  135.6493  154.0951 H   0  0  0  0  0  0  0  0  0  0  0  0  # atno 10764 bound_to 10752
  154.0864  135.2943  155.3260 H   0  0  0  0  0  0  0  0  0  0  0  0  # atno 10765 bound_to 10752
  140.2979  134.7620  157.3892 H   0  0  0  0  0  0  0  0  0  0  0  0  # atno 11005 bound_to 11000
  145.1493  139.2524  143.5449 LP  0  0  0  0  0  0  0  0  0  0  0  0  # atno 17320 bound_to 7965
  146.3520  140.1192  142.8601 LP  0  0  0  0  0  0  0  0  0  0  0  0  # atno 17321 bound_to 7965
  140.5456  144.0509  150.6105 LP  0  0  0  0  0  0  0  0  0  0  0  0  # atno 17342 bound_to 10162
  140.3546  143.2943  152.0450 LP  0  0  0  0  0  0  0  0  0  0  0  0  # atno 17343 bound_to 10162
  157.5715  131.0946  150.9410 LP  0  0  0  0  0  0  0  0  0  0  0  0  # atno 17370 bound_to 10713
  156.9625  130.5460  149.5286 LP  0  0  0  0  0  0  0  0  0  0  0  0  # atno 17371 bound_to 10713
  140.1136  134.5312  155.8244 LP  0  0  0  0  0  0  0  0  0  0  0  0  # atno 17394 bound_to 11000
  141.2134  133.6733  156.6735 LP  0  0  0  0  0  0  0  0  0  0  0  0  # atno 17395 bound_to 11000

$$$$
