AV-unprocessed.smi:2790|AV-procd|sdf|10769|dock10
  -GOLD-   2272015203D 1   1.00000     0.00000
 Structure written by MMmdl.
 45 46  0  0  0  0  0  0  0  0  3 V2000
  153.7245  142.1030  159.7664 C   0  0  0  0  0  0  0  0  0  0  0  0
  152.8619  143.1539  160.3464 N   0  3  0  0  0  0  0  0  0  0  0  0
  152.8532  143.1087  161.8273 C   0  0  0  0  0  0  0  0  0  0  0  0
  151.5019  143.1643  159.7495 C   0  0  0  0  0  0  0  0  0  0  0  0
  151.5899  143.2769  158.2238 C   0  0  0  0  0  0  0  0  0  0  0  0
  152.1054  144.2883  157.7386 O   0  0  0  0  0  0  0  0  0  0  0  0
  151.0704  142.1697  157.6258 N   0  5  0  0  0  0  0  0  0  0  0  0
  150.6208  142.1277  156.2321 C   0  0  0  0  0  0  0  0  0  0  0  0
  149.8307  140.7963  155.9156 C   0  0  0  0  0  0  0  0  0  0  0  0
  150.8425  139.6210  155.7712 C   0  0  0  0  0  0  0  0  0  0  0  0
  150.8642  138.8005  154.6120 C   0  0  0  0  0  0  0  0  0  0  0  0
  151.8042  137.7565  154.5154 C   0  0  0  0  0  0  0  0  0  0  0  0
  152.7051  137.4769  155.4785 N   0  0  0  0  0  0  0  0  0  0  0  0
  152.6914  138.2455  156.5852 C   0  0  0  0  0  0  0  0  0  0  0  0
  151.7987  139.3177  156.7768 C   0  0  0  0  0  0  0  0  0  0  0  0
  148.7628  140.4703  157.0252 C   0  0  0  0  0  0  0  0  0  0  0  0
  147.5049  141.3660  157.0484 C   0  0  0  0  0  0  0  0  0  0  0  0
  146.8019  141.3705  155.6889 C   0  0  0  0  0  0  0  0  0  0  0  0
  147.7724  141.8049  154.5880 C   0  0  0  0  0  0  0  0  0  0  0  0
  149.0385  140.9188  154.5641 C   0  0  0  0  0  0  0  0  0  0  0  0
  153.3244  141.1097  159.9737 H   0  0  0  0  0  0  0  0  0  0  0  0
  154.7322  142.1612  160.1791 H   0  0  0  0  0  0  0  0  0  0  0  0
  153.8041  142.2244  158.6855 H   0  0  0  0  0  0  0  0  0  0  0  0
  152.3840  142.1930  162.1885 H   0  0  0  0  0  0  0  0  0  0  0  0
  152.3134  143.9590  162.2451 H   0  0  0  0  0  0  0  0  0  0  0  0
  153.8705  143.1466  162.2174 H   0  0  0  0  0  0  0  0  0  0  0  0
  150.9726  142.2411  159.9924 H   0  0  0  0  0  0  0  0  0  0  0  0
  150.9094  143.9810  160.1650 H   0  0  0  0  0  0  0  0  0  0  0  0
  149.9870  142.9851  156.0076 H   0  0  0  0  0  0  0  0  0  0  0  0
  151.4530  142.2059  155.5308 H   0  0  0  0  0  0  0  0  0  0  0  0
  150.1868  138.9696  153.7891 H   0  0  0  0  0  0  0  0  0  0  0  0
  151.8355  137.1311  153.6355 H   0  0  0  0  0  0  0  0  0  0  0  0
  153.4259  138.0077  157.3403 H   0  0  0  0  0  0  0  0  0  0  0  0
  151.8749  139.8903  157.6873 H   0  0  0  0  0  0  0  0  0  0  0  0
  148.4022  139.4535  156.8621 H   0  0  0  0  0  0  0  0  0  0  0  0
  149.1992  140.4621  158.0258 H   0  0  0  0  0  0  0  0  0  0  0  0
  146.8158  141.0053  157.8125 H   0  0  0  0  0  0  0  0  0  0  0  0
  147.7630  142.3852  157.3371 H   0  0  0  0  0  0  0  0  0  0  0  0
  146.4182  140.3733  155.4692 H   0  0  0  0  0  0  0  0  0  0  0  0
  145.9400  142.0378  155.7141 H   0  0  0  0  0  0  0  0  0  0  0  0
  147.2722  141.7501  153.6206 H   0  0  0  0  0  0  0  0  0  0  0  0
  148.0414  142.8526  154.7256 H   0  0  0  0  0  0  0  0  0  0  0  0
  149.6734  141.2565  153.7433 H   0  0  0  0  0  0  0  0  0  0  0  0
  148.7119  139.9187  154.2737 H   0  0  0  0  0  0  0  0  0  0  0  0
  153.2746  144.0382  160.0828 H   0  0  0  0  0  0  0  0  0  0  0  0
  1  2  1  0  0  0  0
  1 21  1  0  0  0  0
  1 22  1  0  0  0  0
  1 23  1  0  0  0  0
  2  3  1  0  0  0  0
  2  4  1  0  0  0  0
  2 45  1  0  0  0  0
  3 24  1  0  0  0  0
  3 25  1  0  0  0  0
  3 26  1  0  0  0  0
  4  5  1  0  0  0  0
  4 27  1  0  0  0  0
  4 28  1  0  0  0  0
  5  6  2  0  0  0  0
  5  7  1  0  0  0  0
  7  8  1  0  0  0  0
  8  9  1  0  0  0  0
  8 29  1  0  0  0  0
  8 30  1  0  0  0  0
  9 20  1  0  0  0  0
  9 10  1  0  0  0  0
  9 16  1  0  0  0  0
 10 15  1  0  0  0  0
 10 11  2  0  0  0  0
 11 12  1  0  0  0  0
 11 31  1  0  0  0  0
 12 13  2  0  0  0  0
 12 32  1  0  0  0  0
 13 14  1  0  0  0  0
 14 15  2  0  0  0  0
 14 33  1  0  0  0  0
 15 34  1  0  0  0  0
 16 17  1  0  0  0  0
 16 35  1  0  0  0  0
 16 36  1  0  0  0  0
 17 18  1  0  0  0  0
 17 37  1  0  0  0  0
 17 38  1  0  0  0  0
 18 19  1  0  0  0  0
 18 39  1  0  0  0  0
 18 40  1  0  0  0  0
 19 20  1  0  0  0  0
 19 41  1  0  0  0  0
 19 42  1  0  0  0  0
 20 43  1  0  0  0  0
 20 44  1  0  0  0  0
M  CHG  1   2   1
M  CHG  1   7  -1
M  END
> <s_m_source_file>
AV-unprocessed.smi

> <i_m_source_file_index>
2790

> <i_lp_mmshare_version>
43012

> <i_f3d_flags>
0

> <s_epik_input>
W0NIM11OKFtDSDNdKVtDSDJdQyg9TylbTkhdW0NIMl1DMShbQ0gyXVtDSDJdW0NIMl1bQ0gyXVtDSDJdMSljMltjSF1bY0hdbltjSF1bY0hdMg==

> <s_epik_cmdline>
J2VwaWtfcHl0aG9uJywgJy1waCcsICc3LjAnLCAnLXRuJywgJzgnLCAnLW1hJywgJzIwMCcsICctbWV0YWxfYmluZGluZycsICctaW1hZScsICc8aW5maWxlLm1hZT4nLCAnLW9tYWUnLCAnPG91dGZpbGUubWFlPic=

> <r_epik_Ionization_Penalty>
6.38592

> <r_epik_Ionization_Penalty_Charging>
6.21784

> <r_epik_Ionization_Penalty_Neutral>
0.168075

> <r_epik_State_Penalty>
6.29446

> <r_epik_Charging_Adjusted_Penalty>
12.5123

> <i_epik_Tot_Q>
0

> <i_epik_Tot_abs_Q>
2

> <r_epik_Metal_State_Penalty>
2.27801

> <b_epik_Metal_Only>
1

> <s_lp_Force_Field>
OPLS_2005

> <r_lp_Energy>
25.1562

> <b_lp_Chiralities_Consistent>
1

> <s_lp_Variant>
AV-unprocessed.smi:2790-4

> <Gold.Version>
5.8.1

> <Gold.Id.Protein>
6NUR|6NUR_protein|mol2

> <Gold.PLP.Fitness>
43.0987

> <Gold.PLP.PLP>
-39.3862

> <Gold.PLP.part.hbond>
-1.0000

> <Gold.PLP.part.metal>
0.0000

> <Gold.PLP.part.buried>
-3.9526

> <Gold.PLP.part.nonpolar>
-35.1569

> <Gold.PLP.part.repulsive>
0.1911

> <Gold.PLP.ligand.clash>
0.0000

> <Gold.PLP.ligand.torsion>
0.4752

> <Gold.PLP.Chemscore.Hbond>
0.5304

> <Gold.PLP.Chemscore.CHOScore>
1.0000

> <Gold.PLP.Chemscore.Metal>
0.0000

> <Gold.Chemscore.Hbonds>
donor molecule, donor type, donor heavy atom, donor atom, acceptor molecule, acceptor atom, score
      P1  H 10752 10763       L1    13  0.35
      L1  C    12    32       P1  7949  1.00

> <Gold.PLP.Chemscore.Internal.Correction>
0.0716

> <Gold.Rescore>
     Score         DG    S(hbond)    S(metal)    S(lipo)     H(rot)  DE(clash)    DE(int)     intcor
     13.91     -14.73       0.33        0.00     104.55       1.59       0.29       0.53       ----

> <Gold.Chemscore.Fitness>
13.9142

> <Gold.Chemscore.DG>
-14.7331

> <Gold.Chemscore.ZeroCoef>
-5.4800

> <Gold.Chemscore.Hbond>
0.3295

> <Gold.Chemscore.Metal>
0.0000

> <Gold.Chemscore.Lipo>
104.5540

> <Gold.Chemscore.Internal_Hbond>
0.0000

> <Gold.Chemscore.DEClash>
0.2920

> <Gold.Chemscore.DEInternal>
0.5269

> <Gold.Chemscore.Rot>
1.5938

> <Gold.Chemscore.Internal.Correction>
   9.000000E+99

> <Gold.Chemscore.Hbonds>
donor molecule, donor type, donor heavy atom, donor atom, acceptor molecule, acceptor atom, score
      P1  H 10752 10763       L1    13  0.03

> <Gold.Chemscore.Hbond.Weighted>
-1.1005

> <Gold.Chemscore.Metal.Weighted>
-0.0000

> <Gold.Chemscore.Lipo.Weighted>
-12.2328

> <Gold.Chemscore.Internal_Hbond.Weighted>
0.0000

> <Gold.Chemscore.DEClash.Weighted>
0.2920

> <Gold.Chemscore.DEInternal.Weighted>
0.5269

> <Gold.Chemscore.Rot.Weighted>
4.0802

> <Gold.Chemscore.Internal.Correction.Weighted>
   9.000000E+99

> <Gold.Protein.RotatedTorsions>
[ 6907 6896 6895 6894 ] final   75.28 input  -60.11 | X-H torsion
[ 7974 7965 7964 7962 ] final   22.82 input  175.53 | X-H torsion
[ 8008 7997 7996 7995 ] final  174.18 input   59.86 | X-H torsion
[ 10167 10162 10161 10158 ] final   93.37 input  -65.29 | X-H torsion
[ 10718 10713 10712 10709 ] final  -36.99 input   66.30 | X-H torsion
[ 10763 10752 10751 10750 ] final   72.60 input  -60.55 | X-H torsion
[ 11005 11000 10999 10996 ] final -169.18 input  -57.11 | X-H torsion

> <Gold.Protein.ActiveResidues>
 VAL166  LYS551  ARG553  GLY616  TRP617  ASP618  TYR619  PRO620  LYS621  CYS622 
 ASP623  PHE694  ASN695  SER759  ASP760  ASP761  ALA762  ILE779  LEU786  VAL792 
 PHE793  MET794  SER795  GLU796  ALA797  LYS798  CYS799  TRP800  GLU811  SER814 

> <Gold.Protein.RotatedAtoms>
  152.5018  134.4144  159.9459 H   0  0  0  0  0  0  0  0  0  0  0  0  # atno 6907 bound_to 6896
  151.4114  133.3720  159.2752 H   0  0  0  0  0  0  0  0  0  0  0  0  # atno 6908 bound_to 6896
  150.9289  134.8726  159.7597 H   0  0  0  0  0  0  0  0  0  0  0  0  # atno 6909 bound_to 6896
  146.2012  139.7831  142.8760 H   0  0  0  0  0  0  0  0  0  0  0  0  # atno 7974 bound_to 7965
  156.1001  140.1441  156.9479 H   0  0  0  0  0  0  0  0  0  0  0  0  # atno 8008 bound_to 7997
  154.4696  140.0914  156.7157 H   0  0  0  0  0  0  0  0  0  0  0  0  # atno 8009 bound_to 7997
  155.4775  140.3444  155.4337 H   0  0  0  0  0  0  0  0  0  0  0  0  # atno 8010 bound_to 7997
  139.8186  144.6741  150.9547 H   0  0  0  0  0  0  0  0  0  0  0  0  # atno 10167 bound_to 10162
  156.3204  130.4265  149.7965 H   0  0  0  0  0  0  0  0  0  0  0  0  # atno 10718 bound_to 10713
  153.0469  135.5094  154.7768 H   0  0  0  0  0  0  0  0  0  0  0  0  # atno 10763 bound_to 10752
  154.6661  135.2946  154.9806 H   0  0  0  0  0  0  0  0  0  0  0  0  # atno 10764 bound_to 10752
  154.0640  135.6687  153.4868 H   0  0  0  0  0  0  0  0  0  0  0  0  # atno 10765 bound_to 10752
  140.5336  134.5591  157.5081 H   0  0  0  0  0  0  0  0  0  0  0  0  # atno 11005 bound_to 11000
  145.3478  141.0301  143.3356 LP  0  0  0  0  0  0  0  0  0  0  0  0  # atno 17320 bound_to 7965
  144.8687  139.5069  143.6778 LP  0  0  0  0  0  0  0  0  0  0  0  0  # atno 17321 bound_to 7965
  140.7814  143.4113  151.0988 LP  0  0  0  0  0  0  0  0  0  0  0  0  # atno 17342 bound_to 10162
  139.7775  143.8403  152.3132 LP  0  0  0  0  0  0  0  0  0  0  0  0  # atno 17343 bound_to 10162
  156.5275  130.8243  151.3225 LP  0  0  0  0  0  0  0  0  0  0  0  0  # atno 17370 bound_to 10713
  157.7410  130.9862  150.2419 LP  0  0  0  0  0  0  0  0  0  0  0  0  # atno 17371 bound_to 10713
  139.9541  134.7566  156.0382 LP  0  0  0  0  0  0  0  0  0  0  0  0  # atno 17394 bound_to 11000
  141.1267  133.6597  156.3355 LP  0  0  0  0  0  0  0  0  0  0  0  0  # atno 17395 bound_to 11000

$$$$
