AV-unprocessed.smi:2490|AV-procd|sdf|9807|dock4
  -GOLD-   2272013443D 1   1.00000     0.00000
 Structure written by MMmdl.
 33 34  0  0  0  0  0  0  0  0  1 V2000
  151.1926  137.2789  154.4764 C   0  0  0  0  0  0  0  0  0  0  0  0
  151.0422  138.5423  155.1815 N   0  0  0  0  0  0  0  0  0  0  0  0
  152.0646  139.2969  155.6109 C   0  0  0  0  0  0  0  0  0  0  0  0
  153.2439  138.9852  155.4383 O   0  0  0  0  0  0  0  0  0  0  0  0
  151.6941  140.6057  156.3225 C   0  0  2  0  0  0  0  0  0  0  0  0
  152.1028  140.6107  157.8130 C   0  0  0  0  0  0  0  0  0  0  0  0
  151.6470  141.8326  158.4632 N   0  0  0  0  0  0  0  0  0  0  0  0
  152.1711  142.1050  159.7126 C   0  0  0  0  0  0  0  0  0  0  0  0
  151.6975  143.1752  160.3624 N   0  0  0  0  0  0  0  0  0  0  0  0
  152.2188  143.4295  161.5820 C   0  0  0  0  0  0  0  0  0  0  0  0
  153.2160  142.6079  162.1466 C   0  0  0  0  0  0  0  0  0  0  0  0
  153.7991  142.8940  163.5138 C   0  0  0  0  0  0  0  0  0  0  0  0
  153.6363  141.5090  161.3683 C   0  0  0  0  0  0  0  0  0  0  0  0
  153.1106  141.2616  160.1493 N   0  0  0  0  0  0  0  0  0  0  0  0
  150.2191  142.0581  158.2894 C   0  0  0  0  0  0  0  0  0  0  0  0
  149.8573  142.0280  156.7958 C   0  0  0  0  0  0  0  0  0  0  0  0
  150.2812  140.7931  156.2275 O   0  0  0  0  0  0  0  0  0  0  0  0
  150.2119  136.8746  154.2262 H   0  0  0  0  0  0  0  0  0  0  0  0
  151.7148  136.5488  155.0960 H   0  0  0  0  0  0  0  0  0  0  0  0
  151.7520  137.4146  153.5498 H   0  0  0  0  0  0  0  0  0  0  0  0
  150.1022  138.8654  155.3604 H   0  0  0  0  0  0  0  0  0  0  0  0
  152.1998  141.4193  155.7991 H   0  0  0  0  0  0  0  0  0  0  0  0
  151.6751  139.7490  158.3281 H   0  0  0  0  0  0  0  0  0  0  0  0
  153.1873  140.5367  157.9071 H   0  0  0  0  0  0  0  0  0  0  0  0
  151.8380  144.2926  162.1078 H   0  0  0  0  0  0  0  0  0  0  0  0
  154.5800  142.1761  163.7667 H   0  0  0  0  0  0  0  0  0  0  0  0
  153.0213  142.8365  164.2755 H   0  0  0  0  0  0  0  0  0  0  0  0
  154.2329  143.8939  163.5381 H   0  0  0  0  0  0  0  0  0  0  0  0
  154.3950  140.8258  161.7212 H   0  0  0  0  0  0  0  0  0  0  0  0
  149.6628  141.2892  158.8271 H   0  0  0  0  0  0  0  0  0  0  0  0
  149.9410  143.0197  158.7228 H   0  0  0  0  0  0  0  0  0  0  0  0
  148.7794  142.1262  156.6677 H   0  0  0  0  0  0  0  0  0  0  0  0
  150.3196  142.8624  156.2661 H   0  0  0  0  0  0  0  0  0  0  0  0
  1  2  1  0  0  0  0
  1 18  1  0  0  0  0
  1 19  1  0  0  0  0
  1 20  1  0  0  0  0
  2  3  1  0  0  0  0
  2 21  1  0  0  0  0
  3  4  2  0  0  0  0
  3  5  1  0  0  0  0
  5 17  1  0  0  0  0
  5  6  1  0  0  0  0
  5 22  1  0  0  0  0
  6  7  1  0  0  0  0
  6 23  1  0  0  0  0
  6 24  1  0  0  0  0
  7  8  1  0  0  0  0
  7 15  1  0  0  0  0
  8 14  1  0  0  0  0
  8  9  2  0  0  0  0
  9 10  1  0  0  0  0
 10 11  2  0  0  0  0
 10 25  1  0  0  0  0
 11 12  1  0  0  0  0
 11 13  1  0  0  0  0
 12 26  1  0  0  0  0
 12 27  1  0  0  0  0
 12 28  1  0  0  0  0
 13 14  2  0  0  0  0
 13 29  1  0  0  0  0
 15 16  1  0  0  0  0
 15 30  1  0  0  0  0
 15 31  1  0  0  0  0
 16 17  1  0  0  0  0
 16 32  1  0  0  0  0
 16 33  1  0  0  0  0
M  END
> <s_m_source_file>
AV-unprocessed.smi

> <i_m_source_file_index>
2490

> <i_lp_mmshare_version>
43012

> <i_f3d_flags>
0

> <s_epik_input>
W0NIM11bTkhdQyg9TylbQ0BASF0xW0NIMl1OKFtDSDJdW0NIMl1PMSljMm5bY0hdYyhbQ0gzXSlbY0hdbjI=

> <s_epik_cmdline>
J2VwaWtfcHl0aG9uJywgJy1waCcsICc3LjAnLCAnLXRuJywgJzgnLCAnLW1hJywgJzIwMCcsICctbWV0YWxfYmluZGluZycsICctaW1hZScsICc8aW5maWxlLm1hZT4nLCAnLW9tYWUnLCAnPG91dGZpbGUubWFlPic=

> <r_lp_tautomer_probability>
1

> <r_epik_Ionization_Penalty>
8.72552e-06

> <r_epik_Ionization_Penalty_Charging>
0

> <r_epik_Ionization_Penalty_Neutral>
8.72552e-06

> <r_epik_State_Penalty>
-0

> <r_epik_Charging_Adjusted_Penalty>
0

> <i_epik_Tot_Q>
0

> <i_epik_Tot_abs_Q>
0

> <r_epik_Metal_State_Penalty>
-0

> <b_epik_Metal_Only>
0

> <s_lp_Force_Field>
OPLS_2005

> <r_lp_Energy>
12.5382

> <b_lp_Chiralities_Consistent>
1

> <s_lp_Variant>
AV-unprocessed.smi:2490-1

> <Gold.Version>
5.8.1

> <Gold.Id.Protein>
6NUR|6NUR_protein|mol2

> <Gold.PLP.Fitness>
37.8966

> <Gold.PLP.PLP>
-35.4297

> <Gold.PLP.part.hbond>
-1.1281

> <Gold.PLP.part.metal>
0.0000

> <Gold.PLP.part.buried>
-5.1132

> <Gold.PLP.part.nonpolar>
-28.5338

> <Gold.PLP.part.repulsive>
0.1907

> <Gold.PLP.ligand.clash>
0.0000

> <Gold.PLP.ligand.torsion>
0.4099

> <Gold.PLP.Chemscore.Hbond>
1.0000

> <Gold.PLP.Chemscore.CHOScore>
0.0000

> <Gold.PLP.Chemscore.Metal>
0.0000

> <Gold.Chemscore.Hbonds>
donor molecule, donor type, donor heavy atom, donor atom, acceptor molecule, acceptor atom, score
      P1  H  7997  8010       L1     4  1.00

> <Gold.PLP.Chemscore.Internal.Correction>
0.2866

> <Gold.Rescore>
     Score         DG    S(hbond)    S(metal)    S(lipo)     H(rot)  DE(clash)    DE(int)     intcor
     11.91     -12.80       0.34        0.00      81.38       1.31       0.53       0.36       ----

> <Gold.Chemscore.Fitness>
11.9095

> <Gold.Chemscore.DG>
-12.7982

> <Gold.Chemscore.ZeroCoef>
-5.4800

> <Gold.Chemscore.Hbond>
0.3437

> <Gold.Chemscore.Metal>
0.0000

> <Gold.Chemscore.Lipo>
81.3769

> <Gold.Chemscore.Internal_Hbond>
0.0000

> <Gold.Chemscore.DEClash>
0.5258

> <Gold.Chemscore.DEInternal>
0.3629

> <Gold.Chemscore.Rot>
1.3089

> <Gold.Chemscore.Internal.Correction>
   9.000000E+99

> <Gold.Chemscore.Hbonds>
donor molecule, donor type, donor heavy atom, donor atom, acceptor molecule, acceptor atom, score
      P1  H  7997  8010       L1     4  0.87

> <Gold.Chemscore.Hbond.Weighted>
-1.1480

> <Gold.Chemscore.Metal.Weighted>
-0.0000

> <Gold.Chemscore.Lipo.Weighted>
-9.5211

> <Gold.Chemscore.Internal_Hbond.Weighted>
0.0000

> <Gold.Chemscore.DEClash.Weighted>
0.5258

> <Gold.Chemscore.DEInternal.Weighted>
0.3629

> <Gold.Chemscore.Rot.Weighted>
3.3509

> <Gold.Chemscore.Internal.Correction.Weighted>
   9.000000E+99

> <Gold.Protein.RotatedTorsions>
[ 6907 6896 6895 6894 ] final  166.32 input  -60.11 | X-H torsion
[ 7974 7965 7964 7962 ] final -114.88 input  175.53 | X-H torsion
[ 8008 7997 7996 7995 ] final   90.68 input   59.86 | X-H torsion
[ 10167 10162 10161 10158 ] final   27.73 input  -65.29 | X-H torsion
[ 10718 10713 10712 10709 ] final -126.88 input   66.30 | X-H torsion
[ 10763 10752 10751 10750 ] final -134.87 input  -60.55 | X-H torsion
[ 11005 11000 10999 10996 ] final   80.82 input  -57.11 | X-H torsion

> <Gold.Protein.ActiveResidues>
 VAL166  LYS551  ARG553  GLY616  TRP617  ASP618  TYR619  PRO620  LYS621  CYS622 
 ASP623  PHE694  ASN695  SER759  ASP760  ASP761  ALA762  ILE779  LEU786  VAL792 
 PHE793  MET794  SER795  GLU796  ALA797  LYS798  CYS799  TRP800  GLU811  SER814 

> <Gold.Protein.RotatedAtoms>
  151.8807  133.3494  159.3764 H   0  0  0  0  0  0  0  0  0  0  0  0  # atno 6907 bound_to 6896
  150.7128  134.5022  159.5576 H   0  0  0  0  0  0  0  0  0  0  0  0  # atno 6908 bound_to 6896
  152.2573  134.8071  160.0487 H   0  0  0  0  0  0  0  0  0  0  0  0  # atno 6909 bound_to 6896
  145.1149  140.8634  143.3848 H   0  0  0  0  0  0  0  0  0  0  0  0  # atno 7974 bound_to 7965
  156.0148  140.3346  155.6978 H   0  0  0  0  0  0  0  0  0  0  0  0  # atno 8008 bound_to 7997
  155.6106  140.0665  157.2725 H   0  0  0  0  0  0  0  0  0  0  0  0  # atno 8009 bound_to 7997
  154.4294  140.1794  156.1256 H   0  0  0  0  0  0  0  0  0  0  0  0  # atno 8010 bound_to 7997
  140.4914  144.0461  150.6298 H   0  0  0  0  0  0  0  0  0  0  0  0  # atno 10167 bound_to 10162
  156.1806  130.6729  151.0299 H   0  0  0  0  0  0  0  0  0  0  0  0  # atno 10718 bound_to 10713
  154.8712  135.3721  154.4806 H   0  0  0  0  0  0  0  0  0  0  0  0  # atno 10763 bound_to 10752
  153.5459  135.7025  153.5619 H   0  0  0  0  0  0  0  0  0  0  0  0  # atno 10764 bound_to 10752
  153.3759  135.4009  155.1787 H   0  0  0  0  0  0  0  0  0  0  0  0  # atno 10765 bound_to 10752
  139.9120  134.7949  156.1959 H   0  0  0  0  0  0  0  0  0  0  0  0  # atno 11005 bound_to 11000
  145.0805  139.2963  143.5786 LP  0  0  0  0  0  0  0  0  0  0  0  0  # atno 17320 bound_to 7965
  146.3524  140.0310  142.8650 LP  0  0  0  0  0  0  0  0  0  0  0  0  # atno 17321 bound_to 7965
  140.3731  143.2843  152.0255 LP  0  0  0  0  0  0  0  0  0  0  0  0  # atno 17342 bound_to 10162
  139.4852  144.6214  151.7248 LP  0  0  0  0  0  0  0  0  0  0  0  0  # atno 17343 bound_to 10162
  157.6865  131.0823  150.7227 LP  0  0  0  0  0  0  0  0  0  0  0  0  # atno 17370 bound_to 10713
  156.7284  130.4702  149.5505 LP  0  0  0  0  0  0  0  0  0  0  0  0  # atno 17371 bound_to 10713
  141.0555  133.6867  156.1852 LP  0  0  0  0  0  0  0  0  0  0  0  0  # atno 17394 bound_to 11000
  140.6744  134.4834  157.5588 LP  0  0  0  0  0  0  0  0  0  0  0  0  # atno 17395 bound_to 11000

$$$$
