AV-unprocessed.smi:2812|AV-procd|sdf|10833|dock2
  -GOLD-   2272015273D 1   1.00000     0.00000
 Structure written by MMmdl.
 55 56  0  0  0  0  0  0  0  0  2 V2000
  151.2738  142.7764  157.8120 C   0  0  0  0  0  0  0  0  0  0  0  0
  152.1505  142.3114  158.9641 C   0  0  0  0  0  0  0  0  0  0  0  0
  152.3462  143.1888  160.0997 C   0  0  0  0  0  0  0  0  0  0  0  0
  153.1277  142.7918  161.1126 C   0  0  0  0  0  0  0  0  0  0  0  0
  153.7543  141.5373  161.1117 N   0  0  0  0  0  0  0  0  0  0  0  0
  154.5806  141.1906  162.2711 C   0  0  0  0  0  0  0  0  0  0  0  0
  153.5943  140.6430  160.0941 C   0  0  0  0  0  0  0  0  0  0  0  0
  154.0995  139.5197  160.1561 O   0  0  0  0  0  0  0  0  0  0  0  0
  152.7731  141.1033  158.9476 C   0  0  0  0  0  0  0  0  0  0  0  0
  152.5646  140.2481  157.8539 N   0  0  0  0  0  0  0  0  0  0  0  0
  151.7341  139.1913  157.8196 C   0  0  0  0  0  0  0  0  0  0  0  0
  151.0166  138.8274  158.7525 O   0  0  0  0  0  0  0  0  0  0  0  0
  151.8012  138.5514  156.6438 N   0  0  0  0  0  0  0  0  0  0  0  0
  151.0332  137.3582  156.3039 C   0  0  0  0  0  0  0  0  0  0  0  0
  150.6569  137.2970  154.7976 C   0  0  2  0  0  0  0  0  0  0  0  0
  150.7104  138.6725  154.0909 C   0  0  0  0  0  0  0  0  0  0  0  0
  149.5434  139.5794  154.5007 C   0  0  0  0  0  0  0  0  0  0  0  0
  148.2158  138.8603  154.2405 C   0  0  0  0  0  0  0  0  0  0  0  0
  148.1792  137.4932  154.9419 C   0  0  0  0  0  0  0  0  0  0  0  0
  149.3338  136.6425  154.5445 N   0  3  2  0  0  0  0  0  0  0  0  0
  149.1881  135.2456  155.0438 C   0  0  0  0  0  0  0  0  0  0  0  0
  150.1596  134.2255  154.4071 C   0  0  0  0  0  0  0  0  0  0  0  0
  149.4357  133.2353  153.4793 C   0  0  0  0  0  0  0  0  0  0  0  0
  150.9307  133.4690  155.4987 C   0  0  0  0  0  0  0  0  0  0  0  0
  150.8809  143.7771  157.9939 H   0  0  0  0  0  0  0  0  0  0  0  0
  150.4265  142.1031  157.6787 H   0  0  0  0  0  0  0  0  0  0  0  0
  151.8448  142.8044  156.8832 H   0  0  0  0  0  0  0  0  0  0  0  0
  151.8740  144.1596  160.1323 H   0  0  0  0  0  0  0  0  0  0  0  0
  153.3126  143.4030  161.9838 H   0  0  0  0  0  0  0  0  0  0  0  0
  155.5928  140.9310  161.9567 H   0  0  0  0  0  0  0  0  0  0  0  0
  154.1588  140.3345  162.7997 H   0  0  0  0  0  0  0  0  0  0  0  0
  154.6658  142.0083  162.9877 H   0  0  0  0  0  0  0  0  0  0  0  0
  153.1904  140.3747  157.0720 H   0  0  0  0  0  0  0  0  0  0  0  0
  152.4206  138.9161  155.9348 H   0  0  0  0  0  0  0  0  0  0  0  0
  151.6185  136.4874  156.5997 H   0  0  0  0  0  0  0  0  0  0  0  0
  150.1413  137.3515  156.9292 H   0  0  0  0  0  0  0  0  0  0  0  0
  151.4106  136.6932  154.2949 H   0  0  0  0  0  0  0  0  0  0  0  0
  151.6590  139.1757  154.2789 H   0  0  0  0  0  0  0  0  0  0  0  0
  150.6711  138.5169  153.0118 H   0  0  0  0  0  0  0  0  0  0  0  0
  149.6247  139.8476  155.5545 H   0  0  0  0  0  0  0  0  0  0  0  0
  149.5795  140.5135  153.9392 H   0  0  0  0  0  0  0  0  0  0  0  0
  147.3843  139.4773  154.5820 H   0  0  0  0  0  0  0  0  0  0  0  0
  148.0785  138.7242  153.1669 H   0  0  0  0  0  0  0  0  0  0  0  0
  148.1652  137.6222  156.0248 H   0  0  0  0  0  0  0  0  0  0  0  0
  147.2478  136.9900  154.6791 H   0  0  0  0  0  0  0  0  0  0  0  0
  149.2857  135.2332  156.1296 H   0  0  0  0  0  0  0  0  0  0  0  0
  148.1684  134.9160  154.8389 H   0  0  0  0  0  0  0  0  0  0  0  0
  150.9095  134.7576  153.8221 H   0  0  0  0  0  0  0  0  0  0  0  0
  148.6748  132.6705  154.0186 H   0  0  0  0  0  0  0  0  0  0  0  0
  150.1366  132.5192  153.0493 H   0  0  0  0  0  0  0  0  0  0  0  0
  148.9472  133.7461  152.6494 H   0  0  0  0  0  0  0  0  0  0  0  0
  150.2582  132.8913  156.1339 H   0  0  0  0  0  0  0  0  0  0  0  0
  151.4842  134.1570  156.1383 H   0  0  0  0  0  0  0  0  0  0  0  0
  151.6518  132.7768  155.0626 H   0  0  0  0  0  0  0  0  0  0  0  0
  149.2695  136.5670  153.5394 H   0  0  0  0  0  0  0  0  0  0  0  0
  1  2  1  0  0  0  0
  1 25  1  0  0  0  0
  1 26  1  0  0  0  0
  1 27  1  0  0  0  0
  2  9  2  0  0  0  0
  2  3  1  0  0  0  0
  3  4  2  0  0  0  0
  3 28  1  0  0  0  0
  4  5  1  0  0  0  0
  4 29  1  0  0  0  0
  5  6  1  0  0  0  0
  5  7  1  0  0  0  0
  6 30  1  0  0  0  0
  6 31  1  0  0  0  0
  6 32  1  0  0  0  0
  7  8  2  0  0  0  0
  7  9  1  0  0  0  0
  9 10  1  0  0  0  0
 10 11  1  0  0  0  0
 10 33  1  0  0  0  0
 11 12  2  0  0  0  0
 11 13  1  0  0  0  0
 13 14  1  0  0  0  0
 13 34  1  0  0  0  0
 14 15  1  0  0  0  0
 14 35  1  0  0  0  0
 14 36  1  0  0  0  0
 15 20  1  0  0  0  0
 15 16  1  0  0  0  0
 15 37  1  0  0  0  0
 16 17  1  0  0  0  0
 16 38  1  0  0  0  0
 16 39  1  0  0  0  0
 17 18  1  0  0  0  0
 17 40  1  0  0  0  0
 17 41  1  0  0  0  0
 18 19  1  0  0  0  0
 18 42  1  0  0  0  0
 18 43  1  0  0  0  0
 19 20  1  0  0  0  0
 19 44  1  0  0  0  0
 19 45  1  0  0  0  0
 20 21  1  0  0  0  0
 20 55  1  0  0  0  0
 21 22  1  0  0  0  0
 21 46  1  0  0  0  0
 21 47  1  0  0  0  0
 22 23  1  0  0  0  0
 22 24  1  0  0  0  0
 22 48  1  0  0  0  0
 23 49  1  0  0  0  0
 23 50  1  0  0  0  0
 23 51  1  0  0  0  0
 24 52  1  0  0  0  0
 24 53  1  0  0  0  0
 24 54  1  0  0  0  0
M  CHG  1  20   1
M  END
> <s_m_source_file>
AV-unprocessed.smi

> <i_m_source_file_index>
2812

> <i_lp_mmshare_version>
43012

> <i_f3d_flags>
0

> <s_epik_input>
W0NIM11jMVtjSF1bY0hdbihbQ0gzXSljKD1PKWMxW05IXUMoPU8pW05IXVtDSDJdW0NAQEhdMltDSDJdW0NIMl1bQ0gyXVtDSDJdTjJbQ0gyXVtDSF0oW0NIM10pW0NIM10=

> <s_epik_cmdline>
J2VwaWtfcHl0aG9uJywgJy1waCcsICc3LjAnLCAnLXRuJywgJzgnLCAnLW1hJywgJzIwMCcsICctbWV0YWxfYmluZGluZycsICctaW1hZScsICc8aW5maWxlLm1hZT4nLCAnLW9tYWUnLCAnPG91dGZpbGUubWFlPic=

> <r_lp_tautomer_probability>
1

> <r_epik_Ionization_Penalty>
0.0010902

> <r_epik_Ionization_Penalty_Charging>
0.00107091

> <r_epik_Ionization_Penalty_Neutral>
1.92854e-05

> <r_epik_State_Penalty>
0.000697184

> <r_epik_Charging_Adjusted_Penalty>
0.0017681

> <i_epik_Tot_Q>
1

> <i_epik_Tot_abs_Q>
1

> <r_epik_Metal_State_Penalty>
-0

> <b_epik_Metal_Only>
0

> <s_lp_Force_Field>
OPLS_2005

> <r_lp_Energy>
39.0226

> <b_lp_Chiralities_Consistent>
1

> <s_lp_Variant>
AV-unprocessed.smi:2812-1

> <Gold.Version>
5.8.1

> <Gold.Id.Protein>
6NUR|6NUR_protein|mol2

> <Gold.PLP.Fitness>
46.7055

> <Gold.PLP.PLP>
-44.3476

> <Gold.PLP.part.hbond>
-1.0000

> <Gold.PLP.part.metal>
0.0000

> <Gold.PLP.part.buried>
-4.8394

> <Gold.PLP.part.nonpolar>
-38.5358

> <Gold.PLP.part.repulsive>
0.1651

> <Gold.PLP.ligand.clash>
0.0000

> <Gold.PLP.ligand.torsion>
2.1557

> <Gold.PLP.Chemscore.Hbond>
2.0000

> <Gold.PLP.Chemscore.CHOScore>
0.0000

> <Gold.PLP.Chemscore.Metal>
0.0000

> <Gold.Chemscore.Hbonds>
donor molecule, donor type, donor heavy atom, donor atom, acceptor molecule, acceptor atom, score
      L1  H    20    55       P1  7948  2.00

> <Gold.PLP.Chemscore.Internal.Correction>
0.6694

> <Gold.Rescore>
     Score         DG    S(hbond)    S(metal)    S(lipo)     H(rot)  DE(clash)    DE(int)     intcor
     16.24     -18.08       1.00        0.00     112.34       1.52       0.06       1.78       ----

> <Gold.Chemscore.Fitness>
16.2378

> <Gold.Chemscore.DG>
-18.0752

> <Gold.Chemscore.ZeroCoef>
-5.4800

> <Gold.Chemscore.Hbond>
0.9975

> <Gold.Chemscore.Metal>
0.0000

> <Gold.Chemscore.Lipo>
112.3392

> <Gold.Chemscore.Internal_Hbond>
0.0000

> <Gold.Chemscore.DEClash>
0.0604

> <Gold.Chemscore.DEInternal>
1.7770

> <Gold.Chemscore.Rot>
1.5157

> <Gold.Chemscore.Internal.Correction>
   9.000000E+99

> <Gold.Chemscore.Hbonds>
donor molecule, donor type, donor heavy atom, donor atom, acceptor molecule, acceptor atom, score
      L1  H    20    55       P1  7948  0.94

> <Gold.Chemscore.Hbond.Weighted>
-3.3318

> <Gold.Chemscore.Metal.Weighted>
-0.0000

> <Gold.Chemscore.Lipo.Weighted>
-13.1437

> <Gold.Chemscore.Internal_Hbond.Weighted>
0.0000

> <Gold.Chemscore.DEClash.Weighted>
0.0604

> <Gold.Chemscore.DEInternal.Weighted>
1.7770

> <Gold.Chemscore.Rot.Weighted>
3.8803

> <Gold.Chemscore.Internal.Correction.Weighted>
   9.000000E+99

> <Gold.Protein.RotatedTorsions>
[ 6907 6896 6895 6894 ] final   73.37 input  -60.11 | X-H torsion
[ 7974 7965 7964 7962 ] final   59.00 input  175.53 | X-H torsion
[ 8008 7997 7996 7995 ] final  -17.68 input   59.86 | X-H torsion
[ 10167 10162 10161 10158 ] final  -73.99 input  -65.29 | X-H torsion
[ 10718 10713 10712 10709 ] final  144.89 input   66.30 | X-H torsion
[ 10763 10752 10751 10750 ] final   46.22 input  -60.55 | X-H torsion
[ 11005 11000 10999 10996 ] final  -89.34 input  -57.11 | X-H torsion

> <Gold.Protein.ActiveResidues>
 VAL166  LYS551  ARG553  GLY616  TRP617  ASP618  TYR619  PRO620  LYS621  CYS622 
 ASP623  PHE694  ASN695  SER759  ASP760  ASP761  ALA762  ILE779  LEU786  VAL792 
 PHE793  MET794  SER795  GLU796  ALA797  LYS798  CYS799  TRP800  GLU811  SER814 

> <Gold.Protein.RotatedAtoms>
  152.4919  134.4431  159.9549 H   0  0  0  0  0  0  0  0  0  0  0  0  # atno 6907 bound_to 6896
  151.4417  133.3635  159.2790 H   0  0  0  0  0  0  0  0  0  0  0  0  # atno 6908 bound_to 6896
  150.9083  134.8522  159.7468 H   0  0  0  0  0  0  0  0  0  0  0  0  # atno 6909 bound_to 6896
  145.9119  139.3661  143.0530 H   0  0  0  0  0  0  0  0  0  0  0  0  # atno 7974 bound_to 7965
  154.4960  140.2136  155.9446 H   0  0  0  0  0  0  0  0  0  0  0  0  # atno 8008 bound_to 7997
  156.1371  140.3186  155.8405 H   0  0  0  0  0  0  0  0  0  0  0  0  # atno 8009 bound_to 7997
  155.4190  140.0495  157.3017 H   0  0  0  0  0  0  0  0  0  0  0  0  # atno 8010 bound_to 7997
  140.5064  143.2352  151.7667 H   0  0  0  0  0  0  0  0  0  0  0  0  # atno 10167 bound_to 10162
  157.3518  131.0952  151.0994 H   0  0  0  0  0  0  0  0  0  0  0  0  # atno 10718 bound_to 10713
  152.9813  135.6015  154.3564 H   0  0  0  0  0  0  0  0  0  0  0  0  # atno 10763 bound_to 10752
  154.3249  135.2769  155.2503 H   0  0  0  0  0  0  0  0  0  0  0  0  # atno 10764 bound_to 10752
  154.4652  135.5955  153.6339 H   0  0  0  0  0  0  0  0  0  0  0  0  # atno 10765 bound_to 10752
  141.1586  133.7624  156.9580 H   0  0  0  0  0  0  0  0  0  0  0  0  # atno 11005 bound_to 11000
  145.8660  140.9448  143.0675 LP  0  0  0  0  0  0  0  0  0  0  0  0  # atno 17320 bound_to 7965
  144.6744  140.0592  143.7476 LP  0  0  0  0  0  0  0  0  0  0  0  0  # atno 17321 bound_to 7965
  139.4885  144.4451  151.9719 LP  0  0  0  0  0  0  0  0  0  0  0  0  # atno 17342 bound_to 10162
  140.3542  144.3052  150.5944 LP  0  0  0  0  0  0  0  0  0  0  0  0  # atno 17343 bound_to 10162
  157.2167  130.6462  149.5795 LP  0  0  0  0  0  0  0  0  0  0  0  0  # atno 17370 bound_to 10713
  155.9722  130.4642  150.6211 LP  0  0  0  0  0  0  0  0  0  0  0  0  # atno 17371 bound_to 10713
  140.1212  134.9416  157.2206 LP  0  0  0  0  0  0  0  0  0  0  0  0  # atno 17394 bound_to 11000
  140.3070  134.3067  155.7276 LP  0  0  0  0  0  0  0  0  0  0  0  0  # atno 17395 bound_to 11000

$$$$
