AV-unprocessed.smi:1793|AV-procd|sdf|7224|dock6
  -GOLD-   22720 8463D 1   1.00000     0.00000
 Structure written by MMmdl.
 46 48  0  0  0  0  0  0  0  0  1 V2000
  151.5512  138.5986  155.0952 C   0  0  0  0  0  0  0  0  0  0  0  0
  150.1003  138.2991  155.5147 C   0  0  2  0  0  0  0  0  0  0  0  0
  149.5843  137.1732  154.7405 N   0  0  0  0  0  0  0  0  0  0  0  0
  149.3608  135.9400  155.2153 C   0  0  0  0  0  0  0  0  0  0  0  0
  149.5830  135.6067  156.3794 O   0  0  0  0  0  0  0  0  0  0  0  0
  148.8876  135.1308  154.2535 N   0  0  0  0  0  0  0  0  0  0  0  0
  148.6271  133.7337  154.3314 C   0  0  0  0  0  0  0  0  0  0  0  0
  149.0694  132.9586  155.4312 C   0  0  0  0  0  0  0  0  0  0  0  0
  148.7306  131.5960  155.4956 C   0  0  0  0  0  0  0  0  0  0  0  0
  147.9443  131.0577  154.4638 C   0  0  0  0  0  0  0  0  0  0  0  0
  147.5029  131.7847  153.4182 N   0  0  0  0  0  0  0  0  0  0  0  0
  147.8339  133.0970  153.3336 C   0  0  0  0  0  0  0  0  0  0  0  0
  147.3555  133.8037  152.2062 N   0  0  0  0  0  0  0  0  0  0  0  0
  146.3653  134.8638  152.3617 C   0  0  0  0  0  0  0  0  0  0  0  0
  145.8293  135.1122  150.9547 C   0  0  0  0  0  0  0  0  0  0  0  0
  145.8376  133.7102  150.3530 C   0  0  0  0  0  0  0  0  0  0  0  0
  147.0644  133.0490  150.9906 C   0  0  0  0  0  0  0  0  0  0  0  0
  149.1738  139.5140  155.3134 C   0  0  2  0  0  0  0  0  0  0  0  0
  149.0690  140.0064  153.8696 C   0  0  0  0  0  0  0  0  0  0  0  0
  148.6155  141.4347  154.0666 C   0  0  0  0  0  0  0  0  0  0  0  0
  149.3928  141.8471  155.3138 C   0  0  0  0  0  0  0  0  0  0  0  0
  149.6674  140.6445  156.0289 O   0  0  0  0  0  0  0  0  0  0  0  0
  151.9770  139.4085  155.6872 H   0  0  0  0  0  0  0  0  0  0  0  0
  151.6084  138.8878  154.0453 H   0  0  0  0  0  0  0  0  0  0  0  0
  152.1930  137.7283  155.2352 H   0  0  0  0  0  0  0  0  0  0  0  0
  150.0894  138.0324  156.5733 H   0  0  0  0  0  0  0  0  0  0  0  0
  149.3685  137.3544  153.7712 H   0  0  0  0  0  0  0  0  0  0  0  0
  148.8328  135.5284  153.3272 H   0  0  0  0  0  0  0  0  0  0  0  0
  149.6426  133.3913  156.2368 H   0  0  0  0  0  0  0  0  0  0  0  0
  149.0548  130.9823  156.3230 H   0  0  0  0  0  0  0  0  0  0  0  0
  147.6564  130.0169  154.4806 H   0  0  0  0  0  0  0  0  0  0  0  0
  145.5489  134.5385  153.0078 H   0  0  0  0  0  0  0  0  0  0  0  0
  146.8082  135.7622  152.7924 H   0  0  0  0  0  0  0  0  0  0  0  0
  144.8423  135.5753  150.9509 H   0  0  0  0  0  0  0  0  0  0  0  0
  146.5123  135.7595  150.4027 H   0  0  0  0  0  0  0  0  0  0  0  0
  144.9348  133.1777  150.6559 H   0  0  0  0  0  0  0  0  0  0  0  0
  145.8766  133.7128  149.2634 H   0  0  0  0  0  0  0  0  0  0  0  0
  147.9176  133.1254  150.3163 H   0  0  0  0  0  0  0  0  0  0  0  0
  146.8871  131.9918  151.1943 H   0  0  0  0  0  0  0  0  0  0  0  0
  148.1729  139.2931  155.6890 H   0  0  0  0  0  0  0  0  0  0  0  0
  150.0459  139.9877  153.3835 H   0  0  0  0  0  0  0  0  0  0  0  0
  148.3738  139.4207  153.2673 H   0  0  0  0  0  0  0  0  0  0  0  0
  148.8185  142.0734  153.2065 H   0  0  0  0  0  0  0  0  0  0  0  0
  147.5435  141.4604  154.2668 H   0  0  0  0  0  0  0  0  0  0  0  0
  150.3413  142.3105  155.0398 H   0  0  0  0  0  0  0  0  0  0  0  0
  148.8361  142.5549  155.9283 H   0  0  0  0  0  0  0  0  0  0  0  0
  1  2  1  0  0  0  0
  1 23  1  0  0  0  0
  1 24  1  0  0  0  0
  1 25  1  0  0  0  0
  2  3  1  0  0  0  0
  2 18  1  0  0  0  0
  2 26  1  0  0  0  0
  3  4  1  0  0  0  0
  3 27  1  0  0  0  0
  4  5  2  0  0  0  0
  4  6  1  0  0  0  0
  6  7  1  0  0  0  0
  6 28  1  0  0  0  0
  7 12  1  0  0  0  0
  7  8  2  0  0  0  0
  8  9  1  0  0  0  0
  8 29  1  0  0  0  0
  9 10  2  0  0  0  0
  9 30  1  0  0  0  0
 10 11  1  0  0  0  0
 10 31  1  0  0  0  0
 11 12  2  0  0  0  0
 12 13  1  0  0  0  0
 13 17  1  0  0  0  0
 13 14  1  0  0  0  0
 14 15  1  0  0  0  0
 14 32  1  0  0  0  0
 14 33  1  0  0  0  0
 15 16  1  0  0  0  0
 15 34  1  0  0  0  0
 15 35  1  0  0  0  0
 16 17  1  0  0  0  0
 16 36  1  0  0  0  0
 16 37  1  0  0  0  0
 17 38  1  0  0  0  0
 17 39  1  0  0  0  0
 18 22  1  0  0  0  0
 18 19  1  0  0  0  0
 18 40  1  0  0  0  0
 19 20  1  0  0  0  0
 19 41  1  0  0  0  0
 19 42  1  0  0  0  0
 20 21  1  0  0  0  0
 20 43  1  0  0  0  0
 20 44  1  0  0  0  0
 21 22  1  0  0  0  0
 21 45  1  0  0  0  0
 21 46  1  0  0  0  0
M  END
> <s_m_source_file>
AV-unprocessed.smi

> <i_m_source_file_index>
1793

> <i_lp_mmshare_version>
43012

> <i_f3d_flags>
0

> <s_epik_input>
TzFbQ0gyXVtDSDJdW0NIMl1bQ0BIXTFbQ0BIXShbQ0gzXSlbTkhdQyg9TylbTkhdYzJbY0hdW2NIXVtjSF1uYzJOM1tDSDJdW0NIMl1bQ0gyXVtDSDJdMw==

> <s_epik_cmdline>
J2VwaWtfcHl0aG9uJywgJy1waCcsICc3LjAnLCAnLXRuJywgJzgnLCAnLW1hJywgJzIwMCcsICctbWV0YWxfYmluZGluZycsICctaW1hZScsICc8aW5maWxlLm1hZT4nLCAnLW9tYWUnLCAnPG91dGZpbGUubWFlPic=

> <r_lp_tautomer_probability>
1

> <r_epik_Ionization_Penalty>
0.0992086

> <r_epik_Ionization_Penalty_Charging>
0

> <r_epik_Ionization_Penalty_Neutral>
0.0992086

> <r_epik_State_Penalty>
0.0887141

> <r_epik_Charging_Adjusted_Penalty>
0.0887141

> <i_epik_Tot_Q>
0

> <i_epik_Tot_abs_Q>
0

> <r_epik_Metal_State_Penalty>
0.075945

> <b_epik_Metal_Only>
0

> <s_lp_Force_Field>
OPLS_2005

> <r_lp_Energy>
46.4352

> <b_lp_Chiralities_Consistent>
1

> <s_lp_Variant>
AV-unprocessed.smi:1793-1

> <Gold.Version>
5.8.1

> <Gold.Id.Protein>
6NUR|6NUR_protein|mol2

> <Gold.PLP.Fitness>
42.2029

> <Gold.PLP.PLP>
-37.4972

> <Gold.PLP.part.hbond>
-2.8007

> <Gold.PLP.part.metal>
0.0000

> <Gold.PLP.part.buried>
-1.9444

> <Gold.PLP.part.nonpolar>
-33.7143

> <Gold.PLP.part.repulsive>
0.5099

> <Gold.PLP.ligand.clash>
0.0000

> <Gold.PLP.ligand.torsion>
0.5478

> <Gold.PLP.Chemscore.Hbond>
1.8160

> <Gold.PLP.Chemscore.CHOScore>
0.0000

> <Gold.PLP.Chemscore.Metal>
0.0000

> <Gold.Chemscore.Hbonds>
donor molecule, donor type, donor heavy atom, donor atom, acceptor molecule, acceptor atom, score
      L1  H     3    27       P1  7948  0.40
      L1  H     6    28       P1  7948  1.00

> <Gold.PLP.Chemscore.Internal.Correction>
0.3533

> <Gold.Rescore>
     Score         DG    S(hbond)    S(metal)    S(lipo)     H(rot)  DE(clash)    DE(int)     intcor
     13.64     -16.41       1.49        0.00      80.68       1.36       0.39       2.38       ----

> <Gold.Chemscore.Fitness>
13.6449

> <Gold.Chemscore.DG>
-16.4146

> <Gold.Chemscore.ZeroCoef>
-5.4800

> <Gold.Chemscore.Hbond>
1.4885

> <Gold.Chemscore.Metal>
0.0000

> <Gold.Chemscore.Lipo>
80.6828

> <Gold.Chemscore.Internal_Hbond>
0.0000

> <Gold.Chemscore.DEClash>
0.3888

> <Gold.Chemscore.DEInternal>
2.3809

> <Gold.Chemscore.Rot>
1.3582

> <Gold.Chemscore.Internal.Correction>
   9.000000E+99

> <Gold.Chemscore.Hbonds>
donor molecule, donor type, donor heavy atom, donor atom, acceptor molecule, acceptor atom, score
      L1  H     3    27       P1  7948  0.39
      L1  H     6    28       P1  7948  0.84

> <Gold.Chemscore.Hbond.Weighted>
-4.9717

> <Gold.Chemscore.Metal.Weighted>
-0.0000

> <Gold.Chemscore.Lipo.Weighted>
-9.4399

> <Gold.Chemscore.Internal_Hbond.Weighted>
0.0000

> <Gold.Chemscore.DEClash.Weighted>
0.3888

> <Gold.Chemscore.DEInternal.Weighted>
2.3809

> <Gold.Chemscore.Rot.Weighted>
3.4771

> <Gold.Chemscore.Internal.Correction.Weighted>
   9.000000E+99

> <Gold.Protein.RotatedTorsions>
[ 6907 6896 6895 6894 ] final   41.73 input  -60.11 | X-H torsion
[ 7974 7965 7964 7962 ] final   46.72 input  175.53 | X-H torsion
[ 8008 7997 7996 7995 ] final   33.50 input   59.86 | X-H torsion
[ 10167 10162 10161 10158 ] final   97.73 input  -65.29 | X-H torsion
[ 10718 10713 10712 10709 ] final   86.44 input   66.30 | X-H torsion
[ 10763 10752 10751 10750 ] final  -51.13 input  -60.55 | X-H torsion
[ 11005 11000 10999 10996 ] final  -67.90 input  -57.11 | X-H torsion

> <Gold.Protein.ActiveResidues>
 VAL166  LYS551  ARG553  GLY616  TRP617  ASP618  TYR619  PRO620  LYS621  CYS622 
 ASP623  PHE694  ASN695  SER759  ASP760  ASP761  ALA762  ILE779  LEU786  VAL792 
 PHE793  MET794  SER795  GLU796  ALA797  LYS798  CYS799  TRP800  GLU811  SER814 

> <Gold.Protein.RotatedAtoms>
  152.1989  134.8606  160.0509 H   0  0  0  0  0  0  0  0  0  0  0  0  # atno 6907 bound_to 6896
  151.9466  133.3648  159.3993 H   0  0  0  0  0  0  0  0  0  0  0  0  # atno 6908 bound_to 6896
  150.6950  134.4307  159.5291 H   0  0  0  0  0  0  0  0  0  0  0  0  # atno 6909 bound_to 6896
  146.0364  139.4826  142.9805 H   0  0  0  0  0  0  0  0  0  0  0  0  # atno 7974 bound_to 7965
  155.1397  140.3265  155.4455 H   0  0  0  0  0  0  0  0  0  0  0  0  # atno 8008 bound_to 7997
  156.2609  140.1996  156.6462 H   0  0  0  0  0  0  0  0  0  0  0  0  # atno 8009 bound_to 7997
  154.6552  140.0554  156.9987 H   0  0  0  0  0  0  0  0  0  0  0  0  # atno 8010 bound_to 7997
  139.7774  144.6901  151.0070 H   0  0  0  0  0  0  0  0  0  0  0  0  # atno 10167 bound_to 10162
  157.6928  131.0215  150.2972 H   0  0  0  0  0  0  0  0  0  0  0  0  # atno 10718 bound_to 10713
  154.1215  135.6534  153.4904 H   0  0  0  0  0  0  0  0  0  0  0  0  # atno 10763 bound_to 10752
  153.0224  135.5271  154.7092 H   0  0  0  0  0  0  0  0  0  0  0  0  # atno 10764 bound_to 10752
  154.6301  135.2975  155.0197 H   0  0  0  0  0  0  0  0  0  0  0  0  # atno 10765 bound_to 10752
  141.1519  133.6729  156.6364 H   0  0  0  0  0  0  0  0  0  0  0  0  # atno 11005 bound_to 11000
  145.6957  141.0151  143.1531 LP  0  0  0  0  0  0  0  0  0  0  0  0  # atno 17320 bound_to 7965
  144.7054  139.8585  143.7431 LP  0  0  0  0  0  0  0  0  0  0  0  0  # atno 17321 bound_to 7965
  140.7817  143.4520  151.0399 LP  0  0  0  0  0  0  0  0  0  0  0  0  # atno 17342 bound_to 10162
  139.8202  143.7830  152.3176 LP  0  0  0  0  0  0  0  0  0  0  0  0  # atno 17343 bound_to 10162
  156.3494  130.3828  149.7342 LP  0  0  0  0  0  0  0  0  0  0  0  0  # atno 17370 bound_to 10713
  156.4824  130.8047  151.3061 LP  0  0  0  0  0  0  0  0  0  0  0  0  # atno 17371 bound_to 10713
  140.3427  134.7835  157.4409 LP  0  0  0  0  0  0  0  0  0  0  0  0  # atno 17394 bound_to 11000
  140.0925  134.5582  155.8430 LP  0  0  0  0  0  0  0  0  0  0  0  0  # atno 17395 bound_to 11000

$$$$
