AV-unprocessed.smi:36|AV-procd|sdf|292|dock4
  -GOLD-   2262016 83D 1   1.00000     0.00000
 Structure written by MMmdl.
 64 67  0  0  0  0  0  0  0  0  1 V2000
  147.5223  132.9636  161.0953 C   0  0  0  0  0  0  0  0  0  0  0  0
  146.6179  134.1390  161.5010 C   0  0  0  0  0  0  0  0  0  0  0  0
  145.5356  133.6510  162.4779 C   0  0  0  0  0  0  0  0  0  0  0  0
  147.4594  135.2401  162.1673 C   0  0  0  0  0  0  0  0  0  0  0  0
  145.7745  134.8597  159.9455 Si  0  0  0  0  0  0  0  0  0  0  0  0
  144.5650  133.6055  159.1854 C   0  0  0  0  0  0  0  0  0  0  0  0
  144.8588  136.4763  160.3423 C   0  0  0  0  0  0  0  0  0  0  0  0
  146.9797  135.2047  158.8096 O   0  0  0  0  0  0  0  0  0  0  0  0
  146.8732  136.2365  157.8513 C   0  0  0  0  0  0  0  0  0  0  0  0
  147.5546  135.7891  156.5520 C   0  0  1  0  0  0  0  0  0  0  0  0
  147.7782  136.9013  155.6786 O   0  0  0  0  0  0  0  0  0  0  0  0
  149.0825  136.8859  155.1729 C   0  0  1  0  0  0  0  0  0  0  0  0
  149.8856  137.9250  155.8997 N   0  0  0  0  0  0  0  0  0  0  0  0
  150.9090  137.7356  156.7565 C   0  0  0  0  0  0  0  0  0  0  0  0
  151.4320  138.8414  157.2786 N   0  0  0  0  0  0  0  0  0  0  0  0
  150.6497  139.8421  156.7143 C   0  0  0  0  0  0  0  0  0  0  0  0
  150.6981  141.3089  156.8947 C   0  0  0  0  0  0  0  0  0  0  0  0
  151.6098  141.7878  157.6856 N   0  0  0  0  0  0  0  0  0  0  0  0
  151.7003  143.1572  157.8980 C   0  0  0  0  0  0  0  0  0  0  0  0
  151.6225  144.0745  157.0761 O   0  0  0  0  0  0  0  0  0  0  0  0
  151.9657  143.5153  159.3240 C   0  0  0  0  0  0  0  0  0  0  0  0
  152.5406  142.5676  160.1974 C   0  0  0  0  0  0  0  0  0  0  0  0
  152.7988  142.9094  161.5393 C   0  0  0  0  0  0  0  0  0  0  0  0
  152.4849  144.1986  162.0112 C   0  0  0  0  0  0  0  0  0  0  0  0
  151.9134  145.1474  161.1409 C   0  0  0  0  0  0  0  0  0  0  0  0
  151.6548  144.8072  159.7987 C   0  0  0  0  0  0  0  0  0  0  0  0
  149.6897  141.9153  156.1345 N   0  0  0  0  0  0  0  0  0  0  0  0
  148.7610  141.2497  155.3195 C   0  0  0  0  0  0  0  0  0  0  0  0
  148.7067  139.9552  155.1519 N   0  0  0  0  0  0  0  0  0  0  0  0
  149.6919  139.3043  155.8818 C   0  0  0  0  0  0  0  0  0  0  0  0
  149.6296  135.4883  155.4646 C   0  0  0  0  0  0  0  0  0  0  0  0
  148.9359  135.1628  156.7700 C   0  0  2  0  0  0  0  0  0  0  0  0
  148.8704  133.7667  156.9729 O   0  0  0  0  0  0  0  0  0  0  0  0
  148.0176  132.5276  161.9638 H   0  0  0  0  0  0  0  0  0  0  0  0
  148.2997  133.2815  160.4003 H   0  0  0  0  0  0  0  0  0  0  0  0
  146.9511  132.1710  160.6113 H   0  0  0  0  0  0  0  0  0  0  0  0
  144.9249  132.8646  162.0340 H   0  0  0  0  0  0  0  0  0  0  0  0
  144.8676  134.4628  162.7668 H   0  0  0  0  0  0  0  0  0  0  0  0
  145.9771  133.2474  163.3896 H   0  0  0  0  0  0  0  0  0  0  0  0
  147.9424  134.8760  163.0748 H   0  0  0  0  0  0  0  0  0  0  0  0
  146.8434  136.0969  162.4423 H   0  0  0  0  0  0  0  0  0  0  0  0
  148.2430  135.6000  161.5002 H   0  0  0  0  0  0  0  0  0  0  0  0
  143.8088  133.2914  159.9041 H   0  0  0  0  0  0  0  0  0  0  0  0
  145.0807  132.7087  158.8425 H   0  0  0  0  0  0  0  0  0  0  0  0
  144.0380  134.0250  158.3289 H   0  0  0  0  0  0  0  0  0  0  0  0
  144.0683  136.3200  161.0757 H   0  0  0  0  0  0  0  0  0  0  0  0
  144.3958  136.9003  159.4515 H   0  0  0  0  0  0  0  0  0  0  0  0
  145.5335  137.2311  160.7457 H   0  0  0  0  0  0  0  0  0  0  0  0
  145.8316  136.5046  157.6787 H   0  0  0  0  0  0  0  0  0  0  0  0
  147.3684  137.1229  158.2486 H   0  0  0  0  0  0  0  0  0  0  0  0
  146.9141  135.0848  156.0180 H   0  0  0  0  0  0  0  0  0  0  0  0
  149.1300  137.1846  154.1251 H   0  0  0  0  0  0  0  0  0  0  0  0
  151.2821  136.7579  157.0168 H   0  0  0  0  0  0  0  0  0  0  0  0
  152.7867  141.5773  159.8420 H   0  0  0  0  0  0  0  0  0  0  0  0
  153.2391  142.1828  162.2061 H   0  0  0  0  0  0  0  0  0  0  0  0
  152.6843  144.4605  163.0399 H   0  0  0  0  0  0  0  0  0  0  0  0
  151.6746  146.1366  161.5027 H   0  0  0  0  0  0  0  0  0  0  0  0
  151.2179  145.5407  159.1364 H   0  0  0  0  0  0  0  0  0  0  0  0
  148.0580  141.9139  154.8146 H   0  0  0  0  0  0  0  0  0  0  0  0
  149.3028  134.8203  154.6662 H   0  0  0  0  0  0  0  0  0  0  0  0
  150.7175  135.4616  155.5232 H   0  0  0  0  0  0  0  0  0  0  0  0
  149.4568  135.6393  157.6020 H   0  0  0  0  0  0  0  0  0  0  0  0
  148.6340  133.6054  157.8736 H   0  0  0  0  0  0  0  0  0  0  0  0
  149.6243  142.9221  156.1803 H   0  0  0  0  0  0  0  0  0  0  0  0
  1  2  1  0  0  0  0
  1 34  1  0  0  0  0
  1 35  1  0  0  0  0
  1 36  1  0  0  0  0
  2  3  1  0  0  0  0
  2  4  1  0  0  0  0
  2  5  1  0  0  0  0
  3 37  1  0  0  0  0
  3 38  1  0  0  0  0
  3 39  1  0  0  0  0
  4 40  1  0  0  0  0
  4 41  1  0  0  0  0
  4 42  1  0  0  0  0
  5  6  1  0  0  0  0
  5  7  1  0  0  0  0
  5  8  1  0  0  0  0
  6 43  1  0  0  0  0
  6 44  1  0  0  0  0
  6 45  1  0  0  0  0
  7 46  1  0  0  0  0
  7 47  1  0  0  0  0
  7 48  1  0  0  0  0
  8  9  1  0  0  0  0
  9 10  1  0  0  0  0
  9 49  1  0  0  0  0
  9 50  1  0  0  0  0
 10 32  1  0  0  0  0
 10 11  1  0  0  0  0
 10 51  1  0  0  0  0
 11 12  1  0  0  0  0
 12 13  1  0  0  0  0
 12 31  1  0  0  0  0
 12 52  1  0  0  0  0
 13 30  1  0  0  0  0
 13 14  1  0  0  0  0
 14 15  2  0  0  0  0
 14 53  1  0  0  0  0
 15 16  1  0  0  0  0
 16 30  2  0  0  0  0
 16 17  1  0  0  0  0
 17 18  2  0  0  0  0
 17 27  1  0  0  0  0
 18 19  1  0  0  0  0
 19 20  2  0  0  0  0
 19 21  1  0  0  0  0
 21 26  1  0  0  0  0
 21 22  2  0  0  0  0
 22 23  1  0  0  0  0
 22 54  1  0  0  0  0
 23 24  2  0  0  0  0
 23 55  1  0  0  0  0
 24 25  1  0  0  0  0
 24 56  1  0  0  0  0
 25 26  2  0  0  0  0
 25 57  1  0  0  0  0
 26 58  1  0  0  0  0
 27 28  1  0  0  0  0
 27 64  1  0  0  0  0
 28 29  2  0  0  0  0
 28 59  1  0  0  0  0
 29 30  1  0  0  0  0
 31 32  1  0  0  0  0
 31 60  1  0  0  0  0
 31 61  1  0  0  0  0
 32 33  1  0  0  0  0
 32 62  1  0  0  0  0
 33 63  1  0  0  0  0
M  END
> <s_m_source_file>
AV-unprocessed.smi

> <i_m_source_file_index>
36

> <i_lp_mmshare_version>
43012

> <i_f3d_flags>
0

> <s_epik_input>
W0NIM11DKFtDSDNdKShbQ0gzXSlbU2ldKFtDSDNdKShbQ0gzXSlPW0NIMl1bQ0BASF0xT1tDQEhdKFtDSDJdW0NASF0xW09IXSluKFtjSF1uMiljKGMyMyluW2NIXW5jM1tOSF1DKD1PKWM0W2NIXVtjSF1bY0hdW2NIXVtjSF00

> <s_epik_cmdline>
J2VwaWtfcHl0aG9uJywgJy1waCcsICc3LjAnLCAnLXRuJywgJzgnLCAnLW1hJywgJzIwMCcsICctbWV0YWxfYmluZGluZycsICctaW1hZScsICc8aW5maWxlLm1hZT4nLCAnLW9tYWUnLCAnPG91dGZpbGUubWFlPic=

> <r_epik_Ionization_Penalty>
0.0850405

> <r_epik_Ionization_Penalty_Charging>
0.0850403

> <r_epik_Ionization_Penalty_Neutral>
1.47497e-07

> <r_epik_State_Penalty>
2.6133

> <r_epik_Charging_Adjusted_Penalty>
2.69834

> <i_epik_Tot_Q>
0

> <i_epik_Tot_abs_Q>
0

> <r_epik_Metal_State_Penalty>
2.92945

> <b_epik_Metal_Only>
0

> <s_epik_Chemistry_Notes>
This compound contains an acetal/aminal-like group ( X-CH(R)-Y where X, Y are N, S, or O) that may be acid/base labile, releasing an aldehyde.

> <s_lp_Force_Field>
OPLS_2005

> <r_lp_Energy>
45.4031

> <b_lp_Chiralities_Consistent>
1

> <s_lp_Variant>
AV-unprocessed.smi:36-14

> <Gold.Version>
5.8.1

> <Gold.Id.Protein>
6NUR|6NUR_protein|mol2

> <Gold.PLP.Fitness>
43.5265

> <Gold.PLP.PLP>
-43.3233

> <Gold.PLP.part.hbond>
-1.0000

> <Gold.PLP.part.metal>
0.0000

> <Gold.PLP.part.buried>
-4.5700

> <Gold.PLP.part.nonpolar>
-38.1754

> <Gold.PLP.part.repulsive>
0.4800

> <Gold.PLP.ligand.clash>
0.0000

> <Gold.PLP.ligand.torsion>
1.6123

> <Gold.PLP.Chemscore.Hbond>
1.0000

> <Gold.PLP.Chemscore.CHOScore>
0.0000

> <Gold.PLP.Chemscore.Metal>
0.0000

> <Gold.Chemscore.Hbonds>
donor molecule, donor type, donor heavy atom, donor atom, acceptor molecule, acceptor atom, score
      L1  H    27    64       P1  8028  1.00

> <Gold.PLP.Chemscore.Internal.Correction>
0.4278

> <Gold.Rescore>
     Score         DG    S(hbond)    S(metal)    S(lipo)     H(rot)  DE(clash)    DE(int)     intcor
     11.56     -15.06       0.94        0.00     114.24       2.70       1.09       2.41       ----

> <Gold.Chemscore.Fitness>
11.5594

> <Gold.Chemscore.DG>
-15.0637

> <Gold.Chemscore.ZeroCoef>
-5.4800

> <Gold.Chemscore.Hbond>
0.9401

> <Gold.Chemscore.Metal>
0.0000

> <Gold.Chemscore.Lipo>
114.2415

> <Gold.Chemscore.Internal_Hbond>
0.0000

> <Gold.Chemscore.DEClash>
1.0898

> <Gold.Chemscore.DEInternal>
2.4145

> <Gold.Chemscore.Rot>
2.7041

> <Gold.Chemscore.Internal.Correction>
   9.000000E+99

> <Gold.Chemscore.Hbonds>
donor molecule, donor type, donor heavy atom, donor atom, acceptor molecule, acceptor atom, score
      L1  H    27    64       P1  8028  0.93

> <Gold.Chemscore.Hbond.Weighted>
-3.1400

> <Gold.Chemscore.Metal.Weighted>
-0.0000

> <Gold.Chemscore.Lipo.Weighted>
-13.3663

> <Gold.Chemscore.Internal_Hbond.Weighted>
0.0000

> <Gold.Chemscore.DEClash.Weighted>
1.0898

> <Gold.Chemscore.DEInternal.Weighted>
2.4145

> <Gold.Chemscore.Rot.Weighted>
6.9225

> <Gold.Chemscore.Internal.Correction.Weighted>
   9.000000E+99

> <Gold.Protein.RotatedTorsions>
[ 6907 6896 6895 6894 ] final   46.05 input  -60.11 | X-H torsion
[ 7974 7965 7964 7962 ] final    0.89 input  175.53 | X-H torsion
[ 8008 7997 7996 7995 ] final    2.62 input   59.86 | X-H torsion
[ 10167 10162 10161 10158 ] final  172.53 input  -65.29 | X-H torsion
[ 10718 10713 10712 10709 ] final -109.87 input   66.30 | X-H torsion
[ 10763 10752 10751 10750 ] final   58.52 input  -60.55 | X-H torsion
[ 11005 11000 10999 10996 ] final  -65.67 input  -57.11 | X-H torsion

> <Gold.Protein.ActiveResidues>
 VAL166  LYS551  ARG553  GLY616  TRP617  ASP618  TYR619  PRO620  LYS621  CYS622 
 ASP623  PHE694  ASN695  SER759  ASP760  ASP761  ALA762  ILE779  LEU786  VAL792 
 PHE793  MET794  SER795  GLU796  ALA797  LYS798  CYS799  TRP800  GLU811  SER814 

> <Gold.Protein.RotatedAtoms>
  152.2519  134.8124  160.0444 H   0  0  0  0  0  0  0  0  0  0  0  0  # atno 6907 bound_to 6896
  151.8802  133.3488  159.3772 H   0  0  0  0  0  0  0  0  0  0  0  0  # atno 6908 bound_to 6896
  150.7087  134.4953  159.5579 H   0  0  0  0  0  0  0  0  0  0  0  0  # atno 6909 bound_to 6896
  146.2437  140.1069  142.8345 H   0  0  0  0  0  0  0  0  0  0  0  0  # atno 7974 bound_to 7965
  154.6938  140.2659  155.6786 H   0  0  0  0  0  0  0  0  0  0  0  0  # atno 8008 bound_to 7997
  156.2741  140.2786  156.1449 H   0  0  0  0  0  0  0  0  0  0  0  0  # atno 8009 bound_to 7997
  155.0859  140.0373  157.2644 H   0  0  0  0  0  0  0  0  0  0  0  0  # atno 8010 bound_to 7997
  139.5079  144.3363  152.0062 H   0  0  0  0  0  0  0  0  0  0  0  0  # atno 10167 bound_to 10162
  156.0560  130.5786  150.8160 H   0  0  0  0  0  0  0  0  0  0  0  0  # atno 10718 bound_to 10713
  152.9873  135.5603  154.5566 H   0  0  0  0  0  0  0  0  0  0  0  0  # atno 10763 bound_to 10752
  154.4993  135.2796  155.1436 H   0  0  0  0  0  0  0  0  0  0  0  0  # atno 10764 bound_to 10752
  154.2873  135.6333  153.5424 H   0  0  0  0  0  0  0  0  0  0  0  0  # atno 10765 bound_to 10752
  141.1461  133.6685  156.6021 H   0  0  0  0  0  0  0  0  0  0  0  0  # atno 11005 bound_to 11000
  145.0520  140.9025  143.4990 LP  0  0  0  0  0  0  0  0  0  0  0  0  # atno 17320 bound_to 7965
  145.1169  139.2720  143.5609 LP  0  0  0  0  0  0  0  0  0  0  0  0  # atno 17321 bound_to 7965
  140.2802  144.3868  150.6121 LP  0  0  0  0  0  0  0  0  0  0  0  0  # atno 17342 bound_to 10162
  140.6024  143.2167  151.7047 LP  0  0  0  0  0  0  0  0  0  0  0  0  # atno 17343 bound_to 10162
  157.5530  131.0944  150.9668 LP  0  0  0  0  0  0  0  0  0  0  0  0  # atno 17370 bound_to 10713
  156.9923  130.5568  149.5304 LP  0  0  0  0  0  0  0  0  0  0  0  0  # atno 17371 bound_to 10713
  140.3680  134.7630  157.4579 LP  0  0  0  0  0  0  0  0  0  0  0  0  # atno 17394 bound_to 11000
  140.0733  134.5832  155.8618 LP  0  0  0  0  0  0  0  0  0  0  0  0  # atno 17395 bound_to 11000

$$$$
