AV-unprocessed.smi:3030|AV-procd|sdf|11539|dock5
  -GOLD-   2272016483D 1   1.00000     0.00000
 Structure written by MMmdl.
 52 53  0  0  0  0  0  0  0  0  1 V2000
  148.5465  131.0948  161.4090 C   0  0  0  0  0  0  0  0  0  0  0  0
  147.1612  131.7489  161.4566 C   0  0  0  0  0  0  0  0  0  0  0  0
  147.2468  133.1999  161.3771 N   0  0  0  0  0  0  0  0  0  0  0  0
  146.9386  134.0035  162.4696 C   0  0  0  0  0  0  0  0  0  0  0  0
  147.0468  135.3461  162.4737 C   0  0  0  0  0  0  0  0  0  0  0  0
  147.5239  136.0371  161.2586 C   0  0  0  0  0  0  0  0  0  0  0  0
  147.6360  137.2626  161.2274 O   0  0  0  0  0  0  0  0  0  0  0  0
  147.8569  135.1782  160.0913 C   0  0  0  0  0  0  0  0  0  0  0  0
  148.3157  135.8442  158.9427 N   0  0  0  0  0  0  0  0  0  0  0  0
  149.2265  136.8280  158.8318 C   0  0  0  0  0  0  0  0  0  0  0  0
  149.8595  137.3354  159.7572 O   0  0  0  0  0  0  0  0  0  0  0  0
  149.3817  137.1883  157.5495 N   0  0  0  0  0  0  0  0  0  0  0  0
  150.3179  138.1939  157.0564 C   0  0  2  0  0  0  0  0  0  0  0  0
  150.0885  139.5485  157.7525 C   0  0  0  0  0  0  0  0  0  0  0  0
  151.2043  140.5504  157.3930 C   0  0  2  0  0  0  0  0  0  0  0  0
  150.9632  141.9192  158.0455 C   0  0  0  0  0  0  0  0  0  0  0  0
  151.3695  140.6711  155.8641 C   0  0  0  0  0  0  0  0  0  0  0  0
  151.5376  139.2925  155.1960 C   0  0  0  0  0  0  0  0  0  0  0  0
  150.3512  138.3439  155.5044 C   0  0  2  0  0  0  0  0  0  0  0  0
  149.0136  138.7811  154.8082 C   0  0  0  0  0  0  0  0  0  0  0  0
  148.4726  140.1445  155.2838 C   0  0  0  0  0  0  0  0  0  0  0  0
  147.8903  137.7394  154.9871 C   0  0  0  0  0  0  0  0  0  0  0  0
  147.7055  133.8356  160.2250 C   0  0  0  0  0  0  0  0  0  0  0  0
  148.4642  130.0095  161.4669 H   0  0  0  0  0  0  0  0  0  0  0  0
  149.1674  131.4266  162.2417 H   0  0  0  0  0  0  0  0  0  0  0  0
  149.0670  131.3409  160.4832 H   0  0  0  0  0  0  0  0  0  0  0  0
  146.5476  131.3746  160.6363 H   0  0  0  0  0  0  0  0  0  0  0  0
  146.6479  131.4648  162.3760 H   0  0  0  0  0  0  0  0  0  0  0  0
  146.5919  133.4613  163.3376 H   0  0  0  0  0  0  0  0  0  0  0  0
  146.7925  135.9301  163.3461 H   0  0  0  0  0  0  0  0  0  0  0  0
  147.9105  135.5117  158.0797 H   0  0  0  0  0  0  0  0  0  0  0  0
  148.8218  136.7162  156.8549 H   0  0  0  0  0  0  0  0  0  0  0  0
  151.3059  137.8533  157.3743 H   0  0  0  0  0  0  0  0  0  0  0  0
  149.1126  139.9536  157.4837 H   0  0  0  0  0  0  0  0  0  0  0  0
  150.0698  139.4059  158.8339 H   0  0  0  0  0  0  0  0  0  0  0  0
  152.1405  140.1592  157.7943 H   0  0  0  0  0  0  0  0  0  0  0  0
  150.0378  142.3716  157.6877 H   0  0  0  0  0  0  0  0  0  0  0  0
  151.7783  142.6089  157.8250 H   0  0  0  0  0  0  0  0  0  0  0  0
  150.8924  141.8298  159.1300 H   0  0  0  0  0  0  0  0  0  0  0  0
  150.5114  141.1887  155.4350 H   0  0  0  0  0  0  0  0  0  0  0  0
  152.2383  141.2902  155.6375 H   0  0  0  0  0  0  0  0  0  0  0  0
  151.6990  139.4054  154.1255 H   0  0  0  0  0  0  0  0  0  0  0  0
  152.4590  138.8388  155.5637 H   0  0  0  0  0  0  0  0  0  0  0  0
  150.6166  137.3720  155.0860 H   0  0  0  0  0  0  0  0  0  0  0  0
  149.1843  138.8683  153.7357 H   0  0  0  0  0  0  0  0  0  0  0  0
  148.4384  140.2029  156.3722 H   0  0  0  0  0  0  0  0  0  0  0  0
  147.4624  140.3231  154.9143 H   0  0  0  0  0  0  0  0  0  0  0  0
  149.0717  140.9738  154.9126 H   0  0  0  0  0  0  0  0  0  0  0  0
  147.7259  137.5103  156.0405 H   0  0  0  0  0  0  0  0  0  0  0  0
  148.1079  136.8084  154.4651 H   0  0  0  0  0  0  0  0  0  0  0  0
  146.9460  138.0991  154.5772 H   0  0  0  0  0  0  0  0  0  0  0  0
  147.9336  133.1362  159.4367 H   0  0  0  0  0  0  0  0  0  0  0  0
  1  2  1  0  0  0  0
  1 24  1  0  0  0  0
  1 25  1  0  0  0  0
  1 26  1  0  0  0  0
  2  3  1  0  0  0  0
  2 27  1  0  0  0  0
  2 28  1  0  0  0  0
  3 23  1  0  0  0  0
  3  4  1  0  0  0  0
  4  5  2  0  0  0  0
  4 29  1  0  0  0  0
  5  6  1  0  0  0  0
  5 30  1  0  0  0  0
  6  7  2  0  0  0  0
  6  8  1  0  0  0  0
  8  9  1  0  0  0  0
  8 23  2  0  0  0  0
  9 10  1  0  0  0  0
  9 31  1  0  0  0  0
 10 11  2  0  0  0  0
 10 12  1  0  0  0  0
 12 13  1  0  0  0  0
 12 32  1  0  0  0  0
 13 19  1  0  0  0  0
 13 14  1  0  0  0  0
 13 33  1  0  0  0  0
 14 15  1  0  0  0  0
 14 34  1  0  0  0  0
 14 35  1  0  0  0  0
 15 16  1  0  0  0  0
 15 17  1  0  0  0  0
 15 36  1  0  0  0  0
 16 37  1  0  0  0  0
 16 38  1  0  0  0  0
 16 39  1  0  0  0  0
 17 18  1  0  0  0  0
 17 40  1  0  0  0  0
 17 41  1  0  0  0  0
 18 19  1  0  0  0  0
 18 42  1  0  0  0  0
 18 43  1  0  0  0  0
 19 20  1  0  0  0  0
 19 44  1  0  0  0  0
 20 21  1  0  0  0  0
 20 22  1  0  0  0  0
 20 45  1  0  0  0  0
 21 46  1  0  0  0  0
 21 47  1  0  0  0  0
 21 48  1  0  0  0  0
 22 49  1  0  0  0  0
 22 50  1  0  0  0  0
 22 51  1  0  0  0  0
 23 52  1  0  0  0  0
M  END
> <s_m_source_file>
AV-unprocessed.smi

> <i_m_source_file_index>
3030

> <i_lp_mmshare_version>
43012

> <i_f3d_flags>
0

> <s_epik_input>
W0NIM11bQ0gyXW4xW2NIXVtjSF1jKD1PKWMoW2NIXTEpW05IXUMoPU8pW05IXVtDQEBIXTJbQ0gyXVtDQEBIXShbQ0gzXSlbQ0gyXVtDSDJdW0NASF0yW0NIXShbQ0gzXSlbQ0gzXQ==

> <s_epik_cmdline>
J2VwaWtfcHl0aG9uJywgJy1waCcsICc3LjAnLCAnLXRuJywgJzgnLCAnLW1hJywgJzIwMCcsICctbWV0YWxfYmluZGluZycsICctaW1hZScsICc8aW5maWxlLm1hZT4nLCAnLW9tYWUnLCAnPG91dGZpbGUubWFlPic=

> <r_lp_tautomer_probability>
1

> <r_epik_Ionization_Penalty>
0.00147933

> <r_epik_Ionization_Penalty_Charging>
0.00145753

> <r_epik_Ionization_Penalty_Neutral>
2.17987e-05

> <r_epik_State_Penalty>
0.00097457

> <r_epik_Charging_Adjusted_Penalty>
0.0024321

> <i_epik_Tot_Q>
0

> <i_epik_Tot_abs_Q>
0

> <r_epik_Metal_State_Penalty>
-0

> <b_epik_Metal_Only>
0

> <s_lp_Force_Field>
OPLS_2005

> <r_lp_Energy>
13.9811

> <b_lp_Chiralities_Consistent>
1

> <s_lp_Variant>
AV-unprocessed.smi:3030-7

> <Gold.Version>
5.8.1

> <Gold.Id.Protein>
6NUR|6NUR_protein|mol2

> <Gold.PLP.Fitness>
44.4799

> <Gold.PLP.PLP>
-39.9186

> <Gold.PLP.part.hbond>
-3.0000

> <Gold.PLP.part.metal>
0.0000

> <Gold.PLP.part.buried>
-4.9904

> <Gold.PLP.part.nonpolar>
-31.9072

> <Gold.PLP.part.repulsive>
0.1470

> <Gold.PLP.ligand.clash>
0.0000

> <Gold.PLP.ligand.torsion>
0.4808

> <Gold.PLP.Chemscore.Hbond>
1.8080

> <Gold.PLP.Chemscore.CHOScore>
0.0000

> <Gold.PLP.Chemscore.Metal>
0.0000

> <Gold.Chemscore.Hbonds>
donor molecule, donor type, donor heavy atom, donor atom, acceptor molecule, acceptor atom, score
      P1  H  6931  6943       L1     7  0.90
      P1  H  6934  6947       L1     7  0.86

> <Gold.PLP.Chemscore.Internal.Correction>
0.0990

> <Gold.Rescore>
     Score         DG    S(hbond)    S(metal)    S(lipo)     H(rot)  DE(clash)    DE(int)     intcor
     15.60     -20.80       2.48        0.00      87.95       1.27       0.07       5.12       ----

> <Gold.Chemscore.Fitness>
15.6005

> <Gold.Chemscore.DG>
-20.7989

> <Gold.Chemscore.ZeroCoef>
-5.4800

> <Gold.Chemscore.Hbond>
2.4780

> <Gold.Chemscore.Metal>
0.0000

> <Gold.Chemscore.Lipo>
87.9467

> <Gold.Chemscore.Internal_Hbond>
0.0000

> <Gold.Chemscore.DEClash>
0.0750

> <Gold.Chemscore.DEInternal>
5.1234

> <Gold.Chemscore.Rot>
1.2685

> <Gold.Chemscore.Internal.Correction>
   9.000000E+99

> <Gold.Chemscore.Hbonds>
donor molecule, donor type, donor heavy atom, donor atom, acceptor molecule, acceptor atom, score
      P1  H  6931  6943       L1     7  0.88
      P1  H  6934  6947       L1     7  0.85

> <Gold.Chemscore.Hbond.Weighted>
-8.2765

> <Gold.Chemscore.Metal.Weighted>
-0.0000

> <Gold.Chemscore.Lipo.Weighted>
-10.2898

> <Gold.Chemscore.Internal_Hbond.Weighted>
0.0000

> <Gold.Chemscore.DEClash.Weighted>
0.0750

> <Gold.Chemscore.DEInternal.Weighted>
5.1234

> <Gold.Chemscore.Rot.Weighted>
3.2474

> <Gold.Chemscore.Internal.Correction.Weighted>
   9.000000E+99

> <Gold.Protein.RotatedTorsions>
[ 6907 6896 6895 6894 ] final   -7.22 input  -60.11 | X-H torsion
[ 7974 7965 7964 7962 ] final -131.26 input  175.53 | X-H torsion
[ 8008 7997 7996 7995 ] final   66.62 input   59.86 | X-H torsion
[ 10167 10162 10161 10158 ] final   83.39 input  -65.29 | X-H torsion
[ 10718 10713 10712 10709 ] final -167.68 input   66.30 | X-H torsion
[ 10763 10752 10751 10750 ] final   87.77 input  -60.55 | X-H torsion
[ 11005 11000 10999 10996 ] final  109.95 input  -57.11 | X-H torsion

> <Gold.Protein.ActiveResidues>
 VAL166  LYS551  ARG553  GLY616  TRP617  ASP618  TYR619  PRO620  LYS621  CYS622 
 ASP623  PHE694  ASN695  SER759  ASP760  ASP761  ALA762  ILE779  LEU786  VAL792 
 PHE793  MET794  SER795  GLU796  ALA797  LYS798  CYS799  TRP800  GLU811  SER814 

> <Gold.Protein.RotatedAtoms>
  151.4530  135.1031  159.9702 H   0  0  0  0  0  0  0  0  0  0  0  0  # atno 6907 bound_to 6896
  152.4881  133.8422  159.7169 H   0  0  0  0  0  0  0  0  0  0  0  0  # atno 6908 bound_to 6896
  150.9009  133.7060  159.2906 H   0  0  0  0  0  0  0  0  0  0  0  0  # atno 6909 bound_to 6896
  144.9396  140.7224  143.4855 H   0  0  0  0  0  0  0  0  0  0  0  0  # atno 7974 bound_to 7965
  155.6802  140.3496  155.4852 H   0  0  0  0  0  0  0  0  0  0  0  0  # atno 8008 bound_to 7997
  155.9613  140.1138  157.0916 H   0  0  0  0  0  0  0  0  0  0  0  0  # atno 8009 bound_to 7997
  154.4144  140.1175  156.5169 H   0  0  0  0  0  0  0  0  0  0  0  0  # atno 8010 bound_to 7997
  139.9189  144.6225  150.8460 H   0  0  0  0  0  0  0  0  0  0  0  0  # atno 10167 bound_to 10162
  156.6859  130.9140  151.3063 H   0  0  0  0  0  0  0  0  0  0  0  0  # atno 10718 bound_to 10713
  153.1701  135.4531  154.9891 H   0  0  0  0  0  0  0  0  0  0  0  0  # atno 10763 bound_to 10752
  154.7960  135.3237  154.7669 H   0  0  0  0  0  0  0  0  0  0  0  0  # atno 10764 bound_to 10752
  153.8146  135.6952  153.4890 H   0  0  0  0  0  0  0  0  0  0  0  0  # atno 10765 bound_to 10752
  139.8872  134.9471  156.6204 H   0  0  0  0  0  0  0  0  0  0  0  0  # atno 11005 bound_to 11000
  145.3012  139.1850  143.4689 LP  0  0  0  0  0  0  0  0  0  0  0  0  # atno 17320 bound_to 7965
  146.3280  140.3003  142.8620 LP  0  0  0  0  0  0  0  0  0  0  0  0  # atno 17321 bound_to 7965
  140.7667  143.3311  151.2408 LP  0  0  0  0  0  0  0  0  0  0  0  0  # atno 17342 bound_to 10162
  139.6878  143.9743  152.2843 LP  0  0  0  0  0  0  0  0  0  0  0  0  # atno 17343 bound_to 10162
  157.7027  130.9350  150.0834 LP  0  0  0  0  0  0  0  0  0  0  0  0  # atno 17370 bound_to 10713
  156.1833  130.3651  149.9006 LP  0  0  0  0  0  0  0  0  0  0  0  0  # atno 17371 bound_to 10713
  140.7743  133.8712  155.8517 LP  0  0  0  0  0  0  0  0  0  0  0  0  # atno 17394 bound_to 11000
  140.9815  134.1399  157.4490 LP  0  0  0  0  0  0  0  0  0  0  0  0  # atno 17395 bound_to 11000

$$$$
