AV-unprocessed.smi:1952|AV-procd|sdf|7883|dock7
  -GOLD-   2272010 33D 1   1.00000     0.00000
 Structure written by MMmdl.
 39 40  0  0  0  0  0  0  0  0  1 V2000
  151.1396  131.2447  156.2734 C   0  0  0  0  0  0  0  0  0  0  0  0
  150.6620  132.6437  156.0848 C   0  0  0  0  0  0  0  0  0  0  0  0
  150.1588  133.3179  155.0080 C   0  0  0  0  0  0  0  0  0  0  0  0
  149.9076  134.6143  155.5309 C   0  0  0  0  0  0  0  0  0  0  0  0
  149.3648  135.6365  154.7113 N   0  0  0  0  0  0  0  0  0  0  0  0
  148.8489  136.8135  155.1038 C   0  0  0  0  0  0  0  0  0  0  0  0
  148.7698  137.1974  156.2711 O   0  0  0  0  0  0  0  0  0  0  0  0
  148.4279  137.5326  154.0521 N   0  0  0  0  0  0  0  0  0  0  0  0
  147.8404  138.8703  154.1095 C   0  0  2  0  0  0  0  0  0  0  0  0
  146.9834  139.0925  152.8562 C   0  0  0  0  0  0  0  0  0  0  0  0
  148.9504  139.9381  154.2209 C   0  0  0  0  0  0  0  0  0  0  0  0
  150.0477  139.6211  155.1359 N   0  0  0  0  0  0  0  0  0  0  0  0
  151.0900  138.8544  154.4627 C   0  0  0  0  0  0  0  0  0  0  0  0
  152.2470  138.5007  155.4133 C   0  0  0  0  0  0  0  0  0  0  0  0
  152.7820  139.6930  155.9783 O   0  0  0  0  0  0  0  0  0  0  0  0
  151.8050  140.4537  156.6814 C   0  0  0  0  0  0  0  0  0  0  0  0
  150.6487  140.8123  155.7323 C   0  0  0  0  0  0  0  0  0  0  0  0
  150.2296  134.7221  156.8108 N   0  0  0  0  0  0  0  0  0  0  0  0
  150.7145  133.4596  157.1724 O   0  0  0  0  0  0  0  0  0  0  0  0
  151.1266  130.6980  155.3305 H   0  0  0  0  0  0  0  0  0  0  0  0
  150.5051  130.7121  156.9820 H   0  0  0  0  0  0  0  0  0  0  0  0
  152.1599  131.2327  156.6569 H   0  0  0  0  0  0  0  0  0  0  0  0
  149.9970  132.9413  154.0089 H   0  0  0  0  0  0  0  0  0  0  0  0
  149.3709  135.4521  153.7193 H   0  0  0  0  0  0  0  0  0  0  0  0
  148.5384  137.1307  153.1328 H   0  0  0  0  0  0  0  0  0  0  0  0
  147.1680  138.9513  154.9640 H   0  0  0  0  0  0  0  0  0  0  0  0
  146.5109  140.0750  152.8749 H   0  0  0  0  0  0  0  0  0  0  0  0
  146.1896  138.3480  152.7858 H   0  0  0  0  0  0  0  0  0  0  0  0
  147.5822  139.0287  151.9471 H   0  0  0  0  0  0  0  0  0  0  0  0
  149.3601  140.0945  153.2217 H   0  0  0  0  0  0  0  0  0  0  0  0
  148.5058  140.8918  154.5091 H   0  0  0  0  0  0  0  0  0  0  0  0
  150.6686  137.9357  154.0535 H   0  0  0  0  0  0  0  0  0  0  0  0
  151.4797  139.4227  153.6167 H   0  0  0  0  0  0  0  0  0  0  0  0
  151.9050  137.8353  156.2073 H   0  0  0  0  0  0  0  0  0  0  0  0
  153.0354  137.9772  154.8725 H   0  0  0  0  0  0  0  0  0  0  0  0
  151.4378  139.8856  157.5377 H   0  0  0  0  0  0  0  0  0  0  0  0
  152.2703  141.3586  157.0725 H   0  0  0  0  0  0  0  0  0  0  0  0
  151.0176  141.4741  154.9471 H   0  0  0  0  0  0  0  0  0  0  0  0
  149.9046  141.3775  156.2916 H   0  0  0  0  0  0  0  0  0  0  0  0
  1  2  1  0  0  0  0
  1 20  1  0  0  0  0
  1 21  1  0  0  0  0
  1 22  1  0  0  0  0
  2 19  1  0  0  0  0
  2  3  2  0  0  0  0
  3  4  1  0  0  0  0
  3 23  1  0  0  0  0
  4  5  1  0  0  0  0
  4 18  2  0  0  0  0
  5  6  1  0  0  0  0
  5 24  1  0  0  0  0
  6  7  2  0  0  0  0
  6  8  1  0  0  0  0
  8  9  1  0  0  0  0
  8 25  1  0  0  0  0
  9 10  1  0  0  0  0
  9 11  1  0  0  0  0
  9 26  1  0  0  0  0
 10 27  1  0  0  0  0
 10 28  1  0  0  0  0
 10 29  1  0  0  0  0
 11 12  1  0  0  0  0
 11 30  1  0  0  0  0
 11 31  1  0  0  0  0
 12 17  1  0  0  0  0
 12 13  1  0  0  0  0
 13 14  1  0  0  0  0
 13 32  1  0  0  0  0
 13 33  1  0  0  0  0
 14 15  1  0  0  0  0
 14 34  1  0  0  0  0
 14 35  1  0  0  0  0
 15 16  1  0  0  0  0
 16 17  1  0  0  0  0
 16 36  1  0  0  0  0
 16 37  1  0  0  0  0
 17 38  1  0  0  0  0
 17 39  1  0  0  0  0
 18 19  1  0  0  0  0
M  END
> <s_m_source_file>
AV-unprocessed.smi

> <i_m_source_file_index>
1952

> <i_lp_mmshare_version>
43012

> <i_f3d_flags>
0

> <s_epik_input>
W0NIM11jMVtjSF1jKG5vMSlbTkhdQyg9TylbTkhdW0NASF0oW0NIM10pW0NIMl1OMltDSDJdW0NIMl1PW0NIMl1bQ0gyXTI=

> <s_epik_cmdline>
J2VwaWtfcHl0aG9uJywgJy1waCcsICc3LjAnLCAnLXRuJywgJzgnLCAnLW1hJywgJzIwMCcsICctbWV0YWxfYmluZGluZycsICctaW1hZScsICc8aW5maWxlLm1hZT4nLCAnLW9tYWUnLCAnPG91dGZpbGUubWFlPic=

> <r_epik_Ionization_Penalty>
0.214075

> <r_epik_Ionization_Penalty_Charging>
0

> <r_epik_Ionization_Penalty_Neutral>
0.214075

> <r_epik_State_Penalty>
0.204211

> <r_epik_Charging_Adjusted_Penalty>
0.204211

> <i_epik_Tot_Q>
0

> <i_epik_Tot_abs_Q>
0

> <r_epik_Metal_State_Penalty>
0.218782

> <b_epik_Metal_Only>
0

> <s_lp_Force_Field>
OPLS_2005

> <r_lp_Energy>
23.1599

> <b_lp_Chiralities_Consistent>
1

> <s_lp_Variant>
AV-unprocessed.smi:1952-1

> <Gold.Version>
5.8.1

> <Gold.Id.Protein>
6NUR|6NUR_protein|mol2

> <Gold.PLP.Fitness>
38.7865

> <Gold.PLP.PLP>
-29.2628

> <Gold.PLP.part.hbond>
-4.0000

> <Gold.PLP.part.metal>
0.0000

> <Gold.PLP.part.buried>
-2.9900

> <Gold.PLP.part.nonpolar>
-21.9210

> <Gold.PLP.part.repulsive>
0.1049

> <Gold.PLP.ligand.clash>
0.0000

> <Gold.PLP.ligand.torsion>
0.8458

> <Gold.PLP.Chemscore.Hbond>
3.7350

> <Gold.PLP.Chemscore.CHOScore>
0.0000

> <Gold.PLP.Chemscore.Metal>
0.0000

> <Gold.Chemscore.Hbonds>
donor molecule, donor type, donor heavy atom, donor atom, acceptor molecule, acceptor atom, score
      L1  H     5    24       P1  7948  0.93
      L1  H     8    25       P1  7948  1.00
      P1  H  6896  6907       L1    19  0.80
      P1  H  7997  8008       L1    15  1.00

> <Gold.PLP.Chemscore.Internal.Correction>
0.0105

> <Gold.Rescore>
     Score         DG    S(hbond)    S(metal)    S(lipo)     H(rot)  DE(clash)    DE(int)     intcor
     15.78     -17.96       2.80        0.00      60.99       1.56       0.00       2.18       ----

> <Gold.Chemscore.Fitness>
15.7808

> <Gold.Chemscore.DG>
-17.9619

> <Gold.Chemscore.ZeroCoef>
-5.4800

> <Gold.Chemscore.Hbond>
2.7959

> <Gold.Chemscore.Metal>
0.0000

> <Gold.Chemscore.Lipo>
60.9934

> <Gold.Chemscore.Internal_Hbond>
0.0000

> <Gold.Chemscore.DEClash>
0.0000

> <Gold.Chemscore.DEInternal>
2.1811

> <Gold.Chemscore.Rot>
1.5597

> <Gold.Chemscore.Internal.Correction>
   9.000000E+99

> <Gold.Chemscore.Hbonds>
donor molecule, donor type, donor heavy atom, donor atom, acceptor molecule, acceptor atom, score
      L1  H     5    24       P1  7948  0.29
      L1  H     8    25       P1  7948  0.99
      P1  H  6896  6907       L1    19  0.37
      P1  H  7997  8008       L1    15  0.92

> <Gold.Chemscore.Hbond.Weighted>
-9.3384

> <Gold.Chemscore.Metal.Weighted>
-0.0000

> <Gold.Chemscore.Lipo.Weighted>
-7.1362

> <Gold.Chemscore.Internal_Hbond.Weighted>
0.0000

> <Gold.Chemscore.DEClash.Weighted>
0.0000

> <Gold.Chemscore.DEInternal.Weighted>
2.1811

> <Gold.Chemscore.Rot.Weighted>
3.9928

> <Gold.Chemscore.Internal.Correction.Weighted>
   9.000000E+99

> <Gold.Protein.RotatedTorsions>
[ 6907 6896 6895 6894 ] final -138.69 input  -60.11 | X-H torsion
[ 7974 7965 7964 7962 ] final   -2.71 input  175.53 | X-H torsion
[ 8008 7997 7996 7995 ] final  -33.26 input   59.86 | X-H torsion
[ 10167 10162 10161 10158 ] final -112.74 input  -65.29 | X-H torsion
[ 10718 10713 10712 10709 ] final  108.96 input   66.30 | X-H torsion
[ 10763 10752 10751 10750 ] final -165.05 input  -60.55 | X-H torsion
[ 11005 11000 10999 10996 ] final  -99.43 input  -57.11 | X-H torsion

> <Gold.Protein.ActiveResidues>
 VAL166  LYS551  ARG553  GLY616  TRP617  ASP618  TYR619  PRO620  LYS621  CYS622 
 ASP623  PHE694  ASN695  SER759  ASP760  ASP761  ALA762  ILE779  LEU786  VAL792 
 PHE793  MET794  SER795  GLU796  ALA797  LYS798  CYS799  TRP800  GLU811  SER814 

> <Gold.Protein.RotatedAtoms>
  151.0383  133.5729  159.2653 H   0  0  0  0  0  0  0  0  0  0  0  0  # atno 6907 bound_to 6896
  151.2785  135.0705  159.9170 H   0  0  0  0  0  0  0  0  0  0  0  0  # atno 6908 bound_to 6896
  152.5359  134.0101  159.7988 H   0  0  0  0  0  0  0  0  0  0  0  0  # atno 6909 bound_to 6896
  146.2400  140.1611  142.8333 H   0  0  0  0  0  0  0  0  0  0  0  0  # atno 7974 bound_to 7965
  154.4154  140.1715  156.1860 H   0  0  0  0  0  0  0  0  0  0  0  0  # atno 8008 bound_to 7997
  155.9643  140.3391  155.6494 H   0  0  0  0  0  0  0  0  0  0  0  0  # atno 8009 bound_to 7997
  155.6708  140.0711  157.2511 H   0  0  0  0  0  0  0  0  0  0  0  0  # atno 8010 bound_to 7997
  140.1195  143.4456  152.1700 H   0  0  0  0  0  0  0  0  0  0  0  0  # atno 10167 bound_to 10162
  157.6563  131.0904  150.6383 H   0  0  0  0  0  0  0  0  0  0  0  0  # atno 10718 bound_to 10713
  154.6969  135.2981  154.9398 H   0  0  0  0  0  0  0  0  0  0  0  0  # atno 10763 bound_to 10752
  154.0342  135.6666  153.4787 H   0  0  0  0  0  0  0  0  0  0  0  0  # atno 10764 bound_to 10752
  153.0653  135.5092  154.8092 H   0  0  0  0  0  0  0  0  0  0  0  0  # atno 10765 bound_to 10752
  141.1309  133.8320  157.0970 H   0  0  0  0  0  0  0  0  0  0  0  0  # atno 11005 bound_to 11000
  145.0088  140.8696  143.5236 LP  0  0  0  0  0  0  0  0  0  0  0  0  # atno 17320 bound_to 7965
  145.1642  139.2441  143.5376 LP  0  0  0  0  0  0  0  0  0  0  0  0  # atno 17321 bound_to 7965
  139.5576  144.7384  151.4248 LP  0  0  0  0  0  0  0  0  0  0  0  0  # atno 17342 bound_to 10162
  140.6880  143.7928  150.7214 LP  0  0  0  0  0  0  0  0  0  0  0  0  # atno 17343 bound_to 10162
  156.6690  130.4534  149.5663 LP  0  0  0  0  0  0  0  0  0  0  0  0  # atno 17370 bound_to 10713
  156.2011  130.6620  151.1169 LP  0  0  0  0  0  0  0  0  0  0  0  0  # atno 17371 bound_to 10713
  140.0357  134.9879  157.0866 LP  0  0  0  0  0  0  0  0  0  0  0  0  # atno 17394 bound_to 11000
  140.4214  134.1876  155.7164 LP  0  0  0  0  0  0  0  0  0  0  0  0  # atno 17395 bound_to 11000

$$$$
