AV-unprocessed.smi:1911|AV-procd|sdf|7738|dock3
  -GOLD-   22720 9473D 1   1.00000     0.00000
 Structure written by MMmdl.
 51 53  0  0  0  0  0  0  0  0  1 V2000
  142.6448  132.7204  148.8883 N   0  0  0  0  0  0  0  0  0  0  0  0
  143.8435  132.6393  149.4713 C   0  0  0  0  0  0  0  0  0  0  0  0
  144.8506  132.2955  148.8559 O   0  0  0  0  0  0  0  0  0  0  0  0
  143.9253  133.0017  150.9594 C   0  0  0  0  0  0  0  0  0  0  0  0
  144.8284  134.1340  151.2685 N   0  0  0  0  0  0  0  0  0  0  0  0
  144.9403  134.2782  152.7240 C   0  0  0  0  0  0  0  0  0  0  0  0
  145.9735  135.3590  153.0858 C   0  0  0  0  0  0  0  0  0  0  0  0
  145.6002  136.7127  152.4597 C   0  0  0  0  0  0  0  0  0  0  0  0
  146.6473  137.7027  152.6926 N   0  0  0  0  0  0  0  0  0  0  0  0
  147.1714  138.0072  153.8884 C   0  0  0  0  0  0  0  0  0  0  0  0
  146.8172  137.4751  154.9401 O   0  0  0  0  0  0  0  0  0  0  0  0
  148.1057  138.9669  153.7764 N   0  0  0  0  0  0  0  0  0  0  0  0
  148.8903  139.5664  154.7985 C   0  0  0  0  0  0  0  0  0  0  0  0
  149.1738  138.9647  156.0467 C   0  0  0  0  0  0  0  0  0  0  0  0
  149.9788  139.6580  156.9711 C   0  0  0  0  0  0  0  0  0  0  0  0
  150.4902  140.9308  156.6234 C   0  0  0  0  0  0  0  0  0  0  0  0
  151.2919  141.6606  157.5231 N   0  0  0  0  0  0  0  0  0  0  0  0
  151.7933  141.0754  158.7568 C   0  0  0  0  0  0  0  0  0  0  0  0
  152.5004  142.2268  159.4698 C   0  0  0  0  0  0  0  0  0  0  0  0
  151.6856  143.4493  159.0464 C   0  0  0  0  0  0  0  0  0  0  0  0
  151.2099  143.1108  157.6285 C   0  0  0  0  0  0  0  0  0  0  0  0
  150.2242  141.5007  155.4241 N   0  0  0  0  0  0  0  0  0  0  0  0
  149.4534  140.8320  154.5415 C   0  0  0  0  0  0  0  0  0  0  0  0
  145.3882  136.5219  150.9516 C   0  0  0  0  0  0  0  0  0  0  0  0
  144.3777  135.3970  150.6657 C   0  0  0  0  0  0  0  0  0  0  0  0
  142.5486  132.4907  147.9099 H   0  0  0  0  0  0  0  0  0  0  0  0
  141.8403  133.0105  149.4248 H   0  0  0  0  0  0  0  0  0  0  0  0
  142.9257  133.2152  151.3431 H   0  0  0  0  0  0  0  0  0  0  0  0
  144.2726  132.1097  151.4828 H   0  0  0  0  0  0  0  0  0  0  0  0
  143.9692  134.5237  153.1581 H   0  0  0  0  0  0  0  0  0  0  0  0
  145.2545  133.3317  153.1664 H   0  0  0  0  0  0  0  0  0  0  0  0
  146.0411  135.4514  154.1703 H   0  0  0  0  0  0  0  0  0  0  0  0
  146.9603  135.0471  152.7400 H   0  0  0  0  0  0  0  0  0  0  0  0
  144.6638  137.0650  152.8971 H   0  0  0  0  0  0  0  0  0  0  0  0
  146.9974  138.1912  151.8815 H   0  0  0  0  0  0  0  0  0  0  0  0
  148.2315  139.3560  152.8533 H   0  0  0  0  0  0  0  0  0  0  0  0
  148.8036  137.9867  156.3115 H   0  0  0  0  0  0  0  0  0  0  0  0
  150.1881  139.2067  157.9294 H   0  0  0  0  0  0  0  0  0  0  0  0
  150.9557  140.7094  159.3524 H   0  0  0  0  0  0  0  0  0  0  0  0
  152.4713  140.2435  158.5630 H   0  0  0  0  0  0  0  0  0  0  0  0
  152.5437  142.0941  160.5511 H   0  0  0  0  0  0  0  0  0  0  0  0
  153.5223  142.3193  159.0990 H   0  0  0  0  0  0  0  0  0  0  0  0
  150.8224  143.5554  159.7048 H   0  0  0  0  0  0  0  0  0  0  0  0
  152.2560  144.3774  159.0908 H   0  0  0  0  0  0  0  0  0  0  0  0
  151.8690  143.5561  156.8825 H   0  0  0  0  0  0  0  0  0  0  0  0
  150.1979  143.4802  157.4589 H   0  0  0  0  0  0  0  0  0  0  0  0
  149.2770  141.3297  153.5989 H   0  0  0  0  0  0  0  0  0  0  0  0
  145.0381  137.4528  150.5038 H   0  0  0  0  0  0  0  0  0  0  0  0
  146.3371  136.2845  150.4675 H   0  0  0  0  0  0  0  0  0  0  0  0
  144.2803  135.3007  149.5844 H   0  0  0  0  0  0  0  0  0  0  0  0
  143.3919  135.6663  151.0486 H   0  0  0  0  0  0  0  0  0  0  0  0
  1  2  1  0  0  0  0
  1 26  1  0  0  0  0
  1 27  1  0  0  0  0
  2  3  2  0  0  0  0
  2  4  1  0  0  0  0
  4  5  1  0  0  0  0
  4 28  1  0  0  0  0
  4 29  1  0  0  0  0
  5 25  1  0  0  0  0
  5  6  1  0  0  0  0
  6  7  1  0  0  0  0
  6 30  1  0  0  0  0
  6 31  1  0  0  0  0
  7  8  1  0  0  0  0
  7 32  1  0  0  0  0
  7 33  1  0  0  0  0
  8  9  1  0  0  0  0
  8 24  1  0  0  0  0
  8 34  1  0  0  0  0
  9 10  1  0  0  0  0
  9 35  1  0  0  0  0
 10 11  2  0  0  0  0
 10 12  1  0  0  0  0
 12 13  1  0  0  0  0
 12 36  1  0  0  0  0
 13 23  1  0  0  0  0
 13 14  2  0  0  0  0
 14 15  1  0  0  0  0
 14 37  1  0  0  0  0
 15 16  2  0  0  0  0
 15 38  1  0  0  0  0
 16 17  1  0  0  0  0
 16 22  1  0  0  0  0
 17 21  1  0  0  0  0
 17 18  1  0  0  0  0
 18 19  1  0  0  0  0
 18 39  1  0  0  0  0
 18 40  1  0  0  0  0
 19 20  1  0  0  0  0
 19 41  1  0  0  0  0
 19 42  1  0  0  0  0
 20 21  1  0  0  0  0
 20 43  1  0  0  0  0
 20 44  1  0  0  0  0
 21 45  1  0  0  0  0
 21 46  1  0  0  0  0
 22 23  2  0  0  0  0
 23 47  1  0  0  0  0
 24 25  1  0  0  0  0
 24 48  1  0  0  0  0
 24 49  1  0  0  0  0
 25 50  1  0  0  0  0
 25 51  1  0  0  0  0
M  END
> <s_m_source_file>
AV-unprocessed.smi

> <i_m_source_file_index>
1911

> <i_lp_mmshare_version>
43012

> <i_f3d_flags>
0

> <s_epik_input>
W05IMl1DKD1PKVtDSDJdTjFbQ0gyXVtDSDJdW0NIXShbQ0gyXVtDSDJdMSlbTkhdQyg9TylbTkhdYzJbY0hdW2NIXWMobltjSF0yKU4zW0NIMl1bQ0gyXVtDSDJdW0NIMl0z

> <s_epik_cmdline>
J2VwaWtfcHl0aG9uJywgJy1waCcsICc3LjAnLCAnLXRuJywgJzgnLCAnLW1hJywgJzIwMCcsICctbWV0YWxfYmluZGluZycsICctaW1hZScsICc8aW5maWxlLm1hZT4nLCAnLW9tYWUnLCAnPG91dGZpbGUubWFlPic=

> <r_lp_tautomer_probability>
1

> <r_epik_Ionization_Penalty>
0.268698

> <r_epik_Ionization_Penalty_Charging>
0

> <r_epik_Ionization_Penalty_Neutral>
0.268698

> <r_epik_State_Penalty>
0.247497

> <r_epik_Charging_Adjusted_Penalty>
0.247497

> <i_epik_Tot_Q>
0

> <i_epik_Tot_abs_Q>
0

> <r_epik_Metal_State_Penalty>
0.244803

> <b_epik_Metal_Only>
0

> <s_lp_Force_Field>
OPLS_2005

> <r_lp_Energy>
37.3051

> <b_lp_Chiralities_Consistent>
1

> <s_lp_Variant>
AV-unprocessed.smi:1911-1

> <Gold.Version>
5.8.1

> <Gold.Id.Protein>
6NUR|6NUR_protein|mol2

> <Gold.PLP.Fitness>
49.7179

> <Gold.PLP.PLP>
-41.6599

> <Gold.PLP.part.hbond>
-5.1774

> <Gold.PLP.part.metal>
0.0000

> <Gold.PLP.part.buried>
-1.8650

> <Gold.PLP.part.nonpolar>
-34.8804

> <Gold.PLP.part.repulsive>
0.7534

> <Gold.PLP.ligand.clash>
0.0000

> <Gold.PLP.ligand.torsion>
0.4537

> <Gold.PLP.Chemscore.Hbond>
1.9263

> <Gold.PLP.Chemscore.CHOScore>
1.0000

> <Gold.PLP.Chemscore.Metal>
0.0000

> <Gold.Chemscore.Hbonds>
donor molecule, donor type, donor heavy atom, donor atom, acceptor molecule, acceptor atom, score
      L1  H     1    27       P1 10186  0.69
      L1  H    12    36       P1  7957  0.39
      L1  C    23    47       P1  7957  0.34

> <Gold.PLP.Chemscore.Internal.Correction>
0.1866

> <Gold.Rescore>
     Score         DG    S(hbond)    S(metal)    S(lipo)     H(rot)  DE(clash)    DE(int)     intcor
     12.78     -16.65       1.74        0.00      87.09       1.89       0.97       2.90       ----

> <Gold.Chemscore.Fitness>
12.7803

> <Gold.Chemscore.DG>
-16.6510

> <Gold.Chemscore.ZeroCoef>
-5.4800

> <Gold.Chemscore.Hbond>
1.7392

> <Gold.Chemscore.Metal>
0.0000

> <Gold.Chemscore.Lipo>
87.0906

> <Gold.Chemscore.Internal_Hbond>
0.0000

> <Gold.Chemscore.DEClash>
0.9717

> <Gold.Chemscore.DEInternal>
2.8989

> <Gold.Chemscore.Rot>
1.8857

> <Gold.Chemscore.Internal.Correction>
   9.000000E+99

> <Gold.Chemscore.Hbonds>
donor molecule, donor type, donor heavy atom, donor atom, acceptor molecule, acceptor atom, score
      L1  H     1    27       P1 10186  0.68
      L1  H    12    36       P1  7957  0.37

> <Gold.Chemscore.Hbond.Weighted>
-5.8089

> <Gold.Chemscore.Metal.Weighted>
-0.0000

> <Gold.Chemscore.Lipo.Weighted>
-10.1896

> <Gold.Chemscore.Internal_Hbond.Weighted>
0.0000

> <Gold.Chemscore.DEClash.Weighted>
0.9717

> <Gold.Chemscore.DEInternal.Weighted>
2.8989

> <Gold.Chemscore.Rot.Weighted>
4.8275

> <Gold.Chemscore.Internal.Correction.Weighted>
   9.000000E+99

> <Gold.Protein.RotatedTorsions>
[ 6907 6896 6895 6894 ] final  144.61 input  -60.11 | X-H torsion
[ 7974 7965 7964 7962 ] final   74.67 input  175.53 | X-H torsion
[ 8008 7997 7996 7995 ] final   10.06 input   59.86 | X-H torsion
[ 10167 10162 10161 10158 ] final   95.01 input  -65.29 | X-H torsion
[ 10718 10713 10712 10709 ] final   74.39 input   66.30 | X-H torsion
[ 10763 10752 10751 10750 ] final -170.95 input  -60.55 | X-H torsion
[ 11005 11000 10999 10996 ] final -108.42 input  -57.11 | X-H torsion

> <Gold.Protein.ActiveResidues>
 VAL166  LYS551  ARG553  GLY616  TRP617  ASP618  TYR619  PRO620  LYS621  CYS622 
 ASP623  PHE694  ASN695  SER759  ASP760  ASP761  ALA762  ILE779  LEU786  VAL792 
 PHE793  MET794  SER795  GLU796  ALA797  LYS798  CYS799  TRP800  GLU811  SER814 

> <Gold.Protein.RotatedAtoms>
  152.1915  133.4776  159.5009 H   0  0  0  0  0  0  0  0  0  0  0  0  # atno 6907 bound_to 6896
  150.6952  134.1707  159.4220 H   0  0  0  0  0  0  0  0  0  0  0  0  # atno 6908 bound_to 6896
  151.9621  135.0118  160.0599 H   0  0  0  0  0  0  0  0  0  0  0  0  # atno 6909 bound_to 6896
  145.7254  139.2663  143.1572 H   0  0  0  0  0  0  0  0  0  0  0  0  # atno 7974 bound_to 7965
  154.7883  140.2831  155.6011 H   0  0  0  0  0  0  0  0  0  0  0  0  # atno 8008 bound_to 7997
  156.2960  140.2609  156.2653 H   0  0  0  0  0  0  0  0  0  0  0  0  # atno 8009 bound_to 7997
  154.9701  140.0376  157.2220 H   0  0  0  0  0  0  0  0  0  0  0  0  # atno 8010 bound_to 7997
  139.8029  144.6806  150.9741 H   0  0  0  0  0  0  0  0  0  0  0  0  # atno 10167 bound_to 10162
  157.6590  130.9675  150.1204 H   0  0  0  0  0  0  0  0  0  0  0  0  # atno 10718 bound_to 10713
  154.6359  135.2892  155.0161 H   0  0  0  0  0  0  0  0  0  0  0  0  # atno 10763 bound_to 10752
  154.1305  135.6534  153.4925 H   0  0  0  0  0  0  0  0  0  0  0  0  # atno 10764 bound_to 10752
  153.0302  135.5309  154.7206 H   0  0  0  0  0  0  0  0  0  0  0  0  # atno 10765 bound_to 10752
  141.0903  133.9067  157.2092 H   0  0  0  0  0  0  0  0  0  0  0  0  # atno 11005 bound_to 11000
  146.0587  140.7993  142.9745 LP  0  0  0  0  0  0  0  0  0  0  0  0  # atno 17320 bound_to 7965
  144.6906  140.3164  143.7239 LP  0  0  0  0  0  0  0  0  0  0  0  0  # atno 17321 bound_to 7965
  140.7820  143.4263  151.0763 LP  0  0  0  0  0  0  0  0  0  0  0  0  # atno 17342 bound_to 10162
  139.7934  143.8186  152.3154 LP  0  0  0  0  0  0  0  0  0  0  0  0  # atno 17343 bound_to 10162
  156.2077  130.3664  149.8709 LP  0  0  0  0  0  0  0  0  0  0  0  0  # atno 17370 bound_to 10713
  156.6596  130.8777  151.3545 LP  0  0  0  0  0  0  0  0  0  0  0  0  # atno 17371 bound_to 10713
  139.9727  135.0123  156.9554 LP  0  0  0  0  0  0  0  0  0  0  0  0  # atno 17394 bound_to 11000
  140.5268  134.0853  155.7305 LP  0  0  0  0  0  0  0  0  0  0  0  0  # atno 17395 bound_to 11000

$$$$
