AV-unprocessed.smi:155|AV-procd|sdf|1271|dock2
  -GOLD-   2262018533D 1   1.00000     0.00000
 Structure written by MMmdl.
 63 66  0  0  0  0  0  0  0  0  2 V2000
  145.5003  132.5060  150.3203 C   0  0  0  0  0  0  0  0  0  0  0  0
  144.2545  133.2493  150.1659 N   0  0  0  0  0  0  0  0  0  0  0  0
  143.1880  132.4928  150.8085 C   0  0  0  0  0  0  0  0  0  0  0  0
  144.3441  134.5712  150.7832 C   0  0  0  0  0  0  0  0  0  0  0  0
  145.7208  135.2403  150.5496 C   0  0  0  0  0  0  0  0  0  0  0  0
  146.1667  136.1108  151.6692 N   0  3  2  0  0  0  0  0  0  0  0  0
  145.6795  135.6548  152.9951 C   0  0  0  0  0  0  0  0  0  0  0  0
  146.3991  136.3380  154.1699 C   0  0  0  0  0  0  0  0  0  0  0  0
  145.9485  137.7889  154.4059 C   0  0  0  0  0  0  0  0  0  0  0  0
  146.5919  138.7610  153.5189 N   0  0  0  0  0  0  0  0  0  0  0  0
  147.1592  139.8557  154.0925 C   0  0  0  0  0  0  0  0  0  0  0  0
  146.4585  141.0211  154.1273 N   0  0  0  0  0  0  0  0  0  0  0  0
  146.9915  142.1176  154.6742 C   0  0  0  0  0  0  0  0  0  0  0  0
  148.1900  142.2691  155.2394 N   0  0  0  0  0  0  0  0  0  0  0  0
  148.8958  141.1030  155.2178 C   0  0  0  0  0  0  0  0  0  0  0  0
  148.4622  139.8615  154.6717 C   0  0  0  0  0  0  0  0  0  0  0  0
  149.4514  138.8998  154.8512 N   0  0  0  0  0  0  0  0  0  0  0  0
  150.4170  139.5396  155.4532 C   0  0  0  0  0  0  0  0  0  0  0  0
  150.1663  140.8679  155.7093 N   0  0  0  0  0  0  0  0  0  0  0  0
  151.0522  141.8155  156.3599 C   0  0  0  0  0  0  0  0  0  0  0  0
  150.5143  142.2641  157.7350 C   0  0  2  0  0  0  0  0  0  0  0  0
  149.3452  143.0437  157.5792 O   0  0  0  0  0  0  0  0  0  0  0  0
  151.5300  143.0523  158.5866 C   0  0  1  0  0  0  0  0  0  0  0  0
  151.9720  144.3776  157.9612 C   0  0  0  0  0  0  0  0  0  0  0  0
  152.3846  145.1707  159.1794 C   0  0  0  0  0  0  0  0  0  0  0  0
  151.3239  144.7490  160.1900 C   0  0  0  0  0  0  0  0  0  0  0  0
  150.9889  143.4038  159.8603 O   0  0  0  0  0  0  0  0  0  0  0  0
  146.9795  138.4213  152.1481 C   0  0  0  0  0  0  0  0  0  0  0  0
  145.9480  137.5561  151.4094 C   0  0  0  0  0  0  0  0  0  0  0  0
  146.3259  133.0040  149.8140 H   0  0  0  0  0  0  0  0  0  0  0  0
  145.4064  131.5120  149.8813 H   0  0  0  0  0  0  0  0  0  0  0  0
  145.7658  132.3879  151.3718 H   0  0  0  0  0  0  0  0  0  0  0  0
  142.2300  133.0002  150.6875 H   0  0  0  0  0  0  0  0  0  0  0  0
  143.3759  132.3672  151.8758 H   0  0  0  0  0  0  0  0  0  0  0  0
  143.0938  131.5035  150.3591 H   0  0  0  0  0  0  0  0  0  0  0  0
  143.5799  135.2227  150.3567 H   0  0  0  0  0  0  0  0  0  0  0  0
  144.1057  134.4871  151.8441 H   0  0  0  0  0  0  0  0  0  0  0  0
  146.4996  134.5016  150.3567 H   0  0  0  0  0  0  0  0  0  0  0  0
  145.6762  135.8379  149.6384 H   0  0  0  0  0  0  0  0  0  0  0  0
  144.6010  135.7939  153.0781 H   0  0  0  0  0  0  0  0  0  0  0  0
  145.8591  134.5823  153.0747 H   0  0  0  0  0  0  0  0  0  0  0  0
  146.1581  135.7717  155.0702 H   0  0  0  0  0  0  0  0  0  0  0  0
  147.4830  136.2735  154.0639 H   0  0  0  0  0  0  0  0  0  0  0  0
  144.8654  137.8763  154.3150 H   0  0  0  0  0  0  0  0  0  0  0  0
  146.1868  138.0296  155.4426 H   0  0  0  0  0  0  0  0  0  0  0  0
  146.3697  143.0007  154.6540 H   0  0  0  0  0  0  0  0  0  0  0  0
  151.3446  139.0581  155.7268 H   0  0  0  0  0  0  0  0  0  0  0  0
  152.0293  141.3438  156.4643 H   0  0  0  0  0  0  0  0  0  0  0  0
  151.1903  142.6727  155.6996 H   0  0  0  0  0  0  0  0  0  0  0  0
  150.2121  141.3824  158.3021 H   0  0  0  0  0  0  0  0  0  0  0  0
  149.5091  143.6964  156.9158 H   0  0  0  0  0  0  0  0  0  0  0  0
  152.4253  142.4516  158.7584 H   0  0  0  0  0  0  0  0  0  0  0  0
  152.7784  144.2564  157.2376 H   0  0  0  0  0  0  0  0  0  0  0  0
  151.1409  144.8753  157.4610 H   0  0  0  0  0  0  0  0  0  0  0  0
  153.3736  144.8559  159.5155 H   0  0  0  0  0  0  0  0  0  0  0  0
  152.4066  146.2468  159.0059 H   0  0  0  0  0  0  0  0  0  0  0  0
  151.6701  144.8347  161.2203 H   0  0  0  0  0  0  0  0  0  0  0  0
  150.4296  145.3638  160.0807 H   0  0  0  0  0  0  0  0  0  0  0  0
  147.0840  139.3526  151.5892 H   0  0  0  0  0  0  0  0  0  0  0  0
  147.9615  137.9461  152.1407 H   0  0  0  0  0  0  0  0  0  0  0  0
  146.0886  137.7336  150.3422 H   0  0  0  0  0  0  0  0  0  0  0  0
  144.9246  137.8595  151.6353 H   0  0  0  0  0  0  0  0  0  0  0  0
  147.1694  135.9922  151.6953 H   0  0  0  0  0  0  0  0  0  0  0  0
  1  2  1  0  0  0  0
  1 30  1  0  0  0  0
  1 31  1  0  0  0  0
  1 32  1  0  0  0  0
  2  3  1  0  0  0  0
  2  4  1  0  0  0  0
  3 33  1  0  0  0  0
  3 34  1  0  0  0  0
  3 35  1  0  0  0  0
  4  5  1  0  0  0  0
  4 36  1  0  0  0  0
  4 37  1  0  0  0  0
  5  6  1  0  0  0  0
  5 38  1  0  0  0  0
  5 39  1  0  0  0  0
  6 29  1  0  0  0  0
  6  7  1  0  0  0  0
  6 63  1  0  0  0  0
  7  8  1  0  0  0  0
  7 40  1  0  0  0  0
  7 41  1  0  0  0  0
  8  9  1  0  0  0  0
  8 42  1  0  0  0  0
  8 43  1  0  0  0  0
  9 10  1  0  0  0  0
  9 44  1  0  0  0  0
  9 45  1  0  0  0  0
 10 11  1  0  0  0  0
 10 28  1  0  0  0  0
 11 16  1  0  0  0  0
 11 12  2  0  0  0  0
 12 13  1  0  0  0  0
 13 14  2  0  0  0  0
 13 46  1  0  0  0  0
 14 15  1  0  0  0  0
 15 19  1  0  0  0  0
 15 16  2  0  0  0  0
 16 17  1  0  0  0  0
 17 18  2  0  0  0  0
 18 19  1  0  0  0  0
 18 47  1  0  0  0  0
 19 20  1  0  0  0  0
 20 21  1  0  0  0  0
 20 48  1  0  0  0  0
 20 49  1  0  0  0  0
 21 22  1  0  0  0  0
 21 23  1  0  0  0  0
 21 50  1  0  0  0  0
 22 51  1  0  0  0  0
 23 27  1  0  0  0  0
 23 24  1  0  0  0  0
 23 52  1  0  0  0  0
 24 25  1  0  0  0  0
 24 53  1  0  0  0  0
 24 54  1  0  0  0  0
 25 26  1  0  0  0  0
 25 55  1  0  0  0  0
 25 56  1  0  0  0  0
 26 27  1  0  0  0  0
 26 57  1  0  0  0  0
 26 58  1  0  0  0  0
 28 29  1  0  0  0  0
 28 59  1  0  0  0  0
 28 60  1  0  0  0  0
 29 61  1  0  0  0  0
 29 62  1  0  0  0  0
M  CHG  1   6   1
M  END
> <s_m_source_file>
AV-unprocessed.smi

> <i_m_source_file_index>
155

> <i_lp_mmshare_version>
43012

> <i_f3d_flags>
0

> <s_epik_input>
W0NIM11OKFtDSDNdKVtDSDJdW0NIMl1OMVtDSDJdW0NIMl1bQ0gyXU4oW0NIMl1bQ0gyXTEpYyhuW2NIXW4yKWMoYzIzKW5bY0hdbjNbQ0gyXVtDQEhdKFtPSF0pW0NAQEhdNFtDSDJdW0NIMl1bQ0gyXU80

> <s_epik_cmdline>
J2VwaWtfcHl0aG9uJywgJy1waCcsICc3LjAnLCAnLXRuJywgJzgnLCAnLW1hJywgJzIwMCcsICctbWV0YWxfYmluZGluZycsICctaW1hZScsICc8aW5maWxlLm1hZT4nLCAnLW9tYWUnLCAnPG91dGZpbGUubWFlPic=

> <r_epik_Ionization_Penalty>
0.0619615

> <r_epik_Ionization_Penalty_Charging>
0.0161638

> <r_epik_Ionization_Penalty_Neutral>
0.0457976

> <r_epik_State_Penalty>
0.403408

> <r_epik_Charging_Adjusted_Penalty>
0.419572

> <i_epik_Tot_Q>
1

> <i_epik_Tot_abs_Q>
1

> <r_epik_Metal_State_Penalty>
0.404222

> <b_epik_Metal_Only>
0

> <s_lp_Force_Field>
OPLS_2005

> <r_lp_Energy>
57.0558

> <b_lp_Chiralities_Consistent>
1

> <s_lp_Variant>
AV-unprocessed.smi:155-5

> <Gold.Version>
5.8.1

> <Gold.Id.Protein>
6NUR|6NUR_protein|mol2

> <Gold.PLP.Fitness>
53.1139

> <Gold.PLP.PLP>
-48.6887

> <Gold.PLP.part.hbond>
-2.3893

> <Gold.PLP.part.metal>
0.0000

> <Gold.PLP.part.buried>
-3.5456

> <Gold.PLP.part.nonpolar>
-45.9521

> <Gold.PLP.part.repulsive>
3.5244

> <Gold.PLP.ligand.clash>
0.0000

> <Gold.PLP.ligand.torsion>
2.4440

> <Gold.PLP.Chemscore.Hbond>
3.0000

> <Gold.PLP.Chemscore.CHOScore>
0.0000

> <Gold.PLP.Chemscore.Metal>
0.0000

> <Gold.Chemscore.Hbonds>
donor molecule, donor type, donor heavy atom, donor atom, acceptor molecule, acceptor atom, score
      L1  H     6    63       P1  7948  2.00
      L1  H    22    51       P1  8028  0.98

> <Gold.PLP.Chemscore.Internal.Correction>
0.3131

> <Gold.Rescore>
     Score         DG    S(hbond)    S(metal)    S(lipo)     H(rot)  DE(clash)    DE(int)     intcor
     14.46     -19.04       1.85        0.00     120.63       2.63       2.35       2.24       ----

> <Gold.Chemscore.Fitness>
14.4616

> <Gold.Chemscore.DG>
-19.0444

> <Gold.Chemscore.ZeroCoef>
-5.4800

> <Gold.Chemscore.Hbond>
1.8530

> <Gold.Chemscore.Metal>
0.0000

> <Gold.Chemscore.Lipo>
120.6338

> <Gold.Chemscore.Internal_Hbond>
0.0000

> <Gold.Chemscore.DEClash>
2.3466

> <Gold.Chemscore.DEInternal>
2.2363

> <Gold.Chemscore.Rot>
2.6324

> <Gold.Chemscore.Internal.Correction>
   9.000000E+99

> <Gold.Chemscore.Hbonds>
donor molecule, donor type, donor heavy atom, donor atom, acceptor molecule, acceptor atom, score
      L1  H     6    63       P1  7948  1.00
      L1  H    22    51       P1  8028  0.87

> <Gold.Chemscore.Hbond.Weighted>
-6.1892

> <Gold.Chemscore.Metal.Weighted>
-0.0000

> <Gold.Chemscore.Lipo.Weighted>
-14.1142

> <Gold.Chemscore.Internal_Hbond.Weighted>
0.0000

> <Gold.Chemscore.DEClash.Weighted>
2.3466

> <Gold.Chemscore.DEInternal.Weighted>
2.2363

> <Gold.Chemscore.Rot.Weighted>
6.7389

> <Gold.Chemscore.Internal.Correction.Weighted>
   9.000000E+99

> <Gold.Protein.RotatedTorsions>
[ 6907 6896 6895 6894 ] final -157.98 input  -60.11 | X-H torsion
[ 7974 7965 7964 7962 ] final -161.49 input  175.53 | X-H torsion
[ 8008 7997 7996 7995 ] final  -76.56 input   59.86 | X-H torsion
[ 10167 10162 10161 10158 ] final -115.74 input  -65.29 | X-H torsion
[ 10718 10713 10712 10709 ] final -117.23 input   66.30 | X-H torsion
[ 10763 10752 10751 10750 ] final   47.86 input  -60.55 | X-H torsion
[ 11005 11000 10999 10996 ] final  -49.45 input  -57.11 | X-H torsion

> <Gold.Protein.ActiveResidues>
 VAL166  LYS551  ARG553  GLY616  TRP617  ASP618  TYR619  PRO620  LYS621  CYS622 
 ASP623  PHE694  ASN695  SER759  ASP760  ASP761  ALA762  ILE779  LEU786  VAL792 
 PHE793  MET794  SER795  GLU796  ALA797  LYS798  CYS799  TRP800  GLU811  SER814 

> <Gold.Protein.RotatedAtoms>
  151.3112  133.4080  159.2646 H   0  0  0  0  0  0  0  0  0  0  0  0  # atno 6907 bound_to 6896
  151.0113  134.9399  159.8019 H   0  0  0  0  0  0  0  0  0  0  0  0  # atno 6908 bound_to 6896
  152.5301  134.3076  159.9154 H   0  0  0  0  0  0  0  0  0  0  0  0  # atno 6909 bound_to 6896
  144.7389  140.3389  143.6138 H   0  0  0  0  0  0  0  0  0  0  0  0  # atno 7974 bound_to 7965
  154.5516  140.0725  156.8677 H   0  0  0  0  0  0  0  0  0  0  0  0  # atno 8008 bound_to 7997
  155.2981  140.3382  155.4231 H   0  0  0  0  0  0  0  0  0  0  0  0  # atno 8009 bound_to 7997
  156.1966  140.1706  156.7971 H   0  0  0  0  0  0  0  0  0  0  0  0  # atno 8010 bound_to 7997
  140.0868  143.4736  152.1893 H   0  0  0  0  0  0  0  0  0  0  0  0  # atno 10167 bound_to 10162
  156.1019  130.6179  150.9137 H   0  0  0  0  0  0  0  0  0  0  0  0  # atno 10718 bound_to 10713
  152.9796  135.5962  154.3832 H   0  0  0  0  0  0  0  0  0  0  0  0  # atno 10763 bound_to 10752
  154.3495  135.2767  155.2381 H   0  0  0  0  0  0  0  0  0  0  0  0  # atno 10764 bound_to 10752
  154.4427  135.6009  153.6195 H   0  0  0  0  0  0  0  0  0  0  0  0  # atno 10765 bound_to 10752
  141.0760  133.6666  156.3588 H   0  0  0  0  0  0  0  0  0  0  0  0  # atno 11005 bound_to 11000
  145.7394  139.1760  143.2384 LP  0  0  0  0  0  0  0  0  0  0  0  0  # atno 17320 bound_to 7965
  146.1145  140.7386  142.9487 LP  0  0  0  0  0  0  0  0  0  0  0  0  # atno 17321 bound_to 7965
  139.5747  144.7481  151.3796 LP  0  0  0  0  0  0  0  0  0  0  0  0  # atno 17342 bound_to 10162
  140.7049  143.7538  150.7465 LP  0  0  0  0  0  0  0  0  0  0  0  0  # atno 17343 bound_to 10162
  157.6190  131.0931  150.8657 LP  0  0  0  0  0  0  0  0  0  0  0  0  # atno 17370 bound_to 10713
  156.8783  130.5170  149.5292 LP  0  0  0  0  0  0  0  0  0  0  0  0  # atno 17371 bound_to 10713
  140.5572  134.5969  157.5424 LP  0  0  0  0  0  0  0  0  0  0  0  0  # atno 17394 bound_to 11000
  139.9572  134.7514  156.0315 LP  0  0  0  0  0  0  0  0  0  0  0  0  # atno 17395 bound_to 11000

$$$$
