AV-unprocessed.smi:793|AV-procd|sdf|3753|dock1
  -GOLD-   22720 1183D 1   1.00000     0.00000
 Structure written by MMmdl.
 39 40  0  0  0  0  0  0  0  0  1 V2000
  153.7167  137.4355  158.3016 C   0  0  0  0  0  0  0  0  0  0  0  0
  153.0473  138.0833  157.0831 C   0  0  0  0  0  0  0  0  0  0  0  0
  152.0410  139.1829  157.4710 C   0  0  1  0  0  0  0  0  0  0  0  0
  152.7740  140.2581  158.0565 O   0  0  0  0  0  0  0  0  0  0  0  0
  152.1771  140.8902  159.1871 C   0  0  0  0  0  0  0  0  0  0  0  0
  151.4269  142.1528  158.7480 C   0  0  0  0  0  0  0  0  0  0  0  0
  152.4913  143.2519  158.6278 C   0  0  0  0  0  0  0  0  0  0  0  0
  153.7292  142.7434  159.3809 C   0  0  0  0  0  0  0  0  0  0  0  0
  153.3027  141.4405  160.0623 C   0  0  0  0  0  0  0  0  0  0  0  0
  151.2503  139.6790  156.2488 C   0  0  0  0  0  0  0  0  0  0  0  0
  151.8591  140.1008  155.2659 O   0  0  0  0  0  0  0  0  0  0  0  0
  149.9093  139.6160  156.3652 N   0  0  0  0  0  0  0  0  0  0  0  0
  148.9120  140.0068  155.4567 C   0  0  0  0  0  0  0  0  0  0  0  0
  149.0353  140.0425  154.1048 C   0  0  0  0  0  0  0  0  0  0  0  0
  148.0193  140.4389  153.2467 N   0  0  0  0  0  0  0  0  0  0  0  0
  146.8012  140.8245  153.7824 C   0  0  0  0  0  0  0  0  0  0  0  0
  146.5485  140.8384  155.1058 C   0  0  0  0  0  0  0  0  0  0  0  0
  147.6105  140.4245  156.0502 C   0  0  0  0  0  0  0  0  0  0  0  0
  147.4151  140.4299  157.2655 O   0  0  0  0  0  0  0  0  0  0  0  0
  154.4115  136.6544  157.9922 H   0  0  0  0  0  0  0  0  0  0  0  0
  152.9777  136.9810  158.9618 H   0  0  0  0  0  0  0  0  0  0  0  0
  154.2780  138.1691  158.8810 H   0  0  0  0  0  0  0  0  0  0  0  0
  153.8164  138.4942  156.4275 H   0  0  0  0  0  0  0  0  0  0  0  0
  152.5399  137.3052  156.5108 H   0  0  0  0  0  0  0  0  0  0  0  0
  151.3506  138.7702  158.2097 H   0  0  0  0  0  0  0  0  0  0  0  0
  151.5429  140.2064  159.7540 H   0  0  0  0  0  0  0  0  0  0  0  0
  150.8625  142.0184  157.8253 H   0  0  0  0  0  0  0  0  0  0  0  0
  150.7128  142.4312  159.5242 H   0  0  0  0  0  0  0  0  0  0  0  0
  152.7394  143.4329  157.5813 H   0  0  0  0  0  0  0  0  0  0  0  0
  152.1269  144.1920  159.0434 H   0  0  0  0  0  0  0  0  0  0  0  0
  154.5292  142.5386  158.6684 H   0  0  0  0  0  0  0  0  0  0  0  0
  154.1085  143.4727  160.0970 H   0  0  0  0  0  0  0  0  0  0  0  0
  152.9126  141.6627  161.0564 H   0  0  0  0  0  0  0  0  0  0  0  0
  154.1275  140.7373  160.1823 H   0  0  0  0  0  0  0  0  0  0  0  0
  149.5572  139.2267  157.2280 H   0  0  0  0  0  0  0  0  0  0  0  0
  149.9316  139.7716  153.5711 H   0  0  0  0  0  0  0  0  0  0  0  0
  146.0663  141.1152  153.0459 H   0  0  0  0  0  0  0  0  0  0  0  0
  145.5881  141.1444  155.4939 H   0  0  0  0  0  0  0  0  0  0  0  0
  148.1666  140.4455  152.2471 H   0  0  0  0  0  0  0  0  0  0  0  0
  1  2  1  0  0  0  0
  1 20  1  0  0  0  0
  1 21  1  0  0  0  0
  1 22  1  0  0  0  0
  2  3  1  0  0  0  0
  2 23  1  0  0  0  0
  2 24  1  0  0  0  0
  3  4  1  0  0  0  0
  3 10  1  0  0  0  0
  3 25  1  0  0  0  0
  4  5  1  0  0  0  0
  5  9  1  0  0  0  0
  5  6  1  0  0  0  0
  5 26  1  0  0  0  0
  6  7  1  0  0  0  0
  6 27  1  0  0  0  0
  6 28  1  0  0  0  0
  7  8  1  0  0  0  0
  7 29  1  0  0  0  0
  7 30  1  0  0  0  0
  8  9  1  0  0  0  0
  8 31  1  0  0  0  0
  8 32  1  0  0  0  0
  9 33  1  0  0  0  0
  9 34  1  0  0  0  0
 10 11  2  0  0  0  0
 10 12  1  0  0  0  0
 12 35  1  0  0  0  0
 12 13  1  0  0  0  0
 13 18  1  0  0  0  0
 13 14  2  0  0  0  0
 14 36  1  0  0  0  0
 14 15  1  0  0  0  0
 15 39  1  0  0  0  0
 15 16  1  0  0  0  0
 16 37  1  0  0  0  0
 16 17  2  0  0  0  0
 17 18  1  0  0  0  0
 17 38  1  0  0  0  0
 18 19  2  0  0  0  0
M  END
> <s_m_source_file>
AV-unprocessed.smi

> <i_m_source_file_index>
793

> <i_lp_mmshare_version>
43012

> <i_f3d_flags>
0

> <s_epik_input>
W0NIMl0xW0NIMl1bQ0gyXVtDSDJdW0NIXTFPW0NAQEhdKFtDSDJdW0NIM10pQyg9TylbTkhdYzJbY0hdbltjSF1bY0hdYzJbT0hd

> <s_epik_cmdline>
J2VwaWtfcHl0aG9uJywgJy1waCcsICc3LjAnLCAnLXRuJywgJzgnLCAnLW1hJywgJzIwMCcsICctbWV0YWxfYmluZGluZycsICctaW1hZScsICc8aW5maWxlLm1hZT4nLCAnLW9tYWUnLCAnPG91dGZpbGUubWFlPic=

> <r_lp_tautomer_probability>
1

> <r_epik_Ionization_Penalty>
0.000234492

> <r_epik_Ionization_Penalty_Charging>
0.000234447

> <r_epik_Ionization_Penalty_Neutral>
4.48517e-08

> <r_epik_State_Penalty>
-0

> <r_epik_Charging_Adjusted_Penalty>
0.000234447

> <i_epik_Tot_Q>
0

> <i_epik_Tot_abs_Q>
0

> <r_epik_Metal_State_Penalty>
0.110344

> <b_epik_Metal_Only>
0

> <s_lp_Force_Field>
OPLS_2005

> <r_lp_Energy>
26.0672

> <b_lp_Chiralities_Consistent>
1

> <s_lp_Variant>
AV-unprocessed.smi:793-2

> <Gold.Version>
5.8.1

> <Gold.Id.Protein>
6NUR|6NUR_protein|mol2

> <Gold.PLP.Fitness>
37.6213

> <Gold.PLP.PLP>
-28.1026

> <Gold.PLP.part.hbond>
-3.0000

> <Gold.PLP.part.metal>
0.0000

> <Gold.PLP.part.buried>
-3.4626

> <Gold.PLP.part.nonpolar>
-21.6734

> <Gold.PLP.part.repulsive>
0.1568

> <Gold.PLP.ligand.clash>
0.0000

> <Gold.PLP.ligand.torsion>
1.2045

> <Gold.PLP.Chemscore.Hbond>
2.2970

> <Gold.PLP.Chemscore.CHOScore>
1.6325

> <Gold.PLP.Chemscore.Metal>
0.0000

> <Gold.Chemscore.Hbonds>
donor molecule, donor type, donor heavy atom, donor atom, acceptor molecule, acceptor atom, score
      L1  H    15    39       P1  7957  0.70
      P1  H  7989  7998       L1    11  0.86
      P1  H  7997  8008       L1     4  0.78
      L1  C    14    36       P1  7957  0.62
      L1  C    16    37       P1 10175  1.00

> <Gold.PLP.Chemscore.Internal.Correction>
0.1394

> <Gold.Rescore>
     Score         DG    S(hbond)    S(metal)    S(lipo)     H(rot)  DE(clash)    DE(int)     intcor
     15.54     -17.56       1.85        0.00      85.59       1.61       0.18       1.84       ----

> <Gold.Chemscore.Fitness>
15.5420

> <Gold.Chemscore.DG>
-17.5647

> <Gold.Chemscore.ZeroCoef>
-5.4800

> <Gold.Chemscore.Hbond>
1.8511

> <Gold.Chemscore.Metal>
0.0000

> <Gold.Chemscore.Lipo>
85.5865

> <Gold.Chemscore.Internal_Hbond>
0.0000

> <Gold.Chemscore.DEClash>
0.1815

> <Gold.Chemscore.DEInternal>
1.8412

> <Gold.Chemscore.Rot>
1.6061

> <Gold.Chemscore.Internal.Correction>
   9.000000E+99

> <Gold.Chemscore.Hbonds>
donor molecule, donor type, donor heavy atom, donor atom, acceptor molecule, acceptor atom, score
      L1  H    15    39       P1  7957  0.70
      P1  H  7989  7998       L1    11  0.84
      P1  H  7997  8008       L1     4  0.19

> <Gold.Chemscore.Hbond.Weighted>
-6.1827

> <Gold.Chemscore.Metal.Weighted>
-0.0000

> <Gold.Chemscore.Lipo.Weighted>
-10.0136

> <Gold.Chemscore.Internal_Hbond.Weighted>
0.0000

> <Gold.Chemscore.DEClash.Weighted>
0.1815

> <Gold.Chemscore.DEInternal.Weighted>
1.8412

> <Gold.Chemscore.Rot.Weighted>
4.1116

> <Gold.Chemscore.Internal.Correction.Weighted>
   9.000000E+99

> <Gold.Protein.RotatedTorsions>
[ 6907 6896 6895 6894 ] final -112.26 input  -60.11 | X-H torsion
[ 7974 7965 7964 7962 ] final -122.79 input  175.53 | X-H torsion
[ 8008 7997 7996 7995 ] final  -84.97 input   59.86 | X-H torsion
[ 10167 10162 10161 10158 ] final -146.62 input  -65.29 | X-H torsion
[ 10718 10713 10712 10709 ] final   71.04 input   66.30 | X-H torsion
[ 10763 10752 10751 10750 ] final   15.26 input  -60.55 | X-H torsion
[ 11005 11000 10999 10996 ] final    8.89 input  -57.11 | X-H torsion

> <Gold.Protein.ActiveResidues>
 VAL166  LYS551  ARG553  GLY616  TRP617  ASP618  TYR619  PRO620  LYS621  CYS622 
 ASP623  PHE694  ASN695  SER759  ASP760  ASP761  ALA762  ILE779  LEU786  VAL792 
 PHE793  MET794  SER795  GLU796  ALA797  LYS798  CYS799  TRP800  GLU811  SER814 

> <Gold.Protein.RotatedAtoms>
  150.7746  133.9115  159.3370 H   0  0  0  0  0  0  0  0  0  0  0  0  # atno 6907 bound_to 6896
  151.6993  135.0931  160.0257 H   0  0  0  0  0  0  0  0  0  0  0  0  # atno 6908 bound_to 6896
  152.3777  133.6466  159.6172 H   0  0  0  0  0  0  0  0  0  0  0  0  # atno 6909 bound_to 6896
  145.0257  140.8025  143.4354 H   0  0  0  0  0  0  0  0  0  0  0  0  # atno 7974 bound_to 7965
  154.6356  140.0598  156.9785 H   0  0  0  0  0  0  0  0  0  0  0  0  # atno 8008 bound_to 7997
  155.1597  140.3281  155.4395 H   0  0  0  0  0  0  0  0  0  0  0  0  # atno 8009 bound_to 7997
  156.2505  140.1933  156.6704 H   0  0  0  0  0  0  0  0  0  0  0  0  # atno 8010 bound_to 7997
  139.7697  143.8256  152.2622 H   0  0  0  0  0  0  0  0  0  0  0  0  # atno 10167 bound_to 10162
  157.6431  130.9508  150.0734 H   0  0  0  0  0  0  0  0  0  0  0  0  # atno 10718 bound_to 10713
  153.1542  135.6784  153.8837 H   0  0  0  0  0  0  0  0  0  0  0  0  # atno 10763 bound_to 10752
  153.8253  135.3125  155.3415 H   0  0  0  0  0  0  0  0  0  0  0  0  # atno 10764 bound_to 10752
  154.7885  135.4848  154.0087 H   0  0  0  0  0  0  0  0  0  0  0  0  # atno 10765 bound_to 10752
  140.5318  134.0458  155.7876 H   0  0  0  0  0  0  0  0  0  0  0  0  # atno 11005 bound_to 11000
  145.1837  139.2338  143.5279 LP  0  0  0  0  0  0  0  0  0  0  0  0  # atno 17320 bound_to 7965
  146.3492  140.1617  142.8590 LP  0  0  0  0  0  0  0  0  0  0  0  0  # atno 17321 bound_to 7965
  139.8287  144.7263  150.9478 LP  0  0  0  0  0  0  0  0  0  0  0  0  # atno 17342 bound_to 10162
  140.7813  143.4090  151.1023 LP  0  0  0  0  0  0  0  0  0  0  0  0  # atno 17343 bound_to 10162
  156.1731  130.3647  149.9137 LP  0  0  0  0  0  0  0  0  0  0  0  0  # atno 17370 bound_to 10713
  156.7107  130.8969  151.3609 LP  0  0  0  0  0  0  0  0  0  0  0  0  # atno 17371 bound_to 10713
  141.1277  133.9355  157.2601 LP  0  0  0  0  0  0  0  0  0  0  0  0  # atno 17394 bound_to 11000
  139.9550  135.0167  156.9102 LP  0  0  0  0  0  0  0  0  0  0  0  0  # atno 17395 bound_to 11000

$$$$
