AV-unprocessed.smi:3161|AV-procd|sdf|12056|dock9
  -GOLD-   2272017483D 1   1.00000     0.00000
 Structure written by MMmdl.
 41 42  0  0  0  0  0  0  0  0  2 V2000
  153.4621  137.9367  157.1637 C   0  0  0  0  0  0  0  0  0  0  0  0
  152.5717  138.6077  156.1579 C   0  0  0  0  0  0  0  0  0  0  0  0
  152.9428  139.1911  154.9130 C   0  0  0  0  0  0  0  0  0  0  0  0
  151.9138  139.7052  154.2588 N   0  0  0  0  0  0  0  0  0  0  0  0
  150.8527  139.4641  155.0572 N   0  0  0  0  0  0  0  0  0  0  0  0
  149.5306  139.9048  154.6499 C   0  0  0  0  0  0  0  0  0  0  0  0
  149.3984  141.4447  154.5831 C   0  0  1  0  0  0  0  0  0  0  0  0
  148.0328  141.8959  154.0369 C   0  0  0  0  0  0  0  0  0  0  0  0
  149.6164  142.0594  155.9115 N   0  3  0  0  0  0  0  0  0  0  0  0
  150.9819  141.9233  156.4619 C   0  0  0  0  0  0  0  0  0  0  0  0
  151.1354  142.7413  157.7522 C   0  0  2  0  0  0  0  0  0  0  0  0
  151.5552  144.1967  157.4660 C   0  0  0  0  0  0  0  0  0  0  0  0
  151.7877  144.9581  158.7763 C   0  0  0  0  0  0  0  0  0  0  0  0
  152.7727  144.1824  159.6570 C   0  0  0  0  0  0  0  0  0  0  0  0
  152.3052  142.7284  159.8281 C   0  0  0  0  0  0  0  0  0  0  0  0
  152.1395  142.1188  158.5513 O   0  0  0  0  0  0  0  0  0  0  0  0
  151.2217  138.8098  156.2134 C   0  0  0  0  0  0  0  0  0  0  0  0
  154.3642  137.5354  156.7013 H   0  0  0  0  0  0  0  0  0  0  0  0
  152.9593  137.1052  157.6580 H   0  0  0  0  0  0  0  0  0  0  0  0
  153.7802  138.6295  157.9429 H   0  0  0  0  0  0  0  0  0  0  0  0
  153.9250  139.2567  154.4686 H   0  0  0  0  0  0  0  0  0  0  0  0
  149.3107  139.4672  153.6750 H   0  0  0  0  0  0  0  0  0  0  0  0
  148.8115  139.4800  155.3506 H   0  0  0  0  0  0  0  0  0  0  0  0
  150.1614  141.8351  153.9077 H   0  0  0  0  0  0  0  0  0  0  0  0
  147.8727  141.5496  153.0155 H   0  0  0  0  0  0  0  0  0  0  0  0
  147.9573  142.9837  154.0210 H   0  0  0  0  0  0  0  0  0  0  0  0
  147.2152  141.5145  154.6496 H   0  0  0  0  0  0  0  0  0  0  0  0
  149.4257  143.0472  155.8238 H   0  0  0  0  0  0  0  0  0  0  0  0
  151.2109  140.8760  156.6591 H   0  0  0  0  0  0  0  0  0  0  0  0
  151.6967  142.2756  155.7172 H   0  0  0  0  0  0  0  0  0  0  0  0
  150.1863  142.7375  158.2917 H   0  0  0  0  0  0  0  0  0  0  0  0
  152.4707  144.2069  156.8727 H   0  0  0  0  0  0  0  0  0  0  0  0
  150.7927  144.7021  156.8727 H   0  0  0  0  0  0  0  0  0  0  0  0
  152.1659  145.9604  158.5732 H   0  0  0  0  0  0  0  0  0  0  0  0
  150.8409  145.0803  159.3039 H   0  0  0  0  0  0  0  0  0  0  0  0
  153.7625  144.1954  159.1989 H   0  0  0  0  0  0  0  0  0  0  0  0
  152.8715  144.6646  160.6300 H   0  0  0  0  0  0  0  0  0  0  0  0
  153.0433  142.1620  160.3962 H   0  0  0  0  0  0  0  0  0  0  0  0
  151.3701  142.6833  160.3885 H   0  0  0  0  0  0  0  0  0  0  0  0
  150.5007  138.5418  156.9717 H   0  0  0  0  0  0  0  0  0  0  0  0
  148.9571  141.6653  156.5678 H   0  0  0  0  0  0  0  0  0  0  0  0
  1  2  1  0  0  0  0
  1 18  1  0  0  0  0
  1 19  1  0  0  0  0
  1 20  1  0  0  0  0
  2 17  2  0  0  0  0
  2  3  1  0  0  0  0
  3  4  2  0  0  0  0
  3 21  1  0  0  0  0
  4  5  1  0  0  0  0
  5  6  1  0  0  0  0
  5 17  1  0  0  0  0
  6  7  1  0  0  0  0
  6 22  1  0  0  0  0
  6 23  1  0  0  0  0
  7  8  1  0  0  0  0
  7  9  1  0  0  0  0
  7 24  1  0  0  0  0
  8 25  1  0  0  0  0
  8 26  1  0  0  0  0
  8 27  1  0  0  0  0
  9 10  1  0  0  0  0
  9 28  1  0  0  0  0
  9 41  1  0  0  0  0
 10 11  1  0  0  0  0
 10 29  1  0  0  0  0
 10 30  1  0  0  0  0
 11 16  1  0  0  0  0
 11 12  1  0  0  0  0
 11 31  1  0  0  0  0
 12 13  1  0  0  0  0
 12 32  1  0  0  0  0
 12 33  1  0  0  0  0
 13 14  1  0  0  0  0
 13 34  1  0  0  0  0
 13 35  1  0  0  0  0
 14 15  1  0  0  0  0
 14 36  1  0  0  0  0
 14 37  1  0  0  0  0
 15 16  1  0  0  0  0
 15 38  1  0  0  0  0
 15 39  1  0  0  0  0
 17 40  1  0  0  0  0
M  CHG  1   9   1
M  END
> <s_m_source_file>
AV-unprocessed.smi

> <i_m_source_file_index>
3161

> <i_lp_mmshare_version>
43012

> <i_f3d_flags>
0

> <s_epik_input>
W0NIM11jMVtjSF1ubihbY0hdMSlbQ0gyXVtDQEhdKFtDSDNdKVtOSF1bQ0gyXVtDQEBIXTJbQ0gyXVtDSDJdW0NIMl1bQ0gyXU8y

> <s_epik_cmdline>
J2VwaWtfcHl0aG9uJywgJy1waCcsICc3LjAnLCAnLXRuJywgJzgnLCAnLW1hJywgJzIwMCcsICctbWV0YWxfYmluZGluZycsICctaW1hZScsICc8aW5maWxlLm1hZT4nLCAnLW9tYWUnLCAnPG91dGZpbGUubWFlPic=

> <r_lp_tautomer_probability>
1

> <r_epik_Ionization_Penalty>
0.00849661

> <r_epik_Ionization_Penalty_Charging>
0.00848754

> <r_epik_Ionization_Penalty_Neutral>
9.06711e-06

> <r_epik_State_Penalty>
0.00639836

> <r_epik_Charging_Adjusted_Penalty>
0.0148859

> <i_epik_Tot_Q>
1

> <i_epik_Tot_abs_Q>
1

> <r_epik_Metal_State_Penalty>
0.00639921

> <b_epik_Metal_Only>
0

> <s_lp_Force_Field>
OPLS_2005

> <r_lp_Energy>
12.4763

> <b_lp_Chiralities_Consistent>
1

> <s_lp_Variant>
AV-unprocessed.smi:3161-2

> <Gold.Version>
5.8.1

> <Gold.Id.Protein>
6NUR|6NUR_protein|mol2

> <Gold.PLP.Fitness>
47.2444

> <Gold.PLP.PLP>
-39.0566

> <Gold.PLP.part.hbond>
-1.9964

> <Gold.PLP.part.metal>
0.0000

> <Gold.PLP.part.buried>
-1.7221

> <Gold.PLP.part.nonpolar>
-35.2536

> <Gold.PLP.part.repulsive>
0.2163

> <Gold.PLP.ligand.clash>
0.0000

> <Gold.PLP.ligand.torsion>
0.4197

> <Gold.PLP.Chemscore.Hbond>
3.0000

> <Gold.PLP.Chemscore.CHOScore>
0.0000

> <Gold.PLP.Chemscore.Metal>
0.0000

> <Gold.Chemscore.Hbonds>
donor molecule, donor type, donor heavy atom, donor atom, acceptor molecule, acceptor atom, score
      L1  H     9    28       P1  8028  2.00
      P1  H  7989  7998       L1     4  0.60

> <Gold.PLP.Chemscore.Internal.Correction>
0.0271

> <Gold.Rescore>
     Score         DG    S(hbond)    S(metal)    S(lipo)     H(rot)  DE(clash)    DE(int)     intcor
     19.34     -21.16       1.96        0.00     112.38       1.57       0.30       1.52       ----

> <Gold.Chemscore.Fitness>
19.3450

> <Gold.Chemscore.DG>
-21.1622

> <Gold.Chemscore.ZeroCoef>
-5.4800

> <Gold.Chemscore.Hbond>
1.9630

> <Gold.Chemscore.Metal>
0.0000

> <Gold.Chemscore.Lipo>
112.3821

> <Gold.Chemscore.Internal_Hbond>
0.0000

> <Gold.Chemscore.DEClash>
0.3003

> <Gold.Chemscore.DEInternal>
1.5169

> <Gold.Chemscore.Rot>
1.5714

> <Gold.Chemscore.Internal.Correction>
   9.000000E+99

> <Gold.Chemscore.Hbonds>
donor molecule, donor type, donor heavy atom, donor atom, acceptor molecule, acceptor atom, score
      L1  H     9    28       P1  8028  1.00
      P1  H  7989  7998       L1     4  0.44

> <Gold.Chemscore.Hbond.Weighted>
-6.5563

> <Gold.Chemscore.Metal.Weighted>
-0.0000

> <Gold.Chemscore.Lipo.Weighted>
-13.1487

> <Gold.Chemscore.Internal_Hbond.Weighted>
0.0000

> <Gold.Chemscore.DEClash.Weighted>
0.3003

> <Gold.Chemscore.DEInternal.Weighted>
1.5169

> <Gold.Chemscore.Rot.Weighted>
4.0228

> <Gold.Chemscore.Internal.Correction.Weighted>
   9.000000E+99

> <Gold.Protein.RotatedTorsions>
[ 6907 6896 6895 6894 ] final -164.03 input  -60.11 | X-H torsion
[ 7974 7965 7964 7962 ] final   11.24 input  175.53 | X-H torsion
[ 8008 7997 7996 7995 ] final   50.38 input   59.86 | X-H torsion
[ 10167 10162 10161 10158 ] final   31.24 input  -65.29 | X-H torsion
[ 10718 10713 10712 10709 ] final   -6.37 input   66.30 | X-H torsion
[ 10763 10752 10751 10750 ] final  -87.96 input  -60.55 | X-H torsion
[ 11005 11000 10999 10996 ] final  -68.19 input  -57.11 | X-H torsion

> <Gold.Protein.ActiveResidues>
 VAL166  LYS551  ARG553  GLY616  TRP617  ASP618  TYR619  PRO620  LYS621  CYS622 
 ASP623  PHE694  ASN695  SER759  ASP760  ASP761  ALA762  ILE779  LEU786  VAL792 
 PHE793  MET794  SER795  GLU796  ALA797  LYS798  CYS799  TRP800  GLU811  SER814 

> <Gold.Protein.RotatedAtoms>
  151.4053  133.3744  159.2736 H   0  0  0  0  0  0  0  0  0  0  0  0  # atno 6907 bound_to 6896
  150.9403  134.8814  159.7618 H   0  0  0  0  0  0  0  0  0  0  0  0  # atno 6908 bound_to 6896
  152.5068  134.4003  159.9466 H   0  0  0  0  0  0  0  0  0  0  0  0  # atno 6909 bound_to 6896
  146.2374  139.9514  142.8470 H   0  0  0  0  0  0  0  0  0  0  0  0  # atno 7974 bound_to 7965
  155.4178  140.3445  155.4269 H   0  0  0  0  0  0  0  0  0  0  0  0  # atno 8008 bound_to 7997
  156.1411  140.1542  156.8951 H   0  0  0  0  0  0  0  0  0  0  0  0  # atno 8009 bound_to 7997
  154.4971  140.0825  156.7701 H   0  0  0  0  0  0  0  0  0  0  0  0  # atno 8010 bound_to 7997
  140.4606  144.0911  150.6212 H   0  0  0  0  0  0  0  0  0  0  0  0  # atno 10167 bound_to 10162
  156.7328  130.5185  149.5841 H   0  0  0  0  0  0  0  0  0  0  0  0  # atno 10718 bound_to 10713
  154.6393  135.5394  153.7771 H   0  0  0  0  0  0  0  0  0  0  0  0  # atno 10763 bound_to 10752
  153.0325  135.6455  154.1183 H   0  0  0  0  0  0  0  0  0  0  0  0  # atno 10764 bound_to 10752
  154.1108  135.2927  155.3211 H   0  0  0  0  0  0  0  0  0  0  0  0  # atno 10765 bound_to 10752
  141.1526  133.6735  156.6408 H   0  0  0  0  0  0  0  0  0  0  0  0  # atno 11005 bound_to 11000
  145.1858  140.9788  143.4240 LP  0  0  0  0  0  0  0  0  0  0  0  0  # atno 17320 bound_to 7965
  144.9901  139.3697  143.6219 LP  0  0  0  0  0  0  0  0  0  0  0  0  # atno 17321 bound_to 7965
  140.4097  143.2663  151.9847 LP  0  0  0  0  0  0  0  0  0  0  0  0  # atno 17342 bound_to 10162
  139.4806  144.5926  151.7746 LP  0  0  0  0  0  0  0  0  0  0  0  0  # atno 17343 bound_to 10162
  156.1517  130.6314  151.0604 LP  0  0  0  0  0  0  0  0  0  0  0  0  # atno 17370 bound_to 10713
  157.6851  131.0827  150.7264 LP  0  0  0  0  0  0  0  0  0  0  0  0  # atno 17371 bound_to 10713
  140.3395  134.7861  157.4387 LP  0  0  0  0  0  0  0  0  0  0  0  0  # atno 17394 bound_to 11000
  140.0950  134.5550  155.8407 LP  0  0  0  0  0  0  0  0  0  0  0  0  # atno 17395 bound_to 11000

$$$$
