AV-unprocessed.smi:2217|AV-procd|sdf|8971|dock2
  -GOLD-   2272012183D 1   1.00000     0.00000
 Structure written by MMmdl.
 45 48  0  0  0  0  0  0  0  0  1 V2000
  142.3881  144.7320  161.6595 C   0  0  0  0  0  0  0  0  0  0  0  0
  143.5519  144.4258  160.7400 C   0  0  0  0  0  0  0  0  0  0  0  0
  144.7155  143.7954  161.2193 C   0  0  0  0  0  0  0  0  0  0  0  0
  145.7664  143.5358  160.3184 C   0  0  0  0  0  0  0  0  0  0  0  0
  145.6325  143.9067  158.9612 C   0  0  0  0  0  0  0  0  0  0  0  0
  146.7641  143.5977  158.1499 N   0  0  0  0  0  0  0  0  0  0  0  0
  147.7557  142.6947  158.3064 C   0  0  0  0  0  0  0  0  0  0  0  0
  147.7894  141.9521  159.2862 O   0  0  0  0  0  0  0  0  0  0  0  0
  148.6853  142.6602  157.3390 N   0  0  0  0  0  0  0  0  0  0  0  0
  149.8537  141.7885  157.3375 C   0  0  1  0  0  0  0  0  0  0  0  0
  150.4127  141.5606  155.9237 C   0  0  2  0  0  0  0  0  0  0  0  0
  150.3662  140.1866  155.3131 C   0  0  0  0  0  0  0  0  0  0  0  0
  151.7485  139.6179  155.6465 C   0  0  0  0  0  0  0  0  0  0  0  0
  152.1994  140.3905  156.7568 O   0  0  0  0  0  0  0  0  0  0  0  0
  151.7952  141.7392  156.5332 C   0  0  2  0  0  0  0  0  0  0  0  0
  151.1749  142.4898  157.7309 C   0  0  0  0  0  0  0  0  0  0  0  0
  151.7646  142.2174  159.1121 C   0  0  0  0  0  0  0  0  0  0  0  0
  152.8445  143.2755  159.3676 C   0  0  0  0  0  0  0  0  0  0  0  0
  152.5823  144.3953  158.3555 C   0  0  0  0  0  0  0  0  0  0  0  0
  151.2716  144.0168  157.6660 C   0  0  0  0  0  0  0  0  0  0  0  0
  144.5070  144.5193  158.5127 N   0  0  0  0  0  0  0  0  0  0  0  0
  143.5002  144.7691  159.3759 C   0  0  0  0  0  0  0  0  0  0  0  0
  142.5256  144.2714  162.6382 H   0  0  0  0  0  0  0  0  0  0  0  0
  141.4585  144.3542  161.2332 H   0  0  0  0  0  0  0  0  0  0  0  0
  142.2908  145.8090  161.7985 H   0  0  0  0  0  0  0  0  0  0  0  0
  144.8057  143.5141  162.2581 H   0  0  0  0  0  0  0  0  0  0  0  0
  146.6664  143.0533  160.6715 H   0  0  0  0  0  0  0  0  0  0  0  0
  146.8108  144.1203  157.2875 H   0  0  0  0  0  0  0  0  0  0  0  0
  148.5873  143.3018  156.5647 H   0  0  0  0  0  0  0  0  0  0  0  0
  149.7108  140.8481  157.8752 H   0  0  0  0  0  0  0  0  0  0  0  0
  150.1688  142.3745  155.2383 H   0  0  0  0  0  0  0  0  0  0  0  0
  149.5779  139.5851  155.7670 H   0  0  0  0  0  0  0  0  0  0  0  0
  150.1916  140.2121  154.2370 H   0  0  0  0  0  0  0  0  0  0  0  0
  151.7199  138.5542  155.8832 H   0  0  0  0  0  0  0  0  0  0  0  0
  152.4348  139.7642  154.8111 H   0  0  0  0  0  0  0  0  0  0  0  0
  152.4886  142.3074  155.9113 H   0  0  0  0  0  0  0  0  0  0  0  0
  150.9842  142.3095  159.8686 H   0  0  0  0  0  0  0  0  0  0  0  0
  152.1682  141.2092  159.2057 H   0  0  0  0  0  0  0  0  0  0  0  0
  152.7973  143.6405  160.3943 H   0  0  0  0  0  0  0  0  0  0  0  0
  153.8394  142.8564  159.2136 H   0  0  0  0  0  0  0  0  0  0  0  0
  152.5282  145.3776  158.8255 H   0  0  0  0  0  0  0  0  0  0  0  0
  153.3901  144.4231  157.6233 H   0  0  0  0  0  0  0  0  0  0  0  0
  151.2307  144.3985  156.6452 H   0  0  0  0  0  0  0  0  0  0  0  0
  150.4467  144.4782  158.2100 H   0  0  0  0  0  0  0  0  0  0  0  0
  142.6291  145.2575  158.9642 H   0  0  0  0  0  0  0  0  0  0  0  0
  1  2  1  0  0  0  0
  1 23  1  0  0  0  0
  1 24  1  0  0  0  0
  1 25  1  0  0  0  0
  2 22  1  0  0  0  0
  2  3  2  0  0  0  0
  3  4  1  0  0  0  0
  3 26  1  0  0  0  0
  4  5  2  0  0  0  0
  4 27  1  0  0  0  0
  5  6  1  0  0  0  0
  5 21  1  0  0  0  0
  6  7  1  0  0  0  0
  6 28  1  0  0  0  0
  7  8  2  0  0  0  0
  7  9  1  0  0  0  0
  9 10  1  0  0  0  0
  9 29  1  0  0  0  0
 10 16  1  0  0  0  0
 10 11  1  0  0  0  0
 10 30  1  0  0  0  0
 11 15  1  0  0  0  0
 11 12  1  0  0  0  0
 11 31  1  0  0  0  0
 12 13  1  0  0  0  0
 12 32  1  0  0  0  0
 12 33  1  0  0  0  0
 13 14  1  0  0  0  0
 13 34  1  0  0  0  0
 13 35  1  0  0  0  0
 14 15  1  0  0  0  0
 15 16  1  0  0  0  0
 15 36  1  0  0  0  0
 16 20  1  0  0  0  0
 16 17  1  0  0  0  0
 17 18  1  0  0  0  0
 17 37  1  0  0  0  0
 17 38  1  0  0  0  0
 18 19  1  0  0  0  0
 18 39  1  0  0  0  0
 18 40  1  0  0  0  0
 19 20  1  0  0  0  0
 19 41  1  0  0  0  0
 19 42  1  0  0  0  0
 20 43  1  0  0  0  0
 20 44  1  0  0  0  0
 21 22  2  0  0  0  0
 22 45  1  0  0  0  0
M  END
> <s_m_source_file>
AV-unprocessed.smi

> <i_m_source_file_index>
2217

> <i_lp_mmshare_version>
43012

> <i_f3d_flags>
0

> <s_epik_input>
W0NIM11jMVtjSF1bY0hdYyhuW2NIXTEpW05IXUMoPU8pW05IXVtDQEBIXTJbQ0BASF0oW0NIMl1bQ0gyXU8zKVtDQEhdM0MyNFtDSDJdW0NIMl1bQ0gyXVtDSDJdNA==

> <s_epik_cmdline>
J2VwaWtfcHl0aG9uJywgJy1waCcsICc3LjAnLCAnLXRuJywgJzgnLCAnLW1hJywgJzIwMCcsICctbWV0YWxfYmluZGluZycsICctaW1hZScsICc8aW5maWxlLm1hZT4nLCAnLW9tYWUnLCAnPG91dGZpbGUubWFlPic=

> <r_lp_tautomer_probability>
1

> <r_epik_Ionization_Penalty>
6.14796e-05

> <r_epik_Ionization_Penalty_Charging>
0

> <r_epik_Ionization_Penalty_Neutral>
6.14796e-05

> <r_epik_State_Penalty>
-0

> <r_epik_Charging_Adjusted_Penalty>
0

> <i_epik_Tot_Q>
0

> <i_epik_Tot_abs_Q>
0

> <r_epik_Metal_State_Penalty>
-0

> <b_epik_Metal_Only>
0

> <s_lp_Force_Field>
OPLS_2005

> <r_lp_Energy>
58.5604

> <b_lp_Chiralities_Consistent>
1

> <s_lp_Variant>
AV-unprocessed.smi:2217-4

> <Gold.Version>
5.8.1

> <Gold.Id.Protein>
6NUR|6NUR_protein|mol2

> <Gold.PLP.Fitness>
40.5175

> <Gold.PLP.PLP>
-34.9273

> <Gold.PLP.part.hbond>
-4.8465

> <Gold.PLP.part.metal>
0.0000

> <Gold.PLP.part.buried>
1.0628

> <Gold.PLP.part.nonpolar>
-30.3881

> <Gold.PLP.part.repulsive>
0.1684

> <Gold.PLP.ligand.clash>
0.0000

> <Gold.PLP.ligand.torsion>
0.3862

> <Gold.PLP.Chemscore.Hbond>
2.0589

> <Gold.PLP.Chemscore.CHOScore>
0.0000

> <Gold.PLP.Chemscore.Metal>
0.0000

> <Gold.Chemscore.Hbonds>
donor molecule, donor type, donor heavy atom, donor atom, acceptor molecule, acceptor atom, score
      L1  H     6    28       P1  8029  0.05
      L1  H     9    29       P1  8028  1.00
      P1  H  6933  6944       L1     8  0.09
      P1  H  6934  6946       L1     8  0.30
      P1  H  7997  8010       L1    14  0.61

> <Gold.PLP.Chemscore.Internal.Correction>
0.1858

> <Gold.Rescore>
     Score         DG    S(hbond)    S(metal)    S(lipo)     H(rot)  DE(clash)    DE(int)     intcor
     16.73     -20.63       1.23        0.00     116.19       1.00       2.08       1.82       ----

> <Gold.Chemscore.Fitness>
16.7314

> <Gold.Chemscore.DG>
-20.6256

> <Gold.Chemscore.ZeroCoef>
-5.4800

> <Gold.Chemscore.Hbond>
1.2309

> <Gold.Chemscore.Metal>
0.0000

> <Gold.Chemscore.Lipo>
116.1920

> <Gold.Chemscore.Internal_Hbond>
0.0000

> <Gold.Chemscore.DEClash>
2.0780

> <Gold.Chemscore.DEInternal>
1.8162

> <Gold.Chemscore.Rot>
1.0000

> <Gold.Chemscore.Internal.Correction>
   9.000000E+99

> <Gold.Chemscore.Hbonds>
donor molecule, donor type, donor heavy atom, donor atom, acceptor molecule, acceptor atom, score
      L1  H     9    29       P1  8028  0.69
      P1  H  6933  6944       L1     8  0.09
      P1  H  6934  6946       L1     8  0.29
      P1  H  7997  8010       L1    14  0.11

> <Gold.Chemscore.Hbond.Weighted>
-4.1112

> <Gold.Chemscore.Metal.Weighted>
-0.0000

> <Gold.Chemscore.Lipo.Weighted>
-13.5945

> <Gold.Chemscore.Internal_Hbond.Weighted>
0.0000

> <Gold.Chemscore.DEClash.Weighted>
2.0780

> <Gold.Chemscore.DEInternal.Weighted>
1.8162

> <Gold.Chemscore.Rot.Weighted>
2.5600

> <Gold.Chemscore.Internal.Correction.Weighted>
   9.000000E+99

> <Gold.Protein.RotatedTorsions>
[ 6907 6896 6895 6894 ] final   38.82 input  -60.11 | X-H torsion
[ 7974 7965 7964 7962 ] final   54.64 input  175.53 | X-H torsion
[ 8008 7997 7996 7995 ] final   68.31 input   59.86 | X-H torsion
[ 10167 10162 10161 10158 ] final  100.00 input  -65.29 | X-H torsion
[ 10718 10713 10712 10709 ] final   76.10 input   66.30 | X-H torsion
[ 10763 10752 10751 10750 ] final -147.35 input  -60.55 | X-H torsion
[ 11005 11000 10999 10996 ] final   50.51 input  -57.11 | X-H torsion

> <Gold.Protein.ActiveResidues>
 VAL166  LYS551  ARG553  GLY616  TRP617  ASP618  TYR619  PRO620  LYS621  CYS622 
 ASP623  PHE694  ASN695  SER759  ASP760  ASP761  ALA762  ILE779  LEU786  VAL792 
 PHE793  MET794  SER795  GLU796  ALA797  LYS798  CYS799  TRP800  GLU811  SER814 

> <Gold.Protein.RotatedAtoms>
  152.1614  134.8909  160.0541 H   0  0  0  0  0  0  0  0  0  0  0  0  # atno 6907 bound_to 6896
  151.9903  133.3783  159.4150 H   0  0  0  0  0  0  0  0  0  0  0  0  # atno 6908 bound_to 6896
  150.6888  134.3866  159.5102 H   0  0  0  0  0  0  0  0  0  0  0  0  # atno 6909 bound_to 6896
  145.9587  139.4039  143.0261 H   0  0  0  0  0  0  0  0  0  0  0  0  # atno 7974 bound_to 7965
  155.7063  140.3495  155.4954 H   0  0  0  0  0  0  0  0  0  0  0  0  # atno 8008 bound_to 7997
  155.9395  140.1099  157.1089 H   0  0  0  0  0  0  0  0  0  0  0  0  # atno 8009 bound_to 7997
  154.4100  140.1215  156.4895 H   0  0  0  0  0  0  0  0  0  0  0  0  # atno 8010 bound_to 7997
  139.7567  144.6967  151.0353 H   0  0  0  0  0  0  0  0  0  0  0  0  # atno 10167 bound_to 10162
  157.6660  130.9758  150.1448 H   0  0  0  0  0  0  0  0  0  0  0  0  # atno 10718 bound_to 10713
  154.8290  135.3362  154.6804 H   0  0  0  0  0  0  0  0  0  0  0  0  # atno 10763 bound_to 10752
  153.7426  135.6944  153.4968 H   0  0  0  0  0  0  0  0  0  0  0  0  # atno 10764 bound_to 10752
  153.2233  135.4441  155.0464 H   0  0  0  0  0  0  0  0  0  0  0  0  # atno 10765 bound_to 10752
  140.1011  134.5080  155.8762 H   0  0  0  0  0  0  0  0  0  0  0  0  # atno 11005 bound_to 11000
  145.8070  140.9744  143.0969 LP  0  0  0  0  0  0  0  0  0  0  0  0  # atno 17320 bound_to 7965
  144.6810  139.9873  143.7484 LP  0  0  0  0  0  0  0  0  0  0  0  0  # atno 17321 bound_to 7965
  140.7803  143.4745  151.0101 LP  0  0  0  0  0  0  0  0  0  0  0  0  # atno 17342 bound_to 10162
  139.8432  143.7536  152.3180 LP  0  0  0  0  0  0  0  0  0  0  0  0  # atno 17343 bound_to 10162
  156.2262  130.3678  149.8498 LP  0  0  0  0  0  0  0  0  0  0  0  0  # atno 17370 bound_to 10713
  156.6337  130.8676  151.3500 LP  0  0  0  0  0  0  0  0  0  0  0  0  # atno 17371 bound_to 10713
  141.2106  133.6696  156.6520 LP  0  0  0  0  0  0  0  0  0  0  0  0  # atno 17394 bound_to 11000
  140.3219  134.8001  157.4259 LP  0  0  0  0  0  0  0  0  0  0  0  0  # atno 17395 bound_to 11000

$$$$
