AV-unprocessed.smi:1047|AV-procd|sdf|4560|dock3
  -GOLD-   22720 3 03D 1   1.00000     0.00000
 Structure written by MMmdl.
 57 59  0  0  0  0  0  0  0  0  3 V2000
  152.2887  131.9573  156.8885 C   0  0  0  0  0  0  0  0  0  0  0  0
  150.9709  131.5561  156.2102 C   0  0  0  0  0  0  0  0  0  0  0  0
  150.4933  132.5760  155.2429 N   0  3  1  0  0  0  0  0  0  0  0  0
  149.2324  132.1720  154.5763 C   0  0  0  0  0  0  0  0  0  0  0  0
  148.8092  133.2241  153.5377 C   0  0  0  0  0  0  0  0  0  0  0  0
  148.6699  134.4917  154.1682 O   0  0  0  0  0  0  0  0  0  0  0  0
  149.8873  134.9404  154.7542 C   0  0  1  0  0  0  0  0  0  0  0  0
  149.6809  136.3653  155.2968 C   0  0  0  0  0  0  0  0  0  0  0  0
  149.4178  137.3386  154.2165 N   0  3  0  0  0  0  0  0  0  0  0  0
  150.2903  138.5293  154.2464 C   0  0  0  0  0  0  0  0  0  0  0  0
  149.5347  139.7540  154.7872 C   0  0  2  0  0  0  0  0  0  0  0  0
  148.5958  140.1721  153.8148 O   0  0  0  0  0  0  0  0  0  0  0  0
  150.4832  140.9228  155.1167 C   0  0  0  0  0  0  0  0  0  0  0  0
  151.3211  140.6449  156.2696 N   0  0  0  0  0  0  0  0  0  0  0  0
  152.0755  139.5495  156.4835 C   0  0  0  0  0  0  0  0  0  0  0  0
  152.7770  139.5049  157.6124 N   0  0  0  0  0  0  0  0  0  0  0  0
  152.4318  140.7079  158.2040 C   0  0  0  0  0  0  0  0  0  0  0  0
  152.8377  141.2770  159.4309 C   0  0  0  0  0  0  0  0  0  0  0  0
  152.3489  142.5375  159.8421 C   0  0  0  0  0  0  0  0  0  0  0  0
  152.8124  143.1121  161.1691 C   0  0  0  0  0  0  0  0  0  0  0  0
  151.4374  143.2489  159.0209 C   0  0  0  0  0  0  0  0  0  0  0  0
  150.8953  144.6025  159.4449 C   0  0  0  0  0  0  0  0  0  0  0  0
  151.0239  142.6962  157.7907 C   0  0  0  0  0  0  0  0  0  0  0  0
  151.5187  141.4420  157.3919 C   0  0  0  0  0  0  0  0  0  0  0  0
  150.3548  133.9337  155.8273 C   0  0  0  0  0  0  0  0  0  0  0  0
  152.6578  131.1460  157.5164 H   0  0  0  0  0  0  0  0  0  0  0  0
  152.1709  132.8307  157.5291 H   0  0  0  0  0  0  0  0  0  0  0  0
  153.0608  132.1796  156.1513 H   0  0  0  0  0  0  0  0  0  0  0  0
  151.1407  130.6173  155.6807 H   0  0  0  0  0  0  0  0  0  0  0  0
  150.2005  131.3551  156.9563 H   0  0  0  0  0  0  0  0  0  0  0  0
  149.3645  131.2071  154.0850 H   0  0  0  0  0  0  0  0  0  0  0  0
  148.4465  132.0462  155.3230 H   0  0  0  0  0  0  0  0  0  0  0  0
  149.5346  133.2850  152.7248 H   0  0  0  0  0  0  0  0  0  0  0  0
  147.8543  132.9467  153.0909 H   0  0  0  0  0  0  0  0  0  0  0  0
  150.6465  134.9941  153.9715 H   0  0  0  0  0  0  0  0  0  0  0  0
  148.8507  136.3771  156.0042 H   0  0  0  0  0  0  0  0  0  0  0  0
  150.5701  136.6789  155.8459 H   0  0  0  0  0  0  0  0  0  0  0  0
  149.5534  136.8761  153.3281 H   0  0  0  0  0  0  0  0  0  0  0  0
  151.1475  138.3119  154.8850 H   0  0  0  0  0  0  0  0  0  0  0  0
  150.6791  138.7313  153.2471 H   0  0  0  0  0  0  0  0  0  0  0  0
  148.9897  139.4730  155.6896 H   0  0  0  0  0  0  0  0  0  0  0  0
  149.0176  140.1667  152.9683 H   0  0  0  0  0  0  0  0  0  0  0  0
  151.1347  141.1331  154.2675 H   0  0  0  0  0  0  0  0  0  0  0  0
  149.9149  141.8346  155.3079 H   0  0  0  0  0  0  0  0  0  0  0  0
  152.1179  138.7419  155.7671 H   0  0  0  0  0  0  0  0  0  0  0  0
  153.5309  140.7342  160.0568 H   0  0  0  0  0  0  0  0  0  0  0  0
  151.9641  143.2606  161.8376 H   0  0  0  0  0  0  0  0  0  0  0  0
  153.3075  144.0715  161.0182 H   0  0  0  0  0  0  0  0  0  0  0  0
  153.5184  142.4469  161.6673 H   0  0  0  0  0  0  0  0  0  0  0  0
  150.1959  145.0000  158.7088 H   0  0  0  0  0  0  0  0  0  0  0  0
  151.7077  145.3210  159.5575 H   0  0  0  0  0  0  0  0  0  0  0  0
  150.3689  144.5230  160.3964 H   0  0  0  0  0  0  0  0  0  0  0  0
  150.3308  143.2280  157.1560 H   0  0  0  0  0  0  0  0  0  0  0  0
  149.6429  133.8960  156.6532 H   0  0  0  0  0  0  0  0  0  0  0  0
  151.3066  134.2667  156.2401 H   0  0  0  0  0  0  0  0  0  0  0  0
  148.4575  137.6449  154.2766 H   0  0  0  0  0  0  0  0  0  0  0  0
  151.1929  132.6329  154.5160 H   0  0  0  0  0  0  0  0  0  0  0  0
  1  2  1  0  0  0  0
  1 26  1  0  0  0  0
  1 27  1  0  0  0  0
  1 28  1  0  0  0  0
  2  3  1  0  0  0  0
  2 29  1  0  0  0  0
  2 30  1  0  0  0  0
  3 25  1  0  0  0  0
  3  4  1  0  0  0  0
  3 57  1  0  0  0  0
  4  5  1  0  0  0  0
  4 31  1  0  0  0  0
  4 32  1  0  0  0  0
  5  6  1  0  0  0  0
  5 33  1  0  0  0  0
  5 34  1  0  0  0  0
  6  7  1  0  0  0  0
  7  8  1  0  0  0  0
  7 25  1  0  0  0  0
  7 35  1  0  0  0  0
  8  9  1  0  0  0  0
  8 36  1  0  0  0  0
  8 37  1  0  0  0  0
  9 10  1  0  0  0  0
  9 38  1  0  0  0  0
  9 56  1  0  0  0  0
 10 11  1  0  0  0  0
 10 39  1  0  0  0  0
 10 40  1  0  0  0  0
 11 12  1  0  0  0  0
 11 13  1  0  0  0  0
 11 41  1  0  0  0  0
 12 42  1  0  0  0  0
 13 14  1  0  0  0  0
 13 43  1  0  0  0  0
 13 44  1  0  0  0  0
 14 24  1  0  0  0  0
 14 15  1  0  0  0  0
 15 16  2  0  0  0  0
 15 45  1  0  0  0  0
 16 17  1  0  0  0  0
 17 24  2  0  0  0  0
 17 18  1  0  0  0  0
 18 19  2  0  0  0  0
 18 46  1  0  0  0  0
 19 20  1  0  0  0  0
 19 21  1  0  0  0  0
 20 47  1  0  0  0  0
 20 48  1  0  0  0  0
 20 49  1  0  0  0  0
 21 22  1  0  0  0  0
 21 23  2  0  0  0  0
 22 50  1  0  0  0  0
 22 51  1  0  0  0  0
 22 52  1  0  0  0  0
 23 24  1  0  0  0  0
 23 53  1  0  0  0  0
 25 54  1  0  0  0  0
 25 55  1  0  0  0  0
M  CHG  1   3   1
M  CHG  1   9   1
M  END
> <s_m_source_file>
AV-unprocessed.smi

> <i_m_source_file_index>
1047

> <i_lp_mmshare_version>
43012

> <i_f3d_flags>
0

> <s_epik_input>
W0NIM11bQ0gyXU4xW0NIMl1bQ0gyXU9bQ0BIXShbQ0gyXTEpW0NIMl1bTkhdW0NIMl1bQ0BIXShbT0hdKVtDSDJdbihbY0hdbjIpYyhjMjMpW2NIXWMoW0NIM10pYyhbY0hdMylbQ0gzXQ==

> <s_epik_cmdline>
J2VwaWtfcHl0aG9uJywgJy1waCcsICc3LjAnLCAnLXRuJywgJzgnLCAnLW1hJywgJzIwMCcsICctbWV0YWxfYmluZGluZycsICctaW1hZScsICc8aW5maWxlLm1hZT4nLCAnLW9tYWUnLCAnPG91dGZpbGUubWFlPic=

> <r_epik_Ionization_Penalty>
0.528991

> <r_epik_Ionization_Penalty_Charging>
0.438567

> <r_epik_Ionization_Penalty_Neutral>
0.0904237

> <r_epik_State_Penalty>
0.533036

> <r_epik_Charging_Adjusted_Penalty>
0.971603

> <i_epik_Tot_Q>
2

> <i_epik_Tot_abs_Q>
2

> <r_epik_Metal_State_Penalty>
0.448985

> <b_epik_Metal_Only>
0

> <s_lp_Force_Field>
OPLS_2005

> <r_lp_Energy>
32.0872

> <b_lp_Chiralities_Consistent>
1

> <s_lp_Variant>
AV-unprocessed.smi:1047-1

> <Gold.Version>
5.8.1

> <Gold.Id.Protein>
6NUR|6NUR_protein|mol2

> <Gold.PLP.Fitness>
59.5253

> <Gold.PLP.PLP>
-49.0945

> <Gold.PLP.part.hbond>
-3.0000

> <Gold.PLP.part.metal>
0.0000

> <Gold.PLP.part.buried>
-4.5558

> <Gold.PLP.part.nonpolar>
-41.5337

> <Gold.PLP.part.repulsive>
1.2457

> <Gold.PLP.ligand.clash>
0.0000

> <Gold.PLP.ligand.torsion>
0.9046

> <Gold.PLP.Chemscore.Hbond>
4.0000

> <Gold.PLP.Chemscore.CHOScore>
0.0000

> <Gold.PLP.Chemscore.Metal>
0.0000

> <Gold.Chemscore.Hbonds>
donor molecule, donor type, donor heavy atom, donor atom, acceptor molecule, acceptor atom, score
      L1  H     9    38       P1  7948  2.00
      L1  H    12    42       P1  7957  1.00
      P1  H  7997  8009       L1    16  0.81

> <Gold.PLP.Chemscore.Internal.Correction>
0.2400

> <Gold.Rescore>
     Score         DG    S(hbond)    S(metal)    S(lipo)     H(rot)  DE(clash)    DE(int)     intcor
     17.66     -20.68       1.96        0.00     133.01       2.70       1.32       1.70       ----

> <Gold.Chemscore.Fitness>
17.6595

> <Gold.Chemscore.DG>
-20.6785

> <Gold.Chemscore.ZeroCoef>
-5.4800

> <Gold.Chemscore.Hbond>
1.9593

> <Gold.Chemscore.Metal>
0.0000

> <Gold.Chemscore.Lipo>
133.0135

> <Gold.Chemscore.Internal_Hbond>
0.0000

> <Gold.Chemscore.DEClash>
1.3194

> <Gold.Chemscore.DEInternal>
1.6996

> <Gold.Chemscore.Rot>
2.6985

> <Gold.Chemscore.Internal.Correction>
   9.000000E+99

> <Gold.Chemscore.Hbonds>
donor molecule, donor type, donor heavy atom, donor atom, acceptor molecule, acceptor atom, score
      L1  H     9    38       P1  7948  0.72
      L1  H    12    42       P1  7957  1.00
      P1  H  7997  8009       L1    16  0.03

> <Gold.Chemscore.Hbond.Weighted>
-6.5441

> <Gold.Chemscore.Metal.Weighted>
-0.0000

> <Gold.Chemscore.Lipo.Weighted>
-15.5626

> <Gold.Chemscore.Internal_Hbond.Weighted>
0.0000

> <Gold.Chemscore.DEClash.Weighted>
1.3194

> <Gold.Chemscore.DEInternal.Weighted>
1.6996

> <Gold.Chemscore.Rot.Weighted>
6.9081

> <Gold.Chemscore.Internal.Correction.Weighted>
   9.000000E+99

> <Gold.Protein.RotatedTorsions>
[ 6907 6896 6895 6894 ] final  127.09 input  -60.11 | X-H torsion
[ 7974 7965 7964 7962 ] final  176.69 input  175.53 | X-H torsion
[ 8008 7997 7996 7995 ] final  164.23 input   59.86 | X-H torsion
[ 10167 10162 10161 10158 ] final  -25.60 input  -65.29 | X-H torsion
[ 10718 10713 10712 10709 ] final   21.11 input   66.30 | X-H torsion
[ 10763 10752 10751 10750 ] final  164.95 input  -60.55 | X-H torsion
[ 11005 11000 10999 10996 ] final  -77.80 input  -57.11 | X-H torsion

> <Gold.Protein.ActiveResidues>
 VAL166  LYS551  ARG553  GLY616  TRP617  ASP618  TYR619  PRO620  LYS621  CYS622 
 ASP623  PHE694  ASN695  SER759  ASP760  ASP761  ALA762  ILE779  LEU786  VAL792 
 PHE793  MET794  SER795  GLU796  ALA797  LYS798  CYS799  TRP800  GLU811  SER814 

> <Gold.Protein.RotatedAtoms>
  152.3845  133.6591  159.6187 H   0  0  0  0  0  0  0  0  0  0  0  0  # atno 6907 bound_to 6896
  150.7767  133.9059  159.3364 H   0  0  0  0  0  0  0  0  0  0  0  0  # atno 6908 bound_to 6896
  151.6858  135.0956  160.0276 H   0  0  0  0  0  0  0  0  0  0  0  0  # atno 6909 bound_to 6896
  144.7180  140.0135  143.6440 H   0  0  0  0  0  0  0  0  0  0  0  0  # atno 7974 bound_to 7965
  156.1896  140.1702  156.8118 H   0  0  0  0  0  0  0  0  0  0  0  0  # atno 8008 bound_to 7997
  154.5455  140.0728  156.8613 H   0  0  0  0  0  0  0  0  0  0  0  0  # atno 8009 bound_to 7997
  155.3131  140.3369  155.4245 H   0  0  0  0  0  0  0  0  0  0  0  0  # atno 8010 bound_to 7997
  140.7286  143.4250  151.0891 H   0  0  0  0  0  0  0  0  0  0  0  0  # atno 10167 bound_to 10162
  157.1339  130.6603  149.5960 H   0  0  0  0  0  0  0  0  0  0  0  0  # atno 10718 bound_to 10713
  154.3166  135.2756  155.2540 H   0  0  0  0  0  0  0  0  0  0  0  0  # atno 10763 bound_to 10752
  154.4911  135.5833  153.6463 H   0  0  0  0  0  0  0  0  0  0  0  0  # atno 10764 bound_to 10752
  152.9881  135.6135  154.3348 H   0  0  0  0  0  0  0  0  0  0  0  0  # atno 10765 bound_to 10752
  141.1662  133.7037  156.7875 H   0  0  0  0  0  0  0  0  0  0  0  0  # atno 11005 bound_to 11000
  146.0239  139.3275  143.0796 LP  0  0  0  0  0  0  0  0  0  0  0  0  # atno 17320 bound_to 7965
  145.8535  140.9516  143.0737 LP  0  0  0  0  0  0  0  0  0  0  0  0  # atno 17321 bound_to 7965
  139.7901  143.8231  152.3150 LP  0  0  0  0  0  0  0  0  0  0  0  0  # atno 17342 bound_to 10162
  139.8212  144.7295  150.9570 LP  0  0  0  0  0  0  0  0  0  0  0  0  # atno 17343 bound_to 10162
  155.9802  130.4801  150.6759 LP  0  0  0  0  0  0  0  0  0  0  0  0  # atno 17370 bound_to 10713
  157.4367  131.0856  151.0984 LP  0  0  0  0  0  0  0  0  0  0  0  0  # atno 17371 bound_to 10713
  140.2350  134.8657  157.3515 LP  0  0  0  0  0  0  0  0  0  0  0  0  # atno 17394 bound_to 11000
  140.1853  134.4439  155.7747 LP  0  0  0  0  0  0  0  0  0  0  0  0  # atno 17395 bound_to 11000

$$$$
