AV-unprocessed.smi:552|AV-procd|sdf|2903|dock1
  -GOLD-   2262023393D 1   1.00000     0.00000
 Structure written by MMmdl.
 42 43  0  0  0  0  0  0  0  0  1 V2000
  146.2529  134.5995  151.5756 C   0  0  0  0  0  0  0  0  0  0  0  0
  145.6000  135.9393  151.2059 C   0  0  0  0  0  0  0  0  0  0  0  0
  145.5126  136.9354  152.3786 C   0  0  1  0  0  0  0  0  0  0  0  0
  144.6945  136.3646  153.5452 C   0  0  0  0  0  0  0  0  0  0  0  0
  146.8500  137.2879  152.8543 N   0  0  0  0  0  0  0  0  0  0  0  0
  147.1374  138.2117  153.7835 C   0  0  0  0  0  0  0  0  0  0  0  0
  146.2865  138.8855  154.3638 O   0  0  0  0  0  0  0  0  0  0  0  0
  148.4649  138.3146  153.9687 N   0  0  0  0  0  0  0  0  0  0  0  0
  149.1653  139.1716  154.8597 C   0  0  0  0  0  0  0  0  0  0  0  0
  148.7182  139.4990  156.1617 C   0  0  0  0  0  0  0  0  0  0  0  0
  149.5096  140.3471  156.9596 C   0  0  0  0  0  0  0  0  0  0  0  0
  150.7245  140.8351  156.4372 C   0  0  0  0  0  0  0  0  0  0  0  0
  151.5116  141.6827  157.2287 N   0  0  0  0  0  0  0  0  0  0  0  0
  151.9456  141.0738  158.4798 C   0  0  0  0  0  0  0  0  0  0  0  0
  152.9086  142.0203  159.2177 C   0  0  0  0  0  0  0  0  0  0  0  0
  152.2788  143.2828  159.4178 O   0  0  0  0  0  0  0  0  0  0  0  0
  151.9214  143.9042  158.1861 C   0  0  0  0  0  0  0  0  0  0  0  0
  150.9324  143.0060  157.4229 C   0  0  0  0  0  0  0  0  0  0  0  0
  151.1664  140.5143  155.1980 N   0  0  0  0  0  0  0  0  0  0  0  0
  150.4033  139.6998  154.4387 C   0  0  0  0  0  0  0  0  0  0  0  0
  146.3404  133.9576  150.6989 H   0  0  0  0  0  0  0  0  0  0  0  0
  145.6681  134.0592  152.3202 H   0  0  0  0  0  0  0  0  0  0  0  0
  147.2546  134.7483  151.9795 H   0  0  0  0  0  0  0  0  0  0  0  0
  146.1747  136.3918  150.3970 H   0  0  0  0  0  0  0  0  0  0  0  0
  144.6037  135.7550  150.8017 H   0  0  0  0  0  0  0  0  0  0  0  0
  144.9913  137.8261  152.0241 H   0  0  0  0  0  0  0  0  0  0  0  0
  143.6831  136.1108  153.2267 H   0  0  0  0  0  0  0  0  0  0  0  0
  144.6105  137.0877  154.3571 H   0  0  0  0  0  0  0  0  0  0  0  0
  145.1528  135.4609  153.9487 H   0  0  0  0  0  0  0  0  0  0  0  0
  147.6209  136.7914  152.4323 H   0  0  0  0  0  0  0  0  0  0  0  0
  149.0442  137.7602  153.3556 H   0  0  0  0  0  0  0  0  0  0  0  0
  147.7978  139.1091  156.5677 H   0  0  0  0  0  0  0  0  0  0  0  0
  149.1888  140.6131  157.9562 H   0  0  0  0  0  0  0  0  0  0  0  0
  151.0793  140.8634  159.1088 H   0  0  0  0  0  0  0  0  0  0  0  0
  152.4373  140.1216  158.2771 H   0  0  0  0  0  0  0  0  0  0  0  0
  153.1802  141.6007  160.1863 H   0  0  0  0  0  0  0  0  0  0  0  0
  153.8343  142.1496  158.6547 H   0  0  0  0  0  0  0  0  0  0  0  0
  151.4668  144.8727  158.3943 H   0  0  0  0  0  0  0  0  0  0  0  0
  152.8154  144.0926  157.5891 H   0  0  0  0  0  0  0  0  0  0  0  0
  150.6913  143.4498  156.4561 H   0  0  0  0  0  0  0  0  0  0  0  0
  149.9997  142.9233  157.9829 H   0  0  0  0  0  0  0  0  0  0  0  0
  150.7940  139.4675  153.4587 H   0  0  0  0  0  0  0  0  0  0  0  0
  1  2  1  0  0  0  0
  1 21  1  0  0  0  0
  1 22  1  0  0  0  0
  1 23  1  0  0  0  0
  2  3  1  0  0  0  0
  2 24  1  0  0  0  0
  2 25  1  0  0  0  0
  3  4  1  0  0  0  0
  3  5  1  0  0  0  0
  3 26  1  0  0  0  0
  4 27  1  0  0  0  0
  4 28  1  0  0  0  0
  4 29  1  0  0  0  0
  5  6  1  0  0  0  0
  5 30  1  0  0  0  0
  6  7  2  0  0  0  0
  6  8  1  0  0  0  0
  8  9  1  0  0  0  0
  8 31  1  0  0  0  0
  9 20  1  0  0  0  0
  9 10  2  0  0  0  0
 10 11  1  0  0  0  0
 10 32  1  0  0  0  0
 11 12  2  0  0  0  0
 11 33  1  0  0  0  0
 12 13  1  0  0  0  0
 12 19  1  0  0  0  0
 13 18  1  0  0  0  0
 13 14  1  0  0  0  0
 14 15  1  0  0  0  0
 14 34  1  0  0  0  0
 14 35  1  0  0  0  0
 15 16  1  0  0  0  0
 15 36  1  0  0  0  0
 15 37  1  0  0  0  0
 16 17  1  0  0  0  0
 17 18  1  0  0  0  0
 17 38  1  0  0  0  0
 17 39  1  0  0  0  0
 18 40  1  0  0  0  0
 18 41  1  0  0  0  0
 19 20  2  0  0  0  0
 20 42  1  0  0  0  0
M  END
> <s_m_source_file>
AV-unprocessed.smi

> <i_m_source_file_index>
552

> <i_lp_mmshare_version>
43012

> <i_f3d_flags>
0

> <s_epik_input>
W0NIM11bQ0gyXVtDQEhdKFtDSDNdKVtOSF1DKD1PKVtOSF1jMVtjSF1bY0hdYyhuW2NIXTEpTjJbQ0gyXVtDSDJdT1tDSDJdW0NIMl0y

> <s_epik_cmdline>
J2VwaWtfcHl0aG9uJywgJy1waCcsICc3LjAnLCAnLXRuJywgJzgnLCAnLW1hJywgJzIwMCcsICctbWV0YWxfYmluZGluZycsICctaW1hZScsICc8aW5maWxlLm1hZT4nLCAnLW9tYWUnLCAnPG91dGZpbGUubWFlPic=

> <r_lp_tautomer_probability>
1

> <r_epik_Ionization_Penalty>
0.00215965

> <r_epik_Ionization_Penalty_Charging>
0

> <r_epik_Ionization_Penalty_Neutral>
0.00215965

> <r_epik_State_Penalty>
0.00145276

> <r_epik_Charging_Adjusted_Penalty>
0.00145276

> <i_epik_Tot_Q>
0

> <i_epik_Tot_abs_Q>
0

> <r_epik_Metal_State_Penalty>
-0

> <b_epik_Metal_Only>
0

> <s_lp_Force_Field>
OPLS_2005

> <r_lp_Energy>
22.6914

> <b_lp_Chiralities_Consistent>
1

> <s_lp_Variant>
AV-unprocessed.smi:552-2

> <Gold.Version>
5.8.1

> <Gold.Id.Protein>
6NUR|6NUR_protein|mol2

> <Gold.PLP.Fitness>
38.5361

> <Gold.PLP.PLP>
-29.7636

> <Gold.PLP.part.hbond>
-3.0000

> <Gold.PLP.part.metal>
0.0000

> <Gold.PLP.part.buried>
-3.2901

> <Gold.PLP.part.nonpolar>
-23.9518

> <Gold.PLP.part.repulsive>
0.2267

> <Gold.PLP.ligand.clash>
0.0000

> <Gold.PLP.ligand.torsion>
0.3869

> <Gold.PLP.Chemscore.Hbond>
2.2000

> <Gold.PLP.Chemscore.CHOScore>
0.9344

> <Gold.PLP.Chemscore.Metal>
0.0000

> <Gold.Chemscore.Hbonds>
donor molecule, donor type, donor heavy atom, donor atom, acceptor molecule, acceptor atom, score
      L1  H     5    30       P1  7948  1.00
      L1  H     8    31       P1  7948  0.69
      L1  C    20    42       P1  7957  0.69

> <Gold.PLP.Chemscore.Internal.Correction>
0.1432

> <Gold.Rescore>
     Score         DG    S(hbond)    S(metal)    S(lipo)     H(rot)  DE(clash)    DE(int)     intcor
     16.46     -17.23       1.92        0.00      75.12       1.35       0.31       0.45       ----

> <Gold.Chemscore.Fitness>
16.4638

> <Gold.Chemscore.DG>
-17.2261

> <Gold.Chemscore.ZeroCoef>
-5.4800

> <Gold.Chemscore.Hbond>
1.9223

> <Gold.Chemscore.Metal>
0.0000

> <Gold.Chemscore.Lipo>
75.1220

> <Gold.Chemscore.Internal_Hbond>
0.0000

> <Gold.Chemscore.DEClash>
0.3148

> <Gold.Chemscore.DEInternal>
0.4475

> <Gold.Chemscore.Rot>
1.3530

> <Gold.Chemscore.Internal.Correction>
   9.000000E+99

> <Gold.Chemscore.Hbonds>
donor molecule, donor type, donor heavy atom, donor atom, acceptor molecule, acceptor atom, score
      L1  H     5    30       P1  7948  0.94
      L1  H     8    31       P1  7948  0.66

> <Gold.Chemscore.Hbond.Weighted>
-6.4206

> <Gold.Chemscore.Metal.Weighted>
-0.0000

> <Gold.Chemscore.Lipo.Weighted>
-8.7893

> <Gold.Chemscore.Internal_Hbond.Weighted>
0.0000

> <Gold.Chemscore.DEClash.Weighted>
0.3148

> <Gold.Chemscore.DEInternal.Weighted>
0.4475

> <Gold.Chemscore.Rot.Weighted>
3.4638

> <Gold.Chemscore.Internal.Correction.Weighted>
   9.000000E+99

> <Gold.Protein.RotatedTorsions>
[ 6907 6896 6895 6894 ] final   21.69 input  -60.11 | X-H torsion
[ 7974 7965 7964 7962 ] final  -45.63 input  175.53 | X-H torsion
[ 8008 7997 7996 7995 ] final   30.45 input   59.86 | X-H torsion
[ 10167 10162 10161 10158 ] final  -90.75 input  -65.29 | X-H torsion
[ 10718 10713 10712 10709 ] final    4.08 input   66.30 | X-H torsion
[ 10763 10752 10751 10750 ] final  -84.81 input  -60.55 | X-H torsion
[ 11005 11000 10999 10996 ] final -145.25 input  -57.11 | X-H torsion

> <Gold.Protein.ActiveResidues>
 VAL166  LYS551  ARG553  GLY616  TRP617  ASP618  TYR619  PRO620  LYS621  CYS622 
 ASP623  PHE694  ASN695  SER759  ASP760  ASP761  ALA762  ILE779  LEU786  VAL792 
 PHE793  MET794  SER795  GLU796  ALA797  LYS798  CYS799  TRP800  GLU811  SER814 

> <Gold.Protein.RotatedAtoms>
  151.9156  135.0320  160.0517 H   0  0  0  0  0  0  0  0  0  0  0  0  # atno 6907 bound_to 6896
  152.2242  133.5003  159.5188 H   0  0  0  0  0  0  0  0  0  0  0  0  # atno 6908 bound_to 6896
  150.7008  134.1218  159.4080 H   0  0  0  0  0  0  0  0  0  0  0  0  # atno 6909 bound_to 6896
  145.9801  140.7292  142.9367 H   0  0  0  0  0  0  0  0  0  0  0  0  # atno 7974 bound_to 7965
  155.0907  140.3219  155.4574 H   0  0  0  0  0  0  0  0  0  0  0  0  # atno 8008 bound_to 7997
  156.2743  140.2078  156.5980 H   0  0  0  0  0  0  0  0  0  0  0  0  # atno 8009 bound_to 7997
  154.6906  140.0517  157.0346 H   0  0  0  0  0  0  0  0  0  0  0  0  # atno 8010 bound_to 7997
  140.3518  143.2887  151.9717 H   0  0  0  0  0  0  0  0  0  0  0  0  # atno 10167 bound_to 10162
  156.8874  130.5675  149.5651 H   0  0  0  0  0  0  0  0  0  0  0  0  # atno 10718 bound_to 10713
  154.6038  135.5507  153.7402 H   0  0  0  0  0  0  0  0  0  0  0  0  # atno 10763 bound_to 10752
  153.0166  135.6373  154.1676 H   0  0  0  0  0  0  0  0  0  0  0  0  # atno 10764 bound_to 10752
  154.1616  135.2897  155.3087 H   0  0  0  0  0  0  0  0  0  0  0  0  # atno 10765 bound_to 10752
  140.7941  134.2934  157.5003 H   0  0  0  0  0  0  0  0  0  0  0  0  # atno 11005 bound_to 11000
  144.6859  140.2894  143.7280 LP  0  0  0  0  0  0  0  0  0  0  0  0  # atno 17320 bound_to 7965
  145.7781  139.1881  143.2173 LP  0  0  0  0  0  0  0  0  0  0  0  0  # atno 17321 bound_to 7965
  139.4825  144.6069  151.7504 LP  0  0  0  0  0  0  0  0  0  0  0  0  # atno 17342 bound_to 10162
  140.5212  144.0876  150.6023 LP  0  0  0  0  0  0  0  0  0  0  0  0  # atno 17343 bound_to 10162
  156.0646  130.5692  150.9263 LP  0  0  0  0  0  0  0  0  0  0  0  0  # atno 17370 bound_to 10713
  157.6104  131.0936  150.8805 LP  0  0  0  0  0  0  0  0  0  0  0  0  # atno 17371 bound_to 10713
  139.8728  134.9392  156.3734 LP  0  0  0  0  0  0  0  0  0  0  0  0  # atno 17394 bound_to 11000
  140.9360  133.7547  156.0085 LP  0  0  0  0  0  0  0  0  0  0  0  0  # atno 17395 bound_to 11000

$$$$
