AV-unprocessed.smi:196|AV-procd|sdf|1534|dock7
  -GOLD-   2262019383D 1   1.00000     0.00000
 Structure written by MMmdl.
 47 50  0  0  0  0  0  0  0  0  1 V2000
  150.7493  141.9035  156.4046 C   0  0  0  0  0  0  0  0  0  0  0  0
  149.5987  140.8958  156.2405 C   0  0  2  0  0  0  0  0  0  0  0  0
  150.1660  139.5923  156.3827 O   0  0  0  0  0  0  0  0  0  0  0  0
  149.7263  138.7457  155.3315 C   0  0  0  0  0  0  0  0  0  0  0  0
  149.5110  139.7055  154.1729 C   0  0  0  0  0  0  0  0  0  0  0  0
  148.8800  140.9084  154.8659 C   0  0  2  0  0  0  0  0  0  0  0  0
  149.1611  142.0705  154.1041 O   0  0  0  0  0  0  0  0  0  0  0  0
  147.3415  140.8016  155.0420 C   0  0  0  0  0  0  0  0  0  0  0  0
  146.8221  139.4467  154.9393 N   0  0  0  0  0  0  0  0  0  0  0  0
  146.3415  138.6648  155.9656 C   0  0  0  0  0  0  0  0  0  0  0  0
  145.9296  137.4772  155.6143 N   0  0  0  0  0  0  0  0  0  0  0  0
  146.1526  137.4327  154.2441 C   0  0  0  0  0  0  0  0  0  0  0  0
  145.9404  136.4520  153.2383 C   0  0  0  0  0  0  0  0  0  0  0  0
  145.3751  135.2494  153.5089 N   0  0  0  0  0  0  0  0  0  0  0  0
  146.1923  134.0658  153.2511 C   0  0  0  0  0  0  0  0  0  0  0  0
  145.5755  133.4098  152.0228 C   0  0  1  0  0  0  0  0  0  0  0  0
  145.8608  132.1111  151.9345 F   0  0  0  0  0  0  0  0  0  0  0  0
  144.0914  133.6706  152.2386 C   0  0  0  0  0  0  0  0  0  0  0  0
  144.0501  135.0673  152.8920 C   0  0  1  0  0  0  0  0  0  0  0  0
  142.8763  135.1878  153.8806 C   0  0  0  0  0  0  0  0  0  0  0  0
  142.7316  134.2540  154.8261 N   0  0  0  0  0  0  0  0  0  0  0  0
  142.0995  136.1355  153.7886 O   0  0  0  0  0  0  0  0  0  0  0  0
  146.2901  136.7695  151.9629 N   0  0  0  0  0  0  0  0  0  0  0  0
  146.8231  137.9644  151.6909 C   0  0  0  0  0  0  0  0  0  0  0  0
  147.0795  138.9733  152.5261 N   0  0  0  0  0  0  0  0  0  0  0  0
  146.7227  138.6602  153.8049 C   0  0  0  0  0  0  0  0  0  0  0  0
  145.9225  133.8948  151.1091 H   0  0  0  0  0  0  0  0  0  0  0  0
  143.8989  135.8101  152.1049 H   0  0  0  0  0  0  0  0  0  0  0  0
  150.3880  142.9306  156.3501 H   0  0  0  0  0  0  0  0  0  0  0  0
  151.5080  141.7700  155.6327 H   0  0  0  0  0  0  0  0  0  0  0  0
  151.2372  141.7794  157.3715 H   0  0  0  0  0  0  0  0  0  0  0  0
  148.8823  141.0524  157.0482 H   0  0  0  0  0  0  0  0  0  0  0  0
  150.4597  137.9710  155.1072 H   0  0  0  0  0  0  0  0  0  0  0  0
  148.7921  138.2610  155.6175 H   0  0  0  0  0  0  0  0  0  0  0  0
  150.4828  139.9744  153.7552 H   0  0  0  0  0  0  0  0  0  0  0  0
  148.9179  139.2789  153.3651 H   0  0  0  0  0  0  0  0  0  0  0  0
  148.9194  142.8280  154.6143 H   0  0  0  0  0  0  0  0  0  0  0  0
  147.0411  141.2056  156.0095 H   0  0  0  0  0  0  0  0  0  0  0  0
  146.8367  141.4152  154.2945 H   0  0  0  0  0  0  0  0  0  0  0  0
  146.3024  139.0069  156.9898 H   0  0  0  0  0  0  0  0  0  0  0  0
  147.2549  134.2744  153.1156 H   0  0  0  0  0  0  0  0  0  0  0  0
  146.1056  133.4074  154.1165 H   0  0  0  0  0  0  0  0  0  0  0  0
  143.5236  133.6254  151.3086 H   0  0  0  0  0  0  0  0  0  0  0  0
  143.6851  132.9120  152.9109 H   0  0  0  0  0  0  0  0  0  0  0  0
  141.9629  134.3141  155.4782 H   0  0  0  0  0  0  0  0  0  0  0  0
  143.3874  133.4884  154.8801 H   0  0  0  0  0  0  0  0  0  0  0  0
  147.0776  138.1377  150.6556 H   0  0  0  0  0  0  0  0  0  0  0  0
  1  2  1  0  0  0  0
  1 29  1  0  0  0  0
  1 30  1  0  0  0  0
  1 31  1  0  0  0  0
  2  6  1  0  0  0  0
  2  3  1  0  0  0  0
  2 32  1  0  0  0  0
  3  4  1  0  0  0  0
  4  5  1  0  0  0  0
  4 33  1  0  0  0  0
  4 34  1  0  0  0  0
  5  6  1  0  0  0  0
  5 35  1  0  0  0  0
  5 36  1  0  0  0  0
  6  7  1  0  0  0  0
  6  8  1  0  0  0  0
  7 37  1  0  0  0  0
  8  9  1  0  0  0  0
  8 38  1  0  0  0  0
  8 39  1  0  0  0  0
  9 26  1  0  0  0  0
  9 10  1  0  0  0  0
 10 11  2  0  0  0  0
 10 40  1  0  0  0  0
 11 12  1  0  0  0  0
 12 26  2  0  0  0  0
 12 13  1  0  0  0  0
 13 14  1  0  0  0  0
 13 23  2  0  0  0  0
 14 19  1  0  0  0  0
 14 15  1  0  0  0  0
 15 16  1  0  0  0  0
 15 41  1  0  0  0  0
 15 42  1  0  0  0  0
 16 27  1  0  0  0  0
 16 17  1  0  0  0  0
 16 18  1  0  0  0  0
 18 19  1  0  0  0  0
 18 43  1  0  0  0  0
 18 44  1  0  0  0  0
 19 28  1  0  0  0  0
 19 20  1  0  0  0  0
 20 21  1  0  0  0  0
 20 22  2  0  0  0  0
 21 45  1  0  0  0  0
 21 46  1  0  0  0  0
 23 24  1  0  0  0  0
 24 25  2  0  0  0  0
 24 47  1  0  0  0  0
 25 26  1  0  0  0  0
M  END
> <s_m_source_file>
AV-unprocessed.smi

> <i_m_source_file_index>
196

> <i_lp_mmshare_version>
43012

> <i_f3d_flags>
0

> <s_epik_input>
W0NIMl0xW0NIMl1PW0NAQEhdKFtDSDNdKVtDQEBdMShbT0hdKVtDSDJdbihbY0hdbjIpYyhjMjMpbltjSF1uYzNONFtDSDJdW0NASF0oRilbQ0gyXVtDQEhdNEMoPU8pW05IMl0=

> <s_epik_cmdline>
J2VwaWtfcHl0aG9uJywgJy1waCcsICc3LjAnLCAnLXRuJywgJzgnLCAnLW1hJywgJzIwMCcsICctbWV0YWxfYmluZGluZycsICctaW1hZScsICc8aW5maWxlLm1hZT4nLCAnLW9tYWUnLCAnPG91dGZpbGUubWFlPic=

> <r_lp_tautomer_probability>
1

> <r_epik_Ionization_Penalty>
0.000857933

> <r_epik_Ionization_Penalty_Charging>
0

> <r_epik_Ionization_Penalty_Neutral>
0.000857933

> <r_epik_State_Penalty>
0.000462053

> <r_epik_Charging_Adjusted_Penalty>
0.000462053

> <i_epik_Tot_Q>
0

> <i_epik_Tot_abs_Q>
0

> <r_epik_Metal_State_Penalty>
-0

> <b_epik_Metal_Only>
0

> <s_lp_Force_Field>
OPLS_2005

> <r_lp_Energy>
47.3735

> <b_lp_Chiralities_Consistent>
1

> <s_lp_Variant>
AV-unprocessed.smi:196-7

> <Gold.Version>
5.8.1

> <Gold.Id.Protein>
6NUR|6NUR_protein|mol2

> <Gold.PLP.Fitness>
38.6686

> <Gold.PLP.PLP>
-31.9929

> <Gold.PLP.part.hbond>
-4.2258

> <Gold.PLP.part.metal>
0.0000

> <Gold.PLP.part.buried>
-3.5891

> <Gold.PLP.part.nonpolar>
-26.3204

> <Gold.PLP.part.repulsive>
1.0956

> <Gold.PLP.ligand.clash>
0.0000

> <Gold.PLP.ligand.torsion>
1.0862

> <Gold.PLP.Chemscore.Hbond>
2.8320

> <Gold.PLP.Chemscore.CHOScore>
0.0793

> <Gold.PLP.Chemscore.Metal>
0.0000

> <Gold.Chemscore.Hbonds>
donor molecule, donor type, donor heavy atom, donor atom, acceptor molecule, acceptor atom, score
      L1  H     7    37       P1  8028  0.73
      L1  H    21    45       P1 11000  1.00
      L1  H    21    46       P1 10957  0.32
      P1  H  8011  8017       L1     7  0.37

> <Gold.PLP.Chemscore.Internal.Correction>
0.1143

> <Gold.Rescore>
     Score         DG    S(hbond)    S(metal)    S(lipo)     H(rot)  DE(clash)    DE(int)     intcor
      9.73     -12.10       2.50        0.00      51.84       3.04       0.10       2.28       ----

> <Gold.Chemscore.Fitness>
9.7270

> <Gold.Chemscore.DG>
-12.1041

> <Gold.Chemscore.ZeroCoef>
-5.4800

> <Gold.Chemscore.Hbond>
2.4984

> <Gold.Chemscore.Metal>
0.0000

> <Gold.Chemscore.Lipo>
51.8399

> <Gold.Chemscore.Internal_Hbond>
0.0000

> <Gold.Chemscore.DEClash>
0.0995

> <Gold.Chemscore.DEInternal>
2.2777

> <Gold.Chemscore.Rot>
3.0413

> <Gold.Chemscore.Internal.Correction>
   9.000000E+99

> <Gold.Chemscore.Hbonds>
donor molecule, donor type, donor heavy atom, donor atom, acceptor molecule, acceptor atom, score
      L1  H     7    37       P1  8028  0.73
      L1  H    21    45       P1 11000  0.82
      L1  H    21    46       P1 10957  0.32
      P1  H  8011  8017       L1     7  0.33

> <Gold.Chemscore.Hbond.Weighted>
-8.3445

> <Gold.Chemscore.Metal.Weighted>
-0.0000

> <Gold.Chemscore.Lipo.Weighted>
-6.0653

> <Gold.Chemscore.Internal_Hbond.Weighted>
0.0000

> <Gold.Chemscore.DEClash.Weighted>
0.0995

> <Gold.Chemscore.DEInternal.Weighted>
2.2777

> <Gold.Chemscore.Rot.Weighted>
7.7856

> <Gold.Chemscore.Internal.Correction.Weighted>
   9.000000E+99

> <Gold.Protein.RotatedTorsions>
[ 6907 6896 6895 6894 ] final  -55.00 input  -60.11 | X-H torsion
[ 7974 7965 7964 7962 ] final -104.77 input  175.53 | X-H torsion
[ 8008 7997 7996 7995 ] final  -47.20 input   59.86 | X-H torsion
[ 10167 10162 10161 10158 ] final  -24.94 input  -65.29 | X-H torsion
[ 10718 10713 10712 10709 ] final  -49.97 input   66.30 | X-H torsion
[ 10763 10752 10751 10750 ] final   18.55 input  -60.55 | X-H torsion
[ 11005 11000 10999 10996 ] final  160.85 input  -57.11 | X-H torsion

> <Gold.Protein.ActiveResidues>
 VAL166  LYS551  ARG553  GLY616  TRP617  ASP618  TYR619  PRO620  LYS621  CYS622 
 ASP623  PHE694  ASN695  SER759  ASP760  ASP761  ALA762  ILE779  LEU786  VAL792 
 PHE793  MET794  SER795  GLU796  ALA797  LYS798  CYS799  TRP800  GLU811  SER814 

> <Gold.Protein.RotatedAtoms>
  150.8289  134.7533  159.6836 H   0  0  0  0  0  0  0  0  0  0  0  0  # atno 6907 bound_to 6896
  152.4396  134.5614  159.9905 H   0  0  0  0  0  0  0  0  0  0  0  0  # atno 6908 bound_to 6896
  151.5779  133.3344  159.3038 H   0  0  0  0  0  0  0  0  0  0  0  0  # atno 6909 bound_to 6896
  145.2389  140.9198  143.3161 H   0  0  0  0  0  0  0  0  0  0  0  0  # atno 7974 bound_to 7965
  154.4014  140.1352  156.4136 H   0  0  0  0  0  0  0  0  0  0  0  0  # atno 8008 bound_to 7997
  155.7710  140.3484  155.5226 H   0  0  0  0  0  0  0  0  0  0  0  0  # atno 8009 bound_to 7997
  155.8767  140.0980  157.1503 H   0  0  0  0  0  0  0  0  0  0  0  0  # atno 8010 bound_to 7997
  140.7287  143.4309  151.0803 H   0  0  0  0  0  0  0  0  0  0  0  0  # atno 10167 bound_to 10162
  156.1844  130.4151  149.9461 H   0  0  0  0  0  0  0  0  0  0  0  0  # atno 10718 bound_to 10713
  153.1239  135.6725  153.9289 H   0  0  0  0  0  0  0  0  0  0  0  0  # atno 10763 bound_to 10752
  153.8796  135.3060  155.3446 H   0  0  0  0  0  0  0  0  0  0  0  0  # atno 10764 bound_to 10752
  154.7647  135.4970  153.9612 H   0  0  0  0  0  0  0  0  0  0  0  0  # atno 10765 bound_to 10752
  140.2100  134.8274  157.3110 H   0  0  0  0  0  0  0  0  0  0  0  0  # atno 11005 bound_to 11000
  144.9607  139.3983  143.6357 LP  0  0  0  0  0  0  0  0  0  0  0  0  # atno 17320 bound_to 7965
  146.3333  139.8659  142.8848 LP  0  0  0  0  0  0  0  0  0  0  0  0  # atno 17321 bound_to 7965
  139.7966  143.8143  152.3158 LP  0  0  0  0  0  0  0  0  0  0  0  0  # atno 17342 bound_to 10162
  139.8145  144.7322  150.9653 LP  0  0  0  0  0  0  0  0  0  0  0  0  # atno 17343 bound_to 10162
  156.7221  130.9011  151.3619 LP  0  0  0  0  0  0  0  0  0  0  0  0  # atno 17370 bound_to 10713
  157.6889  130.9213  150.0460 LP  0  0  0  0  0  0  0  0  0  0  0  0  # atno 17371 bound_to 10713
  140.1961  134.4312  155.7688 LP  0  0  0  0  0  0  0  0  0  0  0  0  # atno 17394 bound_to 11000
  141.2226  133.7050  156.8107 LP  0  0  0  0  0  0  0  0  0  0  0  0  # atno 17395 bound_to 11000

$$$$
