AV-unprocessed.smi:1225|AV-procd|sdf|5139|dock3
  -GOLD-   22720 4203D 1   1.00000     0.00000
 Structure written by MMmdl.
 49 51  0  0  0  0  0  0  0  0  2 V2000
  149.9651  130.7655  155.7461 C   0  0  0  0  0  0  0  0  0  0  0  0
  149.8633  132.1961  155.3410 C   0  0  0  0  0  0  0  0  0  0  0  0
  149.0242  132.6408  154.4029 N   0  0  0  0  0  0  0  0  0  0  0  0
  149.1234  134.0206  154.2098 C   0  0  0  0  0  0  0  0  0  0  0  0
  150.0508  134.6295  155.0189 C   0  0  0  0  0  0  0  0  0  0  0  0
  150.4042  136.0823  155.0642 C   0  0  0  0  0  0  0  0  0  0  0  0
  149.4125  136.9127  155.7497 N   0  0  0  0  0  0  0  0  0  0  0  0
  148.2056  137.0640  154.9375 C   0  0  0  0  0  0  0  0  0  0  0  0
  149.9937  138.2113  156.1066 C   0  0  0  0  0  0  0  0  0  0  0  0
  151.1043  138.7594  155.1821 C   0  0  1  0  0  0  0  0  0  0  0  0
  150.5502  139.3382  154.0168 O   0  0  0  0  0  0  0  0  0  0  0  0
  152.0918  139.7223  155.8758 C   0  0  0  0  0  0  0  0  0  0  0  0
  151.4356  140.9257  156.4033 N   0  0  0  0  0  0  0  0  0  0  0  0
  150.4830  141.7197  155.8434 C   0  0  0  0  0  0  0  0  0  0  0  0
  150.2049  142.7142  156.7314 N   0  3  0  0  0  0  0  0  0  0  0  0
  150.9887  142.5499  157.8758 C   0  0  0  0  0  0  0  0  0  0  0  0
  151.0660  143.3000  159.0433 C   0  0  0  0  0  0  0  0  0  0  0  0
  151.9760  142.8623  160.0322 C   0  0  0  0  0  0  0  0  0  0  0  0
  152.0887  143.6624  161.3187 C   0  0  0  0  0  0  0  0  0  0  0  0
  152.7710  141.7037  159.8318 C   0  0  0  0  0  0  0  0  0  0  0  0
  153.7453  141.2415  160.9022 C   0  0  0  0  0  0  0  0  0  0  0  0
  152.6776  140.9544  158.6372 C   0  0  0  0  0  0  0  0  0  0  0  0
  151.7779  141.4015  157.6730 C   0  0  0  0  0  0  0  0  0  0  0  0
  150.8453  133.4697  156.0539 S   0  0  0  0  0  0  0  0  0  0  0  0
  149.1659  130.1792  155.2915 H   0  0  0  0  0  0  0  0  0  0  0  0
  149.8881  130.6787  156.8301 H   0  0  0  0  0  0  0  0  0  0  0  0
  150.9239  130.3564  155.4282 H   0  0  0  0  0  0  0  0  0  0  0  0
  148.4901  134.4922  153.4729 H   0  0  0  0  0  0  0  0  0  0  0  0
  151.3664  136.1740  155.5697 H   0  0  0  0  0  0  0  0  0  0  0  0
  150.5621  136.4553  154.0512 H   0  0  0  0  0  0  0  0  0  0  0  0
  147.4307  137.6069  155.4764 H   0  0  0  0  0  0  0  0  0  0  0  0
  147.7797  136.0951  154.6763 H   0  0  0  0  0  0  0  0  0  0  0  0
  148.4183  137.6001  154.0118 H   0  0  0  0  0  0  0  0  0  0  0  0
  149.1937  138.9525  156.0838 H   0  0  0  0  0  0  0  0  0  0  0  0
  150.3420  138.1966  157.1405 H   0  0  0  0  0  0  0  0  0  0  0  0
  151.6664  137.8959  154.8257 H   0  0  0  0  0  0  0  0  0  0  0  0
  149.6181  139.4275  154.1418 H   0  0  0  0  0  0  0  0  0  0  0  0
  152.5837  139.2311  156.7161 H   0  0  0  0  0  0  0  0  0  0  0  0
  152.8829  140.0307  155.1912 H   0  0  0  0  0  0  0  0  0  0  0  0
  150.0329  141.5871  154.8697 H   0  0  0  0  0  0  0  0  0  0  0  0
  150.4577  144.1808  159.1888 H   0  0  0  0  0  0  0  0  0  0  0  0
  153.0980  144.0583  161.4350 H   0  0  0  0  0  0  0  0  0  0  0  0
  151.8597  143.0370  162.1820 H   0  0  0  0  0  0  0  0  0  0  0  0
  151.3970  144.5056  161.3261 H   0  0  0  0  0  0  0  0  0  0  0  0
  154.2896  140.3501  160.5886 H   0  0  0  0  0  0  0  0  0  0  0  0
  153.2151  141.0005  161.8239 H   0  0  0  0  0  0  0  0  0  0  0  0
  154.4777  142.0201  161.1162 H   0  0  0  0  0  0  0  0  0  0  0  0
  153.2826  140.0731  158.4832 H   0  0  0  0  0  0  0  0  0  0  0  0
  149.5288  143.4489  156.5660 H   0  0  0  0  0  0  0  0  0  0  0  0
  1  2  1  0  0  0  0
  1 25  1  0  0  0  0
  1 26  1  0  0  0  0
  1 27  1  0  0  0  0
  2 24  1  0  0  0  0
  2  3  2  0  0  0  0
  3  4  1  0  0  0  0
  4  5  2  0  0  0  0
  4 28  1  0  0  0  0
  5  6  1  0  0  0  0
  5 24  1  0  0  0  0
  6  7  1  0  0  0  0
  6 29  1  0  0  0  0
  6 30  1  0  0  0  0
  7  8  1  0  0  0  0
  7  9  1  0  0  0  0
  8 31  1  0  0  0  0
  8 32  1  0  0  0  0
  8 33  1  0  0  0  0
  9 10  1  0  0  0  0
  9 34  1  0  0  0  0
  9 35  1  0  0  0  0
 10 11  1  0  0  0  0
 10 12  1  0  0  0  0
 10 36  1  0  0  0  0
 11 37  1  0  0  0  0
 12 13  1  0  0  0  0
 12 38  1  0  0  0  0
 12 39  1  0  0  0  0
 13 23  1  0  0  0  0
 13 14  1  0  0  0  0
 14 15  2  0  0  0  0
 14 40  1  0  0  0  0
 15 16  1  0  0  0  0
 15 49  1  0  0  0  0
 16 23  2  0  0  0  0
 16 17  1  0  0  0  0
 17 18  2  0  0  0  0
 17 41  1  0  0  0  0
 18 19  1  0  0  0  0
 18 20  1  0  0  0  0
 19 42  1  0  0  0  0
 19 43  1  0  0  0  0
 19 44  1  0  0  0  0
 20 21  1  0  0  0  0
 20 22  2  0  0  0  0
 21 45  1  0  0  0  0
 21 46  1  0  0  0  0
 21 47  1  0  0  0  0
 22 23  1  0  0  0  0
 22 48  1  0  0  0  0
M  CHG  1  15   1
M  END
> <s_m_source_file>
AV-unprocessed.smi

> <i_m_source_file_index>
1225

> <i_lp_mmshare_version>
43012

> <i_f3d_flags>
0

> <s_epik_input>
W0NIM11jMW5bY0hdYyhzMSlbQ0gyXU4oW0NIM10pW0NIMl1bQ0BIXShbT0hdKVtDSDJdbihbY0hdbjIpYyhjMjMpW2NIXWMoW0NIM10pYyhbY0hdMylbQ0gzXQ==

> <s_epik_cmdline>
J2VwaWtfcHl0aG9uJywgJy1waCcsICc3LjAnLCAnLXRuJywgJzgnLCAnLW1hJywgJzIwMCcsICctbWV0YWxfYmluZGluZycsICctaW1hZScsICc8aW5maWxlLm1hZT4nLCAnLW9tYWUnLCAnPG91dGZpbGUubWFlPic=

> <r_epik_Ionization_Penalty>
1.25968

> <r_epik_Ionization_Penalty_Charging>
1.21782

> <r_epik_Ionization_Penalty_Neutral>
0.0418565

> <r_epik_State_Penalty>
1.29962

> <r_epik_Charging_Adjusted_Penalty>
2.51745

> <i_epik_Tot_Q>
1

> <i_epik_Tot_abs_Q>
1

> <r_epik_Metal_State_Penalty>
1.36802

> <b_epik_Metal_Only>
0

> <s_lp_Force_Field>
OPLS_2005

> <r_lp_Energy>
27.2567

> <b_lp_Chiralities_Consistent>
1

> <s_lp_Variant>
AV-unprocessed.smi:1225-4

> <Gold.Version>
5.8.1

> <Gold.Id.Protein>
6NUR|6NUR_protein|mol2

> <Gold.PLP.Fitness>
56.6381

> <Gold.PLP.PLP>
-46.8151

> <Gold.PLP.part.hbond>
-2.7745

> <Gold.PLP.part.metal>
0.0000

> <Gold.PLP.part.buried>
-5.5488

> <Gold.PLP.part.nonpolar>
-38.2421

> <Gold.PLP.part.repulsive>
0.1567

> <Gold.PLP.ligand.clash>
0.0000

> <Gold.PLP.ligand.torsion>
1.1943

> <Gold.PLP.Chemscore.Hbond>
2.9840

> <Gold.PLP.Chemscore.CHOScore>
1.0000

> <Gold.PLP.Chemscore.Metal>
0.0000

> <Gold.Chemscore.Hbonds>
donor molecule, donor type, donor heavy atom, donor atom, acceptor molecule, acceptor atom, score
      L1  H    15    49       P1  8028  2.00
      P1  H  7989  7998       L1    11  1.00
      L1  C     4    28       P1  7948  1.00

> <Gold.PLP.Chemscore.Internal.Correction>
0.2595

> <Gold.Rescore>
     Score         DG    S(hbond)    S(metal)    S(lipo)     H(rot)  DE(clash)    DE(int)     intcor
     18.38     -20.34       1.88        0.00     125.18       2.36       0.13       1.82       ----

> <Gold.Chemscore.Fitness>
18.3831

> <Gold.Chemscore.DG>
-20.3354

> <Gold.Chemscore.ZeroCoef>
-5.4800

> <Gold.Chemscore.Hbond>
1.8752

> <Gold.Chemscore.Metal>
0.0000

> <Gold.Chemscore.Lipo>
125.1829

> <Gold.Chemscore.Internal_Hbond>
0.0000

> <Gold.Chemscore.DEClash>
0.1305

> <Gold.Chemscore.DEInternal>
1.8219

> <Gold.Chemscore.Rot>
2.3649

> <Gold.Chemscore.Internal.Correction>
   9.000000E+99

> <Gold.Chemscore.Hbonds>
donor molecule, donor type, donor heavy atom, donor atom, acceptor molecule, acceptor atom, score
      L1  H    15    49       P1  8028  0.97
      P1  H  7989  7998       L1    11  0.72

> <Gold.Chemscore.Hbond.Weighted>
-6.2630

> <Gold.Chemscore.Metal.Weighted>
-0.0000

> <Gold.Chemscore.Lipo.Weighted>
-14.6464

> <Gold.Chemscore.Internal_Hbond.Weighted>
0.0000

> <Gold.Chemscore.DEClash.Weighted>
0.1305

> <Gold.Chemscore.DEInternal.Weighted>
1.8219

> <Gold.Chemscore.Rot.Weighted>
6.0540

> <Gold.Chemscore.Internal.Correction.Weighted>
   9.000000E+99

> <Gold.Protein.RotatedTorsions>
[ 6907 6896 6895 6894 ] final   48.29 input  -60.11 | X-H torsion
[ 7974 7965 7964 7962 ] final  -41.63 input  175.53 | X-H torsion
[ 8008 7997 7996 7995 ] final   80.38 input   59.86 | X-H torsion
[ 10167 10162 10161 10158 ] final -160.74 input  -65.29 | X-H torsion
[ 10718 10713 10712 10709 ] final -127.46 input   66.30 | X-H torsion
[ 10763 10752 10751 10750 ] final -167.28 input  -60.55 | X-H torsion
[ 11005 11000 10999 10996 ] final  154.19 input  -57.11 | X-H torsion

> <Gold.Protein.ActiveResidues>
 VAL166  LYS551  ARG553  GLY616  TRP617  ASP618  TYR619  PRO620  LYS621  CYS622 
 ASP623  PHE694  ASN695  SER759  ASP760  ASP761  ALA762  ILE779  LEU786  VAL792 
 PHE793  MET794  SER795  GLU796  ALA797  LYS798  CYS799  TRP800  GLU811  SER814 

> <Gold.Protein.RotatedAtoms>
  152.2779  134.7861  160.0401 H   0  0  0  0  0  0  0  0  0  0  0  0  # atno 6907 bound_to 6896
  151.8451  133.3425  159.3663 H   0  0  0  0  0  0  0  0  0  0  0  0  # atno 6908 bound_to 6896
  150.7177  134.5281  159.5731 H   0  0  0  0  0  0  0  0  0  0  0  0  # atno 6909 bound_to 6896
  146.0193  140.6869  142.9186 H   0  0  0  0  0  0  0  0  0  0  0  0  # atno 7974 bound_to 7965
  155.8827  140.3443  155.5899 H   0  0  0  0  0  0  0  0  0  0  0  0  # atno 8008 bound_to 7997
  155.7701  140.0844  157.2131 H   0  0  0  0  0  0  0  0  0  0  0  0  # atno 8009 bound_to 7997
  154.4026  140.1520  156.2920 H   0  0  0  0  0  0  0  0  0  0  0  0  # atno 8010 bound_to 7997
  139.6517  144.0072  152.2166 H   0  0  0  0  0  0  0  0  0  0  0  0  # atno 10167 bound_to 10162
  156.1859  130.6763  151.0363 H   0  0  0  0  0  0  0  0  0  0  0  0  # atno 10718 bound_to 10713
  154.6748  135.2945  154.9693 H   0  0  0  0  0  0  0  0  0  0  0  0  # atno 10763 bound_to 10752
  154.0708  135.6618  153.4828 H   0  0  0  0  0  0  0  0  0  0  0  0  # atno 10764 bound_to 10752
  153.0509  135.5174  154.7762 H   0  0  0  0  0  0  0  0  0  0  0  0  # atno 10765 bound_to 10752
  140.1466  134.8703  157.2400 H   0  0  0  0  0  0  0  0  0  0  0  0  # atno 11005 bound_to 11000
  144.6983  140.3537  143.7177 LP  0  0  0  0  0  0  0  0  0  0  0  0  # atno 17320 bound_to 7965
  145.7218  139.1712  143.2480 LP  0  0  0  0  0  0  0  0  0  0  0  0  # atno 17321 bound_to 7965
  139.9788  144.6443  150.7920 LP  0  0  0  0  0  0  0  0  0  0  0  0  # atno 17342 bound_to 10162
  140.7540  143.3020  151.3057 LP  0  0  0  0  0  0  0  0  0  0  0  0  # atno 17343 bound_to 10162
  157.6898  131.0813  150.7140 LP  0  0  0  0  0  0  0  0  0  0  0  0  # atno 17370 bound_to 10713
  156.7196  130.4676  149.5526 LP  0  0  0  0  0  0  0  0  0  0  0  0  # atno 17371 bound_to 10713
  140.2656  134.3520  155.7391 LP  0  0  0  0  0  0  0  0  0  0  0  0  # atno 17394 bound_to 11000
  141.2193  133.7394  156.9146 LP  0  0  0  0  0  0  0  0  0  0  0  0  # atno 17395 bound_to 11000

$$$$
