AV-unprocessed.smi:155|AV-procd|sdf|1286|dock9
  -GOLD-   2262018563D 1   1.00000     0.00000
 Structure written by MMmdl.
 64 67  0  0  0  0  0  0  0  0  3 V2000
  145.4919  130.0310  151.4526 C   0  0  0  0  0  0  0  0  0  0  0  0
  146.5366  131.0670  151.6205 N   0  3  0  0  0  0  0  0  0  0  0  0
  147.0881  131.0651  152.9939 C   0  0  0  0  0  0  0  0  0  0  0  0
  146.0920  132.4193  151.1980 C   0  0  0  0  0  0  0  0  0  0  0  0
  147.1350  133.5124  151.5131 C   0  0  0  0  0  0  0  0  0  0  0  0
  146.5172  134.7546  152.0489 N   0  3  1  0  0  0  0  0  0  0  0  0
  145.6747  135.4654  151.0498 C   0  0  0  0  0  0  0  0  0  0  0  0
  145.9387  136.9806  151.1019 C   0  0  0  0  0  0  0  0  0  0  0  0
  145.3551  137.6761  152.3444 C   0  0  0  0  0  0  0  0  0  0  0  0
  145.7958  137.0645  153.5967 N   0  0  0  0  0  0  0  0  0  0  0  0
  146.9949  137.3794  154.1753 C   0  0  0  0  0  0  0  0  0  0  0  0
  147.7048  136.3676  154.7448 N   0  0  0  0  0  0  0  0  0  0  0  0
  148.8852  136.5910  155.3263 C   0  0  0  0  0  0  0  0  0  0  0  0
  149.5466  137.7401  155.4468 N   0  0  0  0  0  0  0  0  0  0  0  0
  148.8530  138.7681  154.8832 C   0  0  0  0  0  0  0  0  0  0  0  0
  147.5844  138.6830  154.2342 C   0  0  0  0  0  0  0  0  0  0  0  0
  147.2197  139.9508  153.7886 N   0  0  0  0  0  0  0  0  0  0  0  0
  148.2001  140.7294  154.1533 C   0  0  0  0  0  0  0  0  0  0  0  0
  149.2238  140.0994  154.8182 N   0  0  0  0  0  0  0  0  0  0  0  0
  150.4337  140.7198  155.3316 C   0  0  0  0  0  0  0  0  0  0  0  0
  150.4895  140.7211  156.8743 C   0  0  1  0  0  0  0  0  0  0  0  0
  150.7883  139.4074  157.3068 O   0  0  0  0  0  0  0  0  0  0  0  0
  151.5743  141.6592  157.4414 C   0  0  1  0  0  0  0  0  0  0  0  0
  151.3006  143.1519  157.2498 C   0  0  0  0  0  0  0  0  0  0  0  0
  152.1222  143.8049  158.3477 C   0  0  0  0  0  0  0  0  0  0  0  0
  152.3415  142.6773  159.3586 C   0  0  0  0  0  0  0  0  0  0  0  0
  151.5970  141.5743  158.8588 O   0  0  0  0  0  0  0  0  0  0  0  0
  145.1411  135.7985  153.9404 C   0  0  0  0  0  0  0  0  0  0  0  0
  145.8429  134.5480  153.3623 C   0  0  0  0  0  0  0  0  0  0  0  0
  144.6184  130.2519  152.0674 H   0  0  0  0  0  0  0  0  0  0  0  0
  145.8731  129.0519  151.7452 H   0  0  0  0  0  0  0  0  0  0  0  0
  145.1699  129.9554  150.4144 H   0  0  0  0  0  0  0  0  0  0  0  0
  146.3280  131.3521  153.7217 H   0  0  0  0  0  0  0  0  0  0  0  0
  147.9231  131.7613  153.0783 H   0  0  0  0  0  0  0  0  0  0  0  0
  147.4594  130.0747  153.2599 H   0  0  0  0  0  0  0  0  0  0  0  0
  145.8373  132.4050  150.1373 H   0  0  0  0  0  0  0  0  0  0  0  0
  145.1739  132.6616  151.7363 H   0  0  0  0  0  0  0  0  0  0  0  0
  147.8130  133.1079  152.2661 H   0  0  0  0  0  0  0  0  0  0  0  0
  147.7416  133.7501  150.6383 H   0  0  0  0  0  0  0  0  0  0  0  0
  145.9177  135.1299  150.0412 H   0  0  0  0  0  0  0  0  0  0  0  0
  144.6172  135.2350  151.1885 H   0  0  0  0  0  0  0  0  0  0  0  0
  147.0111  137.1638  151.0326 H   0  0  0  0  0  0  0  0  0  0  0  0
  145.5018  137.4450  150.2174 H   0  0  0  0  0  0  0  0  0  0  0  0
  145.5618  138.7447  152.3351 H   0  0  0  0  0  0  0  0  0  0  0  0
  144.2672  137.6126  152.3000 H   0  0  0  0  0  0  0  0  0  0  0  0
  149.3681  135.7258  155.7566 H   0  0  0  0  0  0  0  0  0  0  0  0
  148.2040  141.7900  153.9467 H   0  0  0  0  0  0  0  0  0  0  0  0
  151.3000  140.2012  154.9190 H   0  0  0  0  0  0  0  0  0  0  0  0
  150.4703  141.7386  154.9456 H   0  0  0  0  0  0  0  0  0  0  0  0
  149.5140  141.0075  157.2693 H   0  0  0  0  0  0  0  0  0  0  0  0
  150.4863  138.7984  156.6506 H   0  0  0  0  0  0  0  0  0  0  0  0
  152.5587  141.4126  157.0379 H   0  0  0  0  0  0  0  0  0  0  0  0
  151.5690  143.5089  156.2552 H   0  0  0  0  0  0  0  0  0  0  0  0
  150.2426  143.3635  157.4117 H   0  0  0  0  0  0  0  0  0  0  0  0
  153.0792  144.1596  157.9631 H   0  0  0  0  0  0  0  0  0  0  0  0
  151.5986  144.6554  158.7852 H   0  0  0  0  0  0  0  0  0  0  0  0
  153.3972  142.4081  159.4127 H   0  0  0  0  0  0  0  0  0  0  0  0
  152.0061  142.9451  160.3603 H   0  0  0  0  0  0  0  0  0  0  0  0
  145.0189  135.7026  155.0202 H   0  0  0  0  0  0  0  0  0  0  0  0
  144.1226  135.8312  153.5520 H   0  0  0  0  0  0  0  0  0  0  0  0
  145.1227  133.7319  153.2897 H   0  0  0  0  0  0  0  0  0  0  0  0
  146.5947  134.2292  154.0833 H   0  0  0  0  0  0  0  0  0  0  0  0
  147.3025  130.8092  151.0144 H   0  0  0  0  0  0  0  0  0  0  0  0
  147.2878  135.3833  152.2252 H   0  0  0  0  0  0  0  0  0  0  0  0
  1  2  1  0  0  0  0
  1 30  1  0  0  0  0
  1 31  1  0  0  0  0
  1 32  1  0  0  0  0
  2  3  1  0  0  0  0
  2  4  1  0  0  0  0
  2 63  1  0  0  0  0
  3 33  1  0  0  0  0
  3 34  1  0  0  0  0
  3 35  1  0  0  0  0
  4  5  1  0  0  0  0
  4 36  1  0  0  0  0
  4 37  1  0  0  0  0
  5  6  1  0  0  0  0
  5 38  1  0  0  0  0
  5 39  1  0  0  0  0
  6 29  1  0  0  0  0
  6  7  1  0  0  0  0
  6 64  1  0  0  0  0
  7  8  1  0  0  0  0
  7 40  1  0  0  0  0
  7 41  1  0  0  0  0
  8  9  1  0  0  0  0
  8 42  1  0  0  0  0
  8 43  1  0  0  0  0
  9 10  1  0  0  0  0
  9 44  1  0  0  0  0
  9 45  1  0  0  0  0
 10 11  1  0  0  0  0
 10 28  1  0  0  0  0
 11 16  1  0  0  0  0
 11 12  2  0  0  0  0
 12 13  1  0  0  0  0
 13 14  2  0  0  0  0
 13 46  1  0  0  0  0
 14 15  1  0  0  0  0
 15 19  1  0  0  0  0
 15 16  2  0  0  0  0
 16 17  1  0  0  0  0
 17 18  2  0  0  0  0
 18 19  1  0  0  0  0
 18 47  1  0  0  0  0
 19 20  1  0  0  0  0
 20 21  1  0  0  0  0
 20 48  1  0  0  0  0
 20 49  1  0  0  0  0
 21 22  1  0  0  0  0
 21 23  1  0  0  0  0
 21 50  1  0  0  0  0
 22 51  1  0  0  0  0
 23 27  1  0  0  0  0
 23 24  1  0  0  0  0
 23 52  1  0  0  0  0
 24 25  1  0  0  0  0
 24 53  1  0  0  0  0
 24 54  1  0  0  0  0
 25 26  1  0  0  0  0
 25 55  1  0  0  0  0
 25 56  1  0  0  0  0
 26 27  1  0  0  0  0
 26 57  1  0  0  0  0
 26 58  1  0  0  0  0
 28 29  1  0  0  0  0
 28 59  1  0  0  0  0
 28 60  1  0  0  0  0
 29 61  1  0  0  0  0
 29 62  1  0  0  0  0
M  CHG  1   2   1
M  CHG  1   6   1
M  END
> <s_m_source_file>
AV-unprocessed.smi

> <i_m_source_file_index>
155

> <i_lp_mmshare_version>
43012

> <i_f3d_flags>
0

> <s_epik_input>
W0NIM11OKFtDSDNdKVtDSDJdW0NIMl1OMVtDSDJdW0NIMl1bQ0gyXU4oW0NIMl1bQ0gyXTEpYyhuW2NIXW4yKWMoYzIzKW5bY0hdbjNbQ0gyXVtDQEhdKFtPSF0pW0NAQEhdNFtDSDJdW0NIMl1bQ0gyXU80

> <s_epik_cmdline>
J2VwaWtfcHl0aG9uJywgJy1waCcsICc3LjAnLCAnLXRuJywgJzgnLCAnLW1hJywgJzIwMCcsICctbWV0YWxfYmluZGluZycsICctaW1hZScsICc8aW5maWxlLm1hZT4nLCAnLW9tYWUnLCAnPG91dGZpbGUubWFlPic=

> <r_lp_tautomer_probability>
1

> <r_epik_Ionization_Penalty>
3.0333

> <r_epik_Ionization_Penalty_Charging>
3.03317

> <r_epik_Ionization_Penalty_Neutral>
0.000131872

> <r_epik_State_Penalty>
1.99939

> <r_epik_Charging_Adjusted_Penalty>
5.03256

> <i_epik_Tot_Q>
2

> <i_epik_Tot_abs_Q>
2

> <r_epik_Metal_State_Penalty>
2.00021

> <b_epik_Metal_Only>
0

> <s_lp_Force_Field>
OPLS_2005

> <r_lp_Energy>
62.6942

> <b_lp_Chiralities_Consistent>
1

> <s_lp_Variant>
AV-unprocessed.smi:155-20

> <Gold.Version>
5.8.1

> <Gold.Id.Protein>
6NUR|6NUR_protein|mol2

> <Gold.PLP.Fitness>
48.4012

> <Gold.PLP.PLP>
-40.8056

> <Gold.PLP.part.hbond>
-2.0000

> <Gold.PLP.part.metal>
0.0000

> <Gold.PLP.part.buried>
-4.0854

> <Gold.PLP.part.nonpolar>
-35.8855

> <Gold.PLP.part.repulsive>
0.3149

> <Gold.PLP.ligand.clash>
0.0000

> <Gold.PLP.ligand.torsion>
0.9366

> <Gold.PLP.Chemscore.Hbond>
3.0000

> <Gold.PLP.Chemscore.CHOScore>
0.0000

> <Gold.PLP.Chemscore.Metal>
0.0000

> <Gold.Chemscore.Hbonds>
donor molecule, donor type, donor heavy atom, donor atom, acceptor molecule, acceptor atom, score
      L1  H     2    63       P1 10747  1.00
      L1  H     6    64       P1  7948  2.00

> <Gold.PLP.Chemscore.Internal.Correction>
0.4688

> <Gold.Rescore>
     Score         DG    S(hbond)    S(metal)    S(lipo)     H(rot)  DE(clash)    DE(int)     intcor
     15.11     -17.77       1.94        0.00     109.83       2.75       0.64       2.01       ----

> <Gold.Chemscore.Fitness>
15.1130

> <Gold.Chemscore.DG>
-17.7699

> <Gold.Chemscore.ZeroCoef>
-5.4800

> <Gold.Chemscore.Hbond>
1.9395

> <Gold.Chemscore.Metal>
0.0000

> <Gold.Chemscore.Lipo>
109.8312

> <Gold.Chemscore.Internal_Hbond>
0.0000

> <Gold.Chemscore.DEClash>
0.6419

> <Gold.Chemscore.DEInternal>
2.0150

> <Gold.Chemscore.Rot>
2.7493

> <Gold.Chemscore.Internal.Correction>
   9.000000E+99

> <Gold.Chemscore.Hbonds>
donor molecule, donor type, donor heavy atom, donor atom, acceptor molecule, acceptor atom, score
      L1  H     2    63       P1 10747  0.99
      L1  H     6    64       P1  7948  0.97

> <Gold.Chemscore.Hbond.Weighted>
-6.4779

> <Gold.Chemscore.Metal.Weighted>
-0.0000

> <Gold.Chemscore.Lipo.Weighted>
-12.8503

> <Gold.Chemscore.Internal_Hbond.Weighted>
0.0000

> <Gold.Chemscore.DEClash.Weighted>
0.6419

> <Gold.Chemscore.DEInternal.Weighted>
2.0150

> <Gold.Chemscore.Rot.Weighted>
7.0383

> <Gold.Chemscore.Internal.Correction.Weighted>
   9.000000E+99

> <Gold.Protein.RotatedTorsions>
[ 6907 6896 6895 6894 ] final   27.57 input  -60.11 | X-H torsion
[ 7974 7965 7964 7962 ] final -150.21 input  175.53 | X-H torsion
[ 8008 7997 7996 7995 ] final -145.20 input   59.86 | X-H torsion
[ 10167 10162 10161 10158 ] final  -26.03 input  -65.29 | X-H torsion
[ 10718 10713 10712 10709 ] final   27.07 input   66.30 | X-H torsion
[ 10763 10752 10751 10750 ] final  -73.78 input  -60.55 | X-H torsion
[ 11005 11000 10999 10996 ] final  150.25 input  -57.11 | X-H torsion

> <Gold.Protein.ActiveResidues>
 VAL166  LYS551  ARG553  GLY616  TRP617  ASP618  TYR619  PRO620  LYS621  CYS622 
 ASP623  PHE694  ASN695  SER759  ASP760  ASP761  ALA762  ILE779  LEU786  VAL792 
 PHE793  MET794  SER795  GLU796  ALA797  LYS798  CYS799  TRP800  GLU811  SER814 

> <Gold.Protein.RotatedAtoms>
  152.0042  134.9912  160.0565 H   0  0  0  0  0  0  0  0  0  0  0  0  # atno 6907 bound_to 6896
  152.1490  133.4506  159.4812 H   0  0  0  0  0  0  0  0  0  0  0  0  # atno 6908 bound_to 6896
  150.6873  134.2130  159.4410 H   0  0  0  0  0  0  0  0  0  0  0  0  # atno 6909 bound_to 6896
  144.7921  140.4962  143.5765 H   0  0  0  0  0  0  0  0  0  0  0  0  # atno 7974 bound_to 7965
  155.5393  140.0606  157.2873 H   0  0  0  0  0  0  0  0  0  0  0  0  # atno 8008 bound_to 7997
  154.4457  140.1922  156.0619 H   0  0  0  0  0  0  0  0  0  0  0  0  # atno 8009 bound_to 7997
  156.0596  140.3274  155.7450 H   0  0  0  0  0  0  0  0  0  0  0  0  # atno 8010 bound_to 7997
  140.7284  143.4213  151.0946 H   0  0  0  0  0  0  0  0  0  0  0  0  # atno 10167 bound_to 10162
  157.2153  130.6953  149.6246 H   0  0  0  0  0  0  0  0  0  0  0  0  # atno 10718 bound_to 10713
  154.4641  135.5886  153.6276 H   0  0  0  0  0  0  0  0  0  0  0  0  # atno 10763 bound_to 10752
  152.9826  135.6051  154.3449 H   0  0  0  0  0  0  0  0  0  0  0  0  # atno 10764 bound_to 10752
  154.3324  135.2842  155.2444 H   0  0  0  0  0  0  0  0  0  0  0  0  # atno 10765 bound_to 10752
  140.1115  134.8921  157.1943 H   0  0  0  0  0  0  0  0  0  0  0  0  # atno 11005 bound_to 11000
  145.5768  139.1486  143.3258 LP  0  0  0  0  0  0  0  0  0  0  0  0  # atno 17320 bound_to 7965
  146.2176  140.5899  142.9031 LP  0  0  0  0  0  0  0  0  0  0  0  0  # atno 17321 bound_to 7965
  139.7859  143.8287  152.3145 LP  0  0  0  0  0  0  0  0  0  0  0  0  # atno 17342 bound_to 10162
  139.8255  144.7277  150.9518 LP  0  0  0  0  0  0  0  0  0  0  0  0  # atno 17343 bound_to 10162
  155.9687  130.4537  150.5824 LP  0  0  0  0  0  0  0  0  0  0  0  0  # atno 17370 bound_to 10713
  157.3631  131.0753  151.1620 LP  0  0  0  0  0  0  0  0  0  0  0  0  # atno 17371 bound_to 10713
  140.3085  134.3051  155.7272 LP  0  0  0  0  0  0  0  0  0  0  0  0  # atno 17394 bound_to 11000
  141.2131  133.7635  156.9742 LP  0  0  0  0  0  0  0  0  0  0  0  0  # atno 17395 bound_to 11000

$$$$
