AV-unprocessed.smi:2790|AV-procd|sdf|10768|dock3
  -GOLD-   2272015203D 1   1.00000     0.00000
 Structure written by MMmdl.
 45 46  0  0  0  0  0  0  0  0  1 V2000
  151.3994  144.8635  161.0264 C   0  0  0  0  0  0  0  0  0  0  0  0
  150.2929  144.5805  160.1130 N   0  0  0  0  0  0  0  0  0  0  0  0
  149.1118  145.3284  160.5293 C   0  0  0  0  0  0  0  0  0  0  0  0
  150.6152  144.9032  158.7035 C   0  0  0  0  0  0  0  0  0  0  0  0
  151.3355  143.7866  157.9385 C   0  0  0  0  0  0  0  0  0  0  0  0
  152.4304  143.3780  158.3244 O   0  0  0  0  0  0  0  0  0  0  0  0
  150.7104  143.3099  156.8533 N   0  0  0  0  0  0  0  0  0  0  0  0
  151.2079  142.2316  156.0057 C   0  0  0  0  0  0  0  0  0  0  0  0
  150.1251  141.1573  155.7298 C   0  0  0  0  0  0  0  0  0  0  0  0
  150.8247  139.8464  155.2969 C   0  0  0  0  0  0  0  0  0  0  0  0
  150.1052  138.6890  154.9069 C   0  0  0  0  0  0  0  0  0  0  0  0
  150.8130  137.5417  154.4977 C   0  0  0  0  0  0  0  0  0  0  0  0
  152.1585  137.4794  154.4404 N   0  0  0  0  0  0  0  0  0  0  0  0
  152.8488  138.5835  154.7889 C   0  0  0  0  0  0  0  0  0  0  0  0
  152.2367  139.7793  155.2127 C   0  0  0  0  0  0  0  0  0  0  0  0
  149.2936  140.9600  157.0306 C   0  0  0  0  0  0  0  0  0  0  0  0
  148.0928  140.0166  156.8390 C   0  0  0  0  0  0  0  0  0  0  0  0
  147.1461  140.5532  155.7567 C   0  0  0  0  0  0  0  0  0  0  0  0
  147.8970  140.8047  154.4422 C   0  0  0  0  0  0  0  0  0  0  0  0
  149.1287  141.7076  154.6622 C   0  0  0  0  0  0  0  0  0  0  0  0
  152.2719  144.2474  160.8080 H   0  0  0  0  0  0  0  0  0  0  0  0
  151.1131  144.6460  162.0560 H   0  0  0  0  0  0  0  0  0  0  0  0
  151.7003  145.9109  160.9736 H   0  0  0  0  0  0  0  0  0  0  0  0
  148.2612  145.0957  159.8876 H   0  0  0  0  0  0  0  0  0  0  0  0
  149.2835  146.4054  160.4898 H   0  0  0  0  0  0  0  0  0  0  0  0
  148.8279  145.0668  161.5493 H   0  0  0  0  0  0  0  0  0  0  0  0
  149.6937  145.1259  158.1634 H   0  0  0  0  0  0  0  0  0  0  0  0
  151.2249  145.8080  158.6639 H   0  0  0  0  0  0  0  0  0  0  0  0
  149.8155  143.7095  156.6087 H   0  0  0  0  0  0  0  0  0  0  0  0
  151.5524  142.6690  155.0674 H   0  0  0  0  0  0  0  0  0  0  0  0
  152.0823  141.7747  156.4728 H   0  0  0  0  0  0  0  0  0  0  0  0
  149.0276  138.6526  154.9076 H   0  0  0  0  0  0  0  0  0  0  0  0
  150.2806  136.6500  154.2021 H   0  0  0  0  0  0  0  0  0  0  0  0
  153.9245  138.5159  154.7206 H   0  0  0  0  0  0  0  0  0  0  0  0
  152.8593  140.6267  155.4535 H   0  0  0  0  0  0  0  0  0  0  0  0
  149.9105  140.6097  157.8566 H   0  0  0  0  0  0  0  0  0  0  0  0
  148.9118  141.9273  157.3614 H   0  0  0  0  0  0  0  0  0  0  0  0
  148.4374  139.0173  156.5704 H   0  0  0  0  0  0  0  0  0  0  0  0
  147.5516  139.9120  157.7799 H   0  0  0  0  0  0  0  0  0  0  0  0
  146.3276  139.8519  155.5920 H   0  0  0  0  0  0  0  0  0  0  0  0
  146.6919  141.4839  156.0993 H   0  0  0  0  0  0  0  0  0  0  0  0
  148.1920  139.8504  154.0072 H   0  0  0  0  0  0  0  0  0  0  0  0
  147.2252  141.2696  153.7202 H   0  0  0  0  0  0  0  0  0  0  0  0
  148.7666  142.6838  154.9887 H   0  0  0  0  0  0  0  0  0  0  0  0
  149.6247  141.9037  153.7120 H   0  0  0  0  0  0  0  0  0  0  0  0
  1  2  1  0  0  0  0
  1 21  1  0  0  0  0
  1 22  1  0  0  0  0
  1 23  1  0  0  0  0
  2  3  1  0  0  0  0
  2  4  1  0  0  0  0
  3 24  1  0  0  0  0
  3 25  1  0  0  0  0
  3 26  1  0  0  0  0
  4  5  1  0  0  0  0
  4 27  1  0  0  0  0
  4 28  1  0  0  0  0
  5  6  2  0  0  0  0
  5  7  1  0  0  0  0
  7  8  1  0  0  0  0
  7 29  1  0  0  0  0
  8  9  1  0  0  0  0
  8 30  1  0  0  0  0
  8 31  1  0  0  0  0
  9 20  1  0  0  0  0
  9 10  1  0  0  0  0
  9 16  1  0  0  0  0
 10 15  1  0  0  0  0
 10 11  2  0  0  0  0
 11 12  1  0  0  0  0
 11 32  1  0  0  0  0
 12 13  2  0  0  0  0
 12 33  1  0  0  0  0
 13 14  1  0  0  0  0
 14 15  2  0  0  0  0
 14 34  1  0  0  0  0
 15 35  1  0  0  0  0
 16 17  1  0  0  0  0
 16 36  1  0  0  0  0
 16 37  1  0  0  0  0
 17 18  1  0  0  0  0
 17 38  1  0  0  0  0
 17 39  1  0  0  0  0
 18 19  1  0  0  0  0
 18 40  1  0  0  0  0
 18 41  1  0  0  0  0
 19 20  1  0  0  0  0
 19 42  1  0  0  0  0
 19 43  1  0  0  0  0
 20 44  1  0  0  0  0
 20 45  1  0  0  0  0
M  END
> <s_m_source_file>
AV-unprocessed.smi

> <i_m_source_file_index>
2790

> <i_lp_mmshare_version>
43012

> <i_f3d_flags>
0

> <s_epik_input>
W0NIM11OKFtDSDNdKVtDSDJdQyg9TylbTkhdW0NIMl1DMShbQ0gyXVtDSDJdW0NIMl1bQ0gyXVtDSDJdMSljMltjSF1bY0hdbltjSF1bY0hdMg==

> <s_epik_cmdline>
J2VwaWtfcHl0aG9uJywgJy1waCcsICc3LjAnLCAnLXRuJywgJzgnLCAnLW1hJywgJzIwMCcsICctbWV0YWxfYmluZGluZycsICctaW1hZScsICc8aW5maWxlLm1hZT4nLCAnLW9tYWUnLCAnPG91dGZpbGUubWFlPic=

> <r_epik_Ionization_Penalty>
1.73486

> <r_epik_Ionization_Penalty_Charging>
0

> <r_epik_Ionization_Penalty_Neutral>
1.73486

> <r_epik_State_Penalty>
1.84779

> <r_epik_Charging_Adjusted_Penalty>
1.84779

> <i_epik_Tot_Q>
0

> <i_epik_Tot_abs_Q>
0

> <r_epik_Metal_State_Penalty>
1.83713

> <b_epik_Metal_Only>
0

> <s_lp_Force_Field>
OPLS_2005

> <r_lp_Energy>
21.958

> <b_lp_Chiralities_Consistent>
1

> <s_lp_Variant>
AV-unprocessed.smi:2790-3

> <Gold.Version>
5.8.1

> <Gold.Id.Protein>
6NUR|6NUR_protein|mol2

> <Gold.PLP.Fitness>
43.5890

> <Gold.PLP.PLP>
-36.1408

> <Gold.PLP.part.hbond>
-2.3388

> <Gold.PLP.part.metal>
0.0000

> <Gold.PLP.part.buried>
-2.4220

> <Gold.PLP.part.nonpolar>
-30.9660

> <Gold.PLP.part.repulsive>
0.3156

> <Gold.PLP.ligand.clash>
0.0122

> <Gold.PLP.ligand.torsion>
0.6723

> <Gold.PLP.Chemscore.Hbond>
1.9120

> <Gold.PLP.Chemscore.CHOScore>
1.0003

> <Gold.PLP.Chemscore.Metal>
0.0000

> <Gold.Chemscore.Hbonds>
donor molecule, donor type, donor heavy atom, donor atom, acceptor molecule, acceptor atom, score
      L1  H     7    29       P1  8028  1.00
      P1  H 10752 10765       L1    13  0.82
      L1  C    12    33       P1  7948  0.54

> <Gold.PLP.Chemscore.Internal.Correction>
0.0682

> <Gold.Rescore>
     Score         DG    S(hbond)    S(metal)    S(lipo)     H(rot)  DE(clash)    DE(int)     intcor
     15.40     -19.16       1.76        0.00     100.73       1.55       2.14       1.63       ----

> <Gold.Chemscore.Fitness>
15.3960

> <Gold.Chemscore.DG>
-19.1629

> <Gold.Chemscore.ZeroCoef>
-5.4800

> <Gold.Chemscore.Hbond>
1.7566

> <Gold.Chemscore.Metal>
0.0000

> <Gold.Chemscore.Lipo>
100.7282

> <Gold.Chemscore.Internal_Hbond>
0.0000

> <Gold.Chemscore.DEClash>
2.1392

> <Gold.Chemscore.DEInternal>
1.6277

> <Gold.Chemscore.Rot>
1.5505

> <Gold.Chemscore.Internal.Correction>
   9.000000E+99

> <Gold.Chemscore.Hbonds>
donor molecule, donor type, donor heavy atom, donor atom, acceptor molecule, acceptor atom, score
      L1  H     7    29       P1  8028  0.94
      P1  H 10752 10765       L1    13  0.75

> <Gold.Chemscore.Hbond.Weighted>
-5.8670

> <Gold.Chemscore.Metal.Weighted>
-0.0000

> <Gold.Chemscore.Lipo.Weighted>
-11.7852

> <Gold.Chemscore.Internal_Hbond.Weighted>
0.0000

> <Gold.Chemscore.DEClash.Weighted>
2.1392

> <Gold.Chemscore.DEInternal.Weighted>
1.6277

> <Gold.Chemscore.Rot.Weighted>
3.9693

> <Gold.Chemscore.Internal.Correction.Weighted>
   9.000000E+99

> <Gold.Protein.RotatedTorsions>
[ 6907 6896 6895 6894 ] final   92.57 input  -60.11 | X-H torsion
[ 7974 7965 7964 7962 ] final  -53.68 input  175.53 | X-H torsion
[ 8008 7997 7996 7995 ] final  -56.80 input   59.86 | X-H torsion
[ 10167 10162 10161 10158 ] final   28.93 input  -65.29 | X-H torsion
[ 10718 10713 10712 10709 ] final  158.73 input   66.30 | X-H torsion
[ 10763 10752 10751 10750 ] final  160.46 input  -60.55 | X-H torsion
[ 11005 11000 10999 10996 ] final    8.27 input  -57.11 | X-H torsion

> <Gold.Protein.ActiveResidues>
 VAL166  LYS551  ARG553  GLY616  TRP617  ASP618  TYR619  PRO620  LYS621  CYS622 
 ASP623  PHE694  ASN695  SER759  ASP760  ASP761  ALA762  ILE779  LEU786  VAL792 
 PHE793  MET794  SER795  GLU796  ALA797  LYS798  CYS799  TRP800  GLU811  SER814 

> <Gold.Protein.RotatedAtoms>
  152.5452  134.1482  159.8507 H   0  0  0  0  0  0  0  0  0  0  0  0  # atno 6907 bound_to 6896
  151.1511  133.4899  159.2602 H   0  0  0  0  0  0  0  0  0  0  0  0  # atno 6908 bound_to 6896
  151.1471  135.0219  159.8706 H   0  0  0  0  0  0  0  0  0  0  0  0  # atno 6909 bound_to 6896
  145.8941  140.8047  142.9776 H   0  0  0  0  0  0  0  0  0  0  0  0  # atno 7974 bound_to 7965
  154.4243  140.1121  156.5695 H   0  0  0  0  0  0  0  0  0  0  0  0  # atno 8008 bound_to 7997
  155.6227  140.3495  155.4638 H   0  0  0  0  0  0  0  0  0  0  0  0  # atno 8009 bound_to 7997
  156.0011  140.1199  157.0536 H   0  0  0  0  0  0  0  0  0  0  0  0  # atno 8010 bound_to 7997
  140.4810  144.0616  150.6265 H   0  0  0  0  0  0  0  0  0  0  0  0  # atno 10167 bound_to 10162
  157.1739  131.0616  151.2168 H   0  0  0  0  0  0  0  0  0  0  0  0  # atno 10718 bound_to 10713
  154.2478  135.2772  155.2828 H   0  0  0  0  0  0  0  0  0  0  0  0  # atno 10763 bound_to 10752
  154.5491  135.5680  153.6909 H   0  0  0  0  0  0  0  0  0  0  0  0  # atno 10764 bound_to 10752
  152.9986  135.6270  154.2624 H   0  0  0  0  0  0  0  0  0  0  0  0  # atno 10765 bound_to 10752
  140.5389  134.0394  155.7897 H   0  0  0  0  0  0  0  0  0  0  0  0  # atno 11005 bound_to 11000
  144.6732  140.1575  143.7425 LP  0  0  0  0  0  0  0  0  0  0  0  0  # atno 17320 bound_to 7965
  145.8872  139.2355  143.1570 LP  0  0  0  0  0  0  0  0  0  0  0  0  # atno 17321 bound_to 7965
  140.3858  143.2778  152.0117 LP  0  0  0  0  0  0  0  0  0  0  0  0  # atno 17342 bound_to 10162
  139.4833  144.6118  151.7420 LP  0  0  0  0  0  0  0  0  0  0  0  0  # atno 17343 bound_to 10162
  157.4017  130.7337  149.6772 LP  0  0  0  0  0  0  0  0  0  0  0  0  # atno 17370 bound_to 10713
  155.9734  130.4119  150.4004 LP  0  0  0  0  0  0  0  0  0  0  0  0  # atno 17371 bound_to 10713
  141.1238  133.9416  157.2675 LP  0  0  0  0  0  0  0  0  0  0  0  0  # atno 17394 bound_to 11000
  139.9514  135.0174  156.9005 LP  0  0  0  0  0  0  0  0  0  0  0  0  # atno 17395 bound_to 11000

$$$$
