AV-unprocessed.smi:2091|AV-procd|sdf|8539|dock7
  -GOLD-   2272011263D 1   1.00000     0.00000
 Structure written by MMmdl.
 36 37  0  0  0  0  0  0  0  0  1 V2000
  152.5046  139.6794  155.6720 O   0  0  0  0  0  0  0  0  0  0  0  0
  151.3297  140.0062  155.8454 C   0  0  0  0  0  0  0  0  0  0  0  0
  150.2286  139.4968  154.9051 C   0  0  0  0  0  0  0  0  0  0  0  0
  148.9311  140.1443  155.1457 N   0  0  0  0  0  0  0  0  0  0  0  0
  148.4343  141.0760  154.2454 C   0  0  0  0  0  0  0  0  0  0  0  0
  147.2425  141.6997  154.4000 C   0  0  0  0  0  0  0  0  0  0  0  0
  146.4014  141.4100  155.5564 C   0  0  0  0  0  0  0  0  0  0  0  0
  145.3087  141.9237  155.7850 O   0  0  0  0  0  0  0  0  0  0  0  0
  146.9346  140.4657  156.4376 N   0  0  0  0  0  0  0  0  0  0  0  0
  148.1612  139.8180  156.2835 C   0  0  0  0  0  0  0  0  0  0  0  0
  148.5365  138.9973  157.1198 O   0  0  0  0  0  0  0  0  0  0  0  0
  150.9330  140.8252  156.8327 N   0  0  0  0  0  0  0  0  0  0  0  0
  151.8042  141.4043  157.8576 C   0  0  1  0  0  0  0  0  0  0  0  0
  150.9902  142.4827  158.6088 C   0  0  0  0  0  0  0  0  0  0  0  0
  151.8603  143.5327  159.3219 C   0  0  0  0  0  0  0  0  0  0  0  0
  152.7265  142.9894  160.4687 C   0  0  0  0  0  0  0  0  0  0  0  0
  153.7694  141.9522  160.0184 C   0  0  0  0  0  0  0  0  0  0  0  0
  153.1752  140.6413  159.7919 N   0  0  0  0  0  0  0  0  0  0  0  0
  152.2620  140.3207  158.8626 C   0  0  0  0  0  0  0  0  0  0  0  0
  151.7948  139.1828  158.8176 O   0  0  0  0  0  0  0  0  0  0  0  0
  146.3862  140.2300  157.2517 H   0  0  0  0  0  0  0  0  0  0  0  0
  150.5297  139.6389  153.8650 H   0  0  0  0  0  0  0  0  0  0  0  0
  150.1455  138.4170  155.0357 H   0  0  0  0  0  0  0  0  0  0  0  0
  149.0214  141.3186  153.3711 H   0  0  0  0  0  0  0  0  0  0  0  0
  146.9088  142.4160  153.6633 H   0  0  0  0  0  0  0  0  0  0  0  0
  149.9487  141.0382  156.9017 H   0  0  0  0  0  0  0  0  0  0  0  0
  152.6711  141.8574  157.3731 H   0  0  0  0  0  0  0  0  0  0  0  0
  150.3669  143.0203  157.8922 H   0  0  0  0  0  0  0  0  0  0  0  0
  150.2934  142.0265  159.3146 H   0  0  0  0  0  0  0  0  0  0  0  0
  152.4987  144.0296  158.5905 H   0  0  0  0  0  0  0  0  0  0  0  0
  151.2078  144.3099  159.7208 H   0  0  0  0  0  0  0  0  0  0  0  0
  153.2508  143.8303  160.9236 H   0  0  0  0  0  0  0  0  0  0  0  0
  152.0948  142.5720  161.2544 H   0  0  0  0  0  0  0  0  0  0  0  0
  154.3059  142.2892  159.1304 H   0  0  0  0  0  0  0  0  0  0  0  0
  154.5183  141.8334  160.8017 H   0  0  0  0  0  0  0  0  0  0  0  0
  153.4600  139.9083  160.4253 H   0  0  0  0  0  0  0  0  0  0  0  0
  1  2  2  0  0  0  0
  2  3  1  0  0  0  0
  2 12  1  0  0  0  0
  3  4  1  0  0  0  0
  3 22  1  0  0  0  0
  3 23  1  0  0  0  0
  4 10  1  0  0  0  0
  4  5  1  0  0  0  0
  5  6  2  0  0  0  0
  5 24  1  0  0  0  0
  6  7  1  0  0  0  0
  6 25  1  0  0  0  0
  7  8  2  0  0  0  0
  7  9  1  0  0  0  0
  9 21  1  0  0  0  0
  9 10  1  0  0  0  0
 10 11  2  0  0  0  0
 12 13  1  0  0  0  0
 12 26  1  0  0  0  0
 13 19  1  0  0  0  0
 13 14  1  0  0  0  0
 13 27  1  0  0  0  0
 14 15  1  0  0  0  0
 14 28  1  0  0  0  0
 14 29  1  0  0  0  0
 15 16  1  0  0  0  0
 15 30  1  0  0  0  0
 15 31  1  0  0  0  0
 16 17  1  0  0  0  0
 16 32  1  0  0  0  0
 16 33  1  0  0  0  0
 17 18  1  0  0  0  0
 17 34  1  0  0  0  0
 17 35  1  0  0  0  0
 18 19  1  0  0  0  0
 18 36  1  0  0  0  0
 19 20  2  0  0  0  0
M  END
> <s_m_source_file>
AV-unprocessed.smi

> <i_m_source_file_index>
2091

> <i_lp_mmshare_version>
43012

> <i_f3d_flags>
0

> <s_epik_input>
Tz1jMVtuSF1jKD1PKVtjSF1bY0hdbjFbQ0gyXUMoPU8pW05IXVtDQEBIXTJbQ0gyXVtDSDJdW0NIMl1bQ0gyXVtOSF1DMj1P

> <s_epik_cmdline>
J2VwaWtfcHl0aG9uJywgJy1waCcsICc3LjAnLCAnLXRuJywgJzgnLCAnLW1hJywgJzIwMCcsICctbWV0YWxfYmluZGluZycsICctaW1hZScsICc8aW5maWxlLm1hZT4nLCAnLW9tYWUnLCAnPG91dGZpbGUubWFlPic=

> <r_lp_tautomer_probability>
0.999537

> <r_epik_Ionization_Penalty>
0.00356328

> <r_epik_Ionization_Penalty_Charging>
0.00356323

> <r_epik_Ionization_Penalty_Neutral>
5.33217e-08

> <r_epik_State_Penalty>
0.00253125

> <r_epik_Charging_Adjusted_Penalty>
0.00609448

> <i_epik_Tot_Q>
0

> <i_epik_Tot_abs_Q>
0

> <r_epik_Metal_State_Penalty>
0.368636

> <b_epik_Metal_Only>
0

> <s_lp_Force_Field>
OPLS_2005

> <r_lp_Energy>
10.1396

> <b_lp_Chiralities_Consistent>
1

> <s_lp_Variant>
AV-unprocessed.smi:2091-2

> <Gold.Version>
5.8.1

> <Gold.Id.Protein>
6NUR|6NUR_protein|mol2

> <Gold.PLP.Fitness>
40.7509

> <Gold.PLP.PLP>
-35.4212

> <Gold.PLP.part.hbond>
-1.0000

> <Gold.PLP.part.metal>
0.0000

> <Gold.PLP.part.buried>
-5.3285

> <Gold.PLP.part.nonpolar>
-29.7899

> <Gold.PLP.part.repulsive>
0.3471

> <Gold.PLP.ligand.clash>
0.0065

> <Gold.PLP.ligand.torsion>
0.3292

> <Gold.PLP.Chemscore.Hbond>
1.0000

> <Gold.PLP.Chemscore.CHOScore>
0.9976

> <Gold.PLP.Chemscore.Metal>
0.0000

> <Gold.Chemscore.Hbonds>
donor molecule, donor type, donor heavy atom, donor atom, acceptor molecule, acceptor atom, score
      P1  H  7997  8010       L1     1  1.00
      L1  C     5    24       P1  7957  0.80

> <Gold.PLP.Chemscore.Internal.Correction>
0.0018

> <Gold.Rescore>
     Score         DG    S(hbond)    S(metal)    S(lipo)     H(rot)  DE(clash)    DE(int)     intcor
     11.64     -12.66       1.00        0.00      74.08       1.88       0.02       1.00       ----

> <Gold.Chemscore.Fitness>
11.6428

> <Gold.Chemscore.DG>
-12.6623

> <Gold.Chemscore.ZeroCoef>
-5.4800

> <Gold.Chemscore.Hbond>
0.9997

> <Gold.Chemscore.Metal>
0.0000

> <Gold.Chemscore.Lipo>
74.0801

> <Gold.Chemscore.Internal_Hbond>
0.0000

> <Gold.Chemscore.DEClash>
0.0153

> <Gold.Chemscore.DEInternal>
1.0041

> <Gold.Chemscore.Rot>
1.8844

> <Gold.Chemscore.Internal.Correction>
   9.000000E+99

> <Gold.Chemscore.Hbonds>
donor molecule, donor type, donor heavy atom, donor atom, acceptor molecule, acceptor atom, score
      P1  H  7997  8010       L1     1  0.98

> <Gold.Chemscore.Hbond.Weighted>
-3.3391

> <Gold.Chemscore.Metal.Weighted>
-0.0000

> <Gold.Chemscore.Lipo.Weighted>
-8.6674

> <Gold.Chemscore.Internal_Hbond.Weighted>
0.0000

> <Gold.Chemscore.DEClash.Weighted>
0.0153

> <Gold.Chemscore.DEInternal.Weighted>
1.0041

> <Gold.Chemscore.Rot.Weighted>
4.8242

> <Gold.Chemscore.Internal.Correction.Weighted>
   9.000000E+99

> <Gold.Protein.RotatedTorsions>
[ 6907 6896 6895 6894 ] final   25.10 input  -60.11 | X-H torsion
[ 7974 7965 7964 7962 ] final  -37.53 input  175.53 | X-H torsion
[ 8008 7997 7996 7995 ] final   87.25 input   59.86 | X-H torsion
[ 10167 10162 10161 10158 ] final  -61.21 input  -65.29 | X-H torsion
[ 10718 10713 10712 10709 ] final -145.47 input   66.30 | X-H torsion
[ 10763 10752 10751 10750 ] final   15.66 input  -60.55 | X-H torsion
[ 11005 11000 10999 10996 ] final  -90.76 input  -57.11 | X-H torsion

> <Gold.Protein.ActiveResidues>
 VAL166  LYS551  ARG553  GLY616  TRP617  ASP618  TYR619  PRO620  LYS621  CYS622 
 ASP623  PHE694  ASN695  SER759  ASP760  ASP761  ALA762  ILE779  LEU786  VAL792 
 PHE793  MET794  SER795  GLU796  ALA797  LYS798  CYS799  TRP800  GLU811  SER814 

> <Gold.Protein.RotatedAtoms>
  151.9675  135.0093  160.0550 H   0  0  0  0  0  0  0  0  0  0  0  0  # atno 6907 bound_to 6896
  152.1813  133.4704  159.4968 H   0  0  0  0  0  0  0  0  0  0  0  0  # atno 6908 bound_to 6896
  150.6918  134.1747  159.4269 H   0  0  0  0  0  0  0  0  0  0  0  0  # atno 6909 bound_to 6896
  146.0567  140.6406  142.9016 H   0  0  0  0  0  0  0  0  0  0  0  0  # atno 7974 bound_to 7965
  155.9730  140.3384  155.6593 H   0  0  0  0  0  0  0  0  0  0  0  0  # atno 8008 bound_to 7997
  155.6649  140.0720  157.2559 H   0  0  0  0  0  0  0  0  0  0  0  0  # atno 8009 bound_to 7997
  154.4171  140.1702  156.1804 H   0  0  0  0  0  0  0  0  0  0  0  0  # atno 8010 bound_to 7997
  140.6021  143.2364  151.5905 H   0  0  0  0  0  0  0  0  0  0  0  0  # atno 10167 bound_to 10162
  156.3829  130.7846  151.2040 H   0  0  0  0  0  0  0  0  0  0  0  0  # atno 10718 bound_to 10713
  153.1504  135.6777  153.8890 H   0  0  0  0  0  0  0  0  0  0  0  0  # atno 10763 bound_to 10752
  153.8318  135.3116  155.3420 H   0  0  0  0  0  0  0  0  0  0  0  0  # atno 10764 bound_to 10752
  154.7858  135.4863  154.0029 H   0  0  0  0  0  0  0  0  0  0  0  0  # atno 10765 bound_to 10752
  141.1559  133.7713  156.9784 H   0  0  0  0  0  0  0  0  0  0  0  0  # atno 11005 bound_to 11000
  144.7152  140.4182  143.7050 LP  0  0  0  0  0  0  0  0  0  0  0  0  # atno 17320 bound_to 7965
  145.6632  139.1585  143.2797 LP  0  0  0  0  0  0  0  0  0  0  0  0  # atno 17321 bound_to 7965
  139.5298  144.2949  152.1122 LP  0  0  0  0  0  0  0  0  0  0  0  0  # atno 17342 bound_to 10162
  140.2132  144.4542  150.6376 LP  0  0  0  0  0  0  0  0  0  0  0  0  # atno 17343 bound_to 10162
  157.7494  131.0338  150.4291 LP  0  0  0  0  0  0  0  0  0  0  0  0  # atno 17370 bound_to 10713
  156.4538  130.4017  149.6619 LP  0  0  0  0  0  0  0  0  0  0  0  0  # atno 17371 bound_to 10713
  140.1082  134.9493  157.2026 LP  0  0  0  0  0  0  0  0  0  0  0  0  # atno 17394 bound_to 11000
  140.3228  134.2897  155.7243 LP  0  0  0  0  0  0  0  0  0  0  0  0  # atno 17395 bound_to 11000

$$$$
