AV-unprocessed.smi:1971|AV-procd|sdf|7962|dock6
  -GOLD-   2272010133D 1   1.00000     0.00000
 Structure written by MMmdl.
 44 45  0  0  0  0  0  0  0  0  2 V2000
  150.7947  142.6521  157.9069 C   0  0  0  0  0  0  0  0  0  0  0  0
  150.5345  141.6886  156.7401 C   0  0  0  0  0  0  0  0  0  0  0  0
  149.2097  141.9003  156.1052 N   0  3  0  0  0  0  0  0  0  0  0  0
  148.0971  141.4138  156.9576 C   0  0  0  0  0  0  0  0  0  0  0  0
  146.7378  141.6742  156.2757 C   0  0  0  0  0  0  0  0  0  0  0  0
  146.6402  140.9876  154.9795 N   0  0  0  0  0  0  0  0  0  0  0  0
  146.6357  139.5082  155.0319 C   0  0  2  0  0  0  0  0  0  0  0  0
  146.7375  138.9203  153.6046 C   0  0  0  0  0  0  0  0  0  0  0  0
  145.3754  138.9513  155.7510 C   0  0  0  0  0  0  0  0  0  0  0  0
  144.1634  139.0948  154.9495 N   0  0  0  0  0  0  0  0  0  0  0  0
  143.0492  138.3670  155.1168 C   0  0  0  0  0  0  0  0  0  0  0  0
  142.9344  137.4956  155.9800 O   0  0  0  0  0  0  0  0  0  0  0  0
  142.1002  138.7122  154.2291 N   0  0  0  0  0  0  0  0  0  0  0  0
  140.8050  138.1529  154.0693 C   0  0  0  0  0  0  0  0  0  0  0  0
  140.4863  136.8889  154.3726 N   0  0  0  0  0  0  0  0  0  0  0  0
  139.1429  136.6096  154.1095 C   0  0  0  0  0  0  0  0  0  0  0  0
  138.4489  137.6795  153.6015 C   0  0  0  0  0  0  0  0  0  0  0  0
  139.4606  139.0894  153.4334 S   0  0  0  0  0  0  0  0  0  0  0  0
  147.7017  141.5673  154.1425 C   0  0  0  0  0  0  0  0  0  0  0  0
  149.1088  141.3300  154.7369 C   0  0  0  0  0  0  0  0  0  0  0  0
  151.7392  142.4126  158.3958 H   0  0  0  0  0  0  0  0  0  0  0  0
  150.0080  142.5845  158.6590 H   0  0  0  0  0  0  0  0  0  0  0  0
  150.8584  143.6881  157.5753 H   0  0  0  0  0  0  0  0  0  0  0  0
  151.3245  141.7703  155.9920 H   0  0  0  0  0  0  0  0  0  0  0  0
  150.5828  140.6709  157.1301 H   0  0  0  0  0  0  0  0  0  0  0  0
  148.2284  140.3554  157.1870 H   0  0  0  0  0  0  0  0  0  0  0  0
  148.1213  141.9417  157.9115 H   0  0  0  0  0  0  0  0  0  0  0  0
  145.9140  141.4053  156.9334 H   0  0  0  0  0  0  0  0  0  0  0  0
  146.6177  142.7463  156.1129 H   0  0  0  0  0  0  0  0  0  0  0  0
  147.5062  139.1695  155.5905 H   0  0  0  0  0  0  0  0  0  0  0  0
  146.6477  137.8344  153.6069 H   0  0  0  0  0  0  0  0  0  0  0  0
  147.6974  139.1301  153.1356 H   0  0  0  0  0  0  0  0  0  0  0  0
  145.9507  139.3099  152.9577 H   0  0  0  0  0  0  0  0  0  0  0  0
  145.4669  137.8908  155.9813 H   0  0  0  0  0  0  0  0  0  0  0  0
  145.2249  139.4649  156.7010 H   0  0  0  0  0  0  0  0  0  0  0  0
  144.1783  139.7910  154.2183 H   0  0  0  0  0  0  0  0  0  0  0  0
  142.3339  139.4536  153.5855 H   0  0  0  0  0  0  0  0  0  0  0  0
  138.7623  135.6196  154.3133 H   0  0  0  0  0  0  0  0  0  0  0  0
  137.4081  137.7227  153.3170 H   0  0  0  0  0  0  0  0  0  0  0  0
  147.6511  141.1929  153.1219 H   0  0  0  0  0  0  0  0  0  0  0  0
  147.5270  142.6408  154.0537 H   0  0  0  0  0  0  0  0  0  0  0  0
  149.8413  141.8078  154.0873 H   0  0  0  0  0  0  0  0  0  0  0  0
  149.3591  140.2689  154.7492 H   0  0  0  0  0  0  0  0  0  0  0  0
  149.0804  142.8981  156.0178 H   0  0  0  0  0  0  0  0  0  0  0  0
  1  2  1  0  0  0  0
  1 21  1  0  0  0  0
  1 22  1  0  0  0  0
  1 23  1  0  0  0  0
  2  3  1  0  0  0  0
  2 24  1  0  0  0  0
  2 25  1  0  0  0  0
  3 20  1  0  0  0  0
  3  4  1  0  0  0  0
  3 44  1  0  0  0  0
  4  5  1  0  0  0  0
  4 26  1  0  0  0  0
  4 27  1  0  0  0  0
  5  6  1  0  0  0  0
  5 28  1  0  0  0  0
  5 29  1  0  0  0  0
  6  7  1  0  0  0  0
  6 19  1  0  0  0  0
  7  8  1  0  0  0  0
  7  9  1  0  0  0  0
  7 30  1  0  0  0  0
  8 31  1  0  0  0  0
  8 32  1  0  0  0  0
  8 33  1  0  0  0  0
  9 10  1  0  0  0  0
  9 34  1  0  0  0  0
  9 35  1  0  0  0  0
 10 11  1  0  0  0  0
 10 36  1  0  0  0  0
 11 12  2  0  0  0  0
 11 13  1  0  0  0  0
 13 14  1  0  0  0  0
 13 37  1  0  0  0  0
 14 18  1  0  0  0  0
 14 15  2  0  0  0  0
 15 16  1  0  0  0  0
 16 17  2  0  0  0  0
 16 38  1  0  0  0  0
 17 18  1  0  0  0  0
 17 39  1  0  0  0  0
 19 20  1  0  0  0  0
 19 40  1  0  0  0  0
 19 41  1  0  0  0  0
 20 42  1  0  0  0  0
 20 43  1  0  0  0  0
M  CHG  1   3   1
M  END
> <s_m_source_file>
AV-unprocessed.smi

> <i_m_source_file_index>
1971

> <i_lp_mmshare_version>
43012

> <i_f3d_flags>
0

> <s_epik_input>
W0NIM11bQ0gyXU4xW0NIMl1bQ0gyXU4oW0NIMl1bQ0gyXTEpW0NASF0oW0NIM10pW0NIMl1bTkhdQyg9TylbTkhdYzJuW2NIXVtjSF1zMg==

> <s_epik_cmdline>
J2VwaWtfcHl0aG9uJywgJy1waCcsICc3LjAnLCAnLXRuJywgJzgnLCAnLW1hJywgJzIwMCcsICctbWV0YWxfYmluZGluZycsICctaW1hZScsICc8aW5maWxlLm1hZT4nLCAnLW9tYWUnLCAnPG91dGZpbGUubWFlPic=

> <r_lp_tautomer_probability>
0.999

> <r_epik_Ionization_Penalty>
0.0459519

> <r_epik_Ionization_Penalty_Charging>
0.0451959

> <r_epik_Ionization_Penalty_Neutral>
0.000756076

> <r_epik_State_Penalty>
0.165541

> <r_epik_Charging_Adjusted_Penalty>
0.210737

> <i_epik_Tot_Q>
1

> <i_epik_Tot_abs_Q>
1

> <r_epik_Metal_State_Penalty>
0.198809

> <b_epik_Metal_Only>
0

> <s_lp_Force_Field>
OPLS_2005

> <r_lp_Energy>
18.3118

> <b_lp_Chiralities_Consistent>
1

> <s_lp_Variant>
AV-unprocessed.smi:1971-1

> <Gold.Version>
5.8.1

> <Gold.Id.Protein>
6NUR|6NUR_protein|mol2

> <Gold.PLP.Fitness>
42.1635

> <Gold.PLP.PLP>
-31.2896

> <Gold.PLP.part.hbond>
-3.0000

> <Gold.PLP.part.metal>
0.0000

> <Gold.PLP.part.buried>
-3.0159

> <Gold.PLP.part.nonpolar>
-24.5786

> <Gold.PLP.part.repulsive>
0.2989

> <Gold.PLP.ligand.clash>
0.0000

> <Gold.PLP.ligand.torsion>
0.5837

> <Gold.PLP.Chemscore.Hbond>
4.0000

> <Gold.PLP.Chemscore.CHOScore>
0.0000

> <Gold.PLP.Chemscore.Metal>
0.0000

> <Gold.Chemscore.Hbonds>
donor molecule, donor type, donor heavy atom, donor atom, acceptor molecule, acceptor atom, score
      L1  H     3    44       P1  8028  2.00
      L1  H    10    36       P1 10175  1.00
      L1  H    13    37       P1 10175  1.00

> <Gold.PLP.Chemscore.Internal.Correction>
0.0412

> <Gold.Rescore>
     Score         DG    S(hbond)    S(metal)    S(lipo)     H(rot)  DE(clash)    DE(int)     intcor
     18.36     -19.01       2.94        0.00      70.86       1.79       0.06       0.59       ----

> <Gold.Chemscore.Fitness>
18.3644

> <Gold.Chemscore.DG>
-19.0122

> <Gold.Chemscore.ZeroCoef>
-5.4800

> <Gold.Chemscore.Hbond>
2.9442

> <Gold.Chemscore.Metal>
0.0000

> <Gold.Chemscore.Lipo>
70.8597

> <Gold.Chemscore.Internal_Hbond>
0.0000

> <Gold.Chemscore.DEClash>
0.0610

> <Gold.Chemscore.DEInternal>
0.5868

> <Gold.Chemscore.Rot>
1.7937

> <Gold.Chemscore.Internal.Correction>
   9.000000E+99

> <Gold.Chemscore.Hbonds>
donor molecule, donor type, donor heavy atom, donor atom, acceptor molecule, acceptor atom, score
      L1  H     3    44       P1  8028  1.00
      L1  H    10    36       P1 10175  0.96
      L1  H    13    37       P1 10175  0.96

> <Gold.Chemscore.Hbond.Weighted>
-9.8336

> <Gold.Chemscore.Metal.Weighted>
-0.0000

> <Gold.Chemscore.Lipo.Weighted>
-8.2906

> <Gold.Chemscore.Internal_Hbond.Weighted>
0.0000

> <Gold.Chemscore.DEClash.Weighted>
0.0610

> <Gold.Chemscore.DEInternal.Weighted>
0.5868

> <Gold.Chemscore.Rot.Weighted>
4.5919

> <Gold.Chemscore.Internal.Correction.Weighted>
   9.000000E+99

> <Gold.Protein.RotatedTorsions>
[ 6907 6896 6895 6894 ] final   56.16 input  -60.11 | X-H torsion
[ 7974 7965 7964 7962 ] final   70.28 input  175.53 | X-H torsion
[ 8008 7997 7996 7995 ] final   33.75 input   59.86 | X-H torsion
[ 10167 10162 10161 10158 ] final  -17.47 input  -65.29 | X-H torsion
[ 10718 10713 10712 10709 ] final  108.01 input   66.30 | X-H torsion
[ 10763 10752 10751 10750 ] final -145.84 input  -60.55 | X-H torsion
[ 11005 11000 10999 10996 ] final   74.41 input  -57.11 | X-H torsion

> <Gold.Protein.ActiveResidues>
 VAL166  LYS551  ARG553  GLY616  TRP617  ASP618  TYR619  PRO620  LYS621  CYS622 
 ASP623  PHE694  ASN695  SER759  ASP760  ASP761  ALA762  ILE779  LEU786  VAL792 
 PHE793  MET794  SER795  GLU796  ALA797  LYS798  CYS799  TRP800  GLU811  SER814 

> <Gold.Protein.RotatedAtoms>
  152.3609  134.6873  160.0206 H   0  0  0  0  0  0  0  0  0  0  0  0  # atno 6907 bound_to 6896
  151.7196  133.3309  159.3320 H   0  0  0  0  0  0  0  0  0  0  0  0  # atno 6908 bound_to 6896
  150.7604  134.6394  159.6273 H   0  0  0  0  0  0  0  0  0  0  0  0  # atno 6909 bound_to 6896
  145.7801  139.2883  143.1271 H   0  0  0  0  0  0  0  0  0  0  0  0  # atno 7974 bound_to 7965
  155.1437  140.3268  155.4446 H   0  0  0  0  0  0  0  0  0  0  0  0  # atno 8008 bound_to 7997
  156.2596  140.1989  156.6501 H   0  0  0  0  0  0  0  0  0  0  0  0  # atno 8009 bound_to 7997
  154.6524  140.0557  156.9956 H   0  0  0  0  0  0  0  0  0  0  0  0  # atno 8010 bound_to 7997
  140.7247  143.5012  150.9866 H   0  0  0  0  0  0  0  0  0  0  0  0  # atno 10167 bound_to 10162
  157.6604  131.0884  150.6241 H   0  0  0  0  0  0  0  0  0  0  0  0  # atno 10718 bound_to 10713
  154.8364  135.3402  154.6568 H   0  0  0  0  0  0  0  0  0  0  0  0  # atno 10763 bound_to 10752
  153.7183  135.6960  153.5024 H   0  0  0  0  0  0  0  0  0  0  0  0  # atno 10764 bound_to 10752
  153.2400  135.4387  155.0641 H   0  0  0  0  0  0  0  0  0  0  0  0  # atno 10765 bound_to 10752
  139.9392  134.7431  156.1145 H   0  0  0  0  0  0  0  0  0  0  0  0  # atno 11005 bound_to 11000
  146.0083  140.8459  142.9984 LP  0  0  0  0  0  0  0  0  0  0  0  0  # atno 17320 bound_to 7965
  144.6798  140.2452  143.7338 LP  0  0  0  0  0  0  0  0  0  0  0  0  # atno 17321 bound_to 7965
  139.8722  143.7178  152.3165 LP  0  0  0  0  0  0  0  0  0  0  0  0  # atno 17342 bound_to 10162
  139.7431  144.7554  151.0622 LP  0  0  0  0  0  0  0  0  0  0  0  0  # atno 17343 bound_to 10162
  156.6544  130.4494  149.5708 LP  0  0  0  0  0  0  0  0  0  0  0  0  # atno 17370 bound_to 10713
  156.2113  130.6681  151.1273 LP  0  0  0  0  0  0  0  0  0  0  0  0  # atno 17371 bound_to 10713
  141.1019  133.6674  156.2775 LP  0  0  0  0  0  0  0  0  0  0  0  0  # atno 17394 bound_to 11000
  140.5995  134.5569  157.5515 LP  0  0  0  0  0  0  0  0  0  0  0  0  # atno 17395 bound_to 11000

$$$$
