AV-unprocessed.smi:3031|AV-procd|sdf|11554|dock3
  -GOLD-   2272016513D 1   1.00000     0.00000
 Structure written by MMmdl.
 46 47  0  0  0  0  0  0  0  0  1 V2000
  151.0379  142.6551  157.6692 C   0  0  0  0  0  0  0  0  0  0  0  0
  150.7515  141.5998  156.6402 C   0  0  0  0  0  0  0  0  0  0  0  0
  151.6484  140.6335  156.1025 C   0  0  0  0  0  0  0  0  0  0  0  0
  151.0783  139.8469  155.2045 N   0  0  0  0  0  0  0  0  0  0  0  0
  149.7960  140.2673  155.1500 N   0  0  0  0  0  0  0  0  0  0  0  0
  148.8654  139.6296  154.2324 C   0  0  0  0  0  0  0  0  0  0  0  0
  147.4169  140.1711  154.3291 C   0  0  1  0  0  0  0  0  0  0  0  0
  147.3376  141.5888  153.7450 C   0  0  0  0  0  0  0  0  0  0  0  0
  146.4349  139.3266  153.6374 N   0  0  0  0  0  0  0  0  0  0  0  0
  146.5963  139.1982  152.1896 C   0  0  0  0  0  0  0  0  0  0  0  0
  146.5810  137.7241  151.7546 C   0  0  2  0  0  0  0  0  0  0  0  0
  146.5168  137.7064  150.3435 O   0  0  0  0  0  0  0  0  0  0  0  0
  145.3503  136.9683  152.3022 C   0  0  0  0  0  0  0  0  0  0  0  0
  145.0588  135.6831  151.6648 N   0  0  0  0  0  0  0  0  0  0  0  0
  143.8083  135.1262  152.1702 C   0  0  0  0  0  0  0  0  0  0  0  0
  143.4721  133.7763  151.5140 C   0  0  0  0  0  0  0  0  0  0  0  0
  144.5452  132.8656  151.7273 O   0  0  0  0  0  0  0  0  0  0  0  0
  145.7822  133.3464  151.2115 C   0  0  0  0  0  0  0  0  0  0  0  0
  146.1246  134.7010  151.8571 C   0  0  0  0  0  0  0  0  0  0  0  0
  149.5780  141.3382  155.9918 C   0  0  0  0  0  0  0  0  0  0  0  0
  152.0510  142.5732  158.0639 H   0  0  0  0  0  0  0  0  0  0  0  0
  150.3567  142.5840  158.5174 H   0  0  0  0  0  0  0  0  0  0  0  0
  150.9342  143.6583  157.2556 H   0  0  0  0  0  0  0  0  0  0  0  0
  152.6928  140.4841  156.3341 H   0  0  0  0  0  0  0  0  0  0  0  0
  149.2566  139.8018  153.2289 H   0  0  0  0  0  0  0  0  0  0  0  0
  148.8807  138.5485  154.3822 H   0  0  0  0  0  0  0  0  0  0  0  0
  147.1364  140.2532  155.3797 H   0  0  0  0  0  0  0  0  0  0  0  0
  147.9988  142.2723  154.2784 H   0  0  0  0  0  0  0  0  0  0  0  0
  146.3265  141.9907  153.8195 H   0  0  0  0  0  0  0  0  0  0  0  0
  147.6247  141.6019  152.6929 H   0  0  0  0  0  0  0  0  0  0  0  0
  146.4327  138.4024  154.0572 H   0  0  0  0  0  0  0  0  0  0  0  0
  145.8078  139.7318  151.6620 H   0  0  0  0  0  0  0  0  0  0  0  0
  147.5421  139.6523  151.8906 H   0  0  0  0  0  0  0  0  0  0  0  0
  147.5149  137.2550  152.0622 H   0  0  0  0  0  0  0  0  0  0  0  0
  145.6081  137.7276  150.0851 H   0  0  0  0  0  0  0  0  0  0  0  0
  145.4736  136.8070  153.3742 H   0  0  0  0  0  0  0  0  0  0  0  0
  144.4827  137.6228  152.2045 H   0  0  0  0  0  0  0  0  0  0  0  0
  143.8723  134.9941  153.2514 H   0  0  0  0  0  0  0  0  0  0  0  0
  142.9915  135.8259  151.9896 H   0  0  0  0  0  0  0  0  0  0  0  0
  142.5610  133.3612  151.9449 H   0  0  0  0  0  0  0  0  0  0  0  0
  143.2951  133.8991  150.4443 H   0  0  0  0  0  0  0  0  0  0  0  0
  146.5640  132.6171  151.4239 H   0  0  0  0  0  0  0  0  0  0  0  0
  145.7186  133.4415  150.1263 H   0  0  0  0  0  0  0  0  0  0  0  0
  147.0578  135.0606  151.4260 H   0  0  0  0  0  0  0  0  0  0  0  0
  146.3070  134.5563  152.9230 H   0  0  0  0  0  0  0  0  0  0  0  0
  148.6136  141.8191  156.0640 H   0  0  0  0  0  0  0  0  0  0  0  0
  1  2  1  0  0  0  0
  1 21  1  0  0  0  0
  1 22  1  0  0  0  0
  1 23  1  0  0  0  0
  2 20  2  0  0  0  0
  2  3  1  0  0  0  0
  3  4  2  0  0  0  0
  3 24  1  0  0  0  0
  4  5  1  0  0  0  0
  5  6  1  0  0  0  0
  5 20  1  0  0  0  0
  6  7  1  0  0  0  0
  6 25  1  0  0  0  0
  6 26  1  0  0  0  0
  7  8  1  0  0  0  0
  7  9  1  0  0  0  0
  7 27  1  0  0  0  0
  8 28  1  0  0  0  0
  8 29  1  0  0  0  0
  8 30  1  0  0  0  0
  9 10  1  0  0  0  0
  9 31  1  0  0  0  0
 10 11  1  0  0  0  0
 10 32  1  0  0  0  0
 10 33  1  0  0  0  0
 11 12  1  0  0  0  0
 11 13  1  0  0  0  0
 11 34  1  0  0  0  0
 12 35  1  0  0  0  0
 13 14  1  0  0  0  0
 13 36  1  0  0  0  0
 13 37  1  0  0  0  0
 14 19  1  0  0  0  0
 14 15  1  0  0  0  0
 15 16  1  0  0  0  0
 15 38  1  0  0  0  0
 15 39  1  0  0  0  0
 16 17  1  0  0  0  0
 16 40  1  0  0  0  0
 16 41  1  0  0  0  0
 17 18  1  0  0  0  0
 18 19  1  0  0  0  0
 18 42  1  0  0  0  0
 18 43  1  0  0  0  0
 19 44  1  0  0  0  0
 19 45  1  0  0  0  0
 20 46  1  0  0  0  0
M  END
> <s_m_source_file>
AV-unprocessed.smi

> <i_m_source_file_index>
3031

> <i_lp_mmshare_version>
43012

> <i_f3d_flags>
0

> <s_epik_input>
W0NIM11jMVtjSF1ubihbY0hdMSlbQ0gyXVtDQEhdKFtDSDNdKVtOSF1bQ0gyXVtDQEhdKFtPSF0pW0NIMl1OMltDSDJdW0NIMl1PW0NIMl1bQ0gyXTI=

> <s_epik_cmdline>
J2VwaWtfcHl0aG9uJywgJy1waCcsICc3LjAnLCAnLXRuJywgJzgnLCAnLW1hJywgJzIwMCcsICctbWV0YWxfYmluZGluZycsICctaW1hZScsICc8aW5maWxlLm1hZT4nLCAnLW9tYWUnLCAnPG91dGZpbGUubWFlPic=

> <r_lp_tautomer_probability>
1

> <r_epik_Ionization_Penalty>
2.8101

> <r_epik_Ionization_Penalty_Charging>
0

> <r_epik_Ionization_Penalty_Neutral>
2.8101

> <r_epik_State_Penalty>
2.12351

> <r_epik_Charging_Adjusted_Penalty>
2.12351

> <i_epik_Tot_Q>
0

> <i_epik_Tot_abs_Q>
0

> <r_epik_Metal_State_Penalty>
2.12345

> <b_epik_Metal_Only>
0

> <s_lp_Force_Field>
OPLS_2005

> <r_lp_Energy>
32.7569

> <b_lp_Chiralities_Consistent>
1

> <s_lp_Variant>
AV-unprocessed.smi:3031-14

> <Gold.Version>
5.8.1

> <Gold.Id.Protein>
6NUR|6NUR_protein|mol2

> <Gold.PLP.Fitness>
43.9447

> <Gold.PLP.PLP>
-36.2657

> <Gold.PLP.part.hbond>
-3.6151

> <Gold.PLP.part.metal>
0.0000

> <Gold.PLP.part.buried>
-0.6238

> <Gold.PLP.part.nonpolar>
-32.2146

> <Gold.PLP.part.repulsive>
0.3326

> <Gold.PLP.ligand.clash>
0.0000

> <Gold.PLP.ligand.torsion>
0.6086

> <Gold.PLP.Chemscore.Hbond>
2.7660

> <Gold.PLP.Chemscore.CHOScore>
0.0721

> <Gold.PLP.Chemscore.Metal>
0.0000

> <Gold.Chemscore.Hbonds>
donor molecule, donor type, donor heavy atom, donor atom, acceptor molecule, acceptor atom, score
      L1  H    12    35       P1 10171  1.00
      P1  H  7954  7966       L1    12  0.86
      P1  H  7989  7998       L1     4  0.57

> <Gold.PLP.Chemscore.Internal.Correction>
0.3820

> <Gold.Rescore>
     Score         DG    S(hbond)    S(metal)    S(lipo)     H(rot)  DE(clash)    DE(int)     intcor
     14.05     -16.09       2.06        0.00      87.37       2.53       1.46       0.57       ----

> <Gold.Chemscore.Fitness>
14.0545

> <Gold.Chemscore.DG>
-16.0925

> <Gold.Chemscore.ZeroCoef>
-5.4800

> <Gold.Chemscore.Hbond>
2.0586

> <Gold.Chemscore.Metal>
0.0000

> <Gold.Chemscore.Lipo>
87.3677

> <Gold.Chemscore.Internal_Hbond>
0.0000

> <Gold.Chemscore.DEClash>
1.4639

> <Gold.Chemscore.DEInternal>
0.5741

> <Gold.Chemscore.Rot>
2.5333

> <Gold.Chemscore.Internal.Correction>
   9.000000E+99

> <Gold.Chemscore.Hbonds>
donor molecule, donor type, donor heavy atom, donor atom, acceptor molecule, acceptor atom, score
      L1  H    12    35       P1 10171  0.97
      P1  H  7954  7966       L1    12  0.38
      P1  H  7989  7998       L1     4  0.01

> <Gold.Chemscore.Hbond.Weighted>
-6.8757

> <Gold.Chemscore.Metal.Weighted>
-0.0000

> <Gold.Chemscore.Lipo.Weighted>
-10.2220

> <Gold.Chemscore.Internal_Hbond.Weighted>
0.0000

> <Gold.Chemscore.DEClash.Weighted>
1.4639

> <Gold.Chemscore.DEInternal.Weighted>
0.5741

> <Gold.Chemscore.Rot.Weighted>
6.4852

> <Gold.Chemscore.Internal.Correction.Weighted>
   9.000000E+99

> <Gold.Protein.RotatedTorsions>
[ 6907 6896 6895 6894 ] final   44.76 input  -60.11 | X-H torsion
[ 7974 7965 7964 7962 ] final  -51.87 input  175.53 | X-H torsion
[ 8008 7997 7996 7995 ] final  -66.17 input   59.86 | X-H torsion
[ 10167 10162 10161 10158 ] final   95.94 input  -65.29 | X-H torsion
[ 10718 10713 10712 10709 ] final  -80.31 input   66.30 | X-H torsion
[ 10763 10752 10751 10750 ] final  145.90 input  -60.55 | X-H torsion
[ 11005 11000 10999 10996 ] final  128.86 input  -57.11 | X-H torsion

> <Gold.Protein.ActiveResidues>
 VAL166  LYS551  ARG553  GLY616  TRP617  ASP618  TYR619  PRO620  LYS621  CYS622 
 ASP623  PHE694  ASN695  SER759  ASP760  ASP761  ALA762  ILE779  LEU786  VAL792 
 PHE793  MET794  SER795  GLU796  ALA797  LYS798  CYS799  TRP800  GLU811  SER814 

> <Gold.Protein.RotatedAtoms>
  152.2364  134.8272  160.0466 H   0  0  0  0  0  0  0  0  0  0  0  0  # atno 6907 bound_to 6896
  151.9002  133.3531  159.3836 H   0  0  0  0  0  0  0  0  0  0  0  0  # atno 6908 bound_to 6896
  150.7040  134.4761  159.5492 H   0  0  0  0  0  0  0  0  0  0  0  0  # atno 6909 bound_to 6896
  145.9142  140.7889  142.9679 H   0  0  0  0  0  0  0  0  0  0  0  0  # atno 7974 bound_to 7965
  154.4717  140.0918  156.7162 H   0  0  0  0  0  0  0  0  0  0  0  0  # atno 8008 bound_to 7997
  155.4705  140.3464  155.4307 H   0  0  0  0  0  0  0  0  0  0  0  0  # atno 8009 bound_to 7997
  156.1050  140.1432  156.9404 H   0  0  0  0  0  0  0  0  0  0  0  0  # atno 8010 bound_to 7997
  139.7941  144.6840  150.9852 H   0  0  0  0  0  0  0  0  0  0  0  0  # atno 10167 bound_to 10162
  156.0073  130.4570  150.3781 H   0  0  0  0  0  0  0  0  0  0  0  0  # atno 10718 bound_to 10713
  154.0130  135.2913  155.3390 H   0  0  0  0  0  0  0  0  0  0  0  0  # atno 10763 bound_to 10752
  154.7092  135.5156  153.8643 H   0  0  0  0  0  0  0  0  0  0  0  0  # atno 10764 bound_to 10752
  153.0714  135.6649  154.0360 H   0  0  0  0  0  0  0  0  0  0  0  0  # atno 10765 bound_to 10752
  139.9584  134.9608  156.9064 H   0  0  0  0  0  0  0  0  0  0  0  0  # atno 11005 bound_to 11000
  144.6746  140.1874  143.7400 LP  0  0  0  0  0  0  0  0  0  0  0  0  # atno 17320 bound_to 7965
  145.8632  139.2233  143.1704 LP  0  0  0  0  0  0  0  0  0  0  0  0  # atno 17321 bound_to 7965
  140.7820  143.4350  151.0638 LP  0  0  0  0  0  0  0  0  0  0  0  0  # atno 17342 bound_to 10162
  139.8025  143.8064  152.3164 LP  0  0  0  0  0  0  0  0  0  0  0  0  # atno 17343 bound_to 10162
  157.1862  131.0404  151.2723 LP  0  0  0  0  0  0  0  0  0  0  0  0  # atno 17370 bound_to 10713
  157.4102  130.7381  149.6833 LP  0  0  0  0  0  0  0  0  0  0  0  0  # atno 17371 bound_to 10713
  140.5557  134.0584  155.7383 LP  0  0  0  0  0  0  0  0  0  0  0  0  # atno 17394 bound_to 11000
  141.1258  133.9385  157.2638 LP  0  0  0  0  0  0  0  0  0  0  0  0  # atno 17395 bound_to 11000

$$$$
