AV-unprocessed.smi:292|AV-procd|sdf|2249|dock10
  -GOLD-   2262022133D 1   1.00000     0.00000
 Structure written by MMmdl.
 33 34  0  0  0  0  0  0  0  0  1 V2000
  147.9660  136.3499  161.0973 N   0  0  0  0  0  0  0  0  0  0  0  0
  148.1432  135.9625  160.0213 C   0  0  0  0  0  0  0  0  0  0  0  0
  148.3656  135.4760  158.6703 C   0  0  0  0  0  0  0  0  0  0  0  0
  149.0246  134.3045  158.4343 N   0  0  0  0  0  0  0  0  0  0  0  0
  148.9769  134.3050  157.1081 C   0  0  0  0  0  0  0  0  0  0  0  0
  148.3550  135.3680  156.5868 N   0  0  0  0  0  0  0  0  0  0  0  0
  148.1217  135.7379  155.1992 C   0  0  0  0  0  0  0  0  0  0  0  0
  147.0233  134.9046  154.5224 C   0  0  0  0  0  0  0  0  0  0  0  0
  146.1431  134.3936  155.2138 O   0  0  0  0  0  0  0  0  0  0  0  0
  147.0847  134.7549  153.1881 N   0  0  0  0  0  0  0  0  0  0  0  0
  146.1329  134.0234  152.3547 C   0  0  2  0  0  0  0  0  0  0  0  0
  146.8798  133.1040  151.3537 C   0  0  0  0  0  0  0  0  0  0  0  0
  146.1315  132.7730  150.0456 C   0  0  0  0  0  0  0  0  0  0  0  0
  144.7235  132.1688  150.2199 C   0  0  0  0  0  0  0  0  0  0  0  0
  143.7294  132.9685  151.0949 C   0  0  0  0  0  0  0  0  0  0  0  0
  144.0035  134.4036  151.1572 N   0  0  0  0  0  0  0  0  0  0  0  0
  145.0788  134.9638  151.7378 C   0  0  0  0  0  0  0  0  0  0  0  0
  145.2319  136.1847  151.7632 O   0  0  0  0  0  0  0  0  0  0  0  0
  147.9373  136.1554  157.6085 N   0  0  0  0  0  0  0  0  0  0  0  0
  149.4104  133.5212  156.5044 H   0  0  0  0  0  0  0  0  0  0  0  0
  147.8434  136.7915  155.1595 H   0  0  0  0  0  0  0  0  0  0  0  0
  149.0557  135.6317  154.6455 H   0  0  0  0  0  0  0  0  0  0  0  0
  147.8397  135.2141  152.6990 H   0  0  0  0  0  0  0  0  0  0  0  0
  145.5721  133.3787  153.0329 H   0  0  0  0  0  0  0  0  0  0  0  0
  147.8272  133.5683  151.0766 H   0  0  0  0  0  0  0  0  0  0  0  0
  147.1472  132.1758  151.8601 H   0  0  0  0  0  0  0  0  0  0  0  0
  146.0643  133.6712  149.4301 H   0  0  0  0  0  0  0  0  0  0  0  0
  146.7383  132.0787  149.4638 H   0  0  0  0  0  0  0  0  0  0  0  0
  144.2908  132.0547  149.2254 H   0  0  0  0  0  0  0  0  0  0  0  0
  144.8074  131.1569  150.6179 H   0  0  0  0  0  0  0  0  0  0  0  0
  142.7170  132.8271  150.7161 H   0  0  0  0  0  0  0  0  0  0  0  0
  143.7143  132.5639  152.1076 H   0  0  0  0  0  0  0  0  0  0  0  0
  143.3177  135.0184  150.7429 H   0  0  0  0  0  0  0  0  0  0  0  0
  1  2  3  0  0  0  0
  2  3  1  0  0  0  0
  3 19  2  0  0  0  0
  3  4  1  0  0  0  0
  4  5  2  0  0  0  0
  5  6  1  0  0  0  0
  5 20  1  0  0  0  0
  6  7  1  0  0  0  0
  6 19  1  0  0  0  0
  7  8  1  0  0  0  0
  7 21  1  0  0  0  0
  7 22  1  0  0  0  0
  8  9  2  0  0  0  0
  8 10  1  0  0  0  0
 10 11  1  0  0  0  0
 10 23  1  0  0  0  0
 11 17  1  0  0  0  0
 11 12  1  0  0  0  0
 11 24  1  0  0  0  0
 12 13  1  0  0  0  0
 12 25  1  0  0  0  0
 12 26  1  0  0  0  0
 13 14  1  0  0  0  0
 13 27  1  0  0  0  0
 13 28  1  0  0  0  0
 14 15  1  0  0  0  0
 14 29  1  0  0  0  0
 14 30  1  0  0  0  0
 15 16  1  0  0  0  0
 15 31  1  0  0  0  0
 15 32  1  0  0  0  0
 16 17  1  0  0  0  0
 16 33  1  0  0  0  0
 17 18  2  0  0  0  0
M  END
> <s_m_source_file>
AV-unprocessed.smi

> <i_m_source_file_index>
292

> <i_lp_mmshare_version>
43012

> <i_f3d_flags>
0

> <s_epik_input>
TiNDYzFuW2NIXW4objEpW0NIMl1DKD1PKVtOSF1bQ0BASF0yW0NIMl1bQ0gyXVtDSDJdW0NIMl1bTkhdQzI9Tw==

> <s_epik_cmdline>
J2VwaWtfcHl0aG9uJywgJy1waCcsICc3LjAnLCAnLXRuJywgJzgnLCAnLW1hJywgJzIwMCcsICctbWV0YWxfYmluZGluZycsICctaW1hZScsICc8aW5maWxlLm1hZT4nLCAnLW9tYWUnLCAnPG91dGZpbGUubWFlPic=

> <r_lp_tautomer_probability>
1

> <r_epik_Ionization_Penalty>
1.99744e-07

> <r_epik_Ionization_Penalty_Charging>
0

> <r_epik_Ionization_Penalty_Neutral>
1.99744e-07

> <r_epik_State_Penalty>
-0

> <r_epik_Charging_Adjusted_Penalty>
0

> <i_epik_Tot_Q>
0

> <i_epik_Tot_abs_Q>
0

> <r_epik_Metal_State_Penalty>
-0

> <b_epik_Metal_Only>
0

> <s_lp_Force_Field>
OPLS_2005

> <r_lp_Energy>
19.194

> <b_lp_Chiralities_Consistent>
1

> <s_lp_Variant>
AV-unprocessed.smi:292-1

> <Gold.Version>
5.8.1

> <Gold.Id.Protein>
6NUR|6NUR_protein|mol2

> <Gold.PLP.Fitness>
34.7494

> <Gold.PLP.PLP>
-24.8151

> <Gold.PLP.part.hbond>
-3.9690

> <Gold.PLP.part.metal>
0.0000

> <Gold.PLP.part.buried>
-5.3345

> <Gold.PLP.part.nonpolar>
-16.5019

> <Gold.PLP.part.repulsive>
0.2507

> <Gold.PLP.ligand.clash>
0.0000

> <Gold.PLP.ligand.torsion>
0.7842

> <Gold.PLP.Chemscore.Hbond>
3.8164

> <Gold.PLP.Chemscore.CHOScore>
0.0000

> <Gold.PLP.Chemscore.Metal>
0.0000

> <Gold.Chemscore.Hbonds>
donor molecule, donor type, donor heavy atom, donor atom, acceptor molecule, acceptor atom, score
      L1  H    10    23       P1  7948  1.00
      P1  H  6896  6908       L1     4  1.00
      P1  H  6931  6943       L1     1  0.28

> <Gold.PLP.Chemscore.Internal.Correction>
0.0535

> <Gold.Rescore>
     Score         DG    S(hbond)    S(metal)    S(lipo)     H(rot)  DE(clash)    DE(int)     intcor
     15.71     -16.43       3.48        0.00      41.06       2.14       0.08       0.64       ----

> <Gold.Chemscore.Fitness>
15.7117

> <Gold.Chemscore.DG>
-16.4289

> <Gold.Chemscore.ZeroCoef>
-5.4800

> <Gold.Chemscore.Hbond>
3.4833

> <Gold.Chemscore.Metal>
0.0000

> <Gold.Chemscore.Lipo>
41.0634

> <Gold.Chemscore.Internal_Hbond>
0.0000

> <Gold.Chemscore.DEClash>
0.0809

> <Gold.Chemscore.DEInternal>
0.6362

> <Gold.Chemscore.Rot>
2.1444

> <Gold.Chemscore.Internal.Correction>
   9.000000E+99

> <Gold.Chemscore.Hbonds>
donor molecule, donor type, donor heavy atom, donor atom, acceptor molecule, acceptor atom, score
      L1  H    10    23       P1  7948  1.00
      P1  H  6896  6908       L1     4  0.65
      P1  H  6931  6943       L1     1  0.27

> <Gold.Chemscore.Hbond.Weighted>
-11.6341

> <Gold.Chemscore.Metal.Weighted>
-0.0000

> <Gold.Chemscore.Lipo.Weighted>
-4.8044

> <Gold.Chemscore.Internal_Hbond.Weighted>
0.0000

> <Gold.Chemscore.DEClash.Weighted>
0.0809

> <Gold.Chemscore.DEInternal.Weighted>
0.6362

> <Gold.Chemscore.Rot.Weighted>
5.4896

> <Gold.Chemscore.Internal.Correction.Weighted>
   9.000000E+99

> <Gold.Protein.RotatedTorsions>
[ 6907 6896 6895 6894 ] final  153.85 input  -60.11 | X-H torsion
[ 7974 7965 7964 7962 ] final  146.88 input  175.53 | X-H torsion
[ 8008 7997 7996 7995 ] final   50.29 input   59.86 | X-H torsion
[ 10167 10162 10161 10158 ] final   91.26 input  -65.29 | X-H torsion
[ 10718 10713 10712 10709 ] final   38.58 input   66.30 | X-H torsion
[ 10763 10752 10751 10750 ] final -173.04 input  -60.55 | X-H torsion
[ 11005 11000 10999 10996 ] final  -14.34 input  -57.11 | X-H torsion

> <Gold.Protein.ActiveResidues>
 VAL166  LYS551  ARG553  GLY616  TRP617  ASP618  TYR619  PRO620  LYS621  CYS622 
 ASP623  PHE694  ASN695  SER759  ASP760  ASP761  ALA762  ILE779  LEU786  VAL792 
 PHE793  MET794  SER795  GLU796  ALA797  LYS798  CYS799  TRP800  GLU811  SER814 

> <Gold.Protein.RotatedAtoms>
  152.0668  133.4088  159.4441 H   0  0  0  0  0  0  0  0  0  0  0  0  # atno 6907 bound_to 6896
  150.6864  134.3137  159.4766 H   0  0  0  0  0  0  0  0  0  0  0  0  # atno 6908 bound_to 6896
  152.0964  134.9371  160.0621 H   0  0  0  0  0  0  0  0  0  0  0  0  # atno 6909 bound_to 6896
  144.8635  139.5960  143.5919 H   0  0  0  0  0  0  0  0  0  0  0  0  # atno 7974 bound_to 7965
  155.4163  140.3444  155.4267 H   0  0  0  0  0  0  0  0  0  0  0  0  # atno 8008 bound_to 7997
  156.1419  140.1544  156.8939 H   0  0  0  0  0  0  0  0  0  0  0  0  # atno 8009 bound_to 7997
  154.4978  140.0823  156.7714 H   0  0  0  0  0  0  0  0  0  0  0  0  # atno 8010 bound_to 7997
  139.8392  144.6649  150.9304 H   0  0  0  0  0  0  0  0  0  0  0  0  # atno 10167 bound_to 10162
  157.3604  130.7647  149.7044 H   0  0  0  0  0  0  0  0  0  0  0  0  # atno 10718 bound_to 10713
  154.6124  135.2866  155.0417 H   0  0  0  0  0  0  0  0  0  0  0  0  # atno 10763 bound_to 10752
  154.1642  135.6483  153.4997 H   0  0  0  0  0  0  0  0  0  0  0  0  # atno 10764 bound_to 10752
  153.0201  135.5385  154.6883 H   0  0  0  0  0  0  0  0  0  0  0  0  # atno 10765 bound_to 10752
  140.7854  133.8329  155.9330 H   0  0  0  0  0  0  0  0  0  0  0  0  # atno 11005 bound_to 11000
  146.2878  139.7054  142.9182 LP  0  0  0  0  0  0  0  0  0  0  0  0  # atno 17320 bound_to 7965
  145.4266  141.0411  143.2934 LP  0  0  0  0  0  0  0  0  0  0  0  0  # atno 17321 bound_to 7965
  140.7799  143.3928  151.1281 LP  0  0  0  0  0  0  0  0  0  0  0  0  # atno 17342 bound_to 10162
  139.7576  143.8684  152.3092 LP  0  0  0  0  0  0  0  0  0  0  0  0  # atno 17343 bound_to 10162
  155.9736  130.4115  150.3985 LP  0  0  0  0  0  0  0  0  0  0  0  0  # atno 17370 bound_to 10713
  157.2062  131.0449  151.2624 LP  0  0  0  0  0  0  0  0  0  0  0  0  # atno 17371 bound_to 10713
  140.9441  134.1862  157.4776 LP  0  0  0  0  0  0  0  0  0  0  0  0  # atno 17394 bound_to 11000
  139.8737  134.9883  156.5409 LP  0  0  0  0  0  0  0  0  0  0  0  0  # atno 17395 bound_to 11000

$$$$
