AV-unprocessed.smi:1859|AV-procd|sdf|7546|dock9
  -GOLD-   22720 9263D 1   1.00000     0.00000
 Structure written by MMmdl.
 46 48  0  0  0  0  0  0  0  0  2 V2000
  147.6348  138.9997  154.1265 O   0  0  0  0  0  0  0  0  0  0  0  0
  147.2523  139.9218  153.4053 C   0  0  0  0  0  0  0  0  0  0  0  0
  146.6967  139.7188  152.2010 N   0  0  0  0  0  0  0  0  0  0  0  0
  146.5244  138.4141  151.5746 C   0  0  0  0  0  0  0  0  0  0  0  0
  145.6049  137.5074  152.4109 C   0  0  0  0  0  0  0  0  0  0  0  0
  145.4265  136.1401  151.7821 C   0  0  0  0  0  0  0  0  0  0  0  0
  144.1772  135.6877  151.3047 C   0  0  0  0  0  0  0  0  0  0  0  0
  144.0816  134.3978  150.7415 C   0  0  0  0  0  0  0  0  0  0  0  0
  145.2349  133.5893  150.6683 C   0  0  0  0  0  0  0  0  0  0  0  0
  146.4570  134.0917  151.1605 C   0  0  0  0  0  0  0  0  0  0  0  0
  146.5078  135.3323  151.6933 N   0  3  0  0  0  0  0  0  0  0  0  0
  147.4038  141.3899  153.8462 C   0  0  1  0  0  0  0  0  0  0  0  0
  146.5338  141.7457  155.0803 C   0  0  0  0  0  0  0  0  0  0  0  0
  147.1486  141.2971  156.4249 C   0  0  0  0  0  0  0  0  0  0  0  0
  148.6318  141.6956  156.5235 C   0  0  0  0  0  0  0  0  0  0  0  0
  149.3486  141.1446  155.3643 N   0  0  0  0  0  0  0  0  0  0  0  0
  150.2134  140.0991  155.3852 C   0  0  0  0  0  0  0  0  0  0  0  0
  150.7055  139.6317  154.3565 O   0  0  0  0  0  0  0  0  0  0  0  0
  150.5582  139.5278  156.7240 C   0  0  0  0  0  0  0  0  0  0  0  0
  151.1004  140.4693  157.7839 C   0  0  0  0  0  0  0  0  0  0  0  0
  152.0256  139.4989  157.0983 C   0  0  0  0  0  0  0  0  0  0  0  0
  148.8833  141.7612  154.1132 C   0  0  0  0  0  0  0  0  0  0  0  0
  146.4022  140.5260  151.6702 H   0  0  0  0  0  0  0  0  0  0  0  0
  146.1307  138.5371  150.5642 H   0  0  0  0  0  0  0  0  0  0  0  0
  147.5071  137.9532  151.4713 H   0  0  0  0  0  0  0  0  0  0  0  0
  146.0104  137.3900  153.4167 H   0  0  0  0  0  0  0  0  0  0  0  0
  144.6219  137.9659  152.5291 H   0  0  0  0  0  0  0  0  0  0  0  0
  143.3021  136.3180  151.3707 H   0  0  0  0  0  0  0  0  0  0  0  0
  143.1344  134.0327  150.3721 H   0  0  0  0  0  0  0  0  0  0  0  0
  145.1828  132.5983  150.2417 H   0  0  0  0  0  0  0  0  0  0  0  0
  147.3877  133.5434  151.1458 H   0  0  0  0  0  0  0  0  0  0  0  0
  147.0502  142.0034  153.0159 H   0  0  0  0  0  0  0  0  0  0  0  0
  146.4052  142.8284  155.1059 H   0  0  0  0  0  0  0  0  0  0  0  0
  145.5297  141.3324  154.9753 H   0  0  0  0  0  0  0  0  0  0  0  0
  146.5896  141.7383  157.2504 H   0  0  0  0  0  0  0  0  0  0  0  0
  147.0543  140.2175  156.5418 H   0  0  0  0  0  0  0  0  0  0  0  0
  148.7249  142.7826  156.5181 H   0  0  0  0  0  0  0  0  0  0  0  0
  149.0335  141.3781  157.4842 H   0  0  0  0  0  0  0  0  0  0  0  0
  149.9185  138.7252  157.0869 H   0  0  0  0  0  0  0  0  0  0  0  0
  151.2236  141.5235  157.5430 H   0  0  0  0  0  0  0  0  0  0  0  0
  150.8205  140.2646  158.8151 H   0  0  0  0  0  0  0  0  0  0  0  0
  152.3731  138.6342  157.6598 H   0  0  0  0  0  0  0  0  0  0  0  0
  152.7435  139.9067  156.3883 H   0  0  0  0  0  0  0  0  0  0  0  0
  149.5023  141.4892  153.2565 H   0  0  0  0  0  0  0  0  0  0  0  0
  148.9791  142.8449  154.1960 H   0  0  0  0  0  0  0  0  0  0  0  0
  147.4020  135.6762  152.0448 H   0  0  0  0  0  0  0  0  0  0  0  0
  1  2  2  0  0  0  0
  2  3  1  0  0  0  0
  2 12  1  0  0  0  0
  3  4  1  0  0  0  0
  3 23  1  0  0  0  0
  4  5  1  0  0  0  0
  4 24  1  0  0  0  0
  4 25  1  0  0  0  0
  5  6  1  0  0  0  0
  5 26  1  0  0  0  0
  5 27  1  0  0  0  0
  6 11  1  0  0  0  0
  6  7  2  0  0  0  0
  7  8  1  0  0  0  0
  7 28  1  0  0  0  0
  8  9  2  0  0  0  0
  8 29  1  0  0  0  0
  9 10  1  0  0  0  0
  9 30  1  0  0  0  0
 10 11  2  0  0  0  0
 10 31  1  0  0  0  0
 11 46  1  0  0  0  0
 12 22  1  0  0  0  0
 12 13  1  0  0  0  0
 12 32  1  0  0  0  0
 13 14  1  0  0  0  0
 13 33  1  0  0  0  0
 13 34  1  0  0  0  0
 14 15  1  0  0  0  0
 14 35  1  0  0  0  0
 14 36  1  0  0  0  0
 15 16  1  0  0  0  0
 15 37  1  0  0  0  0
 15 38  1  0  0  0  0
 16 17  1  0  0  0  0
 16 22  1  0  0  0  0
 17 18  2  0  0  0  0
 17 19  1  0  0  0  0
 19 21  1  0  0  0  0
 19 20  1  0  0  0  0
 19 39  1  0  0  0  0
 20 21  1  0  0  0  0
 20 40  1  0  0  0  0
 20 41  1  0  0  0  0
 21 42  1  0  0  0  0
 21 43  1  0  0  0  0
 22 44  1  0  0  0  0
 22 45  1  0  0  0  0
M  CHG  1  11   1
M  END
> <s_m_source_file>
AV-unprocessed.smi

> <i_m_source_file_index>
1859

> <i_lp_mmshare_version>
43012

> <i_f3d_flags>
0

> <s_epik_input>
W0NIMl0xW0NIMl1bQ0hdMUMoPU8pTihbQ0gyXTIpW0NIMl1bQ0gyXVtDSDJdW0NASF0yQyg9TylbTkhdW0NIMl1bQ0gyXWMzW2NIXVtjSF1bY0hdW2NIXW4z

> <s_epik_cmdline>
J2VwaWtfcHl0aG9uJywgJy1waCcsICc3LjAnLCAnLXRuJywgJzgnLCAnLW1hJywgJzIwMCcsICctbWV0YWxfYmluZGluZycsICctaW1hZScsICc8aW5maWxlLm1hZT4nLCAnLW9tYWUnLCAnPG91dGZpbGUubWFlPic=

> <r_epik_Ionization_Penalty>
1.84754

> <r_epik_Ionization_Penalty_Charging>
1.84754

> <r_epik_Ionization_Penalty_Neutral>
7.35743e-08

> <r_epik_State_Penalty>
1.96477

> <r_epik_Charging_Adjusted_Penalty>
3.81231

> <i_epik_Tot_Q>
1

> <i_epik_Tot_abs_Q>
1

> <r_epik_Metal_State_Penalty>
1.99062

> <b_epik_Metal_Only>
0

> <s_lp_Force_Field>
OPLS_2005

> <r_lp_Energy>
29.7098

> <b_lp_Chiralities_Consistent>
1

> <s_lp_Variant>
AV-unprocessed.smi:1859-4

> <Gold.Version>
5.8.1

> <Gold.Id.Protein>
6NUR|6NUR_protein|mol2

> <Gold.PLP.Fitness>
47.5609

> <Gold.PLP.PLP>
-38.6450

> <Gold.PLP.part.hbond>
-3.5538

> <Gold.PLP.part.metal>
0.0000

> <Gold.PLP.part.buried>
-2.2620

> <Gold.PLP.part.nonpolar>
-34.3015

> <Gold.PLP.part.repulsive>
0.4006

> <Gold.PLP.ligand.clash>
0.0000

> <Gold.PLP.ligand.torsion>
0.1033

> <Gold.PLP.Chemscore.Hbond>
3.0000

> <Gold.PLP.Chemscore.CHOScore>
0.0000

> <Gold.PLP.Chemscore.Metal>
0.0000

> <Gold.Chemscore.Hbonds>
donor molecule, donor type, donor heavy atom, donor atom, acceptor molecule, acceptor atom, score
      L1  H    11    46       P1  7948  2.00
      P1  H  7989  7998       L1    18  1.00

> <Gold.PLP.Chemscore.Internal.Correction>
0.1226

> <Gold.Rescore>
     Score         DG    S(hbond)    S(metal)    S(lipo)     H(rot)  DE(clash)    DE(int)     intcor
     13.55     -17.39       1.78        0.00      88.00       1.70       0.76       3.07       ----

> <Gold.Chemscore.Fitness>
13.5531

> <Gold.Chemscore.DG>
-17.3883

> <Gold.Chemscore.ZeroCoef>
-5.4800

> <Gold.Chemscore.Hbond>
1.7840

> <Gold.Chemscore.Metal>
0.0000

> <Gold.Chemscore.Lipo>
88.0045

> <Gold.Chemscore.Internal_Hbond>
0.0000

> <Gold.Chemscore.DEClash>
0.7602

> <Gold.Chemscore.DEInternal>
3.0750

> <Gold.Chemscore.Rot>
1.6980

> <Gold.Chemscore.Internal.Correction>
   9.000000E+99

> <Gold.Chemscore.Hbonds>
donor molecule, donor type, donor heavy atom, donor atom, acceptor molecule, acceptor atom, score
      L1  H    11    46       P1  7948  0.96
      P1  H  7989  7998       L1    18  0.78

> <Gold.Chemscore.Hbond.Weighted>
-5.9587

> <Gold.Chemscore.Metal.Weighted>
-0.0000

> <Gold.Chemscore.Lipo.Weighted>
-10.2965

> <Gold.Chemscore.Internal_Hbond.Weighted>
0.0000

> <Gold.Chemscore.DEClash.Weighted>
0.7602

> <Gold.Chemscore.DEInternal.Weighted>
3.0750

> <Gold.Chemscore.Rot.Weighted>
4.3469

> <Gold.Chemscore.Internal.Correction.Weighted>
   9.000000E+99

> <Gold.Protein.RotatedTorsions>
[ 6907 6896 6895 6894 ] final  -46.31 input  -60.11 | X-H torsion
[ 7974 7965 7964 7962 ] final   78.65 input  175.53 | X-H torsion
[ 8008 7997 7996 7995 ] final   41.43 input   59.86 | X-H torsion
[ 10167 10162 10161 10158 ] final -105.81 input  -65.29 | X-H torsion
[ 10718 10713 10712 10709 ] final -115.30 input   66.30 | X-H torsion
[ 10763 10752 10751 10750 ] final -121.29 input  -60.55 | X-H torsion
[ 11005 11000 10999 10996 ] final   89.47 input  -57.11 | X-H torsion

> <Gold.Protein.ActiveResidues>
 VAL166  LYS551  ARG553  GLY616  TRP617  ASP618  TYR619  PRO620  LYS621  CYS622 
 ASP623  PHE694  ASN695  SER759  ASP760  ASP761  ALA762  ILE779  LEU786  VAL792 
 PHE793  MET794  SER795  GLU796  ALA797  LYS798  CYS799  TRP800  GLU811  SER814 

> <Gold.Protein.RotatedAtoms>
  150.9126  134.8543  159.7435 H   0  0  0  0  0  0  0  0  0  0  0  0  # atno 6907 bound_to 6896
  152.4952  134.4336  159.9530 H   0  0  0  0  0  0  0  0  0  0  0  0  # atno 6908 bound_to 6896
  151.4377  133.3613  159.2812 H   0  0  0  0  0  0  0  0  0  0  0  0  # atno 6909 bound_to 6896
  145.6744  139.2506  143.1850 H   0  0  0  0  0  0  0  0  0  0  0  0  # atno 7974 bound_to 7965
  155.2695  140.3365  155.4266 H   0  0  0  0  0  0  0  0  0  0  0  0  # atno 8008 bound_to 7997
  156.2139  140.1781  156.7675 H   0  0  0  0  0  0  0  0  0  0  0  0  # atno 8009 bound_to 7997
  154.5725  140.0667  156.8970 H   0  0  0  0  0  0  0  0  0  0  0  0  # atno 8010 bound_to 7997
  140.1945  143.3866  152.1179 H   0  0  0  0  0  0  0  0  0  0  0  0  # atno 10167 bound_to 10162
  156.0886  130.6073  150.8888 H   0  0  0  0  0  0  0  0  0  0  0  0  # atno 10718 bound_to 10713
  154.8665  135.4173  154.2596 H   0  0  0  0  0  0  0  0  0  0  0  0  # atno 10763 bound_to 10752
  153.3527  135.6999  153.6781 H   0  0  0  0  0  0  0  0  0  0  0  0  # atno 10764 bound_to 10752
  153.5715  135.3590  155.2812 H   0  0  0  0  0  0  0  0  0  0  0  0  # atno 10765 bound_to 10752
  139.8875  134.8553  156.3146 H   0  0  0  0  0  0  0  0  0  0  0  0  # atno 11005 bound_to 11000
  146.1018  140.7535  142.9545 LP  0  0  0  0  0  0  0  0  0  0  0  0  # atno 17320 bound_to 7965
  144.7046  140.3799  143.7128 LP  0  0  0  0  0  0  0  0  0  0  0  0  # atno 17321 bound_to 7965
  139.5242  144.7081  151.5292 LP  0  0  0  0  0  0  0  0  0  0  0  0  # atno 17342 bound_to 10162
  140.6433  143.8846  150.6712 LP  0  0  0  0  0  0  0  0  0  0  0  0  # atno 17343 bound_to 10162
  157.6029  131.0940  150.8929 LP  0  0  0  0  0  0  0  0  0  0  0  0  # atno 17370 bound_to 10713
  156.9083  130.5271  149.5281 LP  0  0  0  0  0  0  0  0  0  0  0  0  # atno 17371 bound_to 10713
  140.9827  133.7257  156.0696 LP  0  0  0  0  0  0  0  0  0  0  0  0  # atno 17394 bound_to 11000
  140.7728  134.3813  157.5504 LP  0  0  0  0  0  0  0  0  0  0  0  0  # atno 17395 bound_to 11000

$$$$
