AV-unprocessed.smi:2405|AV-procd|sdf|9514|dock1
  -GOLD-   2272013143D 1   1.00000     0.00000
 Structure written by MMmdl.
 36 37  0  0  0  0  0  0  0  0  2 V2000
  151.2863  129.0138  154.9101 C   0  0  0  0  0  0  0  0  0  0  0  0
  151.3193  130.0439  156.0441 C   0  0  0  0  0  0  0  0  0  0  0  0
  150.3485  131.1575  155.8351 C   0  0  0  0  0  0  0  0  0  0  0  0
  150.0882  132.0892  156.7556 N   0  0  0  0  0  0  0  0  0  0  0  0
  149.1618  133.0400  156.3149 C   0  0  0  0  0  0  0  0  0  0  0  0
  148.7371  134.1526  157.2285 C   0  0  0  0  0  0  0  0  0  0  0  0
  148.4706  133.6087  158.6325 C   0  0  0  0  0  0  0  0  0  0  0  0
  149.3248  132.9299  159.2031 O   0  0  0  0  0  0  0  0  0  0  0  0
  147.2815  133.9114  159.1744 N   0  0  0  0  0  0  0  0  0  0  0  0
  146.8235  133.4928  160.4951 C   0  0  2  0  0  0  0  0  0  0  0  0
  145.5542  134.2567  160.9262 C   0  0  0  0  0  0  0  0  0  0  0  0
  145.8596  134.8464  162.3078 C   0  0  0  0  0  0  0  0  0  0  0  0
  147.3830  135.0359  162.3385 C   0  0  2  0  0  0  0  0  0  0  0  0
  147.7875  136.3849  161.7051 C   0  0  0  0  0  0  0  0  0  0  0  0
  146.8567  137.1743  161.4324 O   0  0  0  0  0  0  0  0  0  0  0  0
  149.0008  136.6232  161.5117 O   0  5  0  0  0  0  0  0  0  0  0  0
  147.8915  133.8076  161.5599 C   0  0  0  0  0  0  0  0  0  0  0  0
  148.7398  132.8247  155.0258 C   0  0  0  0  0  0  0  0  0  0  0  0
  149.4832  131.4141  154.3246 S   0  0  0  0  0  0  0  0  0  0  0  0
  152.0044  128.2138  155.0910 H   0  0  0  0  0  0  0  0  0  0  0  0
  151.5346  129.4744  153.9536 H   0  0  0  0  0  0  0  0  0  0  0  0
  150.2986  128.5615  154.8185 H   0  0  0  0  0  0  0  0  0  0  0  0
  151.0939  129.5583  156.9938 H   0  0  0  0  0  0  0  0  0  0  0  0
  152.3218  130.4629  156.1376 H   0  0  0  0  0  0  0  0  0  0  0  0
  149.5004  134.9302  157.2818 H   0  0  0  0  0  0  0  0  0  0  0  0
  147.8342  134.6339  156.8511 H   0  0  0  0  0  0  0  0  0  0  0  0
  146.6363  134.4664  158.6288 H   0  0  0  0  0  0  0  0  0  0  0  0
  146.6375  132.4172  160.4895 H   0  0  0  0  0  0  0  0  0  0  0  0
  145.3362  135.0690  160.2308 H   0  0  0  0  0  0  0  0  0  0  0  0
  144.6763  133.6105  160.9484 H   0  0  0  0  0  0  0  0  0  0  0  0
  145.2960  135.7617  162.4951 H   0  0  0  0  0  0  0  0  0  0  0  0
  145.5722  134.1330  163.0812 H   0  0  0  0  0  0  0  0  0  0  0  0
  147.7574  135.0270  163.3627 H   0  0  0  0  0  0  0  0  0  0  0  0
  147.9576  132.9665  162.2511 H   0  0  0  0  0  0  0  0  0  0  0  0
  148.8931  133.9283  161.1437 H   0  0  0  0  0  0  0  0  0  0  0  0
  148.0365  133.4084  154.4503 H   0  0  0  0  0  0  0  0  0  0  0  0
  1  2  1  0  0  0  0
  1 20  1  0  0  0  0
  1 21  1  0  0  0  0
  1 22  1  0  0  0  0
  2  3  1  0  0  0  0
  2 23  1  0  0  0  0
  2 24  1  0  0  0  0
  3 19  1  0  0  0  0
  3  4  2  0  0  0  0
  4  5  1  0  0  0  0
  5  6  1  0  0  0  0
  5 18  2  0  0  0  0
  6  7  1  0  0  0  0
  6 25  1  0  0  0  0
  6 26  1  0  0  0  0
  7  8  2  0  0  0  0
  7  9  1  0  0  0  0
  9 10  1  0  0  0  0
  9 27  1  0  0  0  0
 10 17  1  0  0  0  0
 10 11  1  0  0  0  0
 10 28  1  0  0  0  0
 11 12  1  0  0  0  0
 11 29  1  0  0  0  0
 11 30  1  0  0  0  0
 12 13  1  0  0  0  0
 12 31  1  0  0  0  0
 12 32  1  0  0  0  0
 13 14  1  0  0  0  0
 13 17  1  0  0  0  0
 13 33  1  0  0  0  0
 14 15  2  0  0  0  0
 14 16  1  0  0  0  0
 17 34  1  0  0  0  0
 17 35  1  0  0  0  0
 18 19  1  0  0  0  0
 18 36  1  0  0  0  0
M  CHG  1  16  -1
M  END
> <s_m_source_file>
AV-unprocessed.smi

> <i_m_source_file_index>
2405

> <i_lp_mmshare_version>
43012

> <i_f3d_flags>
0

> <s_epik_input>
W0NIM11bQ0gyXWMxbmMoW2NIXXMxKVtDSDJdQyg9TylbTkhdW0NAQEhdMltDSDJdW0NIMl1bQ0BIXShbQ0gyXTIpQyg9TylbT0hd

> <s_epik_cmdline>
J2VwaWtfcHl0aG9uJywgJy1waCcsICc3LjAnLCAnLXRuJywgJzgnLCAnLW1hJywgJzIwMCcsICctbWV0YWxfYmluZGluZycsICctaW1hZScsICc8aW5maWxlLm1hZT4nLCAnLW9tYWUnLCAnPG91dGZpbGUubWFlPic=

> <r_epik_Ionization_Penalty>
0.000544611

> <r_epik_Ionization_Penalty_Charging>
0.000481685

> <r_epik_Ionization_Penalty_Neutral>
6.29266e-05

> <r_epik_State_Penalty>
0.00029893

> <r_epik_Charging_Adjusted_Penalty>
0.000780614

> <i_epik_Tot_Q>
-1

> <i_epik_Tot_abs_Q>
1

> <r_epik_Metal_State_Penalty>
-0

> <b_epik_Metal_Only>
0

> <s_lp_Force_Field>
OPLS_2005

> <r_lp_Energy>
7.32439

> <b_lp_Chiralities_Consistent>
1

> <s_lp_Variant>
AV-unprocessed.smi:2405-3

> <Gold.Version>
5.8.1

> <Gold.Id.Protein>
6NUR|6NUR_protein|mol2

> <Gold.PLP.Fitness>
40.5914

> <Gold.PLP.PLP>
-26.6113

> <Gold.PLP.part.hbond>
-3.1845

> <Gold.PLP.part.metal>
0.0000

> <Gold.PLP.part.buried>
-2.3642

> <Gold.PLP.part.nonpolar>
-20.8462

> <Gold.PLP.part.repulsive>
0.0180

> <Gold.PLP.ligand.clash>
0.0000

> <Gold.PLP.ligand.torsion>
0.5501

> <Gold.PLP.Chemscore.Hbond>
5.0000

> <Gold.PLP.Chemscore.CHOScore>
0.0000

> <Gold.PLP.Chemscore.Metal>
0.0000

> <Gold.Chemscore.Hbonds>
donor molecule, donor type, donor heavy atom, donor atom, acceptor molecule, acceptor atom, score
      P1  H  6896  6909       L1     8  0.85
      P1  H  6931  6943       L1    16  2.00
      P1  H  6934  6947       L1    15  2.00

> <Gold.PLP.Chemscore.Internal.Correction>
0.0802

> <Gold.Rescore>
     Score         DG    S(hbond)    S(metal)    S(lipo)     H(rot)  DE(clash)    DE(int)     intcor
     12.73     -16.12       2.65        0.00      60.47       2.06       0.15       3.24       ----

> <Gold.Chemscore.Fitness>
12.7315

> <Gold.Chemscore.DG>
-16.1213

> <Gold.Chemscore.ZeroCoef>
-5.4800

> <Gold.Chemscore.Hbond>
2.6495

> <Gold.Chemscore.Metal>
0.0000

> <Gold.Chemscore.Lipo>
60.4652

> <Gold.Chemscore.Internal_Hbond>
0.0000

> <Gold.Chemscore.DEClash>
0.1461

> <Gold.Chemscore.DEInternal>
3.2437

> <Gold.Chemscore.Rot>
2.0635

> <Gold.Chemscore.Internal.Correction>
   9.000000E+99

> <Gold.Chemscore.Hbonds>
donor molecule, donor type, donor heavy atom, donor atom, acceptor molecule, acceptor atom, score
      P1  H  6896  6909       L1     8  0.63
      P1  H  6931  6943       L1    16  0.30
      P1  H  6934  6947       L1    15  0.97

> <Gold.Chemscore.Hbond.Weighted>
-8.8493

> <Gold.Chemscore.Metal.Weighted>
-0.0000

> <Gold.Chemscore.Lipo.Weighted>
-7.0744

> <Gold.Chemscore.Internal_Hbond.Weighted>
0.0000

> <Gold.Chemscore.DEClash.Weighted>
0.1461

> <Gold.Chemscore.DEInternal.Weighted>
3.2437

> <Gold.Chemscore.Rot.Weighted>
5.2825

> <Gold.Chemscore.Internal.Correction.Weighted>
   9.000000E+99

> <Gold.Protein.RotatedTorsions>
[ 6907 6896 6895 6894 ] final    2.68 input  -60.11 | X-H torsion
[ 7974 7965 7964 7962 ] final -111.00 input  175.53 | X-H torsion
[ 8008 7997 7996 7995 ] final   20.47 input   59.86 | X-H torsion
[ 10167 10162 10161 10158 ] final -174.48 input  -65.29 | X-H torsion
[ 10718 10713 10712 10709 ] final -118.86 input   66.30 | X-H torsion
[ 10763 10752 10751 10750 ] final -111.29 input  -60.55 | X-H torsion
[ 11005 11000 10999 10996 ] final   -1.93 input  -57.11 | X-H torsion

> <Gold.Protein.ActiveResidues>
 VAL166  LYS551  ARG553  GLY616  TRP617  ASP618  TYR619  PRO620  LYS621  CYS622 
 ASP623  PHE694  ASN695  SER759  ASP760  ASP761  ALA762  ILE779  LEU786  VAL792 
 PHE793  MET794  SER795  GLU796  ALA797  LYS798  CYS799  TRP800  GLU811  SER814 

> <Gold.Protein.RotatedAtoms>
  151.6128  135.1039  160.0084 H   0  0  0  0  0  0  0  0  0  0  0  0  # atno 6907 bound_to 6896
  152.4199  133.7095  159.6481 H   0  0  0  0  0  0  0  0  0  0  0  0  # atno 6908 bound_to 6896
  150.8087  133.8389  159.3214 H   0  0  0  0  0  0  0  0  0  0  0  0  # atno 6909 bound_to 6896
  145.1614  140.8880  143.3588 H   0  0  0  0  0  0  0  0  0  0  0  0  # atno 7974 bound_to 7965
  154.9360  140.3047  155.5144 H   0  0  0  0  0  0  0  0  0  0  0  0  # atno 8008 bound_to 7997
  156.3000  140.2345  156.4362 H   0  0  0  0  0  0  0  0  0  0  0  0  # atno 8009 bound_to 7997
  154.8191  140.0424  157.1386 H   0  0  0  0  0  0  0  0  0  0  0  0  # atno 8010 bound_to 7997
  139.5631  144.1820  152.1271 H   0  0  0  0  0  0  0  0  0  0  0  0  # atno 10167 bound_to 10162
  156.1138  130.6270  150.9345 H   0  0  0  0  0  0  0  0  0  0  0  0  # atno 10718 bound_to 10713
  154.8292  135.4533  154.1016 H   0  0  0  0  0  0  0  0  0  0  0  0  # atno 10763 bound_to 10752
  153.2303  135.6905  153.7904 H   0  0  0  0  0  0  0  0  0  0  0  0  # atno 10764 bound_to 10752
  153.7289  135.3330  155.3258 H   0  0  0  0  0  0  0  0  0  0  0  0  # atno 10765 bound_to 10752
  140.6527  133.9390  155.8389 H   0  0  0  0  0  0  0  0  0  0  0  0  # atno 11005 bound_to 11000
  145.0327  139.3327  143.6016 LP  0  0  0  0  0  0  0  0  0  0  0  0  # atno 17320 bound_to 7965
  146.3482  139.9670  142.8710 LP  0  0  0  0  0  0  0  0  0  0  0  0  # atno 17321 bound_to 7965
  140.1338  144.5265  150.6786 LP  0  0  0  0  0  0  0  0  0  0  0  0  # atno 17342 bound_to 10162
  140.6913  143.2378  151.5123 LP  0  0  0  0  0  0  0  0  0  0  0  0  # atno 17343 bound_to 10162
  157.6320  131.0920  150.8422 LP  0  0  0  0  0  0  0  0  0  0  0  0  # atno 17370 bound_to 10713
  156.8528  130.5086  149.5310 LP  0  0  0  0  0  0  0  0  0  0  0  0  # atno 17371 bound_to 10713
  141.0524  134.0465  157.3766 LP  0  0  0  0  0  0  0  0  0  0  0  0  # atno 17394 bound_to 11000
  139.9040  135.0174  156.7401 LP  0  0  0  0  0  0  0  0  0  0  0  0  # atno 17395 bound_to 11000

$$$$
