AV-unprocessed.smi:2521|AV-procd|sdf|9916|dock7
  -GOLD-   2272013553D 1   1.00000     0.00000
 Structure written by MMmdl.
 36 37  0  0  0  0  0  0  0  0  1 V2000
  147.2004  128.5079  151.8924 C   0  0  0  0  0  0  0  0  0  0  0  0
  146.4582  129.6682  152.5714 C   0  0  0  0  0  0  0  0  0  0  0  0
  145.3222  130.2421  151.7120 C   0  0  0  0  0  0  0  0  0  0  0  0
  147.3948  130.7321  153.0530 C   0  0  0  0  0  0  0  0  0  0  0  0
  148.4339  130.4788  153.8603 N   0  0  0  0  0  0  0  0  0  0  0  0
  149.1547  131.6234  154.1692 N   0  0  0  0  0  0  0  0  0  0  0  0
  148.6370  132.7124  153.5852 C   0  0  0  0  0  0  0  0  0  0  0  0
  149.1747  134.0183  153.7328 N   0  0  0  0  0  0  0  0  0  0  0  0
  149.9919  134.4790  154.6961 C   0  0  0  0  0  0  0  0  0  0  0  0
  150.4259  133.8178  155.6396 O   0  0  0  0  0  0  0  0  0  0  0  0
  150.2903  135.7715  154.5012 N   0  0  0  0  0  0  0  0  0  0  0  0
  151.1680  136.5657  155.3544 C   0  0  0  0  0  0  0  0  0  0  0  0
  150.6961  138.0279  155.4659 C   0  0  1  0  0  0  0  0  0  0  0  0
  151.6680  138.9590  156.1639 C   0  0  0  0  0  0  0  0  0  0  0  0
  151.1784  140.3259  155.6976 C   0  0  0  0  0  0  0  0  0  0  0  0
  150.6605  140.1245  154.3859 O   0  0  0  0  0  0  0  0  0  0  0  0
  150.5283  138.7308  154.1192 C   0  0  0  0  0  0  0  0  0  0  0  0
  147.2124  132.4241  152.6016 S   0  0  0  0  0  0  0  0  0  0  0  0
  147.9398  128.0695  152.5634 H   0  0  0  0  0  0  0  0  0  0  0  0
  147.7214  128.8408  150.9942 H   0  0  0  0  0  0  0  0  0  0  0  0
  146.5091  127.7167  151.6008 H   0  0  0  0  0  0  0  0  0  0  0  0
  145.9859  129.2499  153.4610 H   0  0  0  0  0  0  0  0  0  0  0  0
  144.7649  131.0043  152.2572 H   0  0  0  0  0  0  0  0  0  0  0  0
  144.6177  129.4625  151.4210 H   0  0  0  0  0  0  0  0  0  0  0  0
  145.7068  130.6985  150.7994 H   0  0  0  0  0  0  0  0  0  0  0  0
  148.9079  134.6790  153.0181 H   0  0  0  0  0  0  0  0  0  0  0  0
  149.8893  136.2387  153.7012 H   0  0  0  0  0  0  0  0  0  0  0  0
  151.1887  136.1014  156.3407 H   0  0  0  0  0  0  0  0  0  0  0  0
  152.1906  136.5270  154.9755 H   0  0  0  0  0  0  0  0  0  0  0  0
  149.7408  138.0656  155.9925 H   0  0  0  0  0  0  0  0  0  0  0  0
  151.6602  138.8548  157.2492 H   0  0  0  0  0  0  0  0  0  0  0  0
  152.6851  138.7848  155.8096 H   0  0  0  0  0  0  0  0  0  0  0  0
  150.3699  140.6784  156.3393 H   0  0  0  0  0  0  0  0  0  0  0  0
  151.9688  141.0768  155.7047 H   0  0  0  0  0  0  0  0  0  0  0  0
  151.3204  138.4396  153.4280 H   0  0  0  0  0  0  0  0  0  0  0  0
  149.5710  138.5050  153.6487 H   0  0  0  0  0  0  0  0  0  0  0  0
  1  2  1  0  0  0  0
  1 19  1  0  0  0  0
  1 20  1  0  0  0  0
  1 21  1  0  0  0  0
  2  3  1  0  0  0  0
  2  4  1  0  0  0  0
  2 22  1  0  0  0  0
  3 23  1  0  0  0  0
  3 24  1  0  0  0  0
  3 25  1  0  0  0  0
  4 18  1  0  0  0  0
  4  5  2  0  0  0  0
  5  6  1  0  0  0  0
  6  7  2  0  0  0  0
  7  8  1  0  0  0  0
  7 18  1  0  0  0  0
  8  9  1  0  0  0  0
  8 26  1  0  0  0  0
  9 10  2  0  0  0  0
  9 11  1  0  0  0  0
 11 12  1  0  0  0  0
 11 27  1  0  0  0  0
 12 13  1  0  0  0  0
 12 28  1  0  0  0  0
 12 29  1  0  0  0  0
 13 17  1  0  0  0  0
 13 14  1  0  0  0  0
 13 30  1  0  0  0  0
 14 15  1  0  0  0  0
 14 31  1  0  0  0  0
 14 32  1  0  0  0  0
 15 16  1  0  0  0  0
 15 33  1  0  0  0  0
 15 34  1  0  0  0  0
 16 17  1  0  0  0  0
 17 35  1  0  0  0  0
 17 36  1  0  0  0  0
M  END
> <s_m_source_file>
AV-unprocessed.smi

> <i_m_source_file_index>
2521

> <i_lp_mmshare_version>
43012

> <i_f3d_flags>
0

> <s_epik_input>
W0NIM11bQ0hdKFtDSDNdKWMxbm5jKHMxKVtOSF1DKD1PKVtOSF1bQ0gyXVtDQEBIXTJbQ0gyXVtDSDJdT1tDSDJdMg==

> <s_epik_cmdline>
J2VwaWtfcHl0aG9uJywgJy1waCcsICc3LjAnLCAnLXRuJywgJzgnLCAnLW1hJywgJzIwMCcsICctbWV0YWxfYmluZGluZycsICctaW1hZScsICc8aW5maWxlLm1hZT4nLCAnLW9tYWUnLCAnPG91dGZpbGUubWFlPic=

> <r_lp_tautomer_probability>
1

> <r_epik_Ionization_Penalty>
0.000452582

> <r_epik_Ionization_Penalty_Charging>
0

> <r_epik_Ionization_Penalty_Neutral>
0.000452582

> <r_epik_State_Penalty>
-0

> <r_epik_Charging_Adjusted_Penalty>
0

> <i_epik_Tot_Q>
0

> <i_epik_Tot_abs_Q>
0

> <r_epik_Metal_State_Penalty>
0.207746

> <b_epik_Metal_Only>
0

> <s_lp_Force_Field>
OPLS_2005

> <r_lp_Energy>
10.682

> <b_lp_Chiralities_Consistent>
1

> <s_lp_Variant>
AV-unprocessed.smi:2521-2

> <Gold.Version>
5.8.1

> <Gold.Id.Protein>
6NUR|6NUR_protein|mol2

> <Gold.PLP.Fitness>
40.0612

> <Gold.PLP.PLP>
-32.0926

> <Gold.PLP.part.hbond>
-3.3702

> <Gold.PLP.part.metal>
0.0000

> <Gold.PLP.part.buried>
-4.4533

> <Gold.PLP.part.nonpolar>
-25.1081

> <Gold.PLP.part.repulsive>
0.3169

> <Gold.PLP.ligand.clash>
0.0000

> <Gold.PLP.ligand.torsion>
0.3307

> <Gold.PLP.Chemscore.Hbond>
2.8500

> <Gold.PLP.Chemscore.CHOScore>
0.0000

> <Gold.PLP.Chemscore.Metal>
0.0000

> <Gold.Chemscore.Hbonds>
donor molecule, donor type, donor heavy atom, donor atom, acceptor molecule, acceptor atom, score
      L1  H     8    26       P1  7948  0.70
      L1  H    11    27       P1  7948  0.90
      P1  H  7989  7998       L1    16  0.94

> <Gold.PLP.Chemscore.Internal.Correction>
0.0801

> <Gold.Rescore>
     Score         DG    S(hbond)    S(metal)    S(lipo)     H(rot)  DE(clash)    DE(int)     intcor
     12.68     -14.21       1.29        0.00      69.53       1.45       0.00       1.52       ----

> <Gold.Chemscore.Fitness>
12.6848

> <Gold.Chemscore.DG>
-14.2060

> <Gold.Chemscore.ZeroCoef>
-5.4800

> <Gold.Chemscore.Hbond>
1.2854

> <Gold.Chemscore.Metal>
0.0000

> <Gold.Chemscore.Lipo>
69.5275

> <Gold.Chemscore.Internal_Hbond>
0.0000

> <Gold.Chemscore.DEClash>
0.0015

> <Gold.Chemscore.DEInternal>
1.5196

> <Gold.Chemscore.Rot>
1.4461

> <Gold.Chemscore.Internal.Correction>
   9.000000E+99

> <Gold.Chemscore.Hbonds>
donor molecule, donor type, donor heavy atom, donor atom, acceptor molecule, acceptor atom, score
      L1  H     8    26       P1  7948  0.07
      L1  H    11    27       P1  7948  0.16
      P1  H  7989  7998       L1    16  0.36

> <Gold.Chemscore.Hbond.Weighted>
-4.2932

> <Gold.Chemscore.Metal.Weighted>
-0.0000

> <Gold.Chemscore.Lipo.Weighted>
-8.1347

> <Gold.Chemscore.Internal_Hbond.Weighted>
0.0000

> <Gold.Chemscore.DEClash.Weighted>
0.0015

> <Gold.Chemscore.DEInternal.Weighted>
1.5196

> <Gold.Chemscore.Rot.Weighted>
3.7019

> <Gold.Chemscore.Internal.Correction.Weighted>
   9.000000E+99

> <Gold.Protein.RotatedTorsions>
[ 6907 6896 6895 6894 ] final   12.48 input  -60.11 | X-H torsion
[ 7974 7965 7964 7962 ] final   21.87 input  175.53 | X-H torsion
[ 8008 7997 7996 7995 ] final   26.48 input   59.86 | X-H torsion
[ 10167 10162 10161 10158 ] final -118.01 input  -65.29 | X-H torsion
[ 10718 10713 10712 10709 ] final  118.72 input   66.30 | X-H torsion
[ 10763 10752 10751 10750 ] final   66.36 input  -60.55 | X-H torsion
[ 11005 11000 10999 10996 ] final -159.79 input  -57.11 | X-H torsion

> <Gold.Protein.ActiveResidues>
 VAL166  LYS551  ARG553  GLY616  TRP617  ASP618  TYR619  PRO620  LYS621  CYS622 
 ASP623  PHE694  ASN695  SER759  ASP760  ASP761  ALA762  ILE779  LEU786  VAL792 
 PHE793  MET794  SER795  GLU796  ALA797  LYS798  CYS799  TRP800  GLU811  SER814 

> <Gold.Protein.RotatedAtoms>
  151.7710  135.0786  160.0359 H   0  0  0  0  0  0  0  0  0  0  0  0  # atno 6907 bound_to 6896
  152.3289  133.5931  159.5804 H   0  0  0  0  0  0  0  0  0  0  0  0  # atno 6908 bound_to 6896
  150.7411  133.9815  159.3619 H   0  0  0  0  0  0  0  0  0  0  0  0  # atno 6909 bound_to 6896
  146.2053  139.7966  142.8730 H   0  0  0  0  0  0  0  0  0  0  0  0  # atno 7974 bound_to 7965
  155.0280  140.3155  155.4769 H   0  0  0  0  0  0  0  0  0  0  0  0  # atno 8008 bound_to 7997
  156.2879  140.2185  156.5343 H   0  0  0  0  0  0  0  0  0  0  0  0  # atno 8009 bound_to 7997
  154.7395  140.0475  157.0786 H   0  0  0  0  0  0  0  0  0  0  0  0  # atno 8010 bound_to 7997
  140.0621  143.4957  152.2026 H   0  0  0  0  0  0  0  0  0  0  0  0  # atno 10167 bound_to 10162
  157.6011  131.1051  150.7796 H   0  0  0  0  0  0  0  0  0  0  0  0  # atno 10718 bound_to 10713
  153.0136  135.5323  154.6812 H   0  0  0  0  0  0  0  0  0  0  0  0  # atno 10763 bound_to 10752
  154.5971  135.2864  155.0577 H   0  0  0  0  0  0  0  0  0  0  0  0  # atno 10764 bound_to 10752
  154.1648  135.6542  153.5047 H   0  0  0  0  0  0  0  0  0  0  0  0  # atno 10765 bound_to 10752
  140.6387  134.4574  157.5232 H   0  0  0  0  0  0  0  0  0  0  0  0  # atno 11005 bound_to 11000
  145.3341  141.0273  143.3429 LP  0  0  0  0  0  0  0  0  0  0  0  0  # atno 17320 bound_to 7965
  144.8778  139.4947  143.6737 LP  0  0  0  0  0  0  0  0  0  0  0  0  # atno 17321 bound_to 7965
  139.5887  144.7541  151.3455 LP  0  0  0  0  0  0  0  0  0  0  0  0  # atno 17342 bound_to 10162
  140.7166  143.7248  150.7668 LP  0  0  0  0  0  0  0  0  0  0  0  0  # atno 17343 bound_to 10162
  156.8195  130.4979  149.5345 LP  0  0  0  0  0  0  0  0  0  0  0  0  # atno 17370 bound_to 10713
  156.1084  130.6022  151.0008 LP  0  0  0  0  0  0  0  0  0  0  0  0  # atno 17371 bound_to 10713
  139.9088  134.8390  156.1604 LP  0  0  0  0  0  0  0  0  0  0  0  0  # atno 17394 bound_to 11000
  141.0622  133.6836  156.1975 LP  0  0  0  0  0  0  0  0  0  0  0  0  # atno 17395 bound_to 11000

$$$$
