AV-unprocessed.smi:3291|AV-procd|sdf|12619|dock2
  -GOLD-   2272018553D 1   1.00000     0.00000
 Structure written by MMmdl.
 43 45  0  0  0  0  0  0  0  0  2 V2000
  153.8528  140.9321  160.1259 C   0  0  0  0  0  0  0  0  0  0  0  0
  153.2067  142.2031  160.5989 C   0  0  0  0  0  0  0  0  0  0  0  0
  153.2744  142.5288  161.8777 N   0  0  0  0  0  0  0  0  0  0  0  0
  152.5945  143.7429  161.9983 O   0  0  0  0  0  0  0  0  0  0  0  0
  152.1384  144.1073  160.7734 C   0  0  0  0  0  0  0  0  0  0  0  0
  151.3810  145.3924  160.7151 C   0  0  0  0  0  0  0  0  0  0  0  0
  152.4890  143.1700  159.8354 C   0  0  0  0  0  0  0  0  0  0  0  0
  152.2119  143.1278  158.3490 C   0  0  2  0  0  0  0  0  0  0  0  0
  152.4687  144.5099  157.7232 C   0  0  0  0  0  0  0  0  0  0  0  0
  150.7876  142.6142  158.0638 C   0  0  0  0  0  0  0  0  0  0  0  0
  150.5364  142.4695  156.6144 N   0  3  0  0  0  0  0  0  0  0  0  0
  149.8935  141.2000  156.2119 C   0  0  0  0  0  0  0  0  0  0  0  0
  150.9120  140.0789  156.3129 C   0  0  0  0  0  0  0  0  0  0  0  0
  152.1222  140.0381  155.4081 C   0  0  0  0  0  0  0  0  0  0  0  0
  151.0187  139.0214  155.2388 C   0  0  0  0  0  0  0  0  0  0  0  0
  149.3379  141.3024  154.7990 C   0  0  0  0  0  0  0  0  0  0  0  0
  147.8851  141.6368  154.5435 C   0  0  0  0  0  0  0  0  0  0  0  0
  148.4005  140.2495  154.2514 C   0  0  0  0  0  0  0  0  0  0  0  0
  154.6249  141.1411  159.3854 H   0  0  0  0  0  0  0  0  0  0  0  0
  153.1194  140.2709  159.6641 H   0  0  0  0  0  0  0  0  0  0  0  0
  154.3203  140.3848  160.9455 H   0  0  0  0  0  0  0  0  0  0  0  0
  151.6546  145.9714  159.8338 H   0  0  0  0  0  0  0  0  0  0  0  0
  151.5853  146.0067  161.5926 H   0  0  0  0  0  0  0  0  0  0  0  0
  150.3077  145.2060  160.6799 H   0  0  0  0  0  0  0  0  0  0  0  0
  152.9043  142.4299  157.8766 H   0  0  0  0  0  0  0  0  0  0  0  0
  153.4891  144.8418  157.9189 H   0  0  0  0  0  0  0  0  0  0  0  0
  151.7934  145.2658  158.1234 H   0  0  0  0  0  0  0  0  0  0  0  0
  152.3378  144.4913  156.6411 H   0  0  0  0  0  0  0  0  0  0  0  0
  150.6450  141.6415  158.5371 H   0  0  0  0  0  0  0  0  0  0  0  0
  150.0522  143.2923  158.4940 H   0  0  0  0  0  0  0  0  0  0  0  0
  149.9616  143.2383  156.3003 H   0  0  0  0  0  0  0  0  0  0  0  0
  149.0767  140.9811  156.9019 H   0  0  0  0  0  0  0  0  0  0  0  0
  151.0832  139.7368  157.3323 H   0  0  0  0  0  0  0  0  0  0  0  0
  152.2151  140.8006  154.6374 H   0  0  0  0  0  0  0  0  0  0  0  0
  153.0602  139.6967  155.8409 H   0  0  0  0  0  0  0  0  0  0  0  0
  151.2234  138.0010  155.5564 H   0  0  0  0  0  0  0  0  0  0  0  0
  150.3796  139.1177  154.3633 H   0  0  0  0  0  0  0  0  0  0  0  0
  150.0524  141.6996  154.0797 H   0  0  0  0  0  0  0  0  0  0  0  0
  147.2310  141.7567  155.4051 H   0  0  0  0  0  0  0  0  0  0  0  0
  147.6612  142.2815  153.6960 H   0  0  0  0  0  0  0  0  0  0  0  0
  148.5193  139.9662  153.2076 H   0  0  0  0  0  0  0  0  0  0  0  0
  148.0770  139.4515  154.9162 H   0  0  0  0  0  0  0  0  0  0  0  0
  151.4292  142.5255  156.1457 H   0  0  0  0  0  0  0  0  0  0  0  0
  1  2  1  0  0  0  0
  1 19  1  0  0  0  0
  1 20  1  0  0  0  0
  1 21  1  0  0  0  0
  2  7  1  0  0  0  0
  2  3  2  0  0  0  0
  3  4  1  0  0  0  0
  4  5  1  0  0  0  0
  5  6  1  0  0  0  0
  5  7  2  0  0  0  0
  6 22  1  0  0  0  0
  6 23  1  0  0  0  0
  6 24  1  0  0  0  0
  7  8  1  0  0  0  0
  8  9  1  0  0  0  0
  8 10  1  0  0  0  0
  8 25  1  0  0  0  0
  9 26  1  0  0  0  0
  9 27  1  0  0  0  0
  9 28  1  0  0  0  0
 10 11  1  0  0  0  0
 10 29  1  0  0  0  0
 10 30  1  0  0  0  0
 11 12  1  0  0  0  0
 11 31  1  0  0  0  0
 11 43  1  0  0  0  0
 12 13  1  0  0  0  0
 12 16  1  0  0  0  0
 12 32  1  0  0  0  0
 13 15  1  0  0  0  0
 13 14  1  0  0  0  0
 13 33  1  0  0  0  0
 14 15  1  0  0  0  0
 14 34  1  0  0  0  0
 14 35  1  0  0  0  0
 15 36  1  0  0  0  0
 15 37  1  0  0  0  0
 16 18  1  0  0  0  0
 16 17  1  0  0  0  0
 16 38  1  0  0  0  0
 17 18  1  0  0  0  0
 17 39  1  0  0  0  0
 17 40  1  0  0  0  0
 18 41  1  0  0  0  0
 18 42  1  0  0  0  0
M  CHG  1  11   1
M  END
> <s_m_source_file>
AV-unprocessed.smi

> <i_m_source_file_index>
3291

> <i_lp_mmshare_version>
43012

> <i_f3d_flags>
0

> <s_epik_input>
W0NIM11jMW5vYyhbQ0gzXSljMVtDQEhdKFtDSDNdKVtDSDJdW05IXVtDSF0oW0NIXTJbQ0gyXVtDSDJdMilbQ0hdM1tDSDJdW0NIMl0z

> <s_epik_cmdline>
J2VwaWtfcHl0aG9uJywgJy1waCcsICc3LjAnLCAnLXRuJywgJzgnLCAnLW1hJywgJzIwMCcsICctbWV0YWxfYmluZGluZycsICctaW1hZScsICc8aW5maWxlLm1hZT4nLCAnLW9tYWUnLCAnPG91dGZpbGUubWFlPic=

> <r_lp_tautomer_probability>
1

> <r_epik_Ionization_Penalty>
0.000158108

> <r_epik_Ionization_Penalty_Charging>
0.000158108

> <r_epik_Ionization_Penalty_Neutral>
1.14678e-10

> <r_epik_State_Penalty>
-0

> <r_epik_Charging_Adjusted_Penalty>
0.000158108

> <i_epik_Tot_Q>
1

> <i_epik_Tot_abs_Q>
1

> <r_epik_Metal_State_Penalty>
-0

> <b_epik_Metal_Only>
0

> <s_lp_Force_Field>
OPLS_2005

> <r_lp_Energy>
25.2548

> <b_lp_Chiralities_Consistent>
1

> <s_lp_Variant>
AV-unprocessed.smi:3291-1

> <Gold.Version>
5.8.1

> <Gold.Id.Protein>
6NUR|6NUR_protein|mol2

> <Gold.PLP.Fitness>
49.3671

> <Gold.PLP.PLP>
-45.4145

> <Gold.PLP.part.hbond>
-1.0000

> <Gold.PLP.part.metal>
0.0000

> <Gold.PLP.part.buried>
-1.2458

> <Gold.PLP.part.nonpolar>
-42.4422

> <Gold.PLP.part.repulsive>
0.2966

> <Gold.PLP.ligand.clash>
0.0000

> <Gold.PLP.ligand.torsion>
2.1402

> <Gold.PLP.Chemscore.Hbond>
2.0000

> <Gold.PLP.Chemscore.CHOScore>
0.0000

> <Gold.PLP.Chemscore.Metal>
0.0000

> <Gold.Chemscore.Hbonds>
donor molecule, donor type, donor heavy atom, donor atom, acceptor molecule, acceptor atom, score
      L1  H    11    31       P1  8028  2.00

> <Gold.PLP.Chemscore.Internal.Correction>
2.2329

> <Gold.Rescore>
     Score         DG    S(hbond)    S(metal)    S(lipo)     H(rot)  DE(clash)    DE(int)     intcor
     19.00     -20.97       0.98        0.00     137.22       1.50       0.42       1.56       ----

> <Gold.Chemscore.Fitness>
18.9975

> <Gold.Chemscore.DG>
-20.9729

> <Gold.Chemscore.ZeroCoef>
-5.4800

> <Gold.Chemscore.Hbond>
0.9827

> <Gold.Chemscore.Metal>
0.0000

> <Gold.Chemscore.Lipo>
137.2177

> <Gold.Chemscore.Internal_Hbond>
0.0000

> <Gold.Chemscore.DEClash>
0.4151

> <Gold.Chemscore.DEInternal>
1.5604

> <Gold.Chemscore.Rot>
1.5015

> <Gold.Chemscore.Internal.Correction>
   9.000000E+99

> <Gold.Chemscore.Hbonds>
donor molecule, donor type, donor heavy atom, donor atom, acceptor molecule, acceptor atom, score
      L1  H    11    31       P1  8028  0.99

> <Gold.Chemscore.Hbond.Weighted>
-3.2823

> <Gold.Chemscore.Metal.Weighted>
-0.0000

> <Gold.Chemscore.Lipo.Weighted>
-16.0545

> <Gold.Chemscore.Internal_Hbond.Weighted>
0.0000

> <Gold.Chemscore.DEClash.Weighted>
0.4151

> <Gold.Chemscore.DEInternal.Weighted>
1.5604

> <Gold.Chemscore.Rot.Weighted>
3.8438

> <Gold.Chemscore.Internal.Correction.Weighted>
   9.000000E+99

> <Gold.Protein.RotatedTorsions>
[ 6907 6896 6895 6894 ] final   19.15 input  -60.11 | X-H torsion
[ 7974 7965 7964 7962 ] final  -45.10 input  175.53 | X-H torsion
[ 8008 7997 7996 7995 ] final   -7.46 input   59.86 | X-H torsion
[ 10167 10162 10161 10158 ] final  120.72 input  -65.29 | X-H torsion
[ 10718 10713 10712 10709 ] final   20.26 input   66.30 | X-H torsion
[ 10763 10752 10751 10750 ] final   12.63 input  -60.55 | X-H torsion
[ 11005 11000 10999 10996 ] final   88.07 input  -57.11 | X-H torsion

> <Gold.Protein.ActiveResidues>
 VAL166  LYS551  ARG553  GLY616  TRP617  ASP618  TYR619  PRO620  LYS621  CYS622 
 ASP623  PHE694  ASN695  SER759  ASP760  ASP761  ALA762  ILE779  LEU786  VAL792 
 PHE793  MET794  SER795  GLU796  ALA797  LYS798  CYS799  TRP800  GLU811  SER814 

> <Gold.Protein.RotatedAtoms>
  151.8763  135.0470  160.0484 H   0  0  0  0  0  0  0  0  0  0  0  0  # atno 6907 bound_to 6896
  152.2548  133.5241  159.5355 H   0  0  0  0  0  0  0  0  0  0  0  0  # atno 6908 bound_to 6896
  150.7096  134.0827  159.3946 H   0  0  0  0  0  0  0  0  0  0  0  0  # atno 6909 bound_to 6896
  145.9854  140.7238  142.9343 H   0  0  0  0  0  0  0  0  0  0  0  0  # atno 7974 bound_to 7965
  154.5836  140.2406  155.8019 H   0  0  0  0  0  0  0  0  0  0  0  0  # atno 8008 bound_to 7997
  156.2197  140.3001  155.9878 H   0  0  0  0  0  0  0  0  0  0  0  0  # atno 8009 bound_to 7997
  155.2498  140.0410  157.2976 H   0  0  0  0  0  0  0  0  0  0  0  0  # atno 8010 bound_to 7997
  139.5964  144.7043  151.3165 H   0  0  0  0  0  0  0  0  0  0  0  0  # atno 10167 bound_to 10162
  157.1220  130.6553  149.5926 H   0  0  0  0  0  0  0  0  0  0  0  0  # atno 10718 bound_to 10713
  153.1803  135.6826  153.8488 H   0  0  0  0  0  0  0  0  0  0  0  0  # atno 10763 bound_to 10752
  153.7822  135.3181  155.3368 H   0  0  0  0  0  0  0  0  0  0  0  0  # atno 10764 bound_to 10752
  154.8055  135.4751  154.0476 H   0  0  0  0  0  0  0  0  0  0  0  0  # atno 10765 bound_to 10752
  139.8905  134.8463  156.2948 H   0  0  0  0  0  0  0  0  0  0  0  0  # atno 11005 bound_to 11000
  144.6873  140.2980  143.7268 LP  0  0  0  0  0  0  0  0  0  0  0  0  # atno 17320 bound_to 7965
  145.7708  139.1856  143.2213 LP  0  0  0  0  0  0  0  0  0  0  0  0  # atno 17321 bound_to 7965
  140.7215  143.7121  150.7761 LP  0  0  0  0  0  0  0  0  0  0  0  0  # atno 17342 bound_to 10162
  140.0688  143.5081  152.2590 LP  0  0  0  0  0  0  0  0  0  0  0  0  # atno 17343 bound_to 10162
  155.9826  130.4841  150.6892 LP  0  0  0  0  0  0  0  0  0  0  0  0  # atno 17370 bound_to 10713
  157.4468  131.0868  151.0887 LP  0  0  0  0  0  0  0  0  0  0  0  0  # atno 17371 bound_to 10713
  140.9952  133.7184  156.0875 LP  0  0  0  0  0  0  0  0  0  0  0  0  # atno 17394 bound_to 11000
  140.7572  134.3980  157.5532 LP  0  0  0  0  0  0  0  0  0  0  0  0  # atno 17395 bound_to 11000

$$$$
