AV-unprocessed.smi:1546|AV-procd|sdf|6218|dock6
  -GOLD-   22720 6393D 1   1.00000     0.00000
 Structure written by MMmdl.
 30 31  0  0  0  0  0  0  0  0  1 V2000
  151.5838  140.2172  155.3856 O   0  0  0  0  0  0  0  0  0  0  0  0
  150.9954  140.6976  156.3542 C   0  0  0  0  0  0  0  0  0  0  0  0
  151.7235  140.8517  157.6909 C   0  0  0  0  0  0  0  0  0  0  0  0
  151.7335  142.2173  158.0778 O   0  0  0  0  0  0  0  0  0  0  0  0
  152.4638  142.4393  159.2715 C   0  0  0  0  0  0  0  0  0  0  0  0
  152.4892  143.9239  159.5649 C   0  0  0  0  0  0  0  0  0  0  0  0
  151.2024  144.7170  159.5960 C   0  0  0  0  0  0  0  0  0  0  0  0
  152.1907  144.9320  158.4783 C   0  0  0  0  0  0  0  0  0  0  0  0
  149.7166  141.1220  156.3567 N   0  0  0  0  0  0  0  0  0  0  0  0
  148.7701  141.1248  155.3183 C   0  0  0  0  0  0  0  0  0  0  0  0
  148.9763  140.6848  154.0501 C   0  0  0  0  0  0  0  0  0  0  0  0
  148.0064  140.7066  153.0574 N   0  0  0  0  0  0  0  0  0  0  0  0
  146.7495  141.2059  153.3582 C   0  0  0  0  0  0  0  0  0  0  0  0
  146.4135  141.6719  154.5769 C   0  0  0  0  0  0  0  0  0  0  0  0
  147.4213  141.6587  155.6609 C   0  0  0  0  0  0  0  0  0  0  0  0
  147.1454  142.0717  156.7873 O   0  0  0  0  0  0  0  0  0  0  0  0
  151.2201  140.2505  158.4502 H   0  0  0  0  0  0  0  0  0  0  0  0
  152.7436  140.4791  157.5865 H   0  0  0  0  0  0  0  0  0  0  0  0
  152.0094  141.9040  160.1070 H   0  0  0  0  0  0  0  0  0  0  0  0
  153.4887  142.0827  159.1605 H   0  0  0  0  0  0  0  0  0  0  0  0
  153.2386  144.2137  160.2991 H   0  0  0  0  0  0  0  0  0  0  0  0
  150.2782  144.1958  159.3542 H   0  0  0  0  0  0  0  0  0  0  0  0
  151.1135  145.5003  160.3461 H   0  0  0  0  0  0  0  0  0  0  0  0
  152.7627  145.8577  158.4824 H   0  0  0  0  0  0  0  0  0  0  0  0
  151.9242  144.5535  157.4934 H   0  0  0  0  0  0  0  0  0  0  0  0
  149.3787  141.5044  157.2283 H   0  0  0  0  0  0  0  0  0  0  0  0
  149.9077  140.2752  153.6950 H   0  0  0  0  0  0  0  0  0  0  0  0
  146.0576  141.1910  152.5290 H   0  0  0  0  0  0  0  0  0  0  0  0
  145.4249  142.0562  154.7814 H   0  0  0  0  0  0  0  0  0  0  0  0
  148.2147  140.3635  152.1302 H   0  0  0  0  0  0  0  0  0  0  0  0
  1  2  2  0  0  0  0
  2  3  1  0  0  0  0
  2  9  1  0  0  0  0
  3  4  1  0  0  0  0
  3 17  1  0  0  0  0
  3 18  1  0  0  0  0
  4  5  1  0  0  0  0
  5  6  1  0  0  0  0
  5 19  1  0  0  0  0
  5 20  1  0  0  0  0
  6  8  1  0  0  0  0
  6  7  1  0  0  0  0
  6 21  1  0  0  0  0
  7  8  1  0  0  0  0
  7 22  1  0  0  0  0
  7 23  1  0  0  0  0
  8 24  1  0  0  0  0
  8 25  1  0  0  0  0
  9 26  1  0  0  0  0
  9 10  1  0  0  0  0
 10 15  1  0  0  0  0
 10 11  2  0  0  0  0
 11 27  1  0  0  0  0
 11 12  1  0  0  0  0
 12 30  1  0  0  0  0
 12 13  1  0  0  0  0
 13 28  1  0  0  0  0
 13 14  2  0  0  0  0
 14 15  1  0  0  0  0
 14 29  1  0  0  0  0
 15 16  2  0  0  0  0
M  END
> <s_m_source_file>
AV-unprocessed.smi

> <i_m_source_file_index>
1546

> <i_lp_mmshare_version>
43012

> <i_f3d_flags>
0

> <s_epik_input>
W0NIMl0xW0NIMl1bQ0hdMVtDSDJdT1tDSDJdQyg9TylbTkhdYzJbY0hdbltjSF1bY0hdYzJbT0hd

> <s_epik_cmdline>
J2VwaWtfcHl0aG9uJywgJy1waCcsICc3LjAnLCAnLXRuJywgJzgnLCAnLW1hJywgJzIwMCcsICctbWV0YWxfYmluZGluZycsICctaW1hZScsICc8aW5maWxlLm1hZT4nLCAnLW9tYWUnLCAnPG91dGZpbGUubWFlPic=

> <r_lp_tautomer_probability>
1

> <r_epik_Ionization_Penalty>
0.000226134

> <r_epik_Ionization_Penalty_Charging>
0.000226086

> <r_epik_Ionization_Penalty_Neutral>
4.85517e-08

> <r_epik_State_Penalty>
-0

> <r_epik_Charging_Adjusted_Penalty>
0.000226086

> <i_epik_Tot_Q>
0

> <i_epik_Tot_abs_Q>
0

> <r_epik_Metal_State_Penalty>
0.0890487

> <b_epik_Metal_Only>
0

> <s_lp_Force_Field>
OPLS_2005

> <r_lp_Energy>
13.4663

> <b_lp_Chiralities_Consistent>
1

> <s_lp_Variant>
AV-unprocessed.smi:1546-1

> <Gold.Version>
5.8.1

> <Gold.Id.Protein>
6NUR|6NUR_protein|mol2

> <Gold.PLP.Fitness>
42.6937

> <Gold.PLP.PLP>
-34.3916

> <Gold.PLP.part.hbond>
-2.0000

> <Gold.PLP.part.metal>
0.0000

> <Gold.PLP.part.buried>
-3.0133

> <Gold.PLP.part.nonpolar>
-28.9795

> <Gold.PLP.part.repulsive>
0.3739

> <Gold.PLP.ligand.clash>
0.0000

> <Gold.PLP.ligand.torsion>
0.3141

> <Gold.PLP.Chemscore.Hbond>
1.6960

> <Gold.PLP.Chemscore.CHOScore>
1.0940

> <Gold.PLP.Chemscore.Metal>
0.0000

> <Gold.Chemscore.Hbonds>
donor molecule, donor type, donor heavy atom, donor atom, acceptor molecule, acceptor atom, score
      L1  H    12    30       P1  7957  0.78
      P1  H  7989  7998       L1     1  0.93
      L1  C    11    27       P1  7957  0.47
      L1  C    13    28       P1 10175  0.61

> <Gold.PLP.Chemscore.Internal.Correction>
0.5602

> <Gold.Rescore>
     Score         DG    S(hbond)    S(metal)    S(lipo)     H(rot)  DE(clash)    DE(int)     intcor
     14.73     -16.33       1.66        0.00      83.88       1.75       0.16       1.45       ----

> <Gold.Chemscore.Fitness>
14.7326

> <Gold.Chemscore.DG>
-16.3341

> <Gold.Chemscore.ZeroCoef>
-5.4800

> <Gold.Chemscore.Hbond>
1.6558

> <Gold.Chemscore.Metal>
0.0000

> <Gold.Chemscore.Lipo>
83.8782

> <Gold.Chemscore.Internal_Hbond>
0.0000

> <Gold.Chemscore.DEClash>
0.1554

> <Gold.Chemscore.DEInternal>
1.4461

> <Gold.Chemscore.Rot>
1.7540

> <Gold.Chemscore.Internal.Correction>
   9.000000E+99

> <Gold.Chemscore.Hbonds>
donor molecule, donor type, donor heavy atom, donor atom, acceptor molecule, acceptor atom, score
      L1  H    12    30       P1  7957  0.78
      P1  H  7989  7998       L1     1  0.87

> <Gold.Chemscore.Hbond.Weighted>
-5.5305

> <Gold.Chemscore.Metal.Weighted>
-0.0000

> <Gold.Chemscore.Lipo.Weighted>
-9.8137

> <Gold.Chemscore.Internal_Hbond.Weighted>
0.0000

> <Gold.Chemscore.DEClash.Weighted>
0.1554

> <Gold.Chemscore.DEInternal.Weighted>
1.4461

> <Gold.Chemscore.Rot.Weighted>
4.4901

> <Gold.Chemscore.Internal.Correction.Weighted>
   9.000000E+99

> <Gold.Protein.RotatedTorsions>
[ 6907 6896 6895 6894 ] final  -43.20 input  -60.11 | X-H torsion
[ 7974 7965 7964 7962 ] final   47.37 input  175.53 | X-H torsion
[ 8008 7997 7996 7995 ] final -161.23 input   59.86 | X-H torsion
[ 10167 10162 10161 10158 ] final  147.81 input  -65.29 | X-H torsion
[ 10718 10713 10712 10709 ] final  130.74 input   66.30 | X-H torsion
[ 10763 10752 10751 10750 ] final   95.88 input  -60.55 | X-H torsion
[ 11005 11000 10999 10996 ] final  120.91 input  -57.11 | X-H torsion

> <Gold.Protein.ActiveResidues>
 VAL166  LYS551  ARG553  GLY616  TRP617  ASP618  TYR619  PRO620  LYS621  CYS622 
 ASP623  PHE694  ASN695  SER759  ASP760  ASP761  ALA762  ILE779  LEU786  VAL792 
 PHE793  MET794  SER795  GLU796  ALA797  LYS798  CYS799  TRP800  GLU811  SER814 

> <Gold.Protein.RotatedAtoms>
  150.9466  134.8871  159.7645 H   0  0  0  0  0  0  0  0  0  0  0  0  # atno 6907 bound_to 6896
  152.5102  134.3865  159.9379 H   0  0  0  0  0  0  0  0  0  0  0  0  # atno 6908 bound_to 6896
  151.3883  133.3757  159.2753 H   0  0  0  0  0  0  0  0  0  0  0  0  # atno 6909 bound_to 6896
  146.0304  139.4757  142.9841 H   0  0  0  0  0  0  0  0  0  0  0  0  # atno 7974 bound_to 7965
  155.7891  140.0875  157.2019 H   0  0  0  0  0  0  0  0  0  0  0  0  # atno 8008 bound_to 7997
  154.3986  140.1493  156.3199 H   0  0  0  0  0  0  0  0  0  0  0  0  # atno 8009 bound_to 7997
  155.8577  140.3431  155.5738 H   0  0  0  0  0  0  0  0  0  0  0  0  # atno 8010 bound_to 7997
  139.4884  144.5727  151.7024 H   0  0  0  0  0  0  0  0  0  0  0  0  # atno 10167 bound_to 10162
  157.5034  131.1095  150.9395 H   0  0  0  0  0  0  0  0  0  0  0  0  # atno 10718 bound_to 10713
  153.2583  135.4238  155.0868 H   0  0  0  0  0  0  0  0  0  0  0  0  # atno 10763 bound_to 10752
  154.8410  135.3443  154.6413 H   0  0  0  0  0  0  0  0  0  0  0  0  # atno 10764 bound_to 10752
  153.6834  135.7037  153.5168 H   0  0  0  0  0  0  0  0  0  0  0  0  # atno 10765 bound_to 10752
  139.9204  134.9637  156.7878 H   0  0  0  0  0  0  0  0  0  0  0  0  # atno 11005 bound_to 11000
  145.7049  141.0124  143.1484 LP  0  0  0  0  0  0  0  0  0  0  0  0  # atno 17320 bound_to 7965
  144.7028  139.8689  143.7439 LP  0  0  0  0  0  0  0  0  0  0  0  0  # atno 17321 bound_to 7965
  140.5317  144.0719  150.6056 LP  0  0  0  0  0  0  0  0  0  0  0  0  # atno 17342 bound_to 10162
  140.3712  143.2854  152.0276 LP  0  0  0  0  0  0  0  0  0  0  0  0  # atno 17343 bound_to 10162
  157.0059  130.5618  149.5316 LP  0  0  0  0  0  0  0  0  0  0  0  0  # atno 17370 bound_to 10713
  156.0243  130.5337  150.8363 LP  0  0  0  0  0  0  0  0  0  0  0  0  # atno 17371 bound_to 10713
  140.6492  133.9747  155.7746 LP  0  0  0  0  0  0  0  0  0  0  0  0  # atno 17394 bound_to 11000
  141.0719  134.0192  157.3513 LP  0  0  0  0  0  0  0  0  0  0  0  0  # atno 17395 bound_to 11000

$$$$
