AV-unprocessed.smi:1056|AV-procd|sdf|4647|dock3
  -GOLD-   22720 3153D 1   1.00000     0.00000
 Structure written by MMmdl.
 45 47  0  0  0  0  0  0  0  0  4 V2000
  152.7832  143.0338  161.3689 C   0  0  0  0  0  0  0  0  0  0  0  0
  152.3750  142.4659  160.0202 C   0  0  0  0  0  0  0  0  0  0  0  0
  152.4795  141.0713  159.8164 C   0  0  0  0  0  0  0  0  0  0  0  0
  152.0972  140.5817  158.5732 C   0  0  0  0  0  0  0  0  0  0  0  0
  152.0836  139.2806  158.0662 N   0  3  0  0  0  0  0  0  0  0  0  0
  151.6211  139.2965  156.7856 C   0  0  0  0  0  0  0  0  0  0  0  0
  151.3411  140.5895  156.4670 N   0  0  0  0  0  0  0  0  0  0  0  0
  150.8192  141.1624  155.2192 C   0  0  0  0  0  0  0  0  0  0  0  0
  149.6404  140.3589  154.6348 C   0  0  1  0  0  0  0  0  0  0  0  0
  149.1463  141.0325  153.4922 O   0  0  0  0  0  0  0  0  0  0  0  0
  150.0734  138.9344  154.2332 C   0  0  0  0  0  0  0  0  0  0  0  0
  148.9713  137.9469  154.3491 N   0  3  2  0  0  0  0  0  0  0  0  0
  147.6201  138.5363  154.1567 C   0  0  0  0  0  0  0  0  0  0  0  0
  146.5751  137.4192  153.9765 C   0  0  0  0  0  0  0  0  0  0  0  0
  146.7423  136.3946  155.0141 N   0  5  0  0  0  0  0  0  0  0  0  0
  147.8799  136.1423  155.7345 C   0  0  0  0  0  0  0  0  0  0  0  0
  148.0399  135.2005  156.5076 O   0  0  0  0  0  0  0  0  0  0  0  0
  149.0520  137.1531  155.6067 C   0  0  0  0  0  0  0  0  0  0  0  0
  151.6230  141.4269  157.5513 C   0  0  0  0  0  0  0  0  0  0  0  0
  151.5143  142.8031  157.7345 C   0  0  0  0  0  0  0  0  0  0  0  0
  151.8991  143.3208  158.9922 C   0  0  0  0  0  0  0  0  0  0  0  0
  151.7929  144.8187  159.2226 C   0  0  0  0  0  0  0  0  0  0  0  0
  153.1436  142.2527  162.0389 H   0  0  0  0  0  0  0  0  0  0  0  0
  151.9352  143.5206  161.8510 H   0  0  0  0  0  0  0  0  0  0  0  0
  153.5824  143.7658  161.2511 H   0  0  0  0  0  0  0  0  0  0  0  0
  152.8410  140.4143  160.5942 H   0  0  0  0  0  0  0  0  0  0  0  0
  151.5018  138.4391  156.1386 H   0  0  0  0  0  0  0  0  0  0  0  0
  150.5103  142.1865  155.4345 H   0  0  0  0  0  0  0  0  0  0  0  0
  151.6394  141.2312  154.5034 H   0  0  0  0  0  0  0  0  0  0  0  0
  148.8427  140.3225  155.3756 H   0  0  0  0  0  0  0  0  0  0  0  0
  148.9696  140.3985  152.8138 H   0  0  0  0  0  0  0  0  0  0  0  0
  150.4430  138.9595  153.2065 H   0  0  0  0  0  0  0  0  0  0  0  0
  150.9111  138.5996  154.8471 H   0  0  0  0  0  0  0  0  0  0  0  0
  147.3696  139.1576  155.0182 H   0  0  0  0  0  0  0  0  0  0  0  0
  147.5946  139.1886  153.2848 H   0  0  0  0  0  0  0  0  0  0  0  0
  145.5763  137.8546  153.9891 H   0  0  0  0  0  0  0  0  0  0  0  0
  146.6987  136.9861  152.9838 H   0  0  0  0  0  0  0  0  0  0  0  0
  149.9957  136.6066  155.6340 H   0  0  0  0  0  0  0  0  0  0  0  0
  149.0358  137.8203  156.4697 H   0  0  0  0  0  0  0  0  0  0  0  0
  151.1518  143.4531  156.9520 H   0  0  0  0  0  0  0  0  0  0  0  0
  151.3962  145.3311  158.3458 H   0  0  0  0  0  0  0  0  0  0  0  0
  152.7733  145.2426  159.4408 H   0  0  0  0  0  0  0  0  0  0  0  0
  151.1289  145.0315  160.0609 H   0  0  0  0  0  0  0  0  0  0  0  0
  149.0964  137.2794  153.6021 H   0  0  0  0  0  0  0  0  0  0  0  0
  152.3681  138.4416  158.5557 H   0  0  0  0  0  0  0  0  0  0  0  0
  1  2  1  0  0  0  0
  1 23  1  0  0  0  0
  1 24  1  0  0  0  0
  1 25  1  0  0  0  0
  2 21  1  0  0  0  0
  2  3  2  0  0  0  0
  3  4  1  0  0  0  0
  3 26  1  0  0  0  0
  4 19  2  0  0  0  0
  4  5  1  0  0  0  0
  5  6  2  0  0  0  0
  5 45  1  0  0  0  0
  6  7  1  0  0  0  0
  6 27  1  0  0  0  0
  7  8  1  0  0  0  0
  7 19  1  0  0  0  0
  8  9  1  0  0  0  0
  8 28  1  0  0  0  0
  8 29  1  0  0  0  0
  9 10  1  0  0  0  0
  9 11  1  0  0  0  0
  9 30  1  0  0  0  0
 10 31  1  0  0  0  0
 11 12  1  0  0  0  0
 11 32  1  0  0  0  0
 11 33  1  0  0  0  0
 12 18  1  0  0  0  0
 12 13  1  0  0  0  0
 12 44  1  0  0  0  0
 13 14  1  0  0  0  0
 13 34  1  0  0  0  0
 13 35  1  0  0  0  0
 14 15  1  0  0  0  0
 14 36  1  0  0  0  0
 14 37  1  0  0  0  0
 15 16  1  0  0  0  0
 16 17  2  0  0  0  0
 16 18  1  0  0  0  0
 18 38  1  0  0  0  0
 18 39  1  0  0  0  0
 19 20  1  0  0  0  0
 20 21  2  0  0  0  0
 20 40  1  0  0  0  0
 21 22  1  0  0  0  0
 22 41  1  0  0  0  0
 22 42  1  0  0  0  0
 22 43  1  0  0  0  0
M  CHG  1   5   1
M  CHG  1  12   1
M  CHG  1  15  -1
M  END
> <s_m_source_file>
AV-unprocessed.smi

> <i_m_source_file_index>
1056

> <i_lp_mmshare_version>
43012

> <i_f3d_flags>
0

> <s_epik_input>
W0NIM11jKFtjSF0xKWMoW0NIM10pW2NIXWMoYzEyKW4oW2NIXW4yKVtDSDJdW0NASF0oW09IXSlbQ0gyXU4zW0NIMl1bQ0gyXVtOSF1DKD1PKVtDSDJdMw==

> <s_epik_cmdline>
J2VwaWtfcHl0aG9uJywgJy1waCcsICc3LjAnLCAnLXRuJywgJzgnLCAnLW1hJywgJzIwMCcsICctbWV0YWxfYmluZGluZycsICctaW1hZScsICc8aW5maWxlLm1hZT4nLCAnLW9tYWUnLCAnPG91dGZpbGUubWFlPic=

> <r_epik_Ionization_Penalty>
6.22415

> <r_epik_Ionization_Penalty_Charging>
6.22415

> <r_epik_Ionization_Penalty_Neutral>
4.02797e-07

> <r_epik_State_Penalty>
6.37716

> <r_epik_Charging_Adjusted_Penalty>
12.6013

> <i_epik_Tot_Q>
1

> <i_epik_Tot_abs_Q>
3

> <r_epik_Metal_State_Penalty>
2.53509

> <b_epik_Metal_Only>
1

> <s_lp_Force_Field>
OPLS_2005

> <r_lp_Energy>
25.2777

> <b_lp_Chiralities_Consistent>
1

> <s_lp_Variant>
AV-unprocessed.smi:1056-18

> <Gold.Version>
5.8.1

> <Gold.Id.Protein>
6NUR|6NUR_protein|mol2

> <Gold.PLP.Fitness>
46.4747

> <Gold.PLP.PLP>
-37.7812

> <Gold.PLP.part.hbond>
-4.0000

> <Gold.PLP.part.metal>
0.0000

> <Gold.PLP.part.buried>
-1.9521

> <Gold.PLP.part.nonpolar>
-31.1836

> <Gold.PLP.part.repulsive>
0.1478

> <Gold.PLP.ligand.clash>
0.0000

> <Gold.PLP.ligand.torsion>
1.0486

> <Gold.PLP.Chemscore.Hbond>
3.5860

> <Gold.PLP.Chemscore.CHOScore>
0.0000

> <Gold.PLP.Chemscore.Metal>
0.0000

> <Gold.Chemscore.Hbonds>
donor molecule, donor type, donor heavy atom, donor atom, acceptor molecule, acceptor atom, score
      L1  H    10    31       P1  7957  0.72
      L1  H    12    44       P1  7948  2.00
      P1  H  8011  8017       L1    10  0.80

> <Gold.PLP.Chemscore.Internal.Correction>
0.0328

> <Gold.Rescore>
     Score         DG    S(hbond)    S(metal)    S(lipo)     H(rot)  DE(clash)    DE(int)     intcor
     15.74     -19.89       2.22        0.00     111.67       2.37       2.90       1.25       ----

> <Gold.Chemscore.Fitness>
15.7388

> <Gold.Chemscore.DG>
-19.8924

> <Gold.Chemscore.ZeroCoef>
-5.4800

> <Gold.Chemscore.Hbond>
2.2216

> <Gold.Chemscore.Metal>
0.0000

> <Gold.Chemscore.Lipo>
111.6726

> <Gold.Chemscore.Internal_Hbond>
0.0000

> <Gold.Chemscore.DEClash>
2.9043

> <Gold.Chemscore.DEInternal>
1.2493

> <Gold.Chemscore.Rot>
2.3724

> <Gold.Chemscore.Internal.Correction>
   9.000000E+99

> <Gold.Chemscore.Hbonds>
donor molecule, donor type, donor heavy atom, donor atom, acceptor molecule, acceptor atom, score
      L1  H    10    31       P1  7957  0.72
      L1  H    12    44       P1  7948  0.94
      P1  H  8011  8017       L1    10  0.11

> <Gold.Chemscore.Hbond.Weighted>
-7.4202

> <Gold.Chemscore.Metal.Weighted>
-0.0000

> <Gold.Chemscore.Lipo.Weighted>
-13.0657

> <Gold.Chemscore.Internal_Hbond.Weighted>
0.0000

> <Gold.Chemscore.DEClash.Weighted>
2.9043

> <Gold.Chemscore.DEInternal.Weighted>
1.2493

> <Gold.Chemscore.Rot.Weighted>
6.0734

> <Gold.Chemscore.Internal.Correction.Weighted>
   9.000000E+99

> <Gold.Protein.RotatedTorsions>
[ 6907 6896 6895 6894 ] final -101.02 input  -60.11 | X-H torsion
[ 7974 7965 7964 7962 ] final  -89.73 input  175.53 | X-H torsion
[ 8008 7997 7996 7995 ] final -140.44 input   59.86 | X-H torsion
[ 10167 10162 10161 10158 ] final   61.64 input  -65.29 | X-H torsion
[ 10718 10713 10712 10709 ] final  -78.40 input   66.30 | X-H torsion
[ 10763 10752 10751 10750 ] final   11.28 input  -60.55 | X-H torsion
[ 11005 11000 10999 10996 ] final  129.13 input  -57.11 | X-H torsion

> <Gold.Protein.ActiveResidues>
 VAL166  LYS551  ARG553  GLY616  TRP617  ASP618  TYR619  PRO620  LYS621  CYS622 
 ASP623  PHE694  ASN695  SER759  ASP760  ASP761  ALA762  ILE779  LEU786  VAL792 
 PHE793  MET794  SER795  GLU796  ALA797  LYS798  CYS799  TRP800  GLU811  SER814 

> <Gold.Protein.RotatedAtoms>
  150.7138  134.0798  159.3893 H   0  0  0  0  0  0  0  0  0  0  0  0  # atno 6907 bound_to 6896
  151.8782  135.0461  160.0495 H   0  0  0  0  0  0  0  0  0  0  0  0  # atno 6908 bound_to 6896
  152.2589  133.5244  159.5406 H   0  0  0  0  0  0  0  0  0  0  0  0  # atno 6909 bound_to 6896
  145.4359  140.9557  143.2102 H   0  0  0  0  0  0  0  0  0  0  0  0  # atno 7974 bound_to 7965
  155.4614  140.0546  157.2990 H   0  0  0  0  0  0  0  0  0  0  0  0  # atno 8008 bound_to 7997
  154.4735  140.2051  155.9889 H   0  0  0  0  0  0  0  0  0  0  0  0  # atno 8009 bound_to 7997
  156.1095  140.3206  155.8057 H   0  0  0  0  0  0  0  0  0  0  0  0  # atno 8010 bound_to 7997
  140.1526  144.4448  150.6751 H   0  0  0  0  0  0  0  0  0  0  0  0  # atno 10167 bound_to 10162
  156.0118  130.4517  150.3491 H   0  0  0  0  0  0  0  0  0  0  0  0  # atno 10718 bound_to 10713
  153.1942  135.6847  153.8313 H   0  0  0  0  0  0  0  0  0  0  0  0  # atno 10763 bound_to 10752
  153.7601  135.3211  155.3337 H   0  0  0  0  0  0  0  0  0  0  0  0  # atno 10764 bound_to 10752
  154.8135  135.4701  154.0679 H   0  0  0  0  0  0  0  0  0  0  0  0  # atno 10765 bound_to 10752
  139.9599  134.9605  156.9104 H   0  0  0  0  0  0  0  0  0  0  0  0  # atno 11005 bound_to 11000
  144.8152  139.5889  143.7011 LP  0  0  0  0  0  0  0  0  0  0  0  0  # atno 17320 bound_to 7965
  146.2582  139.6350  142.9380 LP  0  0  0  0  0  0  0  0  0  0  0  0  # atno 17321 bound_to 7965
  140.6693  143.2279  151.5665 LP  0  0  0  0  0  0  0  0  0  0  0  0  # atno 17342 bound_to 10162
  139.5418  144.2626  152.1366 LP  0  0  0  0  0  0  0  0  0  0  0  0  # atno 17343 bound_to 10162
  157.1584  131.0339  151.2852 LP  0  0  0  0  0  0  0  0  0  0  0  0  # atno 17370 bound_to 10713
  157.4332  130.7502  149.7007 LP  0  0  0  0  0  0  0  0  0  0  0  0  # atno 17371 bound_to 10713
  140.5525  134.0613  155.7373 LP  0  0  0  0  0  0  0  0  0  0  0  0  # atno 17394 bound_to 11000
  141.1274  133.9359  157.2606 LP  0  0  0  0  0  0  0  0  0  0  0  0  # atno 17395 bound_to 11000

$$$$
