AV-unprocessed.smi:1|AV-procd|sdf|15|dock3
  -GOLD-   2262015113D 1   1.00000     0.00000
 Structure written by MMmdl.
 57 62  0  0  0  0  0  0  0  0  1 V2000
  151.2954  128.9614  155.0639 O   0  0  0  0  0  0  0  0  0  0  0  0
  150.3882  129.5745  154.4946 C   0  0  0  0  0  0  0  0  0  0  0  0
  150.1197  130.9369  154.5013 N   0  0  0  0  0  0  0  0  0  0  0  0
  149.6978  131.5131  155.5857 C   0  0  0  0  0  0  0  0  0  0  0  0
  149.4339  131.0299  156.8740 N   0  0  0  0  0  0  0  0  0  0  0  0
  148.9867  131.7934  157.9635 C   0  0  0  0  0  0  0  0  0  0  0  0
  148.7482  133.0772  157.9277 N   0  0  0  0  0  0  0  0  0  0  0  0
  148.9914  133.6071  156.6677 C   0  0  0  0  0  0  0  0  0  0  0  0
  149.4286  132.9659  155.5287 C   0  0  0  0  0  0  0  0  0  0  0  0
  149.5462  133.8608  154.4700 N   0  0  0  0  0  0  0  0  0  0  0  0
  149.1749  135.0136  155.0207 C   0  0  0  0  0  0  0  0  0  0  0  0
  148.8300  134.9465  156.3196 N   0  0  0  0  0  0  0  0  0  0  0  0
  148.3890  136.0836  157.1785 C   0  0  2  0  0  0  0  0  0  0  0  0
  148.4939  137.2630  156.4481 O   0  0  0  0  0  0  0  0  0  0  0  0
  148.8500  138.3457  157.3059 C   0  0  2  0  0  0  0  0  0  0  0  0
  150.0648  139.0523  156.6915 C   0  0  0  0  0  0  0  0  0  0  0  0
  150.2849  140.2819  157.3630 O   0  0  0  0  0  0  0  0  0  0  0  0
  151.3099  140.4036  158.2284 C   0  0  0  0  0  0  0  0  0  0  0  0
  151.9335  139.4436  158.6863 O   0  0  0  0  0  0  0  0  0  0  0  0
  151.6141  141.8230  158.5710 C   0  0  0  0  0  0  0  0  0  0  0  0
  152.4546  142.1053  159.6731 C   0  0  0  0  0  0  0  0  0  0  0  0
  152.7630  143.4355  160.0182 C   0  0  0  0  0  0  0  0  0  0  0  0
  152.2334  144.5002  159.2662 C   0  0  0  0  0  0  0  0  0  0  0  0
  151.3945  144.2328  158.1686 C   0  0  0  0  0  0  0  0  0  0  0  0
  151.0856  142.9030  157.8216 C   0  0  0  0  0  0  0  0  0  0  0  0
  149.1382  137.7337  158.6843 C   0  0  1  0  0  0  0  0  0  0  0  0
  148.0245  137.9180  159.5420 O   0  0  0  0  0  0  0  0  0  0  0  0
  147.7611  136.4978  160.3815 S   0  0  0  0  0  0  0  0  0  0  0  0
  148.3181  136.6506  161.7343 O   0  0  0  0  0  0  0  0  0  0  0  0
  146.3751  136.0695  160.1386 O   0  0  0  0  0  0  0  0  0  0  0  0
  148.7803  135.5034  159.5064 O   0  0  0  0  0  0  0  0  0  0  0  0
  149.2864  136.2365  158.4048 C   0  0  1  0  0  0  0  0  0  0  0  0
  149.4309  128.7904  153.6579 C   0  0  0  0  0  0  0  0  0  0  0  0
  149.5208  127.3831  153.6120 C   0  0  0  0  0  0  0  0  0  0  0  0
  148.6255  126.6438  152.8143 C   0  0  0  0  0  0  0  0  0  0  0  0
  147.6400  127.3091  152.0596 C   0  0  0  0  0  0  0  0  0  0  0  0
  147.5493  128.7141  152.1022 C   0  0  0  0  0  0  0  0  0  0  0  0
  148.4441  129.4546  152.8991 C   0  0  0  0  0  0  0  0  0  0  0  0
  148.8462  131.2188  158.8801 H   0  0  0  0  0  0  0  0  0  0  0  0
  149.1537  135.9372  154.4610 H   0  0  0  0  0  0  0  0  0  0  0  0
  147.3432  135.8891  157.4212 H   0  0  0  0  0  0  0  0  0  0  0  0
  148.0100  139.0400  157.3582 H   0  0  0  0  0  0  0  0  0  0  0  0
  150.9496  138.4172  156.7541 H   0  0  0  0  0  0  0  0  0  0  0  0
  149.8793  139.2532  155.6355 H   0  0  0  0  0  0  0  0  0  0  0  0
  152.8739  141.3042  160.2647 H   0  0  0  0  0  0  0  0  0  0  0  0
  153.4075  143.6387  160.8608 H   0  0  0  0  0  0  0  0  0  0  0  0
  152.4702  145.5200  159.5312 H   0  0  0  0  0  0  0  0  0  0  0  0
  150.9870  145.0491  157.5905 H   0  0  0  0  0  0  0  0  0  0  0  0
  150.4380  142.7331  156.9738 H   0  0  0  0  0  0  0  0  0  0  0  0
  150.0229  138.1527  159.1652 H   0  0  0  0  0  0  0  0  0  0  0  0
  150.3191  135.9774  158.1698 H   0  0  0  0  0  0  0  0  0  0  0  0
  150.2754  126.8657  154.1871 H   0  0  0  0  0  0  0  0  0  0  0  0
  148.6960  125.5668  152.7799 H   0  0  0  0  0  0  0  0  0  0  0  0
  146.9545  126.7420  151.4472 H   0  0  0  0  0  0  0  0  0  0  0  0
  146.7938  129.2238  151.5228 H   0  0  0  0  0  0  0  0  0  0  0  0
  148.3706  130.5323  152.9242 H   0  0  0  0  0  0  0  0  0  0  0  0
  149.5828  130.0434  157.0325 H   0  0  0  0  0  0  0  0  0  0  0  0
  1  2  2  0  0  0  0
  2  3  1  0  0  0  0
  2 33  1  0  0  0  0
  3  4  2  0  0  0  0
  4  9  1  0  0  0  0
  4  5  1  0  0  0  0
  5  6  1  0  0  0  0
  5 57  1  0  0  0  0
  6  7  2  0  0  0  0
  6 39  1  0  0  0  0
  7  8  1  0  0  0  0
  8 12  1  0  0  0  0
  8  9  2  0  0  0  0
  9 10  1  0  0  0  0
 10 11  2  0  0  0  0
 11 12  1  0  0  0  0
 11 40  1  0  0  0  0
 12 13  1  0  0  0  0
 13 32  1  0  0  0  0
 13 14  1  0  0  0  0
 13 41  1  0  0  0  0
 14 15  1  0  0  0  0
 15 16  1  0  0  0  0
 15 26  1  0  0  0  0
 15 42  1  0  0  0  0
 16 17  1  0  0  0  0
 16 43  1  0  0  0  0
 16 44  1  0  0  0  0
 17 18  1  0  0  0  0
 18 19  2  0  0  0  0
 18 20  1  0  0  0  0
 20 25  1  0  0  0  0
 20 21  2  0  0  0  0
 21 22  1  0  0  0  0
 21 45  1  0  0  0  0
 22 23  2  0  0  0  0
 22 46  1  0  0  0  0
 23 24  1  0  0  0  0
 23 47  1  0  0  0  0
 24 25  2  0  0  0  0
 24 48  1  0  0  0  0
 25 49  1  0  0  0  0
 26 32  1  0  0  0  0
 26 27  1  0  0  0  0
 26 50  1  0  0  0  0
 27 28  1  0  0  0  0
 28 29  2  0  0  0  0
 28 30  2  0  0  0  0
 28 31  1  0  0  0  0
 31 32  1  0  0  0  0
 32 51  1  0  0  0  0
 33 38  1  0  0  0  0
 33 34  2  0  0  0  0
 34 35  1  0  0  0  0
 34 52  1  0  0  0  0
 35 36  2  0  0  0  0
 35 53  1  0  0  0  0
 36 37  1  0  0  0  0
 36 54  1  0  0  0  0
 37 38  2  0  0  0  0
 37 55  1  0  0  0  0
 38 56  1  0  0  0  0
M  END
> <s_m_source_file>
AV-unprocessed.smi

> <i_m_source_file_index>
1

> <i_lp_mmshare_version>
43012

> <i_f3d_flags>
0

> <s_epik_input>
W2NIXTFbY0hdW2NIXVtjSF1bY0hdYzFDKD1PKVtOSF1jKG5bY0hdbjIpYyhjMjMpbltjSF1uM1tDQEBIXShbQ0BIXShbQ0BIXTQ1KU9TKE81KSg9Tyk9TylPW0NASF00W0NIMl1PQyg9TyljNltjSF1bY0hdW2NIXVtjSF1bY0hdNg==

> <s_epik_cmdline>
J2VwaWtfcHl0aG9uJywgJy1waCcsICc3LjAnLCAnLXRuJywgJzgnLCAnLW1hJywgJzIwMCcsICctbWV0YWxfYmluZGluZycsICctaW1hZScsICc8aW5maWxlLm1hZT4nLCAnLW9tYWUnLCAnPG91dGZpbGUubWFlPic=

> <r_epik_Ionization_Penalty>
0.122545

> <r_epik_Ionization_Penalty_Charging>
0.122545

> <r_epik_Ionization_Penalty_Neutral>
7.8935e-16

> <r_epik_State_Penalty>
2.69178

> <r_epik_Charging_Adjusted_Penalty>
2.81433

> <i_epik_Tot_Q>
0

> <i_epik_Tot_abs_Q>
0

> <r_epik_Metal_State_Penalty>
3.02665

> <b_epik_Metal_Only>
0

> <s_epik_Chemistry_Notes>
This compound has an ester and may undergo hydrolysis at high or low pH. This compound contains an acetal/aminal-like group ( X-CH(R)-Y where X, Y are N, S, or O) that may be acid/base labile, releasing an aldehyde.

> <s_lp_Force_Field>
OPLS_2005

> <r_lp_Energy>
60.8199

> <b_lp_Chiralities_Consistent>
1

> <s_lp_Variant>
AV-unprocessed.smi:1-15

> <Gold.Version>
5.8.1

> <Gold.Id.Protein>
6NUR|6NUR_protein|mol2

> <Gold.PLP.Fitness>
54.4881

> <Gold.PLP.PLP>
-51.0766

> <Gold.PLP.part.hbond>
-3.7315

> <Gold.PLP.part.metal>
0.0000

> <Gold.PLP.part.buried>
-5.3038

> <Gold.PLP.part.nonpolar>
-43.2852

> <Gold.PLP.part.repulsive>
0.2786

> <Gold.PLP.ligand.clash>
0.0000

> <Gold.PLP.ligand.torsion>
1.3711

> <Gold.PLP.Chemscore.Hbond>
1.0000

> <Gold.PLP.Chemscore.CHOScore>
1.0000

> <Gold.PLP.Chemscore.Metal>
0.0000

> <Gold.Chemscore.Hbonds>
donor molecule, donor type, donor heavy atom, donor atom, acceptor molecule, acceptor atom, score
      P1  H  6931  6943       L1    29  1.00
      L1  C    11    40       P1  7948  0.78

> <Gold.PLP.Chemscore.Internal.Correction>
0.1536

> <Gold.Rescore>
     Score         DG    S(hbond)    S(metal)    S(lipo)     H(rot)  DE(clash)    DE(int)     intcor
     13.36     -16.77       1.00        0.00     114.79       2.13       0.93       2.48       ----

> <Gold.Chemscore.Fitness>
13.3644

> <Gold.Chemscore.DG>
-16.7730

> <Gold.Chemscore.ZeroCoef>
-5.4800

> <Gold.Chemscore.Hbond>
0.9951

> <Gold.Chemscore.Metal>
0.0000

> <Gold.Chemscore.Lipo>
114.7937

> <Gold.Chemscore.Internal_Hbond>
0.0000

> <Gold.Chemscore.DEClash>
0.9261

> <Gold.Chemscore.DEInternal>
2.4825

> <Gold.Chemscore.Rot>
2.1333

> <Gold.Chemscore.Internal.Correction>
   9.000000E+99

> <Gold.Chemscore.Hbonds>
donor molecule, donor type, donor heavy atom, donor atom, acceptor molecule, acceptor atom, score
      P1  H  6931  6943       L1    29  0.74

> <Gold.Chemscore.Hbond.Weighted>
-3.3235

> <Gold.Chemscore.Metal.Weighted>
-0.0000

> <Gold.Chemscore.Lipo.Weighted>
-13.4309

> <Gold.Chemscore.Internal_Hbond.Weighted>
0.0000

> <Gold.Chemscore.DEClash.Weighted>
0.9261

> <Gold.Chemscore.DEInternal.Weighted>
2.4825

> <Gold.Chemscore.Rot.Weighted>
5.4614

> <Gold.Chemscore.Internal.Correction.Weighted>
   9.000000E+99

> <Gold.Protein.RotatedTorsions>
[ 6907 6896 6895 6894 ] final  -56.88 input  -60.11 | X-H torsion
[ 7974 7965 7964 7962 ] final -155.87 input  175.53 | X-H torsion
[ 8008 7997 7996 7995 ] final  -24.58 input   59.86 | X-H torsion
[ 10167 10162 10161 10158 ] final -167.95 input  -65.29 | X-H torsion
[ 10718 10713 10712 10709 ] final  -60.50 input   66.30 | X-H torsion
[ 10763 10752 10751 10750 ] final  130.60 input  -60.55 | X-H torsion
[ 11005 11000 10999 10996 ] final -135.79 input  -57.11 | X-H torsion

> <Gold.Protein.ActiveResidues>
 VAL166  LYS551  ARG553  GLY616  TRP617  ASP618  TYR619  PRO620  LYS621  CYS622 
 ASP623  PHE694  ASN695  SER759  ASP760  ASP761  ALA762  ILE779  LEU786  VAL792 
 PHE793  MET794  SER795  GLU796  ALA797  LYS798  CYS799  TRP800  GLU811  SER814 

> <Gold.Protein.RotatedAtoms>
  150.8132  134.7298  159.6705 H   0  0  0  0  0  0  0  0  0  0  0  0  # atno 6907 bound_to 6896
  152.4251  134.5880  159.9976 H   0  0  0  0  0  0  0  0  0  0  0  0  # atno 6908 bound_to 6896
  151.6084  133.3312  159.3098 H   0  0  0  0  0  0  0  0  0  0  0  0  # atno 6909 bound_to 6896
  144.7619  140.4188  143.5970 H   0  0  0  0  0  0  0  0  0  0  0  0  # atno 7974 bound_to 7965
  154.4522  140.1950  156.0486 H   0  0  0  0  0  0  0  0  0  0  0  0  # atno 8008 bound_to 7997
  156.0671  140.3289  155.7503 H   0  0  0  0  0  0  0  0  0  0  0  0  # atno 8009 bound_to 7997
  155.5321  140.0579  157.2877 H   0  0  0  0  0  0  0  0  0  0  0  0  # atno 8010 bound_to 7997
  139.6016  144.0998  152.1749 H   0  0  0  0  0  0  0  0  0  0  0  0  # atno 10167 bound_to 10162
  156.0986  130.4189  150.0863 H   0  0  0  0  0  0  0  0  0  0  0  0  # atno 10718 bound_to 10713
  153.7606  135.3196  155.3336 H   0  0  0  0  0  0  0  0  0  0  0  0  # atno 10763 bound_to 10752
  154.8231  135.4589  154.0841 H   0  0  0  0  0  0  0  0  0  0  0  0  # atno 10764 bound_to 10752
  153.2071  135.6930  153.8243 H   0  0  0  0  0  0  0  0  0  0  0  0  # atno 10765 bound_to 10752
  140.8865  134.1866  157.4556 H   0  0  0  0  0  0  0  0  0  0  0  0  # atno 11005 bound_to 11000
  145.6591  139.1578  143.2818 LP  0  0  0  0  0  0  0  0  0  0  0  0  # atno 17320 bound_to 7965
  146.1691  140.6673  142.9242 LP  0  0  0  0  0  0  0  0  0  0  0  0  # atno 17321 bound_to 7965
  140.0596  144.5867  150.7273 LP  0  0  0  0  0  0  0  0  0  0  0  0  # atno 17342 bound_to 10162
  140.7254  143.2631  151.4138 LP  0  0  0  0  0  0  0  0  0  0  0  0  # atno 17343 bound_to 10162
  156.8856  130.9571  151.3594 LP  0  0  0  0  0  0  0  0  0  0  0  0  # atno 17370 bound_to 10713
  157.6152  130.8613  149.9016 LP  0  0  0  0  0  0  0  0  0  0  0  0  # atno 17371 bound_to 10713
  139.8725  134.9840  156.5221 LP  0  0  0  0  0  0  0  0  0  0  0  0  # atno 17394 bound_to 11000
  140.8398  133.8214  155.9064 LP  0  0  0  0  0  0  0  0  0  0  0  0  # atno 17395 bound_to 11000

$$$$
