AV-unprocessed.smi:288|AV-procd|sdf|2209|dock4
  -GOLD-   2262022 43D 1   1.00000     0.00000
 Structure written by MMmdl.
 33 34  0  0  0  0  0  0  0  0  1 V2000
  153.0487  137.5826  159.3857 O   0  0  0  0  0  0  0  0  0  0  0  0
  153.0335  138.8062  159.5308 C   0  0  0  0  0  0  0  0  0  0  0  0
  152.0945  139.6852  158.8436 C   0  0  0  0  0  0  0  0  0  0  0  0
  151.1949  139.1606  157.9942 F   0  0  0  0  0  0  0  0  0  0  0  0
  152.1061  141.0199  159.0501 C   0  0  0  0  0  0  0  0  0  0  0  0
  152.9893  141.6460  159.9177 N   0  0  0  0  0  0  0  0  0  0  0  0
  153.0153  143.1470  160.1317 C   0  0  2  0  0  0  0  0  0  0  0  0
  151.7784  143.7392  160.8138 C   0  0  0  0  0  0  0  0  0  0  0  0
  151.9003  145.1778  160.3691 C   0  0  0  0  0  0  0  0  0  0  0  0
  152.3669  145.0084  158.9239 C   0  0  0  0  0  0  0  0  0  0  0  0
  153.0744  143.7695  158.8823 O   0  0  0  0  0  0  0  0  0  0  0  0
  153.9232  140.8663  160.6373 C   0  0  0  0  0  0  0  0  0  0  0  0
  154.6937  141.3914  161.4447 O   0  0  0  0  0  0  0  0  0  0  0  0
  153.9287  139.4714  160.4030 N   0  0  0  0  0  0  0  0  0  0  0  0
  154.8915  138.6605  161.1308 C   0  0  0  0  0  0  0  0  0  0  0  0
  154.6325  138.6233  162.6537 C   0  0  2  0  0  0  0  0  0  0  0  0
  155.4762  139.5727  163.2768 O   0  0  0  0  0  0  0  0  0  0  0  0
  154.9367  137.2429  163.2682 C   0  0  0  0  0  0  0  0  0  0  0  0
  154.5241  137.2009  164.5354 F   0  0  0  0  0  0  0  0  0  0  0  0
  154.2771  136.3016  162.5928 F   0  0  0  0  0  0  0  0  0  0  0  0
  156.2415  136.9716  163.2130 F   0  0  0  0  0  0  0  0  0  0  0  0
  151.3672  141.5922  158.5137 H   0  0  0  0  0  0  0  0  0  0  0  0
  153.9265  143.3454  160.6999 H   0  0  0  0  0  0  0  0  0  0  0  0
  150.8609  143.3269  160.3938 H   0  0  0  0  0  0  0  0  0  0  0  0
  151.8009  143.5956  161.8943 H   0  0  0  0  0  0  0  0  0  0  0  0
  150.9674  145.7359  160.4534 H   0  0  0  0  0  0  0  0  0  0  0  0
  152.6630  145.6904  160.9574 H   0  0  0  0  0  0  0  0  0  0  0  0
  151.5127  144.9421  158.2489 H   0  0  0  0  0  0  0  0  0  0  0  0
  152.9956  145.8359  158.5944 H   0  0  0  0  0  0  0  0  0  0  0  0
  154.8409  137.6607  160.6966 H   0  0  0  0  0  0  0  0  0  0  0  0
  155.8988  139.0010  160.8840 H   0  0  0  0  0  0  0  0  0  0  0  0
  153.5958  138.8821  162.8733 H   0  0  0  0  0  0  0  0  0  0  0  0
  156.2653  139.6557  162.7634 H   0  0  0  0  0  0  0  0  0  0  0  0
  1  2  2  0  0  0  0
  2 14  1  0  0  0  0
  2  3  1  0  0  0  0
  3  4  1  0  0  0  0
  3  5  2  0  0  0  0
  5  6  1  0  0  0  0
  5 22  1  0  0  0  0
  6  7  1  0  0  0  0
  6 12  1  0  0  0  0
  7 11  1  0  0  0  0
  7  8  1  0  0  0  0
  7 23  1  0  0  0  0
  8  9  1  0  0  0  0
  8 24  1  0  0  0  0
  8 25  1  0  0  0  0
  9 10  1  0  0  0  0
  9 26  1  0  0  0  0
  9 27  1  0  0  0  0
 10 11  1  0  0  0  0
 10 28  1  0  0  0  0
 10 29  1  0  0  0  0
 12 13  2  0  0  0  0
 12 14  1  0  0  0  0
 14 15  1  0  0  0  0
 15 16  1  0  0  0  0
 15 30  1  0  0  0  0
 15 31  1  0  0  0  0
 16 17  1  0  0  0  0
 16 18  1  0  0  0  0
 16 32  1  0  0  0  0
 17 33  1  0  0  0  0
 18 19  1  0  0  0  0
 18 20  1  0  0  0  0
 18 21  1  0  0  0  0
M  END
> <s_m_source_file>
AV-unprocessed.smi

> <i_m_source_file_index>
288

> <i_lp_mmshare_version>
43012

> <i_f3d_flags>
0

> <s_epik_input>
TzFbQ0gyXVtDSDJdW0NIMl1bQ0BIXTFuKFtjSF1jKEYpYzI9TyljKD1PKW4yW0NIMl1bQ0BIXShbT0hdKUMoRikoRilG

> <s_epik_cmdline>
J2VwaWtfcHl0aG9uJywgJy1waCcsICc3LjAnLCAnLXRuJywgJzgnLCAnLW1hJywgJzIwMCcsICctbWV0YWxfYmluZGluZycsICctaW1hZScsICc8aW5maWxlLm1hZT4nLCAnLW9tYWUnLCAnPG91dGZpbGUubWFlPic=

> <r_lp_tautomer_probability>
1

> <r_epik_Ionization_Penalty>
0.000551119

> <r_epik_Ionization_Penalty_Charging>
2.51184e-08

> <r_epik_Ionization_Penalty_Neutral>
0.000551094

> <r_epik_State_Penalty>
0.000345115

> <r_epik_Charging_Adjusted_Penalty>
0.00034514

> <i_epik_Tot_Q>
0

> <i_epik_Tot_abs_Q>
0

> <r_epik_Metal_State_Penalty>
-0

> <b_epik_Metal_Only>
0

> <s_epik_Chemistry_Notes>
This compound contains an acetal/aminal-like group ( X-CH(R)-Y where X, Y are N, S, or O) that may be acid/base labile, releasing an aldehyde.

> <s_lp_Force_Field>
OPLS_2005

> <r_lp_Energy>
36.863

> <b_lp_Chiralities_Consistent>
1

> <s_lp_Variant>
AV-unprocessed.smi:288-1

> <Gold.Version>
5.8.1

> <Gold.Id.Protein>
6NUR|6NUR_protein|mol2

> <Gold.PLP.Fitness>
43.2904

> <Gold.PLP.PLP>
-44.8311

> <Gold.PLP.part.hbond>
-1.0000

> <Gold.PLP.part.metal>
0.0000

> <Gold.PLP.part.buried>
-5.6867

> <Gold.PLP.part.nonpolar>
-37.3951

> <Gold.PLP.part.repulsive>
0.0000

> <Gold.PLP.ligand.clash>
0.0000

> <Gold.PLP.ligand.torsion>
0.7761

> <Gold.PLP.Chemscore.Hbond>
0.0000

> <Gold.PLP.Chemscore.CHOScore>
0.0000

> <Gold.PLP.Chemscore.Metal>
0.0000

> <Gold.PLP.Chemscore.Internal.Correction>
0.0116

> <Gold.Rescore>
     Score         DG    S(hbond)    S(metal)    S(lipo)     H(rot)  DE(clash)    DE(int)     intcor
      6.35      -6.97       0.00        0.00      68.90       2.57       0.08       0.54       ----

> <Gold.Chemscore.Fitness>
6.3514

> <Gold.Chemscore.DG>
-6.9736

> <Gold.Chemscore.ZeroCoef>
-5.4800

> <Gold.Chemscore.Hbond>
0.0000

> <Gold.Chemscore.Metal>
0.0000

> <Gold.Chemscore.Lipo>
68.9015

> <Gold.Chemscore.Internal_Hbond>
0.0000

> <Gold.Chemscore.DEClash>
0.0785

> <Gold.Chemscore.DEInternal>
0.5436

> <Gold.Chemscore.Rot>
2.5656

> <Gold.Chemscore.Internal.Correction>
   9.000000E+99

> <Gold.Chemscore.Hbond.Weighted>
-0.0000

> <Gold.Chemscore.Metal.Weighted>
-0.0000

> <Gold.Chemscore.Lipo.Weighted>
-8.0615

> <Gold.Chemscore.Internal_Hbond.Weighted>
0.0000

> <Gold.Chemscore.DEClash.Weighted>
0.0785

> <Gold.Chemscore.DEInternal.Weighted>
0.5436

> <Gold.Chemscore.Rot.Weighted>
6.5679

> <Gold.Chemscore.Internal.Correction.Weighted>
   9.000000E+99

> <Gold.Protein.RotatedTorsions>
[ 6907 6896 6895 6894 ] final  -76.52 input  -60.11 | X-H torsion
[ 7974 7965 7964 7962 ] final  153.99 input  175.53 | X-H torsion
[ 8008 7997 7996 7995 ] final  129.02 input   59.86 | X-H torsion
[ 10167 10162 10161 10158 ] final  -33.16 input  -65.29 | X-H torsion
[ 10718 10713 10712 10709 ] final  -30.37 input   66.30 | X-H torsion
[ 10763 10752 10751 10750 ] final  166.75 input  -60.55 | X-H torsion
[ 11005 11000 10999 10996 ] final   -2.80 input  -57.11 | X-H torsion

> <Gold.Protein.ActiveResidues>
 VAL166  LYS551  ARG553  GLY616  TRP617  ASP618  TYR619  PRO620  LYS621  CYS622 
 ASP623  PHE694  ASN695  SER759  ASP760  ASP761  ALA762  ILE779  LEU786  VAL792 
 PHE793  MET794  SER795  GLU796  ALA797  LYS798  CYS799  TRP800  GLU811  SER814 

> <Gold.Protein.RotatedAtoms>
  150.7025  134.4560  159.5358 H   0  0  0  0  0  0  0  0  0  0  0  0  # atno 6907 bound_to 6896
  152.2244  134.8379  160.0491 H   0  0  0  0  0  0  0  0  0  0  0  0  # atno 6908 bound_to 6896
  151.9218  133.3552  159.3936 H   0  0  0  0  0  0  0  0  0  0  0  0  # atno 6909 bound_to 6896
  144.8118  139.6873  143.6138 H   0  0  0  0  0  0  0  0  0  0  0  0  # atno 7974 bound_to 7965
  156.2927  140.2631  156.2530 H   0  0  0  0  0  0  0  0  0  0  0  0  # atno 8008 bound_to 7997
  154.9864  140.0389  157.2318 H   0  0  0  0  0  0  0  0  0  0  0  0  # atno 8009 bound_to 7997
  154.7726  140.2781  155.6131 H   0  0  0  0  0  0  0  0  0  0  0  0  # atno 8010 bound_to 7997
  140.7209  143.3641  151.1906 H   0  0  0  0  0  0  0  0  0  0  0  0  # atno 10167 bound_to 10162
  156.4007  130.4390  149.7324 H   0  0  0  0  0  0  0  0  0  0  0  0  # atno 10718 bound_to 10713
  154.3436  135.2753  155.2409 H   0  0  0  0  0  0  0  0  0  0  0  0  # atno 10763 bound_to 10752
  154.4669  135.5893  153.6298 H   0  0  0  0  0  0  0  0  0  0  0  0  # atno 10764 bound_to 10752
  152.9855  135.6078  154.3640 H   0  0  0  0  0  0  0  0  0  0  0  0  # atno 10765 bound_to 10752
  140.6623  133.9309  155.8443 H   0  0  0  0  0  0  0  0  0  0  0  0  # atno 11005 bound_to 11000
  146.2417  139.6016  142.9487 LP  0  0  0  0  0  0  0  0  0  0  0  0  # atno 17320 bound_to 7965
  145.5306  141.0427  143.2385 LP  0  0  0  0  0  0  0  0  0  0  0  0  # atno 17321 bound_to 7965
  139.7199  143.9241  152.2981 LP  0  0  0  0  0  0  0  0  0  0  0  0  # atno 17342 bound_to 10162
  139.8994  144.6920  150.8682 LP  0  0  0  0  0  0  0  0  0  0  0  0  # atno 17343 bound_to 10162
  156.4342  130.7830  151.2850 LP  0  0  0  0  0  0  0  0  0  0  0  0  # atno 17370 bound_to 10713
  157.7503  131.0145  150.3465 LP  0  0  0  0  0  0  0  0  0  0  0  0  # atno 17371 bound_to 10713
  141.0456  134.0559  157.3848 LP  0  0  0  0  0  0  0  0  0  0  0  0  # atno 17394 bound_to 11000
  139.9009  135.0164  156.7262 LP  0  0  0  0  0  0  0  0  0  0  0  0  # atno 17395 bound_to 11000

$$$$
