AV-unprocessed.smi:2831|AV-procd|sdf|10909|dock2
  -GOLD-   2272015353D 1   1.00000     0.00000
 Structure written by MMmdl.
 30 31  0  0  0  0  0  0  0  0  1 V2000
  139.4534  139.4264  153.9206 C   0  0  0  0  0  0  0  0  0  0  0  0
  140.0014  138.0404  153.9430 C   0  0  0  0  0  0  0  0  0  0  0  0
  139.3167  137.0022  154.4376 N   0  0  0  0  0  0  0  0  0  0  0  0
  140.0260  135.8127  154.3467 N   0  0  0  0  0  0  0  0  0  0  0  0
  141.2288  135.9897  153.7828 C   0  0  0  0  0  0  0  0  0  0  0  0
  142.1607  134.9405  153.5651 N   0  0  0  0  0  0  0  0  0  0  0  0
  143.2120  134.9206  152.7271 C   0  0  0  0  0  0  0  0  0  0  0  0
  143.5405  135.8409  151.9783 O   0  0  0  0  0  0  0  0  0  0  0  0
  143.8722  133.7535  152.8085 N   0  0  0  0  0  0  0  0  0  0  0  0
  145.0835  133.3633  152.0782 C   0  0  2  0  0  0  0  0  0  0  0  0
  146.3096  134.1437  152.6007 C   0  0  0  0  0  0  0  0  0  0  0  0
  144.9254  133.5000  150.5527 C   0  0  0  0  0  0  0  0  0  0  0  0
  145.0950  132.0822  150.0094 C   0  0  0  0  0  0  0  0  0  0  0  0
  145.8440  131.4243  151.0145 O   0  0  0  0  0  0  0  0  0  0  0  0
  145.3044  131.8508  152.2532 C   0  0  0  0  0  0  0  0  0  0  0  0
  141.5964  137.6412  153.3154 S   0  0  0  0  0  0  0  0  0  0  0  0
  138.9339  139.6424  154.8546 H   0  0  0  0  0  0  0  0  0  0  0  0
  138.7509  139.5360  153.0942 H   0  0  0  0  0  0  0  0  0  0  0  0
  140.2584  140.1506  153.7945 H   0  0  0  0  0  0  0  0  0  0  0  0
  142.0158  134.1113  154.1220 H   0  0  0  0  0  0  0  0  0  0  0  0
  143.5102  133.0656  153.4526 H   0  0  0  0  0  0  0  0  0  0  0  0
  147.2287  133.7908  152.1313 H   0  0  0  0  0  0  0  0  0  0  0  0
  146.4261  134.0229  153.6784 H   0  0  0  0  0  0  0  0  0  0  0  0
  146.2316  135.2112  152.3950 H   0  0  0  0  0  0  0  0  0  0  0  0
  143.9666  133.9161  150.2420 H   0  0  0  0  0  0  0  0  0  0  0  0
  145.7010  134.1481  150.1424 H   0  0  0  0  0  0  0  0  0  0  0  0
  144.1268  131.5909  149.8985 H   0  0  0  0  0  0  0  0  0  0  0  0
  145.6044  132.0577  149.0459 H   0  0  0  0  0  0  0  0  0  0  0  0
  145.9695  131.6053  153.0820 H   0  0  0  0  0  0  0  0  0  0  0  0
  144.3626  131.3233  152.4182 H   0  0  0  0  0  0  0  0  0  0  0  0
  1  2  1  0  0  0  0
  1 17  1  0  0  0  0
  1 18  1  0  0  0  0
  1 19  1  0  0  0  0
  2 16  1  0  0  0  0
  2  3  2  0  0  0  0
  3  4  1  0  0  0  0
  4  5  2  0  0  0  0
  5  6  1  0  0  0  0
  5 16  1  0  0  0  0
  6  7  1  0  0  0  0
  6 20  1  0  0  0  0
  7  8  2  0  0  0  0
  7  9  1  0  0  0  0
  9 10  1  0  0  0  0
  9 21  1  0  0  0  0
 10 15  1  0  0  0  0
 10 11  1  0  0  0  0
 10 12  1  0  0  0  0
 11 22  1  0  0  0  0
 11 23  1  0  0  0  0
 11 24  1  0  0  0  0
 12 13  1  0  0  0  0
 12 25  1  0  0  0  0
 12 26  1  0  0  0  0
 13 14  1  0  0  0  0
 13 27  1  0  0  0  0
 13 28  1  0  0  0  0
 14 15  1  0  0  0  0
 15 29  1  0  0  0  0
 15 30  1  0  0  0  0
M  END
> <s_m_source_file>
AV-unprocessed.smi

> <i_m_source_file_index>
2831

> <i_lp_mmshare_version>
43012

> <i_f3d_flags>
0

> <s_epik_input>
W0NIM11jMW5uYyhzMSlbTkhdQyg9TylbTkhdW0NAQF0yKFtDSDNdKVtDSDJdW0NIMl1PW0NIMl0y

> <s_epik_cmdline>
J2VwaWtfcHl0aG9uJywgJy1waCcsICc3LjAnLCAnLXRuJywgJzgnLCAnLW1hJywgJzIwMCcsICctbWV0YWxfYmluZGluZycsICctaW1hZScsICc8aW5maWxlLm1hZT4nLCAnLW9tYWUnLCAnPG91dGZpbGUubWFlPic=

> <r_lp_tautomer_probability>
1

> <r_epik_Ionization_Penalty>
0.00277018

> <r_epik_Ionization_Penalty_Charging>
0

> <r_epik_Ionization_Penalty_Neutral>
0.00277018

> <r_epik_State_Penalty>
-0

> <r_epik_Charging_Adjusted_Penalty>
0

> <i_epik_Tot_Q>
0

> <i_epik_Tot_abs_Q>
0

> <r_epik_Metal_State_Penalty>
0.356997

> <b_epik_Metal_Only>
0

> <s_lp_Force_Field>
OPLS_2005

> <r_lp_Energy>
14.9894

> <b_lp_Chiralities_Consistent>
1

> <s_lp_Variant>
AV-unprocessed.smi:2831-2

> <Gold.Version>
5.8.1

> <Gold.Id.Protein>
6NUR|6NUR_protein|mol2

> <Gold.PLP.Fitness>
31.4242

> <Gold.PLP.PLP>
-25.8159

> <Gold.PLP.part.hbond>
-2.4182

> <Gold.PLP.part.metal>
0.0000

> <Gold.PLP.part.buried>
-7.4273

> <Gold.PLP.part.nonpolar>
-17.2228

> <Gold.PLP.part.repulsive>
0.5379

> <Gold.PLP.ligand.clash>
0.0000

> <Gold.PLP.ligand.torsion>
0.2110

> <Gold.PLP.Chemscore.Hbond>
2.0000

> <Gold.PLP.Chemscore.CHOScore>
0.0000

> <Gold.PLP.Chemscore.Metal>
0.0000

> <Gold.Chemscore.Hbonds>
donor molecule, donor type, donor heavy atom, donor atom, acceptor molecule, acceptor atom, score
      L1  H     9    21       P1 10957  0.98
      P1  H 11000 11005       L1     4  0.98

> <Gold.PLP.Chemscore.Internal.Correction>
0.0303

> <Gold.Rescore>
     Score         DG    S(hbond)    S(metal)    S(lipo)     H(rot)  DE(clash)    DE(int)     intcor
     15.25     -16.67       2.23        0.00      53.89       1.00       0.13       1.29       ----

> <Gold.Chemscore.Fitness>
15.2505

> <Gold.Chemscore.DG>
-16.6702

> <Gold.Chemscore.ZeroCoef>
-5.4800

> <Gold.Chemscore.Hbond>
2.2291

> <Gold.Chemscore.Metal>
0.0000

> <Gold.Chemscore.Lipo>
53.8904

> <Gold.Chemscore.Internal_Hbond>
0.0000

> <Gold.Chemscore.DEClash>
0.1327

> <Gold.Chemscore.DEInternal>
1.2870

> <Gold.Chemscore.Rot>
1.0000

> <Gold.Chemscore.Internal.Correction>
   9.000000E+99

> <Gold.Chemscore.Hbonds>
donor molecule, donor type, donor heavy atom, donor atom, acceptor molecule, acceptor atom, score
      L1  H     6    20       P1 10957  0.01
      L1  H     9    21       P1 10957  0.81
      P1  H 11000 11005       L1     4  0.54

> <Gold.Chemscore.Hbond.Weighted>
-7.4450

> <Gold.Chemscore.Metal.Weighted>
-0.0000

> <Gold.Chemscore.Lipo.Weighted>
-6.3052

> <Gold.Chemscore.Internal_Hbond.Weighted>
0.0000

> <Gold.Chemscore.DEClash.Weighted>
0.1327

> <Gold.Chemscore.DEInternal.Weighted>
1.2870

> <Gold.Chemscore.Rot.Weighted>
2.5600

> <Gold.Chemscore.Internal.Correction.Weighted>
   9.000000E+99

> <Gold.Protein.RotatedTorsions>
[ 6907 6896 6895 6894 ] final -123.40 input  -60.11 | X-H torsion
[ 7974 7965 7964 7962 ] final  147.47 input  175.53 | X-H torsion
[ 8008 7997 7996 7995 ] final -124.27 input   59.86 | X-H torsion
[ 10167 10162 10161 10158 ] final  -28.31 input  -65.29 | X-H torsion
[ 10718 10713 10712 10709 ] final  128.52 input   66.30 | X-H torsion
[ 10763 10752 10751 10750 ] final  -11.01 input  -60.55 | X-H torsion
[ 11005 11000 10999 10996 ] final   35.14 input  -57.11 | X-H torsion

> <Gold.Protein.ActiveResidues>
 VAL166  LYS551  ARG553  GLY616  TRP617  ASP618  TYR619  PRO620  LYS621  CYS622 
 ASP623  PHE694  ASN695  SER759  ASP760  ASP761  ALA762  ILE779  LEU786  VAL792 
 PHE793  MET794  SER795  GLU796  ALA797  LYS798  CYS799  TRP800  GLU811  SER814 

> <Gold.Protein.RotatedAtoms>
  150.8667  133.7564  159.2974 H   0  0  0  0  0  0  0  0  0  0  0  0  # atno 6907 bound_to 6896
  151.5189  135.1065  159.9883 H   0  0  0  0  0  0  0  0  0  0  0  0  # atno 6908 bound_to 6896
  152.4666  133.7892  159.6948 H   0  0  0  0  0  0  0  0  0  0  0  0  # atno 6909 bound_to 6896
  144.8589  139.6032  143.5939 H   0  0  0  0  0  0  0  0  0  0  0  0  # atno 7974 bound_to 7965
  155.1941  140.0414  157.2906 H   0  0  0  0  0  0  0  0  0  0  0  0  # atno 8008 bound_to 7997
  154.6118  140.2479  155.7630 H   0  0  0  0  0  0  0  0  0  0  0  0  # atno 8009 bound_to 7997
  156.2384  140.2913  156.0385 H   0  0  0  0  0  0  0  0  0  0  0  0  # atno 8010 bound_to 7997
  140.7271  143.4021  151.1248 H   0  0  0  0  0  0  0  0  0  0  0  0  # atno 10167 bound_to 10162
  157.5237  131.1098  150.9115 H   0  0  0  0  0  0  0  0  0  0  0  0  # atno 10718 bound_to 10713
  153.4775  135.7017  153.5957 H   0  0  0  0  0  0  0  0  0  0  0  0  # atno 10763 bound_to 10752
  153.4185  135.3831  155.2096 H   0  0  0  0  0  0  0  0  0  0  0  0  # atno 10764 bound_to 10752
  154.8723  135.3922  154.4221 H   0  0  0  0  0  0  0  0  0  0  0  0  # atno 10765 bound_to 10752
  140.2456  134.3363  155.7909 H   0  0  0  0  0  0  0  0  0  0  0  0  # atno 11005 bound_to 11000
  146.2845  139.6966  142.9205 LP  0  0  0  0  0  0  0  0  0  0  0  0  # atno 17320 bound_to 7965
  145.4351  141.0418  143.2889 LP  0  0  0  0  0  0  0  0  0  0  0  0  # atno 17321 bound_to 7965
  139.7642  143.8590  152.3107 LP  0  0  0  0  0  0  0  0  0  0  0  0  # atno 17342 bound_to 10162
  139.8486  144.7175  150.9242 LP  0  0  0  0  0  0  0  0  0  0  0  0  # atno 17343 bound_to 10162
  156.9717  130.5493  149.5291 LP  0  0  0  0  0  0  0  0  0  0  0  0  # atno 17370 bound_to 10713
  156.0372  130.5458  150.8682 LP  0  0  0  0  0  0  0  0  0  0  0  0  # atno 17371 bound_to 10713
  141.2206  133.7324  156.8956 LP  0  0  0  0  0  0  0  0  0  0  0  0  # atno 17394 bound_to 11000
  140.1609  134.9166  157.2713 LP  0  0  0  0  0  0  0  0  0  0  0  0  # atno 17395 bound_to 11000

$$$$
