AV-unprocessed.smi:771|AV-procd|sdf|3681|dock1
  -GOLD-   22720 1 93D 1   1.00000     0.00000
 Structure written by MMmdl.
 41 42  0  0  0  0  0  0  0  0  3 V2000
  146.0639  137.7581  155.1357 O   0  0  0  0  0  0  0  0  0  0  0  0
  146.6556  137.6303  154.0628 C   0  0  0  0  0  0  0  0  0  0  0  0
  147.2009  138.8550  153.3142 C   0  0  0  0  0  0  0  0  0  0  0  0
  148.2919  139.5373  154.0304 N   0  0  0  0  0  0  0  0  0  0  0  0
  149.4356  138.7720  154.3337 C   0  0  0  0  0  0  0  0  0  0  0  0
  150.4971  139.2953  154.9777 C   0  0  0  0  0  0  0  0  0  0  0  0
  151.6660  138.4968  155.2748 N   0  3  0  0  0  0  0  0  0  0  0  0
  152.5841  139.0102  155.9064 O   0  0  0  0  0  0  0  0  0  0  0  0
  151.7058  137.3322  154.8889 O   0  5  0  0  0  0  0  0  0  0  0  0
  150.4313  140.6924  155.3613 C   0  0  0  0  0  0  0  0  0  0  0  0
  149.3421  141.4306  155.0700 C   0  0  0  0  0  0  0  0  0  0  0  0
  148.1907  140.8605  154.3632 C   0  0  0  0  0  0  0  0  0  0  0  0
  147.1962  141.5316  154.0872 O   0  0  0  0  0  0  0  0  0  0  0  0
  146.8443  136.4451  153.4621 N   0  0  0  0  0  0  0  0  0  0  0  0
  146.4053  135.1509  153.9787 C   0  0  0  0  0  0  0  0  0  0  0  0
  145.6458  134.3146  152.9205 C   0  0  2  0  0  0  0  0  0  0  0  0
  145.5622  132.8214  153.3189 C   0  0  0  0  0  0  0  0  0  0  0  0
  144.8497  131.9715  152.2559 C   0  0  0  0  0  0  0  0  0  0  0  0
  145.5271  132.1146  150.8874 C   0  0  0  0  0  0  0  0  0  0  0  0
  145.5836  133.5874  150.4621 C   0  0  0  0  0  0  0  0  0  0  0  0
  146.2945  134.4527  151.5195 C   0  0  1  0  0  0  0  0  0  0  0  0
  146.2413  135.7955  151.0804 O   0  0  0  0  0  0  0  0  0  0  0  0
  147.5326  138.5524  152.3190 H   0  0  0  0  0  0  0  0  0  0  0  0
  146.3715  139.5421  153.1406 H   0  0  0  0  0  0  0  0  0  0  0  0
  149.3893  137.7455  153.9996 H   0  0  0  0  0  0  0  0  0  0  0  0
  151.2543  141.1569  155.8844 H   0  0  0  0  0  0  0  0  0  0  0  0
  149.3145  142.4695  155.3647 H   0  0  0  0  0  0  0  0  0  0  0  0
  147.3359  136.4369  152.5803 H   0  0  0  0  0  0  0  0  0  0  0  0
  147.3031  134.6226  154.2997 H   0  0  0  0  0  0  0  0  0  0  0  0
  145.7939  135.2707  154.8747 H   0  0  0  0  0  0  0  0  0  0  0  0
  144.6257  134.6974  152.8580 H   0  0  0  0  0  0  0  0  0  0  0  0
  146.5669  132.4294  153.4821 H   0  0  0  0  0  0  0  0  0  0  0  0
  145.0320  132.7073  154.2643 H   0  0  0  0  0  0  0  0  0  0  0  0
  144.8456  130.9244  152.5600 H   0  0  0  0  0  0  0  0  0  0  0  0
  143.8050  132.2765  152.1823 H   0  0  0  0  0  0  0  0  0  0  0  0
  146.5370  131.7047  150.9316 H   0  0  0  0  0  0  0  0  0  0  0  0
  144.9867  131.5315  150.1412 H   0  0  0  0  0  0  0  0  0  0  0  0
  146.0964  133.6721  149.5030 H   0  0  0  0  0  0  0  0  0  0  0  0
  144.5684  133.9542  150.3034 H   0  0  0  0  0  0  0  0  0  0  0  0
  147.3435  134.1582  151.5752 H   0  0  0  0  0  0  0  0  0  0  0  0
  147.0384  136.2297  151.3429 H   0  0  0  0  0  0  0  0  0  0  0  0
  1  2  2  0  0  0  0
  2  3  1  0  0  0  0
  2 14  1  0  0  0  0
  3  4  1  0  0  0  0
  3 23  1  0  0  0  0
  3 24  1  0  0  0  0
  4 12  1  0  0  0  0
  4  5  1  0  0  0  0
  5  6  2  0  0  0  0
  5 25  1  0  0  0  0
  6  7  1  0  0  0  0
  6 10  1  0  0  0  0
  7  8  2  0  0  0  0
  7  9  1  0  0  0  0
 10 11  2  0  0  0  0
 10 26  1  0  0  0  0
 11 12  1  0  0  0  0
 11 27  1  0  0  0  0
 12 13  2  0  0  0  0
 14 15  1  0  0  0  0
 14 28  1  0  0  0  0
 15 16  1  0  0  0  0
 15 29  1  0  0  0  0
 15 30  1  0  0  0  0
 16 21  1  0  0  0  0
 16 17  1  0  0  0  0
 16 31  1  0  0  0  0
 17 18  1  0  0  0  0
 17 32  1  0  0  0  0
 17 33  1  0  0  0  0
 18 19  1  0  0  0  0
 18 34  1  0  0  0  0
 18 35  1  0  0  0  0
 19 20  1  0  0  0  0
 19 36  1  0  0  0  0
 19 37  1  0  0  0  0
 20 21  1  0  0  0  0
 20 38  1  0  0  0  0
 20 39  1  0  0  0  0
 21 22  1  0  0  0  0
 21 40  1  0  0  0  0
 22 41  1  0  0  0  0
M  CHG  1   7   1
M  CHG  1   9  -1
M  END
> <s_m_source_file>
AV-unprocessed.smi

> <i_m_source_file_index>
771

> <i_lp_mmshare_version>
43012

> <i_f3d_flags>
0

> <s_epik_input>
Tz1jMVtjSF1bY0hdYyhbTitdKD1PKVtPLV0pW2NIXW4xW0NIMl1DKD1PKVtOSF1bQ0gyXVtDQEBIXTJbQ0gyXVtDSDJdW0NIMl1bQ0gyXVtDQEhdMltPSF0=

> <s_epik_cmdline>
J2VwaWtfcHl0aG9uJywgJy1waCcsICc3LjAnLCAnLXRuJywgJzgnLCAnLW1hJywgJzIwMCcsICctbWV0YWxfYmluZGluZycsICctaW1hZScsICc8aW5maWxlLm1hZT4nLCAnLW9tYWUnLCAnPG91dGZpbGUubWFlPic=

> <r_lp_tautomer_probability>
1

> <r_epik_Ionization_Penalty>
3.77175e-07

> <r_epik_Ionization_Penalty_Charging>
7.70067e-11

> <r_epik_Ionization_Penalty_Neutral>
3.77098e-07

> <r_epik_State_Penalty>
-0

> <r_epik_Charging_Adjusted_Penalty>
7.70067e-11

> <i_epik_Tot_Q>
0

> <i_epik_Tot_abs_Q>
2

> <r_epik_Metal_State_Penalty>
-0

> <b_epik_Metal_Only>
0

> <s_lp_Force_Field>
OPLS_2005

> <r_lp_Energy>
23.4116

> <b_lp_Chiralities_Consistent>
1

> <s_lp_Variant>
AV-unprocessed.smi:771-1

> <Gold.Version>
5.8.1

> <Gold.Id.Protein>
6NUR|6NUR_protein|mol2

> <Gold.PLP.Fitness>
48.0707

> <Gold.PLP.PLP>
-34.6469

> <Gold.PLP.part.hbond>
-3.8280

> <Gold.PLP.part.metal>
0.0000

> <Gold.PLP.part.buried>
-1.3856

> <Gold.PLP.part.nonpolar>
-28.4999

> <Gold.PLP.part.repulsive>
0.3179

> <Gold.PLP.ligand.clash>
0.0000

> <Gold.PLP.ligand.torsion>
0.2615

> <Gold.PLP.Chemscore.Hbond>
3.6000

> <Gold.PLP.Chemscore.CHOScore>
1.0000

> <Gold.PLP.Chemscore.Metal>
0.0000

> <Gold.Chemscore.Hbonds>
donor molecule, donor type, donor heavy atom, donor atom, acceptor molecule, acceptor atom, score
      L1  H    14    28       P1  7948  0.86
      L1  H    22    41       P1  7948  1.00
      P1  H  7997  8009       L1     8  0.78
      P1  H 10752 10764       L1     9  0.49
      L1  C     5    25       P1  7948  0.75

> <Gold.PLP.Chemscore.Internal.Correction>
0.1468

> <Gold.Rescore>
     Score         DG    S(hbond)    S(metal)    S(lipo)     H(rot)  DE(clash)    DE(int)     intcor
     16.27     -19.36       3.50        0.00      72.74       2.48       1.21       1.88       ----

> <Gold.Chemscore.Fitness>
16.2650

> <Gold.Chemscore.DG>
-19.3600

> <Gold.Chemscore.ZeroCoef>
-5.4800

> <Gold.Chemscore.Hbond>
3.5048

> <Gold.Chemscore.Metal>
0.0000

> <Gold.Chemscore.Lipo>
72.7415

> <Gold.Chemscore.Internal_Hbond>
0.0000

> <Gold.Chemscore.DEClash>
1.2128

> <Gold.Chemscore.DEInternal>
1.8821

> <Gold.Chemscore.Rot>
2.4753

> <Gold.Chemscore.Internal.Correction>
   9.000000E+99

> <Gold.Chemscore.Hbonds>
donor molecule, donor type, donor heavy atom, donor atom, acceptor molecule, acceptor atom, score
      L1  H    14    28       P1  7948  0.87
      L1  H    22    41       P1  7948  0.95
      P1  H  7997  8009       L1     8  0.77
      P1  H 10752 10764       L1     9  0.49

> <Gold.Chemscore.Hbond.Weighted>
-11.7061

> <Gold.Chemscore.Metal.Weighted>
-0.0000

> <Gold.Chemscore.Lipo.Weighted>
-8.5108

> <Gold.Chemscore.Internal_Hbond.Weighted>
0.0000

> <Gold.Chemscore.DEClash.Weighted>
1.2128

> <Gold.Chemscore.DEInternal.Weighted>
1.8821

> <Gold.Chemscore.Rot.Weighted>
6.3369

> <Gold.Chemscore.Internal.Correction.Weighted>
   9.000000E+99

> <Gold.Protein.RotatedTorsions>
[ 6907 6896 6895 6894 ] final  162.10 input  -60.11 | X-H torsion
[ 7974 7965 7964 7962 ] final  109.07 input  175.53 | X-H torsion
[ 8008 7997 7996 7995 ] final -150.73 input   59.86 | X-H torsion
[ 10167 10162 10161 10158 ] final  108.94 input  -65.29 | X-H torsion
[ 10718 10713 10712 10709 ] final  -33.82 input   66.30 | X-H torsion
[ 10763 10752 10751 10750 ] final  -86.14 input  -60.55 | X-H torsion
[ 11005 11000 10999 10996 ] final -118.54 input  -57.11 | X-H torsion

> <Gold.Protein.ActiveResidues>
 VAL166  LYS551  ARG553  GLY616  TRP617  ASP618  TYR619  PRO620  LYS621  CYS622 
 ASP623  PHE694  ASN695  SER759  ASP760  ASP761  ALA762  ILE779  LEU786  VAL792 
 PHE793  MET794  SER795  GLU796  ALA797  LYS798  CYS799  TRP800  GLU811  SER814 

> <Gold.Protein.RotatedAtoms>
  151.9456  133.3650  159.3980 H   0  0  0  0  0  0  0  0  0  0  0  0  # atno 6907 bound_to 6896
  150.6990  134.4394  159.5294 H   0  0  0  0  0  0  0  0  0  0  0  0  # atno 6908 bound_to 6896
  152.2058  134.8546  160.0553 H   0  0  0  0  0  0  0  0  0  0  0  0  # atno 6909 bound_to 6896
  145.2725  139.2661  143.3959 H   0  0  0  0  0  0  0  0  0  0  0  0  # atno 7974 bound_to 7965
  155.6281  140.0688  157.2657 H   0  0  0  0  0  0  0  0  0  0  0  0  # atno 8008 bound_to 7997
  154.4212  140.1772  156.1492 H   0  0  0  0  0  0  0  0  0  0  0  0  # atno 8009 bound_to 7997
  155.9955  140.3341  155.6797 H   0  0  0  0  0  0  0  0  0  0  0  0  # atno 8010 bound_to 7997
  139.6806  144.7118  151.1522 H   0  0  0  0  0  0  0  0  0  0  0  0  # atno 10167 bound_to 10162
  156.3580  130.4319  149.7647 H   0  0  0  0  0  0  0  0  0  0  0  0  # atno 10718 bound_to 10713
  154.6191  135.5460  153.7556 H   0  0  0  0  0  0  0  0  0  0  0  0  # atno 10763 bound_to 10752
  153.0230  135.6408  154.1466 H   0  0  0  0  0  0  0  0  0  0  0  0  # atno 10764 bound_to 10752
  154.1402  135.2909  155.3143 H   0  0  0  0  0  0  0  0  0  0  0  0  # atno 10765 bound_to 10752
  141.0279  134.0026  157.3187 H   0  0  0  0  0  0  0  0  0  0  0  0  # atno 11005 bound_to 11000
  146.3242  140.3171  142.8630 LP  0  0  0  0  0  0  0  0  0  0  0  0  # atno 17320 bound_to 7965
  144.9323  140.7988  143.5681 LP  0  0  0  0  0  0  0  0  0  0  0  0  # atno 17321 bound_to 7965
  140.7651  143.5705  150.9001 LP  0  0  0  0  0  0  0  0  0  0  0  0  # atno 17342 bound_to 10162
  139.9376  143.6419  152.3061 LP  0  0  0  0  0  0  0  0  0  0  0  0  # atno 17343 bound_to 10162
  156.4822  130.8046  151.3060 LP  0  0  0  0  0  0  0  0  0  0  0  0  # atno 17370 bound_to 10713
  157.7470  131.0002  150.2917 LP  0  0  0  0  0  0  0  0  0  0  0  0  # atno 17371 bound_to 10713
  139.9188  135.0199  156.7985 LP  0  0  0  0  0  0  0  0  0  0  0  0  # atno 17394 bound_to 11000
  140.6459  133.9776  155.7730 LP  0  0  0  0  0  0  0  0  0  0  0  0  # atno 17395 bound_to 11000

$$$$
