AV-unprocessed.smi:134|AV-procd|sdf|1168|dock5
  -GOLD-   2262018313D 1   1.00000     0.00000
 Structure written by MMmdl.
 51 54  0  0  0  0  0  0  0  0  1 V2000
  148.1202  137.3538  160.3490 O   0  0  0  0  0  0  0  0  0  0  0  0
  148.5401  136.3171  159.8375 C   0  0  0  0  0  0  0  0  0  0  0  0
  149.6766  136.4155  158.8021 C   0  0  0  0  0  0  0  0  0  0  0  0
  150.3499  137.7343  158.7286 N   0  0  0  0  0  0  0  0  0  0  0  0
  151.6535  137.8617  159.2705 C   0  0  0  0  0  0  0  0  0  0  0  0
  152.2254  136.9009  159.7870 O   0  0  0  0  0  0  0  0  0  0  0  0
  152.2450  139.1919  159.1858 C   0  0  0  0  0  0  0  0  0  0  0  0
  153.4756  139.4059  159.6814 F   0  0  0  0  0  0  0  0  0  0  0  0
  151.5730  140.2160  158.6217 C   0  0  0  0  0  0  0  0  0  0  0  0
  150.3026  140.0775  158.0920 N   0  0  0  0  0  0  0  0  0  0  0  0
  149.5753  141.2449  157.4573 C   0  0  1  0  0  0  0  0  0  0  0  0
  149.4887  142.4161  158.4399 C   0  0  0  0  0  0  0  0  0  0  0  0
  150.7551  143.1783  158.1215 C   0  0  0  0  0  0  0  0  0  0  0  0
  150.8617  142.9795  156.6131 C   0  0  0  0  0  0  0  0  0  0  0  0
  150.2997  141.6945  156.3484 O   0  0  0  0  0  0  0  0  0  0  0  0
  149.6577  138.8225  158.1453 C   0  0  0  0  0  0  0  0  0  0  0  0
  148.5157  138.6846  157.7020 O   0  0  0  0  0  0  0  0  0  0  0  0
  148.0827  135.0878  160.1435 N   0  0  0  0  0  0  0  0  0  0  0  0
  147.0466  134.7132  161.0423 C   0  0  0  0  0  0  0  0  0  0  0  0
  146.4554  135.6284  161.9469 C   0  0  0  0  0  0  0  0  0  0  0  0
  145.4076  135.2172  162.7932 C   0  0  0  0  0  0  0  0  0  0  0  0
  144.9321  133.8942  162.7380 C   0  0  0  0  0  0  0  0  0  0  0  0
  145.5014  132.9816  161.8309 C   0  0  0  0  0  0  0  0  0  0  0  0
  146.5520  133.3875  160.9838 C   0  0  0  0  0  0  0  0  0  0  0  0
  147.2479  132.2108  159.8614 S   0  0  0  0  0  0  0  0  0  0  0  0
  147.6537  130.9154  160.9850 C   0  0  0  0  0  0  0  0  0  0  0  0
  146.6940  129.9360  161.3096 C   0  0  0  0  0  0  0  0  0  0  0  0
  147.0159  128.9122  162.2209 C   0  0  0  0  0  0  0  0  0  0  0  0
  148.2979  128.8652  162.8036 C   0  0  0  0  0  0  0  0  0  0  0  0
  148.6911  127.6130  163.9233 Cl  0  0  0  0  0  0  0  0  0  0  0  0
  149.2591  129.8413  162.4726 C   0  0  0  0  0  0  0  0  0  0  0  0
  148.9377  130.8670  161.5623 C   0  0  0  0  0  0  0  0  0  0  0  0
  150.4010  135.6305  159.0241 H   0  0  0  0  0  0  0  0  0  0  0  0
  149.2735  136.1264  157.8304 H   0  0  0  0  0  0  0  0  0  0  0  0
  152.0611  141.1787  158.5949 H   0  0  0  0  0  0  0  0  0  0  0  0
  148.6070  140.8554  157.1385 H   0  0  0  0  0  0  0  0  0  0  0  0
  148.6086  143.0127  158.1972 H   0  0  0  0  0  0  0  0  0  0  0  0
  149.4190  142.0860  159.4744 H   0  0  0  0  0  0  0  0  0  0  0  0
  150.7085  144.2279  158.4124 H   0  0  0  0  0  0  0  0  0  0  0  0
  151.6066  142.7212  158.6272 H   0  0  0  0  0  0  0  0  0  0  0  0
  150.2686  143.7307  156.0901 H   0  0  0  0  0  0  0  0  0  0  0  0
  151.8886  143.0484  156.2539 H   0  0  0  0  0  0  0  0  0  0  0  0
  148.5889  134.3180  159.7302 H   0  0  0  0  0  0  0  0  0  0  0  0
  146.7792  136.6567  161.9959 H   0  0  0  0  0  0  0  0  0  0  0  0
  144.9629  135.9219  163.4804 H   0  0  0  0  0  0  0  0  0  0  0  0
  144.1272  133.5813  163.3867 H   0  0  0  0  0  0  0  0  0  0  0  0
  145.1316  131.9675  161.7885 H   0  0  0  0  0  0  0  0  0  0  0  0
  145.7110  129.9677  160.8647 H   0  0  0  0  0  0  0  0  0  0  0  0
  146.2782  128.1643  162.4720 H   0  0  0  0  0  0  0  0  0  0  0  0
  150.2426  129.8058  162.9178 H   0  0  0  0  0  0  0  0  0  0  0  0
  149.6751  131.6159  161.3128 H   0  0  0  0  0  0  0  0  0  0  0  0
  1  2  2  0  0  0  0
  2  3  1  0  0  0  0
  2 18  1  0  0  0  0
  3  4  1  0  0  0  0
  3 33  1  0  0  0  0
  3 34  1  0  0  0  0
  4 16  1  0  0  0  0
  4  5  1  0  0  0  0
  5  6  2  0  0  0  0
  5  7  1  0  0  0  0
  7  8  1  0  0  0  0
  7  9  2  0  0  0  0
  9 10  1  0  0  0  0
  9 35  1  0  0  0  0
 10 11  1  0  0  0  0
 10 16  1  0  0  0  0
 11 15  1  0  0  0  0
 11 12  1  0  0  0  0
 11 36  1  0  0  0  0
 12 13  1  0  0  0  0
 12 37  1  0  0  0  0
 12 38  1  0  0  0  0
 13 14  1  0  0  0  0
 13 39  1  0  0  0  0
 13 40  1  0  0  0  0
 14 15  1  0  0  0  0
 14 41  1  0  0  0  0
 14 42  1  0  0  0  0
 16 17  2  0  0  0  0
 18 19  1  0  0  0  0
 18 43  1  0  0  0  0
 19 24  1  0  0  0  0
 19 20  2  0  0  0  0
 20 21  1  0  0  0  0
 20 44  1  0  0  0  0
 21 22  2  0  0  0  0
 21 45  1  0  0  0  0
 22 23  1  0  0  0  0
 22 46  1  0  0  0  0
 23 24  2  0  0  0  0
 23 47  1  0  0  0  0
 24 25  1  0  0  0  0
 25 26  1  0  0  0  0
 26 32  1  0  0  0  0
 26 27  2  0  0  0  0
 27 28  1  0  0  0  0
 27 48  1  0  0  0  0
 28 29  2  0  0  0  0
 28 49  1  0  0  0  0
 29 30  1  0  0  0  0
 29 31  1  0  0  0  0
 31 32  2  0  0  0  0
 31 50  1  0  0  0  0
 32 51  1  0  0  0  0
M  END
> <s_m_source_file>
AV-unprocessed.smi

> <i_m_source_file_index>
134

> <i_lp_mmshare_version>
43012

> <i_f3d_flags>
0

> <s_epik_input>
TzFbQ0gyXVtDSDJdW0NIMl1bQ0BIXTFuKGMyPU8pW2NIXWMoRiljKD1PKW4yW0NIMl1DKD1PKVtOSF1jM1tjSF1bY0hdW2NIXVtjSF1jM1NjNFtjSF1bY0hdYyhDbClbY0hdW2NIXTQ=

> <s_epik_cmdline>
J2VwaWtfcHl0aG9uJywgJy1waCcsICc3LjAnLCAnLXRuJywgJzgnLCAnLW1hJywgJzIwMCcsICctbWV0YWxfYmluZGluZycsICctaW1hZScsICc8aW5maWxlLm1hZT4nLCAnLW9tYWUnLCAnPG91dGZpbGUubWFlPic=

> <r_lp_tautomer_probability>
1

> <r_epik_Ionization_Penalty>
2.01717e-06

> <r_epik_Ionization_Penalty_Charging>
3.88729e-08

> <r_epik_Ionization_Penalty_Neutral>
1.9783e-06

> <r_epik_State_Penalty>
-0

> <r_epik_Charging_Adjusted_Penalty>
3.88729e-08

> <i_epik_Tot_Q>
0

> <i_epik_Tot_abs_Q>
0

> <r_epik_Metal_State_Penalty>
-0

> <b_epik_Metal_Only>
0

> <s_epik_Chemistry_Notes>
This compound contains an acetal/aminal-like group ( X-CH(R)-Y where X, Y are N, S, or O) that may be acid/base labile, releasing an aldehyde.

> <s_lp_Force_Field>
OPLS_2005

> <r_lp_Energy>
34.7756

> <b_lp_Chiralities_Consistent>
1

> <s_lp_Variant>
AV-unprocessed.smi:134-2

> <Gold.Version>
5.8.1

> <Gold.Id.Protein>
6NUR|6NUR_protein|mol2

> <Gold.PLP.Fitness>
50.1274

> <Gold.PLP.PLP>
-45.0648

> <Gold.PLP.part.hbond>
-3.0000

> <Gold.PLP.part.metal>
0.0000

> <Gold.PLP.part.buried>
-2.6138

> <Gold.PLP.part.nonpolar>
-39.6775

> <Gold.PLP.part.repulsive>
0.1793

> <Gold.PLP.ligand.clash>
0.0000

> <Gold.PLP.ligand.torsion>
0.7541

> <Gold.PLP.Chemscore.Hbond>
2.1599

> <Gold.PLP.Chemscore.CHOScore>
0.0000

> <Gold.PLP.Chemscore.Metal>
0.0000

> <Gold.Chemscore.Hbonds>
donor molecule, donor type, donor heavy atom, donor atom, acceptor molecule, acceptor atom, score
      P1  H  6896  6909       L1     6  1.00
      P1  H  6931  6943       L1     1  0.64
      P1  H  6934  6947       L1     1  0.66

> <Gold.PLP.Chemscore.Internal.Correction>
0.0912

> <Gold.Rescore>
     Score         DG    S(hbond)    S(metal)    S(lipo)     H(rot)  DE(clash)    DE(int)     intcor
     19.26     -21.69       2.18        0.00     119.10       1.95       0.53       1.91       ----

> <Gold.Chemscore.Fitness>
19.2596

> <Gold.Chemscore.DG>
-21.6925

> <Gold.Chemscore.ZeroCoef>
-5.4800

> <Gold.Chemscore.Hbond>
2.1802

> <Gold.Chemscore.Metal>
0.0000

> <Gold.Chemscore.Lipo>
119.1050

> <Gold.Chemscore.Internal_Hbond>
0.0000

> <Gold.Chemscore.DEClash>
0.5271

> <Gold.Chemscore.DEInternal>
1.9058

> <Gold.Chemscore.Rot>
1.9549

> <Gold.Chemscore.Internal.Correction>
   9.000000E+99

> <Gold.Chemscore.Hbonds>
donor molecule, donor type, donor heavy atom, donor atom, acceptor molecule, acceptor atom, score
      P1  H  6896  6909       L1     6  1.00
      P1  H  6931  6943       L1     1  0.61
      P1  H  6934  6947       L1     1  0.64

> <Gold.Chemscore.Hbond.Weighted>
-7.2819

> <Gold.Chemscore.Metal.Weighted>
-0.0000

> <Gold.Chemscore.Lipo.Weighted>
-13.9353

> <Gold.Chemscore.Internal_Hbond.Weighted>
0.0000

> <Gold.Chemscore.DEClash.Weighted>
0.5271

> <Gold.Chemscore.DEInternal.Weighted>
1.9058

> <Gold.Chemscore.Rot.Weighted>
5.0046

> <Gold.Chemscore.Internal.Correction.Weighted>
   9.000000E+99

> <Gold.Protein.RotatedTorsions>
[ 6907 6896 6895 6894 ] final  124.86 input  -60.11 | X-H torsion
[ 7974 7965 7964 7962 ] final  170.99 input  175.53 | X-H torsion
[ 8008 7997 7996 7995 ] final  120.01 input   59.86 | X-H torsion
[ 10167 10162 10161 10158 ] final  -23.38 input  -65.29 | X-H torsion
[ 10718 10713 10712 10709 ] final   -9.80 input   66.30 | X-H torsion
[ 10763 10752 10751 10750 ] final  179.67 input  -60.55 | X-H torsion
[ 11005 11000 10999 10996 ] final   -4.96 input  -57.11 | X-H torsion

> <Gold.Protein.ActiveResidues>
 VAL166  LYS551  ARG553  GLY616  TRP617  ASP618  TYR619  PRO620  LYS621  CYS622 
 ASP623  PHE694  ASN695  SER759  ASP760  ASP761  ALA762  ILE779  LEU786  VAL792 
 PHE793  MET794  SER795  GLU796  ALA797  LYS798  CYS799  TRP800  GLU811  SER814 

> <Gold.Protein.RotatedAtoms>
  152.4042  133.6863  159.6341 H   0  0  0  0  0  0  0  0  0  0  0  0  # atno 6907 bound_to 6896
  150.7929  133.8738  159.3275 H   0  0  0  0  0  0  0  0  0  0  0  0  # atno 6908 bound_to 6896
  151.6496  135.1005  160.0209 H   0  0  0  0  0  0  0  0  0  0  0  0  # atno 6909 bound_to 6896
  144.7307  139.9284  143.6423 H   0  0  0  0  0  0  0  0  0  0  0  0  # atno 7974 bound_to 7965
  156.2623  140.2840  156.1082 H   0  0  0  0  0  0  0  0  0  0  0  0  # atno 8008 bound_to 7997
  155.1286  140.0393  157.2786 H   0  0  0  0  0  0  0  0  0  0  0  0  # atno 8009 bound_to 7997
  154.6617  140.2568  155.7108 H   0  0  0  0  0  0  0  0  0  0  0  0  # atno 8010 bound_to 7997
  140.7288  143.4449  151.0602 H   0  0  0  0  0  0  0  0  0  0  0  0  # atno 10167 bound_to 10162
  156.6828  130.5042  149.5966 H   0  0  0  0  0  0  0  0  0  0  0  0  # atno 10718 bound_to 10713
  154.5237  135.2795  155.1241 H   0  0  0  0  0  0  0  0  0  0  0  0  # atno 10763 bound_to 10752
  154.2788  135.6289  153.5342 H   0  0  0  0  0  0  0  0  0  0  0  0  # atno 10764 bound_to 10752
  152.9942  135.5646  154.5732 H   0  0  0  0  0  0  0  0  0  0  0  0  # atno 10765 bound_to 10752
  140.6859  133.9113  155.8586 H   0  0  0  0  0  0  0  0  0  0  0  0  # atno 11005 bound_to 11000
  146.0876  139.3865  143.0425 LP  0  0  0  0  0  0  0  0  0  0  0  0  # atno 17320 bound_to 7965
  145.7755  140.9878  143.1127 LP  0  0  0  0  0  0  0  0  0  0  0  0  # atno 17321 bound_to 7965
  139.8119  143.7938  152.3172 LP  0  0  0  0  0  0  0  0  0  0  0  0  # atno 17342 bound_to 10162
  139.7991  144.7381  150.9849 LP  0  0  0  0  0  0  0  0  0  0  0  0  # atno 17343 bound_to 10162
  156.1855  130.6526  151.1001 LP  0  0  0  0  0  0  0  0  0  0  0  0  # atno 17370 bound_to 10713
  157.7037  131.0765  150.6736 LP  0  0  0  0  0  0  0  0  0  0  0  0  # atno 17371 bound_to 10713
  141.0280  134.0796  157.4046 LP  0  0  0  0  0  0  0  0  0  0  0  0  # atno 17394 bound_to 11000
  139.8938  135.0132  156.6916 LP  0  0  0  0  0  0  0  0  0  0  0  0  # atno 17395 bound_to 11000

$$$$
