AV-unprocessed.smi:720|AV-procd|sdf|3502|dock3
  -GOLD-   22720 0493D 1   1.00000     0.00000
 Structure written by MMmdl.
 46 48  0  0  0  0  0  0  0  0  1 V2000
  151.8374  141.6245  158.5654 C   0  0  0  0  0  0  0  0  0  0  0  0
  151.0675  142.6439  157.8625 N   0  0  0  0  0  0  0  0  0  0  0  0
  150.4789  143.5340  158.8546 C   0  0  0  0  0  0  0  0  0  0  0  0
  149.9955  142.0622  157.0529 C   0  0  0  0  0  0  0  0  0  0  0  0
  150.4943  141.3753  155.7634 C   0  0  0  0  0  0  0  0  0  0  0  0
  149.4191  140.9168  154.9004 N   0  0  0  0  0  0  0  0  0  0  0  0
  148.4021  141.6574  154.3302 C   0  0  0  0  0  0  0  0  0  0  0  0
  147.6439  140.8063  153.5777 C   0  0  0  0  0  0  0  0  0  0  0  0
  148.2946  139.5538  153.7466 C   0  0  0  0  0  0  0  0  0  0  0  0
  147.7959  138.3900  153.1095 N   0  0  0  0  0  0  0  0  0  0  0  0
  146.5426  137.8974  153.1525 C   0  0  0  0  0  0  0  0  0  0  0  0
  145.6134  138.4047  153.7782 O   0  0  0  0  0  0  0  0  0  0  0  0
  146.3665  136.7766  152.4299 N   0  0  0  0  0  0  0  0  0  0  0  0
  145.1379  135.9948  152.2650 C   0  0  1  0  0  0  0  0  0  0  0  0
  144.8535  135.7119  150.7733 C   0  0  0  0  0  0  0  0  0  0  0  0
  144.7981  134.1743  150.7131 C   0  0  1  0  0  0  0  0  0  0  0  0
  146.2159  133.5993  150.8946 C   0  0  0  0  0  0  0  0  0  0  0  0
  146.4867  133.8272  152.3937 C   0  0  0  0  0  0  0  0  0  0  0  0
  145.2117  134.5633  152.8584 C   0  0  2  0  0  0  0  0  0  0  0  0
  144.1451  133.8360  152.0466 C   0  0  0  0  0  0  0  0  0  0  0  0
  149.3653  139.6200  154.5252 N   0  0  0  0  0  0  0  0  0  0  0  0
  152.4019  141.0089  157.8680 H   0  0  0  0  0  0  0  0  0  0  0  0
  151.1928  140.9748  159.1585 H   0  0  0  0  0  0  0  0  0  0  0  0
  152.5638  142.0874  159.2344 H   0  0  0  0  0  0  0  0  0  0  0  0
  149.9189  144.3344  158.3696 H   0  0  0  0  0  0  0  0  0  0  0  0
  151.2551  144.0004  159.4622 H   0  0  0  0  0  0  0  0  0  0  0  0
  149.8011  142.9965  159.5196 H   0  0  0  0  0  0  0  0  0  0  0  0
  149.3759  141.3912  157.6497 H   0  0  0  0  0  0  0  0  0  0  0  0
  149.3423  142.8790  156.7425 H   0  0  0  0  0  0  0  0  0  0  0  0
  151.0800  142.0903  155.1847 H   0  0  0  0  0  0  0  0  0  0  0  0
  151.1668  140.5477  155.9960 H   0  0  0  0  0  0  0  0  0  0  0  0
  148.3027  142.7180  154.5080 H   0  0  0  0  0  0  0  0  0  0  0  0
  146.7641  141.0441  152.9983 H   0  0  0  0  0  0  0  0  0  0  0  0
  148.4598  137.8806  152.5454 H   0  0  0  0  0  0  0  0  0  0  0  0
  147.1744  136.4335  151.9306 H   0  0  0  0  0  0  0  0  0  0  0  0
  144.2915  136.5377  152.6901 H   0  0  0  0  0  0  0  0  0  0  0  0
  143.8947  136.1428  150.4820 H   0  0  0  0  0  0  0  0  0  0  0  0
  145.6118  136.1179  150.1021 H   0  0  0  0  0  0  0  0  0  0  0  0
  144.2797  133.7904  149.8341 H   0  0  0  0  0  0  0  0  0  0  0  0
  146.2399  132.5348  150.6584 H   0  0  0  0  0  0  0  0  0  0  0  0
  146.9476  134.1003  150.2599 H   0  0  0  0  0  0  0  0  0  0  0  0
  146.5813  132.8706  152.9092 H   0  0  0  0  0  0  0  0  0  0  0  0
  147.4054  134.3843  152.5769 H   0  0  0  0  0  0  0  0  0  0  0  0
  145.0615  134.5281  153.9379 H   0  0  0  0  0  0  0  0  0  0  0  0
  143.1475  134.2634  152.1610 H   0  0  0  0  0  0  0  0  0  0  0  0
  144.1002  132.7640  152.2477 H   0  0  0  0  0  0  0  0  0  0  0  0
  1  2  1  0  0  0  0
  1 22  1  0  0  0  0
  1 23  1  0  0  0  0
  1 24  1  0  0  0  0
  2  3  1  0  0  0  0
  2  4  1  0  0  0  0
  3 25  1  0  0  0  0
  3 26  1  0  0  0  0
  3 27  1  0  0  0  0
  4  5  1  0  0  0  0
  4 28  1  0  0  0  0
  4 29  1  0  0  0  0
  5  6  1  0  0  0  0
  5 30  1  0  0  0  0
  5 31  1  0  0  0  0
  6 21  1  0  0  0  0
  6  7  1  0  0  0  0
  7  8  2  0  0  0  0
  7 32  1  0  0  0  0
  8  9  1  0  0  0  0
  8 33  1  0  0  0  0
  9 10  1  0  0  0  0
  9 21  2  0  0  0  0
 10 11  1  0  0  0  0
 10 34  1  0  0  0  0
 11 12  2  0  0  0  0
 11 13  1  0  0  0  0
 13 14  1  0  0  0  0
 13 35  1  0  0  0  0
 14 19  1  0  0  0  0
 14 15  1  0  0  0  0
 14 36  1  0  0  0  0
 15 16  1  0  0  0  0
 15 37  1  0  0  0  0
 15 38  1  0  0  0  0
 16 20  1  0  0  0  0
 16 17  1  0  0  0  0
 16 39  1  0  0  0  0
 17 18  1  0  0  0  0
 17 40  1  0  0  0  0
 17 41  1  0  0  0  0
 18 19  1  0  0  0  0
 18 42  1  0  0  0  0
 18 43  1  0  0  0  0
 19 20  1  0  0  0  0
 19 44  1  0  0  0  0
 20 45  1  0  0  0  0
 20 46  1  0  0  0  0
M  END
> <s_m_source_file>
AV-unprocessed.smi

> <i_m_source_file_index>
720

> <i_lp_mmshare_version>
43012

> <i_f3d_flags>
0

> <s_epik_input>
W0NIM11OKFtDSDNdKVtDSDJdW0NIMl1uMVtjSF1bY0hdYyhuMSlbTkhdQyg9TylbTkhdW0NASF0oW0NIMl1bQ0BIXTIzKVtDQEhdKFtDSDJdMylbQ0gyXVtDSDJdMg==

> <s_epik_cmdline>
J2VwaWtfcHl0aG9uJywgJy1waCcsICc3LjAnLCAnLXRuJywgJzgnLCAnLW1hJywgJzIwMCcsICctbWV0YWxfYmluZGluZycsICctaW1hZScsICc8aW5maWxlLm1hZT4nLCAnLW9tYWUnLCAnPG91dGZpbGUubWFlPic=

> <r_lp_tautomer_probability>
1

> <r_epik_Ionization_Penalty>
1.83819

> <r_epik_Ionization_Penalty_Charging>
0

> <r_epik_Ionization_Penalty_Neutral>
1.83819

> <r_epik_State_Penalty>
1.95467

> <r_epik_Charging_Adjusted_Penalty>
1.95467

> <i_epik_Tot_Q>
0

> <i_epik_Tot_abs_Q>
0

> <r_epik_Metal_State_Penalty>
1.95467

> <b_epik_Metal_Only>
0

> <s_lp_Force_Field>
OPLS_2005

> <r_lp_Energy>
62.953

> <b_lp_Chiralities_Consistent>
1

> <s_lp_Variant>
AV-unprocessed.smi:720-8

> <Gold.Version>
5.8.1

> <Gold.Id.Protein>
6NUR|6NUR_protein|mol2

> <Gold.PLP.Fitness>
42.8467

> <Gold.PLP.PLP>
-35.1676

> <Gold.PLP.part.hbond>
-2.6586

> <Gold.PLP.part.metal>
0.0000

> <Gold.PLP.part.buried>
-2.8101

> <Gold.PLP.part.nonpolar>
-30.9442

> <Gold.PLP.part.repulsive>
0.5209

> <Gold.PLP.ligand.clash>
0.0000

> <Gold.PLP.ligand.torsion>
0.6463

> <Gold.PLP.Chemscore.Hbond>
1.9680

> <Gold.PLP.Chemscore.CHOScore>
1.0000

> <Gold.PLP.Chemscore.Metal>
0.0000

> <Gold.Chemscore.Hbonds>
donor molecule, donor type, donor heavy atom, donor atom, acceptor molecule, acceptor atom, score
      L1  H    10    34       P1  7948  0.96
      L1  H    13    35       P1  7948  0.99
      L1  C     7    32       P1  8028  1.00

> <Gold.PLP.Chemscore.Internal.Correction>
0.0677

> <Gold.Rescore>
     Score         DG    S(hbond)    S(metal)    S(lipo)     H(rot)  DE(clash)    DE(int)     intcor
     16.57     -17.36       1.94        0.00      79.52       1.53       0.06       0.72       ----

> <Gold.Chemscore.Fitness>
16.5710

> <Gold.Chemscore.DG>
-17.3595

> <Gold.Chemscore.ZeroCoef>
-5.4800

> <Gold.Chemscore.Hbond>
1.9447

> <Gold.Chemscore.Metal>
0.0000

> <Gold.Chemscore.Lipo>
79.5213

> <Gold.Chemscore.Internal_Hbond>
0.0000

> <Gold.Chemscore.DEClash>
0.0636

> <Gold.Chemscore.DEInternal>
0.7249

> <Gold.Chemscore.Rot>
1.5312

> <Gold.Chemscore.Internal.Correction>
   9.000000E+99

> <Gold.Chemscore.Hbonds>
donor molecule, donor type, donor heavy atom, donor atom, acceptor molecule, acceptor atom, score
      L1  H    10    34       P1  7948  0.92
      L1  H    13    35       P1  7948  0.94

> <Gold.Chemscore.Hbond.Weighted>
-6.4954

> <Gold.Chemscore.Metal.Weighted>
-0.0000

> <Gold.Chemscore.Lipo.Weighted>
-9.3040

> <Gold.Chemscore.Internal_Hbond.Weighted>
0.0000

> <Gold.Chemscore.DEClash.Weighted>
0.0636

> <Gold.Chemscore.DEInternal.Weighted>
0.7249

> <Gold.Chemscore.Rot.Weighted>
3.9199

> <Gold.Chemscore.Internal.Correction.Weighted>
   9.000000E+99

> <Gold.Protein.RotatedTorsions>
[ 6907 6896 6895 6894 ] final  105.52 input  -60.11 | X-H torsion
[ 7974 7965 7964 7962 ] final  105.56 input  175.53 | X-H torsion
[ 8008 7997 7996 7995 ] final  -61.48 input   59.86 | X-H torsion
[ 10167 10162 10161 10158 ] final -143.15 input  -65.29 | X-H torsion
[ 10718 10713 10712 10709 ] final -133.98 input   66.30 | X-H torsion
[ 10763 10752 10751 10750 ] final -137.08 input  -60.55 | X-H torsion
[ 11005 11000 10999 10996 ] final  -90.12 input  -57.11 | X-H torsion

> <Gold.Protein.ActiveResidues>
 VAL166  LYS551  ARG553  GLY616  TRP617  ASP618  TYR619  PRO620  LYS621  CYS622 
 ASP623  PHE694  ASN695  SER759  ASP760  ASP761  ALA762  ILE779  LEU786  VAL792 
 PHE793  MET794  SER795  GLU796  ALA797  LYS798  CYS799  TRP800  GLU811  SER814 

> <Gold.Protein.RotatedAtoms>
  152.5227  133.9517  159.7674 H   0  0  0  0  0  0  0  0  0  0  0  0  # atno 6907 bound_to 6896
  150.9825  133.6222  159.2727 H   0  0  0  0  0  0  0  0  0  0  0  0  # atno 6908 bound_to 6896
  151.3395  135.0866  159.9419 H   0  0  0  0  0  0  0  0  0  0  0  0  # atno 6909 bound_to 6896
  145.3181  139.2520  143.3726 H   0  0  0  0  0  0  0  0  0  0  0  0  # atno 7974 bound_to 7965
  154.4450  140.1017  156.6437 H   0  0  0  0  0  0  0  0  0  0  0  0  # atno 8008 bound_to 7997
  155.5474  140.3485  155.4442 H   0  0  0  0  0  0  0  0  0  0  0  0  # atno 8009 bound_to 7997
  156.0554  140.1313  156.9992 H   0  0  0  0  0  0  0  0  0  0  0  0  # atno 8010 bound_to 7997
  139.8021  143.7819  152.2659 H   0  0  0  0  0  0  0  0  0  0  0  0  # atno 10167 bound_to 10162
  156.2506  130.7151  151.1048 H   0  0  0  0  0  0  0  0  0  0  0  0  # atno 10718 bound_to 10713
  154.8670  135.3653  154.5165 H   0  0  0  0  0  0  0  0  0  0  0  0  # atno 10763 bound_to 10752
  153.5797  135.7018  153.5473 H   0  0  0  0  0  0  0  0  0  0  0  0  # atno 10764 bound_to 10752
  153.3468  135.4083  155.1577 H   0  0  0  0  0  0  0  0  0  0  0  0  # atno 10765 bound_to 10752
  141.1572  133.7672  156.9692 H   0  0  0  0  0  0  0  0  0  0  0  0  # atno 11005 bound_to 11000
  146.3093  140.3732  142.8676 LP  0  0  0  0  0  0  0  0  0  0  0  0  # atno 17320 bound_to 7965
  144.8961  140.7585  143.5896 LP  0  0  0  0  0  0  0  0  0  0  0  0  # atno 17321 bound_to 7965
  139.7942  144.7398  150.9912 LP  0  0  0  0  0  0  0  0  0  0  0  0  # atno 17342 bound_to 10162
  140.7820  143.4410  151.0551 LP  0  0  0  0  0  0  0  0  0  0  0  0  # atno 17343 bound_to 10162
  157.7213  131.0680  150.6124 LP  0  0  0  0  0  0  0  0  0  0  0  0  # atno 17370 bound_to 10713
  156.6204  130.4404  149.5824 LP  0  0  0  0  0  0  0  0  0  0  0  0  # atno 17371 bound_to 10713
  140.1140  134.9459  157.2108 LP  0  0  0  0  0  0  0  0  0  0  0  0  # atno 17394 bound_to 11000
  140.3156  134.2974  155.7257 LP  0  0  0  0  0  0  0  0  0  0  0  0  # atno 17395 bound_to 11000

$$$$
