AV-unprocessed.smi:1302|AV-procd|sdf|5427|dock10
  -GOLD-   22720 4583D 1   1.00000     0.00000
 Structure written by MMmdl.
 43 44  0  0  0  0  0  0  0  0  1 V2000
  156.5844  137.5528  165.5042 C   0  0  0  0  0  0  0  0  0  0  0  0
  157.4158  138.1346  164.3530 C   0  0  0  0  0  0  0  0  0  0  0  0
  158.5242  139.0663  164.8679 C   0  0  0  0  0  0  0  0  0  0  0  0
  156.5358  138.8483  163.4320 N   0  0  0  0  0  0  0  0  0  0  0  0
  156.4039  138.5879  162.1206 C   0  0  0  0  0  0  0  0  0  0  0  0
  157.0452  137.7175  161.5314 O   0  0  0  0  0  0  0  0  0  0  0  0
  155.4576  139.4830  161.3738 C   0  0  0  0  0  0  0  0  0  0  0  0
  154.7932  140.5381  162.0337 C   0  0  0  0  0  0  0  0  0  0  0  0
  153.9289  141.3718  161.2985 C   0  0  0  0  0  0  0  0  0  0  0  0
  153.7530  141.1361  159.9148 C   0  0  0  0  0  0  0  0  0  0  0  0
  152.8878  141.9575  159.1609 N   0  0  0  0  0  0  0  0  0  0  0  0
  152.4523  143.1851  159.8208 C   0  0  0  0  0  0  0  0  0  0  0  0
  151.7947  144.1512  158.8156 C   0  0  1  0  0  0  0  0  0  0  0  0
  152.8069  144.8675  157.9036 C   0  0  0  0  0  0  0  0  0  0  0  0
  150.7794  143.4752  158.0704 O   0  0  0  0  0  0  0  0  0  0  0  0
  151.2215  142.3065  157.3812 C   0  0  2  0  0  0  0  0  0  0  0  0
  150.0197  141.7074  156.6435 C   0  0  0  0  0  0  0  0  0  0  0  0
  151.8293  141.3141  158.3879 C   0  0  0  0  0  0  0  0  0  0  0  0
  154.4065  140.1332  159.2780 N   0  0  0  0  0  0  0  0  0  0  0  0
  155.2337  139.3364  159.9868 C   0  0  0  0  0  0  0  0  0  0  0  0
  157.2126  136.9892  166.1945 H   0  0  0  0  0  0  0  0  0  0  0  0
  155.8164  136.8746  165.1307 H   0  0  0  0  0  0  0  0  0  0  0  0
  156.0877  138.3393  166.0735 H   0  0  0  0  0  0  0  0  0  0  0  0
  157.8804  137.2997  163.8250 H   0  0  0  0  0  0  0  0  0  0  0  0
  159.1885  138.5414  165.5549 H   0  0  0  0  0  0  0  0  0  0  0  0
  158.1083  139.9239  165.3977 H   0  0  0  0  0  0  0  0  0  0  0  0
  159.1357  139.4457  164.0485 H   0  0  0  0  0  0  0  0  0  0  0  0
  155.9861  139.6002  163.8219 H   0  0  0  0  0  0  0  0  0  0  0  0
  154.9376  140.7123  163.0902 H   0  0  0  0  0  0  0  0  0  0  0  0
  153.4258  142.1861  161.7980 H   0  0  0  0  0  0  0  0  0  0  0  0
  151.7311  142.9164  160.5938 H   0  0  0  0  0  0  0  0  0  0  0  0
  153.2734  143.6926  160.3254 H   0  0  0  0  0  0  0  0  0  0  0  0
  151.2843  144.9264  159.3878 H   0  0  0  0  0  0  0  0  0  0  0  0
  153.4869  145.4840  158.4919 H   0  0  0  0  0  0  0  0  0  0  0  0
  152.2977  145.5223  157.1963 H   0  0  0  0  0  0  0  0  0  0  0  0
  153.4182  144.1682  157.3339 H   0  0  0  0  0  0  0  0  0  0  0  0
  151.9712  142.5789  156.6380 H   0  0  0  0  0  0  0  0  0  0  0  0
  150.3053  140.8133  156.0890 H   0  0  0  0  0  0  0  0  0  0  0  0
  149.6044  142.4210  155.9316 H   0  0  0  0  0  0  0  0  0  0  0  0
  149.2267  141.4312  157.3393 H   0  0  0  0  0  0  0  0  0  0  0  0
  152.2256  140.4519  157.8497 H   0  0  0  0  0  0  0  0  0  0  0  0
  151.0597  140.9485  159.0694 H   0  0  0  0  0  0  0  0  0  0  0  0
  155.7291  138.5623  159.4190 H   0  0  0  0  0  0  0  0  0  0  0  0
  1  2  1  0  0  0  0
  1 21  1  0  0  0  0
  1 22  1  0  0  0  0
  1 23  1  0  0  0  0
  2  3  1  0  0  0  0
  2  4  1  0  0  0  0
  2 24  1  0  0  0  0
  3 25  1  0  0  0  0
  3 26  1  0  0  0  0
  3 27  1  0  0  0  0
  4  5  1  0  0  0  0
  4 28  1  0  0  0  0
  5  6  2  0  0  0  0
  5  7  1  0  0  0  0
  7 20  1  0  0  0  0
  7  8  2  0  0  0  0
  8  9  1  0  0  0  0
  8 29  1  0  0  0  0
  9 10  2  0  0  0  0
  9 30  1  0  0  0  0
 10 11  1  0  0  0  0
 10 19  1  0  0  0  0
 11 18  1  0  0  0  0
 11 12  1  0  0  0  0
 12 13  1  0  0  0  0
 12 31  1  0  0  0  0
 12 32  1  0  0  0  0
 13 14  1  0  0  0  0
 13 15  1  0  0  0  0
 13 33  1  0  0  0  0
 14 34  1  0  0  0  0
 14 35  1  0  0  0  0
 14 36  1  0  0  0  0
 15 16  1  0  0  0  0
 16 17  1  0  0  0  0
 16 18  1  0  0  0  0
 16 37  1  0  0  0  0
 17 38  1  0  0  0  0
 17 39  1  0  0  0  0
 17 40  1  0  0  0  0
 18 41  1  0  0  0  0
 18 42  1  0  0  0  0
 19 20  2  0  0  0  0
 20 43  1  0  0  0  0
M  END
> <s_m_source_file>
AV-unprocessed.smi

> <i_m_source_file_index>
1302

> <i_lp_mmshare_version>
43012

> <i_f3d_flags>
0

> <s_epik_input>
W0NIM11bQ0hdKFtDSDNdKVtOSF1DKD1PKWMxW2NIXVtjSF1jKG5bY0hdMSlOMltDSDJdW0NAQEhdKFtDSDNdKU9bQ0BASF0oW0NIM10pW0NIMl0y

> <s_epik_cmdline>
J2VwaWtfcHl0aG9uJywgJy1waCcsICc3LjAnLCAnLXRuJywgJzgnLCAnLW1hJywgJzIwMCcsICctbWV0YWxfYmluZGluZycsICctaW1hZScsICc8aW5maWxlLm1hZT4nLCAnLW9tYWUnLCAnPG91dGZpbGUubWFlPic=

> <r_lp_tautomer_probability>
1

> <r_epik_Ionization_Penalty>
2.23089e-05

> <r_epik_Ionization_Penalty_Charging>
0

> <r_epik_Ionization_Penalty_Neutral>
2.23089e-05

> <r_epik_State_Penalty>
-0

> <r_epik_Charging_Adjusted_Penalty>
0

> <i_epik_Tot_Q>
0

> <i_epik_Tot_abs_Q>
0

> <r_epik_Metal_State_Penalty>
-0

> <b_epik_Metal_Only>
0

> <s_lp_Force_Field>
OPLS_2005

> <r_lp_Energy>
20.4022

> <b_lp_Chiralities_Consistent>
1

> <s_lp_Variant>
AV-unprocessed.smi:1302-3

> <Gold.Version>
5.8.1

> <Gold.Id.Protein>
6NUR|6NUR_protein|mol2

> <Gold.PLP.Fitness>
36.1843

> <Gold.PLP.PLP>
-33.4928

> <Gold.PLP.part.hbond>
-1.0000

> <Gold.PLP.part.metal>
0.0000

> <Gold.PLP.part.buried>
-3.4236

> <Gold.PLP.part.nonpolar>
-27.7575

> <Gold.PLP.part.repulsive>
0.1483

> <Gold.PLP.ligand.clash>
0.0000

> <Gold.PLP.ligand.torsion>
0.2013

> <Gold.PLP.Chemscore.Hbond>
0.9199

> <Gold.PLP.Chemscore.CHOScore>
0.0000

> <Gold.PLP.Chemscore.Metal>
0.0000

> <Gold.Chemscore.Hbonds>
donor molecule, donor type, donor heavy atom, donor atom, acceptor molecule, acceptor atom, score
      P1  H  7997  8008       L1    19  0.84

> <Gold.PLP.Chemscore.Internal.Correction>
0.3344

> <Gold.Rescore>
     Score         DG    S(hbond)    S(metal)    S(lipo)     H(rot)  DE(clash)    DE(int)     intcor
     15.68     -16.32       0.77        0.00      95.79       1.15       0.43       0.20       ----

> <Gold.Chemscore.Fitness>
15.6847

> <Gold.Chemscore.DG>
-16.3178

> <Gold.Chemscore.ZeroCoef>
-5.4800

> <Gold.Chemscore.Hbond>
0.7714

> <Gold.Chemscore.Metal>
0.0000

> <Gold.Chemscore.Lipo>
95.7913

> <Gold.Chemscore.Internal_Hbond>
0.0000

> <Gold.Chemscore.DEClash>
0.4318

> <Gold.Chemscore.DEInternal>
0.2013

> <Gold.Chemscore.Rot>
1.1508

> <Gold.Chemscore.Internal.Correction>
   9.000000E+99

> <Gold.Chemscore.Hbonds>
donor molecule, donor type, donor heavy atom, donor atom, acceptor molecule, acceptor atom, score
      P1  H  7997  8008       L1    19  0.35

> <Gold.Chemscore.Hbond.Weighted>
-2.5763

> <Gold.Chemscore.Metal.Weighted>
-0.0000

> <Gold.Chemscore.Lipo.Weighted>
-11.2076

> <Gold.Chemscore.Internal_Hbond.Weighted>
0.0000

> <Gold.Chemscore.DEClash.Weighted>
0.4318

> <Gold.Chemscore.DEInternal.Weighted>
0.2013

> <Gold.Chemscore.Rot.Weighted>
2.9461

> <Gold.Chemscore.Internal.Correction.Weighted>
   9.000000E+99

> <Gold.Protein.RotatedTorsions>
[ 6907 6896 6895 6894 ] final  -14.59 input  -60.11 | X-H torsion
[ 7974 7965 7964 7962 ] final -145.55 input  175.53 | X-H torsion
[ 8008 7997 7996 7995 ] final -123.89 input   59.86 | X-H torsion
[ 10167 10162 10161 10158 ] final   -2.54 input  -65.29 | X-H torsion
[ 10718 10713 10712 10709 ] final -135.67 input   66.30 | X-H torsion
[ 10763 10752 10751 10750 ] final  -99.43 input  -60.55 | X-H torsion
[ 11005 11000 10999 10996 ] final   67.39 input  -57.11 | X-H torsion

> <Gold.Protein.ActiveResidues>
 VAL166  LYS551  ARG553  GLY616  TRP617  ASP618  TYR619  PRO620  LYS621  CYS622 
 ASP623  PHE694  ASN695  SER759  ASP760  ASP761  ALA762  ILE779  LEU786  VAL792 
 PHE793  MET794  SER795  GLU796  ALA797  LYS798  CYS799  TRP800  GLU811  SER814 

> <Gold.Protein.RotatedAtoms>
  151.3370  135.0855  159.9357 H   0  0  0  0  0  0  0  0  0  0  0  0  # atno 6907 bound_to 6896
  152.5221  133.9485  159.7671 H   0  0  0  0  0  0  0  0  0  0  0  0  # atno 6908 bound_to 6896
  150.9835  133.6168  159.2749 H   0  0  0  0  0  0  0  0  0  0  0  0  # atno 6909 bound_to 6896
  144.8220  140.5570  143.5572 H   0  0  0  0  0  0  0  0  0  0  0  0  # atno 7974 bound_to 7965
  155.1879  140.0412  157.2895 H   0  0  0  0  0  0  0  0  0  0  0  0  # atno 8008 bound_to 7997
  154.6159  140.2488  155.7582 H   0  0  0  0  0  0  0  0  0  0  0  0  # atno 8009 bound_to 7997
  156.2406  140.2905  156.0443 H   0  0  0  0  0  0  0  0  0  0  0  0  # atno 8010 bound_to 7997
  140.6855  143.6646  150.8237 H   0  0  0  0  0  0  0  0  0  0  0  0  # atno 10167 bound_to 10162
  156.2687  130.7252  151.1212 H   0  0  0  0  0  0  0  0  0  0  0  0  # atno 10718 bound_to 10713
  154.7497  135.4972  153.9267 H   0  0  0  0  0  0  0  0  0  0  0  0  # atno 10763 bound_to 10752
  153.1130  135.6714  153.9475 H   0  0  0  0  0  0  0  0  0  0  0  0  # atno 10764 bound_to 10752
  153.9229  135.3086  155.3426 H   0  0  0  0  0  0  0  0  0  0  0  0  # atno 10765 bound_to 10752
  139.9773  134.6801  156.0329 H   0  0  0  0  0  0  0  0  0  0  0  0  # atno 11005 bound_to 11000
  145.5084  139.1480  143.3618 LP  0  0  0  0  0  0  0  0  0  0  0  0  # atno 17320 bound_to 7965
  146.2525  140.5224  142.8887 LP  0  0  0  0  0  0  0  0  0  0  0  0  # atno 17321 bound_to 7965
  140.0352  143.5403  152.2742 LP  0  0  0  0  0  0  0  0  0  0  0  0  # atno 17342 bound_to 10162
  139.6210  144.7629  151.2741 LP  0  0  0  0  0  0  0  0  0  0  0  0  # atno 17343 bound_to 10162
  157.7276  131.0638  150.5857 LP  0  0  0  0  0  0  0  0  0  0  0  0  # atno 17370 bound_to 10713
  156.5951  130.4339  149.5920 LP  0  0  0  0  0  0  0  0  0  0  0  0  # atno 17371 bound_to 10713
  141.1449  133.6558  156.3838 LP  0  0  0  0  0  0  0  0  0  0  0  0  # atno 17394 bound_to 11000
  140.5168  134.6343  157.5304 LP  0  0  0  0  0  0  0  0  0  0  0  0  # atno 17395 bound_to 11000

$$$$
