AV-unprocessed.smi:48|AV-procd|sdf|447|dock9
  -GOLD-   2262016313D 1   1.00000     0.00000
 Structure written by MMmdl.
 30 32  0  0  0  0  0  0  0  0  1 V2000
  148.3471  138.7133  152.6876 O   0  0  0  0  0  0  0  0  0  0  0  0
  148.8536  139.5583  153.6985 C   0  0  0  0  0  0  0  0  0  0  0  0
  150.1297  138.9524  154.3022 C   0  0  1  0  0  0  0  0  0  0  0  0
  150.8678  139.9620  154.9796 O   0  0  0  0  0  0  0  0  0  0  0  0
  151.7057  139.3708  155.9236 C   0  0  1  0  0  0  0  0  0  0  0  0
  151.6968  140.2305  157.1453 N   0  0  0  0  0  0  0  0  0  0  0  0
  150.8292  141.2183  157.4462 C   0  0  0  0  0  0  0  0  0  0  0  0
  151.0033  141.8577  158.6021 N   0  0  0  0  0  0  0  0  0  0  0  0
  152.1094  141.2016  159.1166 C   0  0  0  0  0  0  0  0  0  0  0  0
  152.8439  141.3557  160.3174 C   0  0  0  0  0  0  0  0  0  0  0  0
  152.4082  142.5565  161.4775 Cl  0  0  0  0  0  0  0  0  0  0  0  0
  153.9008  140.5374  160.5366 N   0  0  0  0  0  0  0  0  0  0  0  0
  154.2167  139.6147  159.6198 C   0  0  0  0  0  0  0  0  0  0  0  0
  153.6231  139.3555  158.4491 N   0  0  0  0  0  0  0  0  0  0  0  0
  152.5580  140.1818  158.2297 C   0  0  0  0  0  0  0  0  0  0  0  0
  151.1573  137.9658  156.2278 C   0  0  2  0  0  0  0  0  0  0  0  0
  152.0685  136.9683  155.8035 O   0  0  0  0  0  0  0  0  0  0  0  0
  149.8587  137.9460  155.4217 C   0  0  2  0  0  0  0  0  0  0  0  0
  149.5119  136.6620  154.9368 O   0  0  0  0  0  0  0  0  0  0  0  0
  150.7577  138.4938  153.5355 H   0  0  0  0  0  0  0  0  0  0  0  0
  152.7414  139.3753  155.5796 H   0  0  0  0  0  0  0  0  0  0  0  0
  150.9676  137.8353  157.2942 H   0  0  0  0  0  0  0  0  0  0  0  0
  149.0431  138.3081  156.0480 H   0  0  0  0  0  0  0  0  0  0  0  0
  148.7605  138.9426  151.8694 H   0  0  0  0  0  0  0  0  0  0  0  0
  149.0373  140.5580  153.3036 H   0  0  0  0  0  0  0  0  0  0  0  0
  148.0830  139.6491  154.4645 H   0  0  0  0  0  0  0  0  0  0  0  0
  150.0241  141.4861  156.7775 H   0  0  0  0  0  0  0  0  0  0  0  0
  155.0692  138.9951  159.8563 H   0  0  0  0  0  0  0  0  0  0  0  0
  152.7299  136.8607  156.4695 H   0  0  0  0  0  0  0  0  0  0  0  0
  149.4472  136.7052  153.9951 H   0  0  0  0  0  0  0  0  0  0  0  0
  1  2  1  0  0  0  0
  1 24  1  0  0  0  0
  2  3  1  0  0  0  0
  2 25  1  0  0  0  0
  2 26  1  0  0  0  0
  3 20  1  0  0  0  0
  3 18  1  0  0  0  0
  3  4  1  0  0  0  0
  4  5  1  0  0  0  0
  5 21  1  0  0  0  0
  5  6  1  0  0  0  0
  5 16  1  0  0  0  0
  6 15  1  0  0  0  0
  6  7  1  0  0  0  0
  7  8  2  0  0  0  0
  7 27  1  0  0  0  0
  8  9  1  0  0  0  0
  9 15  2  0  0  0  0
  9 10  1  0  0  0  0
 10 11  1  0  0  0  0
 10 12  2  0  0  0  0
 12 13  1  0  0  0  0
 13 14  2  0  0  0  0
 13 28  1  0  0  0  0
 14 15  1  0  0  0  0
 16 22  1  0  0  0  0
 16 17  1  0  0  0  0
 16 18  1  0  0  0  0
 17 29  1  0  0  0  0
 18 23  1  0  0  0  0
 18 19  1  0  0  0  0
 19 30  1  0  0  0  0
M  END
> <s_m_source_file>
AV-unprocessed.smi

> <i_m_source_file_index>
48

> <i_lp_mmshare_version>
43012

> <i_f3d_flags>
0

> <s_epik_input>
W09IXVtDSDJdW0NASF0xT1tDQEhdKFtDQEhdKFtPSF0pW0NAQEhdMVtPSF0pbihbY0hdbjIpYyhjMjMpbltjSF1uYzNDbA==

> <s_epik_cmdline>
J2VwaWtfcHl0aG9uJywgJy1waCcsICc3LjAnLCAnLXRuJywgJzgnLCAnLW1hJywgJzIwMCcsICctbWV0YWxfYmluZGluZycsICctaW1hZScsICc8aW5maWxlLm1hZT4nLCAnLW9tYWUnLCAnPG91dGZpbGUubWFlPic=

> <r_lp_tautomer_probability>
1

> <r_epik_Ionization_Penalty>
3.45505e-06

> <r_epik_Ionization_Penalty_Charging>
0

> <r_epik_Ionization_Penalty_Neutral>
3.45505e-06

> <r_epik_State_Penalty>
-0

> <r_epik_Charging_Adjusted_Penalty>
0

> <i_epik_Tot_Q>
0

> <i_epik_Tot_abs_Q>
0

> <r_epik_Metal_State_Penalty>
-0

> <b_epik_Metal_Only>
0

> <s_epik_Chemistry_Notes>
This compound contains an acetal/aminal-like group ( X-CH(R)-Y where X, Y are N, S, or O) that may be acid/base labile, releasing an aldehyde.

> <s_lp_Force_Field>
OPLS_2005

> <r_lp_Energy>
36.5243

> <b_lp_Chiralities_Consistent>
1

> <s_lp_Variant>
AV-unprocessed.smi:48-1

> <Gold.Version>
5.8.1

> <Gold.Id.Protein>
6NUR|6NUR_protein|mol2

> <Gold.PLP.Fitness>
41.2719

> <Gold.PLP.PLP>
-30.3451

> <Gold.PLP.part.hbond>
-5.3444

> <Gold.PLP.part.metal>
0.0000

> <Gold.PLP.part.buried>
-1.0593

> <Gold.PLP.part.nonpolar>
-23.4270

> <Gold.PLP.part.repulsive>
0.0702

> <Gold.PLP.ligand.clash>
0.0000

> <Gold.PLP.ligand.torsion>
0.5887

> <Gold.PLP.Chemscore.Hbond>
4.0295

> <Gold.PLP.Chemscore.CHOScore>
0.0000

> <Gold.PLP.Chemscore.Metal>
0.0000

> <Gold.Chemscore.Hbonds>
donor molecule, donor type, donor heavy atom, donor atom, acceptor molecule, acceptor atom, score
      L1  H     1    24       P1  7957  0.90
      L1  H    19    30       P1  7948  0.54
      P1  H  7989  7998       L1     4  1.00
      P1  H  7997  8008       L1    14  0.90
      P1  H 10752 10764       L1    17  0.50

> <Gold.PLP.Chemscore.Internal.Correction>
0.0157

> <Gold.Rescore>
     Score         DG    S(hbond)    S(metal)    S(lipo)     H(rot)  DE(clash)    DE(int)     intcor
      7.50      -9.53       2.33        0.00      51.35       3.80       1.29       0.74       ----

> <Gold.Chemscore.Fitness>
7.4957

> <Gold.Chemscore.DG>
-9.5271

> <Gold.Chemscore.ZeroCoef>
-5.4800

> <Gold.Chemscore.Hbond>
2.3268

> <Gold.Chemscore.Metal>
0.0000

> <Gold.Chemscore.Lipo>
51.3509

> <Gold.Chemscore.Internal_Hbond>
0.0000

> <Gold.Chemscore.DEClash>
1.2900

> <Gold.Chemscore.DEInternal>
0.7415

> <Gold.Chemscore.Rot>
3.8017

> <Gold.Chemscore.Internal.Correction>
   9.000000E+99

> <Gold.Chemscore.Hbonds>
donor molecule, donor type, donor heavy atom, donor atom, acceptor molecule, acceptor atom, score
      L1  H     1    24       P1  7957  0.67
      L1  H    19    30       P1  7948  0.49
      P1  H  7989  7998       L1     4  0.25
      P1  H  7997  8008       L1    14  0.11
      P1  H 10752 10764       L1    17  0.05

> <Gold.Chemscore.Hbond.Weighted>
-7.7714

> <Gold.Chemscore.Metal.Weighted>
-0.0000

> <Gold.Chemscore.Lipo.Weighted>
-6.0081

> <Gold.Chemscore.Internal_Hbond.Weighted>
0.0000

> <Gold.Chemscore.DEClash.Weighted>
1.2900

> <Gold.Chemscore.DEInternal.Weighted>
0.7415

> <Gold.Chemscore.Rot.Weighted>
9.7324

> <Gold.Chemscore.Internal.Correction.Weighted>
   9.000000E+99

> <Gold.Protein.RotatedTorsions>
[ 6907 6896 6895 6894 ] final    1.51 input  -60.11 | X-H torsion
[ 7974 7965 7964 7962 ] final  -79.72 input  175.53 | X-H torsion
[ 8008 7997 7996 7995 ] final  -95.56 input   59.86 | X-H torsion
[ 10167 10162 10161 10158 ] final  116.89 input  -65.29 | X-H torsion
[ 10718 10713 10712 10709 ] final  -47.46 input   66.30 | X-H torsion
[ 10763 10752 10751 10750 ] final  -65.47 input  -60.55 | X-H torsion
[ 11005 11000 10999 10996 ] final   -9.15 input  -57.11 | X-H torsion

> <Gold.Protein.ActiveResidues>
 VAL166  LYS551  ARG553  GLY616  TRP617  ASP618  TYR619  PRO620  LYS621  CYS622 
 ASP623  PHE694  ASN695  SER759  ASP760  ASP761  ALA762  ILE779  LEU786  VAL792 
 PHE793  MET794  SER795  GLU796  ALA797  LYS798  CYS799  TRP800  GLU811  SER814 

> <Gold.Protein.RotatedAtoms>
  151.5938  135.1052  160.0044 H   0  0  0  0  0  0  0  0  0  0  0  0  # atno 6907 bound_to 6896
  152.4293  133.7245  159.6563 H   0  0  0  0  0  0  0  0  0  0  0  0  # atno 6908 bound_to 6896
  150.8184  133.8225  159.3172 H   0  0  0  0  0  0  0  0  0  0  0  0  # atno 6909 bound_to 6896
  145.5695  140.9468  143.1403 H   0  0  0  0  0  0  0  0  0  0  0  0  # atno 7974 bound_to 7965
  154.7630  140.0479  157.0989 H   0  0  0  0  0  0  0  0  0  0  0  0  # atno 8008 bound_to 7997
  154.9915  140.3113  155.4885 H   0  0  0  0  0  0  0  0  0  0  0  0  # atno 8009 bound_to 7997
  156.2907  140.2218  156.5020 H   0  0  0  0  0  0  0  0  0  0  0  0  # atno 8010 bound_to 7997
  139.6216  144.7102  151.2622 H   0  0  0  0  0  0  0  0  0  0  0  0  # atno 10167 bound_to 10162
  156.2082  130.4159  149.9150 H   0  0  0  0  0  0  0  0  0  0  0  0  # atno 10718 bound_to 10713
  154.3455  135.6147  153.5617 H   0  0  0  0  0  0  0  0  0  0  0  0  # atno 10763 bound_to 10752
  152.9801  135.5780  154.4803 H   0  0  0  0  0  0  0  0  0  0  0  0  # atno 10764 bound_to 10752
  154.4515  135.2853  155.1755 H   0  0  0  0  0  0  0  0  0  0  0  0  # atno 10765 bound_to 10752
  140.7311  133.8748  155.8894 H   0  0  0  0  0  0  0  0  0  0  0  0  # atno 11005 bound_to 11000
  144.7444  139.7359  143.7298 LP  0  0  0  0  0  0  0  0  0  0  0  0  # atno 17320 bound_to 7965
  146.1794  139.4980  142.9876 LP  0  0  0  0  0  0  0  0  0  0  0  0  # atno 17321 bound_to 7965
  140.7385  143.6645  150.8135 LP  0  0  0  0  0  0  0  0  0  0  0  0  # atno 17342 bound_to 10162
  140.0257  143.5496  152.2782 LP  0  0  0  0  0  0  0  0  0  0  0  0  # atno 17343 bound_to 10162
  156.6837  130.8868  151.3579 LP  0  0  0  0  0  0  0  0  0  0  0  0  # atno 17370 bound_to 10713
  157.7024  130.9347  150.0825 LP  0  0  0  0  0  0  0  0  0  0  0  0  # atno 17371 bound_to 10713
  140.9920  134.1266  157.4399 LP  0  0  0  0  0  0  0  0  0  0  0  0  # atno 17394 bound_to 11000
  139.8826  135.0043  156.6241 LP  0  0  0  0  0  0  0  0  0  0  0  0  # atno 17395 bound_to 11000

$$$$
