AV-unprocessed.smi:2691|AV-procd|sdf|10393|dock8
  -GOLD-   2272014433D 1   1.00000     0.00000
 Structure written by MMmdl.
 50 52  0  0  0  0  0  0  0  0  2 V2000
  152.0307  145.2777  160.4873 C   0  0  0  0  0  0  0  0  0  0  0  0
  151.8769  144.0234  159.6436 C   0  0  0  0  0  0  0  0  0  0  0  0
  151.2663  144.1355  158.3738 C   0  0  0  0  0  0  0  0  0  0  0  0
  151.1371  142.9706  157.6270 C   0  0  0  0  0  0  0  0  0  0  0  0
  150.5878  142.7496  156.3618 N   0  3  0  0  0  0  0  0  0  0  0  0
  150.6843  141.4275  156.0492 C   0  0  0  0  0  0  0  0  0  0  0  0
  151.2893  140.8027  157.0954 N   0  0  0  0  0  0  0  0  0  0  0  0
  151.6226  139.3852  157.2817 C   0  0  0  0  0  0  0  0  0  0  0  0
  150.5943  138.4427  156.6175 C   0  0  1  0  0  0  0  0  0  0  0  0
  150.6760  138.5329  155.2086 O   0  0  0  0  0  0  0  0  0  0  0  0
  150.6511  136.9557  157.0534 C   0  0  0  0  0  0  0  0  0  0  0  0
  149.6837  136.5870  158.1041 N   0  0  0  0  0  0  0  0  0  0  0  0
  149.8655  137.1697  159.3747 C   0  0  0  0  0  0  0  0  0  0  0  0
  149.0667  136.9176  160.3621 N   0  0  0  0  0  0  0  0  0  0  0  0
  147.9832  136.0520  160.1768 C   0  0  0  0  0  0  0  0  0  0  0  0
  147.0838  135.8001  161.3798 C   0  0  0  0  0  0  0  0  0  0  0  0
  147.5793  136.5474  162.6285 C   0  0  0  0  0  0  0  0  0  0  0  0
  146.9148  134.2965  161.6485 C   0  0  0  0  0  0  0  0  0  0  0  0
  147.7644  135.4703  158.9728 C   0  0  0  0  0  0  0  0  0  0  0  0
  148.6501  135.7356  157.8394 C   0  0  0  0  0  0  0  0  0  0  0  0
  148.4750  135.2305  156.7308 O   0  0  0  0  0  0  0  0  0  0  0  0
  151.5911  141.7250  158.1022 C   0  0  0  0  0  0  0  0  0  0  0  0
  152.1967  141.5964  159.3496 C   0  0  0  0  0  0  0  0  0  0  0  0
  152.3379  142.7700  160.1244 C   0  0  0  0  0  0  0  0  0  0  0  0
  152.9951  142.6617  161.4898 C   0  0  0  0  0  0  0  0  0  0  0  0
  151.5900  146.1456  159.9958 H   0  0  0  0  0  0  0  0  0  0  0  0
  153.0848  145.4933  160.6631 H   0  0  0  0  0  0  0  0  0  0  0  0
  151.5361  145.1561  161.4512 H   0  0  0  0  0  0  0  0  0  0  0  0
  150.9135  145.0862  158.0011 H   0  0  0  0  0  0  0  0  0  0  0  0
  150.3370  140.9574  155.1402 H   0  0  0  0  0  0  0  0  0  0  0  0
  152.6159  139.2332  156.8575 H   0  0  0  0  0  0  0  0  0  0  0  0
  151.7045  139.1871  158.3510 H   0  0  0  0  0  0  0  0  0  0  0  0
  149.5955  138.8046  156.8638 H   0  0  0  0  0  0  0  0  0  0  0  0
  150.8482  139.4319  154.9730 H   0  0  0  0  0  0  0  0  0  0  0  0
  150.4767  136.3414  156.1680 H   0  0  0  0  0  0  0  0  0  0  0  0
  151.6644  136.6854  157.3568 H   0  0  0  0  0  0  0  0  0  0  0  0
  150.7233  137.8376  159.4679 H   0  0  0  0  0  0  0  0  0  0  0  0
  146.0963  136.1978  161.1403 H   0  0  0  0  0  0  0  0  0  0  0  0
  147.6794  137.6152  162.4322 H   0  0  0  0  0  0  0  0  0  0  0  0
  148.5491  136.1774  162.9627 H   0  0  0  0  0  0  0  0  0  0  0  0
  146.8799  136.4303  163.4567 H   0  0  0  0  0  0  0  0  0  0  0  0
  146.5294  133.7824  160.7675 H   0  0  0  0  0  0  0  0  0  0  0  0
  146.2126  134.1212  162.4640 H   0  0  0  0  0  0  0  0  0  0  0  0
  147.8609  133.8275  161.9204 H   0  0  0  0  0  0  0  0  0  0  0  0
  146.9253  134.8039  158.8374 H   0  0  0  0  0  0  0  0  0  0  0  0
  152.5441  140.6416  159.7154 H   0  0  0  0  0  0  0  0  0  0  0  0
  153.3333  141.6445  161.6904 H   0  0  0  0  0  0  0  0  0  0  0  0
  152.2927  142.9410  162.2755 H   0  0  0  0  0  0  0  0  0  0  0  0
  153.8636  143.3179  161.5516 H   0  0  0  0  0  0  0  0  0  0  0  0
  150.1734  143.4461  155.7559 H   0  0  0  0  0  0  0  0  0  0  0  0
  1  2  1  0  0  0  0
  1 26  1  0  0  0  0
  1 27  1  0  0  0  0
  1 28  1  0  0  0  0
  2 24  1  0  0  0  0
  2  3  2  0  0  0  0
  3  4  1  0  0  0  0
  3 29  1  0  0  0  0
  4 22  2  0  0  0  0
  4  5  1  0  0  0  0
  5  6  2  0  0  0  0
  5 50  1  0  0  0  0
  6  7  1  0  0  0  0
  6 30  1  0  0  0  0
  7  8  1  0  0  0  0
  7 22  1  0  0  0  0
  8  9  1  0  0  0  0
  8 31  1  0  0  0  0
  8 32  1  0  0  0  0
  9 10  1  0  0  0  0
  9 11  1  0  0  0  0
  9 33  1  0  0  0  0
 10 34  1  0  0  0  0
 11 12  1  0  0  0  0
 11 35  1  0  0  0  0
 11 36  1  0  0  0  0
 12 20  1  0  0  0  0
 12 13  1  0  0  0  0
 13 14  2  0  0  0  0
 13 37  1  0  0  0  0
 14 15  1  0  0  0  0
 15 16  1  0  0  0  0
 15 19  2  0  0  0  0
 16 17  1  0  0  0  0
 16 18  1  0  0  0  0
 16 38  1  0  0  0  0
 17 39  1  0  0  0  0
 17 40  1  0  0  0  0
 17 41  1  0  0  0  0
 18 42  1  0  0  0  0
 18 43  1  0  0  0  0
 18 44  1  0  0  0  0
 19 20  1  0  0  0  0
 19 45  1  0  0  0  0
 20 21  2  0  0  0  0
 22 23  1  0  0  0  0
 23 24  2  0  0  0  0
 23 46  1  0  0  0  0
 24 25  1  0  0  0  0
 25 47  1  0  0  0  0
 25 48  1  0  0  0  0
 25 49  1  0  0  0  0
M  CHG  1   5   1
M  END
> <s_m_source_file>
AV-unprocessed.smi

> <i_m_source_file_index>
2691

> <i_lp_mmshare_version>
43012

> <i_f3d_flags>
0

> <s_epik_input>
W0NIM11jKFtjSF0xKWMoW0NIM10pW2NIXWMoYzEyKW4oW2NIXW4yKVtDSDJdW0NASF0oW09IXSlbQ0gyXW4zW2NIXW5jKFtDSF0oW0NIM10pW0NIM10pW2NIXWMzPU8=

> <s_epik_cmdline>
J2VwaWtfcHl0aG9uJywgJy1waCcsICc3LjAnLCAnLXRuJywgJzgnLCAnLW1hJywgJzIwMCcsICctbWV0YWxfYmluZGluZycsICctaW1hZScsICc8aW5maWxlLm1hZT4nLCAnLW9tYWUnLCAnPG91dGZpbGUubWFlPic=

> <r_lp_tautomer_probability>
1

> <r_epik_Ionization_Penalty>
1.0357

> <r_epik_Ionization_Penalty_Charging>
1.03568

> <r_epik_Ionization_Penalty_Neutral>
1.29543e-05

> <r_epik_State_Penalty>
1.08724

> <r_epik_Charging_Adjusted_Penalty>
2.12292

> <i_epik_Tot_Q>
1

> <i_epik_Tot_abs_Q>
1

> <r_epik_Metal_State_Penalty>
1.18376

> <b_epik_Metal_Only>
0

> <s_lp_Force_Field>
OPLS_2005

> <r_lp_Energy>
24.9035

> <b_lp_Chiralities_Consistent>
1

> <s_lp_Variant>
AV-unprocessed.smi:2691-4

> <Gold.Version>
5.8.1

> <Gold.Id.Protein>
6NUR|6NUR_protein|mol2

> <Gold.PLP.Fitness>
57.2967

> <Gold.PLP.PLP>
-52.0986

> <Gold.PLP.part.hbond>
-2.0000

> <Gold.PLP.part.metal>
0.0000

> <Gold.PLP.part.buried>
-6.3209

> <Gold.PLP.part.nonpolar>
-44.6990

> <Gold.PLP.part.repulsive>
0.0910

> <Gold.PLP.ligand.clash>
0.0000

> <Gold.PLP.ligand.torsion>
1.1008

> <Gold.PLP.Chemscore.Hbond>
2.4320

> <Gold.PLP.Chemscore.CHOScore>
0.0000

> <Gold.PLP.Chemscore.Metal>
0.0000

> <Gold.Chemscore.Hbonds>
donor molecule, donor type, donor heavy atom, donor atom, acceptor molecule, acceptor atom, score
      L1  H     5    50       P1  8028  1.76
      P1  H  6931  6943       L1    14  0.66

> <Gold.PLP.Chemscore.Internal.Correction>
0.1037

> <Gold.Rescore>
     Score         DG    S(hbond)    S(metal)    S(lipo)     H(rot)  DE(clash)    DE(int)     intcor
     18.37     -19.75       1.58        0.00     131.93       2.52       0.09       1.30       ----

> <Gold.Chemscore.Fitness>
18.3678

> <Gold.Chemscore.DG>
-19.7507

> <Gold.Chemscore.ZeroCoef>
-5.4800

> <Gold.Chemscore.Hbond>
1.5828

> <Gold.Chemscore.Metal>
0.0000

> <Gold.Chemscore.Lipo>
131.9315

> <Gold.Chemscore.Internal_Hbond>
0.0000

> <Gold.Chemscore.DEClash>
0.0861

> <Gold.Chemscore.DEInternal>
1.2969

> <Gold.Chemscore.Rot>
2.5202

> <Gold.Chemscore.Internal.Correction>
   9.000000E+99

> <Gold.Chemscore.Hbonds>
donor molecule, donor type, donor heavy atom, donor atom, acceptor molecule, acceptor atom, score
      L1  H     5    50       P1  8028  0.87
      P1  H  6931  6943       L1    14  0.57

> <Gold.Chemscore.Hbond.Weighted>
-5.2865

> <Gold.Chemscore.Metal.Weighted>
-0.0000

> <Gold.Chemscore.Lipo.Weighted>
-15.4360

> <Gold.Chemscore.Internal_Hbond.Weighted>
0.0000

> <Gold.Chemscore.DEClash.Weighted>
0.0861

> <Gold.Chemscore.DEInternal.Weighted>
1.2969

> <Gold.Chemscore.Rot.Weighted>
6.4517

> <Gold.Chemscore.Internal.Correction.Weighted>
   9.000000E+99

> <Gold.Protein.RotatedTorsions>
[ 6907 6896 6895 6894 ] final  -17.38 input  -60.11 | X-H torsion
[ 7974 7965 7964 7962 ] final  101.30 input  175.53 | X-H torsion
[ 8008 7997 7996 7995 ] final   84.68 input   59.86 | X-H torsion
[ 10167 10162 10161 10158 ] final  125.39 input  -65.29 | X-H torsion
[ 10718 10713 10712 10709 ] final   61.78 input   66.30 | X-H torsion
[ 10763 10752 10751 10750 ] final  100.49 input  -60.55 | X-H torsion
[ 11005 11000 10999 10996 ] final  -87.56 input  -57.11 | X-H torsion

> <Gold.Protein.ActiveResidues>
 VAL166  LYS551  ARG553  GLY616  TRP617  ASP618  TYR619  PRO620  LYS621  CYS622 
 ASP623  PHE694  ASN695  SER759  ASP760  ASP761  ALA762  ILE779  LEU786  VAL792 
 PHE793  MET794  SER795  GLU796  ALA797  LYS798  CYS799  TRP800  GLU811  SER814 

> <Gold.Protein.RotatedAtoms>
  151.2942  135.0750  159.9215 H   0  0  0  0  0  0  0  0  0  0  0  0  # atno 6907 bound_to 6896
  152.5310  133.9900  159.7856 H   0  0  0  0  0  0  0  0  0  0  0  0  # atno 6908 bound_to 6896
  151.0175  133.5856  159.2705 H   0  0  0  0  0  0  0  0  0  0  0  0  # atno 6909 bound_to 6896
  145.3742  139.2392  143.3439 H   0  0  0  0  0  0  0  0  0  0  0  0  # atno 7974 bound_to 7965
  155.9402  140.3408  155.6321 H   0  0  0  0  0  0  0  0  0  0  0  0  # atno 8008 bound_to 7997
  155.7049  140.0764  157.2414 H   0  0  0  0  0  0  0  0  0  0  0  0  # atno 8009 bound_to 7997
  154.4101  140.1633  156.2219 H   0  0  0  0  0  0  0  0  0  0  0  0  # atno 8010 bound_to 7997
  139.5688  144.6927  151.3836 H   0  0  0  0  0  0  0  0  0  0  0  0  # atno 10167 bound_to 10162
  157.5853  130.9014  149.9505 H   0  0  0  0  0  0  0  0  0  0  0  0  # atno 10718 bound_to 10713
  153.3146  135.4077  155.1365 H   0  0  0  0  0  0  0  0  0  0  0  0  # atno 10763 bound_to 10752
  154.8585  135.3573  154.5677 H   0  0  0  0  0  0  0  0  0  0  0  0  # atno 10764 bound_to 10752
  153.6108  135.7068  153.5406 H   0  0  0  0  0  0  0  0  0  0  0  0  # atno 10765 bound_to 10752
  141.1615  133.7518  156.9324 H   0  0  0  0  0  0  0  0  0  0  0  0  # atno 11005 bound_to 11000
  146.2871  140.4398  142.8753 LP  0  0  0  0  0  0  0  0  0  0  0  0  # atno 17320 bound_to 7965
  144.8554  140.7063  143.6141 LP  0  0  0  0  0  0  0  0  0  0  0  0  # atno 17321 bound_to 7965
  140.6972  143.7720  150.7345 LP  0  0  0  0  0  0  0  0  0  0  0  0  # atno 17342 bound_to 10162
  140.1220  143.4603  152.2307 LP  0  0  0  0  0  0  0  0  0  0  0  0  # atno 17343 bound_to 10162
  156.0902  130.3664  150.0410 LP  0  0  0  0  0  0  0  0  0  0  0  0  # atno 17370 bound_to 10713
  156.8542  130.9469  151.3623 LP  0  0  0  0  0  0  0  0  0  0  0  0  # atno 17371 bound_to 10713
  140.1377  134.9314  157.2425 LP  0  0  0  0  0  0  0  0  0  0  0  0  # atno 17394 bound_to 11000
  140.2874  134.3279  155.7325 LP  0  0  0  0  0  0  0  0  0  0  0  0  # atno 17395 bound_to 11000

$$$$
