AV-unprocessed.smi:249|AV-procd|sdf|1916|dock6
  -GOLD-   2262021 13D 1   1.00000     0.00000
 Structure written by MMmdl.
 64 67  0  0  0  0  0  0  0  0  2 V2000
  141.5638  135.0483  153.4531 C   0  0  0  0  0  0  0  0  0  0  0  0
  142.9363  134.7769  152.8180 C   0  0  0  0  0  0  0  0  0  0  0  0
  143.9844  134.4147  153.8174 N   0  3  2  0  0  0  0  0  0  0  0  0
  144.0924  135.3678  154.9584 C   0  0  0  0  0  0  0  0  0  0  0  0
  144.7561  136.6945  154.5420 C   0  0  0  0  0  0  0  0  0  0  0  0
  146.1388  136.4398  153.9102 C   0  0  2  0  0  0  0  0  0  0  0  0
  146.8093  137.6805  153.5046 N   0  0  0  0  0  0  0  0  0  0  0  0
  146.0410  138.7492  152.8662 C   0  0  0  0  0  0  0  0  0  0  0  0
  147.8389  138.0663  154.3019 C   0  0  0  0  0  0  0  0  0  0  0  0
  148.5203  137.1342  155.0206 N   0  0  0  0  0  0  0  0  0  0  0  0
  149.5493  137.4968  155.7921 C   0  0  0  0  0  0  0  0  0  0  0  0
  150.0589  138.7146  155.9842 N   0  0  0  0  0  0  0  0  0  0  0  0
  149.3779  139.6552  155.2697 C   0  0  0  0  0  0  0  0  0  0  0  0
  148.2623  139.4206  154.4174 C   0  0  0  0  0  0  0  0  0  0  0  0
  147.8183  140.6221  153.8770 N   0  0  0  0  0  0  0  0  0  0  0  0
  148.6310  141.5144  154.3734 C   0  0  0  0  0  0  0  0  0  0  0  0
  149.6151  141.0174  155.1983 N   0  0  0  0  0  0  0  0  0  0  0  0
  150.6415  141.7869  155.8793 C   0  0  0  0  0  0  0  0  0  0  0  0
  150.4439  141.9380  157.4142 C   0  0  2  0  0  0  0  0  0  0  0  0
  148.9706  141.6174  157.7659 C   0  0  0  0  0  0  0  0  0  0  0  0
  148.0832  142.5317  157.1553 O   0  0  0  0  0  0  0  0  0  0  0  0
  150.8636  143.3355  157.9633 C   0  0  2  0  0  0  0  0  0  0  0  0
  152.3363  143.5049  158.3118 C   0  0  0  0  0  0  0  0  0  0  0  0
  152.3371  144.7106  159.2453 C   0  0  0  0  0  0  0  0  0  0  0  0
  151.0691  144.7107  159.8858 O   0  0  0  0  0  0  0  0  0  0  0  0
  150.2451  143.6994  159.3201 C   0  0  0  0  0  0  0  0  0  0  0  0
  146.0250  135.4208  152.7596 C   0  0  0  0  0  0  0  0  0  0  0  0
  145.3366  134.1285  153.2461 C   0  0  2  0  0  0  0  0  0  0  0  0
  145.3335  133.0222  152.1759 C   0  0  0  0  0  0  0  0  0  0  0  0
  140.8015  135.1524  152.6805 H   0  0  0  0  0  0  0  0  0  0  0  0
  141.5524  135.9703  154.0334 H   0  0  0  0  0  0  0  0  0  0  0  0
  141.2595  134.2295  154.1058 H   0  0  0  0  0  0  0  0  0  0  0  0
  142.7925  133.9535  152.1213 H   0  0  0  0  0  0  0  0  0  0  0  0
  143.2466  135.6318  152.2176 H   0  0  0  0  0  0  0  0  0  0  0  0
  143.1223  135.5539  155.4158 H   0  0  0  0  0  0  0  0  0  0  0  0
  144.6927  134.8988  155.7394 H   0  0  0  0  0  0  0  0  0  0  0  0
  144.1088  137.2316  153.8488 H   0  0  0  0  0  0  0  0  0  0  0  0
  144.8609  137.3363  155.4176 H   0  0  0  0  0  0  0  0  0  0  0  0
  146.7419  135.9578  154.6791 H   0  0  0  0  0  0  0  0  0  0  0  0
  146.7047  139.5242  152.4806 H   0  0  0  0  0  0  0  0  0  0  0  0
  145.3511  139.2123  153.5720 H   0  0  0  0  0  0  0  0  0  0  0  0
  145.4650  138.3732  152.0221 H   0  0  0  0  0  0  0  0  0  0  0  0
  150.0366  136.6965  156.3293 H   0  0  0  0  0  0  0  0  0  0  0  0
  148.5430  142.5650  154.1379 H   0  0  0  0  0  0  0  0  0  0  0  0
  151.6100  141.3279  155.6769 H   0  0  0  0  0  0  0  0  0  0  0  0
  150.6647  142.7650  155.3984 H   0  0  0  0  0  0  0  0  0  0  0  0
  151.0575  141.1911  157.9192 H   0  0  0  0  0  0  0  0  0  0  0  0
  148.6798  140.6289  157.4138 H   0  0  0  0  0  0  0  0  0  0  0  0
  148.8178  141.6308  158.8455 H   0  0  0  0  0  0  0  0  0  0  0  0
  148.5724  143.0678  156.5499 H   0  0  0  0  0  0  0  0  0  0  0  0
  150.5849  144.1056  157.2424 H   0  0  0  0  0  0  0  0  0  0  0  0
  152.7062  142.6244  158.8393 H   0  0  0  0  0  0  0  0  0  0  0  0
  152.9766  143.6810  157.4499 H   0  0  0  0  0  0  0  0  0  0  0  0
  153.1499  144.6708  159.9709 H   0  0  0  0  0  0  0  0  0  0  0  0
  152.4363  145.6351  158.6751 H   0  0  0  0  0  0  0  0  0  0  0  0
  149.2170  144.0516  159.2340 H   0  0  0  0  0  0  0  0  0  0  0  0
  150.2534  142.8385  159.9904 H   0  0  0  0  0  0  0  0  0  0  0  0
  145.4693  135.8369  151.9198 H   0  0  0  0  0  0  0  0  0  0  0  0
  147.0220  135.1882  152.3833 H   0  0  0  0  0  0  0  0  0  0  0  0
  145.9318  133.7345  154.0717 H   0  0  0  0  0  0  0  0  0  0  0  0
  146.3525  132.7053  151.9513 H   0  0  0  0  0  0  0  0  0  0  0  0
  144.8939  133.3565  151.2362 H   0  0  0  0  0  0  0  0  0  0  0  0
  144.7862  132.1427  152.5162 H   0  0  0  0  0  0  0  0  0  0  0  0
  143.6721  133.5416  154.2177 H   0  0  0  0  0  0  0  0  0  0  0  0
  1  2  1  0  0  0  0
  1 30  1  0  0  0  0
  1 31  1  0  0  0  0
  1 32  1  0  0  0  0
  2  3  1  0  0  0  0
  2 33  1  0  0  0  0
  2 34  1  0  0  0  0
  3 28  1  0  0  0  0
  3  4  1  0  0  0  0
  3 64  1  0  0  0  0
  4  5  1  0  0  0  0
  4 35  1  0  0  0  0
  4 36  1  0  0  0  0
  5  6  1  0  0  0  0
  5 37  1  0  0  0  0
  5 38  1  0  0  0  0
  6  7  1  0  0  0  0
  6 27  1  0  0  0  0
  6 39  1  0  0  0  0
  7  8  1  0  0  0  0
  7  9  1  0  0  0  0
  8 40  1  0  0  0  0
  8 41  1  0  0  0  0
  8 42  1  0  0  0  0
  9 14  1  0  0  0  0
  9 10  2  0  0  0  0
 10 11  1  0  0  0  0
 11 12  2  0  0  0  0
 11 43  1  0  0  0  0
 12 13  1  0  0  0  0
 13 17  1  0  0  0  0
 13 14  2  0  0  0  0
 14 15  1  0  0  0  0
 15 16  2  0  0  0  0
 16 17  1  0  0  0  0
 16 44  1  0  0  0  0
 17 18  1  0  0  0  0
 18 19  1  0  0  0  0
 18 45  1  0  0  0  0
 18 46  1  0  0  0  0
 19 20  1  0  0  0  0
 19 22  1  0  0  0  0
 19 47  1  0  0  0  0
 20 21  1  0  0  0  0
 20 48  1  0  0  0  0
 20 49  1  0  0  0  0
 21 50  1  0  0  0  0
 22 26  1  0  0  0  0
 22 23  1  0  0  0  0
 22 51  1  0  0  0  0
 23 24  1  0  0  0  0
 23 52  1  0  0  0  0
 23 53  1  0  0  0  0
 24 25  1  0  0  0  0
 24 54  1  0  0  0  0
 24 55  1  0  0  0  0
 25 26  1  0  0  0  0
 26 56  1  0  0  0  0
 26 57  1  0  0  0  0
 27 28  1  0  0  0  0
 27 58  1  0  0  0  0
 27 59  1  0  0  0  0
 28 29  1  0  0  0  0
 28 60  1  0  0  0  0
 29 61  1  0  0  0  0
 29 62  1  0  0  0  0
 29 63  1  0  0  0  0
M  CHG  1   3   1
M  END
> <s_m_source_file>
AV-unprocessed.smi

> <i_m_source_file_index>
249

> <i_lp_mmshare_version>
43012

> <i_f3d_flags>
0

> <s_epik_input>
W0NIM11bQ0gyXU4xW0NIMl1bQ0gyXVtDQEhdKFtDSDJdW0NASF0xW0NIM10pTihbQ0gzXSljKG5bY0hdbjIpYyhjMjMpbltjSF1uM1tDSDJdW0NASF0oW0NIMl1bT0hdKVtDQEBIXTRbQ0gyXVtDSDJdT1tDSDJdNA==

> <s_epik_cmdline>
J2VwaWtfcHl0aG9uJywgJy1waCcsICc3LjAnLCAnLXRuJywgJzgnLCAnLW1hJywgJzIwMCcsICctbWV0YWxfYmluZGluZycsICctaW1hZScsICc8aW5maWxlLm1hZT4nLCAnLW9tYWUnLCAnPG91dGZpbGUubWFlPic=

> <r_lp_tautomer_probability>
1

> <r_epik_Ionization_Penalty>
0.00294688

> <r_epik_Ionization_Penalty_Charging>
0.00169971

> <r_epik_Ionization_Penalty_Neutral>
0.00124717

> <r_epik_State_Penalty>
-0

> <r_epik_Charging_Adjusted_Penalty>
0.00169971

> <i_epik_Tot_Q>
1

> <i_epik_Tot_abs_Q>
1

> <r_epik_Metal_State_Penalty>
-0

> <b_epik_Metal_Only>
0

> <s_lp_Force_Field>
OPLS_2005

> <r_lp_Energy>
55.1027

> <b_lp_Chiralities_Consistent>
1

> <s_lp_Variant>
AV-unprocessed.smi:249-19

> <Gold.Version>
5.8.1

> <Gold.Id.Protein>
6NUR|6NUR_protein|mol2

> <Gold.PLP.Fitness>
45.8076

> <Gold.PLP.PLP>
-37.5162

> <Gold.PLP.part.hbond>
-1.9791

> <Gold.PLP.part.metal>
0.0000

> <Gold.PLP.part.buried>
-3.7731

> <Gold.PLP.part.nonpolar>
-33.2471

> <Gold.PLP.part.repulsive>
0.3713

> <Gold.PLP.ligand.clash>
0.0000

> <Gold.PLP.ligand.torsion>
1.8261

> <Gold.PLP.Chemscore.Hbond>
2.9175

> <Gold.PLP.Chemscore.CHOScore>
0.6532

> <Gold.PLP.Chemscore.Metal>
0.0000

> <Gold.Chemscore.Hbonds>
donor molecule, donor type, donor heavy atom, donor atom, acceptor molecule, acceptor atom, score
      L1  H     3    64       P1 10957  1.56
      L1  H    21    50       P1  8028  1.00
      L1  C    16    44       P1  8028  0.75

> <Gold.PLP.Chemscore.Internal.Correction>
1.2316

> <Gold.Rescore>
     Score         DG    S(hbond)    S(metal)    S(lipo)     H(rot)  DE(clash)    DE(int)     intcor
     11.52     -14.90       1.66        0.00      91.30       2.65       0.33       3.06       ----

> <Gold.Chemscore.Fitness>
11.5159

> <Gold.Chemscore.DG>
-14.9039

> <Gold.Chemscore.ZeroCoef>
-5.4800

> <Gold.Chemscore.Hbond>
1.6556

> <Gold.Chemscore.Metal>
0.0000

> <Gold.Chemscore.Lipo>
91.3021

> <Gold.Chemscore.Internal_Hbond>
0.0000

> <Gold.Chemscore.DEClash>
0.3286

> <Gold.Chemscore.DEInternal>
3.0595

> <Gold.Chemscore.Rot>
2.6515

> <Gold.Chemscore.Internal.Correction>
   9.000000E+99

> <Gold.Chemscore.Hbonds>
donor molecule, donor type, donor heavy atom, donor atom, acceptor molecule, acceptor atom, score
      L1  H     3    64       P1 10957  0.77
      L1  H    21    50       P1  8028  0.77

> <Gold.Chemscore.Hbond.Weighted>
-5.5296

> <Gold.Chemscore.Metal.Weighted>
-0.0000

> <Gold.Chemscore.Lipo.Weighted>
-10.6823

> <Gold.Chemscore.Internal_Hbond.Weighted>
0.0000

> <Gold.Chemscore.DEClash.Weighted>
0.3286

> <Gold.Chemscore.DEInternal.Weighted>
3.0595

> <Gold.Chemscore.Rot.Weighted>
6.7880

> <Gold.Chemscore.Internal.Correction.Weighted>
   9.000000E+99

> <Gold.Protein.RotatedTorsions>
[ 6907 6896 6895 6894 ] final  168.97 input  -60.11 | X-H torsion
[ 7974 7965 7964 7962 ] final -175.12 input  175.53 | X-H torsion
[ 8008 7997 7996 7995 ] final  168.59 input   59.86 | X-H torsion
[ 10167 10162 10161 10158 ] final  161.38 input  -65.29 | X-H torsion
[ 10718 10713 10712 10709 ] final -164.32 input   66.30 | X-H torsion
[ 10763 10752 10751 10750 ] final  117.64 input  -60.55 | X-H torsion
[ 11005 11000 10999 10996 ] final  142.77 input  -57.11 | X-H torsion

> <Gold.Protein.ActiveResidues>
 VAL166  LYS551  ARG553  GLY616  TRP617  ASP618  TYR619  PRO620  LYS621  CYS622 
 ASP623  PHE694  ASN695  SER759  ASP760  ASP761  ALA762  ILE779  LEU786  VAL792 
 PHE793  MET794  SER795  GLU796  ALA797  LYS798  CYS799  TRP800  GLU811  SER814 

> <Gold.Protein.RotatedAtoms>
  151.8392  133.3421  159.3637 H   0  0  0  0  0  0  0  0  0  0  0  0  # atno 6907 bound_to 6896
  150.7240  134.5408  159.5755 H   0  0  0  0  0  0  0  0  0  0  0  0  # atno 6908 bound_to 6896
  152.2877  134.7757  160.0435 H   0  0  0  0  0  0  0  0  0  0  0  0  # atno 6909 bound_to 6896
  144.7129  140.1368  143.6394 H   0  0  0  0  0  0  0  0  0  0  0  0  # atno 7974 bound_to 7965
  156.1533  140.1586  156.8734 H   0  0  0  0  0  0  0  0  0  0  0  0  # atno 8008 bound_to 7997
  154.5091  140.0805  156.7991 H   0  0  0  0  0  0  0  0  0  0  0  0  # atno 8009 bound_to 7997
  155.3853  140.3407  155.4251 H   0  0  0  0  0  0  0  0  0  0  0  0  # atno 8010 bound_to 7997
  139.4849  144.4542  151.8790 H   0  0  0  0  0  0  0  0  0  0  0  0  # atno 10167 bound_to 10162
  156.6373  130.8954  151.2989 H   0  0  0  0  0  0  0  0  0  0  0  0  # atno 10718 bound_to 10713
  153.5554  135.3531  155.2777 H   0  0  0  0  0  0  0  0  0  0  0  0  # atno 10763 bound_to 10752
  154.8701  135.4124  154.2890 H   0  0  0  0  0  0  0  0  0  0  0  0  # atno 10764 bound_to 10752
  153.3625  135.7060  153.6770 H   0  0  0  0  0  0  0  0  0  0  0  0  # atno 10765 bound_to 10752
  140.0502  134.9259  157.1003 H   0  0  0  0  0  0  0  0  0  0  0  0  # atno 11005 bound_to 11000
  145.9237  139.2562  143.1366 LP  0  0  0  0  0  0  0  0  0  0  0  0  # atno 17320 bound_to 7965
  145.9594  140.8847  143.0218 LP  0  0  0  0  0  0  0  0  0  0  0  0  # atno 17321 bound_to 7965
  140.4001  144.2504  150.5893 LP  0  0  0  0  0  0  0  0  0  0  0  0  # atno 17342 bound_to 10162
  140.5065  143.2302  151.8600 LP  0  0  0  0  0  0  0  0  0  0  0  0  # atno 17343 bound_to 10162
  157.7182  130.9523  150.1334 LP  0  0  0  0  0  0  0  0  0  0  0  0  # atno 17370 bound_to 10713
  156.2186  130.3672  149.8583 LP  0  0  0  0  0  0  0  0  0  0  0  0  # atno 17371 bound_to 10713
  140.3929  134.2165  155.7165 LP  0  0  0  0  0  0  0  0  0  0  0  0  # atno 17394 bound_to 11000
  141.1926  133.8168  157.0831 LP  0  0  0  0  0  0  0  0  0  0  0  0  # atno 17395 bound_to 11000

$$$$
