AV-unprocessed.smi:2037|AV-procd|sdf|8278|dock4
  -GOLD-   2272010543D 1   1.00000     0.00000
 Structure written by MMmdl.
 38 39  0  0  0  0  0  0  0  0  3 V2000
  145.7003  132.9623  151.4605 C   0  0  0  0  0  0  0  0  0  0  0  0
  146.5107  133.2766  152.7256 C   0  0  2  0  0  0  0  0  0  0  0  0
  146.2591  134.7092  153.2233 C   0  0  0  0  0  0  0  0  0  0  0  0
  147.0931  135.0174  154.4781 C   0  0  0  0  0  0  0  0  0  0  0  0
  148.5434  134.8063  154.2312 N   0  3  1  0  0  0  0  0  0  0  0  0
  149.3685  135.2145  155.3961 C   0  0  0  0  0  0  0  0  0  0  0  0
  148.9031  136.5416  156.0155 C   0  0  0  0  0  0  0  0  0  0  0  0
  149.1702  136.5490  157.4468 N   0  0  0  0  0  0  0  0  0  0  0  0
  148.6929  135.6590  158.3261 C   0  0  0  0  0  0  0  0  0  0  0  0
  147.9654  134.7422  157.9376 O   0  0  0  0  0  0  0  0  0  0  0  0
  149.0894  135.8885  159.5979 N   0  5  0  0  0  0  0  0  0  0  0  0
  148.2397  135.6778  160.6165 C   0  0  0  0  0  0  0  0  0  0  0  0
  148.1692  136.4822  161.6831 N   0  0  0  0  0  0  0  0  0  0  0  0
  147.2251  136.0725  162.6264 C   0  0  0  0  0  0  0  0  0  0  0  0
  146.5660  134.9252  162.2728 C   0  0  0  0  0  0  0  0  0  0  0  0
  147.1162  134.3202  160.7361 S   0  0  0  0  0  0  0  0  0  0  0  0
  148.8212  133.4195  153.7699 C   0  0  0  0  0  0  0  0  0  0  0  0
  148.0191  133.0812  152.5015 C   0  0  0  0  0  0  0  0  0  0  0  0
  145.9692  133.6278  150.6396 H   0  0  0  0  0  0  0  0  0  0  0  0
  144.6309  133.0733  151.6423 H   0  0  0  0  0  0  0  0  0  0  0  0
  145.8719  131.9377  151.1289 H   0  0  0  0  0  0  0  0  0  0  0  0
  146.1899  132.5836  153.5049 H   0  0  0  0  0  0  0  0  0  0  0  0
  146.5060  135.4244  152.4371 H   0  0  0  0  0  0  0  0  0  0  0  0
  145.2001  134.8473  153.4447 H   0  0  0  0  0  0  0  0  0  0  0  0
  146.9165  136.0517  154.7767 H   0  0  0  0  0  0  0  0  0  0  0  0
  146.7695  134.3882  155.3088 H   0  0  0  0  0  0  0  0  0  0  0  0
  149.3045  134.4445  156.1666 H   0  0  0  0  0  0  0  0  0  0  0  0
  150.4184  135.2710  155.1035 H   0  0  0  0  0  0  0  0  0  0  0  0
  149.4173  137.3877  155.5595 H   0  0  0  0  0  0  0  0  0  0  0  0
  147.8339  136.6824  155.8501 H   0  0  0  0  0  0  0  0  0  0  0  0
  149.7624  137.2838  157.8056 H   0  0  0  0  0  0  0  0  0  0  0  0
  147.0887  136.6588  163.5228 H   0  0  0  0  0  0  0  0  0  0  0  0
  145.7966  134.4009  162.8191 H   0  0  0  0  0  0  0  0  0  0  0  0
  149.8813  133.2946  153.5537 H   0  0  0  0  0  0  0  0  0  0  0  0
  148.5770  132.7144  154.5661 H   0  0  0  0  0  0  0  0  0  0  0  0
  148.2222  132.0517  152.2046 H   0  0  0  0  0  0  0  0  0  0  0  0
  148.3571  133.7118  151.6778 H   0  0  0  0  0  0  0  0  0  0  0  0
  148.7941  135.4257  153.4738 H   0  0  0  0  0  0  0  0  0  0  0  0
  1  2  1  0  0  0  0
  1 19  1  0  0  0  0
  1 20  1  0  0  0  0
  1 21  1  0  0  0  0
  2 18  1  0  0  0  0
  2  3  1  0  0  0  0
  2 22  1  0  0  0  0
  3  4  1  0  0  0  0
  3 23  1  0  0  0  0
  3 24  1  0  0  0  0
  4  5  1  0  0  0  0
  4 25  1  0  0  0  0
  4 26  1  0  0  0  0
  5  6  1  0  0  0  0
  5 17  1  0  0  0  0
  5 38  1  0  0  0  0
  6  7  1  0  0  0  0
  6 27  1  0  0  0  0
  6 28  1  0  0  0  0
  7  8  1  0  0  0  0
  7 29  1  0  0  0  0
  7 30  1  0  0  0  0
  8  9  1  0  0  0  0
  8 31  1  0  0  0  0
  9 10  2  0  0  0  0
  9 11  1  0  0  0  0
 11 12  1  0  0  0  0
 12 16  1  0  0  0  0
 12 13  2  0  0  0  0
 13 14  1  0  0  0  0
 14 15  2  0  0  0  0
 14 32  1  0  0  0  0
 15 16  1  0  0  0  0
 15 33  1  0  0  0  0
 17 18  1  0  0  0  0
 17 34  1  0  0  0  0
 17 35  1  0  0  0  0
 18 36  1  0  0  0  0
 18 37  1  0  0  0  0
M  CHG  1   5   1
M  CHG  1  11  -1
M  END
> <s_m_source_file>
AV-unprocessed.smi

> <i_m_source_file_index>
2037

> <i_lp_mmshare_version>
43012

> <i_f3d_flags>
0

> <s_epik_input>
W0NIM11bQ0hdMVtDSDJdW0NIMl1OKFtDSDJdW0NIMl0xKVtDSDJdW0NIMl1bTkhdQyg9TylbTkhdYzJuW2NIXVtjSF1zMg==

> <s_epik_cmdline>
J2VwaWtfcHl0aG9uJywgJy1waCcsICc3LjAnLCAnLXRuJywgJzgnLCAnLW1hJywgJzIwMCcsICctbWV0YWxfYmluZGluZycsICctaW1hZScsICc8aW5maWxlLm1hZT4nLCAnLW9tYWUnLCAnPG91dGZpbGUubWFlPic=

> <r_lp_tautomer_probability>
0.999

> <r_epik_Ionization_Penalty>
6.22113

> <r_epik_Ionization_Penalty_Charging>
5.39005

> <r_epik_Ionization_Penalty_Neutral>
0.831074

> <r_epik_State_Penalty>
5.38997

> <r_epik_Charging_Adjusted_Penalty>
10.78

> <i_epik_Tot_Q>
0

> <i_epik_Tot_abs_Q>
2

> <r_epik_Metal_State_Penalty>
1.41601

> <b_epik_Metal_Only>
1

> <s_lp_Force_Field>
OPLS_2005

> <r_lp_Energy>
7.40316

> <b_lp_Chiralities_Consistent>
1

> <s_lp_Variant>
AV-unprocessed.smi:2037-3

> <Gold.Version>
5.8.1

> <Gold.Id.Protein>
6NUR|6NUR_protein|mol2

> <Gold.PLP.Fitness>
42.9968

> <Gold.PLP.PLP>
-29.6924

> <Gold.PLP.part.hbond>
-3.0000

> <Gold.PLP.part.metal>
0.0000

> <Gold.PLP.part.buried>
-3.9783

> <Gold.PLP.part.nonpolar>
-23.1990

> <Gold.PLP.part.repulsive>
0.0390

> <Gold.PLP.ligand.clash>
0.0000

> <Gold.PLP.ligand.torsion>
0.8817

> <Gold.PLP.Chemscore.Hbond>
5.0000

> <Gold.PLP.Chemscore.CHOScore>
0.0000

> <Gold.PLP.Chemscore.Metal>
0.0000

> <Gold.Chemscore.Hbonds>
donor molecule, donor type, donor heavy atom, donor atom, acceptor molecule, acceptor atom, score
      L1  H     5    38       P1  7948  2.00
      P1  H  6896  6907       L1    11  1.89
      P1  H  6931  6943       L1    13  1.00

> <Gold.PLP.Chemscore.Internal.Correction>
0.0680

> <Gold.Rescore>
     Score         DG    S(hbond)    S(metal)    S(lipo)     H(rot)  DE(clash)    DE(int)     intcor
     12.39     -15.55       2.00        0.00      63.26       1.57       0.03       3.13       ----

> <Gold.Chemscore.Fitness>
12.3877

> <Gold.Chemscore.DG>
-15.5502

> <Gold.Chemscore.ZeroCoef>
-5.4800

> <Gold.Chemscore.Hbond>
2.0004

> <Gold.Chemscore.Metal>
0.0000

> <Gold.Chemscore.Lipo>
63.2633

> <Gold.Chemscore.Internal_Hbond>
0.0000

> <Gold.Chemscore.DEClash>
0.0346

> <Gold.Chemscore.DEInternal>
3.1279

> <Gold.Chemscore.Rot>
1.5676

> <Gold.Chemscore.Internal.Correction>
   9.000000E+99

> <Gold.Chemscore.Hbonds>
donor molecule, donor type, donor heavy atom, donor atom, acceptor molecule, acceptor atom, score
      L1  H     5    38       P1  7948  0.85
      P1  H  6896  6907       L1    11  0.40
      P1  H  6931  6943       L1    13  0.95

> <Gold.Chemscore.Hbond.Weighted>
-6.6814

> <Gold.Chemscore.Metal.Weighted>
-0.0000

> <Gold.Chemscore.Lipo.Weighted>
-7.4018

> <Gold.Chemscore.Internal_Hbond.Weighted>
0.0000

> <Gold.Chemscore.DEClash.Weighted>
0.0346

> <Gold.Chemscore.DEInternal.Weighted>
3.1279

> <Gold.Chemscore.Rot.Weighted>
4.0130

> <Gold.Chemscore.Internal.Correction.Weighted>
   9.000000E+99

> <Gold.Protein.RotatedTorsions>
[ 6907 6896 6895 6894 ] final  -41.56 input  -60.11 | X-H torsion
[ 7974 7965 7964 7962 ] final  -53.64 input  175.53 | X-H torsion
[ 8008 7997 7996 7995 ] final  -76.00 input   59.86 | X-H torsion
[ 10167 10162 10161 10158 ] final  -20.50 input  -65.29 | X-H torsion
[ 10718 10713 10712 10709 ] final  146.97 input   66.30 | X-H torsion
[ 10763 10752 10751 10750 ] final -165.37 input  -60.55 | X-H torsion
[ 11005 11000 10999 10996 ] final  -94.70 input  -57.11 | X-H torsion

> <Gold.Protein.ActiveResidues>
 VAL166  LYS551  ARG553  GLY616  TRP617  ASP618  TYR619  PRO620  LYS621  CYS622 
 ASP623  PHE694  ASN695  SER759  ASP760  ASP761  ALA762  ILE779  LEU786  VAL792 
 PHE793  MET794  SER795  GLU796  ALA797  LYS798  CYS799  TRP800  GLU811  SER814 

> <Gold.Protein.RotatedAtoms>
  150.9653  134.9035  159.7755 H   0  0  0  0  0  0  0  0  0  0  0  0  # atno 6907 bound_to 6896
  152.5171  134.3616  159.9296 H   0  0  0  0  0  0  0  0  0  0  0  0  # atno 6908 bound_to 6896
  151.3627  133.3843  159.2726 H   0  0  0  0  0  0  0  0  0  0  0  0  # atno 6909 bound_to 6896
  145.8946  140.8043  142.9774 H   0  0  0  0  0  0  0  0  0  0  0  0  # atno 7974 bound_to 7965
  154.5466  140.0734  156.8599 H   0  0  0  0  0  0  0  0  0  0  0  0  # atno 8008 bound_to 7997
  155.3074  140.3388  155.4227 H   0  0  0  0  0  0  0  0  0  0  0  0  # atno 8009 bound_to 7997
  156.1924  140.1691  156.8052 H   0  0  0  0  0  0  0  0  0  0  0  0  # atno 8010 bound_to 7997
  140.7276  143.4716  151.0239 H   0  0  0  0  0  0  0  0  0  0  0  0  # atno 10167 bound_to 10162
  157.3267  131.0913  151.1196 H   0  0  0  0  0  0  0  0  0  0  0  0  # atno 10718 bound_to 10713
  154.6938  135.2975  154.9441 H   0  0  0  0  0  0  0  0  0  0  0  0  # atno 10763 bound_to 10752
  154.0395  135.6659  153.4792 H   0  0  0  0  0  0  0  0  0  0  0  0  # atno 10764 bound_to 10752
  153.0631  135.5104  154.8045 H   0  0  0  0  0  0  0  0  0  0  0  0  # atno 10765 bound_to 10752
  141.1463  133.7974  157.0333 H   0  0  0  0  0  0  0  0  0  0  0  0  # atno 11005 bound_to 11000
  144.6732  140.1582  143.7424 LP  0  0  0  0  0  0  0  0  0  0  0  0  # atno 17320 bound_to 7965
  145.8866  139.2352  143.1574 LP  0  0  0  0  0  0  0  0  0  0  0  0  # atno 17321 bound_to 7965
  139.8409  143.7566  152.3180 LP  0  0  0  0  0  0  0  0  0  0  0  0  # atno 17342 bound_to 10162
  139.7714  144.7475  151.0219 LP  0  0  0  0  0  0  0  0  0  0  0  0  # atno 17343 bound_to 10162
  157.2460  130.6591  149.5910 LP  0  0  0  0  0  0  0  0  0  0  0  0  # atno 17370 bound_to 10713
  155.9691  130.4553  150.5884 LP  0  0  0  0  0  0  0  0  0  0  0  0  # atno 17371 bound_to 10713
  140.0739  134.9686  157.1514 LP  0  0  0  0  0  0  0  0  0  0  0  0  # atno 17394 bound_to 11000
  140.3671  134.2431  155.7181 LP  0  0  0  0  0  0  0  0  0  0  0  0  # atno 17395 bound_to 11000

$$$$
