AV-unprocessed.smi:760|AV-procd|sdf|3627|dock3
  -GOLD-   22720 1 23D 1   1.00000     0.00000
 Structure written by MMmdl.
 44 45  0  0  0  0  0  0  0  0  2 V2000
  147.8881  128.0650  151.4300 C   0  0  0  0  0  0  0  0  0  0  0  0
  146.7087  128.5539  151.8477 C   0  0  0  0  0  0  0  0  0  0  0  0
  146.1331  128.2063  153.2093 C   0  0  0  0  0  0  0  0  0  0  0  0
  145.8933  129.5125  150.9931 C   0  0  0  0  0  0  0  0  0  0  0  0
  146.2705  130.9362  151.1962 N   0  3  2  0  0  0  0  0  0  0  0  0
  146.5547  131.2236  152.6263 C   0  0  0  0  0  0  0  0  0  0  0  0
  147.0873  132.6527  152.8195 C   0  0  0  0  0  0  0  0  0  0  0  0
  146.1026  133.6888  152.2582 C   0  0  1  0  0  0  0  0  0  0  0  0
  146.6665  135.0295  152.3865 N   0  0  0  0  0  0  0  0  0  0  0  0
  146.1017  136.0433  153.0581 C   0  0  0  0  0  0  0  0  0  0  0  0
  145.0270  135.9509  153.6511 O   0  0  0  0  0  0  0  0  0  0  0  0
  146.8547  137.1529  152.9897 N   0  0  0  0  0  0  0  0  0  0  0  0
  146.5815  138.4125  153.5791 C   0  0  0  0  0  0  0  0  0  0  0  0
  145.7226  138.7324  154.6688 C   0  0  0  0  0  0  0  0  0  0  0  0
  145.7424  140.0323  154.9233 N   0  0  0  0  0  0  0  0  0  0  0  0
  146.6000  140.5564  154.0144 N   0  0  0  0  0  0  0  0  0  0  0  0
  146.8542  141.9811  154.0187 C   0  0  0  0  0  0  0  0  0  0  0  0
  147.1318  139.5934  153.1802 C   0  0  0  0  0  0  0  0  0  0  0  0
  145.8024  133.3590  150.7855 C   0  0  0  0  0  0  0  0  0  0  0  0
  145.3057  131.9125  150.6217 C   0  0  0  0  0  0  0  0  0  0  0  0
  148.4683  127.3937  152.0465 H   0  0  0  0  0  0  0  0  0  0  0  0
  148.2927  128.3294  150.4638 H   0  0  0  0  0  0  0  0  0  0  0  0
  146.0842  129.1003  153.8313 H   0  0  0  0  0  0  0  0  0  0  0  0
  146.7528  127.4724  153.7256 H   0  0  0  0  0  0  0  0  0  0  0  0
  145.1268  127.7983  153.1286 H   0  0  0  0  0  0  0  0  0  0  0  0
  145.9734  129.2423  149.9389 H   0  0  0  0  0  0  0  0  0  0  0  0
  144.8448  129.3822  151.2658 H   0  0  0  0  0  0  0  0  0  0  0  0
  145.6468  131.0793  153.2144 H   0  0  0  0  0  0  0  0  0  0  0  0
  147.2924  130.5151  153.0052 H   0  0  0  0  0  0  0  0  0  0  0  0
  147.2631  132.8393  153.8798 H   0  0  0  0  0  0  0  0  0  0  0  0
  148.0545  132.7491  152.3234 H   0  0  0  0  0  0  0  0  0  0  0  0
  145.1771  133.6317  152.8351 H   0  0  0  0  0  0  0  0  0  0  0  0
  147.5514  135.1981  151.9309 H   0  0  0  0  0  0  0  0  0  0  0  0
  147.7114  137.0924  152.4591 H   0  0  0  0  0  0  0  0  0  0  0  0
  145.1003  138.0912  155.2748 H   0  0  0  0  0  0  0  0  0  0  0  0
  147.4134  142.2637  153.1261 H   0  0  0  0  0  0  0  0  0  0  0  0
  147.4356  142.2477  154.9017 H   0  0  0  0  0  0  0  0  0  0  0  0
  145.9104  142.5273  154.0321 H   0  0  0  0  0  0  0  0  0  0  0  0
  147.8368  139.8277  152.3961 H   0  0  0  0  0  0  0  0  0  0  0  0
  145.0555  134.0477  150.3889 H   0  0  0  0  0  0  0  0  0  0  0  0
  146.7013  133.5014  150.1837 H   0  0  0  0  0  0  0  0  0  0  0  0
  145.1695  131.7249  149.5579 H   0  0  0  0  0  0  0  0  0  0  0  0
  144.3318  131.7898  151.0984 H   0  0  0  0  0  0  0  0  0  0  0  0
  147.1414  131.0695  150.7022 H   0  0  0  0  0  0  0  0  0  0  0  0
  1  2  2  0  0  0  0
  1 21  1  0  0  0  0
  1 22  1  0  0  0  0
  2  3  1  0  0  0  0
  2  4  1  0  0  0  0
  3 23  1  0  0  0  0
  3 24  1  0  0  0  0
  3 25  1  0  0  0  0
  4  5  1  0  0  0  0
  4 26  1  0  0  0  0
  4 27  1  0  0  0  0
  5 20  1  0  0  0  0
  5  6  1  0  0  0  0
  5 44  1  0  0  0  0
  6  7  1  0  0  0  0
  6 28  1  0  0  0  0
  6 29  1  0  0  0  0
  7  8  1  0  0  0  0
  7 30  1  0  0  0  0
  7 31  1  0  0  0  0
  8  9  1  0  0  0  0
  8 19  1  0  0  0  0
  8 32  1  0  0  0  0
  9 10  1  0  0  0  0
  9 33  1  0  0  0  0
 10 11  2  0  0  0  0
 10 12  1  0  0  0  0
 12 13  1  0  0  0  0
 12 34  1  0  0  0  0
 13 18  2  0  0  0  0
 13 14  1  0  0  0  0
 14 15  2  0  0  0  0
 14 35  1  0  0  0  0
 15 16  1  0  0  0  0
 16 17  1  0  0  0  0
 16 18  1  0  0  0  0
 17 36  1  0  0  0  0
 17 37  1  0  0  0  0
 17 38  1  0  0  0  0
 18 39  1  0  0  0  0
 19 20  1  0  0  0  0
 19 40  1  0  0  0  0
 19 41  1  0  0  0  0
 20 42  1  0  0  0  0
 20 43  1  0  0  0  0
M  CHG  1   5   1
M  END
> <s_m_source_file>
AV-unprocessed.smi

> <i_m_source_file_index>
760

> <i_lp_mmshare_version>
43012

> <i_f3d_flags>
0

> <s_epik_input>
W0NIMl09QyhbQ0gzXSlbQ0gyXU4xW0NIMl1bQ0gyXVtDSF0oW0NIMl1bQ0gyXTEpW05IXUMoPU8pW05IXWMyW2NIXW5uKFtDSDNdKVtjSF0y

> <s_epik_cmdline>
J2VwaWtfcHl0aG9uJywgJy1waCcsICc3LjAnLCAnLXRuJywgJzgnLCAnLW1hJywgJzIwMCcsICctbWV0YWxfYmluZGluZycsICctaW1hZScsICc8aW5maWxlLm1hZT4nLCAnLW9tYWUnLCAnPG91dGZpbGUubWFlPic=

> <r_lp_tautomer_probability>
1

> <r_epik_Ionization_Penalty>
0.0194996

> <r_epik_Ionization_Penalty_Charging>
0.0193505

> <r_epik_Ionization_Penalty_Neutral>
0.000149098

> <r_epik_State_Penalty>
0.0154499

> <r_epik_Charging_Adjusted_Penalty>
0.0348004

> <i_epik_Tot_Q>
1

> <i_epik_Tot_abs_Q>
1

> <r_epik_Metal_State_Penalty>
0.0154507

> <b_epik_Metal_Only>
0

> <s_lp_Force_Field>
OPLS_2005

> <r_lp_Energy>
20.4425

> <b_lp_Chiralities_Consistent>
1

> <s_lp_Variant>
AV-unprocessed.smi:760-1

> <Gold.Version>
5.8.1

> <Gold.Id.Protein>
6NUR|6NUR_protein|mol2

> <Gold.PLP.Fitness>
43.2797

> <Gold.PLP.PLP>
-32.5880

> <Gold.PLP.part.hbond>
-3.0000

> <Gold.PLP.part.metal>
0.0000

> <Gold.PLP.part.buried>
-3.6040

> <Gold.PLP.part.nonpolar>
-26.3062

> <Gold.PLP.part.repulsive>
0.2146

> <Gold.PLP.ligand.clash>
0.0000

> <Gold.PLP.ligand.torsion>
0.6111

> <Gold.PLP.Chemscore.Hbond>
2.9600

> <Gold.PLP.Chemscore.CHOScore>
1.0000

> <Gold.PLP.Chemscore.Metal>
0.0000

> <Gold.Chemscore.Hbonds>
donor molecule, donor type, donor heavy atom, donor atom, acceptor molecule, acceptor atom, score
      L1  H     5    44       P1 10747  1.00
      L1  H     9    33       P1  7948  0.94
      L1  H    12    34       P1  7948  1.00
      L1  C    18    39       P1  7957  1.00

> <Gold.PLP.Chemscore.Internal.Correction>
0.0340

> <Gold.Rescore>
     Score         DG    S(hbond)    S(metal)    S(lipo)     H(rot)  DE(clash)    DE(int)     intcor
     20.76     -21.72       2.91        0.00      85.65       1.38       0.24       0.71       ----

> <Gold.Chemscore.Fitness>
20.7623

> <Gold.Chemscore.DG>
-21.7150

> <Gold.Chemscore.ZeroCoef>
-5.4800

> <Gold.Chemscore.Hbond>
2.9145

> <Gold.Chemscore.Metal>
0.0000

> <Gold.Chemscore.Lipo>
85.6503

> <Gold.Chemscore.Internal_Hbond>
0.0000

> <Gold.Chemscore.DEClash>
0.2414

> <Gold.Chemscore.DEInternal>
0.7113

> <Gold.Chemscore.Rot>
1.3752

> <Gold.Chemscore.Internal.Correction>
   9.000000E+99

> <Gold.Chemscore.Hbonds>
donor molecule, donor type, donor heavy atom, donor atom, acceptor molecule, acceptor atom, score
      L1  H     5    44       P1 10747  0.99
      L1  H     9    33       P1  7948  0.86
      L1  H    12    34       P1  7948  0.95

> <Gold.Chemscore.Hbond.Weighted>
-9.7343

> <Gold.Chemscore.Metal.Weighted>
-0.0000

> <Gold.Chemscore.Lipo.Weighted>
-10.0211

> <Gold.Chemscore.Internal_Hbond.Weighted>
0.0000

> <Gold.Chemscore.DEClash.Weighted>
0.2414

> <Gold.Chemscore.DEInternal.Weighted>
0.7113

> <Gold.Chemscore.Rot.Weighted>
3.5204

> <Gold.Chemscore.Internal.Correction.Weighted>
   9.000000E+99

> <Gold.Protein.RotatedTorsions>
[ 6907 6896 6895 6894 ] final   14.40 input  -60.11 | X-H torsion
[ 7974 7965 7964 7962 ] final  -52.09 input  175.53 | X-H torsion
[ 8008 7997 7996 7995 ] final  112.92 input   59.86 | X-H torsion
[ 10167 10162 10161 10158 ] final   44.78 input  -65.29 | X-H torsion
[ 10718 10713 10712 10709 ] final -113.50 input   66.30 | X-H torsion
[ 10763 10752 10751 10750 ] final   78.10 input  -60.55 | X-H torsion
[ 11005 11000 10999 10996 ] final    9.63 input  -57.11 | X-H torsion

> <Gold.Protein.ActiveResidues>
 VAL166  LYS551  ARG553  GLY616  TRP617  ASP618  TYR619  PRO620  LYS621  CYS622 
 ASP623  PHE694  ASN695  SER759  ASP760  ASP761  ALA762  ILE779  LEU786  VAL792 
 PHE793  MET794  SER795  GLU796  ALA797  LYS798  CYS799  TRP800  GLU811  SER814 

> <Gold.Protein.RotatedAtoms>
  151.8017  135.0707  160.0400 H   0  0  0  0  0  0  0  0  0  0  0  0  # atno 6907 bound_to 6896
  152.3084  133.5723  159.5673 H   0  0  0  0  0  0  0  0  0  0  0  0  # atno 6908 bound_to 6896
  150.7308  134.0104  159.3710 H   0  0  0  0  0  0  0  0  0  0  0  0  # atno 6909 bound_to 6896
  145.9118  140.7908  142.9691 H   0  0  0  0  0  0  0  0  0  0  0  0  # atno 7974 bound_to 7965
  156.2224  140.2990  155.9985 H   0  0  0  0  0  0  0  0  0  0  0  0  # atno 8008 bound_to 7997
  155.2446  140.0423  157.2996 H   0  0  0  0  0  0  0  0  0  0  0  0  # atno 8009 bound_to 7997
  154.5862  140.2389  155.7992 H   0  0  0  0  0  0  0  0  0  0  0  0  # atno 8010 bound_to 7997
  140.3308  144.2591  150.6168 H   0  0  0  0  0  0  0  0  0  0  0  0  # atno 10167 bound_to 10162
  156.0771  130.5976  150.8651 H   0  0  0  0  0  0  0  0  0  0  0  0  # atno 10718 bound_to 10713
  153.0848  135.4889  154.8575 H   0  0  0  0  0  0  0  0  0  0  0  0  # atno 10763 bound_to 10752
  154.7197  135.3037  154.9070 H   0  0  0  0  0  0  0  0  0  0  0  0  # atno 10764 bound_to 10752
  153.9738  135.6798  153.4801 H   0  0  0  0  0  0  0  0  0  0  0  0  # atno 10765 bound_to 10752
  140.5236  134.0535  155.7852 H   0  0  0  0  0  0  0  0  0  0  0  0  # atno 11005 bound_to 11000
  144.6744  140.1838  143.7403 LP  0  0  0  0  0  0  0  0  0  0  0  0  # atno 17320 bound_to 7965
  145.8661  139.2248  143.1688 LP  0  0  0  0  0  0  0  0  0  0  0  0  # atno 17321 bound_to 7965
  140.5399  143.2225  151.8102 LP  0  0  0  0  0  0  0  0  0  0  0  0  # atno 17342 bound_to 10162
  139.4857  144.4614  151.9537 LP  0  0  0  0  0  0  0  0  0  0  0  0  # atno 17343 bound_to 10162
  157.5871  131.0945  150.9179 LP  0  0  0  0  0  0  0  0  0  0  0  0  # atno 17370 bound_to 10713
  156.9363  130.5368  149.5279 LP  0  0  0  0  0  0  0  0  0  0  0  0  # atno 17371 bound_to 10713
  141.1320  133.9285  157.2514 LP  0  0  0  0  0  0  0  0  0  0  0  0  # atno 17394 bound_to 11000
  139.9592  135.0158  156.9214 LP  0  0  0  0  0  0  0  0  0  0  0  0  # atno 17395 bound_to 11000

$$$$
