AV-unprocessed.smi:3052|AV-procd|sdf|11636|dock10
  -GOLD-   2272017 33D 1   1.00000     0.00000
 Structure written by MMmdl.
 41 43  0  0  0  0  0  0  0  0  1 V2000
  149.1755  134.4905  154.4393 C   0  0  0  0  0  0  0  0  0  0  0  0
  149.5170  133.0333  154.5821 C   0  0  0  0  0  0  0  0  0  0  0  0
  150.2607  132.6431  155.6067 N   0  0  0  0  0  0  0  0  0  0  0  0
  150.3594  131.2457  155.5237 O   0  0  0  0  0  0  0  0  0  0  0  0
  149.6715  130.8181  154.4327 C   0  0  0  0  0  0  0  0  0  0  0  0
  149.6473  129.3444  154.1898 C   0  0  0  0  0  0  0  0  0  0  0  0
  148.9520  128.7691  152.9815 C   0  0  0  0  0  0  0  0  0  0  0  0
  148.3908  128.5249  154.3653 C   0  0  0  0  0  0  0  0  0  0  0  0
  149.1410  131.9034  153.7984 C   0  0  0  0  0  0  0  0  0  0  0  0
  148.3226  131.8450  152.6434 N   0  0  0  0  0  0  0  0  0  0  0  0
  147.1235  132.4231  152.4802 C   0  0  0  0  0  0  0  0  0  0  0  0
  146.5404  133.0784  153.3429 O   0  0  0  0  0  0  0  0  0  0  0  0
  146.6525  132.2119  151.2401 N   0  0  0  0  0  0  0  0  0  0  0  0
  145.3890  132.6712  150.6502 C   0  0  2  0  0  0  0  0  0  0  0  0
  144.2951  132.1072  151.5899 C   0  0  0  0  0  0  0  0  0  0  0  0
  145.2316  132.0232  149.2477 C   0  0  0  0  0  0  0  0  0  0  0  0
  143.8812  131.9679  148.8323 O   0  0  0  0  0  0  0  0  0  0  0  0
  145.3329  134.2038  150.5226 C   0  0  0  0  0  0  0  0  0  0  0  0
  144.9516  135.1264  151.6565 C   0  0  0  0  0  0  0  0  0  0  0  0
  144.0528  135.0046  150.4411 C   0  0  0  0  0  0  0  0  0  0  0  0
  148.1898  134.6238  153.9938 H   0  0  0  0  0  0  0  0  0  0  0  0
  149.9019  135.0021  153.8079 H   0  0  0  0  0  0  0  0  0  0  0  0
  149.1648  134.9950  155.4060 H   0  0  0  0  0  0  0  0  0  0  0  0
  150.5868  128.8848  154.4901 H   0  0  0  0  0  0  0  0  0  0  0  0
  148.4091  129.4561  152.3353 H   0  0  0  0  0  0  0  0  0  0  0  0
  149.4314  127.9330  152.4767 H   0  0  0  0  0  0  0  0  0  0  0  0
  148.4976  127.5255  154.7818 H   0  0  0  0  0  0  0  0  0  0  0  0
  147.4670  129.0399  154.6208 H   0  0  0  0  0  0  0  0  0  0  0  0
  148.7429  131.4341  151.8228 H   0  0  0  0  0  0  0  0  0  0  0  0
  147.2357  131.6623  150.6263 H   0  0  0  0  0  0  0  0  0  0  0  0
  143.2868  132.3527  151.2585 H   0  0  0  0  0  0  0  0  0  0  0  0
  144.4044  132.4720  152.6112 H   0  0  0  0  0  0  0  0  0  0  0  0
  144.3481  131.0187  151.6388 H   0  0  0  0  0  0  0  0  0  0  0  0
  145.7895  132.5760  148.4914 H   0  0  0  0  0  0  0  0  0  0  0  0
  145.6265  131.0063  149.2480 H   0  0  0  0  0  0  0  0  0  0  0  0
  143.4059  132.6626  149.2616 H   0  0  0  0  0  0  0  0  0  0  0  0
  146.1205  134.5895  149.8784 H   0  0  0  0  0  0  0  0  0  0  0  0
  144.5942  134.6951  152.5882 H   0  0  0  0  0  0  0  0  0  0  0  0
  145.5271  136.0434  151.7649 H   0  0  0  0  0  0  0  0  0  0  0  0
  144.0343  135.8424  149.7471 H   0  0  0  0  0  0  0  0  0  0  0  0
  143.0996  134.4997  150.5747 H   0  0  0  0  0  0  0  0  0  0  0  0
  1  2  1  0  0  0  0
  1 21  1  0  0  0  0
  1 22  1  0  0  0  0
  1 23  1  0  0  0  0
  2  9  1  0  0  0  0
  2  3  2  0  0  0  0
  3  4  1  0  0  0  0
  4  5  1  0  0  0  0
  5  6  1  0  0  0  0
  5  9  2  0  0  0  0
  6  8  1  0  0  0  0
  6  7  1  0  0  0  0
  6 24  1  0  0  0  0
  7  8  1  0  0  0  0
  7 25  1  0  0  0  0
  7 26  1  0  0  0  0
  8 27  1  0  0  0  0
  8 28  1  0  0  0  0
  9 10  1  0  0  0  0
 10 11  1  0  0  0  0
 10 29  1  0  0  0  0
 11 12  2  0  0  0  0
 11 13  1  0  0  0  0
 13 14  1  0  0  0  0
 13 30  1  0  0  0  0
 14 15  1  0  0  0  0
 14 16  1  0  0  0  0
 14 18  1  0  0  0  0
 15 31  1  0  0  0  0
 15 32  1  0  0  0  0
 15 33  1  0  0  0  0
 16 17  1  0  0  0  0
 16 34  1  0  0  0  0
 16 35  1  0  0  0  0
 17 36  1  0  0  0  0
 18 20  1  0  0  0  0
 18 19  1  0  0  0  0
 18 37  1  0  0  0  0
 19 20  1  0  0  0  0
 19 38  1  0  0  0  0
 19 39  1  0  0  0  0
 20 40  1  0  0  0  0
 20 41  1  0  0  0  0
M  END
> <s_m_source_file>
AV-unprocessed.smi

> <i_m_source_file_index>
3052

> <i_lp_mmshare_version>
43012

> <i_f3d_flags>
0

> <s_epik_input>
W0NIM11jMW5vYyhbQ0hdMltDSDJdW0NIMl0yKWMxW05IXUMoPU8pW05IXVtDQEBdKFtDSDNdKShbQ0gyXVtPSF0pW0NIXTNbQ0gyXVtDSDJdMw==

> <s_epik_cmdline>
J2VwaWtfcHl0aG9uJywgJy1waCcsICc3LjAnLCAnLXRuJywgJzgnLCAnLW1hJywgJzIwMCcsICctbWV0YWxfYmluZGluZycsICctaW1hZScsICc8aW5maWxlLm1hZT4nLCAnLW9tYWUnLCAnPG91dGZpbGUubWFlPic=

> <r_lp_tautomer_probability>
1

> <r_epik_Ionization_Penalty>
3.5887e-05

> <r_epik_Ionization_Penalty_Charging>
0

> <r_epik_Ionization_Penalty_Neutral>
3.5887e-05

> <r_epik_State_Penalty>
-0

> <r_epik_Charging_Adjusted_Penalty>
0

> <i_epik_Tot_Q>
0

> <i_epik_Tot_abs_Q>
0

> <r_epik_Metal_State_Penalty>
-0

> <b_epik_Metal_Only>
0

> <s_lp_Force_Field>
OPLS_2005

> <r_lp_Energy>
28.1978

> <b_lp_Chiralities_Consistent>
1

> <s_lp_Variant>
AV-unprocessed.smi:3052-2

> <Gold.Version>
5.8.1

> <Gold.Id.Protein>
6NUR|6NUR_protein|mol2

> <Gold.PLP.Fitness>
43.2808

> <Gold.PLP.PLP>
-36.8846

> <Gold.PLP.part.hbond>
-3.0000

> <Gold.PLP.part.metal>
0.0000

> <Gold.PLP.part.buried>
-5.9781

> <Gold.PLP.part.nonpolar>
-28.8886

> <Gold.PLP.part.repulsive>
0.1434

> <Gold.PLP.ligand.clash>
0.0000

> <Gold.PLP.ligand.torsion>
1.5642

> <Gold.PLP.Chemscore.Hbond>
2.5438

> <Gold.PLP.Chemscore.CHOScore>
0.0000

> <Gold.PLP.Chemscore.Metal>
0.0000

> <Gold.Chemscore.Hbonds>
donor molecule, donor type, donor heavy atom, donor atom, acceptor molecule, acceptor atom, score
      L1  H    10    29       P1 10747  1.00
      L1  H    13    30       P1 10747  0.98
      P1  H 10785 10796       L1    17  0.66

> <Gold.PLP.Chemscore.Internal.Correction>
1.8930

> <Gold.Rescore>
     Score         DG    S(hbond)    S(metal)    S(lipo)     H(rot)  DE(clash)    DE(int)     intcor
     15.02     -16.48       2.08        0.00      81.83       2.16       0.00       1.47       ----

> <Gold.Chemscore.Fitness>
15.0159

> <Gold.Chemscore.DG>
-16.4843

> <Gold.Chemscore.ZeroCoef>
-5.4800

> <Gold.Chemscore.Hbond>
2.0813

> <Gold.Chemscore.Metal>
0.0000

> <Gold.Chemscore.Lipo>
81.8340

> <Gold.Chemscore.Internal_Hbond>
0.0000

> <Gold.Chemscore.DEClash>
0.0015

> <Gold.Chemscore.DEInternal>
1.4669

> <Gold.Chemscore.Rot>
2.1569

> <Gold.Chemscore.Internal.Correction>
   9.000000E+99

> <Gold.Chemscore.Hbonds>
donor molecule, donor type, donor heavy atom, donor atom, acceptor molecule, acceptor atom, score
      L1  H    10    29       P1 10747  0.95
      L1  H    13    30       P1 10747  0.92
      P1  H 10785 10796       L1    17  0.53

> <Gold.Chemscore.Hbond.Weighted>
-6.9515

> <Gold.Chemscore.Metal.Weighted>
-0.0000

> <Gold.Chemscore.Lipo.Weighted>
-9.5746

> <Gold.Chemscore.Internal_Hbond.Weighted>
0.0000

> <Gold.Chemscore.DEClash.Weighted>
0.0015

> <Gold.Chemscore.DEInternal.Weighted>
1.4669

> <Gold.Chemscore.Rot.Weighted>
5.5218

> <Gold.Chemscore.Internal.Correction.Weighted>
   9.000000E+99

> <Gold.Protein.RotatedTorsions>
[ 6907 6896 6895 6894 ] final  168.30 input  -60.11 | X-H torsion
[ 7974 7965 7964 7962 ] final  -47.29 input  175.53 | X-H torsion
[ 8008 7997 7996 7995 ] final   42.38 input   59.86 | X-H torsion
[ 10167 10162 10161 10158 ] final   56.78 input  -65.29 | X-H torsion
[ 10718 10713 10712 10709 ] final -173.20 input   66.30 | X-H torsion
[ 10763 10752 10751 10750 ] final -134.28 input  -60.55 | X-H torsion
[ 11005 11000 10999 10996 ] final  -53.20 input  -57.11 | X-H torsion

> <Gold.Protein.ActiveResidues>
 VAL166  LYS551  ARG553  GLY616  TRP617  ASP618  TYR619  PRO620  LYS621  CYS622 
 ASP623  PHE694  ASN695  SER759  ASP760  ASP761  ALA762  ILE779  LEU786  VAL792 
 PHE793  MET794  SER795  GLU796  ALA797  LYS798  CYS799  TRP800  GLU811  SER814 

> <Gold.Protein.RotatedAtoms>
  151.8498  133.3438  159.3669 H   0  0  0  0  0  0  0  0  0  0  0  0  # atno 6907 bound_to 6896
  150.7210  134.5310  159.5709 H   0  0  0  0  0  0  0  0  0  0  0  0  # atno 6908 bound_to 6896
  152.2801  134.7838  160.0449 H   0  0  0  0  0  0  0  0  0  0  0  0  # atno 6909 bound_to 6896
  145.9632  140.7458  142.9447 H   0  0  0  0  0  0  0  0  0  0  0  0  # atno 7974 bound_to 7965
  155.2853  140.3375  155.4256 H   0  0  0  0  0  0  0  0  0  0  0  0  # atno 8008 bound_to 7997
  156.2071  140.1755  156.7816 H   0  0  0  0  0  0  0  0  0  0  0  0  # atno 8009 bound_to 7997
  154.5635  140.0683  156.8841 H   0  0  0  0  0  0  0  0  0  0  0  0  # atno 8010 bound_to 7997
  140.2051  144.3947  150.6512 H   0  0  0  0  0  0  0  0  0  0  0  0  # atno 10167 bound_to 10162
  156.7668  130.9434  151.3119 H   0  0  0  0  0  0  0  0  0  0  0  0  # atno 10718 bound_to 10713
  154.8721  135.3739  154.4710 H   0  0  0  0  0  0  0  0  0  0  0  0  # atno 10763 bound_to 10752
  153.5371  135.7027  153.5660 H   0  0  0  0  0  0  0  0  0  0  0  0  # atno 10764 bound_to 10752
  153.3838  135.3990  155.1840 H   0  0  0  0  0  0  0  0  0  0  0  0  # atno 10765 bound_to 10752
  141.0964  133.6624  156.4137 H   0  0  0  0  0  0  0  0  0  0  0  0  # atno 11005 bound_to 11000
  144.6819  140.2625  143.7317 LP  0  0  0  0  0  0  0  0  0  0  0  0  # atno 17320 bound_to 7965
  145.8011  139.1964  143.2047 LP  0  0  0  0  0  0  0  0  0  0  0  0  # atno 17321 bound_to 7965
  140.6363  143.2195  151.6388 LP  0  0  0  0  0  0  0  0  0  0  0  0  # atno 17342 bound_to 10162
  139.5202  144.3231  152.0893 LP  0  0  0  0  0  0  0  0  0  0  0  0  # atno 17343 bound_to 10162
  157.6709  130.9050  150.0038 LP  0  0  0  0  0  0  0  0  0  0  0  0  # atno 17370 bound_to 10713
  156.1303  130.3643  149.9742 LP  0  0  0  0  0  0  0  0  0  0  0  0  # atno 17371 bound_to 10713
  140.5130  134.6377  157.5291 LP  0  0  0  0  0  0  0  0  0  0  0  0  # atno 17394 bound_to 11000
  139.9802  134.7150  155.9874 LP  0  0  0  0  0  0  0  0  0  0  0  0  # atno 17395 bound_to 11000

$$$$
