AV-unprocessed.smi:1586|AV-procd|sdf|6381|dock8
  -GOLD-   22720 7 13D 1   1.00000     0.00000
 Structure written by MMmdl.
 46 47  0  0  0  0  0  0  0  0  3 V2000
  143.7779  132.3238  150.0266 C   0  0  0  0  0  0  0  0  0  0  0  0
  144.0954  133.3668  151.1081 C   0  0  0  0  0  0  0  0  0  0  0  0
  145.2463  134.1984  150.7479 N   0  0  0  0  0  0  0  0  0  0  0  0
  145.5158  135.3174  151.6581 C   0  0  0  0  0  0  0  0  0  0  0  0
  146.0363  134.8406  153.0296 C   0  0  0  0  0  0  0  0  0  0  0  0
  147.2761  134.0321  152.8568 N   0  3  0  0  0  0  0  0  0  0  0  0
  147.9986  133.6352  154.1051 C   0  0  2  0  0  0  0  0  0  0  0  0
  147.2947  132.4874  154.8720 C   0  0  0  0  0  0  0  0  0  0  0  0
  148.3110  134.8840  154.9759 C   0  0  0  0  0  0  0  0  0  0  0  0
  149.3381  134.5870  155.9761 N   0  5  0  0  0  0  0  0  0  0  0  0
  149.1369  134.5989  157.3231 C   0  0  0  0  0  0  0  0  0  0  0  0
  149.3677  133.6847  158.1237 O   0  0  0  0  0  0  0  0  0  0  0  0
  148.6215  135.7651  157.7528 N   0  0  0  0  0  0  0  0  0  0  0  0
  148.2753  136.1501  159.0751 C   0  0  0  0  0  0  0  0  0  0  0  0
  148.1205  135.1754  160.0966 C   0  0  0  0  0  0  0  0  0  0  0  0
  147.7961  135.9247  161.1922 C   0  0  0  0  0  0  0  0  0  0  0  0
  147.4942  135.5730  162.6085 C   0  0  0  0  0  0  0  0  0  0  0  0
  147.7583  137.2455  160.8689 O   0  0  0  0  0  0  0  0  0  0  0  0
  148.0659  137.3837  159.5104 N   0  0  0  0  0  0  0  0  0  0  0  0
  147.0160  132.8968  151.9368 C   0  0  0  0  0  0  0  0  0  0  0  0
  146.4717  133.4118  150.5876 C   0  0  0  0  0  0  0  0  0  0  0  0
  143.0104  131.6338  150.3776 H   0  0  0  0  0  0  0  0  0  0  0  0
  144.6596  131.7337  149.7743 H   0  0  0  0  0  0  0  0  0  0  0  0
  143.4020  132.7827  149.1125 H   0  0  0  0  0  0  0  0  0  0  0  0
  143.2130  133.9685  151.3228 H   0  0  0  0  0  0  0  0  0  0  0  0
  144.3339  132.8320  152.0284 H   0  0  0  0  0  0  0  0  0  0  0  0
  146.2622  135.9645  151.1954 H   0  0  0  0  0  0  0  0  0  0  0  0
  144.6258  135.9329  151.7828 H   0  0  0  0  0  0  0  0  0  0  0  0
  146.2413  135.7139  153.6490 H   0  0  0  0  0  0  0  0  0  0  0  0
  145.2678  134.2680  153.5485 H   0  0  0  0  0  0  0  0  0  0  0  0
  148.9659  133.2451  153.7842 H   0  0  0  0  0  0  0  0  0  0  0  0
  147.9135  132.1060  155.6863 H   0  0  0  0  0  0  0  0  0  0  0  0
  147.0991  131.6421  154.2122 H   0  0  0  0  0  0  0  0  0  0  0  0
  146.3408  132.7914  155.3065 H   0  0  0  0  0  0  0  0  0  0  0  0
  148.6177  135.7019  154.3219 H   0  0  0  0  0  0  0  0  0  0  0  0
  147.3892  135.2287  155.4444 H   0  0  0  0  0  0  0  0  0  0  0  0
  148.4618  136.4614  157.0402 H   0  0  0  0  0  0  0  0  0  0  0  0
  148.2285  134.1027  160.0368 H   0  0  0  0  0  0  0  0  0  0  0  0
  147.2879  134.5074  162.7097 H   0  0  0  0  0  0  0  0  0  0  0  0
  146.6226  136.1209  162.9670 H   0  0  0  0  0  0  0  0  0  0  0  0
  148.3378  135.8177  163.2541 H   0  0  0  0  0  0  0  0  0  0  0  0
  147.9440  132.3555  151.7502 H   0  0  0  0  0  0  0  0  0  0  0  0
  146.3282  132.1869  152.3973 H   0  0  0  0  0  0  0  0  0  0  0  0
  146.2896  132.5780  149.9088 H   0  0  0  0  0  0  0  0  0  0  0  0
  147.2255  134.0368  150.1069 H   0  0  0  0  0  0  0  0  0  0  0  0
  147.9287  134.6241  152.3631 H   0  0  0  0  0  0  0  0  0  0  0  0
  1  2  1  0  0  0  0
  1 22  1  0  0  0  0
  1 23  1  0  0  0  0
  1 24  1  0  0  0  0
  2  3  1  0  0  0  0
  2 25  1  0  0  0  0
  2 26  1  0  0  0  0
  3 21  1  0  0  0  0
  3  4  1  0  0  0  0
  4  5  1  0  0  0  0
  4 27  1  0  0  0  0
  4 28  1  0  0  0  0
  5  6  1  0  0  0  0
  5 29  1  0  0  0  0
  5 30  1  0  0  0  0
  6  7  1  0  0  0  0
  6 20  1  0  0  0  0
  6 46  1  0  0  0  0
  7  8  1  0  0  0  0
  7  9  1  0  0  0  0
  7 31  1  0  0  0  0
  8 32  1  0  0  0  0
  8 33  1  0  0  0  0
  8 34  1  0  0  0  0
  9 10  1  0  0  0  0
  9 35  1  0  0  0  0
  9 36  1  0  0  0  0
 10 11  1  0  0  0  0
 11 12  2  0  0  0  0
 11 13  1  0  0  0  0
 13 14  1  0  0  0  0
 13 37  1  0  0  0  0
 14 19  2  0  0  0  0
 14 15  1  0  0  0  0
 15 16  2  0  0  0  0
 15 38  1  0  0  0  0
 16 17  1  0  0  0  0
 16 18  1  0  0  0  0
 17 39  1  0  0  0  0
 17 40  1  0  0  0  0
 17 41  1  0  0  0  0
 18 19  1  0  0  0  0
 20 21  1  0  0  0  0
 20 42  1  0  0  0  0
 20 43  1  0  0  0  0
 21 44  1  0  0  0  0
 21 45  1  0  0  0  0
M  CHG  1   6   1
M  CHG  1  10  -1
M  END
> <s_m_source_file>
AV-unprocessed.smi

> <i_m_source_file_index>
1586

> <i_lp_mmshare_version>
43012

> <i_f3d_flags>
0

> <s_epik_input>
W0NIM11bQ0gyXU4xW0NIMl1bQ0gyXU4oW0NIMl1bQ0gyXTEpW0NASF0oW0NIM10pW0NIMl1bTkhdQyg9TylbTkhdYzJbY0hdYyhbQ0gzXSlvbjI=

> <s_epik_cmdline>
J2VwaWtfcHl0aG9uJywgJy1waCcsICc3LjAnLCAnLXRuJywgJzgnLCAnLW1hJywgJzIwMCcsICctbWV0YWxfYmluZGluZycsICctaW1hZScsICc8aW5maWxlLm1hZT4nLCAnLW9tYWUnLCAnPG91dGZpbGUubWFlPic=

> <r_epik_Ionization_Penalty>
6.72969

> <r_epik_Ionization_Penalty_Charging>
6.72741

> <r_epik_Ionization_Penalty_Neutral>
0.00227419

> <r_epik_State_Penalty>
7.72748

> <r_epik_Charging_Adjusted_Penalty>
14.4549

> <i_epik_Tot_Q>
0

> <i_epik_Tot_abs_Q>
2

> <r_epik_Metal_State_Penalty>
3.65268

> <b_epik_Metal_Only>
1

> <s_lp_Force_Field>
OPLS_2005

> <r_lp_Energy>
18.0395

> <b_lp_Chiralities_Consistent>
1

> <s_lp_Variant>
AV-unprocessed.smi:1586-9

> <Gold.Version>
5.8.1

> <Gold.Id.Protein>
6NUR|6NUR_protein|mol2

> <Gold.PLP.Fitness>
44.9480

> <Gold.PLP.PLP>
-33.3833

> <Gold.PLP.part.hbond>
-4.9072

> <Gold.PLP.part.metal>
0.0000

> <Gold.PLP.part.buried>
-4.8140

> <Gold.PLP.part.nonpolar>
-24.2413

> <Gold.PLP.part.repulsive>
0.2492

> <Gold.PLP.ligand.clash>
0.0000

> <Gold.PLP.ligand.torsion>
0.7473

> <Gold.PLP.Chemscore.Hbond>
4.2672

> <Gold.PLP.Chemscore.CHOScore>
0.0000

> <Gold.PLP.Chemscore.Metal>
0.0000

> <Gold.Chemscore.Hbonds>
donor molecule, donor type, donor heavy atom, donor atom, acceptor molecule, acceptor atom, score
      L1  H     6    46       P1  7948  2.00
      P1  H  6896  6907       L1    12  1.00
      P1  H  6931  6943       L1    18  0.83
      P1  H  6934  6947       L1    18  0.43

> <Gold.PLP.Chemscore.Internal.Correction>
0.2576

> <Gold.Rescore>
     Score         DG    S(hbond)    S(metal)    S(lipo)     H(rot)  DE(clash)    DE(int)     intcor
     15.85     -18.38       2.68        0.00      71.55       1.73       0.27       2.26       ----

> <Gold.Chemscore.Fitness>
15.8542

> <Gold.Chemscore.DG>
-18.3803

> <Gold.Chemscore.ZeroCoef>
-5.4800

> <Gold.Chemscore.Hbond>
2.6782

> <Gold.Chemscore.Metal>
0.0000

> <Gold.Chemscore.Lipo>
71.5489

> <Gold.Chemscore.Internal_Hbond>
0.0000

> <Gold.Chemscore.DEClash>
0.2703

> <Gold.Chemscore.DEInternal>
2.2558

> <Gold.Chemscore.Rot>
1.7250

> <Gold.Chemscore.Internal.Correction>
   9.000000E+99

> <Gold.Chemscore.Hbonds>
donor molecule, donor type, donor heavy atom, donor atom, acceptor molecule, acceptor atom, score
      L1  H     6    46       P1  7948  0.55
      P1  H  6896  6907       L1    12  0.94
      P1  H  6931  6943       L1    18  0.48
      P1  H  6934  6947       L1    18  0.02

> <Gold.Chemscore.Hbond.Weighted>
-8.9451

> <Gold.Chemscore.Metal.Weighted>
-0.0000

> <Gold.Chemscore.Lipo.Weighted>
-8.3712

> <Gold.Chemscore.Internal_Hbond.Weighted>
0.0000

> <Gold.Chemscore.DEClash.Weighted>
0.2703

> <Gold.Chemscore.DEInternal.Weighted>
2.2558

> <Gold.Chemscore.Rot.Weighted>
4.4161

> <Gold.Chemscore.Internal.Correction.Weighted>
   9.000000E+99

> <Gold.Protein.RotatedTorsions>
[ 6907 6896 6895 6894 ] final -108.70 input  -60.11 | X-H torsion
[ 7974 7965 7964 7962 ] final   -3.42 input  175.53 | X-H torsion
[ 8008 7997 7996 7995 ] final   24.59 input   59.86 | X-H torsion
[ 10167 10162 10161 10158 ] final  -55.22 input  -65.29 | X-H torsion
[ 10718 10713 10712 10709 ] final   42.62 input   66.30 | X-H torsion
[ 10763 10752 10751 10750 ] final    9.74 input  -60.55 | X-H torsion
[ 11005 11000 10999 10996 ] final  147.86 input  -57.11 | X-H torsion

> <Gold.Protein.ActiveResidues>
 VAL166  LYS551  ARG553  GLY616  TRP617  ASP618  TYR619  PRO620  LYS621  CYS622 
 ASP623  PHE694  ASN695  SER759  ASP760  ASP761  ALA762  ILE779  LEU786  VAL792 
 PHE793  MET794  SER795  GLU796  ALA797  LYS798  CYS799  TRP800  GLU811  SER814 

> <Gold.Protein.RotatedAtoms>
  150.7517  133.9639  159.3523 H   0  0  0  0  0  0  0  0  0  0  0  0  # atno 6907 bound_to 6896
  151.7567  135.0818  160.0348 H   0  0  0  0  0  0  0  0  0  0  0  0  # atno 6908 bound_to 6896
  152.3430  133.6052  159.5926 H   0  0  0  0  0  0  0  0  0  0  0  0  # atno 6909 bound_to 6896
  146.2390  140.1719  142.8332 H   0  0  0  0  0  0  0  0  0  0  0  0  # atno 7974 bound_to 7965
  154.9986  140.3122  155.4876 H   0  0  0  0  0  0  0  0  0  0  0  0  # atno 8008 bound_to 7997
  156.2928  140.2236  156.5036 H   0  0  0  0  0  0  0  0  0  0  0  0  # atno 8009 bound_to 7997
  154.7638  140.0457  157.0983 H   0  0  0  0  0  0  0  0  0  0  0  0  # atno 8010 bound_to 7997
  140.6386  143.2495  151.5049 H   0  0  0  0  0  0  0  0  0  0  0  0  # atno 10167 bound_to 10162
  157.4068  130.7891  149.7396 H   0  0  0  0  0  0  0  0  0  0  0  0  # atno 10718 bound_to 10713
  153.2107  135.6868  153.8117 H   0  0  0  0  0  0  0  0  0  0  0  0  # atno 10763 bound_to 10752
  153.7351  135.3247  155.3294 H   0  0  0  0  0  0  0  0  0  0  0  0  # atno 10764 bound_to 10752
  154.8220  135.4645  154.0914 H   0  0  0  0  0  0  0  0  0  0  0  0  # atno 10765 bound_to 10752
  140.0911  134.9040  157.1652 H   0  0  0  0  0  0  0  0  0  0  0  0  # atno 11005 bound_to 11000
  145.0005  140.8627  143.5285 LP  0  0  0  0  0  0  0  0  0  0  0  0  # atno 17320 bound_to 7965
  145.1737  139.2390  143.5328 LP  0  0  0  0  0  0  0  0  0  0  0  0  # atno 17321 bound_to 7965
  139.5596  144.2189  152.1669 LP  0  0  0  0  0  0  0  0  0  0  0  0  # atno 17342 bound_to 10162
  140.1453  144.5164  150.6719 LP  0  0  0  0  0  0  0  0  0  0  0  0  # atno 17343 bound_to 10162
  155.9839  130.3996  150.3340 LP  0  0  0  0  0  0  0  0  0  0  0  0  # atno 17370 bound_to 10713
  157.1474  131.0312  151.2901 LP  0  0  0  0  0  0  0  0  0  0  0  0  # atno 17371 bound_to 10713
  140.3351  134.2766  155.7221 LP  0  0  0  0  0  0  0  0  0  0  0  0  # atno 17394 bound_to 11000
  141.2078  133.7795  157.0097 LP  0  0  0  0  0  0  0  0  0  0  0  0  # atno 17395 bound_to 11000

$$$$
