AV-unprocessed.smi:1983|AV-procd|sdf|8031|dock9
  -GOLD-   2272010223D 1   1.00000     0.00000
 Structure written by MMmdl.
 49 50  0  0  0  0  0  0  0  0  1 V2000
  145.8678  138.6458  155.1210 C   0  0  0  0  0  0  0  0  0  0  0  0
  146.0899  137.3287  154.3623 C   0  0  1  0  0  0  0  0  0  0  0  0
  145.2973  137.2753  153.0405 C   0  0  0  0  0  0  0  0  0  0  0  0
  145.6766  138.3387  152.1928 O   0  0  0  0  0  0  0  0  0  0  0  0
  147.5181  137.1602  154.1076 N   0  0  0  0  0  0  0  0  0  0  0  0
  148.4818  137.2120  155.0383 C   0  0  0  0  0  0  0  0  0  0  0  0
  148.2752  137.4098  156.2360 O   0  0  0  0  0  0  0  0  0  0  0  0
  149.6972  137.0108  154.5101 N   0  0  0  0  0  0  0  0  0  0  0  0
  150.9359  136.9657  155.2781 C   0  0  0  0  0  0  0  0  0  0  0  0
  151.1873  138.2418  156.0617 C   0  0  0  0  0  0  0  0  0  0  0  0
  151.3829  139.4712  155.4024 C   0  0  0  0  0  0  0  0  0  0  0  0
  151.6253  140.6256  156.1709 C   0  0  0  0  0  0  0  0  0  0  0  0
  151.6691  140.5179  157.5810 C   0  0  0  0  0  0  0  0  0  0  0  0
  151.9155  141.6632  158.3663 N   0  0  0  0  0  0  0  0  0  0  0  0
  152.2875  141.4694  159.7645 C   0  0  0  0  0  0  0  0  0  0  0  0
  152.8385  142.7787  160.3560 C   0  0  2  0  0  0  0  0  0  0  0  0
  153.1240  142.6536  161.8560 C   0  0  0  0  0  0  0  0  0  0  0  0
  151.8845  143.8241  160.1721 O   0  0  0  0  0  0  0  0  0  0  0  0
  151.5120  144.0634  158.8126 C   0  0  1  0  0  0  0  0  0  0  0  0
  152.6420  144.7300  158.0081 C   0  0  0  0  0  0  0  0  0  0  0  0
  150.9818  142.7674  158.1674 C   0  0  0  0  0  0  0  0  0  0  0  0
  151.4844  139.3312  158.2110 N   0  0  0  0  0  0  0  0  0  0  0  0
  151.2479  138.2284  157.4698 C   0  0  0  0  0  0  0  0  0  0  0  0
  144.8160  138.7850  155.3713 H   0  0  0  0  0  0  0  0  0  0  0  0
  146.1846  139.5041  154.5278 H   0  0  0  0  0  0  0  0  0  0  0  0
  146.4298  138.6601  156.0554 H   0  0  0  0  0  0  0  0  0  0  0  0
  145.7612  136.5094  155.0049 H   0  0  0  0  0  0  0  0  0  0  0  0
  145.4506  136.3251  152.5279 H   0  0  0  0  0  0  0  0  0  0  0  0
  144.2268  137.3705  153.2260 H   0  0  0  0  0  0  0  0  0  0  0  0
  145.2470  138.2251  151.3588 H   0  0  0  0  0  0  0  0  0  0  0  0
  147.7903  136.9892  153.1508 H   0  0  0  0  0  0  0  0  0  0  0  0
  149.7688  136.8609  153.5144 H   0  0  0  0  0  0  0  0  0  0  0  0
  150.8736  136.1339  155.9802 H   0  0  0  0  0  0  0  0  0  0  0  0
  151.7794  136.7501  154.6199 H   0  0  0  0  0  0  0  0  0  0  0  0
  151.3525  139.5299  154.3244 H   0  0  0  0  0  0  0  0  0  0  0  0
  151.7897  141.5711  155.6758 H   0  0  0  0  0  0  0  0  0  0  0  0
  151.4124  141.1398  160.3263 H   0  0  0  0  0  0  0  0  0  0  0  0
  153.0429  140.6869  159.8483 H   0  0  0  0  0  0  0  0  0  0  0  0
  153.7719  143.0408  159.8571 H   0  0  0  0  0  0  0  0  0  0  0  0
  153.8620  141.8751  162.0508 H   0  0  0  0  0  0  0  0  0  0  0  0
  152.2194  142.4048  162.4114 H   0  0  0  0  0  0  0  0  0  0  0  0
  153.5143  143.5892  162.2574 H   0  0  0  0  0  0  0  0  0  0  0  0
  150.6880  144.7766  158.8459 H   0  0  0  0  0  0  0  0  0  0  0  0
  152.2904  145.0204  157.0178 H   0  0  0  0  0  0  0  0  0  0  0  0
  153.4958  144.0680  157.8655 H   0  0  0  0  0  0  0  0  0  0  0  0
  152.9960  145.6310  158.5093 H   0  0  0  0  0  0  0  0  0  0  0  0
  150.7772  142.9425  157.1117 H   0  0  0  0  0  0  0  0  0  0  0  0
  150.0313  142.4937  158.6273 H   0  0  0  0  0  0  0  0  0  0  0  0
  151.1112  137.3084  158.0189 H   0  0  0  0  0  0  0  0  0  0  0  0
  1  2  1  0  0  0  0
  1 24  1  0  0  0  0
  1 25  1  0  0  0  0
  1 26  1  0  0  0  0
  2  3  1  0  0  0  0
  2  5  1  0  0  0  0
  2 27  1  0  0  0  0
  3  4  1  0  0  0  0
  3 28  1  0  0  0  0
  3 29  1  0  0  0  0
  4 30  1  0  0  0  0
  5  6  1  0  0  0  0
  5 31  1  0  0  0  0
  6  7  2  0  0  0  0
  6  8  1  0  0  0  0
  8  9  1  0  0  0  0
  8 32  1  0  0  0  0
  9 10  1  0  0  0  0
  9 33  1  0  0  0  0
  9 34  1  0  0  0  0
 10 23  1  0  0  0  0
 10 11  2  0  0  0  0
 11 12  1  0  0  0  0
 11 35  1  0  0  0  0
 12 13  2  0  0  0  0
 12 36  1  0  0  0  0
 13 14  1  0  0  0  0
 13 22  1  0  0  0  0
 14 21  1  0  0  0  0
 14 15  1  0  0  0  0
 15 16  1  0  0  0  0
 15 37  1  0  0  0  0
 15 38  1  0  0  0  0
 16 17  1  0  0  0  0
 16 18  1  0  0  0  0
 16 39  1  0  0  0  0
 17 40  1  0  0  0  0
 17 41  1  0  0  0  0
 17 42  1  0  0  0  0
 18 19  1  0  0  0  0
 19 20  1  0  0  0  0
 19 21  1  0  0  0  0
 19 43  1  0  0  0  0
 20 44  1  0  0  0  0
 20 45  1  0  0  0  0
 20 46  1  0  0  0  0
 21 47  1  0  0  0  0
 21 48  1  0  0  0  0
 22 23  2  0  0  0  0
 23 49  1  0  0  0  0
M  END
> <s_m_source_file>
AV-unprocessed.smi

> <i_m_source_file_index>
1983

> <i_lp_mmshare_version>
43012

> <i_f3d_flags>
0

> <s_epik_input>
W09IXVtDSDJdW0NAQEhdKFtDSDNdKVtOSF1DKD1PKVtOSF1bQ0gyXWMxW2NIXVtjSF1jKG5bY0hdMSlOMltDSDJdW0NAQEhdKFtDSDNdKU9bQ0BASF0oW0NIM10pW0NIMl0y

> <s_epik_cmdline>
J2VwaWtfcHl0aG9uJywgJy1waCcsICc3LjAnLCAnLXRuJywgJzgnLCAnLW1hJywgJzIwMCcsICctbWV0YWxfYmluZGluZycsICctaW1hZScsICc8aW5maWxlLm1hZT4nLCAnLW9tYWUnLCAnPG91dGZpbGUubWFlPic=

> <r_lp_tautomer_probability>
1

> <r_epik_Ionization_Penalty>
0.00801967

> <r_epik_Ionization_Penalty_Charging>
0

> <r_epik_Ionization_Penalty_Neutral>
0.00801967

> <r_epik_State_Penalty>
0.00598289

> <r_epik_Charging_Adjusted_Penalty>
0.00598289

> <i_epik_Tot_Q>
0

> <i_epik_Tot_abs_Q>
0

> <r_epik_Metal_State_Penalty>
0.00590297

> <b_epik_Metal_Only>
0

> <s_lp_Force_Field>
OPLS_2005

> <r_lp_Energy>
16.1949

> <b_lp_Chiralities_Consistent>
1

> <s_lp_Variant>
AV-unprocessed.smi:1983-4

> <Gold.Version>
5.8.1

> <Gold.Id.Protein>
6NUR|6NUR_protein|mol2

> <Gold.PLP.Fitness>
49.2154

> <Gold.PLP.PLP>
-40.3981

> <Gold.PLP.part.hbond>
-4.0000

> <Gold.PLP.part.metal>
0.0000

> <Gold.PLP.part.buried>
-7.4191

> <Gold.PLP.part.nonpolar>
-29.6115

> <Gold.PLP.part.repulsive>
0.0945

> <Gold.PLP.ligand.clash>
0.0000

> <Gold.PLP.ligand.torsion>
0.2360

> <Gold.PLP.Chemscore.Hbond>
2.9760

> <Gold.PLP.Chemscore.CHOScore>
0.0000

> <Gold.PLP.Chemscore.Metal>
0.0000

> <Gold.Chemscore.Hbonds>
donor molecule, donor type, donor heavy atom, donor atom, acceptor molecule, acceptor atom, score
      L1  H     4    30       P1 10171  0.83
      L1  H     5    31       P1  7948  1.00
      L1  H     8    32       P1  7948  1.00

> <Gold.PLP.Chemscore.Internal.Correction>
0.3613

> <Gold.Rescore>
     Score         DG    S(hbond)    S(metal)    S(lipo)     H(rot)  DE(clash)    DE(int)     intcor
     17.96     -19.63       2.70        0.00     100.96       2.61       0.01       1.66       ----

> <Gold.Chemscore.Fitness>
17.9601

> <Gold.Chemscore.DG>
-19.6326

> <Gold.Chemscore.ZeroCoef>
-5.4800

> <Gold.Chemscore.Hbond>
2.7009

> <Gold.Chemscore.Metal>
0.0000

> <Gold.Chemscore.Lipo>
100.9624

> <Gold.Chemscore.Internal_Hbond>
0.0000

> <Gold.Chemscore.DEClash>
0.0126

> <Gold.Chemscore.DEInternal>
1.6598

> <Gold.Chemscore.Rot>
2.6097

> <Gold.Chemscore.Internal.Correction>
   9.000000E+99

> <Gold.Chemscore.Hbonds>
donor molecule, donor type, donor heavy atom, donor atom, acceptor molecule, acceptor atom, score
      L1  H     4    30       P1 10171  0.82
      L1  H     5    31       P1  7948  0.96
      L1  H     8    32       P1  7948  0.47

> <Gold.Chemscore.Hbond.Weighted>
-9.0209

> <Gold.Chemscore.Metal.Weighted>
-0.0000

> <Gold.Chemscore.Lipo.Weighted>
-11.8126

> <Gold.Chemscore.Internal_Hbond.Weighted>
0.0000

> <Gold.Chemscore.DEClash.Weighted>
0.0126

> <Gold.Chemscore.DEInternal.Weighted>
1.6598

> <Gold.Chemscore.Rot.Weighted>
6.6809

> <Gold.Chemscore.Internal.Correction.Weighted>
   9.000000E+99

> <Gold.Protein.RotatedTorsions>
[ 6907 6896 6895 6894 ] final  -85.49 input  -60.11 | X-H torsion
[ 7974 7965 7964 7962 ] final -156.23 input  175.53 | X-H torsion
[ 8008 7997 7996 7995 ] final   43.03 input   59.86 | X-H torsion
[ 10167 10162 10161 10158 ] final -145.35 input  -65.29 | X-H torsion
[ 10718 10713 10712 10709 ] final  -50.46 input   66.30 | X-H torsion
[ 10763 10752 10751 10750 ] final  160.34 input  -60.55 | X-H torsion
[ 11005 11000 10999 10996 ] final  -75.14 input  -57.11 | X-H torsion

> <Gold.Protein.ActiveResidues>
 VAL166  LYS551  ARG553  GLY616  TRP617  ASP618  TYR619  PRO620  LYS621  CYS622 
 ASP623  PHE694  ASN695  SER759  ASP760  ASP761  ALA762  ILE779  LEU786  VAL792 
 PHE793  MET794  SER795  GLU796  ALA797  LYS798  CYS799  TRP800  GLU811  SER814 

> <Gold.Protein.RotatedAtoms>
  150.6870  134.3196  159.4780 H   0  0  0  0  0  0  0  0  0  0  0  0  # atno 6907 bound_to 6896
  152.1073  134.9297  160.0577 H   0  0  0  0  0  0  0  0  0  0  0  0  # atno 6908 bound_to 6896
  152.0553  133.4002  159.4431 H   0  0  0  0  0  0  0  0  0  0  0  0  # atno 6909 bound_to 6896
  144.7603  140.4139  143.5982 H   0  0  0  0  0  0  0  0  0  0  0  0  # atno 7974 bound_to 7965
  155.2960  140.3382  155.4250 H   0  0  0  0  0  0  0  0  0  0  0  0  # atno 8008 bound_to 7997
  156.2024  140.1738  156.7911 H   0  0  0  0  0  0  0  0  0  0  0  0  # atno 8009 bound_to 7997
  154.5576  140.0693  156.8752 H   0  0  0  0  0  0  0  0  0  0  0  0  # atno 8010 bound_to 7997
  139.7813  143.8096  152.2639 H   0  0  0  0  0  0  0  0  0  0  0  0  # atno 10167 bound_to 10162
  156.1799  130.4150  149.9522 H   0  0  0  0  0  0  0  0  0  0  0  0  # atno 10718 bound_to 10713
  154.2458  135.2773  155.2836 H   0  0  0  0  0  0  0  0  0  0  0  0  # atno 10763 bound_to 10752
  154.5506  135.5676  153.6922 H   0  0  0  0  0  0  0  0  0  0  0  0  # atno 10764 bound_to 10752
  152.9990  135.6273  154.2604 H   0  0  0  0  0  0  0  0  0  0  0  0  # atno 10765 bound_to 10752
  141.1642  133.6936  156.7471 H   0  0  0  0  0  0  0  0  0  0  0  0  # atno 11005 bound_to 11000
  145.6643  139.1587  143.2791 LP  0  0  0  0  0  0  0  0  0  0  0  0  # atno 17320 bound_to 7965
  146.1658  140.6720  142.9256 LP  0  0  0  0  0  0  0  0  0  0  0  0  # atno 17321 bound_to 7965
  139.8160  144.7316  150.9635 LP  0  0  0  0  0  0  0  0  0  0  0  0  # atno 17342 bound_to 10162
  140.7818  143.4204  151.0850 LP  0  0  0  0  0  0  0  0  0  0  0  0  # atno 17343 bound_to 10162
  156.7296  130.9038  151.3625 LP  0  0  0  0  0  0  0  0  0  0  0  0  # atno 17370 bound_to 10713
  157.6861  130.9187  150.0390 LP  0  0  0  0  0  0  0  0  0  0  0  0  # atno 17371 bound_to 10713
  140.2632  134.8451  157.3778 LP  0  0  0  0  0  0  0  0  0  0  0  0  # atno 17394 bound_to 11000
  140.1592  134.4751  155.7907 LP  0  0  0  0  0  0  0  0  0  0  0  0  # atno 17395 bound_to 11000

$$$$
