AV-unprocessed.smi:897|AV-procd|sdf|4080|dock5
  -GOLD-   22720 1563D 1   1.00000     0.00000
 Structure written by MMmdl.
 35 37  0  0  0  0  0  0  0  0  1 V2000
  151.7896  144.6371  158.2935 C   0  0  0  0  0  0  0  0  0  0  0  0
  152.2050  143.2808  158.8234 C   0  0  0  0  0  0  0  0  0  0  0  0
  152.8187  143.1519  160.0831 C   0  0  0  0  0  0  0  0  0  0  0  0
  153.1845  141.8658  160.5290 C   0  0  0  0  0  0  0  0  0  0  0  0
  153.8516  141.7152  161.8881 C   0  0  0  0  0  0  0  0  0  0  0  0
  152.9170  140.7520  159.6907 C   0  0  0  0  0  0  0  0  0  0  0  0
  153.2744  139.4004  160.1174 C   0  0  0  0  0  0  0  0  0  0  0  0
  153.5576  138.3303  160.4545 N   0  0  0  0  0  0  0  0  0  0  0  0
  152.2906  140.9864  158.4353 C   0  0  0  0  0  0  0  0  0  0  0  0
  152.0081  139.9153  157.5672 N   0  0  0  0  0  0  0  0  0  0  0  0
  151.8625  140.1220  156.1293 C   0  0  1  0  0  0  0  0  0  0  0  0
  152.5249  139.0208  155.2980 C   0  0  0  0  0  0  0  0  0  0  0  0
  151.3702  138.5708  154.3919 C   0  0  1  0  0  0  0  0  0  0  0  0
  150.3464  137.7260  155.1610 C   0  0  0  0  0  0  0  0  0  0  0  0
  149.6593  138.7819  156.0247 C   0  0  0  0  0  0  0  0  0  0  0  0
  150.4087  140.0625  155.6182 C   0  0  2  0  0  0  0  0  0  0  0  0
  150.6490  139.7832  154.2491 O   0  0  0  0  0  0  0  0  0  0  0  0
  151.9485  142.2293  158.0202 N   0  0  0  0  0  0  0  0  0  0  0  0
  152.1546  145.4406  158.9339 H   0  0  0  0  0  0  0  0  0  0  0  0
  150.7027  144.7065  158.2444 H   0  0  0  0  0  0  0  0  0  0  0  0
  152.1904  144.7938  157.2916 H   0  0  0  0  0  0  0  0  0  0  0  0
  153.0048  144.0231  160.6943 H   0  0  0  0  0  0  0  0  0  0  0  0
  153.2531  141.0784  162.5403 H   0  0  0  0  0  0  0  0  0  0  0  0
  153.9707  142.6803  162.3814 H   0  0  0  0  0  0  0  0  0  0  0  0
  154.8411  141.2701  161.7809 H   0  0  0  0  0  0  0  0  0  0  0  0
  151.6228  139.0686  157.9600 H   0  0  0  0  0  0  0  0  0  0  0  0
  152.3088  141.0786  155.8533 H   0  0  0  0  0  0  0  0  0  0  0  0
  153.3437  139.4351  154.7088 H   0  0  0  0  0  0  0  0  0  0  0  0
  152.9210  138.1965  155.8930 H   0  0  0  0  0  0  0  0  0  0  0  0
  151.6934  138.1247  153.4510 H   0  0  0  0  0  0  0  0  0  0  0  0
  149.6307  137.2658  154.4787 H   0  0  0  0  0  0  0  0  0  0  0  0
  150.8157  136.9364  155.7488 H   0  0  0  0  0  0  0  0  0  0  0  0
  148.6039  138.8573  155.7611 H   0  0  0  0  0  0  0  0  0  0  0  0
  149.7229  138.5675  157.0917 H   0  0  0  0  0  0  0  0  0  0  0  0
  149.8406  140.9771  155.7899 H   0  0  0  0  0  0  0  0  0  0  0  0
  1  2  1  0  0  0  0
  1 19  1  0  0  0  0
  1 20  1  0  0  0  0
  1 21  1  0  0  0  0
  2 18  1  0  0  0  0
  2  3  2  0  0  0  0
  3  4  1  0  0  0  0
  3 22  1  0  0  0  0
  4  5  1  0  0  0  0
  4  6  2  0  0  0  0
  5 23  1  0  0  0  0
  5 24  1  0  0  0  0
  5 25  1  0  0  0  0
  6  7  1  0  0  0  0
  6  9  1  0  0  0  0
  7  8  3  0  0  0  0
  9 10  1  0  0  0  0
  9 18  2  0  0  0  0
 10 11  1  0  0  0  0
 10 26  1  0  0  0  0
 11 16  1  0  0  0  0
 11 12  1  0  0  0  0
 11 27  1  0  0  0  0
 12 13  1  0  0  0  0
 12 28  1  0  0  0  0
 12 29  1  0  0  0  0
 13 17  1  0  0  0  0
 13 14  1  0  0  0  0
 13 30  1  0  0  0  0
 14 15  1  0  0  0  0
 14 31  1  0  0  0  0
 14 32  1  0  0  0  0
 15 16  1  0  0  0  0
 15 33  1  0  0  0  0
 15 34  1  0  0  0  0
 16 17  1  0  0  0  0
 16 35  1  0  0  0  0
M  END
> <s_m_source_file>
AV-unprocessed.smi

> <i_m_source_file_index>
897

> <i_lp_mmshare_version>
43012

> <i_f3d_flags>
0

> <s_epik_input>
W0NIM11jMVtjSF1jKFtDSDNdKWMoQyNOKWMobjEpW05IXVtDQEhdKFtDSDJdW0NAQEhdMjMpW0NAQEhdKE8zKVtDSDJdW0NIMl0y

> <s_epik_cmdline>
J2VwaWtfcHl0aG9uJywgJy1waCcsICc3LjAnLCAnLXRuJywgJzgnLCAnLW1hJywgJzIwMCcsICctbWV0YWxfYmluZGluZycsICctaW1hZScsICc8aW5maWxlLm1hZT4nLCAnLW9tYWUnLCAnPG91dGZpbGUubWFlPic=

> <r_lp_tautomer_probability>
1

> <r_epik_Ionization_Penalty>
0.000502654

> <r_epik_Ionization_Penalty_Charging>
0

> <r_epik_Ionization_Penalty_Neutral>
0.000502654

> <r_epik_State_Penalty>
-0

> <r_epik_Charging_Adjusted_Penalty>
0

> <i_epik_Tot_Q>
0

> <i_epik_Tot_abs_Q>
0

> <r_epik_Metal_State_Penalty>
-0

> <b_epik_Metal_Only>
0

> <s_lp_Force_Field>
OPLS_2005

> <r_lp_Energy>
43.9226

> <b_lp_Chiralities_Consistent>
1

> <s_lp_Variant>
AV-unprocessed.smi:897-2

> <Gold.Version>
5.8.1

> <Gold.Id.Protein>
6NUR|6NUR_protein|mol2

> <Gold.PLP.Fitness>
41.6192

> <Gold.PLP.PLP>
-39.2916

> <Gold.PLP.part.hbond>
-1.0000

> <Gold.PLP.part.metal>
0.0000

> <Gold.PLP.part.buried>
-4.0190

> <Gold.PLP.part.nonpolar>
-34.3373

> <Gold.PLP.part.repulsive>
0.2408

> <Gold.PLP.ligand.clash>
0.0000

> <Gold.PLP.ligand.torsion>
0.3412

> <Gold.PLP.Chemscore.Hbond>
1.0000

> <Gold.PLP.Chemscore.CHOScore>
0.0000

> <Gold.PLP.Chemscore.Metal>
0.0000

> <Gold.Chemscore.Hbonds>
donor molecule, donor type, donor heavy atom, donor atom, acceptor molecule, acceptor atom, score
      P1  H  7989  7998       L1    17  1.00

> <Gold.PLP.Chemscore.Internal.Correction>
0.0101

> <Gold.Rescore>
     Score         DG    S(hbond)    S(metal)    S(lipo)     H(rot)  DE(clash)    DE(int)     intcor
     17.38     -17.70       0.74        0.00     105.08       1.00       0.03       0.29       ----

> <Gold.Chemscore.Fitness>
17.3823

> <Gold.Chemscore.DG>
-17.6971

> <Gold.Chemscore.ZeroCoef>
-5.4800

> <Gold.Chemscore.Hbond>
0.7433

> <Gold.Chemscore.Metal>
0.0000

> <Gold.Chemscore.Lipo>
105.0823

> <Gold.Chemscore.Internal_Hbond>
0.0000

> <Gold.Chemscore.DEClash>
0.0279

> <Gold.Chemscore.DEInternal>
0.2869

> <Gold.Chemscore.Rot>
1.0000

> <Gold.Chemscore.Internal.Correction>
   9.000000E+99

> <Gold.Chemscore.Hbonds>
donor molecule, donor type, donor heavy atom, donor atom, acceptor molecule, acceptor atom, score
      P1  H  7989  7998       L1    17  0.59

> <Gold.Chemscore.Hbond.Weighted>
-2.4825

> <Gold.Chemscore.Metal.Weighted>
-0.0000

> <Gold.Chemscore.Lipo.Weighted>
-12.2946

> <Gold.Chemscore.Internal_Hbond.Weighted>
0.0000

> <Gold.Chemscore.DEClash.Weighted>
0.0279

> <Gold.Chemscore.DEInternal.Weighted>
0.2869

> <Gold.Chemscore.Rot.Weighted>
2.5600

> <Gold.Chemscore.Internal.Correction.Weighted>
   9.000000E+99

> <Gold.Protein.RotatedTorsions>
[ 6907 6896 6895 6894 ] final  155.53 input  -60.11 | X-H torsion
[ 7974 7965 7964 7962 ] final  -32.47 input  175.53 | X-H torsion
[ 8008 7997 7996 7995 ] final  -41.98 input   59.86 | X-H torsion
[ 10167 10162 10161 10158 ] final  -91.17 input  -65.29 | X-H torsion
[ 10718 10713 10712 10709 ] final  -92.19 input   66.30 | X-H torsion
[ 10763 10752 10751 10750 ] final  102.71 input  -60.55 | X-H torsion
[ 11005 11000 10999 10996 ] final  124.84 input  -57.11 | X-H torsion

> <Gold.Protein.ActiveResidues>
 VAL166  LYS551  ARG553  GLY616  TRP617  ASP618  TYR619  PRO620  LYS621  CYS622 
 ASP623  PHE694  ASN695  SER759  ASP760  ASP761  ALA762  ILE779  LEU786  VAL792 
 PHE793  MET794  SER795  GLU796  ALA797  LYS798  CYS799  TRP800  GLU811  SER814 

> <Gold.Protein.RotatedAtoms>
  152.0428  133.3985  159.4343 H   0  0  0  0  0  0  0  0  0  0  0  0  # atno 6907 bound_to 6896
  150.6874  134.3396  159.4871 H   0  0  0  0  0  0  0  0  0  0  0  0  # atno 6908 bound_to 6896
  152.1196  134.9215  160.0614 H   0  0  0  0  0  0  0  0  0  0  0  0  # atno 6909 bound_to 6896
  146.0987  140.5796  142.8831 H   0  0  0  0  0  0  0  0  0  0  0  0  # atno 7974 bound_to 7965
  154.4001  140.1485  156.3279 H   0  0  0  0  0  0  0  0  0  0  0  0  # atno 8008 bound_to 7997
  155.8470  140.3459  155.5647 H   0  0  0  0  0  0  0  0  0  0  0  0  # atno 8009 bound_to 7997
  155.8025  140.0872  157.1939 H   0  0  0  0  0  0  0  0  0  0  0  0  # atno 8010 bound_to 7997
  140.3476  143.2908  151.9764 H   0  0  0  0  0  0  0  0  0  0  0  0  # atno 10167 bound_to 10162
  156.0000  130.4977  150.5589 H   0  0  0  0  0  0  0  0  0  0  0  0  # atno 10718 bound_to 10713
  153.3432  135.4001  155.1588 H   0  0  0  0  0  0  0  0  0  0  0  0  # atno 10763 bound_to 10752
  154.8648  135.3638  154.5319 H   0  0  0  0  0  0  0  0  0  0  0  0  # atno 10764 bound_to 10752
  153.5765  135.7077  153.5541 H   0  0  0  0  0  0  0  0  0  0  0  0  # atno 10765 bound_to 10752
  139.9378  134.9638  156.8469 H   0  0  0  0  0  0  0  0  0  0  0  0  # atno 11005 bound_to 11000
  144.7416  140.4956  143.6865 LP  0  0  0  0  0  0  0  0  0  0  0  0  # atno 17320 bound_to 7965
  145.5896  139.1494  143.3189 LP  0  0  0  0  0  0  0  0  0  0  0  0  # atno 17321 bound_to 7965
  139.4831  144.6104  151.7444 LP  0  0  0  0  0  0  0  0  0  0  0  0  # atno 17342 bound_to 10162
  140.5250  144.0820  150.6034 LP  0  0  0  0  0  0  0  0  0  0  0  0  # atno 17343 bound_to 10162
  157.3501  131.0732  151.1720 LP  0  0  0  0  0  0  0  0  0  0  0  0  # atno 17370 bound_to 10713
  157.2539  130.6627  149.5944 LP  0  0  0  0  0  0  0  0  0  0  0  0  # atno 17371 bound_to 10713
  140.6031  134.0153  155.7545 LP  0  0  0  0  0  0  0  0  0  0  0  0  # atno 17394 bound_to 11000
  141.0999  133.9785  157.3097 LP  0  0  0  0  0  0  0  0  0  0  0  0  # atno 17395 bound_to 11000

$$$$
