AV-unprocessed.smi:1374|AV-procd|sdf|5588|dock9
  -GOLD-   22720 5193D 1   1.00000     0.00000
 Structure written by MMmdl.
 42 43  0  0  0  0  0  0  0  0  2 V2000
  151.7436  145.1105  159.4353 C   0  0  0  0  0  0  0  0  0  0  0  0
  151.8691  144.2275  158.1893 C   0  0  0  0  0  0  0  0  0  0  0  0
  150.8838  143.0471  158.2010 C   0  0  0  0  0  0  0  0  0  0  0  0
  151.2285  141.9142  157.2092 C   0  0  0  0  0  0  0  0  0  0  0  0
  151.3796  140.5968  157.8688 N   0  0  0  0  0  0  0  0  0  0  0  0
  150.7006  139.4755  157.3205 C   0  0  0  0  0  0  0  0  0  0  0  0
  149.9043  139.6524  156.1978 N   0  0  0  0  0  0  0  0  0  0  0  0
  150.8700  138.2418  157.8675 C   0  0  0  0  0  0  0  0  0  0  0  0
  150.2243  137.0976  157.3496 N   0  0  0  0  0  0  0  0  0  0  0  0
  149.0314  136.6393  158.0704 C   0  0  0  0  0  0  0  0  0  0  0  0
  150.6664  136.3780  156.2764 C   0  0  0  0  0  0  0  0  0  0  0  0
  151.5470  136.8218  155.5353 O   0  0  0  0  0  0  0  0  0  0  0  0
  150.0801  135.0486  156.0768 C   0  0  0  0  0  0  0  0  0  0  0  0
  149.6520  134.7050  154.8405 C   0  0  0  0  0  0  0  0  0  0  0  0
  149.1323  133.4741  154.5253 O   0  0  0  0  0  0  0  0  0  0  0  0
  149.2876  132.4831  155.5348 C   0  0  0  0  0  0  0  0  0  0  0  0
  149.0662  133.0904  156.9273 C   0  0  0  0  0  0  0  0  0  0  0  0
  149.9702  134.1688  157.1304 O   0  0  0  0  0  0  0  0  0  0  0  0
  151.7096  138.1084  159.0661 C   0  0  0  0  0  0  0  0  0  0  0  0
  151.8390  137.0138  159.6148 O   0  0  0  0  0  0  0  0  0  0  0  0
  152.3216  139.2260  159.5369 N   0  5  0  0  0  0  0  0  0  0  0  0
  152.1849  140.4569  158.9677 C   0  0  0  0  0  0  0  0  0  0  0  0
  152.7748  141.4411  159.4156 O   0  0  0  0  0  0  0  0  0  0  0  0
  152.4474  145.9417  159.3930 H   0  0  0  0  0  0  0  0  0  0  0  0
  151.9511  144.5433  160.3430 H   0  0  0  0  0  0  0  0  0  0  0  0
  150.7403  145.5286  159.5212 H   0  0  0  0  0  0  0  0  0  0  0  0
  151.7004  144.8440  157.3062 H   0  0  0  0  0  0  0  0  0  0  0  0
  152.8898  143.8514  158.1144 H   0  0  0  0  0  0  0  0  0  0  0  0
  150.8503  142.6247  159.2058 H   0  0  0  0  0  0  0  0  0  0  0  0
  149.8793  143.4212  158.0032 H   0  0  0  0  0  0  0  0  0  0  0  0
  150.4769  141.8935  156.4190 H   0  0  0  0  0  0  0  0  0  0  0  0
  152.1454  142.1643  156.6747 H   0  0  0  0  0  0  0  0  0  0  0  0
  149.7960  140.5567  155.7621 H   0  0  0  0  0  0  0  0  0  0  0  0
  149.3155  138.9116  155.8457 H   0  0  0  0  0  0  0  0  0  0  0  0
  148.1671  136.6059  157.4057 H   0  0  0  0  0  0  0  0  0  0  0  0
  148.7801  137.2955  158.9048 H   0  0  0  0  0  0  0  0  0  0  0  0
  149.1883  135.6412  158.4821 H   0  0  0  0  0  0  0  0  0  0  0  0
  149.7002  135.3490  153.9740 H   0  0  0  0  0  0  0  0  0  0  0  0
  148.5784  131.6753  155.3537 H   0  0  0  0  0  0  0  0  0  0  0  0
  150.2881  132.0547  155.4629 H   0  0  0  0  0  0  0  0  0  0  0  0
  148.0427  133.4533  157.0328 H   0  0  0  0  0  0  0  0  0  0  0  0
  149.2235  132.3416  157.7037 H   0  0  0  0  0  0  0  0  0  0  0  0
  1  2  1  0  0  0  0
  1 24  1  0  0  0  0
  1 25  1  0  0  0  0
  1 26  1  0  0  0  0
  2  3  1  0  0  0  0
  2 27  1  0  0  0  0
  2 28  1  0  0  0  0
  3  4  1  0  0  0  0
  3 29  1  0  0  0  0
  3 30  1  0  0  0  0
  4  5  1  0  0  0  0
  4 31  1  0  0  0  0
  4 32  1  0  0  0  0
  5 22  1  0  0  0  0
  5  6  1  0  0  0  0
  6  7  1  0  0  0  0
  6  8  2  0  0  0  0
  7 33  1  0  0  0  0
  7 34  1  0  0  0  0
  8  9  1  0  0  0  0
  8 19  1  0  0  0  0
  9 10  1  0  0  0  0
  9 11  1  0  0  0  0
 10 35  1  0  0  0  0
 10 36  1  0  0  0  0
 10 37  1  0  0  0  0
 11 12  2  0  0  0  0
 11 13  1  0  0  0  0
 13 18  1  0  0  0  0
 13 14  2  0  0  0  0
 14 15  1  0  0  0  0
 14 38  1  0  0  0  0
 15 16  1  0  0  0  0
 16 17  1  0  0  0  0
 16 39  1  0  0  0  0
 16 40  1  0  0  0  0
 17 18  1  0  0  0  0
 17 41  1  0  0  0  0
 17 42  1  0  0  0  0
 19 20  2  0  0  0  0
 19 21  1  0  0  0  0
 21 22  1  0  0  0  0
 22 23  2  0  0  0  0
M  CHG  1  21  -1
M  END
> <s_m_source_file>
AV-unprocessed.smi

> <i_m_source_file_index>
1374

> <i_lp_mmshare_version>
43012

> <i_f3d_flags>
0

> <s_epik_input>
W0NIM11bQ0gyXVtDSDJdW0NIMl1uMWMoW05IMl0pYyhjKD1PKVtuSF1jMT1PKU4oW0NIM10pQyg9TylDMj1bQ0hdT1tDSDJdW0NIMl1PMg==

> <s_epik_cmdline>
J2VwaWtfcHl0aG9uJywgJy1waCcsICc3LjAnLCAnLXRuJywgJzgnLCAnLW1hJywgJzIwMCcsICctbWV0YWxfYmluZGluZycsICctaW1hZScsICc8aW5maWxlLm1hZT4nLCAnLW9tYWUnLCAnPG91dGZpbGUubWFlPic=

> <r_lp_tautomer_probability>
1

> <r_epik_Ionization_Penalty>
6.1831

> <r_epik_Ionization_Penalty_Charging>
0.183564

> <r_epik_Ionization_Penalty_Neutral>
5.99954

> <r_epik_State_Penalty>
5.99952

> <r_epik_Charging_Adjusted_Penalty>
6.18308

> <i_epik_Tot_Q>
-1

> <i_epik_Tot_abs_Q>
1

> <r_epik_Metal_State_Penalty>
1.93002

> <b_epik_Metal_Only>
1

> <s_epik_Chemistry_Notes>
This compound has an imine and may undergo hydrolysis.

> <s_lp_Force_Field>
OPLS_2005

> <r_lp_Energy>
38.087

> <b_lp_Chiralities_Consistent>
1

> <s_lp_Variant>
AV-unprocessed.smi:1374-2

> <Gold.Version>
5.8.1

> <Gold.Id.Protein>
6NUR|6NUR_protein|mol2

> <Gold.PLP.Fitness>
42.2456

> <Gold.PLP.PLP>
-33.7769

> <Gold.PLP.part.hbond>
-3.0000

> <Gold.PLP.part.metal>
0.0000

> <Gold.PLP.part.buried>
-7.1870

> <Gold.PLP.part.nonpolar>
-24.5690

> <Gold.PLP.part.repulsive>
0.1585

> <Gold.PLP.ligand.clash>
0.0000

> <Gold.PLP.ligand.torsion>
2.8966

> <Gold.PLP.Chemscore.Hbond>
2.7558

> <Gold.PLP.Chemscore.CHOScore>
0.8527

> <Gold.PLP.Chemscore.Metal>
0.0000

> <Gold.Chemscore.Hbonds>
donor molecule, donor type, donor heavy atom, donor atom, acceptor molecule, acceptor atom, score
      P1  H  6896  6908       L1    18  0.31
      P1  H  6896  6909       L1    20  1.00
      P1  H 10752 10765       L1    12  0.88
      L1  C    14    38       P1  7948  0.81

> <Gold.PLP.Chemscore.Internal.Correction>
3.4363

> <Gold.Rescore>
     Score         DG    S(hbond)    S(metal)    S(lipo)     H(rot)  DE(clash)    DE(int)     intcor
     13.32     -18.82       2.87        0.00      64.27       1.47       0.00       5.50       ----

> <Gold.Chemscore.Fitness>
13.3212

> <Gold.Chemscore.DG>
-18.8244

> <Gold.Chemscore.ZeroCoef>
-5.4800

> <Gold.Chemscore.Hbond>
2.8719

> <Gold.Chemscore.Metal>
0.0000

> <Gold.Chemscore.Lipo>
64.2678

> <Gold.Chemscore.Internal_Hbond>
0.0000

> <Gold.Chemscore.DEClash>
0.0000

> <Gold.Chemscore.DEInternal>
5.5032

> <Gold.Chemscore.Rot>
1.4715

> <Gold.Chemscore.Internal.Correction>
   9.000000E+99

> <Gold.Chemscore.Hbonds>
donor molecule, donor type, donor heavy atom, donor atom, acceptor molecule, acceptor atom, score
      P1  H  6896  6908       L1    18  0.17
      P1  H  6896  6909       L1    20  1.00
      P1  H 10752 10765       L1    12  0.84

> <Gold.Chemscore.Hbond.Weighted>
-9.5921

> <Gold.Chemscore.Metal.Weighted>
-0.0000

> <Gold.Chemscore.Lipo.Weighted>
-7.5193

> <Gold.Chemscore.Internal_Hbond.Weighted>
0.0000

> <Gold.Chemscore.DEClash.Weighted>
0.0000

> <Gold.Chemscore.DEInternal.Weighted>
5.5032

> <Gold.Chemscore.Rot.Weighted>
3.7671

> <Gold.Chemscore.Internal.Correction.Weighted>
   9.000000E+99

> <Gold.Protein.RotatedTorsions>
[ 6907 6896 6895 6894 ] final  128.40 input  -60.11 | X-H torsion
[ 7974 7965 7964 7962 ] final  135.06 input  175.53 | X-H torsion
[ 8008 7997 7996 7995 ] final   83.17 input   59.86 | X-H torsion
[ 10167 10162 10161 10158 ] final  140.92 input  -65.29 | X-H torsion
[ 10718 10713 10712 10709 ] final   43.44 input   66.30 | X-H torsion
[ 10763 10752 10751 10750 ] final  178.30 input  -60.55 | X-H torsion
[ 11005 11000 10999 10996 ] final -112.65 input  -57.11 | X-H torsion

> <Gold.Protein.ActiveResidues>
 VAL166  LYS551  ARG553  GLY616  TRP617  ASP618  TYR619  PRO620  LYS621  CYS622 
 ASP623  PHE694  ASN695  SER759  ASP760  ASP761  ALA762  ILE779  LEU786  VAL792 
 PHE793  MET794  SER795  GLU796  ALA797  LYS798  CYS799  TRP800  GLU811  SER814 

> <Gold.Protein.RotatedAtoms>
  152.3723  133.6435  159.6096 H   0  0  0  0  0  0  0  0  0  0  0  0  # atno 6907 bound_to 6896
  150.7678  133.9250  159.3418 H   0  0  0  0  0  0  0  0  0  0  0  0  # atno 6908 bound_to 6896
  151.7070  135.0921  160.0312 H   0  0  0  0  0  0  0  0  0  0  0  0  # atno 6909 bound_to 6896
  144.9701  139.4615  143.5437 H   0  0  0  0  0  0  0  0  0  0  0  0  # atno 7974 bound_to 7965
  155.9204  140.3421  155.6168 H   0  0  0  0  0  0  0  0  0  0  0  0  # atno 8008 bound_to 7997
  155.7280  140.0792  157.2320 H   0  0  0  0  0  0  0  0  0  0  0  0  # atno 8009 bound_to 7997
  154.4069  140.1593  156.2464 H   0  0  0  0  0  0  0  0  0  0  0  0  # atno 8010 bound_to 7997
  139.5035  144.6204  151.6064 H   0  0  0  0  0  0  0  0  0  0  0  0  # atno 10167 bound_to 10162
  157.4159  130.7941  149.7471 H   0  0  0  0  0  0  0  0  0  0  0  0  # atno 10718 bound_to 10713
  154.5059  135.2786  155.1383 H   0  0  0  0  0  0  0  0  0  0  0  0  # atno 10763 bound_to 10752
  154.2997  135.6250  153.5423 H   0  0  0  0  0  0  0  0  0  0  0  0  # atno 10764 bound_to 10752
  152.9910  135.5694  154.5513 H   0  0  0  0  0  0  0  0  0  0  0  0  # atno 10765 bound_to 10752
  141.0662  133.9454  157.2573 H   0  0  0  0  0  0  0  0  0  0  0  0  # atno 11005 bound_to 11000
  146.3379  139.8907  142.8809 LP  0  0  0  0  0  0  0  0  0  0  0  0  # atno 17320 bound_to 7965
  145.2572  141.0064  143.3847 LP  0  0  0  0  0  0  0  0  0  0  0  0  # atno 17321 bound_to 7965
  140.5905  143.9788  150.6321 LP  0  0  0  0  0  0  0  0  0  0  0  0  # atno 17342 bound_to 10162
  140.2967  143.3288  152.1011 LP  0  0  0  0  0  0  0  0  0  0  0  0  # atno 17343 bound_to 10162
  155.9865  130.3974  150.3210 LP  0  0  0  0  0  0  0  0  0  0  0  0  # atno 17370 bound_to 10713
  157.1353  131.0282  151.2951 LP  0  0  0  0  0  0  0  0  0  0  0  0  # atno 17371 bound_to 10713
  139.9479  135.0181  156.8907 LP  0  0  0  0  0  0  0  0  0  0  0  0  # atno 17394 bound_to 11000
  140.5768  134.0391  155.7449 LP  0  0  0  0  0  0  0  0  0  0  0  0  # atno 17395 bound_to 11000

$$$$
