AV-unprocessed.smi:725|AV-procd|sdf|3508|dock8
  -GOLD-   22720 0503D 1   1.00000     0.00000
 Structure written by MMmdl.
 47 48  0  0  0  0  0  0  0  0  1 V2000
  151.2995  145.3338  159.1645 C   0  0  0  0  0  0  0  0  0  0  0  0
  152.4693  144.3742  159.4092 C   0  0  0  0  0  0  0  0  0  0  0  0
  151.9956  142.9592  159.7949 C   0  0  0  0  0  0  0  0  0  0  0  0
  151.5317  142.0634  158.6172 C   0  0  1  0  0  0  0  0  0  0  0  0
  152.4278  140.8226  158.4303 C   0  0  0  0  0  0  0  0  0  0  0  0
  150.2259  141.6011  158.9033 O   0  0  0  0  0  0  0  0  0  0  0  0
  151.4076  142.8810  157.3077 C   0  0  0  0  0  0  0  0  0  0  0  0
  150.3679  142.3751  156.4152 N   0  0  0  0  0  0  0  0  0  0  0  0
  150.3658  141.1707  155.8220 C   0  0  0  0  0  0  0  0  0  0  0  0
  151.2505  140.3299  155.9842 O   0  0  0  0  0  0  0  0  0  0  0  0
  149.1700  140.8926  154.9491 C   0  0  0  0  0  0  0  0  0  0  0  0
  148.3402  141.9664  154.5501 C   0  0  0  0  0  0  0  0  0  0  0  0
  147.2511  141.7231  153.6950 C   0  0  0  0  0  0  0  0  0  0  0  0
  147.0315  140.4060  153.2578 C   0  0  0  0  0  0  0  0  0  0  0  0
  147.8109  139.3689  153.6234 N   0  0  0  0  0  0  0  0  0  0  0  0
  148.8625  139.5911  154.4512 C   0  0  0  0  0  0  0  0  0  0  0  0
  149.6134  138.4603  154.8307 N   0  0  0  0  0  0  0  0  0  0  0  0
  150.9107  138.2655  154.1920 C   0  0  0  0  0  0  0  0  0  0  0  0
  151.6797  137.1425  154.9084 C   0  0  0  0  0  0  0  0  0  0  0  0
  150.8920  135.9549  154.9188 O   0  0  0  0  0  0  0  0  0  0  0  0
  149.6581  136.1352  155.6084 C   0  0  0  0  0  0  0  0  0  0  0  0
  148.8326  137.2321  154.9147 C   0  0  0  0  0  0  0  0  0  0  0  0
  151.6612  146.3248  158.8898 H   0  0  0  0  0  0  0  0  0  0  0  0
  150.6843  145.4409  160.0583 H   0  0  0  0  0  0  0  0  0  0  0  0
  150.6599  144.9773  158.3567 H   0  0  0  0  0  0  0  0  0  0  0  0
  153.0792  144.3331  158.5069 H   0  0  0  0  0  0  0  0  0  0  0  0
  153.1038  144.7853  160.1948 H   0  0  0  0  0  0  0  0  0  0  0  0
  152.8044  142.4536  160.3252 H   0  0  0  0  0  0  0  0  0  0  0  0
  151.1843  143.0574  160.5171 H   0  0  0  0  0  0  0  0  0  0  0  0
  153.4731  141.1024  158.2975 H   0  0  0  0  0  0  0  0  0  0  0  0
  152.1275  140.2476  157.5535 H   0  0  0  0  0  0  0  0  0  0  0  0
  152.3763  140.1498  159.2865 H   0  0  0  0  0  0  0  0  0  0  0  0
  149.7793  141.4379  158.0864 H   0  0  0  0  0  0  0  0  0  0  0  0
  151.2412  143.9369  157.5295 H   0  0  0  0  0  0  0  0  0  0  0  0
  152.3484  142.8405  156.7574 H   0  0  0  0  0  0  0  0  0  0  0  0
  149.5901  142.9919  156.2314 H   0  0  0  0  0  0  0  0  0  0  0  0
  148.5374  142.9752  154.8837 H   0  0  0  0  0  0  0  0  0  0  0  0
  146.6051  142.5277  153.3761 H   0  0  0  0  0  0  0  0  0  0  0  0
  146.2081  140.1783  152.5971 H   0  0  0  0  0  0  0  0  0  0  0  0
  150.7703  138.0043  153.1422 H   0  0  0  0  0  0  0  0  0  0  0  0
  151.4843  139.1926  154.2247 H   0  0  0  0  0  0  0  0  0  0  0  0
  152.6192  136.9424  154.3935 H   0  0  0  0  0  0  0  0  0  0  0  0
  151.9308  137.4336  155.9297 H   0  0  0  0  0  0  0  0  0  0  0  0
  149.1091  135.1936  155.6076 H   0  0  0  0  0  0  0  0  0  0  0  0
  149.8466  136.3937  156.6517 H   0  0  0  0  0  0  0  0  0  0  0  0
  147.9038  137.3984  155.4606 H   0  0  0  0  0  0  0  0  0  0  0  0
  148.5584  136.9144  153.9081 H   0  0  0  0  0  0  0  0  0  0  0  0
  1  2  1  0  0  0  0
  1 23  1  0  0  0  0
  1 24  1  0  0  0  0
  1 25  1  0  0  0  0
  2  3  1  0  0  0  0
  2 26  1  0  0  0  0
  2 27  1  0  0  0  0
  3  4  1  0  0  0  0
  3 28  1  0  0  0  0
  3 29  1  0  0  0  0
  4  5  1  0  0  0  0
  4  6  1  0  0  0  0
  4  7  1  0  0  0  0
  5 30  1  0  0  0  0
  5 31  1  0  0  0  0
  5 32  1  0  0  0  0
  6 33  1  0  0  0  0
  7  8  1  0  0  0  0
  7 34  1  0  0  0  0
  7 35  1  0  0  0  0
  8  9  1  0  0  0  0
  8 36  1  0  0  0  0
  9 10  2  0  0  0  0
  9 11  1  0  0  0  0
 11 16  1  0  0  0  0
 11 12  2  0  0  0  0
 12 13  1  0  0  0  0
 12 37  1  0  0  0  0
 13 14  2  0  0  0  0
 13 38  1  0  0  0  0
 14 15  1  0  0  0  0
 14 39  1  0  0  0  0
 15 16  2  0  0  0  0
 16 17  1  0  0  0  0
 17 22  1  0  0  0  0
 17 18  1  0  0  0  0
 18 19  1  0  0  0  0
 18 40  1  0  0  0  0
 18 41  1  0  0  0  0
 19 20  1  0  0  0  0
 19 42  1  0  0  0  0
 19 43  1  0  0  0  0
 20 21  1  0  0  0  0
 21 22  1  0  0  0  0
 21 44  1  0  0  0  0
 21 45  1  0  0  0  0
 22 46  1  0  0  0  0
 22 47  1  0  0  0  0
M  END
> <s_m_source_file>
AV-unprocessed.smi

> <i_m_source_file_index>
725

> <i_lp_mmshare_version>
43012

> <i_f3d_flags>
0

> <s_epik_input>
W0NIM11bQ0gyXVtDSDJdW0NAQF0oW0NIM10pKFtPSF0pW0NIMl1bTkhdQyg9TyljMVtjSF1bY0hdW2NIXW5jMU4yW0NIMl1bQ0gyXU9bQ0gyXVtDSDJdMg==

> <s_epik_cmdline>
J2VwaWtfcHl0aG9uJywgJy1waCcsICc3LjAnLCAnLXRuJywgJzgnLCAnLW1hJywgJzIwMCcsICctbWV0YWxfYmluZGluZycsICctaW1hZScsICc8aW5maWxlLm1hZT4nLCAnLW9tYWUnLCAnPG91dGZpbGUubWFlPic=

> <r_lp_tautomer_probability>
1

> <r_epik_Ionization_Penalty>
1.23446e-05

> <r_epik_Ionization_Penalty_Charging>
0

> <r_epik_Ionization_Penalty_Neutral>
1.23446e-05

> <r_epik_State_Penalty>
-0

> <r_epik_Charging_Adjusted_Penalty>
0

> <i_epik_Tot_Q>
0

> <i_epik_Tot_abs_Q>
0

> <r_epik_Metal_State_Penalty>
-0

> <b_epik_Metal_Only>
0

> <s_lp_Force_Field>
OPLS_2005

> <r_lp_Energy>
26.7516

> <b_lp_Chiralities_Consistent>
1

> <s_lp_Variant>
AV-unprocessed.smi:725-1

> <Gold.Version>
5.8.1

> <Gold.Id.Protein>
6NUR|6NUR_protein|mol2

> <Gold.PLP.Fitness>
41.5828

> <Gold.PLP.PLP>
-39.9834

> <Gold.PLP.part.hbond>
-2.8750

> <Gold.PLP.part.metal>
0.0000

> <Gold.PLP.part.buried>
-2.7739

> <Gold.PLP.part.nonpolar>
-35.2211

> <Gold.PLP.part.repulsive>
0.9394

> <Gold.PLP.ligand.clash>
0.0000

> <Gold.PLP.ligand.torsion>
2.3560

> <Gold.PLP.Chemscore.Hbond>
0.9920

> <Gold.PLP.Chemscore.CHOScore>
0.9878

> <Gold.PLP.Chemscore.Metal>
0.0000

> <Gold.Chemscore.Hbonds>
donor molecule, donor type, donor heavy atom, donor atom, acceptor molecule, acceptor atom, score
      L1  H     8    36       P1  8028  1.00
      L1  C    14    39       P1 10175  0.98

> <Gold.PLP.Chemscore.Internal.Correction>
0.3722

> <Gold.Rescore>
     Score         DG    S(hbond)    S(metal)    S(lipo)     H(rot)  DE(clash)    DE(int)     intcor
      8.76     -15.56       0.82        0.00     110.84       2.19       0.12       6.68       ----

> <Gold.Chemscore.Fitness>
8.7575

> <Gold.Chemscore.DG>
-15.5576

> <Gold.Chemscore.ZeroCoef>
-5.4800

> <Gold.Chemscore.Hbond>
0.8156

> <Gold.Chemscore.Metal>
0.0000

> <Gold.Chemscore.Lipo>
110.8414

> <Gold.Chemscore.Internal_Hbond>
0.0000

> <Gold.Chemscore.DEClash>
0.1189

> <Gold.Chemscore.DEInternal>
6.6812

> <Gold.Chemscore.Rot>
2.1933

> <Gold.Chemscore.Internal.Correction>
   9.000000E+99

> <Gold.Chemscore.Hbonds>
donor molecule, donor type, donor heavy atom, donor atom, acceptor molecule, acceptor atom, score
      L1  H     8    36       P1  8028  0.94

> <Gold.Chemscore.Hbond.Weighted>
-2.7240

> <Gold.Chemscore.Metal.Weighted>
-0.0000

> <Gold.Chemscore.Lipo.Weighted>
-12.9684

> <Gold.Chemscore.Internal_Hbond.Weighted>
0.0000

> <Gold.Chemscore.DEClash.Weighted>
0.1189

> <Gold.Chemscore.DEInternal.Weighted>
6.6812

> <Gold.Chemscore.Rot.Weighted>
5.6149

> <Gold.Chemscore.Internal.Correction.Weighted>
   9.000000E+99

> <Gold.Protein.RotatedTorsions>
[ 6907 6896 6895 6894 ] final -114.98 input  -60.11 | X-H torsion
[ 7974 7965 7964 7962 ] final -167.15 input  175.53 | X-H torsion
[ 8008 7997 7996 7995 ] final  -96.96 input   59.86 | X-H torsion
[ 10167 10162 10161 10158 ] final  -80.58 input  -65.29 | X-H torsion
[ 10718 10713 10712 10709 ] final  -90.34 input   66.30 | X-H torsion
[ 10763 10752 10751 10750 ] final  157.20 input  -60.55 | X-H torsion
[ 11005 11000 10999 10996 ] final  131.52 input  -57.11 | X-H torsion

> <Gold.Protein.ActiveResidues>
 VAL166  LYS551  ARG553  GLY616  TRP617  ASP618  TYR619  PRO620  LYS621  CYS622 
 ASP623  PHE694  ASN695  SER759  ASP760  ASP761  ALA762  ILE779  LEU786  VAL792 
 PHE793  MET794  SER795  GLU796  ALA797  LYS798  CYS799  TRP800  GLU811  SER814 

> <Gold.Protein.RotatedAtoms>
  150.7943  133.8724  159.3262 H   0  0  0  0  0  0  0  0  0  0  0  0  # atno 6907 bound_to 6896
  151.6553  135.0994  160.0178 H   0  0  0  0  0  0  0  0  0  0  0  0  # atno 6908 bound_to 6896
  152.4022  133.6796  159.6361 H   0  0  0  0  0  0  0  0  0  0  0  0  # atno 6909 bound_to 6896
  144.7229  140.2561  143.6271 H   0  0  0  0  0  0  0  0  0  0  0  0  # atno 7974 bound_to 7965
  154.7813  140.0467  157.1129 H   0  0  0  0  0  0  0  0  0  0  0  0  # atno 8008 bound_to 7997
  154.9701  140.3088  155.4972 H   0  0  0  0  0  0  0  0  0  0  0  0  # atno 8009 bound_to 7997
  156.2937  140.2255  156.4793 H   0  0  0  0  0  0  0  0  0  0  0  0  # atno 8010 bound_to 7997
  140.4490  143.2489  151.8516 H   0  0  0  0  0  0  0  0  0  0  0  0  # atno 10167 bound_to 10162
  155.9987  130.4906  150.5308 H   0  0  0  0  0  0  0  0  0  0  0  0  # atno 10718 bound_to 10713
  154.1964  135.2792  155.3005 H   0  0  0  0  0  0  0  0  0  0  0  0  # atno 10763 bound_to 10752
  154.5888  135.5566  153.7261 H   0  0  0  0  0  0  0  0  0  0  0  0  # atno 10764 bound_to 10752
  153.0099  135.6363  154.2103 H   0  0  0  0  0  0  0  0  0  0  0  0  # atno 10765 bound_to 10752
  139.9735  134.9570  156.9449 H   0  0  0  0  0  0  0  0  0  0  0  0  # atno 11005 bound_to 11000
  145.8181  139.2032  143.1954 LP  0  0  0  0  0  0  0  0  0  0  0  0  # atno 17320 bound_to 7965
  146.0538  140.8042  142.9769 LP  0  0  0  0  0  0  0  0  0  0  0  0  # atno 17321 bound_to 7965
  139.4795  144.5142  151.8891 LP  0  0  0  0  0  0  0  0  0  0  0  0  # atno 17342 bound_to 10162
  140.4230  144.2218  150.5887 LP  0  0  0  0  0  0  0  0  0  0  0  0  # atno 17343 bound_to 10162
  157.3258  131.0690  151.1898 LP  0  0  0  0  0  0  0  0  0  0  0  0  # atno 17370 bound_to 10713
  157.2796  130.6743  149.6059 LP  0  0  0  0  0  0  0  0  0  0  0  0  # atno 17371 bound_to 10713
  140.5244  134.0876  155.7300 LP  0  0  0  0  0  0  0  0  0  0  0  0  # atno 17394 bound_to 11000
  141.1413  133.9133  157.2318 LP  0  0  0  0  0  0  0  0  0  0  0  0  # atno 17395 bound_to 11000

$$$$
