AV-unprocessed.smi:1196|AV-procd|sdf|4996|dock9
  -GOLD-   22720 4 03D 1   1.00000     0.00000
 Structure written by MMmdl.
 37 38  0  0  0  0  0  0  0  0  1 V2000
  147.7536  131.7598  153.2586 C   0  0  0  0  0  0  0  0  0  0  0  0
  147.3883  133.2381  153.0519 C   0  0  2  0  0  0  0  0  0  0  0  0
  147.2365  133.5768  151.5560 C   0  0  0  0  0  0  0  0  0  0  0  0
  145.9959  133.0720  150.9943 N   0  0  0  0  0  0  0  0  0  0  0  0
  145.8183  132.0374  150.0998 C   0  0  0  0  0  0  0  0  0  0  0  0
  144.4782  131.9334  149.8598 C   0  0  0  0  0  0  0  0  0  0  0  0
  143.9100  132.9588  150.6665 C   0  0  0  0  0  0  0  0  0  0  0  0
  144.8207  133.6370  151.3460 N   0  0  0  0  0  0  0  0  0  0  0  0
  148.4078  134.0923  153.6591 N   0  0  0  0  0  0  0  0  0  0  0  0
  148.9736  133.8966  154.8600 C   0  0  0  0  0  0  0  0  0  0  0  0
  148.6976  132.9439  155.5894 O   0  0  0  0  0  0  0  0  0  0  0  0
  150.0017  134.9435  155.3000 C   0  0  0  0  0  0  0  0  0  0  0  0
  149.6017  135.6770  156.5954 C   0  0  0  0  0  0  0  0  0  0  0  0
  150.2683  137.0596  156.7369 C   0  0  2  0  0  0  0  0  0  0  0  0
  149.6851  138.0593  155.8582 N   0  0  0  0  0  0  0  0  0  0  0  0
  150.5807  138.5796  155.0080 C   0  0  0  0  0  0  0  0  0  0  0  0
  150.3566  139.4439  154.1639 O   0  0  0  0  0  0  0  0  0  0  0  0
  151.7593  137.9919  155.2394 N   0  0  0  0  0  0  0  0  0  0  0  0
  151.6933  137.0851  156.2129 C   0  0  0  0  0  0  0  0  0  0  0  0
  152.6097  136.3804  156.6312 O   0  0  0  0  0  0  0  0  0  0  0  0
  146.9962  131.1059  152.8257 H   0  0  0  0  0  0  0  0  0  0  0  0
  147.8290  131.5154  154.3186 H   0  0  0  0  0  0  0  0  0  0  0  0
  148.7090  131.5175  152.7917 H   0  0  0  0  0  0  0  0  0  0  0  0
  146.4281  133.4190  153.5389 H   0  0  0  0  0  0  0  0  0  0  0  0
  147.2781  134.6557  151.4001 H   0  0  0  0  0  0  0  0  0  0  0  0
  148.0636  133.1491  150.9874 H   0  0  0  0  0  0  0  0  0  0  0  0
  146.6509  131.4699  149.7109 H   0  0  0  0  0  0  0  0  0  0  0  0
  143.9796  131.2319  149.2076 H   0  0  0  0  0  0  0  0  0  0  0  0
  142.8699  133.2280  150.7782 H   0  0  0  0  0  0  0  0  0  0  0  0
  148.6955  134.9017  153.1289 H   0  0  0  0  0  0  0  0  0  0  0  0
  150.9687  134.4565  155.4339 H   0  0  0  0  0  0  0  0  0  0  0  0
  150.1235  135.6632  154.4898 H   0  0  0  0  0  0  0  0  0  0  0  0
  148.5184  135.8081  156.6159 H   0  0  0  0  0  0  0  0  0  0  0  0
  149.8495  135.0558  157.4583 H   0  0  0  0  0  0  0  0  0  0  0  0
  150.2451  137.4092  157.7698 H   0  0  0  0  0  0  0  0  0  0  0  0
  148.7126  138.3271  155.8986 H   0  0  0  0  0  0  0  0  0  0  0  0
  152.6025  138.2048  154.7266 H   0  0  0  0  0  0  0  0  0  0  0  0
  1  2  1  0  0  0  0
  1 21  1  0  0  0  0
  1 22  1  0  0  0  0
  1 23  1  0  0  0  0
  2  3  1  0  0  0  0
  2  9  1  0  0  0  0
  2 24  1  0  0  0  0
  3  4  1  0  0  0  0
  3 25  1  0  0  0  0
  3 26  1  0  0  0  0
  4  8  1  0  0  0  0
  4  5  1  0  0  0  0
  5  6  2  0  0  0  0
  5 27  1  0  0  0  0
  6  7  1  0  0  0  0
  6 28  1  0  0  0  0
  7  8  2  0  0  0  0
  7 29  1  0  0  0  0
  9 10  1  0  0  0  0
  9 30  1  0  0  0  0
 10 11  2  0  0  0  0
 10 12  1  0  0  0  0
 12 13  1  0  0  0  0
 12 31  1  0  0  0  0
 12 32  1  0  0  0  0
 13 14  1  0  0  0  0
 13 33  1  0  0  0  0
 13 34  1  0  0  0  0
 14 19  1  0  0  0  0
 14 15  1  0  0  0  0
 14 35  1  0  0  0  0
 15 16  1  0  0  0  0
 15 36  1  0  0  0  0
 16 17  2  0  0  0  0
 16 18  1  0  0  0  0
 18 19  1  0  0  0  0
 18 37  1  0  0  0  0
 19 20  2  0  0  0  0
M  END
> <s_m_source_file>
AV-unprocessed.smi

> <i_m_source_file_index>
1196

> <i_lp_mmshare_version>
43012

> <i_f3d_flags>
0

> <s_epik_input>
bjFbY0hdW2NIXVtjSF1uMVtDSDJdW0NAQEhdKFtDSDNdKVtOSF1DKD1PKVtDSDJdW0NIMl1bQ0BASF0yW05IXUMoPU8pW05IXUMyPU8=

> <s_epik_cmdline>
J2VwaWtfcHl0aG9uJywgJy1waCcsICc3LjAnLCAnLXRuJywgJzgnLCAnLW1hJywgJzIwMCcsICctbWV0YWxfYmluZGluZycsICctaW1hZScsICc8aW5maWxlLm1hZT4nLCAnLW9tYWUnLCAnPG91dGZpbGUubWFlPic=

> <r_lp_tautomer_probability>
1

> <r_epik_Ionization_Penalty>
0.00815973

> <r_epik_Ionization_Penalty_Charging>
0

> <r_epik_Ionization_Penalty_Neutral>
0.00815973

> <r_epik_State_Penalty>
0.00583796

> <r_epik_Charging_Adjusted_Penalty>
0.00583796

> <i_epik_Tot_Q>
0

> <i_epik_Tot_abs_Q>
0

> <r_epik_Metal_State_Penalty>
0.409204

> <b_epik_Metal_Only>
0

> <s_lp_Force_Field>
OPLS_2005

> <r_lp_Energy>
19.6523

> <b_lp_Chiralities_Consistent>
1

> <s_lp_Variant>
AV-unprocessed.smi:1196-1

> <Gold.Version>
5.8.1

> <Gold.Id.Protein>
6NUR|6NUR_protein|mol2

> <Gold.PLP.Fitness>
42.7238

> <Gold.PLP.PLP>
-29.1122

> <Gold.PLP.part.hbond>
-3.0000

> <Gold.PLP.part.metal>
0.0000

> <Gold.PLP.part.buried>
-3.5722

> <Gold.PLP.part.nonpolar>
-22.3394

> <Gold.PLP.part.repulsive>
0.6428

> <Gold.PLP.ligand.clash>
0.0000

> <Gold.PLP.ligand.torsion>
0.7221

> <Gold.PLP.Chemscore.Hbond>
3.0000

> <Gold.PLP.Chemscore.CHOScore>
1.9850

> <Gold.PLP.Chemscore.Metal>
0.0000

> <Gold.Chemscore.Hbonds>
donor molecule, donor type, donor heavy atom, donor atom, acceptor molecule, acceptor atom, score
      L1  H     9    30       P1  7948  1.00
      P1  H  7989  7998       L1    17  1.00
      P1  H 10752 10765       L1    20  1.00
      L1  C     5    27       P1 10747  1.00
      L1  C     7    29       P1 10186  1.00

> <Gold.PLP.Chemscore.Internal.Correction>
0.1006

> <Gold.Rescore>
     Score         DG    S(hbond)    S(metal)    S(lipo)     H(rot)  DE(clash)    DE(int)     intcor
     10.83     -12.75       2.44        0.00      57.16       2.96       0.03       1.89       ----

> <Gold.Chemscore.Fitness>
10.8330

> <Gold.Chemscore.DG>
-12.7488

> <Gold.Chemscore.ZeroCoef>
-5.4800

> <Gold.Chemscore.Hbond>
2.4407

> <Gold.Chemscore.Metal>
0.0000

> <Gold.Chemscore.Lipo>
57.1634

> <Gold.Chemscore.Internal_Hbond>
0.0000

> <Gold.Chemscore.DEClash>
0.0283

> <Gold.Chemscore.DEInternal>
1.8874

> <Gold.Chemscore.Rot>
2.9575

> <Gold.Chemscore.Internal.Correction>
   9.000000E+99

> <Gold.Chemscore.Hbonds>
donor molecule, donor type, donor heavy atom, donor atom, acceptor molecule, acceptor atom, score
      L1  H     9    30       P1  7948  0.40
      P1  H  7989  7998       L1    17  0.94
      P1  H 10752 10765       L1    20  0.70

> <Gold.Chemscore.Hbond.Weighted>
-8.1520

> <Gold.Chemscore.Metal.Weighted>
-0.0000

> <Gold.Chemscore.Lipo.Weighted>
-6.6881

> <Gold.Chemscore.Internal_Hbond.Weighted>
0.0000

> <Gold.Chemscore.DEClash.Weighted>
0.0283

> <Gold.Chemscore.DEInternal.Weighted>
1.8874

> <Gold.Chemscore.Rot.Weighted>
7.5713

> <Gold.Chemscore.Internal.Correction.Weighted>
   9.000000E+99

> <Gold.Protein.RotatedTorsions>
[ 6907 6896 6895 6894 ] final  -84.51 input  -60.11 | X-H torsion
[ 7974 7965 7964 7962 ] final  101.23 input  175.53 | X-H torsion
[ 8008 7997 7996 7995 ] final   94.70 input   59.86 | X-H torsion
[ 10167 10162 10161 10158 ] final  -88.10 input  -65.29 | X-H torsion
[ 10718 10713 10712 10709 ] final   -3.60 input   66.30 | X-H torsion
[ 10763 10752 10751 10750 ] final -135.05 input  -60.55 | X-H torsion
[ 11005 11000 10999 10996 ] final  110.86 input  -57.11 | X-H torsion

> <Gold.Protein.ActiveResidues>
 VAL166  LYS551  ARG553  GLY616  TRP617  ASP618  TYR619  PRO620  LYS621  CYS622 
 ASP623  PHE694  ASN695  SER759  ASP760  ASP761  ALA762  ILE779  LEU786  VAL792 
 PHE793  MET794  SER795  GLU796  ALA797  LYS798  CYS799  TRP800  GLU811  SER814 

> <Gold.Protein.RotatedAtoms>
  150.6876  134.3347  159.4841 H   0  0  0  0  0  0  0  0  0  0  0  0  # atno 6907 bound_to 6896
  152.1207  134.9205  160.0572 H   0  0  0  0  0  0  0  0  0  0  0  0  # atno 6908 bound_to 6896
  152.0412  133.3943  159.4374 H   0  0  0  0  0  0  0  0  0  0  0  0  # atno 6909 bound_to 6896
  145.3751  139.2390  143.3434 H   0  0  0  0  0  0  0  0  0  0  0  0  # atno 7974 bound_to 7965
  156.0608  140.3296  155.7459 H   0  0  0  0  0  0  0  0  0  0  0  0  # atno 8008 bound_to 7997
  155.5458  140.0606  157.2878 H   0  0  0  0  0  0  0  0  0  0  0  0  # atno 8009 bound_to 7997
  154.4480  140.1903  156.0625 H   0  0  0  0  0  0  0  0  0  0  0  0  # atno 8010 bound_to 7997
  140.3780  143.2762  151.9419 H   0  0  0  0  0  0  0  0  0  0  0  0  # atno 10167 bound_to 10162
  156.7736  130.5308  149.5763 H   0  0  0  0  0  0  0  0  0  0  0  0  # atno 10718 bound_to 10713
  154.8709  135.3715  154.4835 H   0  0  0  0  0  0  0  0  0  0  0  0  # atno 10763 bound_to 10752
  153.5486  135.7025  153.5607 H   0  0  0  0  0  0  0  0  0  0  0  0  # atno 10764 bound_to 10752
  153.3736  135.4015  155.1770 H   0  0  0  0  0  0  0  0  0  0  0  0  # atno 10765 bound_to 10752
  139.8891  134.9494  156.6344 H   0  0  0  0  0  0  0  0  0  0  0  0  # atno 11005 bound_to 11000
  146.2867  140.4409  142.8755 LP  0  0  0  0  0  0  0  0  0  0  0  0  # atno 17320 bound_to 7965
  144.8548  140.7054  143.6145 LP  0  0  0  0  0  0  0  0  0  0  0  0  # atno 17321 bound_to 7965
  139.4798  144.5845  151.7876 LP  0  0  0  0  0  0  0  0  0  0  0  0  # atno 17342 bound_to 10162
  140.4966  144.1231  150.5961 LP  0  0  0  0  0  0  0  0  0  0  0  0  # atno 17343 bound_to 10162
  156.1262  130.6145  151.0267 LP  0  0  0  0  0  0  0  0  0  0  0  0  # atno 17370 bound_to 10713
  157.6679  131.0867  150.7683 LP  0  0  0  0  0  0  0  0  0  0  0  0  # atno 17371 bound_to 10713
  140.7642  133.8792  155.8441 LP  0  0  0  0  0  0  0  0  0  0  0  0  # atno 17394 bound_to 11000
  140.9897  134.1295  157.4420 LP  0  0  0  0  0  0  0  0  0  0  0  0  # atno 17395 bound_to 11000

$$$$
