AV-unprocessed.smi:3028|AV-procd|sdf|11520|dock10
  -GOLD-   2272016463D 1   1.00000     0.00000
 Structure written by MMmdl.
 48 49  0  0  0  0  0  0  0  0  2 V2000
  151.2406  142.3331  158.3753 C   0  0  0  0  0  0  0  0  0  0  0  0
  150.7613  141.5083  157.2156 C   0  0  0  0  0  0  0  0  0  0  0  0
  151.5328  140.6740  156.3581 C   0  0  0  0  0  0  0  0  0  0  0  0
  150.8040  140.0799  155.4277 N   0  0  0  0  0  0  0  0  0  0  0  0
  149.5434  140.5107  155.6560 N   0  0  0  0  0  0  0  0  0  0  0  0
  148.4480  140.0599  154.8067 C   0  0  1  0  0  0  0  0  0  0  0  0
  148.1083  141.1452  153.7664 C   0  0  0  0  0  0  0  0  0  0  0  0
  148.7352  138.6814  154.1534 C   0  0  1  0  0  0  0  0  0  0  0  0
  148.5685  137.5027  155.1352 C   0  0  0  0  0  0  0  0  0  0  0  0
  147.8510  138.4921  152.9812 N   0  3  0  0  0  0  0  0  0  0  0  0
  146.4008  138.4938  153.2723 C   0  0  0  0  0  0  0  0  0  0  0  0
  145.7056  137.2288  152.7497 C   0  0  0  0  0  0  0  0  0  0  0  0
  144.5025  137.0623  152.9451 O   0  0  0  0  0  0  0  0  0  0  0  0
  146.4250  136.3129  152.0796 N   0  0  0  0  0  0  0  0  0  0  0  0
  145.9576  135.0526  151.5052 C   0  0  0  0  0  0  0  0  0  0  0  0
  144.7844  135.3264  150.5519 C   0  0  0  0  0  0  0  0  0  0  0  0
  144.1728  134.0090  150.0480 C   0  0  0  0  0  0  0  0  0  0  0  0
  143.7623  133.2110  151.1529 O   0  0  0  0  0  0  0  0  0  0  0  0
  144.8438  132.8345  151.9982 C   0  0  0  0  0  0  0  0  0  0  0  0
  145.4955  134.0860  152.6094 C   0  0  0  0  0  0  0  0  0  0  0  0
  149.4916  141.3763  156.7291 C   0  0  0  0  0  0  0  0  0  0  0  0
  152.3164  142.5041  158.3334 H   0  0  0  0  0  0  0  0  0  0  0  0
  151.0293  141.8469  159.3278 H   0  0  0  0  0  0  0  0  0  0  0  0
  150.7615  143.3119  158.4000 H   0  0  0  0  0  0  0  0  0  0  0  0
  152.5958  140.4843  156.3847 H   0  0  0  0  0  0  0  0  0  0  0  0
  147.5796  139.9462  155.4578 H   0  0  0  0  0  0  0  0  0  0  0  0
  147.2118  140.8931  153.2000 H   0  0  0  0  0  0  0  0  0  0  0  0
  148.9211  141.2862  153.0530 H   0  0  0  0  0  0  0  0  0  0  0  0
  147.9242  142.1048  154.2505 H   0  0  0  0  0  0  0  0  0  0  0  0
  149.7687  138.6879  153.8023 H   0  0  0  0  0  0  0  0  0  0  0  0
  149.2575  137.5745  155.9765 H   0  0  0  0  0  0  0  0  0  0  0  0
  148.7667  136.5451  154.6545 H   0  0  0  0  0  0  0  0  0  0  0  0
  147.5562  137.4662  155.5390 H   0  0  0  0  0  0  0  0  0  0  0  0
  148.0546  139.2041  152.2945 H   0  0  0  0  0  0  0  0  0  0  0  0
  146.2611  138.5584  154.3519 H   0  0  0  0  0  0  0  0  0  0  0  0
  145.9355  139.3698  152.8221 H   0  0  0  0  0  0  0  0  0  0  0  0
  147.4070  136.5135  151.9533 H   0  0  0  0  0  0  0  0  0  0  0  0
  146.7517  134.5803  150.9261 H   0  0  0  0  0  0  0  0  0  0  0  0
  144.0134  135.9026  151.0659 H   0  0  0  0  0  0  0  0  0  0  0  0
  145.1150  135.9313  149.7068 H   0  0  0  0  0  0  0  0  0  0  0  0
  143.3053  134.2151  149.4209 H   0  0  0  0  0  0  0  0  0  0  0  0
  144.8862  133.4589  149.4325 H   0  0  0  0  0  0  0  0  0  0  0  0
  144.4632  132.1872  152.7885 H   0  0  0  0  0  0  0  0  0  0  0  0
  145.5737  132.2517  151.4342 H   0  0  0  0  0  0  0  0  0  0  0  0
  146.3327  133.7942  153.2434 H   0  0  0  0  0  0  0  0  0  0  0  0
  144.7729  134.5828  153.2588 H   0  0  0  0  0  0  0  0  0  0  0  0
  148.5642  141.8232  157.0563 H   0  0  0  0  0  0  0  0  0  0  0  0
  148.0656  137.5923  152.5757 H   0  0  0  0  0  0  0  0  0  0  0  0
  1  2  1  0  0  0  0
  1 22  1  0  0  0  0
  1 23  1  0  0  0  0
  1 24  1  0  0  0  0
  2 21  2  0  0  0  0
  2  3  1  0  0  0  0
  3  4  2  0  0  0  0
  3 25  1  0  0  0  0
  4  5  1  0  0  0  0
  5  6  1  0  0  0  0
  5 21  1  0  0  0  0
  6  7  1  0  0  0  0
  6  8  1  0  0  0  0
  6 26  1  0  0  0  0
  7 27  1  0  0  0  0
  7 28  1  0  0  0  0
  7 29  1  0  0  0  0
  8  9  1  0  0  0  0
  8 10  1  0  0  0  0
  8 30  1  0  0  0  0
  9 31  1  0  0  0  0
  9 32  1  0  0  0  0
  9 33  1  0  0  0  0
 10 11  1  0  0  0  0
 10 34  1  0  0  0  0
 10 48  1  0  0  0  0
 11 12  1  0  0  0  0
 11 35  1  0  0  0  0
 11 36  1  0  0  0  0
 12 13  2  0  0  0  0
 12 14  1  0  0  0  0
 14 15  1  0  0  0  0
 14 37  1  0  0  0  0
 15 20  1  0  0  0  0
 15 16  1  0  0  0  0
 15 38  1  0  0  0  0
 16 17  1  0  0  0  0
 16 39  1  0  0  0  0
 16 40  1  0  0  0  0
 17 18  1  0  0  0  0
 17 41  1  0  0  0  0
 17 42  1  0  0  0  0
 18 19  1  0  0  0  0
 19 20  1  0  0  0  0
 19 43  1  0  0  0  0
 19 44  1  0  0  0  0
 20 45  1  0  0  0  0
 20 46  1  0  0  0  0
 21 47  1  0  0  0  0
M  CHG  1  10   1
M  END
> <s_m_source_file>
AV-unprocessed.smi

> <i_m_source_file_index>
3028

> <i_lp_mmshare_version>
43012

> <i_f3d_flags>
0

> <s_epik_input>
W0NIM11jMVtjSF1ubihbY0hdMSlbQ0BIXShbQ0gzXSlbQ0BIXShbQ0gzXSlbTkhdW0NIMl1DKD1PKVtOSF1bQ0hdMltDSDJdW0NIMl1PW0NIMl1bQ0gyXTI=

> <s_epik_cmdline>
J2VwaWtfcHl0aG9uJywgJy1waCcsICc3LjAnLCAnLXRuJywgJzgnLCAnLW1hJywgJzIwMCcsICctbWV0YWxfYmluZGluZycsICctaW1hZScsICc8aW5maWxlLm1hZT4nLCAnLW9tYWUnLCAnPG91dGZpbGUubWFlPic=

> <r_lp_tautomer_probability>
1

> <r_epik_Ionization_Penalty>
0.151514

> <r_epik_Ionization_Penalty_Charging>
0.151494

> <r_epik_Ionization_Penalty_Neutral>
1.95502e-05

> <r_epik_State_Penalty>
0.141395

> <r_epik_Charging_Adjusted_Penalty>
0.292889

> <i_epik_Tot_Q>
1

> <i_epik_Tot_abs_Q>
1

> <r_epik_Metal_State_Penalty>
0.141632

> <b_epik_Metal_Only>
0

> <s_lp_Force_Field>
OPLS_2005

> <r_lp_Energy>
16.118

> <b_lp_Chiralities_Consistent>
1

> <s_lp_Variant>
AV-unprocessed.smi:3028-4

> <Gold.Version>
5.8.1

> <Gold.Id.Protein>
6NUR|6NUR_protein|mol2

> <Gold.PLP.Fitness>
44.3651

> <Gold.PLP.PLP>
-32.6538

> <Gold.PLP.part.hbond>
-3.9250

> <Gold.PLP.part.metal>
0.0000

> <Gold.PLP.part.buried>
-3.4307

> <Gold.PLP.part.nonpolar>
-26.1396

> <Gold.PLP.part.repulsive>
0.5104

> <Gold.PLP.ligand.clash>
0.0000

> <Gold.PLP.ligand.torsion>
1.4189

> <Gold.PLP.Chemscore.Hbond>
4.8000

> <Gold.PLP.Chemscore.CHOScore>
0.0000

> <Gold.PLP.Chemscore.Metal>
0.0000

> <Gold.Chemscore.Hbonds>
donor molecule, donor type, donor heavy atom, donor atom, acceptor molecule, acceptor atom, score
      L1  H    10    34       P1  7957  0.76
      L1  H    10    48       P1  7948  2.00
      L1  H    14    37       P1  7948  1.00
      P1  H  7989  7998       L1     4  0.47

> <Gold.PLP.Chemscore.Internal.Correction>
0.1492

> <Gold.Rescore>
     Score         DG    S(hbond)    S(metal)    S(lipo)     H(rot)  DE(clash)    DE(int)     intcor
     19.37     -21.73       3.64        0.00      78.59       1.99       0.18       2.18       ----

> <Gold.Chemscore.Fitness>
19.3728

> <Gold.Chemscore.DG>
-21.7328

> <Gold.Chemscore.ZeroCoef>
-5.4800

> <Gold.Chemscore.Hbond>
3.6383

> <Gold.Chemscore.Metal>
0.0000

> <Gold.Chemscore.Lipo>
78.5866

> <Gold.Chemscore.Internal_Hbond>
0.0000

> <Gold.Chemscore.DEClash>
0.1759

> <Gold.Chemscore.DEInternal>
2.1841

> <Gold.Chemscore.Rot>
1.9897

> <Gold.Chemscore.Internal.Correction>
   9.000000E+99

> <Gold.Chemscore.Hbonds>
donor molecule, donor type, donor heavy atom, donor atom, acceptor molecule, acceptor atom, score
      L1  H    10    34       P1  7957  0.73
      L1  H    10    48       P1  7948  1.00
      L1  H    14    37       P1  7948  0.94
      P1  H  7989  7998       L1     4  0.17

> <Gold.Chemscore.Hbond.Weighted>
-12.1518

> <Gold.Chemscore.Metal.Weighted>
-0.0000

> <Gold.Chemscore.Lipo.Weighted>
-9.1946

> <Gold.Chemscore.Internal_Hbond.Weighted>
0.0000

> <Gold.Chemscore.DEClash.Weighted>
0.1759

> <Gold.Chemscore.DEInternal.Weighted>
2.1841

> <Gold.Chemscore.Rot.Weighted>
5.0936

> <Gold.Chemscore.Internal.Correction.Weighted>
   9.000000E+99

> <Gold.Protein.RotatedTorsions>
[ 6907 6896 6895 6894 ] final  120.67 input  -60.11 | X-H torsion
[ 7974 7965 7964 7962 ] final  150.36 input  175.53 | X-H torsion
[ 8008 7997 7996 7995 ] final  -31.68 input   59.86 | X-H torsion
[ 10167 10162 10161 10158 ] final  -66.73 input  -65.29 | X-H torsion
[ 10718 10713 10712 10709 ] final  -96.77 input   66.30 | X-H torsion
[ 10763 10752 10751 10750 ] final -107.04 input  -60.55 | X-H torsion
[ 11005 11000 10999 10996 ] final  139.32 input  -57.11 | X-H torsion

> <Gold.Protein.ActiveResidues>
 VAL166  LYS551  ARG553  GLY616  TRP617  ASP618  TYR619  PRO620  LYS621  CYS622 
 ASP623  PHE694  ASN695  SER759  ASP760  ASP761  ALA762  ILE779  LEU786  VAL792 
 PHE793  MET794  SER795  GLU796  ALA797  LYS798  CYS799  TRP800  GLU811  SER814 

> <Gold.Protein.RotatedAtoms>
  152.4380  133.7397  159.6633 H   0  0  0  0  0  0  0  0  0  0  0  0  # atno 6907 bound_to 6896
  150.8267  133.8149  159.3122 H   0  0  0  0  0  0  0  0  0  0  0  0  # atno 6908 bound_to 6896
  151.5816  135.1060  160.0070 H   0  0  0  0  0  0  0  0  0  0  0  0  # atno 6909 bound_to 6896
  144.8370  139.6398  143.6033 H   0  0  0  0  0  0  0  0  0  0  0  0  # atno 7974 bound_to 7965
  154.4205  140.1758  156.1606 H   0  0  0  0  0  0  0  0  0  0  0  0  # atno 8008 bound_to 7997
  155.9841  140.3375  155.6666 H   0  0  0  0  0  0  0  0  0  0  0  0  # atno 8009 bound_to 7997
  155.6461  140.0685  157.2593 H   0  0  0  0  0  0  0  0  0  0  0  0  # atno 8010 bound_to 7997
  140.5635  143.2313  151.6681 H   0  0  0  0  0  0  0  0  0  0  0  0  # atno 10167 bound_to 10162
  156.0069  130.5165  150.6275 H   0  0  0  0  0  0  0  0  0  0  0  0  # atno 10718 bound_to 10713
  154.8050  135.4689  154.0370 H   0  0  0  0  0  0  0  0  0  0  0  0  # atno 10763 bound_to 10752
  153.1846  135.6846  153.8439 H   0  0  0  0  0  0  0  0  0  0  0  0  # atno 10764 bound_to 10752
  153.7978  135.3234  155.3364 H   0  0  0  0  0  0  0  0  0  0  0  0  # atno 10765 bound_to 10752
  140.0246  134.9380  157.0543 H   0  0  0  0  0  0  0  0  0  0  0  0  # atno 11005 bound_to 11000
  146.2667  139.6537  142.9324 LP  0  0  0  0  0  0  0  0  0  0  0  0  # atno 17320 bound_to 7965
  145.4774  141.0437  143.2665 LP  0  0  0  0  0  0  0  0  0  0  0  0  # atno 17321 bound_to 7965
  139.5081  144.3621  152.0552 LP  0  0  0  0  0  0  0  0  0  0  0  0  # atno 17342 bound_to 10162
  140.2750  144.3922  150.6138 LP  0  0  0  0  0  0  0  0  0  0  0  0  # atno 17343 bound_to 10162
  157.4079  131.0819  151.1248 LP  0  0  0  0  0  0  0  0  0  0  0  0  # atno 17370 bound_to 10713
  157.1889  130.6343  149.5697 LP  0  0  0  0  0  0  0  0  0  0  0  0  # atno 17371 bound_to 10713
  140.4328  134.1763  155.7169 LP  0  0  0  0  0  0  0  0  0  0  0  0  # atno 17394 bound_to 11000
  141.1795  133.8444  157.1307 LP  0  0  0  0  0  0  0  0  0  0  0  0  # atno 17395 bound_to 11000

$$$$
