AV-unprocessed.smi:1564|AV-procd|sdf|6294|dock8
  -GOLD-   22720 6493D 1   1.00000     0.00000
 Structure written by MMmdl.
 43 44  0  0  0  0  0  0  0  0  2 V2000
  150.4212  141.8753  157.7643 C   0  0  0  0  0  0  0  0  0  0  0  0
  150.5216  141.7183  156.3534 O   0  0  0  0  0  0  0  0  0  0  0  0
  149.8578  140.6627  155.7626 C   0  0  0  0  0  0  0  0  0  0  0  0
  148.8582  139.9981  156.5000 C   0  0  0  0  0  0  0  0  0  0  0  0
  148.1756  138.9197  155.9055 C   0  0  0  0  0  0  0  0  0  0  0  0
  148.5102  138.5436  154.5825 C   0  0  0  0  0  0  0  0  0  0  0  0
  147.9095  137.4649  153.8780 N   0  0  0  0  0  0  0  0  0  0  0  0
  146.7718  136.8080  154.1628 C   0  0  0  0  0  0  0  0  0  0  0  0
  146.0177  137.0592  155.1022 O   0  0  0  0  0  0  0  0  0  0  0  0
  146.5351  135.8356  153.2712 N   0  0  0  0  0  0  0  0  0  0  0  0
  145.3719  134.9553  153.2988 C   0  0  1  0  0  0  0  0  0  0  0  0
  144.2137  135.4118  152.4103 C   0  0  0  0  0  0  0  0  0  0  0  0
  143.5260  134.1083  151.9721 C   0  0  0  0  0  0  0  0  0  0  0  0
  144.3687  132.9836  152.4533 N   0  3  1  0  0  0  0  0  0  0  0  0
  144.3766  131.7788  151.5766 C   0  0  0  0  0  0  0  0  0  0  0  0
  145.3719  130.7232  152.0938 C   0  0  0  0  0  0  0  0  0  0  0  0
  144.7180  132.1388  150.1183 C   0  0  0  0  0  0  0  0  0  0  0  0
  145.6923  133.5696  152.7486 C   0  0  0  0  0  0  0  0  0  0  0  0
  149.5352  139.2653  153.9358 C   0  0  0  0  0  0  0  0  0  0  0  0
  150.1931  140.3000  154.4998 N   0  0  0  0  0  0  0  0  0  0  0  0
  150.9933  142.7508  158.0711 H   0  0  0  0  0  0  0  0  0  0  0  0
  150.8297  141.0121  158.2918 H   0  0  0  0  0  0  0  0  0  0  0  0
  149.3873  142.0301  158.0763 H   0  0  0  0  0  0  0  0  0  0  0  0
  148.6221  140.3068  157.5077 H   0  0  0  0  0  0  0  0  0  0  0  0
  147.4252  138.4002  156.4804 H   0  0  0  0  0  0  0  0  0  0  0  0
  148.3781  137.1935  153.0261 H   0  0  0  0  0  0  0  0  0  0  0  0
  147.2014  135.6978  152.5253 H   0  0  0  0  0  0  0  0  0  0  0  0
  145.0173  134.8471  154.3261 H   0  0  0  0  0  0  0  0  0  0  0  0
  143.5352  136.0852  152.9353 H   0  0  0  0  0  0  0  0  0  0  0  0
  144.5894  135.9398  151.5323 H   0  0  0  0  0  0  0  0  0  0  0  0
  142.5253  134.0224  152.3967 H   0  0  0  0  0  0  0  0  0  0  0  0
  143.4293  134.0938  150.8854 H   0  0  0  0  0  0  0  0  0  0  0  0
  143.3773  131.3409  151.5902 H   0  0  0  0  0  0  0  0  0  0  0  0
  145.3996  129.8551  151.4344 H   0  0  0  0  0  0  0  0  0  0  0  0
  145.1038  130.3578  153.0852 H   0  0  0  0  0  0  0  0  0  0  0  0
  146.3837  131.1264  152.1490 H   0  0  0  0  0  0  0  0  0  0  0  0
  144.7813  131.2429  149.4998 H   0  0  0  0  0  0  0  0  0  0  0  0
  145.6769  132.6535  150.0505 H   0  0  0  0  0  0  0  0  0  0  0  0
  143.9594  132.7784  149.6673 H   0  0  0  0  0  0  0  0  0  0  0  0
  146.2773  133.6445  151.8298 H   0  0  0  0  0  0  0  0  0  0  0  0
  146.2529  132.9701  153.4665 H   0  0  0  0  0  0  0  0  0  0  0  0
  149.8361  139.0083  152.9307 H   0  0  0  0  0  0  0  0  0  0  0  0
  143.9843  132.7037  153.3446 H   0  0  0  0  0  0  0  0  0  0  0  0
  1  2  1  0  0  0  0
  1 21  1  0  0  0  0
  1 22  1  0  0  0  0
  1 23  1  0  0  0  0
  2  3  1  0  0  0  0
  3 20  1  0  0  0  0
  3  4  2  0  0  0  0
  4  5  1  0  0  0  0
  4 24  1  0  0  0  0
  5  6  2  0  0  0  0
  5 25  1  0  0  0  0
  6  7  1  0  0  0  0
  6 19  1  0  0  0  0
  7  8  1  0  0  0  0
  7 26  1  0  0  0  0
  8  9  2  0  0  0  0
  8 10  1  0  0  0  0
 10 11  1  0  0  0  0
 10 27  1  0  0  0  0
 11 18  1  0  0  0  0
 11 12  1  0  0  0  0
 11 28  1  0  0  0  0
 12 13  1  0  0  0  0
 12 29  1  0  0  0  0
 12 30  1  0  0  0  0
 13 14  1  0  0  0  0
 13 31  1  0  0  0  0
 13 32  1  0  0  0  0
 14 15  1  0  0  0  0
 14 18  1  0  0  0  0
 14 43  1  0  0  0  0
 15 16  1  0  0  0  0
 15 17  1  0  0  0  0
 15 33  1  0  0  0  0
 16 34  1  0  0  0  0
 16 35  1  0  0  0  0
 16 36  1  0  0  0  0
 17 37  1  0  0  0  0
 17 38  1  0  0  0  0
 17 39  1  0  0  0  0
 18 40  1  0  0  0  0
 18 41  1  0  0  0  0
 19 20  2  0  0  0  0
 19 42  1  0  0  0  0
M  CHG  1  14   1
M  END
> <s_m_source_file>
AV-unprocessed.smi

> <i_m_source_file_index>
1564

> <i_lp_mmshare_version>
43012

> <i_f3d_flags>
0

> <s_epik_input>
W0NIM11PYzFbY0hdW2NIXWMoW2NIXW4xKVtOSF1DKD1PKVtOSF1bQ0BASF0yW0NIMl1bQ0gyXU4oW0NIMl0yKVtDSF0oW0NIM10pW0NIM10=

> <s_epik_cmdline>
J2VwaWtfcHl0aG9uJywgJy1waCcsICc3LjAnLCAnLXRuJywgJzgnLCAnLW1hJywgJzIwMCcsICctbWV0YWxfYmluZGluZycsICctaW1hZScsICc8aW5maWxlLm1hZT4nLCAnLW9tYWUnLCAnPG91dGZpbGUubWFlPic=

> <r_lp_tautomer_probability>
1

> <r_epik_Ionization_Penalty>
0.000679474

> <r_epik_Ionization_Penalty_Charging>
0.000606352

> <r_epik_Ionization_Penalty_Neutral>
7.31222e-05

> <r_epik_State_Penalty>
0.000382168

> <r_epik_Charging_Adjusted_Penalty>
0.00098852

> <i_epik_Tot_Q>
1

> <i_epik_Tot_abs_Q>
1

> <r_epik_Metal_State_Penalty>
-0

> <b_epik_Metal_Only>
0

> <s_lp_Force_Field>
OPLS_2005

> <r_lp_Energy>
32.3031

> <b_lp_Chiralities_Consistent>
1

> <s_lp_Variant>
AV-unprocessed.smi:1564-2

> <Gold.Version>
5.8.1

> <Gold.Id.Protein>
6NUR|6NUR_protein|mol2

> <Gold.PLP.Fitness>
39.3261

> <Gold.PLP.PLP>
-24.8090

> <Gold.PLP.part.hbond>
-3.6647

> <Gold.PLP.part.metal>
0.0000

> <Gold.PLP.part.buried>
-4.7630

> <Gold.PLP.part.nonpolar>
-18.0853

> <Gold.PLP.part.repulsive>
0.1745

> <Gold.PLP.ligand.clash>
0.0000

> <Gold.PLP.ligand.torsion>
0.6926

> <Gold.PLP.Chemscore.Hbond>
4.2930

> <Gold.PLP.Chemscore.CHOScore>
1.0000

> <Gold.PLP.Chemscore.Metal>
0.0000

> <Gold.Chemscore.Hbonds>
donor molecule, donor type, donor heavy atom, donor atom, acceptor molecule, acceptor atom, score
      L1  H     7    26       P1  7948  1.00
      L1  H    10    27       P1  7948  0.91
      L1  H    14    43       P1 10957  1.40
      P1  H  7989  7998       L1    20  1.00
      L1  C    19    42       P1  7957  1.00

> <Gold.PLP.Chemscore.Internal.Correction>
0.0233

> <Gold.Rescore>
     Score         DG    S(hbond)    S(metal)    S(lipo)     H(rot)  DE(clash)    DE(int)     intcor
     17.26     -20.41       3.48        0.00      59.78       1.44       1.34       1.81       ----

> <Gold.Chemscore.Fitness>
17.2585

> <Gold.Chemscore.DG>
-20.4127

> <Gold.Chemscore.ZeroCoef>
-5.4800

> <Gold.Chemscore.Hbond>
3.4840

> <Gold.Chemscore.Metal>
0.0000

> <Gold.Chemscore.Lipo>
59.7787

> <Gold.Chemscore.Internal_Hbond>
0.0000

> <Gold.Chemscore.DEClash>
1.3411

> <Gold.Chemscore.DEInternal>
1.8132

> <Gold.Chemscore.Rot>
1.4445

> <Gold.Chemscore.Internal.Correction>
   9.000000E+99

> <Gold.Chemscore.Hbonds>
donor molecule, donor type, donor heavy atom, donor atom, acceptor molecule, acceptor atom, score
      L1  H     7    26       P1  7948  0.98
      L1  H    10    27       P1  7948  0.88
      L1  H    14    43       P1 10957  0.27
      P1  H  7989  7998       L1    20  0.81

> <Gold.Chemscore.Hbond.Weighted>
-11.6365

> <Gold.Chemscore.Metal.Weighted>
-0.0000

> <Gold.Chemscore.Lipo.Weighted>
-6.9941

> <Gold.Chemscore.Internal_Hbond.Weighted>
0.0000

> <Gold.Chemscore.DEClash.Weighted>
1.3411

> <Gold.Chemscore.DEInternal.Weighted>
1.8132

> <Gold.Chemscore.Rot.Weighted>
3.6979

> <Gold.Chemscore.Internal.Correction.Weighted>
   9.000000E+99

> <Gold.Protein.RotatedTorsions>
[ 6907 6896 6895 6894 ] final   68.50 input  -60.11 | X-H torsion
[ 7974 7965 7964 7962 ] final  107.14 input  175.53 | X-H torsion
[ 8008 7997 7996 7995 ] final  104.28 input   59.86 | X-H torsion
[ 10167 10162 10161 10158 ] final  -15.38 input  -65.29 | X-H torsion
[ 10718 10713 10712 10709 ] final  118.53 input   66.30 | X-H torsion
[ 10763 10752 10751 10750 ] final  144.47 input  -60.55 | X-H torsion
[ 11005 11000 10999 10996 ] final   63.08 input  -57.11 | X-H torsion

> <Gold.Protein.ActiveResidues>
 VAL166  LYS551  ARG553  GLY616  TRP617  ASP618  TYR619  PRO620  LYS621  CYS622 
 ASP623  PHE694  ASN695  SER759  ASP760  ASP761  ALA762  ILE779  LEU786  VAL792 
 PHE793  MET794  SER795  GLU796  ALA797  LYS798  CYS799  TRP800  GLU811  SER814 

> <Gold.Protein.RotatedAtoms>
  152.4624  134.5153  159.9766 H   0  0  0  0  0  0  0  0  0  0  0  0  # atno 6907 bound_to 6896
  151.5199  133.3462  159.2907 H   0  0  0  0  0  0  0  0  0  0  0  0  # atno 6908 bound_to 6896
  150.8593  134.7970  159.7132 H   0  0  0  0  0  0  0  0  0  0  0  0  # atno 6909 bound_to 6896
  145.2975  139.2580  143.3831 H   0  0  0  0  0  0  0  0  0  0  0  0  # atno 7974 bound_to 7965
  156.1559  140.3150  155.8725 H   0  0  0  0  0  0  0  0  0  0  0  0  # atno 8008 bound_to 7997
  155.3879  140.0492  157.3058 H   0  0  0  0  0  0  0  0  0  0  0  0  # atno 8009 bound_to 7997
  154.5101  140.2161  155.9185 H   0  0  0  0  0  0  0  0  0  0  0  0  # atno 8010 bound_to 7997
  140.7217  143.5224  150.9618 H   0  0  0  0  0  0  0  0  0  0  0  0  # atno 10167 bound_to 10162
  157.6024  131.1049  150.7769 H   0  0  0  0  0  0  0  0  0  0  0  0  # atno 10718 bound_to 10713
  153.9893  135.2933  155.3413 H   0  0  0  0  0  0  0  0  0  0  0  0  # atno 10763 bound_to 10752
  154.7224  135.5103  153.8835 H   0  0  0  0  0  0  0  0  0  0  0  0  # atno 10764 bound_to 10752
  153.0817  135.6681  154.0147 H   0  0  0  0  0  0  0  0  0  0  0  0  # atno 10765 bound_to 10752
  140.0048  134.6386  155.9872 H   0  0  0  0  0  0  0  0  0  0  0  0  # atno 11005 bound_to 11000
  146.3163  140.3482  142.8654 LP  0  0  0  0  0  0  0  0  0  0  0  0  # atno 17320 bound_to 7965
  144.9121  140.7769  143.5801 LP  0  0  0  0  0  0  0  0  0  0  0  0  # atno 17321 bound_to 7965
  139.8941  143.6916  152.3141 LP  0  0  0  0  0  0  0  0  0  0  0  0  # atno 17342 bound_to 10162
  139.7243  144.7596  151.0905 LP  0  0  0  0  0  0  0  0  0  0  0  0  # atno 17343 bound_to 10162
  156.8165  130.4970  149.5349 LP  0  0  0  0  0  0  0  0  0  0  0  0  # atno 17370 bound_to 10713
  156.1100  130.6033  151.0033 LP  0  0  0  0  0  0  0  0  0  0  0  0  # atno 17371 bound_to 10713
  141.1669  133.6537  156.4511 LP  0  0  0  0  0  0  0  0  0  0  0  0  # atno 17394 bound_to 11000
  140.4661  134.6797  157.5108 LP  0  0  0  0  0  0  0  0  0  0  0  0  # atno 17395 bound_to 11000

$$$$
