AV-unprocessed.smi:1200|AV-procd|sdf|5022|dock6
  -GOLD-   22720 4 43D 1   1.00000     0.00000
 Structure written by MMmdl.
 42 43  0  0  0  0  0  0  0  0  1 V2000
  142.6669  136.8004  152.9269 C   0  0  0  0  0  0  0  0  0  0  0  0
  143.8538  137.5005  152.4615 N   0  0  0  0  0  0  0  0  0  0  0  0
  145.0804  137.3331  152.9770 C   0  0  0  0  0  0  0  0  0  0  0  0
  145.3242  136.5676  153.9091 O   0  0  0  0  0  0  0  0  0  0  0  0
  146.2075  138.1608  152.3482 C   0  0  0  0  0  0  0  0  0  0  0  0
  146.7901  139.1942  153.2364 N   0  0  0  0  0  0  0  0  0  0  0  0
  147.1107  140.4381  152.5199 C   0  0  0  0  0  0  0  0  0  0  0  0
  147.6479  141.5010  153.4949 C   0  0  0  0  0  0  0  0  0  0  0  0
  148.8882  140.9944  154.2444 C   0  0  0  0  0  0  0  0  0  0  0  0
  149.2934  141.9645  155.2588 N   0  0  0  0  0  0  0  0  0  0  0  0
  150.2100  141.7628  156.2166 C   0  0  0  0  0  0  0  0  0  0  0  0
  150.8199  140.7044  156.3659 O   0  0  0  0  0  0  0  0  0  0  0  0
  150.3514  142.8553  156.9871 N   0  0  0  0  0  0  0  0  0  0  0  0
  151.2224  143.0534  158.0931 C   0  0  0  0  0  0  0  0  0  0  0  0
  151.3620  144.3631  158.5973 C   0  0  0  0  0  0  0  0  0  0  0  0
  152.2295  144.5927  159.6821 C   0  0  0  0  0  0  0  0  0  0  0  0
  152.9363  143.4987  160.2172 C   0  0  0  0  0  0  0  0  0  0  0  0
  152.8273  142.2420  159.7376 N   0  0  0  0  0  0  0  0  0  0  0  0
  151.9911  142.0282  158.6987 C   0  0  0  0  0  0  0  0  0  0  0  0
  148.5599  139.6476  154.9035 C   0  0  0  0  0  0  0  0  0  0  0  0
  147.9939  138.6524  153.8756 C   0  0  0  0  0  0  0  0  0  0  0  0
  141.8043  137.0936  152.3287 H   0  0  0  0  0  0  0  0  0  0  0  0
  142.4573  137.0429  153.9695 H   0  0  0  0  0  0  0  0  0  0  0  0
  142.7923  135.7205  152.8378 H   0  0  0  0  0  0  0  0  0  0  0  0
  143.7407  138.1485  151.6952 H   0  0  0  0  0  0  0  0  0  0  0  0
  146.9882  137.4631  152.0418 H   0  0  0  0  0  0  0  0  0  0  0  0
  145.8362  138.6287  151.4344 H   0  0  0  0  0  0  0  0  0  0  0  0
  147.8408  140.2418  151.7327 H   0  0  0  0  0  0  0  0  0  0  0  0
  146.2257  140.8468  152.0323 H   0  0  0  0  0  0  0  0  0  0  0  0
  147.8897  142.4133  152.9485 H   0  0  0  0  0  0  0  0  0  0  0  0
  146.8639  141.7656  154.2062 H   0  0  0  0  0  0  0  0  0  0  0  0
  149.6880  140.8353  153.5188 H   0  0  0  0  0  0  0  0  0  0  0  0
  148.8408  142.8661  155.2237 H   0  0  0  0  0  0  0  0  0  0  0  0
  149.7240  143.6211  156.7894 H   0  0  0  0  0  0  0  0  0  0  0  0
  150.8088  145.1831  158.1629 H   0  0  0  0  0  0  0  0  0  0  0  0
  152.3515  145.5838  160.0935 H   0  0  0  0  0  0  0  0  0  0  0  0
  153.6113  143.6376  161.0489 H   0  0  0  0  0  0  0  0  0  0  0  0
  151.9675  141.0094  158.3453 H   0  0  0  0  0  0  0  0  0  0  0  0
  149.4555  139.2306  155.3653 H   0  0  0  0  0  0  0  0  0  0  0  0
  147.8348  139.7894  155.7067 H   0  0  0  0  0  0  0  0  0  0  0  0
  147.7518  137.7201  154.3876 H   0  0  0  0  0  0  0  0  0  0  0  0
  148.7496  138.4147  153.1244 H   0  0  0  0  0  0  0  0  0  0  0  0
  1  2  1  0  0  0  0
  1 22  1  0  0  0  0
  1 23  1  0  0  0  0
  1 24  1  0  0  0  0
  2  3  1  0  0  0  0
  2 25  1  0  0  0  0
  3  4  2  0  0  0  0
  3  5  1  0  0  0  0
  5  6  1  0  0  0  0
  5 26  1  0  0  0  0
  5 27  1  0  0  0  0
  6 21  1  0  0  0  0
  6  7  1  0  0  0  0
  7  8  1  0  0  0  0
  7 28  1  0  0  0  0
  7 29  1  0  0  0  0
  8  9  1  0  0  0  0
  8 30  1  0  0  0  0
  8 31  1  0  0  0  0
  9 10  1  0  0  0  0
  9 20  1  0  0  0  0
  9 32  1  0  0  0  0
 10 11  1  0  0  0  0
 10 33  1  0  0  0  0
 11 12  2  0  0  0  0
 11 13  1  0  0  0  0
 13 14  1  0  0  0  0
 13 34  1  0  0  0  0
 14 19  1  0  0  0  0
 14 15  2  0  0  0  0
 15 16  1  0  0  0  0
 15 35  1  0  0  0  0
 16 17  2  0  0  0  0
 16 36  1  0  0  0  0
 17 18  1  0  0  0  0
 17 37  1  0  0  0  0
 18 19  2  0  0  0  0
 19 38  1  0  0  0  0
 20 21  1  0  0  0  0
 20 39  1  0  0  0  0
 20 40  1  0  0  0  0
 21 41  1  0  0  0  0
 21 42  1  0  0  0  0
M  END
> <s_m_source_file>
AV-unprocessed.smi

> <i_m_source_file_index>
1200

> <i_lp_mmshare_version>
43012

> <i_f3d_flags>
0

> <s_epik_input>
W0NIM11bTkhdQyg9TylbQ0gyXU4xW0NIMl1bQ0gyXVtDSF0oW0NIMl1bQ0gyXTEpW05IXUMoPU8pW05IXWMyW2NIXVtjSF1bY0hdbltjSF0y

> <s_epik_cmdline>
J2VwaWtfcHl0aG9uJywgJy1waCcsICc3LjAnLCAnLXRuJywgJzgnLCAnLW1hJywgJzIwMCcsICctbWV0YWxfYmluZGluZycsICctaW1hZScsICc8aW5maWxlLm1hZT4nLCAnLW9tYWUnLCAnPG91dGZpbGUubWFlPic=

> <r_epik_Ionization_Penalty>
0.169655

> <r_epik_Ionization_Penalty_Charging>
0

> <r_epik_Ionization_Penalty_Neutral>
0.169655

> <r_epik_State_Penalty>
0.162809

> <r_epik_Charging_Adjusted_Penalty>
0.162809

> <i_epik_Tot_Q>
0

> <i_epik_Tot_abs_Q>
0

> <r_epik_Metal_State_Penalty>
0.163912

> <b_epik_Metal_Only>
0

> <s_lp_Force_Field>
OPLS_2005

> <r_lp_Energy>
16.8115

> <b_lp_Chiralities_Consistent>
1

> <s_lp_Variant>
AV-unprocessed.smi:1200-1

> <Gold.Version>
5.8.1

> <Gold.Id.Protein>
6NUR|6NUR_protein|mol2

> <Gold.PLP.Fitness>
46.1876

> <Gold.PLP.PLP>
-38.5543

> <Gold.PLP.part.hbond>
-4.0000

> <Gold.PLP.part.metal>
0.0000

> <Gold.PLP.part.buried>
-5.7952

> <Gold.PLP.part.nonpolar>
-30.3728

> <Gold.PLP.part.repulsive>
0.5509

> <Gold.PLP.ligand.clash>
0.0000

> <Gold.PLP.ligand.torsion>
0.6856

> <Gold.PLP.Chemscore.Hbond>
3.0000

> <Gold.PLP.Chemscore.CHOScore>
0.0000

> <Gold.PLP.Chemscore.Metal>
0.0000

> <Gold.Chemscore.Hbonds>
donor molecule, donor type, donor heavy atom, donor atom, acceptor molecule, acceptor atom, score
      L1  H     2    25       P1 10171  1.00
      L1  H    10    33       P1  8028  0.99
      L1  H    13    34       P1  8028  1.00

> <Gold.PLP.Chemscore.Internal.Correction>
0.0045

> <Gold.Rescore>
     Score         DG    S(hbond)    S(metal)    S(lipo)     H(rot)  DE(clash)    DE(int)     intcor
     19.21     -22.37       2.77        0.00     101.60       1.66       0.20       2.96       ----

> <Gold.Chemscore.Fitness>
19.2100

> <Gold.Chemscore.DG>
-22.3706

> <Gold.Chemscore.ZeroCoef>
-5.4800

> <Gold.Chemscore.Hbond>
2.7720

> <Gold.Chemscore.Metal>
0.0000

> <Gold.Chemscore.Lipo>
101.6033

> <Gold.Chemscore.Internal_Hbond>
0.0000

> <Gold.Chemscore.DEClash>
0.1970

> <Gold.Chemscore.DEInternal>
2.9636

> <Gold.Chemscore.Rot>
1.6623

> <Gold.Chemscore.Internal.Correction>
   9.000000E+99

> <Gold.Chemscore.Hbonds>
donor molecule, donor type, donor heavy atom, donor atom, acceptor molecule, acceptor atom, score
      L1  H     2    25       P1 10171  0.93
      L1  H    10    33       P1  8028  0.93
      L1  H    13    34       P1  8028  0.96

> <Gold.Chemscore.Hbond.Weighted>
-9.2584

> <Gold.Chemscore.Metal.Weighted>
-0.0000

> <Gold.Chemscore.Lipo.Weighted>
-11.8876

> <Gold.Chemscore.Internal_Hbond.Weighted>
0.0000

> <Gold.Chemscore.DEClash.Weighted>
0.1970

> <Gold.Chemscore.DEInternal.Weighted>
2.9636

> <Gold.Chemscore.Rot.Weighted>
4.2554

> <Gold.Chemscore.Internal.Correction.Weighted>
   9.000000E+99

> <Gold.Protein.RotatedTorsions>
[ 6907 6896 6895 6894 ] final  140.47 input  -60.11 | X-H torsion
[ 7974 7965 7964 7962 ] final   14.94 input  175.53 | X-H torsion
[ 8008 7997 7996 7995 ] final  -75.20 input   59.86 | X-H torsion
[ 10167 10162 10161 10158 ] final -121.53 input  -65.29 | X-H torsion
[ 10718 10713 10712 10709 ] final   -2.25 input   66.30 | X-H torsion
[ 10763 10752 10751 10750 ] final   36.52 input  -60.55 | X-H torsion
[ 11005 11000 10999 10996 ] final  -17.76 input  -57.11 | X-H torsion

> <Gold.Protein.ActiveResidues>
 VAL166  LYS551  ARG553  GLY616  TRP617  ASP618  TYR619  PRO620  LYS621  CYS622 
 ASP623  PHE694  ASN695  SER759  ASP760  ASP761  ALA762  ILE779  LEU786  VAL792 
 PHE793  MET794  SER795  GLU796  ALA797  LYS798  CYS799  TRP800  GLU811  SER814 

> <Gold.Protein.RotatedAtoms>
  152.2426  133.5148  159.5278 H   0  0  0  0  0  0  0  0  0  0  0  0  # atno 6907 bound_to 6896
  150.7069  134.1069  159.3995 H   0  0  0  0  0  0  0  0  0  0  0  0  # atno 6908 bound_to 6896
  151.8989  135.0386  160.0555 H   0  0  0  0  0  0  0  0  0  0  0  0  # atno 6909 bound_to 6896
  146.2292  139.8967  142.8546 H   0  0  0  0  0  0  0  0  0  0  0  0  # atno 7974 bound_to 7965
  154.5396  140.0748  156.8487 H   0  0  0  0  0  0  0  0  0  0  0  0  # atno 8008 bound_to 7997
  155.3208  140.3396  155.4223 H   0  0  0  0  0  0  0  0  0  0  0  0  # atno 8009 bound_to 7997
  156.1861  140.1669  156.8168 H   0  0  0  0  0  0  0  0  0  0  0  0  # atno 8010 bound_to 7997
  140.0240  143.5315  152.2207 H   0  0  0  0  0  0  0  0  0  0  0  0  # atno 10167 bound_to 10162
  156.7937  130.5370  149.5732 H   0  0  0  0  0  0  0  0  0  0  0  0  # atno 10718 bound_to 10713
  153.0074  135.6303  154.1998 H   0  0  0  0  0  0  0  0  0  0  0  0  # atno 10763 bound_to 10752
  154.1741  135.2817  155.3074 H   0  0  0  0  0  0  0  0  0  0  0  0  # atno 10764 bound_to 10752
  154.5886  135.5625  153.7315 H   0  0  0  0  0  0  0  0  0  0  0  0  # atno 10765 bound_to 10752
  140.8201  133.8075  155.9650 H   0  0  0  0  0  0  0  0  0  0  0  0  # atno 11005 bound_to 11000
  145.2363  140.9992  143.3961 LP  0  0  0  0  0  0  0  0  0  0  0  0  # atno 17320 bound_to 7965
  144.9488  139.4106  143.6412 LP  0  0  0  0  0  0  0  0  0  0  0  0  # atno 17321 bound_to 7965
  139.6120  144.7611  151.2930 LP  0  0  0  0  0  0  0  0  0  0  0  0  # atno 17342 bound_to 10162
  140.7330  143.6806  150.8004 LP  0  0  0  0  0  0  0  0  0  0  0  0  # atno 17343 bound_to 10162
  156.1143  130.6064  151.0097 LP  0  0  0  0  0  0  0  0  0  0  0  0  # atno 17370 bound_to 10713
  157.6588  131.0884  150.7886 LP  0  0  0  0  0  0  0  0  0  0  0  0  # atno 17371 bound_to 10713
  140.9108  134.2263  157.4987 LP  0  0  0  0  0  0  0  0  0  0  0  0  # atno 17394 bound_to 11000
  139.8709  134.9749  156.4864 LP  0  0  0  0  0  0  0  0  0  0  0  0  # atno 17395 bound_to 11000

$$$$
