AV-unprocessed.smi:2638|AV-procd|sdf|10263|dock2
  -GOLD-   2272014273D 1   1.00000     0.00000
 Structure written by MMmdl.
 43 44  0  0  0  0  0  0  0  0  1 V2000
  144.3913  136.3488  152.5540 O   0  0  0  0  0  0  0  0  0  0  0  0
  145.5905  136.3043  152.2806 C   0  0  0  0  0  0  0  0  0  0  0  0
  146.1924  135.3214  151.5884 N   0  0  0  0  0  0  0  0  0  0  0  0
  145.6171  134.1428  151.0426 C   0  0  0  0  0  0  0  0  0  0  0  0
  144.2105  133.9539  151.0429 C   0  0  0  0  0  0  0  0  0  0  0  0
  143.6701  132.7857  150.4714 C   0  0  0  0  0  0  0  0  0  0  0  0
  144.5429  131.8419  149.9021 C   0  0  0  0  0  0  0  0  0  0  0  0
  145.9219  132.1174  149.9256 C   0  0  0  0  0  0  0  0  0  0  0  0
  146.4438  133.2359  150.4726 N   0  0  0  0  0  0  0  0  0  0  0  0
  146.4780  137.2404  152.6567 N   0  0  0  0  0  0  0  0  0  0  0  0
  146.2110  138.4657  153.4210 C   0  0  1  0  0  0  0  0  0  0  0  0
  145.5644  138.1419  154.7936 C   0  0  0  0  0  0  0  0  0  0  0  0
  144.9258  139.3567  155.4899 C   0  0  0  0  0  0  0  0  0  0  0  0
  143.6582  139.6185  154.9279 O   0  0  0  0  0  0  0  0  0  0  0  0
  147.4608  139.3960  153.5006 C   0  0  0  0  0  0  0  0  0  0  0  0
  148.5856  138.8035  154.3853 C   0  0  0  0  0  0  0  0  0  0  0  0
  149.8079  139.7314  154.4811 C   0  0  0  0  0  0  0  0  0  0  0  0
  149.4162  141.1236  154.9910 C   0  0  0  0  0  0  0  0  0  0  0  0
  148.3253  141.7353  154.1041 C   0  0  0  0  0  0  0  0  0  0  0  0
  147.0994  140.8136  154.0149 C   0  0  0  0  0  0  0  0  0  0  0  0
  147.1986  135.3734  151.5312 H   0  0  0  0  0  0  0  0  0  0  0  0
  143.5376  134.6882  151.4591 H   0  0  0  0  0  0  0  0  0  0  0  0
  142.6028  132.6205  150.4646 H   0  0  0  0  0  0  0  0  0  0  0  0
  144.1655  130.9348  149.4537 H   0  0  0  0  0  0  0  0  0  0  0  0
  146.6257  131.4230  149.4912 H   0  0  0  0  0  0  0  0  0  0  0  0
  147.4394  137.0956  152.3851 H   0  0  0  0  0  0  0  0  0  0  0  0
  145.4574  138.9967  152.8382 H   0  0  0  0  0  0  0  0  0  0  0  0
  144.8202  137.3526  154.6805 H   0  0  0  0  0  0  0  0  0  0  0  0
  146.3221  137.7448  155.4678 H   0  0  0  0  0  0  0  0  0  0  0  0
  144.8073  139.1687  156.5574 H   0  0  0  0  0  0  0  0  0  0  0  0
  145.5430  140.2487  155.3801 H   0  0  0  0  0  0  0  0  0  0  0  0
  143.7461  139.6476  153.9874 H   0  0  0  0  0  0  0  0  0  0  0  0
  147.8683  139.5051  152.4948 H   0  0  0  0  0  0  0  0  0  0  0  0
  148.2005  138.6047  155.3863 H   0  0  0  0  0  0  0  0  0  0  0  0
  148.9262  137.8482  153.9888 H   0  0  0  0  0  0  0  0  0  0  0  0
  150.5560  139.2920  155.1413 H   0  0  0  0  0  0  0  0  0  0  0  0
  150.2766  139.8196  153.5001 H   0  0  0  0  0  0  0  0  0  0  0  0
  149.0578  141.0518  156.0187 H   0  0  0  0  0  0  0  0  0  0  0  0
  150.2908  141.7745  155.0111 H   0  0  0  0  0  0  0  0  0  0  0  0
  148.0298  142.7083  154.4977 H   0  0  0  0  0  0  0  0  0  0  0  0
  148.7218  141.9140  153.1037 H   0  0  0  0  0  0  0  0  0  0  0  0
  146.3659  141.2882  153.3635 H   0  0  0  0  0  0  0  0  0  0  0  0
  146.6322  140.7380  154.9976 H   0  0  0  0  0  0  0  0  0  0  0  0
  1  2  2  0  0  0  0
  2  3  1  0  0  0  0
  2 10  1  0  0  0  0
  3  4  1  0  0  0  0
  3 21  1  0  0  0  0
  4  9  1  0  0  0  0
  4  5  2  0  0  0  0
  5  6  1  0  0  0  0
  5 22  1  0  0  0  0
  6  7  2  0  0  0  0
  6 23  1  0  0  0  0
  7  8  1  0  0  0  0
  7 24  1  0  0  0  0
  8  9  2  0  0  0  0
  8 25  1  0  0  0  0
 10 11  1  0  0  0  0
 10 26  1  0  0  0  0
 11 12  1  0  0  0  0
 11 15  1  0  0  0  0
 11 27  1  0  0  0  0
 12 13  1  0  0  0  0
 12 28  1  0  0  0  0
 12 29  1  0  0  0  0
 13 14  1  0  0  0  0
 13 30  1  0  0  0  0
 13 31  1  0  0  0  0
 14 32  1  0  0  0  0
 15 20  1  0  0  0  0
 15 16  1  0  0  0  0
 15 33  1  0  0  0  0
 16 17  1  0  0  0  0
 16 34  1  0  0  0  0
 16 35  1  0  0  0  0
 17 18  1  0  0  0  0
 17 36  1  0  0  0  0
 17 37  1  0  0  0  0
 18 19  1  0  0  0  0
 18 38  1  0  0  0  0
 18 39  1  0  0  0  0
 19 20  1  0  0  0  0
 19 40  1  0  0  0  0
 19 41  1  0  0  0  0
 20 42  1  0  0  0  0
 20 43  1  0  0  0  0
M  END
> <s_m_source_file>
AV-unprocessed.smi

> <i_m_source_file_index>
2638

> <i_lp_mmshare_version>
43012

> <i_f3d_flags>
0

> <s_epik_input>
bjFbY0hdW2NIXVtjSF1bY0hdYzFbTkhdQyg9TylbTkhdW0NASF0oW0NIMl1bQ0gyXVtPSF0pW0NIXTJbQ0gyXVtDSDJdW0NIMl1bQ0gyXVtDSDJdMg==

> <s_epik_cmdline>
J2VwaWtfcHl0aG9uJywgJy1waCcsICc3LjAnLCAnLXRuJywgJzgnLCAnLW1hJywgJzIwMCcsICctbWV0YWxfYmluZGluZycsICctaW1hZScsICc8aW5maWxlLm1hZT4nLCAnLW9tYWUnLCAnPG91dGZpbGUubWFlPic=

> <r_lp_tautomer_probability>
1

> <r_epik_Ionization_Penalty>
5.22449e-05

> <r_epik_Ionization_Penalty_Charging>
0

> <r_epik_Ionization_Penalty_Neutral>
5.22449e-05

> <r_epik_State_Penalty>
-0

> <r_epik_Charging_Adjusted_Penalty>
0

> <i_epik_Tot_Q>
0

> <i_epik_Tot_abs_Q>
0

> <r_epik_Metal_State_Penalty>
-0

> <b_epik_Metal_Only>
0

> <s_lp_Force_Field>
OPLS_2005

> <r_lp_Energy>
21.512

> <b_lp_Chiralities_Consistent>
1

> <s_lp_Variant>
AV-unprocessed.smi:2638-2

> <Gold.Version>
5.8.1

> <Gold.Id.Protein>
6NUR|6NUR_protein|mol2

> <Gold.PLP.Fitness>
45.8207

> <Gold.PLP.PLP>
-34.2706

> <Gold.PLP.part.hbond>
-3.0000

> <Gold.PLP.part.metal>
0.0000

> <Gold.PLP.part.buried>
-3.4941

> <Gold.PLP.part.nonpolar>
-29.1264

> <Gold.PLP.part.repulsive>
0.4502

> <Gold.PLP.ligand.clash>
0.0000

> <Gold.PLP.ligand.torsion>
0.2692

> <Gold.PLP.Chemscore.Hbond>
3.0000

> <Gold.PLP.Chemscore.CHOScore>
0.9844

> <Gold.PLP.Chemscore.Metal>
0.0000

> <Gold.Chemscore.Hbonds>
donor molecule, donor type, donor heavy atom, donor atom, acceptor molecule, acceptor atom, score
      L1  H     3    21       P1  7948  1.00
      L1  H    10    26       P1  7948  1.00
      L1  H    14    32       P1 10175  1.00
      L1  C     8    25       P1 10747  0.99

> <Gold.PLP.Chemscore.Internal.Correction>
0.1352

> <Gold.Rescore>
     Score         DG    S(hbond)    S(metal)    S(lipo)     H(rot)  DE(clash)    DE(int)     intcor
     17.19     -18.93       2.86        0.00      83.47       2.30       0.02       1.72       ----

> <Gold.Chemscore.Fitness>
17.1946

> <Gold.Chemscore.DG>
-18.9330

> <Gold.Chemscore.ZeroCoef>
-5.4800

> <Gold.Chemscore.Hbond>
2.8645

> <Gold.Chemscore.Metal>
0.0000

> <Gold.Chemscore.Lipo>
83.4732

> <Gold.Chemscore.Internal_Hbond>
0.0000

> <Gold.Chemscore.DEClash>
0.0170

> <Gold.Chemscore.DEInternal>
1.7213

> <Gold.Chemscore.Rot>
2.2972

> <Gold.Chemscore.Internal.Correction>
   9.000000E+99

> <Gold.Chemscore.Hbonds>
donor molecule, donor type, donor heavy atom, donor atom, acceptor molecule, acceptor atom, score
      L1  H     3    21       P1  7948  0.93
      L1  H    10    26       P1  7948  1.00
      L1  H    14    32       P1 10175  0.95

> <Gold.Chemscore.Hbond.Weighted>
-9.5673

> <Gold.Chemscore.Metal.Weighted>
-0.0000

> <Gold.Chemscore.Lipo.Weighted>
-9.7664

> <Gold.Chemscore.Internal_Hbond.Weighted>
0.0000

> <Gold.Chemscore.DEClash.Weighted>
0.0170

> <Gold.Chemscore.DEInternal.Weighted>
1.7213

> <Gold.Chemscore.Rot.Weighted>
5.8807

> <Gold.Chemscore.Internal.Correction.Weighted>
   9.000000E+99

> <Gold.Protein.RotatedTorsions>
[ 6907 6896 6895 6894 ] final   82.52 input  -60.11 | X-H torsion
[ 7974 7965 7964 7962 ] final -130.73 input  175.53 | X-H torsion
[ 8008 7997 7996 7995 ] final  -48.46 input   59.86 | X-H torsion
[ 10167 10162 10161 10158 ] final  105.81 input  -65.29 | X-H torsion
[ 10718 10713 10712 10709 ] final -104.35 input   66.30 | X-H torsion
[ 10763 10752 10751 10750 ] final  -87.18 input  -60.55 | X-H torsion
[ 11005 11000 10999 10996 ] final  107.08 input  -57.11 | X-H torsion

> <Gold.Protein.ActiveResidues>
 VAL166  LYS551  ARG553  GLY616  TRP617  ASP618  TYR619  PRO620  LYS621  CYS622 
 ASP623  PHE694  ASN695  SER759  ASP760  ASP761  ALA762  ILE779  LEU786  VAL792 
 PHE793  MET794  SER795  GLU796  ALA797  LYS798  CYS799  TRP800  GLU811  SER814 

> <Gold.Protein.RotatedAtoms>
  152.5301  134.3038  159.9087 H   0  0  0  0  0  0  0  0  0  0  0  0  # atno 6907 bound_to 6896
  151.2988  133.4125  159.2646 H   0  0  0  0  0  0  0  0  0  0  0  0  # atno 6908 bound_to 6896
  151.0137  134.9432  159.8078 H   0  0  0  0  0  0  0  0  0  0  0  0  # atno 6909 bound_to 6896
  144.9447  140.7278  143.4825 H   0  0  0  0  0  0  0  0  0  0  0  0  # atno 7974 bound_to 7965
  154.4029  140.1321  156.4343 H   0  0  0  0  0  0  0  0  0  0  0  0  # atno 8008 bound_to 7997
  155.7521  140.3488  155.5135 H   0  0  0  0  0  0  0  0  0  0  0  0  # atno 8009 bound_to 7997
  155.8940  140.1008  157.1388 H   0  0  0  0  0  0  0  0  0  0  0  0  # atno 8010 bound_to 7997
  139.7061  144.7086  151.1104 H   0  0  0  0  0  0  0  0  0  0  0  0  # atno 10167 bound_to 10162
  156.0301  130.5511  150.7383 H   0  0  0  0  0  0  0  0  0  0  0  0  # atno 10718 bound_to 10713
  154.6307  135.5422  153.7678 H   0  0  0  0  0  0  0  0  0  0  0  0  # atno 10763 bound_to 10752
  153.0283  135.6435  154.1305 H   0  0  0  0  0  0  0  0  0  0  0  0  # atno 10764 bound_to 10752
  154.1235  135.2919  155.3183 H   0  0  0  0  0  0  0  0  0  0  0  0  # atno 10765 bound_to 10752
  139.8823  134.9389  156.5764 H   0  0  0  0  0  0  0  0  0  0  0  0  # atno 11005 bound_to 11000
  145.2937  139.1874  143.4726 LP  0  0  0  0  0  0  0  0  0  0  0  0  # atno 17320 bound_to 7965
  146.3299  140.2918  142.8615 LP  0  0  0  0  0  0  0  0  0  0  0  0  # atno 17321 bound_to 7965
  140.7722  143.5356  150.9372 LP  0  0  0  0  0  0  0  0  0  0  0  0  # atno 17342 bound_to 10162
  139.9039  143.6802  152.3126 LP  0  0  0  0  0  0  0  0  0  0  0  0  # atno 17343 bound_to 10162
  157.4958  131.0914  151.0373 LP  0  0  0  0  0  0  0  0  0  0  0  0  # atno 17370 bound_to 10713
  157.0767  130.5886  149.5412 LP  0  0  0  0  0  0  0  0  0  0  0  0  # atno 17371 bound_to 10713
  140.8060  133.8467  155.8768 LP  0  0  0  0  0  0  0  0  0  0  0  0  # atno 17394 bound_to 11000
  140.9550  134.1730  157.4699 LP  0  0  0  0  0  0  0  0  0  0  0  0  # atno 17395 bound_to 11000

$$$$
