AV-unprocessed.smi:3231|AV-procd|sdf|12335|dock8
  -GOLD-   2272018193D 1   1.00000     0.00000
 Structure written by MMmdl.
 42 43  0  0  0  0  0  0  0  0  3 V2000
  147.0202  139.9850  151.7134 O   0  0  0  0  0  0  0  0  0  0  0  0
  147.0895  138.9736  152.7005 C   0  0  2  0  0  0  0  0  0  0  0  0
  146.0626  137.8856  152.3365 C   0  0  0  0  0  0  0  0  0  0  0  0
  146.4199  137.2029  151.0760 N   0  3  0  0  0  0  0  0  0  0  0  0
  145.4676  136.1513  150.6699 C   0  0  0  0  0  0  0  0  0  0  0  0
  145.4591  134.9960  151.6817 C   0  0  0  0  0  0  0  0  0  0  0  0
  145.2446  133.7154  151.0359 N   0  0  0  0  0  0  0  0  0  0  0  0
  144.1233  133.2643  150.3715 C   0  0  0  0  0  0  0  0  0  0  0  0
  144.3902  131.9966  149.9399 C   0  0  0  0  0  0  0  0  0  0  0  0
  145.7161  131.7555  150.3970 C   0  0  0  0  0  0  0  0  0  0  0  0
  146.2243  132.7861  151.0536 N   0  0  0  0  0  0  0  0  0  0  0  0
  146.7845  139.6012  154.0784 C   0  0  0  0  0  0  0  0  0  0  0  0
  148.0028  139.9081  154.8735 N   0  3  0  0  0  0  0  0  0  0  0  0
  149.0163  138.8290  154.7834 C   0  0  0  0  0  0  0  0  0  0  0  0
  150.2377  139.1566  155.6592 C   0  0  0  0  0  0  0  0  0  0  0  0
  150.7833  140.4088  155.2648 O   0  0  0  0  0  0  0  0  0  0  0  0
  149.8527  141.4702  155.4328 C   0  0  0  0  0  0  0  0  0  0  0  0
  148.6170  141.2206  154.5500 C   0  0  0  0  0  0  0  0  0  0  0  0
  147.8743  140.0951  151.3235 H   0  0  0  0  0  0  0  0  0  0  0  0
  148.0861  138.5335  152.6897 H   0  0  0  0  0  0  0  0  0  0  0  0
  146.0203  137.1373  153.1293 H   0  0  0  0  0  0  0  0  0  0  0  0
  145.0636  138.3169  152.2526 H   0  0  0  0  0  0  0  0  0  0  0  0
  146.4598  137.8962  150.3419 H   0  0  0  0  0  0  0  0  0  0  0  0
  144.4684  136.5809  150.5857 H   0  0  0  0  0  0  0  0  0  0  0  0
  145.7457  135.7831  149.6813 H   0  0  0  0  0  0  0  0  0  0  0  0
  146.4048  134.9544  152.2243 H   0  0  0  0  0  0  0  0  0  0  0  0
  144.6738  135.1462  152.4239 H   0  0  0  0  0  0  0  0  0  0  0  0
  143.2387  133.8748  150.2616 H   0  0  0  0  0  0  0  0  0  0  0  0
  143.7372  131.3401  149.3840 H   0  0  0  0  0  0  0  0  0  0  0  0
  146.3197  130.8685  150.2727 H   0  0  0  0  0  0  0  0  0  0  0  0
  146.2154  140.5191  153.9210 H   0  0  0  0  0  0  0  0  0  0  0  0
  146.1388  138.9422  154.6613 H   0  0  0  0  0  0  0  0  0  0  0  0
  148.5808  137.8827  155.1062 H   0  0  0  0  0  0  0  0  0  0  0  0
  149.3257  138.7022  153.7446 H   0  0  0  0  0  0  0  0  0  0  0  0
  149.9664  139.1792  156.7159 H   0  0  0  0  0  0  0  0  0  0  0  0
  151.0006  138.3866  155.5432 H   0  0  0  0  0  0  0  0  0  0  0  0
  149.5704  141.5603  156.4831 H   0  0  0  0  0  0  0  0  0  0  0  0
  150.3323  142.4078  155.1513 H   0  0  0  0  0  0  0  0  0  0  0  0
  148.9036  141.2425  153.4974 H   0  0  0  0  0  0  0  0  0  0  0  0
  147.9027  142.0283  154.7037 H   0  0  0  0  0  0  0  0  0  0  0  0
  147.3350  136.7883  151.1786 H   0  0  0  0  0  0  0  0  0  0  0  0
  147.7185  139.9430  155.8420 H   0  0  0  0  0  0  0  0  0  0  0  0
  1  2  1  0  0  0  0
  1 19  1  0  0  0  0
  2  3  1  0  0  0  0
  2 12  1  0  0  0  0
  2 20  1  0  0  0  0
  3  4  1  0  0  0  0
  3 21  1  0  0  0  0
  3 22  1  0  0  0  0
  4  5  1  0  0  0  0
  4 23  1  0  0  0  0
  4 41  1  0  0  0  0
  5  6  1  0  0  0  0
  5 24  1  0  0  0  0
  5 25  1  0  0  0  0
  6  7  1  0  0  0  0
  6 26  1  0  0  0  0
  6 27  1  0  0  0  0
  7 11  1  0  0  0  0
  7  8  1  0  0  0  0
  8  9  2  0  0  0  0
  8 28  1  0  0  0  0
  9 10  1  0  0  0  0
  9 29  1  0  0  0  0
 10 11  2  0  0  0  0
 10 30  1  0  0  0  0
 12 13  1  0  0  0  0
 12 31  1  0  0  0  0
 12 32  1  0  0  0  0
 13 18  1  0  0  0  0
 13 14  1  0  0  0  0
 13 42  1  0  0  0  0
 14 15  1  0  0  0  0
 14 33  1  0  0  0  0
 14 34  1  0  0  0  0
 15 16  1  0  0  0  0
 15 35  1  0  0  0  0
 15 36  1  0  0  0  0
 16 17  1  0  0  0  0
 17 18  1  0  0  0  0
 17 37  1  0  0  0  0
 17 38  1  0  0  0  0
 18 39  1  0  0  0  0
 18 40  1  0  0  0  0
M  CHG  1   4   1
M  CHG  1  13   1
M  END
> <s_m_source_file>
AV-unprocessed.smi

> <i_m_source_file_index>
3231

> <i_lp_mmshare_version>
43012

> <i_f3d_flags>
0

> <s_epik_input>
W0NIMl0xW0NIMl1PW0NIMl1bQ0gyXU4xW0NIMl1bQ0BIXShbT0hdKVtDSDJdW05IXVtDSDJdW0NIMl1uMltjSF1bY0hdW2NIXW4y

> <s_epik_cmdline>
J2VwaWtfcHl0aG9uJywgJy1waCcsICc3LjAnLCAnLXRuJywgJzgnLCAnLW1hJywgJzIwMCcsICctbWV0YWxfYmluZGluZycsICctaW1hZScsICc8aW5maWxlLm1hZT4nLCAnLW9tYWUnLCAnPG91dGZpbGUubWFlPic=

> <r_lp_tautomer_probability>
1

> <r_epik_Ionization_Penalty>
2.09881

> <r_epik_Ionization_Penalty_Charging>
2.09628

> <r_epik_Ionization_Penalty_Neutral>
0.0025303

> <r_epik_State_Penalty>
1.58657

> <r_epik_Charging_Adjusted_Penalty>
3.68285

> <i_epik_Tot_Q>
2

> <i_epik_Tot_abs_Q>
2

> <r_epik_Metal_State_Penalty>
1.58685

> <b_epik_Metal_Only>
0

> <s_lp_Force_Field>
OPLS_2005

> <r_lp_Energy>
26.6316

> <b_lp_Chiralities_Consistent>
1

> <s_lp_Variant>
AV-unprocessed.smi:3231-5

> <Gold.Version>
5.8.1

> <Gold.Id.Protein>
6NUR|6NUR_protein|mol2

> <Gold.PLP.Fitness>
53.2256

> <Gold.PLP.PLP>
-37.3248

> <Gold.PLP.part.hbond>
-4.4361

> <Gold.PLP.part.metal>
0.0000

> <Gold.PLP.part.buried>
-3.1309

> <Gold.PLP.part.nonpolar>
-31.0656

> <Gold.PLP.part.repulsive>
0.4116

> <Gold.PLP.ligand.clash>
0.0000

> <Gold.PLP.ligand.torsion>
1.0358

> <Gold.PLP.Chemscore.Hbond>
3.9920

> <Gold.PLP.Chemscore.CHOScore>
1.9254

> <Gold.PLP.Chemscore.Metal>
0.0000

> <Gold.Chemscore.Hbonds>
donor molecule, donor type, donor heavy atom, donor atom, acceptor molecule, acceptor atom, score
      L1  H     1    19       P1  7957  1.00
      L1  H     4    41       P1  7948  2.00
      P1  H  7989  7998       L1    16  1.00
      L1  C     8    28       P1 10186  1.00
      L1  C    10    30       P1 10747  0.64

> <Gold.PLP.Chemscore.Internal.Correction>
0.2202

> <Gold.Rescore>
     Score         DG    S(hbond)    S(metal)    S(lipo)     H(rot)  DE(clash)    DE(int)     intcor
     16.60     -17.51       2.80        0.00      87.26       2.94       0.06       0.85       ----

> <Gold.Chemscore.Fitness>
16.5967

> <Gold.Chemscore.DG>
-17.5062

> <Gold.Chemscore.ZeroCoef>
-5.4800

> <Gold.Chemscore.Hbond>
2.8001

> <Gold.Chemscore.Metal>
0.0000

> <Gold.Chemscore.Lipo>
87.2630

> <Gold.Chemscore.Internal_Hbond>
0.0000

> <Gold.Chemscore.DEClash>
0.0580

> <Gold.Chemscore.DEInternal>
0.8515

> <Gold.Chemscore.Rot>
2.9437

> <Gold.Chemscore.Internal.Correction>
   9.000000E+99

> <Gold.Chemscore.Hbonds>
donor molecule, donor type, donor heavy atom, donor atom, acceptor molecule, acceptor atom, score
      L1  H     1    19       P1  7957  1.00
      L1  H     4    41       P1  7948  1.00
      P1  H  7989  7998       L1    16  0.32

> <Gold.Chemscore.Hbond.Weighted>
-9.3523

> <Gold.Chemscore.Metal.Weighted>
-0.0000

> <Gold.Chemscore.Lipo.Weighted>
-10.2098

> <Gold.Chemscore.Internal_Hbond.Weighted>
0.0000

> <Gold.Chemscore.DEClash.Weighted>
0.0580

> <Gold.Chemscore.DEInternal.Weighted>
0.8515

> <Gold.Chemscore.Rot.Weighted>
7.5359

> <Gold.Chemscore.Internal.Correction.Weighted>
   9.000000E+99

> <Gold.Protein.RotatedTorsions>
[ 6907 6896 6895 6894 ] final  161.73 input  -60.11 | X-H torsion
[ 7974 7965 7964 7962 ] final  -90.61 input  175.53 | X-H torsion
[ 8008 7997 7996 7995 ] final  -90.26 input   59.86 | X-H torsion
[ 10167 10162 10161 10158 ] final   12.94 input  -65.29 | X-H torsion
[ 10718 10713 10712 10709 ] final -134.73 input   66.30 | X-H torsion
[ 10763 10752 10751 10750 ] final   63.55 input  -60.55 | X-H torsion
[ 11005 11000 10999 10996 ] final -175.97 input  -57.11 | X-H torsion

> <Gold.Protein.ActiveResidues>
 VAL166  LYS551  ARG553  GLY616  TRP617  ASP618  TYR619  PRO620  LYS621  CYS622 
 ASP623  PHE694  ASN695  SER759  ASP760  ASP761  ALA762  ILE779  LEU786  VAL792 
 PHE793  MET794  SER795  GLU796  ALA797  LYS798  CYS799  TRP800  GLU811  SER814 

> <Gold.Protein.RotatedAtoms>
  151.9512  133.3666  159.4000 H   0  0  0  0  0  0  0  0  0  0  0  0  # atno 6907 bound_to 6896
  150.6980  134.4338  159.5270 H   0  0  0  0  0  0  0  0  0  0  0  0  # atno 6908 bound_to 6896
  152.2011  134.8586  160.0558 H   0  0  0  0  0  0  0  0  0  0  0  0  # atno 6909 bound_to 6896
  145.4242  140.9552  143.2164 H   0  0  0  0  0  0  0  0  0  0  0  0  # atno 7974 bound_to 7965
  154.6964  140.0532  157.0415 H   0  0  0  0  0  0  0  0  0  0  0  0  # atno 8008 bound_to 7997
  155.0745  140.3203  155.4601 H   0  0  0  0  0  0  0  0  0  0  0  0  # atno 8009 bound_to 7997
  156.2745  140.2076  156.5873 H   0  0  0  0  0  0  0  0  0  0  0  0  # atno 8010 bound_to 7997
  140.6035  143.8555  150.6990 H   0  0  0  0  0  0  0  0  0  0  0  0  # atno 10167 bound_to 10162
  156.2586  130.7196  151.1122 H   0  0  0  0  0  0  0  0  0  0  0  0  # atno 10718 bound_to 10713
  153.0022  135.5425  154.6369 H   0  0  0  0  0  0  0  0  0  0  0  0  # atno 10763 bound_to 10752
  154.5634  135.2835  155.0900 H   0  0  0  0  0  0  0  0  0  0  0  0  # atno 10764 bound_to 10752
  154.2094  135.6470  153.5163 H   0  0  0  0  0  0  0  0  0  0  0  0  # atno 10765 bound_to 10752
  140.4573  134.6287  157.4827 H   0  0  0  0  0  0  0  0  0  0  0  0  # atno 11005 bound_to 11000
  144.8225  139.5766  143.6980 LP  0  0  0  0  0  0  0  0  0  0  0  0  # atno 17320 bound_to 7965
  146.2641  139.6478  142.9342 LP  0  0  0  0  0  0  0  0  0  0  0  0  # atno 17321 bound_to 7965
  140.2107  143.3886  152.1720 LP  0  0  0  0  0  0  0  0  0  0  0  0  # atno 17342 bound_to 10162
  139.5308  144.7157  151.5063 LP  0  0  0  0  0  0  0  0  0  0  0  0  # atno 17343 bound_to 10162
  157.7242  131.0661  150.6005 LP  0  0  0  0  0  0  0  0  0  0  0  0  # atno 17370 bound_to 10713
  156.6091  130.4375  149.5866 LP  0  0  0  0  0  0  0  0  0  0  0  0  # atno 17371 bound_to 10713
  139.9968  134.6899  155.9597 LP  0  0  0  0  0  0  0  0  0  0  0  0  # atno 17394 bound_to 11000
  141.1637  133.6537  156.4405 LP  0  0  0  0  0  0  0  0  0  0  0  0  # atno 17395 bound_to 11000

$$$$
