AV-unprocessed.smi:3285|AV-procd|sdf|12587|dock7
  -GOLD-   2272018513D 1   1.00000     0.00000
 Structure written by MMmdl.
 45 46  0  0  0  0  0  0  0  0  2 V2000
  151.6724  135.6978  156.7036 C   0  0  0  0  0  0  0  0  0  0  0  0
  151.3540  134.2719  156.3561 C   0  0  0  0  0  0  0  0  0  0  0  0
  151.9436  133.2900  157.0168 N   0  0  0  0  0  0  0  0  0  0  0  0
  151.4444  132.1049  156.4683 O   0  0  0  0  0  0  0  0  0  0  0  0
  150.5615  132.4238  155.4882 C   0  0  0  0  0  0  0  0  0  0  0  0
  149.9134  131.2855  154.7752 C   0  0  0  0  0  0  0  0  0  0  0  0
  150.4560  133.7820  155.3649 C   0  0  0  0  0  0  0  0  0  0  0  0
  149.5993  134.5763  154.4168 C   0  0  0  0  0  0  0  0  0  0  0  0
  148.1306  134.1385  154.4860 C   0  0  0  0  0  0  0  0  0  0  0  0
  147.3049  134.9034  153.5286 N   0  3  0  0  0  0  0  0  0  0  0  0
  146.3199  134.1054  152.7655 C   0  0  1  0  0  0  0  0  0  0  0  0
  145.4388  135.0416  151.9194 C   0  0  0  0  0  0  0  0  0  0  0  0
  144.4238  134.2580  151.0724 C   0  0  0  0  0  0  0  0  0  0  0  0
  145.1247  133.2213  150.1728 C   0  0  2  0  0  0  0  0  0  0  0  0
  144.1286  132.4928  149.2558 C   0  0  0  0  0  0  0  0  0  0  0  0
  146.0164  132.2603  151.0001 C   0  0  2  0  0  0  0  0  0  0  0  0
  145.2293  131.2403  151.8481 C   0  0  0  0  0  0  0  0  0  0  0  0
  147.0155  133.0643  151.8595 C   0  0  0  0  0  0  0  0  0  0  0  0
  150.7922  136.2083  157.0938 H   0  0  0  0  0  0  0  0  0  0  0  0
  152.0128  136.2463  155.8253 H   0  0  0  0  0  0  0  0  0  0  0  0
  152.4571  135.7658  157.4581 H   0  0  0  0  0  0  0  0  0  0  0  0
  148.8615  131.4952  154.5825 H   0  0  0  0  0  0  0  0  0  0  0  0
  149.9700  130.3704  155.3651 H   0  0  0  0  0  0  0  0  0  0  0  0
  150.4027  131.1025  153.8188 H   0  0  0  0  0  0  0  0  0  0  0  0
  149.6684  135.6419  154.6382 H   0  0  0  0  0  0  0  0  0  0  0  0
  149.9615  134.4645  153.3941 H   0  0  0  0  0  0  0  0  0  0  0  0
  148.0564  133.0727  154.2706 H   0  0  0  0  0  0  0  0  0  0  0  0
  147.7448  134.2914  155.4951 H   0  0  0  0  0  0  0  0  0  0  0  0
  146.7935  135.5931  154.0605 H   0  0  0  0  0  0  0  0  0  0  0  0
  145.6760  133.5940  153.4821 H   0  0  0  0  0  0  0  0  0  0  0  0
  144.9091  135.7424  152.5654 H   0  0  0  0  0  0  0  0  0  0  0  0
  146.0661  135.6441  151.2608 H   0  0  0  0  0  0  0  0  0  0  0  0
  143.7008  133.7658  151.7237 H   0  0  0  0  0  0  0  0  0  0  0  0
  143.8525  134.9552  150.4584 H   0  0  0  0  0  0  0  0  0  0  0  0
  145.7924  133.7769  149.5121 H   0  0  0  0  0  0  0  0  0  0  0  0
  143.3570  131.9750  149.8258 H   0  0  0  0  0  0  0  0  0  0  0  0
  144.6348  131.7574  148.6299 H   0  0  0  0  0  0  0  0  0  0  0  0
  143.6251  133.1966  148.5924 H   0  0  0  0  0  0  0  0  0  0  0  0
  146.6077  131.6762  150.2934 H   0  0  0  0  0  0  0  0  0  0  0  0
  144.5510  131.7230  152.5509 H   0  0  0  0  0  0  0  0  0  0  0  0
  145.9061  130.6109  152.4265 H   0  0  0  0  0  0  0  0  0  0  0  0
  144.6369  130.5731  151.2222 H   0  0  0  0  0  0  0  0  0  0  0  0
  147.7161  133.5774  151.1989 H   0  0  0  0  0  0  0  0  0  0  0  0
  147.6155  132.3738  152.4522 H   0  0  0  0  0  0  0  0  0  0  0  0
  147.9084  135.3850  152.8774 H   0  0  0  0  0  0  0  0  0  0  0  0
  1  2  1  0  0  0  0
  1 19  1  0  0  0  0
  1 20  1  0  0  0  0
  1 21  1  0  0  0  0
  2  7  1  0  0  0  0
  2  3  2  0  0  0  0
  3  4  1  0  0  0  0
  4  5  1  0  0  0  0
  5  6  1  0  0  0  0
  5  7  2  0  0  0  0
  6 22  1  0  0  0  0
  6 23  1  0  0  0  0
  6 24  1  0  0  0  0
  7  8  1  0  0  0  0
  8  9  1  0  0  0  0
  8 25  1  0  0  0  0
  8 26  1  0  0  0  0
  9 10  1  0  0  0  0
  9 27  1  0  0  0  0
  9 28  1  0  0  0  0
 10 11  1  0  0  0  0
 10 29  1  0  0  0  0
 10 45  1  0  0  0  0
 11 18  1  0  0  0  0
 11 12  1  0  0  0  0
 11 30  1  0  0  0  0
 12 13  1  0  0  0  0
 12 31  1  0  0  0  0
 12 32  1  0  0  0  0
 13 14  1  0  0  0  0
 13 33  1  0  0  0  0
 13 34  1  0  0  0  0
 14 15  1  0  0  0  0
 14 16  1  0  0  0  0
 14 35  1  0  0  0  0
 15 36  1  0  0  0  0
 15 37  1  0  0  0  0
 15 38  1  0  0  0  0
 16 17  1  0  0  0  0
 16 18  1  0  0  0  0
 16 39  1  0  0  0  0
 17 40  1  0  0  0  0
 17 41  1  0  0  0  0
 17 42  1  0  0  0  0
 18 43  1  0  0  0  0
 18 44  1  0  0  0  0
M  CHG  1  10   1
M  END
> <s_m_source_file>
AV-unprocessed.smi

> <i_m_source_file_index>
3285

> <i_lp_mmshare_version>
43012

> <i_f3d_flags>
0

> <s_epik_input>
W0NIM11jMW5vYyhbQ0gzXSljMVtDSDJdW0NIMl1bTkhdW0NAQEhdMltDSDJdW0NIMl1bQ0BASF0oW0NIM10pW0NAQEhdKFtDSDNdKVtDSDJdMg==

> <s_epik_cmdline>
J2VwaWtfcHl0aG9uJywgJy1waCcsICc3LjAnLCAnLXRuJywgJzgnLCAnLW1hJywgJzIwMCcsICctbWV0YWxfYmluZGluZycsICctaW1hZScsICc8aW5maWxlLm1hZT4nLCAnLW9tYWUnLCAnPG91dGZpbGUubWFlPic=

> <r_lp_tautomer_probability>
1

> <r_epik_Ionization_Penalty>
0.000204615

> <r_epik_Ionization_Penalty_Charging>
0.000204615

> <r_epik_Ionization_Penalty_Neutral>
9.28663e-11

> <r_epik_State_Penalty>
-0

> <r_epik_Charging_Adjusted_Penalty>
0.000204615

> <i_epik_Tot_Q>
1

> <i_epik_Tot_abs_Q>
1

> <r_epik_Metal_State_Penalty>
-0

> <b_epik_Metal_Only>
0

> <s_lp_Force_Field>
OPLS_2005

> <r_lp_Energy>
12.1842

> <b_lp_Chiralities_Consistent>
1

> <s_lp_Variant>
AV-unprocessed.smi:3285-8

> <Gold.Version>
5.8.1

> <Gold.Id.Protein>
6NUR|6NUR_protein|mol2

> <Gold.PLP.Fitness>
39.3049

> <Gold.PLP.PLP>
-32.0835

> <Gold.PLP.part.hbond>
-2.0000

> <Gold.PLP.part.metal>
0.0000

> <Gold.PLP.part.buried>
-3.5219

> <Gold.PLP.part.nonpolar>
-27.2518

> <Gold.PLP.part.repulsive>
0.0000

> <Gold.PLP.ligand.clash>
0.0000

> <Gold.PLP.ligand.torsion>
0.3714

> <Gold.PLP.Chemscore.Hbond>
2.6503

> <Gold.PLP.Chemscore.CHOScore>
0.0000

> <Gold.PLP.Chemscore.Metal>
0.0000

> <Gold.Chemscore.Hbonds>
donor molecule, donor type, donor heavy atom, donor atom, acceptor molecule, acceptor atom, score
      L1  H    10    45       P1  7948  2.00
      P1  H  6896  6907       L1     3  0.30

> <Gold.PLP.Chemscore.Internal.Correction>
0.0135

> <Gold.Rescore>
     Score         DG    S(hbond)    S(metal)    S(lipo)     H(rot)  DE(clash)    DE(int)     intcor
     17.29     -17.75       1.56        0.00      89.90       1.35       0.00       0.46       ----

> <Gold.Chemscore.Fitness>
17.2915

> <Gold.Chemscore.DG>
-17.7530

> <Gold.Chemscore.ZeroCoef>
-5.4800

> <Gold.Chemscore.Hbond>
1.5574

> <Gold.Chemscore.Metal>
0.0000

> <Gold.Chemscore.Lipo>
89.9009

> <Gold.Chemscore.Internal_Hbond>
0.0000

> <Gold.Chemscore.DEClash>
0.0000

> <Gold.Chemscore.DEInternal>
0.4615

> <Gold.Chemscore.Rot>
1.3465

> <Gold.Chemscore.Internal.Correction>
   9.000000E+99

> <Gold.Chemscore.Hbonds>
donor molecule, donor type, donor heavy atom, donor atom, acceptor molecule, acceptor atom, score
      L1  H    10    45       P1  7948  1.00
      P1  H  6896  6907       L1     3  0.20

> <Gold.Chemscore.Hbond.Weighted>
-5.2016

> <Gold.Chemscore.Metal.Weighted>
-0.0000

> <Gold.Chemscore.Lipo.Weighted>
-10.5184

> <Gold.Chemscore.Internal_Hbond.Weighted>
0.0000

> <Gold.Chemscore.DEClash.Weighted>
0.0000

> <Gold.Chemscore.DEInternal.Weighted>
0.4615

> <Gold.Chemscore.Rot.Weighted>
3.4470

> <Gold.Chemscore.Internal.Correction.Weighted>
   9.000000E+99

> <Gold.Protein.RotatedTorsions>
[ 6907 6896 6895 6894 ] final -173.33 input  -60.11 | X-H torsion
[ 7974 7965 7964 7962 ] final  -96.44 input  175.53 | X-H torsion
[ 8008 7997 7996 7995 ] final   94.42 input   59.86 | X-H torsion
[ 10167 10162 10161 10158 ] final -108.20 input  -65.29 | X-H torsion
[ 10718 10713 10712 10709 ] final -112.52 input   66.30 | X-H torsion
[ 10763 10752 10751 10750 ] final   83.40 input  -60.55 | X-H torsion
[ 11005 11000 10999 10996 ] final  125.57 input  -57.11 | X-H torsion

> <Gold.Protein.ActiveResidues>
 VAL166  LYS551  ARG553  GLY616  TRP617  ASP618  TYR619  PRO620  LYS621  CYS622 
 ASP623  PHE694  ASN695  SER759  ASP760  ASP761  ALA762  ILE779  LEU786  VAL792 
 PHE793  MET794  SER795  GLU796  ALA797  LYS798  CYS799  TRP800  GLU811  SER814 

> <Gold.Protein.RotatedAtoms>
  151.5544  133.3412  159.2958 H   0  0  0  0  0  0  0  0  0  0  0  0  # atno 6907 bound_to 6896
  150.8459  134.7771  159.6981 H   0  0  0  0  0  0  0  0  0  0  0  0  # atno 6908 bound_to 6896
  152.4517  134.5387  159.9884 H   0  0  0  0  0  0  0  0  0  0  0  0  # atno 6909 bound_to 6896
  145.3469  140.9470  143.2576 H   0  0  0  0  0  0  0  0  0  0  0  0  # atno 7974 bound_to 7965
  156.0577  140.3300  155.7424 H   0  0  0  0  0  0  0  0  0  0  0  0  # atno 8008 bound_to 7997
  155.5504  140.0609  157.2869 H   0  0  0  0  0  0  0  0  0  0  0  0  # atno 8009 bound_to 7997
  154.4466  140.1895  156.0669 H   0  0  0  0  0  0  0  0  0  0  0  0  # atno 8010 bound_to 7997
  140.1687  143.4060  152.1370 H   0  0  0  0  0  0  0  0  0  0  0  0  # atno 10167 bound_to 10162
  156.0711  130.5924  150.8519 H   0  0  0  0  0  0  0  0  0  0  0  0  # atno 10718 bound_to 10713
  153.1287  135.4693  154.9314 H   0  0  0  0  0  0  0  0  0  0  0  0  # atno 10763 bound_to 10752
  154.7644  135.3140  154.8317 H   0  0  0  0  0  0  0  0  0  0  0  0  # atno 10764 bound_to 10752
  153.8864  135.6889  153.4817 H   0  0  0  0  0  0  0  0  0  0  0  0  # atno 10765 bound_to 10752
  139.9413  134.9635  156.8579 H   0  0  0  0  0  0  0  0  0  0  0  0  # atno 11005 bound_to 11000
  144.8747  139.4987  143.6751 LP  0  0  0  0  0  0  0  0  0  0  0  0  # atno 17320 bound_to 7965
  146.2984  139.7350  142.9109 LP  0  0  0  0  0  0  0  0  0  0  0  0  # atno 17321 bound_to 7965
  139.5347  144.7197  151.4933 LP  0  0  0  0  0  0  0  0  0  0  0  0  # atno 17342 bound_to 10162
  140.6596  143.8527  150.6873 LP  0  0  0  0  0  0  0  0  0  0  0  0  # atno 17343 bound_to 10162
  157.5781  131.0946  150.9313 LP  0  0  0  0  0  0  0  0  0  0  0  0  # atno 17370 bound_to 10713
  156.9515  130.5421  149.5282 LP  0  0  0  0  0  0  0  0  0  0  0  0  # atno 17371 bound_to 10713
  140.5944  134.0231  155.7512 LP  0  0  0  0  0  0  0  0  0  0  0  0  # atno 17394 bound_to 11000
  141.1048  133.9710  157.3015 LP  0  0  0  0  0  0  0  0  0  0  0  0  # atno 17395 bound_to 11000

$$$$
