AV-unprocessed.smi:1922|AV-procd|sdf|7788|dock10
  -GOLD-   22720 9533D 1   1.00000     0.00000
 Structure written by MMmdl.
 35 36  0  0  0  0  0  0  0  0  1 V2000
  151.7056  141.6784  157.4833 O   0  0  0  0  0  0  0  0  0  0  0  0
  150.8494  142.2911  156.8467 C   0  0  0  0  0  0  0  0  0  0  0  0
  149.8832  141.5094  155.9388 C   0  0  0  0  0  0  0  0  0  0  0  0
  150.4400  140.2728  155.3646 N   0  0  0  0  0  0  0  0  0  0  0  0
  151.8162  140.1585  155.4928 N   0  0  0  0  0  0  0  0  0  0  0  0
  152.4258  139.1290  155.0100 C   0  0  0  0  0  0  0  0  0  0  0  0
  153.7894  139.0575  155.1558 O   0  0  0  0  0  0  0  0  0  0  0  0
  151.6984  138.0778  154.3330 C   0  0  0  0  0  0  0  0  0  0  0  0
  150.3579  138.1964  154.2155 C   0  0  0  0  0  0  0  0  0  0  0  0
  149.6354  139.3524  154.7489 C   0  0  0  0  0  0  0  0  0  0  0  0
  148.4172  139.4920  154.6444 O   0  0  0  0  0  0  0  0  0  0  0  0
  150.7119  143.6245  156.9125 N   0  0  0  0  0  0  0  0  0  0  0  0
  151.5105  144.5106  157.7458 C   0  0  0  0  0  0  0  0  0  0  0  0
  151.3077  144.1783  159.2333 C   0  0  0  0  0  0  0  0  0  0  0  0
  151.5547  145.3622  160.1692 C   0  0  0  0  0  0  0  0  0  0  0  0
  151.7559  144.7305  161.5502 C   0  0  0  0  0  0  0  0  0  0  0  0
  152.2550  143.2989  161.2991 C   0  0  0  0  0  0  0  0  0  0  0  0
  152.2493  143.0987  159.7786 C   0  0  0  0  0  0  0  0  0  0  0  0
  153.9789  138.1459  155.3157 H   0  0  0  0  0  0  0  0  0  0  0  0
  148.9915  141.2763  156.5235 H   0  0  0  0  0  0  0  0  0  0  0  0
  149.5385  142.1717  155.1426 H   0  0  0  0  0  0  0  0  0  0  0  0
  152.2220  137.2210  153.9351 H   0  0  0  0  0  0  0  0  0  0  0  0
  149.8016  137.4187  153.7130 H   0  0  0  0  0  0  0  0  0  0  0  0
  149.9857  144.0526  156.3568 H   0  0  0  0  0  0  0  0  0  0  0  0
  152.5620  144.4083  157.4727 H   0  0  0  0  0  0  0  0  0  0  0  0
  151.2269  145.5464  157.5535 H   0  0  0  0  0  0  0  0  0  0  0  0
  150.2807  143.8396  159.3815 H   0  0  0  0  0  0  0  0  0  0  0  0
  152.4648  145.8866  159.8739 H   0  0  0  0  0  0  0  0  0  0  0  0
  150.7382  146.0848  160.1561 H   0  0  0  0  0  0  0  0  0  0  0  0
  152.4519  145.3086  162.1590 H   0  0  0  0  0  0  0  0  0  0  0  0
  150.8057  144.6978  162.0849 H   0  0  0  0  0  0  0  0  0  0  0  0
  153.2518  143.1393  161.7121 H   0  0  0  0  0  0  0  0  0  0  0  0
  151.5858  142.5836  161.7794 H   0  0  0  0  0  0  0  0  0  0  0  0
  151.9406  142.0918  159.4947 H   0  0  0  0  0  0  0  0  0  0  0  0
  153.2564  143.2548  159.3889 H   0  0  0  0  0  0  0  0  0  0  0  0
  1  2  2  0  0  0  0
  2  3  1  0  0  0  0
  2 12  1  0  0  0  0
  3 20  1  0  0  0  0
  3 21  1  0  0  0  0
  3  4  1  0  0  0  0
  4  5  1  0  0  0  0
  4 10  1  0  0  0  0
  5  6  2  0  0  0  0
  6  7  1  0  0  0  0
  6  8  1  0  0  0  0
  7 19  1  0  0  0  0
  8 22  1  0  0  0  0
  8  9  2  0  0  0  0
  9 23  1  0  0  0  0
  9 10  1  0  0  0  0
 10 11  2  0  0  0  0
 12 13  1  0  0  0  0
 12 24  1  0  0  0  0
 13 14  1  0  0  0  0
 13 25  1  0  0  0  0
 13 26  1  0  0  0  0
 14 18  1  0  0  0  0
 14 15  1  0  0  0  0
 14 27  1  0  0  0  0
 15 16  1  0  0  0  0
 15 28  1  0  0  0  0
 15 29  1  0  0  0  0
 16 17  1  0  0  0  0
 16 30  1  0  0  0  0
 16 31  1  0  0  0  0
 17 18  1  0  0  0  0
 17 32  1  0  0  0  0
 17 33  1  0  0  0  0
 18 34  1  0  0  0  0
 18 35  1  0  0  0  0
M  END
> <s_m_source_file>
AV-unprocessed.smi

> <i_m_source_file_index>
1922

> <i_lp_mmshare_version>
43012

> <i_f3d_flags>
0

> <s_epik_input>
W0NIMl0xW0NIMl1bQ0gyXVtDSDJdW0NIXTFbQ0gyXVtOSF1DKD1PKVtDSDJdbjJbbkhdYyg9TylbY0hdW2NIXWMyPU8=

> <s_epik_cmdline>
J2VwaWtfcHl0aG9uJywgJy1waCcsICc3LjAnLCAnLXRuJywgJzgnLCAnLW1hJywgJzIwMCcsICctbWV0YWxfYmluZGluZycsICctaW1hZScsICc8aW5maWxlLm1hZT4nLCAnLW9tYWUnLCAnPG91dGZpbGUubWFlPic=

> <r_lp_tautomer_probability>
0.9996

> <r_epik_Ionization_Penalty>
2.12182

> <r_epik_Ionization_Penalty_Charging>
3.68417e-08

> <r_epik_Ionization_Penalty_Neutral>
2.12182

> <r_epik_State_Penalty>
1.69868

> <r_epik_Charging_Adjusted_Penalty>
1.69868

> <i_epik_Tot_Q>
0

> <i_epik_Tot_abs_Q>
0

> <r_epik_Metal_State_Penalty>
1.69868

> <b_epik_Metal_Only>
0

> <s_lp_Force_Field>
OPLS_2005

> <r_lp_Energy>
31.2069

> <b_lp_Chiralities_Consistent>
1

> <s_lp_Variant>
AV-unprocessed.smi:1922-2

> <Gold.Version>
5.8.1

> <Gold.Id.Protein>
6NUR|6NUR_protein|mol2

> <Gold.PLP.Fitness>
50.1041

> <Gold.PLP.PLP>
-45.7238

> <Gold.PLP.part.hbond>
-3.0000

> <Gold.PLP.part.metal>
0.0000

> <Gold.PLP.part.buried>
-3.2322

> <Gold.PLP.part.nonpolar>
-39.1716

> <Gold.PLP.part.repulsive>
0.1420

> <Gold.PLP.ligand.clash>
0.0000

> <Gold.PLP.ligand.torsion>
0.8381

> <Gold.PLP.Chemscore.Hbond>
2.0163

> <Gold.PLP.Chemscore.CHOScore>
0.0000

> <Gold.PLP.Chemscore.Metal>
0.0000

> <Gold.Chemscore.Hbonds>
donor molecule, donor type, donor heavy atom, donor atom, acceptor molecule, acceptor atom, score
      L1  H    12    24       P1  8028  0.80
      P1  H  7997  8009       L1     7  0.86

> <Gold.PLP.Chemscore.Internal.Correction>
0.0076

> <Gold.Rescore>
     Score         DG    S(hbond)    S(metal)    S(lipo)     H(rot)  DE(clash)    DE(int)     intcor
     11.89     -16.04       1.79        0.00      95.15       2.56       1.33       2.82       ----

> <Gold.Chemscore.Fitness>
11.8868

> <Gold.Chemscore.DG>
-16.0415

> <Gold.Chemscore.ZeroCoef>
-5.4800

> <Gold.Chemscore.Hbond>
1.7916

> <Gold.Chemscore.Metal>
0.0000

> <Gold.Chemscore.Lipo>
95.1482

> <Gold.Chemscore.Internal_Hbond>
0.0000

> <Gold.Chemscore.DEClash>
1.3323

> <Gold.Chemscore.DEInternal>
2.8224

> <Gold.Chemscore.Rot>
2.5605

> <Gold.Chemscore.Internal.Correction>
   9.000000E+99

> <Gold.Chemscore.Hbonds>
donor molecule, donor type, donor heavy atom, donor atom, acceptor molecule, acceptor atom, score
      L1  H    12    24       P1  8028  0.79
      P1  H  7997  8009       L1     7  0.77

> <Gold.Chemscore.Hbond.Weighted>
-5.9839

> <Gold.Chemscore.Metal.Weighted>
-0.0000

> <Gold.Chemscore.Lipo.Weighted>
-11.1323

> <Gold.Chemscore.Internal_Hbond.Weighted>
0.0000

> <Gold.Chemscore.DEClash.Weighted>
1.3323

> <Gold.Chemscore.DEInternal.Weighted>
2.8224

> <Gold.Chemscore.Rot.Weighted>
6.5548

> <Gold.Chemscore.Internal.Correction.Weighted>
   9.000000E+99

> <Gold.Protein.RotatedTorsions>
[ 6907 6896 6895 6894 ] final -118.68 input  -60.11 | X-H torsion
[ 7974 7965 7964 7962 ] final   -2.97 input  175.53 | X-H torsion
[ 8008 7997 7996 7995 ] final -130.79 input   59.86 | X-H torsion
[ 10167 10162 10161 10158 ] final -141.28 input  -65.29 | X-H torsion
[ 10718 10713 10712 10709 ] final -115.37 input   66.30 | X-H torsion
[ 10763 10752 10751 10750 ] final -137.49 input  -60.55 | X-H torsion
[ 11005 11000 10999 10996 ] final   97.57 input  -57.11 | X-H torsion

> <Gold.Protein.ActiveResidues>
 VAL166  LYS551  ARG553  GLY616  TRP617  ASP618  TYR619  PRO620  LYS621  CYS622 
 ASP623  PHE694  ASN695  SER759  ASP760  ASP761  ALA762  ILE779  LEU786  VAL792 
 PHE793  MET794  SER795  GLU796  ALA797  LYS798  CYS799  TRP800  GLU811  SER814 

> <Gold.Protein.RotatedAtoms>
  150.8240  133.8203  159.3126 H   0  0  0  0  0  0  0  0  0  0  0  0  # atno 6907 bound_to 6896
  151.5953  135.1049  160.0057 H   0  0  0  0  0  0  0  0  0  0  0  0  # atno 6908 bound_to 6896
  152.4327  133.7265  159.6619 H   0  0  0  0  0  0  0  0  0  0  0  0  # atno 6909 bound_to 6896
  146.2396  140.1652  142.8332 H   0  0  0  0  0  0  0  0  0  0  0  0  # atno 7974 bound_to 7965
  155.3016  140.0453  157.3030 H   0  0  0  0  0  0  0  0  0  0  0  0  # atno 8008 bound_to 7997
  154.5483  140.2309  155.8494 H   0  0  0  0  0  0  0  0  0  0  0  0  # atno 8009 bound_to 7997
  156.1944  140.3042  155.9404 H   0  0  0  0  0  0  0  0  0  0  0  0  # atno 8010 bound_to 7997
  139.8199  143.7587  152.2666 H   0  0  0  0  0  0  0  0  0  0  0  0  # atno 10167 bound_to 10162
  156.0891  130.6077  150.8897 H   0  0  0  0  0  0  0  0  0  0  0  0  # atno 10718 bound_to 10713
  154.8660  135.3640  154.5231 H   0  0  0  0  0  0  0  0  0  0  0  0  # atno 10763 bound_to 10752
  153.5861  135.7017  153.5448 H   0  0  0  0  0  0  0  0  0  0  0  0  # atno 10764 bound_to 10752
  153.3415  135.4097  155.1537 H   0  0  0  0  0  0  0  0  0  0  0  0  # atno 10765 bound_to 10752
  139.8775  134.9007  156.4327 H   0  0  0  0  0  0  0  0  0  0  0  0  # atno 11005 bound_to 11000
  145.0057  140.8670  143.5255 LP  0  0  0  0  0  0  0  0  0  0  0  0  # atno 17320 bound_to 7965
  145.1677  139.2422  143.5358 LP  0  0  0  0  0  0  0  0  0  0  0  0  # atno 17321 bound_to 7965
  139.7762  144.7460  151.0153 LP  0  0  0  0  0  0  0  0  0  0  0  0  # atno 17342 bound_to 10162
  140.7814  143.4591  151.0304 LP  0  0  0  0  0  0  0  0  0  0  0  0  # atno 17343 bound_to 10162
  157.6035  131.0940  150.8919 LP  0  0  0  0  0  0  0  0  0  0  0  0  # atno 17370 bound_to 10713
  156.9072  130.5267  149.5281 LP  0  0  0  0  0  0  0  0  0  0  0  0  # atno 17371 bound_to 10713
  140.9055  133.7748  155.9730 LP  0  0  0  0  0  0  0  0  0  0  0  0  # atno 17394 bound_to 11000
  140.8603  134.2848  157.5237 LP  0  0  0  0  0  0  0  0  0  0  0  0  # atno 17395 bound_to 11000

$$$$
