AV-unprocessed.smi:529|AV-procd|sdf|2840|dock1
  -GOLD-   2262023333D 1   1.00000     0.00000
 Structure written by MMmdl.
 30 31  0  0  0  0  0  0  0  0  1 V2000
  149.7146  138.5813  153.7185 N   0  0  0  0  0  0  0  0  0  0  0  0
  148.9419  139.6100  153.6968 C   0  0  0  0  0  0  0  0  0  0  0  0
  147.3209  139.7360  152.8632 S   0  0  0  0  0  0  0  0  0  0  0  0
  147.1614  141.3808  153.4410 C   0  0  0  0  0  0  0  0  0  0  0  0
  148.2128  141.7637  154.1635 C   0  0  0  0  0  0  0  0  0  0  0  0
  149.2151  140.8286  154.3227 N   0  0  0  0  0  0  0  0  0  0  0  0
  150.4128  141.0921  155.1215 C   0  0  0  0  0  0  0  0  0  0  0  0
  150.1090  141.6955  156.4997 C   0  0  0  0  0  0  0  0  0  0  0  0
  148.9497  141.8802  156.8733 O   0  0  0  0  0  0  0  0  0  0  0  0
  151.1779  142.0107  157.2464 N   0  0  0  0  0  0  0  0  0  0  0  0
  151.1231  142.5961  158.5833 C   0  0  0  0  0  0  0  0  0  0  0  0
  150.4799  143.9990  158.5691 C   0  0  0  0  0  0  0  0  0  0  0  0
  151.4313  144.9103  159.3462 C   0  0  0  0  0  0  0  0  0  0  0  0
  152.8074  144.2884  159.1321 C   0  0  0  0  0  0  0  0  0  0  0  0
  152.5419  142.7830  159.1515 C   0  0  0  0  0  0  0  0  0  0  0  0
  149.3028  137.8221  153.1960 H   0  0  0  0  0  0  0  0  0  0  0  0
  146.2879  141.9729  153.2114 H   0  0  0  0  0  0  0  0  0  0  0  0
  148.3515  142.7271  154.6321 H   0  0  0  0  0  0  0  0  0  0  0  0
  150.9916  140.1756  155.2460 H   0  0  0  0  0  0  0  0  0  0  0  0
  151.0603  141.7830  154.5797 H   0  0  0  0  0  0  0  0  0  0  0  0
  152.0952  141.8322  156.8639 H   0  0  0  0  0  0  0  0  0  0  0  0
  150.5646  141.9310  159.2446 H   0  0  0  0  0  0  0  0  0  0  0  0
  150.3892  144.3715  157.5474 H   0  0  0  0  0  0  0  0  0  0  0  0
  149.4777  143.9952  158.9985 H   0  0  0  0  0  0  0  0  0  0  0  0
  151.3819  145.9484  159.0161 H   0  0  0  0  0  0  0  0  0  0  0  0
  151.1797  144.8854  160.4073 H   0  0  0  0  0  0  0  0  0  0  0  0
  153.1952  144.5819  158.1556 H   0  0  0  0  0  0  0  0  0  0  0  0
  153.5316  144.5973  159.8861 H   0  0  0  0  0  0  0  0  0  0  0  0
  152.5634  142.4310  160.1837 H   0  0  0  0  0  0  0  0  0  0  0  0
  153.3051  142.2240  158.6084 H   0  0  0  0  0  0  0  0  0  0  0  0
  1  2  2  0  0  0  0
  1 16  1  0  0  0  0
  2  6  1  0  0  0  0
  2  3  1  0  0  0  0
  3  4  1  0  0  0  0
  4  5  2  0  0  0  0
  4 17  1  0  0  0  0
  5  6  1  0  0  0  0
  5 18  1  0  0  0  0
  6  7  1  0  0  0  0
  7  8  1  0  0  0  0
  7 19  1  0  0  0  0
  7 20  1  0  0  0  0
  8  9  2  0  0  0  0
  8 10  1  0  0  0  0
 10 11  1  0  0  0  0
 10 21  1  0  0  0  0
 11 15  1  0  0  0  0
 11 12  1  0  0  0  0
 11 22  1  0  0  0  0
 12 13  1  0  0  0  0
 12 23  1  0  0  0  0
 12 24  1  0  0  0  0
 13 14  1  0  0  0  0
 13 25  1  0  0  0  0
 13 26  1  0  0  0  0
 14 15  1  0  0  0  0
 14 27  1  0  0  0  0
 14 28  1  0  0  0  0
 15 29  1  0  0  0  0
 15 30  1  0  0  0  0
M  END
> <s_m_source_file>
AV-unprocessed.smi

> <i_m_source_file_index>
529

> <i_lp_mmshare_version>
43012

> <i_f3d_flags>
0

> <s_epik_input>
W0hdL049YzFcc1tjSF1bY0hdbjFbQ0gyXUMoPU8pW05IXVtDSF0yW0NIMl1bQ0gyXVtDSDJdW0NIMl0y

> <s_epik_cmdline>
J2VwaWtfcHl0aG9uJywgJy1waCcsICc3LjAnLCAnLXRuJywgJzgnLCAnLW1hJywgJzIwMCcsICctbWV0YWxfYmluZGluZycsICctaW1hZScsICc8aW5maWxlLm1hZT4nLCAnLW9tYWUnLCAnPG91dGZpbGUubWFlPic=

> <r_epik_Ionization_Penalty>
2.18041

> <r_epik_Ionization_Penalty_Charging>
2.18041

> <r_epik_Ionization_Penalty_Neutral>
1.25369e-07

> <r_epik_State_Penalty>
2.33404

> <r_epik_Charging_Adjusted_Penalty>
4.51444

> <i_epik_Tot_Q>
0

> <i_epik_Tot_abs_Q>
0

> <r_epik_Metal_State_Penalty>
2.33404

> <b_epik_Metal_Only>
0

> <s_lp_Force_Field>
OPLS_2005

> <r_lp_Energy>
15.3577

> <b_lp_Chiralities_Consistent>
1

> <s_lp_Variant>
AV-unprocessed.smi:529-2

> <Gold.Version>
5.8.1

> <Gold.Id.Protein>
6NUR|6NUR_protein|mol2

> <Gold.PLP.Fitness>
40.1151

> <Gold.PLP.PLP>
-32.1345

> <Gold.PLP.part.hbond>
-1.9774

> <Gold.PLP.part.metal>
0.0000

> <Gold.PLP.part.buried>
-0.7192

> <Gold.PLP.part.nonpolar>
-30.8574

> <Gold.PLP.part.repulsive>
0.1654

> <Gold.PLP.ligand.clash>
0.0000

> <Gold.PLP.ligand.torsion>
0.1235

> <Gold.PLP.Chemscore.Hbond>
0.9588

> <Gold.PLP.Chemscore.CHOScore>
1.7794

> <Gold.PLP.Chemscore.Metal>
0.0000

> <Gold.Chemscore.Hbonds>
donor molecule, donor type, donor heavy atom, donor atom, acceptor molecule, acceptor atom, score
      L1  H     1    16       P1  7948  0.89
      L1  C     5    18       P1  8028  1.00

> <Gold.PLP.Chemscore.Internal.Correction>
0.0129

> <Gold.Rescore>
     Score         DG    S(hbond)    S(metal)    S(lipo)     H(rot)  DE(clash)    DE(int)     intcor
     12.29     -14.21       0.92        0.00      82.65       1.56       0.10       1.82       ----

> <Gold.Chemscore.Fitness>
12.2865

> <Gold.Chemscore.DG>
-14.2081

> <Gold.Chemscore.ZeroCoef>
-5.4800

> <Gold.Chemscore.Hbond>
0.9163

> <Gold.Chemscore.Metal>
0.0000

> <Gold.Chemscore.Lipo>
82.6518

> <Gold.Chemscore.Internal_Hbond>
0.0000

> <Gold.Chemscore.DEClash>
0.1033

> <Gold.Chemscore.DEInternal>
1.8183

> <Gold.Chemscore.Rot>
1.5635

> <Gold.Chemscore.Internal.Correction>
   9.000000E+99

> <Gold.Chemscore.Hbonds>
donor molecule, donor type, donor heavy atom, donor atom, acceptor molecule, acceptor atom, score
      L1  H     1    16       P1  7948  0.84

> <Gold.Chemscore.Hbond.Weighted>
-3.0604

> <Gold.Chemscore.Metal.Weighted>
-0.0000

> <Gold.Chemscore.Lipo.Weighted>
-9.6703

> <Gold.Chemscore.Internal_Hbond.Weighted>
0.0000

> <Gold.Chemscore.DEClash.Weighted>
0.1033

> <Gold.Chemscore.DEInternal.Weighted>
1.8183

> <Gold.Chemscore.Rot.Weighted>
4.0025

> <Gold.Chemscore.Internal.Correction.Weighted>
   9.000000E+99

> <Gold.Protein.RotatedTorsions>
[ 6907 6896 6895 6894 ] final  115.37 input  -60.11 | X-H torsion
[ 7974 7965 7964 7962 ] final  -12.03 input  175.53 | X-H torsion
[ 8008 7997 7996 7995 ] final -104.35 input   59.86 | X-H torsion
[ 10167 10162 10161 10158 ] final   -1.84 input  -65.29 | X-H torsion
[ 10718 10713 10712 10709 ] final -118.28 input   66.30 | X-H torsion
[ 10763 10752 10751 10750 ] final  102.23 input  -60.55 | X-H torsion
[ 11005 11000 10999 10996 ] final  149.11 input  -57.11 | X-H torsion

> <Gold.Protein.ActiveResidues>
 VAL166  LYS551  ARG553  GLY616  TRP617  ASP618  TYR619  PRO620  LYS621  CYS622 
 ASP623  PHE694  ASN695  SER759  ASP760  ASP761  ALA762  ILE779  LEU786  VAL792 
 PHE793  MET794  SER795  GLU796  ALA797  LYS798  CYS799  TRP800  GLU811  SER814 

> <Gold.Protein.RotatedAtoms>
  152.4745  133.8107  159.7001 H   0  0  0  0  0  0  0  0  0  0  0  0  # atno 6907 bound_to 6896
  150.8754  133.7436  159.2954 H   0  0  0  0  0  0  0  0  0  0  0  0  # atno 6908 bound_to 6896
  151.4958  135.1063  159.9868 H   0  0  0  0  0  0  0  0  0  0  0  0  # atno 6909 bound_to 6896
  146.2166  140.2998  142.8374 H   0  0  0  0  0  0  0  0  0  0  0  0  # atno 7974 bound_to 7965
  154.8840  140.0418  157.1799 H   0  0  0  0  0  0  0  0  0  0  0  0  # atno 8008 bound_to 7997
  154.8609  140.2944  155.5519 H   0  0  0  0  0  0  0  0  0  0  0  0  # atno 8009 bound_to 7997
  156.2998  140.2447  156.3583 H   0  0  0  0  0  0  0  0  0  0  0  0  # atno 8010 bound_to 7997
  140.6827  143.6728  150.8171 H   0  0  0  0  0  0  0  0  0  0  0  0  # atno 10167 bound_to 10162
  156.1094  130.6237  150.9270 H   0  0  0  0  0  0  0  0  0  0  0  0  # atno 10718 bound_to 10713
  153.3368  135.4018  155.1540 H   0  0  0  0  0  0  0  0  0  0  0  0  # atno 10763 bound_to 10752
  154.8635  135.3624  154.5397 H   0  0  0  0  0  0  0  0  0  0  0  0  # atno 10764 bound_to 10752
  153.5840  135.7076  153.5511 H   0  0  0  0  0  0  0  0  0  0  0  0  # atno 10765 bound_to 10752
  140.1017  134.8979  157.1805 H   0  0  0  0  0  0  0  0  0  0  0  0  # atno 11005 bound_to 11000
  144.9065  140.7706  143.5834 LP  0  0  0  0  0  0  0  0  0  0  0  0  # atno 17320 bound_to 7965
  145.2927  139.1878  143.4732 LP  0  0  0  0  0  0  0  0  0  0  0  0  # atno 17321 bound_to 7965
  140.0430  143.5326  152.2709 LP  0  0  0  0  0  0  0  0  0  0  0  0  # atno 17342 bound_to 10162
  139.6161  144.7619  151.2844 LP  0  0  0  0  0  0  0  0  0  0  0  0  # atno 17343 bound_to 10162
  157.6274  131.0924  150.8507 LP  0  0  0  0  0  0  0  0  0  0  0  0  # atno 17370 bound_to 10713
  156.8620  130.5116  149.5303 LP  0  0  0  0  0  0  0  0  0  0  0  0  # atno 17371 bound_to 10713
  140.3211  134.2915  155.7246 LP  0  0  0  0  0  0  0  0  0  0  0  0  # atno 17394 bound_to 11000
  141.2107  133.7710  156.9912 LP  0  0  0  0  0  0  0  0  0  0  0  0  # atno 17395 bound_to 11000

$$$$
