AV-unprocessed.smi:83|AV-procd|sdf|804|dock4
  -GOLD-   2262017193D 1   1.00000     0.00000
 Structure written by MMmdl.
 56 59  0  0  0  0  0  0  0  0  1 V2000
  148.0922  145.2545  160.6098 C   0  0  0  0  0  0  0  0  0  0  0  0
  148.5781  144.2272  159.5858 C   0  0  0  0  0  0  0  0  0  0  0  0
  147.7468  143.5638  158.9668 O   0  0  0  0  0  0  0  0  0  0  0  0
  149.9056  144.0819  159.3983 N   0  0  0  0  0  0  0  0  0  0  0  0
  150.9180  144.8562  160.1116 C   0  0  0  0  0  0  0  0  0  0  0  0
  152.2619  144.4021  159.5329 C   0  0  0  0  0  0  0  0  0  0  0  0
  151.9948  142.9888  159.0157 C   0  0  1  0  0  0  0  0  0  0  0  0
  152.1971  141.9597  160.1555 C   0  0  0  0  0  0  0  0  0  0  0  0
  153.5296  141.9845  160.7617 N   0  0  0  0  0  0  0  0  0  0  0  0
  154.6083  141.3330  160.0211 C   0  0  0  0  0  0  0  0  0  0  0  0
  153.6921  142.2063  162.1005 C   0  0  0  0  0  0  0  0  0  0  0  0
  153.0029  143.2337  162.6685 N   0  0  0  0  0  0  0  0  0  0  0  0
  153.1532  143.5352  163.9600 C   0  0  0  0  0  0  0  0  0  0  0  0
  153.9353  142.9496  164.8655 N   0  0  0  0  0  0  0  0  0  0  0  0
  154.6222  141.9074  164.3195 C   0  0  0  0  0  0  0  0  0  0  0  0
  154.5566  141.4620  162.9655 C   0  0  0  0  0  0  0  0  0  0  0  0
  155.3949  140.3614  162.8102 N   0  0  0  0  0  0  0  0  0  0  0  0
  155.9366  140.1849  163.9823 C   0  0  0  0  0  0  0  0  0  0  0  0
  155.5293  141.0726  164.9478 N   0  0  0  0  0  0  0  0  0  0  0  0
  155.9720  141.1088  166.3301 C   0  0  0  0  0  0  0  0  0  0  0  0
  155.2576  142.2022  167.1483 C   0  0  2  0  0  0  0  0  0  0  0  0
  155.6449  143.4743  166.6648 O   0  0  0  0  0  0  0  0  0  0  0  0
  155.5892  142.1155  168.6494 C   0  0  1  0  0  0  0  0  0  0  0  0
  154.8018  143.0869  169.5286 C   0  0  0  0  0  0  0  0  0  0  0  0
  154.9054  142.4242  170.8831 C   0  0  0  0  0  0  0  0  0  0  0  0
  154.8248  140.9417  170.5254 C   0  0  0  0  0  0  0  0  0  0  0  0
  155.2368  140.8347  169.1647 O   0  0  0  0  0  0  0  0  0  0  0  0
  150.5476  143.1140  158.5128 C   0  0  0  0  0  0  0  0  0  0  0  0
  148.5529  145.0802  161.5822 H   0  0  0  0  0  0  0  0  0  0  0  0
  147.0110  145.1914  160.7344 H   0  0  0  0  0  0  0  0  0  0  0  0
  148.3323  146.2665  160.2851 H   0  0  0  0  0  0  0  0  0  0  0  0
  150.7706  145.9299  159.9876 H   0  0  0  0  0  0  0  0  0  0  0  0
  150.8605  144.6256  161.1764 H   0  0  0  0  0  0  0  0  0  0  0  0
  152.5320  145.0482  158.6964 H   0  0  0  0  0  0  0  0  0  0  0  0
  153.0732  144.4534  160.2597 H   0  0  0  0  0  0  0  0  0  0  0  0
  152.6681  142.7471  158.1926 H   0  0  0  0  0  0  0  0  0  0  0  0
  151.4869  142.1917  160.9497 H   0  0  0  0  0  0  0  0  0  0  0  0
  151.9067  140.9657  159.8334 H   0  0  0  0  0  0  0  0  0  0  0  0
  155.5547  141.8532  160.1737 H   0  0  0  0  0  0  0  0  0  0  0  0
  154.4028  141.3333  158.9504 H   0  0  0  0  0  0  0  0  0  0  0  0
  154.7239  140.2964  160.3398 H   0  0  0  0  0  0  0  0  0  0  0  0
  152.5679  144.3700  164.3165 H   0  0  0  0  0  0  0  0  0  0  0  0
  156.6520  139.3989  164.1755 H   0  0  0  0  0  0  0  0  0  0  0  0
  155.7869  140.1268  166.7669 H   0  0  0  0  0  0  0  0  0  0  0  0
  157.0522  141.2576  166.3511 H   0  0  0  0  0  0  0  0  0  0  0  0
  154.1795  142.1062  167.0123 H   0  0  0  0  0  0  0  0  0  0  0  0
  155.1165  144.1311  167.0921 H   0  0  0  0  0  0  0  0  0  0  0  0
  156.6582  142.2629  168.8139 H   0  0  0  0  0  0  0  0  0  0  0  0
  155.2088  144.0984  169.5175 H   0  0  0  0  0  0  0  0  0  0  0  0
  153.7583  143.1333  169.2137 H   0  0  0  0  0  0  0  0  0  0  0  0
  155.8730  142.6495  171.3330 H   0  0  0  0  0  0  0  0  0  0  0  0
  154.1250  142.7391  171.5763 H   0  0  0  0  0  0  0  0  0  0  0  0
  155.4522  140.3316  171.1756 H   0  0  0  0  0  0  0  0  0  0  0  0
  153.7999  140.5785  170.6067 H   0  0  0  0  0  0  0  0  0  0  0  0
  150.0279  142.1605  158.4632 H   0  0  0  0  0  0  0  0  0  0  0  0
  150.5410  143.5271  157.5033 H   0  0  0  0  0  0  0  0  0  0  0  0
  1  2  1  0  0  0  0
  1 29  1  0  0  0  0
  1 30  1  0  0  0  0
  1 31  1  0  0  0  0
  2  3  2  0  0  0  0
  2  4  1  0  0  0  0
  4 28  1  0  0  0  0
  4  5  1  0  0  0  0
  5  6  1  0  0  0  0
  5 32  1  0  0  0  0
  5 33  1  0  0  0  0
  6  7  1  0  0  0  0
  6 34  1  0  0  0  0
  6 35  1  0  0  0  0
  7  8  1  0  0  0  0
  7 28  1  0  0  0  0
  7 36  1  0  0  0  0
  8  9  1  0  0  0  0
  8 37  1  0  0  0  0
  8 38  1  0  0  0  0
  9 10  1  0  0  0  0
  9 11  1  0  0  0  0
 10 39  1  0  0  0  0
 10 40  1  0  0  0  0
 10 41  1  0  0  0  0
 11 16  1  0  0  0  0
 11 12  2  0  0  0  0
 12 13  1  0  0  0  0
 13 14  2  0  0  0  0
 13 42  1  0  0  0  0
 14 15  1  0  0  0  0
 15 19  1  0  0  0  0
 15 16  2  0  0  0  0
 16 17  1  0  0  0  0
 17 18  2  0  0  0  0
 18 19  1  0  0  0  0
 18 43  1  0  0  0  0
 19 20  1  0  0  0  0
 20 21  1  0  0  0  0
 20 44  1  0  0  0  0
 20 45  1  0  0  0  0
 21 22  1  0  0  0  0
 21 23  1  0  0  0  0
 21 46  1  0  0  0  0
 22 47  1  0  0  0  0
 23 27  1  0  0  0  0
 23 24  1  0  0  0  0
 23 48  1  0  0  0  0
 24 25  1  0  0  0  0
 24 49  1  0  0  0  0
 24 50  1  0  0  0  0
 25 26  1  0  0  0  0
 25 51  1  0  0  0  0
 25 52  1  0  0  0  0
 26 27  1  0  0  0  0
 26 53  1  0  0  0  0
 26 54  1  0  0  0  0
 28 55  1  0  0  0  0
 28 56  1  0  0  0  0
M  END
> <s_m_source_file>
AV-unprocessed.smi

> <i_m_source_file_index>
83

> <i_lp_mmshare_version>
43012

> <i_f3d_flags>
0

> <s_epik_input>
W0NIM11DKD1PKU4xW0NIMl1bQ0gyXVtDQEhdKFtDSDJdMSlbQ0gyXU4oW0NIM10pYyhuW2NIXW4yKWMoYzIzKW5bY0hdbjNbQ0gyXVtDQEhdKFtPSF0pW0NAQEhdNFtDSDJdW0NIMl1bQ0gyXU80

> <s_epik_cmdline>
J2VwaWtfcHl0aG9uJywgJy1waCcsICc3LjAnLCAnLXRuJywgJzgnLCAnLW1hJywgJzIwMCcsICctbWV0YWxfYmluZGluZycsICctaW1hZScsICc8aW5maWxlLm1hZT4nLCAnLW9tYWUnLCAnPG91dGZpbGUubWFlPic=

> <r_lp_tautomer_probability>
1

> <r_epik_Ionization_Penalty>
0.00109752

> <r_epik_Ionization_Penalty_Charging>
0

> <r_epik_Ionization_Penalty_Neutral>
0.00109752

> <r_epik_State_Penalty>
0.000634803

> <r_epik_Charging_Adjusted_Penalty>
0.000634803

> <i_epik_Tot_Q>
0

> <i_epik_Tot_abs_Q>
0

> <r_epik_Metal_State_Penalty>
-0

> <b_epik_Metal_Only>
0

> <s_lp_Force_Field>
OPLS_2005

> <r_lp_Energy>
53.0153

> <b_lp_Chiralities_Consistent>
1

> <s_lp_Variant>
AV-unprocessed.smi:83-5

> <Gold.Version>
5.8.1

> <Gold.Id.Protein>
6NUR|6NUR_protein|mol2

> <Gold.PLP.Fitness>
49.9902

> <Gold.PLP.PLP>
-51.2153

> <Gold.PLP.part.hbond>
-1.5431

> <Gold.PLP.part.metal>
0.0000

> <Gold.PLP.part.buried>
-2.9557

> <Gold.PLP.part.nonpolar>
-46.5186

> <Gold.PLP.part.repulsive>
1.3789

> <Gold.PLP.ligand.clash>
0.2906

> <Gold.PLP.ligand.torsion>
0.7202

> <Gold.PLP.Chemscore.Hbond>
0.0000

> <Gold.PLP.Chemscore.CHOScore>
0.0000

> <Gold.PLP.Chemscore.Metal>
0.0000

> <Gold.PLP.Chemscore.Internal.Correction>
0.5058

> <Gold.Rescore>
     Score         DG    S(hbond)    S(metal)    S(lipo)     H(rot)  DE(clash)    DE(int)     intcor
      7.03     -10.28       0.00        0.00      98.26       2.62       0.29       2.96       ----

> <Gold.Chemscore.Fitness>
7.0309

> <Gold.Chemscore.DG>
-10.2813

> <Gold.Chemscore.ZeroCoef>
-5.4800

> <Gold.Chemscore.Hbond>
0.0000

> <Gold.Chemscore.Metal>
0.0000

> <Gold.Chemscore.Lipo>
98.2578

> <Gold.Chemscore.Internal_Hbond>
0.0000

> <Gold.Chemscore.DEClash>
0.2931

> <Gold.Chemscore.DEInternal>
2.9573

> <Gold.Chemscore.Rot>
2.6152

> <Gold.Chemscore.Internal.Correction>
   9.000000E+99

> <Gold.Chemscore.Hbond.Weighted>
-0.0000

> <Gold.Chemscore.Metal.Weighted>
-0.0000

> <Gold.Chemscore.Lipo.Weighted>
-11.4962

> <Gold.Chemscore.Internal_Hbond.Weighted>
0.0000

> <Gold.Chemscore.DEClash.Weighted>
0.2931

> <Gold.Chemscore.DEInternal.Weighted>
2.9573

> <Gold.Chemscore.Rot.Weighted>
6.6949

> <Gold.Chemscore.Internal.Correction.Weighted>
   9.000000E+99

> <Gold.Protein.RotatedTorsions>
[ 6907 6896 6895 6894 ] final -173.14 input  -60.11 | X-H torsion
[ 7974 7965 7964 7962 ] final  -71.61 input  175.53 | X-H torsion
[ 8008 7997 7996 7995 ] final   93.43 input   59.86 | X-H torsion
[ 10167 10162 10161 10158 ] final  -20.16 input  -65.29 | X-H torsion
[ 10718 10713 10712 10709 ] final -169.94 input   66.30 | X-H torsion
[ 10763 10752 10751 10750 ] final  131.36 input  -60.55 | X-H torsion
[ 11005 11000 10999 10996 ] final -163.13 input  -57.11 | X-H torsion

> <Gold.Protein.ActiveResidues>
 VAL166  LYS551  ARG553  GLY616  TRP617  ASP618  TYR619  PRO620  LYS621  CYS622 
 ASP623  PHE694  ASN695  SER759  ASP760  ASP761  ALA762  ILE779  LEU786  VAL792 
 PHE793  MET794  SER795  GLU796  ALA797  LYS798  CYS799  TRP800  GLU811  SER814 

> <Gold.Protein.RotatedAtoms>
  151.5513  133.3417  159.2953 H   0  0  0  0  0  0  0  0  0  0  0  0  # atno 6907 bound_to 6896
  150.8477  134.7794  159.6995 H   0  0  0  0  0  0  0  0  0  0  0  0  # atno 6908 bound_to 6896
  152.4531  134.5359  159.9876 H   0  0  0  0  0  0  0  0  0  0  0  0  # atno 6909 bound_to 6896
  145.6758  140.9205  143.0858 H   0  0  0  0  0  0  0  0  0  0  0  0  # atno 7974 bound_to 7965
  156.0466  140.3313  155.7303 H   0  0  0  0  0  0  0  0  0  0  0  0  # atno 8008 bound_to 7997
  155.5664  140.0624  157.2834 H   0  0  0  0  0  0  0  0  0  0  0  0  # atno 8009 bound_to 7997
  154.4416  140.1868  156.0823 H   0  0  0  0  0  0  0  0  0  0  0  0  # atno 8010 bound_to 7997
  140.7274  143.4749  151.0196 H   0  0  0  0  0  0  0  0  0  0  0  0  # atno 10167 bound_to 10162
  156.7190  130.9262  151.3096 H   0  0  0  0  0  0  0  0  0  0  0  0  # atno 10718 bound_to 10713
  153.7731  135.3179  155.3355 H   0  0  0  0  0  0  0  0  0  0  0  0  # atno 10763 bound_to 10752
  154.8189  135.4617  154.0725 H   0  0  0  0  0  0  0  0  0  0  0  0  # atno 10764 bound_to 10752
  153.1990  135.6920  153.8340 H   0  0  0  0  0  0  0  0  0  0  0  0  # atno 10765 bound_to 10752
  140.6015  134.4942  157.5205 H   0  0  0  0  0  0  0  0  0  0  0  0  # atno 11005 bound_to 11000
  144.7042  139.8632  143.7435 LP  0  0  0  0  0  0  0  0  0  0  0  0  # atno 17320 bound_to 7965
  146.1006  139.4001  143.0349 LP  0  0  0  0  0  0  0  0  0  0  0  0  # atno 17321 bound_to 7965
  139.8444  143.7521  152.3179 LP  0  0  0  0  0  0  0  0  0  0  0  0  # atno 17342 bound_to 10162
  139.7681  144.7485  151.0264 LP  0  0  0  0  0  0  0  0  0  0  0  0  # atno 17343 bound_to 10162
  157.6906  130.9229  150.0503 LP  0  0  0  0  0  0  0  0  0  0  0  0  # atno 17370 bound_to 10713
  156.1608  130.3644  149.9302 LP  0  0  0  0  0  0  0  0  0  0  0  0  # atno 17371 bound_to 10713
  139.9230  134.8110  156.1152 LP  0  0  0  0  0  0  0  0  0  0  0  0  # atno 17394 bound_to 11000
  141.0869  133.6730  156.2455 LP  0  0  0  0  0  0  0  0  0  0  0  0  # atno 17395 bound_to 11000

$$$$
