AV-unprocessed.smi:2002|AV-procd|sdf|8116|dock2
  -GOLD-   2272010343D 1   1.00000     0.00000
 Structure written by MMmdl.
 39 40  0  0  0  0  0  0  0  0  2 V2000
  145.6256  132.9417  150.4584 C   0  0  0  0  0  0  0  0  0  0  0  0
  145.6782  132.0772  151.7253 C   0  0  0  0  0  0  0  0  0  0  0  0
  147.0676  131.8297  152.1787 N   0  3  2  0  0  0  0  0  0  0  0  0
  147.2121  130.6701  153.0909 C   0  0  0  0  0  0  0  0  0  0  0  0
  148.0578  131.1427  154.2779 C   0  0  0  0  0  0  0  0  0  0  0  0
  148.7813  132.3836  153.7550 C   0  0  2  0  0  0  0  0  0  0  0  0
  149.2820  133.3581  154.8383 C   0  0  0  0  0  0  0  0  0  0  0  0
  149.4246  134.7180  154.3262 N   0  0  0  0  0  0  0  0  0  0  0  0
  149.8335  135.7790  155.0378 C   0  0  0  0  0  0  0  0  0  0  0  0
  150.1468  135.7173  156.2267 O   0  0  0  0  0  0  0  0  0  0  0  0
  149.8623  136.8894  154.2819 N   0  0  0  0  0  0  0  0  0  0  0  0
  150.2173  138.2084  154.6659 C   0  0  0  0  0  0  0  0  0  0  0  0
  149.3884  139.1380  155.3594 C   0  0  0  0  0  0  0  0  0  0  0  0
  150.1886  140.2400  155.4680 C   0  0  0  0  0  0  0  0  0  0  0  0
  149.9818  141.5875  156.0698 C   0  0  0  0  0  0  0  0  0  0  0  0
  151.3994  140.0052  154.8945 O   0  0  0  0  0  0  0  0  0  0  0  0
  151.4081  138.7027  154.3814 N   0  0  0  0  0  0  0  0  0  0  0  0
  147.7319  132.9861  152.8204 C   0  0  0  0  0  0  0  0  0  0  0  0
  144.5963  133.0660  150.1206 H   0  0  0  0  0  0  0  0  0  0  0  0
  146.1875  132.4832  149.6442 H   0  0  0  0  0  0  0  0  0  0  0  0
  146.0347  133.9372  150.6317 H   0  0  0  0  0  0  0  0  0  0  0  0
  145.1011  132.5399  152.5274 H   0  0  0  0  0  0  0  0  0  0  0  0
  145.2047  131.1179  151.5116 H   0  0  0  0  0  0  0  0  0  0  0  0
  146.2510  130.2813  153.4307 H   0  0  0  0  0  0  0  0  0  0  0  0
  147.7193  129.8701  152.5514 H   0  0  0  0  0  0  0  0  0  0  0  0
  147.4002  131.4170  155.1039 H   0  0  0  0  0  0  0  0  0  0  0  0
  148.7409  130.3729  154.6382 H   0  0  0  0  0  0  0  0  0  0  0  0
  149.6297  132.0581  153.1501 H   0  0  0  0  0  0  0  0  0  0  0  0
  148.5644  133.3892  155.6586 H   0  0  0  0  0  0  0  0  0  0  0  0
  150.2203  133.0061  155.2706 H   0  0  0  0  0  0  0  0  0  0  0  0
  149.1859  134.8638  153.3560 H   0  0  0  0  0  0  0  0  0  0  0  0
  149.5991  136.7806  153.3136 H   0  0  0  0  0  0  0  0  0  0  0  0
  148.3761  139.0339  155.7195 H   0  0  0  0  0  0  0  0  0  0  0  0
  148.9361  141.7362  156.3399 H   0  0  0  0  0  0  0  0  0  0  0  0
  150.2636  142.3726  155.3681 H   0  0  0  0  0  0  0  0  0  0  0  0
  150.5841  141.7049  156.9706 H   0  0  0  0  0  0  0  0  0  0  0  0
  148.1712  133.6561  152.0807 H   0  0  0  0  0  0  0  0  0  0  0  0
  147.0028  133.5559  153.3996 H   0  0  0  0  0  0  0  0  0  0  0  0
  147.6128  131.6029  151.3590 H   0  0  0  0  0  0  0  0  0  0  0  0
  1  2  1  0  0  0  0
  1 19  1  0  0  0  0
  1 20  1  0  0  0  0
  1 21  1  0  0  0  0
  2  3  1  0  0  0  0
  2 22  1  0  0  0  0
  2 23  1  0  0  0  0
  3 18  1  0  0  0  0
  3  4  1  0  0  0  0
  3 39  1  0  0  0  0
  4  5  1  0  0  0  0
  4 24  1  0  0  0  0
  4 25  1  0  0  0  0
  5  6  1  0  0  0  0
  5 26  1  0  0  0  0
  5 27  1  0  0  0  0
  6  7  1  0  0  0  0
  6 18  1  0  0  0  0
  6 28  1  0  0  0  0
  7  8  1  0  0  0  0
  7 29  1  0  0  0  0
  7 30  1  0  0  0  0
  8  9  1  0  0  0  0
  8 31  1  0  0  0  0
  9 10  2  0  0  0  0
  9 11  1  0  0  0  0
 11 12  1  0  0  0  0
 11 32  1  0  0  0  0
 12 17  2  0  0  0  0
 12 13  1  0  0  0  0
 13 14  2  0  0  0  0
 13 33  1  0  0  0  0
 14 15  1  0  0  0  0
 14 16  1  0  0  0  0
 15 34  1  0  0  0  0
 15 35  1  0  0  0  0
 15 36  1  0  0  0  0
 16 17  1  0  0  0  0
 18 37  1  0  0  0  0
 18 38  1  0  0  0  0
M  CHG  1   3   1
M  END
> <s_m_source_file>
AV-unprocessed.smi

> <i_m_source_file_index>
2002

> <i_lp_mmshare_version>
43012

> <i_f3d_flags>
0

> <s_epik_input>
W0NIM11bQ0gyXU4xW0NIMl1bQ0gyXVtDQEhdKFtDSDJdMSlbQ0gyXVtOSF1DKD1PKVtOSF1jMltjSF1jKFtDSDNdKW9uMg==

> <s_epik_cmdline>
J2VwaWtfcHl0aG9uJywgJy1waCcsICc3LjAnLCAnLXRuJywgJzgnLCAnLW1hJywgJzIwMCcsICctbWV0YWxfYmluZGluZycsICctaW1hZScsICc8aW5maWxlLm1hZT4nLCAnLW9tYWUnLCAnPG91dGZpbGUubWFlPic=

> <r_epik_Ionization_Penalty>
0.000632871

> <r_epik_Ionization_Penalty_Charging>
0.000610951

> <r_epik_Ionization_Penalty_Neutral>
2.19198e-05

> <r_epik_State_Penalty>
0.000385263

> <r_epik_Charging_Adjusted_Penalty>
0.000996214

> <i_epik_Tot_Q>
1

> <i_epik_Tot_abs_Q>
1

> <r_epik_Metal_State_Penalty>
-0

> <b_epik_Metal_Only>
0

> <s_lp_Force_Field>
OPLS_2005

> <r_lp_Energy>
28.1542

> <b_lp_Chiralities_Consistent>
1

> <s_lp_Variant>
AV-unprocessed.smi:2002-4

> <Gold.Version>
5.8.1

> <Gold.Id.Protein>
6NUR|6NUR_protein|mol2

> <Gold.PLP.Fitness>
39.9706

> <Gold.PLP.PLP>
-31.5100

> <Gold.PLP.part.hbond>
-4.8335

> <Gold.PLP.part.metal>
0.0000

> <Gold.PLP.part.buried>
-3.4910

> <Gold.PLP.part.nonpolar>
-24.1943

> <Gold.PLP.part.repulsive>
0.2977

> <Gold.PLP.ligand.clash>
0.0000

> <Gold.PLP.ligand.torsion>
1.1057

> <Gold.PLP.Chemscore.Hbond>
3.5472

> <Gold.PLP.Chemscore.CHOScore>
0.0000

> <Gold.PLP.Chemscore.Metal>
0.0000

> <Gold.Chemscore.Hbonds>
donor molecule, donor type, donor heavy atom, donor atom, acceptor molecule, acceptor atom, score
      L1  H     3    39       P1 10747  1.00
      L1  H     8    31       P1  7948  0.71
      L1  H    11    32       P1  7948  1.00
      P1  H  7989  7998       L1    16  1.00

> <Gold.PLP.Chemscore.Internal.Correction>
0.0304

> <Gold.Rescore>
     Score         DG    S(hbond)    S(metal)    S(lipo)     H(rot)  DE(clash)    DE(int)     intcor
     14.06     -15.07       2.00        0.00      58.09       1.52       0.05       0.96       ----

> <Gold.Chemscore.Fitness>
14.0642

> <Gold.Chemscore.DG>
-15.0743

> <Gold.Chemscore.ZeroCoef>
-5.4800

> <Gold.Chemscore.Hbond>
2.0044

> <Gold.Chemscore.Metal>
0.0000

> <Gold.Chemscore.Lipo>
58.0898

> <Gold.Chemscore.Internal_Hbond>
0.0000

> <Gold.Chemscore.DEClash>
0.0477

> <Gold.Chemscore.DEInternal>
0.9623

> <Gold.Chemscore.Rot>
1.5223

> <Gold.Chemscore.Internal.Correction>
   9.000000E+99

> <Gold.Chemscore.Hbonds>
donor molecule, donor type, donor heavy atom, donor atom, acceptor molecule, acceptor atom, score
      L1  H     3    39       P1 10747  0.99
      L1  H     8    31       P1  7948  0.08
      L1  H    11    32       P1  7948  0.65
      P1  H  7989  7998       L1    16  0.22

> <Gold.Chemscore.Hbond.Weighted>
-6.6948

> <Gold.Chemscore.Metal.Weighted>
-0.0000

> <Gold.Chemscore.Lipo.Weighted>
-6.7965

> <Gold.Chemscore.Internal_Hbond.Weighted>
0.0000

> <Gold.Chemscore.DEClash.Weighted>
0.0477

> <Gold.Chemscore.DEInternal.Weighted>
0.9623

> <Gold.Chemscore.Rot.Weighted>
3.8971

> <Gold.Chemscore.Internal.Correction.Weighted>
   9.000000E+99

> <Gold.Protein.RotatedTorsions>
[ 6907 6896 6895 6894 ] final -119.86 input  -60.11 | X-H torsion
[ 7974 7965 7964 7962 ] final    1.86 input  175.53 | X-H torsion
[ 8008 7997 7996 7995 ] final   39.65 input   59.86 | X-H torsion
[ 10167 10162 10161 10158 ] final  179.17 input  -65.29 | X-H torsion
[ 10718 10713 10712 10709 ] final   15.06 input   66.30 | X-H torsion
[ 10763 10752 10751 10750 ] final  169.46 input  -60.55 | X-H torsion
[ 11005 11000 10999 10996 ] final  -79.30 input  -57.11 | X-H torsion

> <Gold.Protein.ActiveResidues>
 VAL166  LYS551  ARG553  GLY616  TRP617  ASP618  TYR619  PRO620  LYS621  CYS622 
 ASP623  PHE694  ASN695  SER759  ASP760  ASP761  ALA762  ILE779  LEU786  VAL792 
 PHE793  MET794  SER795  GLU796  ALA797  LYS798  CYS799  TRP800  GLU811  SER814 

> <Gold.Protein.RotatedAtoms>
  150.8342  133.8040  159.3086 H   0  0  0  0  0  0  0  0  0  0  0  0  # atno 6907 bound_to 6896
  151.5761  135.1059  160.0016 H   0  0  0  0  0  0  0  0  0  0  0  0  # atno 6908 bound_to 6896
  152.4417  133.7419  159.6702 H   0  0  0  0  0  0  0  0  0  0  0  0  # atno 6909 bound_to 6896
  146.2442  140.0924  142.8351 H   0  0  0  0  0  0  0  0  0  0  0  0  # atno 7974 bound_to 7965
  155.2402  140.3345  155.4293 H   0  0  0  0  0  0  0  0  0  0  0  0  # atno 8008 bound_to 7997
  156.2259  140.1829  156.7409 H   0  0  0  0  0  0  0  0  0  0  0  0  # atno 8009 bound_to 7997
  154.5898  140.0640  156.9208 H   0  0  0  0  0  0  0  0  0  0  0  0  # atno 8010 bound_to 7997
  139.5325  144.2593  152.0720 H   0  0  0  0  0  0  0  0  0  0  0  0  # atno 10167 bound_to 10162
  157.0481  130.6259  149.5763 H   0  0  0  0  0  0  0  0  0  0  0  0  # atno 10718 bound_to 10713
  154.3835  135.2753  155.2197 H   0  0  0  0  0  0  0  0  0  0  0  0  # atno 10763 bound_to 10752
  154.4294  135.5981  153.6062 H   0  0  0  0  0  0  0  0  0  0  0  0  # atno 10764 bound_to 10752
  152.9834  135.5992  154.4081 H   0  0  0  0  0  0  0  0  0  0  0  0  # atno 10765 bound_to 10752
  141.1667  133.7100  156.8101 H   0  0  0  0  0  0  0  0  0  0  0  0  # atno 11005 bound_to 11000
  145.0639  140.9107  143.4922 LP  0  0  0  0  0  0  0  0  0  0  0  0  # atno 17320 bound_to 7965
  145.1044  139.2800  143.5669 LP  0  0  0  0  0  0  0  0  0  0  0  0  # atno 17321 bound_to 7965
  140.2058  144.4612  150.6409 LP  0  0  0  0  0  0  0  0  0  0  0  0  # atno 17342 bound_to 10162
  140.6512  143.2225  151.6073 LP  0  0  0  0  0  0  0  0  0  0  0  0  # atno 17343 bound_to 10162
  156.0016  130.5096  150.7684 LP  0  0  0  0  0  0  0  0  0  0  0  0  # atno 17370 bound_to 10713
  157.5051  131.0921  151.0266 LP  0  0  0  0  0  0  0  0  0  0  0  0  # atno 17371 bound_to 10713
  140.2194  134.8769  157.3360 LP  0  0  0  0  0  0  0  0  0  0  0  0  # atno 17394 bound_to 11000
  140.2004  134.4262  155.7666 LP  0  0  0  0  0  0  0  0  0  0  0  0  # atno 17395 bound_to 11000

$$$$
