AV-unprocessed.smi:3241|AV-procd|sdf|12390|dock4
  -GOLD-   2272018263D 1   1.00000     0.00000
 Structure written by MMmdl.
 43 44  0  0  0  0  0  0  0  0  1 V2000
  153.4927  139.3273  159.5608 C   0  0  0  0  0  0  0  0  0  0  0  0
  152.5202  140.5127  159.4587 C   0  0  1  0  0  0  0  0  0  0  0  0
  153.2643  141.8606  159.3716 C   0  0  0  0  0  0  0  0  0  0  0  0
  152.2842  143.0431  159.3092 C   0  0  0  0  0  0  0  0  0  0  0  0
  151.2897  142.8839  158.1493 C   0  0  0  0  0  0  0  0  0  0  0  0
  150.5462  141.5406  158.2341 C   0  0  0  0  0  0  0  0  0  0  0  0
  151.5256  140.3482  158.2878 C   0  0  1  0  0  0  0  0  0  0  0  0
  152.2658  140.2658  157.0750 O   0  0  0  0  0  0  0  0  0  0  0  0
  151.4719  140.1596  155.9030 C   0  0  0  0  0  0  0  0  0  0  0  0
  151.8027  138.8330  155.2127 C   0  0  0  0  0  0  0  0  0  0  0  0
  151.4169  137.7056  156.0530 N   0  0  0  0  0  0  0  0  0  0  0  0
  151.3520  136.4346  155.3378 C   0  0  0  0  0  0  0  0  0  0  0  0
  150.9201  135.2844  156.2622 C   0  0  0  0  0  0  0  0  0  0  0  0
  150.9134  134.0012  155.5823 N   0  0  0  0  0  0  0  0  0  0  0  0
  150.1353  133.6032  154.5158 C   0  0  0  0  0  0  0  0  0  0  0  0
  150.4838  132.3175  154.2156 C   0  0  0  0  0  0  0  0  0  0  0  0
  151.4968  132.0114  155.1667 C   0  0  0  0  0  0  0  0  0  0  0  0
  151.7496  133.0196  155.9853 N   0  0  0  0  0  0  0  0  0  0  0  0
  154.1307  139.2563  158.6794 H   0  0  0  0  0  0  0  0  0  0  0  0
  152.9533  138.3847  159.6577 H   0  0  0  0  0  0  0  0  0  0  0  0
  154.1410  139.4267  160.4317 H   0  0  0  0  0  0  0  0  0  0  0  0
  151.9376  140.5222  160.3811 H   0  0  0  0  0  0  0  0  0  0  0  0
  153.9221  141.9793  160.2332 H   0  0  0  0  0  0  0  0  0  0  0  0
  153.9075  141.8736  158.4906 H   0  0  0  0  0  0  0  0  0  0  0  0
  151.7383  143.1143  160.2505 H   0  0  0  0  0  0  0  0  0  0  0  0
  152.8350  143.9777  159.2006 H   0  0  0  0  0  0  0  0  0  0  0  0
  150.5737  143.7063  158.1596 H   0  0  0  0  0  0  0  0  0  0  0  0
  151.8206  142.9497  157.1987 H   0  0  0  0  0  0  0  0  0  0  0  0
  149.9245  141.5329  159.1302 H   0  0  0  0  0  0  0  0  0  0  0  0
  149.8587  141.4451  157.3945 H   0  0  0  0  0  0  0  0  0  0  0  0
  150.9651  139.4240  158.4402 H   0  0  0  0  0  0  0  0  0  0  0  0
  150.4187  140.1732  156.1866 H   0  0  0  0  0  0  0  0  0  0  0  0
  151.6345  140.9943  155.2205 H   0  0  0  0  0  0  0  0  0  0  0  0
  151.3007  138.7836  154.2458 H   0  0  0  0  0  0  0  0  0  0  0  0
  152.8740  138.7874  155.0143 H   0  0  0  0  0  0  0  0  0  0  0  0
  150.5230  137.8990  156.4941 H   0  0  0  0  0  0  0  0  0  0  0  0
  150.6368  136.5139  154.5183 H   0  0  0  0  0  0  0  0  0  0  0  0
  152.3176  136.2055  154.8857 H   0  0  0  0  0  0  0  0  0  0  0  0
  151.5682  135.2273  157.1384 H   0  0  0  0  0  0  0  0  0  0  0  0
  149.9120  135.4721  156.6334 H   0  0  0  0  0  0  0  0  0  0  0  0
  149.4086  134.2620  154.0635 H   0  0  0  0  0  0  0  0  0  0  0  0
  150.0784  131.6915  153.4349 H   0  0  0  0  0  0  0  0  0  0  0  0
  152.0517  131.0926  155.2859 H   0  0  0  0  0  0  0  0  0  0  0  0
  1  2  1  0  0  0  0
  1 19  1  0  0  0  0
  1 20  1  0  0  0  0
  1 21  1  0  0  0  0
  2  7  1  0  0  0  0
  2  3  1  0  0  0  0
  2 22  1  0  0  0  0
  3  4  1  0  0  0  0
  3 23  1  0  0  0  0
  3 24  1  0  0  0  0
  4  5  1  0  0  0  0
  4 25  1  0  0  0  0
  4 26  1  0  0  0  0
  5  6  1  0  0  0  0
  5 27  1  0  0  0  0
  5 28  1  0  0  0  0
  6  7  1  0  0  0  0
  6 29  1  0  0  0  0
  6 30  1  0  0  0  0
  7  8  1  0  0  0  0
  7 31  1  0  0  0  0
  8  9  1  0  0  0  0
  9 10  1  0  0  0  0
  9 32  1  0  0  0  0
  9 33  1  0  0  0  0
 10 11  1  0  0  0  0
 10 34  1  0  0  0  0
 10 35  1  0  0  0  0
 11 12  1  0  0  0  0
 11 36  1  0  0  0  0
 12 13  1  0  0  0  0
 12 37  1  0  0  0  0
 12 38  1  0  0  0  0
 13 14  1  0  0  0  0
 13 39  1  0  0  0  0
 13 40  1  0  0  0  0
 14 18  1  0  0  0  0
 14 15  1  0  0  0  0
 15 16  2  0  0  0  0
 15 41  1  0  0  0  0
 16 17  1  0  0  0  0
 16 42  1  0  0  0  0
 17 18  2  0  0  0  0
 17 43  1  0  0  0  0
M  END
> <s_m_source_file>
AV-unprocessed.smi

> <i_m_source_file_index>
3241

> <i_lp_mmshare_version>
43012

> <i_f3d_flags>
0

> <s_epik_input>
W0NIM11bQ0BASF0xW0NIMl1bQ0gyXVtDSDJdW0NIMl1bQ0BIXTFPW0NIMl1bQ0gyXVtOSF1bQ0gyXVtDSDJdbjJbY0hdW2NIXVtjSF1uMg==

> <s_epik_cmdline>
J2VwaWtfcHl0aG9uJywgJy1waCcsICc3LjAnLCAnLXRuJywgJzgnLCAnLW1hJywgJzIwMCcsICctbWV0YWxfYmluZGluZycsICctaW1hZScsICc8aW5maWxlLm1hZT4nLCAnLW9tYWUnLCAnPG91dGZpbGUubWFlPic=

> <r_lp_tautomer_probability>
1

> <r_epik_Ionization_Penalty>
2.47055

> <r_epik_Ionization_Penalty_Charging>
0

> <r_epik_Ionization_Penalty_Neutral>
2.47055

> <r_epik_State_Penalty>
2.6322

> <r_epik_Charging_Adjusted_Penalty>
2.6322

> <i_epik_Tot_Q>
0

> <i_epik_Tot_abs_Q>
0

> <r_epik_Metal_State_Penalty>
2.63108

> <b_epik_Metal_Only>
0

> <s_lp_Force_Field>
OPLS_2005

> <r_lp_Energy>
16.4291

> <b_lp_Chiralities_Consistent>
1

> <s_lp_Variant>
AV-unprocessed.smi:3241-6

> <Gold.Version>
5.8.1

> <Gold.Id.Protein>
6NUR|6NUR_protein|mol2

> <Gold.PLP.Fitness>
41.5970

> <Gold.PLP.PLP>
-36.4510

> <Gold.PLP.part.hbond>
-1.0000

> <Gold.PLP.part.metal>
0.0000

> <Gold.PLP.part.buried>
-3.9330

> <Gold.PLP.part.nonpolar>
-30.6960

> <Gold.PLP.part.repulsive>
0.0000

> <Gold.PLP.ligand.clash>
0.0000

> <Gold.PLP.ligand.torsion>
0.4602

> <Gold.PLP.Chemscore.Hbond>
1.0000

> <Gold.PLP.Chemscore.CHOScore>
1.0000

> <Gold.PLP.Chemscore.Metal>
0.0000

> <Gold.Chemscore.Hbonds>
donor molecule, donor type, donor heavy atom, donor atom, acceptor molecule, acceptor atom, score
      P1  H  7997  8008       L1     8  0.68

> <Gold.PLP.Chemscore.Internal.Correction>
0.0665

> <Gold.Rescore>
     Score         DG    S(hbond)    S(metal)    S(lipo)     H(rot)  DE(clash)    DE(int)     intcor
     14.53     -15.12       0.87        0.00      96.80       1.79       0.04       0.55       ----

> <Gold.Chemscore.Fitness>
14.5280

> <Gold.Chemscore.DG>
-15.1186

> <Gold.Chemscore.ZeroCoef>
-5.4800

> <Gold.Chemscore.Hbond>
0.8671

> <Gold.Chemscore.Metal>
0.0000

> <Gold.Chemscore.Lipo>
96.7979

> <Gold.Chemscore.Internal_Hbond>
0.0000

> <Gold.Chemscore.DEClash>
0.0377

> <Gold.Chemscore.DEInternal>
0.5530

> <Gold.Chemscore.Rot>
1.7901

> <Gold.Chemscore.Internal.Correction>
   9.000000E+99

> <Gold.Chemscore.Hbonds>
donor molecule, donor type, donor heavy atom, donor atom, acceptor molecule, acceptor atom, score
      P1  H  7997  8008       L1     8  0.54

> <Gold.Chemscore.Hbond.Weighted>
-2.8960

> <Gold.Chemscore.Metal.Weighted>
-0.0000

> <Gold.Chemscore.Lipo.Weighted>
-11.3254

> <Gold.Chemscore.Internal_Hbond.Weighted>
0.0000

> <Gold.Chemscore.DEClash.Weighted>
0.0377

> <Gold.Chemscore.DEInternal.Weighted>
0.5530

> <Gold.Chemscore.Rot.Weighted>
4.5827

> <Gold.Chemscore.Internal.Correction.Weighted>
   9.000000E+99

> <Gold.Protein.RotatedTorsions>
[ 6907 6896 6895 6894 ] final  117.59 input  -60.11 | X-H torsion
[ 7974 7965 7964 7962 ] final -125.50 input  175.53 | X-H torsion
[ 8008 7997 7996 7995 ] final  -60.57 input   59.86 | X-H torsion
[ 10167 10162 10161 10158 ] final  -35.20 input  -65.29 | X-H torsion
[ 10718 10713 10712 10709 ] final  153.06 input   66.30 | X-H torsion
[ 10763 10752 10751 10750 ] final   61.11 input  -60.55 | X-H torsion
[ 11005 11000 10999 10996 ] final   74.68 input  -57.11 | X-H torsion

> <Gold.Protein.ActiveResidues>
 VAL166  LYS551  ARG553  GLY616  TRP617  ASP618  TYR619  PRO620  LYS621  CYS622 
 ASP623  PHE694  ASN695  SER759  ASP760  ASP761  ALA762  ILE779  LEU786  VAL792 
 PHE793  MET794  SER795  GLU796  ALA797  LYS798  CYS799  TRP800  GLU811  SER814 

> <Gold.Protein.RotatedAtoms>
  152.4601  133.7804  159.6847 H   0  0  0  0  0  0  0  0  0  0  0  0  # atno 6907 bound_to 6896
  150.8542  133.7731  159.3021 H   0  0  0  0  0  0  0  0  0  0  0  0  # atno 6908 bound_to 6896
  151.5317  135.1071  159.9956 H   0  0  0  0  0  0  0  0  0  0  0  0  # atno 6909 bound_to 6896
  144.9969  140.7785  143.4520 H   0  0  0  0  0  0  0  0  0  0  0  0  # atno 7974 bound_to 7965
  154.4405  140.1036  156.6294 H   0  0  0  0  0  0  0  0  0  0  0  0  # atno 8008 bound_to 7997
  155.5621  140.3487  155.4475 H   0  0  0  0  0  0  0  0  0  0  0  0  # atno 8009 bound_to 7997
  156.0452  140.1291  157.0101 H   0  0  0  0  0  0  0  0  0  0  0  0  # atno 8010 bound_to 7997
  140.7170  143.3494  151.2188 H   0  0  0  0  0  0  0  0  0  0  0  0  # atno 10167 bound_to 10162
  157.2497  131.0776  151.1738 H   0  0  0  0  0  0  0  0  0  0  0  0  # atno 10718 bound_to 10713
  152.9941  135.5512  154.5981 H   0  0  0  0  0  0  0  0  0  0  0  0  # atno 10763 bound_to 10752
  154.5329  135.2814  155.1167 H   0  0  0  0  0  0  0  0  0  0  0  0  # atno 10764 bound_to 10752
  154.2475  135.6405  153.5281 H   0  0  0  0  0  0  0  0  0  0  0  0  # atno 10765 bound_to 10752
  139.9379  134.7453  156.1177 H   0  0  0  0  0  0  0  0  0  0  0  0  # atno 11005 bound_to 11000
  145.2207  139.2160  143.5094 LP  0  0  0  0  0  0  0  0  0  0  0  0  # atno 17320 bound_to 7965
  146.3444  140.2064  142.8589 LP  0  0  0  0  0  0  0  0  0  0  0  0  # atno 17321 bound_to 7965
  139.7021  143.9516  152.2910 LP  0  0  0  0  0  0  0  0  0  0  0  0  # atno 17342 bound_to 10162
  139.9212  144.6798  150.8459 LP  0  0  0  0  0  0  0  0  0  0  0  0  # atno 17343 bound_to 10162
  157.3291  130.6976  149.6314 LP  0  0  0  0  0  0  0  0  0  0  0  0  # atno 17370 bound_to 10713
  155.9666  130.4312  150.4912 LP  0  0  0  0  0  0  0  0  0  0  0  0  # atno 17371 bound_to 10713
  141.1002  133.6680  156.2736 LP  0  0  0  0  0  0  0  0  0  0  0  0  # atno 17394 bound_to 11000
  140.6026  134.5539  157.5520 LP  0  0  0  0  0  0  0  0  0  0  0  0  # atno 17395 bound_to 11000

$$$$
