AV-unprocessed.smi:111|AV-procd|sdf|1082|dock5
  -GOLD-   2262018173D 1   1.00000     0.00000
 Structure written by MMmdl.
 46 48  0  0  0  0  0  0  0  0  1 V2000
  147.0764  139.7810  156.4668 O   0  0  0  0  0  0  0  0  0  0  0  0
  146.2957  140.7205  156.3049 C   0  0  0  0  0  0  0  0  0  0  0  0
  145.2766  141.0932  157.2780 C   0  0  0  0  0  0  0  0  0  0  0  0
  145.1978  140.4304  158.4444 F   0  0  0  0  0  0  0  0  0  0  0  0
  144.4178  142.1066  157.0354 C   0  0  0  0  0  0  0  0  0  0  0  0
  144.4189  142.8396  155.8591 N   0  0  0  0  0  0  0  0  0  0  0  0
  143.4960  144.0250  155.6595 C   0  0  1  0  0  0  0  0  0  0  0  0
  142.0233  143.6459  155.4230 C   0  0  0  0  0  0  0  0  0  0  0  0
  141.3822  143.9893  156.7536 C   0  0  0  0  0  0  0  0  0  0  0  0
  142.2420  145.1594  157.2158 C   0  0  0  0  0  0  0  0  0  0  0  0
  143.5597  144.8047  156.8165 O   0  0  0  0  0  0  0  0  0  0  0  0
  145.4258  142.5982  154.8960 C   0  0  0  0  0  0  0  0  0  0  0  0
  145.5006  143.2850  153.8743 O   0  0  0  0  0  0  0  0  0  0  0  0
  146.3243  141.5306  155.1442 N   0  0  0  0  0  0  0  0  0  0  0  0
  147.3393  141.2230  154.1444 C   0  0  0  0  0  0  0  0  0  0  0  0
  148.7928  141.0954  154.6743 C   0  0  1  0  0  0  0  0  0  0  0  0
  149.6871  141.2529  153.5909 O   0  0  0  0  0  0  0  0  0  0  0  0
  149.1848  142.0368  155.8332 C   0  0  0  0  0  0  0  0  0  0  0  0
  150.6922  142.0434  156.1347 C   0  0  0  0  0  0  0  0  0  0  0  0
  151.0307  142.9297  157.3181 C   0  0  0  0  0  0  0  0  0  0  0  0
  151.8644  144.0545  157.1441 C   0  0  0  0  0  0  0  0  0  0  0  0
  152.1746  144.8820  158.2410 C   0  0  0  0  0  0  0  0  0  0  0  0
  151.6518  144.5883  159.5153 C   0  0  0  0  0  0  0  0  0  0  0  0
  150.8179  143.4670  159.6925 C   0  0  0  0  0  0  0  0  0  0  0  0
  150.5071  142.6392  158.5958 C   0  0  0  0  0  0  0  0  0  0  0  0
  143.7084  142.3427  157.8123 H   0  0  0  0  0  0  0  0  0  0  0  0
  143.8847  144.5729  154.7998 H   0  0  0  0  0  0  0  0  0  0  0  0
  141.6272  144.2991  154.6446 H   0  0  0  0  0  0  0  0  0  0  0  0
  141.8858  142.6155  155.0956 H   0  0  0  0  0  0  0  0  0  0  0  0
  140.3263  144.2464  156.6649 H   0  0  0  0  0  0  0  0  0  0  0  0
  141.4728  143.1587  157.4536 H   0  0  0  0  0  0  0  0  0  0  0  0
  141.9481  146.0772  156.7043 H   0  0  0  0  0  0  0  0  0  0  0  0
  142.1806  145.3309  158.2905 H   0  0  0  0  0  0  0  0  0  0  0  0
  147.0439  140.2952  153.6535 H   0  0  0  0  0  0  0  0  0  0  0  0
  147.2505  141.9671  153.3496 H   0  0  0  0  0  0  0  0  0  0  0  0
  148.9224  140.0670  155.0136 H   0  0  0  0  0  0  0  0  0  0  0  0
  149.5039  140.5818  152.9505 H   0  0  0  0  0  0  0  0  0  0  0  0
  148.8526  143.0540  155.6214 H   0  0  0  0  0  0  0  0  0  0  0  0
  148.6621  141.7211  156.7364 H   0  0  0  0  0  0  0  0  0  0  0  0
  151.0378  141.0287  156.3372 H   0  0  0  0  0  0  0  0  0  0  0  0
  151.2518  142.3906  155.2652 H   0  0  0  0  0  0  0  0  0  0  0  0
  152.2655  144.2865  156.1681 H   0  0  0  0  0  0  0  0  0  0  0  0
  152.8130  145.7424  158.1046 H   0  0  0  0  0  0  0  0  0  0  0  0
  151.8896  145.2231  160.3563 H   0  0  0  0  0  0  0  0  0  0  0  0
  150.4159  143.2422  160.6694 H   0  0  0  0  0  0  0  0  0  0  0  0
  149.8647  141.7826  158.7384 H   0  0  0  0  0  0  0  0  0  0  0  0
  1  2  2  0  0  0  0
  2 14  1  0  0  0  0
  2  3  1  0  0  0  0
  3  4  1  0  0  0  0
  3  5  2  0  0  0  0
  5  6  1  0  0  0  0
  5 26  1  0  0  0  0
  6  7  1  0  0  0  0
  6 12  1  0  0  0  0
  7 11  1  0  0  0  0
  7  8  1  0  0  0  0
  7 27  1  0  0  0  0
  8  9  1  0  0  0  0
  8 28  1  0  0  0  0
  8 29  1  0  0  0  0
  9 10  1  0  0  0  0
  9 30  1  0  0  0  0
  9 31  1  0  0  0  0
 10 11  1  0  0  0  0
 10 32  1  0  0  0  0
 10 33  1  0  0  0  0
 12 13  2  0  0  0  0
 12 14  1  0  0  0  0
 14 15  1  0  0  0  0
 15 16  1  0  0  0  0
 15 34  1  0  0  0  0
 15 35  1  0  0  0  0
 16 17  1  0  0  0  0
 16 18  1  0  0  0  0
 16 36  1  0  0  0  0
 17 37  1  0  0  0  0
 18 19  1  0  0  0  0
 18 38  1  0  0  0  0
 18 39  1  0  0  0  0
 19 20  1  0  0  0  0
 19 40  1  0  0  0  0
 19 41  1  0  0  0  0
 20 25  1  0  0  0  0
 20 21  2  0  0  0  0
 21 22  1  0  0  0  0
 21 42  1  0  0  0  0
 22 23  2  0  0  0  0
 22 43  1  0  0  0  0
 23 24  1  0  0  0  0
 23 44  1  0  0  0  0
 24 25  2  0  0  0  0
 24 45  1  0  0  0  0
 25 46  1  0  0  0  0
M  END
> <s_m_source_file>
AV-unprocessed.smi

> <i_m_source_file_index>
111

> <i_lp_mmshare_version>
43012

> <i_f3d_flags>
0

> <s_epik_input>
TzFbQ0gyXVtDSDJdW0NIMl1bQ0BIXTFuKFtjSF1jKEYpYzI9TyljKD1PKW4yW0NIMl1bQ0BIXShbT0hdKVtDSDJdW0NIMl1jM1tjSF1bY0hdW2NIXVtjSF1bY0hdMw==

> <s_epik_cmdline>
J2VwaWtfcHl0aG9uJywgJy1waCcsICc3LjAnLCAnLXRuJywgJzgnLCAnLW1hJywgJzIwMCcsICctbWV0YWxfYmluZGluZycsICctaW1hZScsICc8aW5maWxlLm1hZT4nLCAnLW9tYWUnLCAnPG91dGZpbGUubWFlPic=

> <r_lp_tautomer_probability>
1

> <r_epik_Ionization_Penalty>
1.88248e-07

> <r_epik_Ionization_Penalty_Charging>
4.03974e-08

> <r_epik_Ionization_Penalty_Neutral>
1.47851e-07

> <r_epik_State_Penalty>
-0

> <r_epik_Charging_Adjusted_Penalty>
4.03974e-08

> <i_epik_Tot_Q>
0

> <i_epik_Tot_abs_Q>
0

> <r_epik_Metal_State_Penalty>
-0

> <b_epik_Metal_Only>
0

> <s_epik_Chemistry_Notes>
This compound contains an acetal/aminal-like group ( X-CH(R)-Y where X, Y are N, S, or O) that may be acid/base labile, releasing an aldehyde.

> <s_lp_Force_Field>
OPLS_2005

> <r_lp_Energy>
37.7752

> <b_lp_Chiralities_Consistent>
1

> <s_lp_Variant>
AV-unprocessed.smi:111-4

> <Gold.Version>
5.8.1

> <Gold.Id.Protein>
6NUR|6NUR_protein|mol2

> <Gold.PLP.Fitness>
48.3420

> <Gold.PLP.PLP>
-43.5341

> <Gold.PLP.part.hbond>
-3.8677

> <Gold.PLP.part.metal>
0.0000

> <Gold.PLP.part.buried>
-0.0675

> <Gold.PLP.part.nonpolar>
-39.6113

> <Gold.PLP.part.repulsive>
0.2940

> <Gold.PLP.ligand.clash>
0.0000

> <Gold.PLP.ligand.torsion>
0.5961

> <Gold.PLP.Chemscore.Hbond>
1.9520

> <Gold.PLP.Chemscore.CHOScore>
0.0000

> <Gold.PLP.Chemscore.Metal>
0.0000

> <Gold.Chemscore.Hbonds>
donor molecule, donor type, donor heavy atom, donor atom, acceptor molecule, acceptor atom, score
      L1  H    17    37       P1  7957  0.93
      P1  H  7989  7998       L1    17  0.11
      P1  H  8011  8017       L1    17  0.46

> <Gold.PLP.Chemscore.Internal.Correction>
0.1441

> <Gold.Rescore>
     Score         DG    S(hbond)    S(metal)    S(lipo)     H(rot)  DE(clash)    DE(int)     intcor
     11.49     -15.70       1.17        0.00     112.58       2.67       1.83       2.37       ----

> <Gold.Chemscore.Fitness>
11.4934

> <Gold.Chemscore.DG>
-15.6991

> <Gold.Chemscore.ZeroCoef>
-5.4800

> <Gold.Chemscore.Hbond>
1.1657

> <Gold.Chemscore.Metal>
0.0000

> <Gold.Chemscore.Lipo>
112.5803

> <Gold.Chemscore.Internal_Hbond>
0.0000

> <Gold.Chemscore.DEClash>
1.8319

> <Gold.Chemscore.DEInternal>
2.3738

> <Gold.Chemscore.Rot>
2.6743

> <Gold.Chemscore.Internal.Correction>
   9.000000E+99

> <Gold.Chemscore.Hbonds>
donor molecule, donor type, donor heavy atom, donor atom, acceptor molecule, acceptor atom, score
      L1  H    17    37       P1  7957  0.91
      P1  H  7989  7998       L1    17  0.01
      P1  H  8011  8017       L1    17  0.02

> <Gold.Chemscore.Hbond.Weighted>
-3.8935

> <Gold.Chemscore.Metal.Weighted>
-0.0000

> <Gold.Chemscore.Lipo.Weighted>
-13.1719

> <Gold.Chemscore.Internal_Hbond.Weighted>
0.0000

> <Gold.Chemscore.DEClash.Weighted>
1.8319

> <Gold.Chemscore.DEInternal.Weighted>
2.3738

> <Gold.Chemscore.Rot.Weighted>
6.8463

> <Gold.Chemscore.Internal.Correction.Weighted>
   9.000000E+99

> <Gold.Protein.RotatedTorsions>
[ 6907 6896 6895 6894 ] final   37.88 input  -60.11 | X-H torsion
[ 7974 7965 7964 7962 ] final  -29.89 input  175.53 | X-H torsion
[ 8008 7997 7996 7995 ] final -119.43 input   59.86 | X-H torsion
[ 10167 10162 10161 10158 ] final  103.92 input  -65.29 | X-H torsion
[ 10718 10713 10712 10709 ] final   20.10 input   66.30 | X-H torsion
[ 10763 10752 10751 10750 ] final   61.49 input  -60.55 | X-H torsion
[ 11005 11000 10999 10996 ] final   21.57 input  -57.11 | X-H torsion

> <Gold.Protein.ActiveResidues>
 VAL166  LYS551  ARG553  GLY616  TRP617  ASP618  TYR619  PRO620  LYS621  CYS622 
 ASP623  PHE694  ASN695  SER759  ASP760  ASP761  ALA762  ILE779  LEU786  VAL792 
 PHE793  MET794  SER795  GLU796  ALA797  LYS798  CYS799  TRP800  GLU811  SER814 

> <Gold.Protein.RotatedAtoms>
  152.1490  134.9003  160.0548 H   0  0  0  0  0  0  0  0  0  0  0  0  # atno 6907 bound_to 6896
  152.0042  133.3832  159.4202 H   0  0  0  0  0  0  0  0  0  0  0  0  # atno 6908 bound_to 6896
  150.6873  134.3723  159.5041 H   0  0  0  0  0  0  0  0  0  0  0  0  # atno 6909 bound_to 6896
  146.1184  140.5470  142.8746 H   0  0  0  0  0  0  0  0  0  0  0  0  # atno 7974 bound_to 7965
  155.1155  140.0398  157.2736 H   0  0  0  0  0  0  0  0  0  0  0  0  # atno 8008 bound_to 7997
  154.6653  140.2600  155.7039 H   0  0  0  0  0  0  0  0  0  0  0  0  # atno 8009 bound_to 7997
  156.2636  140.2808  156.1141 H   0  0  0  0  0  0  0  0  0  0  0  0  # atno 8010 bound_to 7997
  139.7222  144.7055  151.0855 H   0  0  0  0  0  0  0  0  0  0  0  0  # atno 10167 bound_to 10162
  157.1198  130.6545  149.5920 H   0  0  0  0  0  0  0  0  0  0  0  0  # atno 10718 bound_to 10713
  152.9952  135.5499  154.6042 H   0  0  0  0  0  0  0  0  0  0  0  0  # atno 10763 bound_to 10752
  154.5377  135.2817  155.1126 H   0  0  0  0  0  0  0  0  0  0  0  0  # atno 10764 bound_to 10752
  154.2416  135.6415  153.5262 H   0  0  0  0  0  0  0  0  0  0  0  0  # atno 10765 bound_to 10752
  140.3901  134.1828  155.7662 H   0  0  0  0  0  0  0  0  0  0  0  0  # atno 11005 bound_to 11000
  144.7574  140.5340  143.6759 LP  0  0  0  0  0  0  0  0  0  0  0  0  # atno 17320 bound_to 7965
  145.5519  139.1477  143.3389 LP  0  0  0  0  0  0  0  0  0  0  0  0  # atno 17321 bound_to 7965
  140.7756  143.5152  150.9604 LP  0  0  0  0  0  0  0  0  0  0  0  0  # atno 17342 bound_to 10162
  139.8839  143.7038  152.3154 LP  0  0  0  0  0  0  0  0  0  0  0  0  # atno 17343 bound_to 10162
  155.9831  130.4848  150.6916 LP  0  0  0  0  0  0  0  0  0  0  0  0  # atno 17370 bound_to 10713
  157.4486  131.0870  151.0869 LP  0  0  0  0  0  0  0  0  0  0  0  0  # atno 17371 bound_to 10713
  141.1894  133.8240  157.0959 LP  0  0  0  0  0  0  0  0  0  0  0  0  # atno 17394 bound_to 11000
  140.0413  134.9853  157.0967 LP  0  0  0  0  0  0  0  0  0  0  0  0  # atno 17395 bound_to 11000

$$$$
