AV-unprocessed.smi:325|AV-procd|sdf|2341|dock1
  -GOLD-   2262022253D 1   1.00000     0.00000
 Structure written by MMmdl.
 46 47  0  0  0  0  0  0  0  0  1 V2000
  152.2728  138.4717  156.3852 C   0  0  0  0  0  0  0  0  0  0  0  0
  151.5569  139.8066  156.2785 C   0  0  0  0  0  0  0  0  0  0  0  0
  151.8658  140.7415  157.2743 N   0  0  0  0  0  0  0  0  0  0  0  0
  151.2986  141.9069  157.2756 C   0  0  0  0  0  0  0  0  0  0  0  0
  151.5205  142.9243  158.2066 N   0  0  0  0  0  0  0  0  0  0  0  0
  152.3110  142.6942  159.4187 C   0  0  0  0  0  0  0  0  0  0  0  0
  151.9805  143.7277  160.5087 C   0  0  0  0  0  0  0  0  0  0  0  0
  152.1636  145.0405  159.9968 O   0  0  0  0  0  0  0  0  0  0  0  0
  151.2945  145.2942  158.9016 C   0  0  0  0  0  0  0  0  0  0  0  0
  151.6027  144.3141  157.7572 C   0  0  0  0  0  0  0  0  0  0  0  0
  150.3828  142.2429  156.2724 N   0  0  0  0  0  0  0  0  0  0  0  0
  150.0160  141.4124  155.2717 C   0  0  0  0  0  0  0  0  0  0  0  0
  149.1949  141.7748  154.4304 O   0  0  0  0  0  0  0  0  0  0  0  0
  150.6625  140.0902  155.2909 C   0  0  0  0  0  0  0  0  0  0  0  0
  150.3020  139.1064  154.1810 C   0  0  0  0  0  0  0  0  0  0  0  0
  148.9450  138.4229  154.4347 C   0  0  0  0  0  0  0  0  0  0  0  0
  149.0575  137.1429  155.2682 C   0  0  0  0  0  0  0  0  0  0  0  0
  149.0989  137.1950  156.4978 O   0  0  0  0  0  0  0  0  0  0  0  0
  149.1134  135.9934  154.5774 N   0  0  0  0  0  0  0  0  0  0  0  0
  149.2426  134.6601  155.1580 C   0  0  0  0  0  0  0  0  0  0  0  0
  150.5361  134.5874  155.9806 C   0  0  0  0  0  0  0  0  0  0  0  0
  149.2084  133.5863  154.0590 C   0  0  0  0  0  0  0  0  0  0  0  0
  149.9636  143.1609  156.2914 H   0  0  0  0  0  0  0  0  0  0  0  0
  151.5597  137.6476  156.3532 H   0  0  0  0  0  0  0  0  0  0  0  0
  152.8295  138.3939  157.3201 H   0  0  0  0  0  0  0  0  0  0  0  0
  152.9787  138.3525  155.5630 H   0  0  0  0  0  0  0  0  0  0  0  0
  152.1475  141.6961  159.8248 H   0  0  0  0  0  0  0  0  0  0  0  0
  153.3689  142.7559  159.1604 H   0  0  0  0  0  0  0  0  0  0  0  0
  150.9573  143.6014  160.8660 H   0  0  0  0  0  0  0  0  0  0  0  0
  152.6364  143.5885  161.3682 H   0  0  0  0  0  0  0  0  0  0  0  0
  150.2540  145.2068  159.2184 H   0  0  0  0  0  0  0  0  0  0  0  0
  151.4389  146.3210  158.5651 H   0  0  0  0  0  0  0  0  0  0  0  0
  152.6036  144.5006  157.3653 H   0  0  0  0  0  0  0  0  0  0  0  0
  150.9025  144.4935  156.9399 H   0  0  0  0  0  0  0  0  0  0  0  0
  150.2908  139.6339  153.2258 H   0  0  0  0  0  0  0  0  0  0  0  0
  151.0819  138.3518  154.0795 H   0  0  0  0  0  0  0  0  0  0  0  0
  148.2762  139.1210  154.9407 H   0  0  0  0  0  0  0  0  0  0  0  0
  148.4708  138.1692  153.4860 H   0  0  0  0  0  0  0  0  0  0  0  0
  149.0725  136.0471  153.5700 H   0  0  0  0  0  0  0  0  0  0  0  0
  148.4070  134.4879  155.8387 H   0  0  0  0  0  0  0  0  0  0  0  0
  150.6423  133.6124  156.4568 H   0  0  0  0  0  0  0  0  0  0  0  0
  150.5430  135.3406  156.7694 H   0  0  0  0  0  0  0  0  0  0  0  0
  151.4151  134.7504  155.3559 H   0  0  0  0  0  0  0  0  0  0  0  0
  149.2960  132.5872  154.4866 H   0  0  0  0  0  0  0  0  0  0  0  0
  150.0264  133.7177  153.3499 H   0  0  0  0  0  0  0  0  0  0  0  0
  148.2732  133.6209  153.4993 H   0  0  0  0  0  0  0  0  0  0  0  0
  1  2  1  0  0  0  0
  1 24  1  0  0  0  0
  1 25  1  0  0  0  0
  1 26  1  0  0  0  0
  2 14  2  0  0  0  0
  2  3  1  0  0  0  0
  3  4  2  0  0  0  0
  4  5  1  0  0  0  0
  4 11  1  0  0  0  0
  5 10  1  0  0  0  0
  5  6  1  0  0  0  0
  6  7  1  0  0  0  0
  6 27  1  0  0  0  0
  6 28  1  0  0  0  0
  7  8  1  0  0  0  0
  7 29  1  0  0  0  0
  7 30  1  0  0  0  0
  8  9  1  0  0  0  0
  9 10  1  0  0  0  0
  9 31  1  0  0  0  0
  9 32  1  0  0  0  0
 10 33  1  0  0  0  0
 10 34  1  0  0  0  0
 11 23  1  0  0  0  0
 11 12  1  0  0  0  0
 12 13  2  0  0  0  0
 12 14  1  0  0  0  0
 14 15  1  0  0  0  0
 15 16  1  0  0  0  0
 15 35  1  0  0  0  0
 15 36  1  0  0  0  0
 16 17  1  0  0  0  0
 16 37  1  0  0  0  0
 16 38  1  0  0  0  0
 17 18  2  0  0  0  0
 17 19  1  0  0  0  0
 19 20  1  0  0  0  0
 19 39  1  0  0  0  0
 20 21  1  0  0  0  0
 20 22  1  0  0  0  0
 20 40  1  0  0  0  0
 21 41  1  0  0  0  0
 21 42  1  0  0  0  0
 21 43  1  0  0  0  0
 22 44  1  0  0  0  0
 22 45  1  0  0  0  0
 22 46  1  0  0  0  0
M  END
> <s_m_source_file>
AV-unprocessed.smi

> <i_m_source_file_index>
325

> <i_lp_mmshare_version>
43012

> <i_f3d_flags>
0

> <s_epik_input>
W0NIMl0xW0NIMl1PW0NIMl1bQ0gyXU4xYyhuYzJbQ0gzXSlbbkhdYyg9TyljMltDSDJdW0NIMl1DKD1PKVtOSF1bQ0hdKFtDSDNdKVtDSDNd

> <s_epik_cmdline>
J2VwaWtfcHl0aG9uJywgJy1waCcsICc3LjAnLCAnLXRuJywgJzgnLCAnLW1hJywgJzIwMCcsICctbWV0YWxfYmluZGluZycsICctaW1hZScsICc8aW5maWxlLm1hZT4nLCAnLW9tYWUnLCAnPG91dGZpbGUubWFlPic=

> <r_lp_tautomer_probability>
0.878553

> <r_epik_Ionization_Penalty>
0.00121339

> <r_epik_Ionization_Penalty_Charging>
0.00118763

> <r_epik_Ionization_Penalty_Neutral>
2.57562e-05

> <r_epik_State_Penalty>
0.0423074

> <r_epik_Charging_Adjusted_Penalty>
0.043495

> <i_epik_Tot_Q>
0

> <i_epik_Tot_abs_Q>
0

> <r_epik_Metal_State_Penalty>
1.02455

> <b_epik_Metal_Only>
0

> <s_lp_Force_Field>
OPLS_2005

> <r_lp_Energy>
22.2751

> <b_lp_Chiralities_Consistent>
1

> <s_lp_Variant>
AV-unprocessed.smi:325-1

> <Gold.Version>
5.8.1

> <Gold.Id.Protein>
6NUR|6NUR_protein|mol2

> <Gold.PLP.Fitness>
48.4046

> <Gold.PLP.PLP>
-43.6316

> <Gold.PLP.part.hbond>
-3.4968

> <Gold.PLP.part.metal>
0.0000

> <Gold.PLP.part.buried>
-2.1946

> <Gold.PLP.part.nonpolar>
-36.3761

> <Gold.PLP.part.repulsive>
0.4034

> <Gold.PLP.ligand.clash>
0.0000

> <Gold.PLP.ligand.torsion>
1.0880

> <Gold.PLP.Chemscore.Hbond>
2.2184

> <Gold.PLP.Chemscore.CHOScore>
0.0000

> <Gold.PLP.Chemscore.Metal>
0.0000

> <Gold.Chemscore.Hbonds>
donor molecule, donor type, donor heavy atom, donor atom, acceptor molecule, acceptor atom, score
      L1  H    11    23       P1  8028  1.00
      L1  H    19    39       P1  7948  1.00
      P1  H  8011  8017       L1    13  0.19

> <Gold.PLP.Chemscore.Internal.Correction>
0.2937

> <Gold.Rescore>
     Score         DG    S(hbond)    S(metal)    S(lipo)     H(rot)  DE(clash)    DE(int)     intcor
     18.77     -19.97       2.34        0.00      94.36       1.71       0.35       0.85       ----

> <Gold.Chemscore.Fitness>
18.7699

> <Gold.Chemscore.DG>
-19.9681

> <Gold.Chemscore.ZeroCoef>
-5.4800

> <Gold.Chemscore.Hbond>
2.3414

> <Gold.Chemscore.Metal>
0.0000

> <Gold.Chemscore.Lipo>
94.3611

> <Gold.Chemscore.Internal_Hbond>
0.0000

> <Gold.Chemscore.DEClash>
0.3529

> <Gold.Chemscore.DEInternal>
0.8453

> <Gold.Chemscore.Rot>
1.7080

> <Gold.Chemscore.Internal.Correction>
   9.000000E+99

> <Gold.Chemscore.Hbonds>
donor molecule, donor type, donor heavy atom, donor atom, acceptor molecule, acceptor atom, score
      L1  H    11    23       P1  8028  0.96
      L1  H    19    39       P1  7948  0.94
      P1  H  8011  8017       L1    13  0.19

> <Gold.Chemscore.Hbond.Weighted>
-7.8202

> <Gold.Chemscore.Metal.Weighted>
-0.0000

> <Gold.Chemscore.Lipo.Weighted>
-11.0403

> <Gold.Chemscore.Internal_Hbond.Weighted>
0.0000

> <Gold.Chemscore.DEClash.Weighted>
0.3529

> <Gold.Chemscore.DEInternal.Weighted>
0.8453

> <Gold.Chemscore.Rot.Weighted>
4.3724

> <Gold.Chemscore.Internal.Correction.Weighted>
   9.000000E+99

> <Gold.Protein.RotatedTorsions>
[ 6907 6896 6895 6894 ] final  118.54 input  -60.11 | X-H torsion
[ 7974 7965 7964 7962 ] final    4.13 input  175.53 | X-H torsion
[ 8008 7997 7996 7995 ] final -115.94 input   59.86 | X-H torsion
[ 10167 10162 10161 10158 ] final  -55.54 input  -65.29 | X-H torsion
[ 10718 10713 10712 10709 ] final -125.42 input   66.30 | X-H torsion
[ 10763 10752 10751 10750 ] final   17.87 input  -60.55 | X-H torsion
[ 11005 11000 10999 10996 ] final  138.06 input  -57.11 | X-H torsion

> <Gold.Protein.ActiveResidues>
 VAL166  LYS551  ARG553  GLY616  TRP617  ASP618  TYR619  PRO620  LYS621  CYS622 
 ASP623  PHE694  ASN695  SER759  ASP760  ASP761  ALA762  ILE779  LEU786  VAL792 
 PHE793  MET794  SER795  GLU796  ALA797  LYS798  CYS799  TRP800  GLU811  SER814 

> <Gold.Protein.RotatedAtoms>
  152.4536  133.7678  159.6781 H   0  0  0  0  0  0  0  0  0  0  0  0  # atno 6907 bound_to 6896
  150.8455  133.7858  159.3051 H   0  0  0  0  0  0  0  0  0  0  0  0  # atno 6908 bound_to 6896
  151.5470  135.1070  159.9992 H   0  0  0  0  0  0  0  0  0  0  0  0  # atno 6909 bound_to 6896
  146.2444  140.0581  142.8370 H   0  0  0  0  0  0  0  0  0  0  0  0  # atno 7974 bound_to 7965
  155.0599  140.0393  157.2573 H   0  0  0  0  0  0  0  0  0  0  0  0  # atno 8008 bound_to 7997
  154.7068  140.2684  155.6643 H   0  0  0  0  0  0  0  0  0  0  0  0  # atno 8009 bound_to 7997
  156.2777  140.2729  156.1697 H   0  0  0  0  0  0  0  0  0  0  0  0  # atno 8010 bound_to 7997
  140.6369  143.2487  151.5095 H   0  0  0  0  0  0  0  0  0  0  0  0  # atno 10167 bound_to 10162
  156.1674  130.6644  151.0133 H   0  0  0  0  0  0  0  0  0  0  0  0  # atno 10718 bound_to 10713
  153.1300  135.6738  153.9194 H   0  0  0  0  0  0  0  0  0  0  0  0  # atno 10763 bound_to 10752
  153.8683  135.3073  155.3442 H   0  0  0  0  0  0  0  0  0  0  0  0  # atno 10764 bound_to 10752
  154.7699  135.4945  153.9709 H   0  0  0  0  0  0  0  0  0  0  0  0  # atno 10765 bound_to 10752
  140.0157  134.9419  157.0371 H   0  0  0  0  0  0  0  0  0  0  0  0  # atno 11005 bound_to 11000
  145.0924  140.9293  143.4761 LP  0  0  0  0  0  0  0  0  0  0  0  0  # atno 17320 bound_to 7965
  145.0757  139.2998  143.5809 LP  0  0  0  0  0  0  0  0  0  0  0  0  # atno 17321 bound_to 7965
  139.5579  144.2230  152.1642 LP  0  0  0  0  0  0  0  0  0  0  0  0  # atno 17342 bound_to 10162
  140.1489  144.5133  150.6699 LP  0  0  0  0  0  0  0  0  0  0  0  0  # atno 17343 bound_to 10162
  157.6778  131.0846  150.7450 LP  0  0  0  0  0  0  0  0  0  0  0  0  # atno 17370 bound_to 10713
  156.7510  130.4768  149.5456 LP  0  0  0  0  0  0  0  0  0  0  0  0  # atno 17371 bound_to 10713
  140.4475  134.1616  155.7178 LP  0  0  0  0  0  0  0  0  0  0  0  0  # atno 17394 bound_to 11000
  141.1741  133.8550  157.1478 LP  0  0  0  0  0  0  0  0  0  0  0  0  # atno 17395 bound_to 11000

$$$$
