AV-unprocessed.smi:1|AV-procd|sdf|1|dock6
  -GOLD-   2262015 83D 1   1.00000     0.00000
 Structure written by MMmdl.
 57 62  0  0  0  0  0  0  0  0  1 V2000
  153.4124  140.1282  158.4217 O   0  0  0  0  0  0  0  0  0  0  0  0
  152.6113  140.9869  158.0516 C   0  0  0  0  0  0  0  0  0  0  0  0
  151.8739  140.8698  156.8056 N   0  0  0  0  0  0  0  0  0  0  0  0
  151.8615  139.8331  155.9351 C   0  0  0  0  0  0  0  0  0  0  0  0
  152.8374  139.6478  155.0077 N   0  0  0  0  0  0  0  0  0  0  0  0
  152.7822  138.6066  154.1725 C   0  0  0  0  0  0  0  0  0  0  0  0
  151.8582  137.6473  154.0972 N   0  0  0  0  0  0  0  0  0  0  0  0
  150.8740  137.8237  155.0254 C   0  0  0  0  0  0  0  0  0  0  0  0
  150.8066  138.8840  155.9721 C   0  0  0  0  0  0  0  0  0  0  0  0
  149.6684  138.7441  156.7548 N   0  0  0  0  0  0  0  0  0  0  0  0
  149.0957  137.6668  156.2895 C   0  0  0  0  0  0  0  0  0  0  0  0
  149.7500  137.0512  155.2456 N   0  0  0  0  0  0  0  0  0  0  0  0
  149.3259  135.8149  154.5144 C   0  0  2  0  0  0  0  0  0  0  0  0
  147.9799  135.5608  154.7847 O   0  0  0  0  0  0  0  0  0  0  0  0
  147.8193  134.2703  155.3657 C   0  0  1  0  0  0  0  0  0  0  0  0
  146.4982  133.6305  154.9193 C   0  0  0  0  0  0  0  0  0  0  0  0
  146.4559  133.5360  153.5036 O   0  0  0  0  0  0  0  0  0  0  0  0
  145.3674  133.9508  152.8280 C   0  0  0  0  0  0  0  0  0  0  0  0
  144.5616  134.7721  153.2701 O   0  0  0  0  0  0  0  0  0  0  0  0
  145.2367  133.3065  151.4893 C   0  0  0  0  0  0  0  0  0  0  0  0
  144.0903  133.5682  150.7030 C   0  0  0  0  0  0  0  0  0  0  0  0
  143.9392  132.9741  149.4350 C   0  0  0  0  0  0  0  0  0  0  0  0
  144.9337  132.1127  148.9366 C   0  0  0  0  0  0  0  0  0  0  0  0
  146.0790  131.8446  149.7087 C   0  0  0  0  0  0  0  0  0  0  0  0
  146.2313  132.4364  150.9779 C   0  0  0  0  0  0  0  0  0  0  0  0
  149.0818  133.4798  155.0060 C   0  0  2  0  0  0  0  0  0  0  0  0
  149.4495  132.5731  156.0321 O   0  0  0  0  0  0  0  0  0  0  0  0
  150.5159  133.3355  157.0703 S   0  0  0  0  0  0  0  0  0  0  0  0
  149.7944  133.6825  158.3041 O   0  0  0  0  0  0  0  0  0  0  0  0
  151.7739  132.5737  157.0759 O   0  0  0  0  0  0  0  0  0  0  0  0
  150.7554  134.7353  156.1936 O   0  0  0  0  0  0  0  0  0  0  0  0
  150.1444  134.5790  154.9232 C   0  0  2  0  0  0  0  0  0  0  0  0
  152.4084  142.2602  158.8201 C   0  0  0  0  0  0  0  0  0  0  0  0
  152.7894  142.3343  160.1789 C   0  0  0  0  0  0  0  0  0  0  0  0
  152.5871  143.5193  160.9127 C   0  0  0  0  0  0  0  0  0  0  0  0
  151.9957  144.6381  160.2965 C   0  0  0  0  0  0  0  0  0  0  0  0
  151.6023  144.5694  158.9467 C   0  0  0  0  0  0  0  0  0  0  0  0
  151.8041  143.3850  158.2115 C   0  0  0  0  0  0  0  0  0  0  0  0
  151.2856  141.6544  156.5660 H   0  0  0  0  0  0  0  0  0  0  0  0
  153.5938  138.5313  153.4641 H   0  0  0  0  0  0  0  0  0  0  0  0
  148.1680  137.2912  156.6960 H   0  0  0  0  0  0  0  0  0  0  0  0
  149.4343  136.0628  153.4579 H   0  0  0  0  0  0  0  0  0  0  0  0
  147.7848  134.4124  156.4456 H   0  0  0  0  0  0  0  0  0  0  0  0
  146.4091  132.6366  155.3604 H   0  0  0  0  0  0  0  0  0  0  0  0
  145.6532  134.2225  155.2729 H   0  0  0  0  0  0  0  0  0  0  0  0
  143.3132  134.2263  151.0646 H   0  0  0  0  0  0  0  0  0  0  0  0
  143.0586  133.1798  148.8444 H   0  0  0  0  0  0  0  0  0  0  0  0
  144.8179  131.6580  147.9637 H   0  0  0  0  0  0  0  0  0  0  0  0
  146.8430  131.1838  149.3263 H   0  0  0  0  0  0  0  0  0  0  0  0
  147.1231  132.2101  151.5437 H   0  0  0  0  0  0  0  0  0  0  0  0
  148.9880  132.9731  154.0451 H   0  0  0  0  0  0  0  0  0  0  0  0
  150.9111  134.3663  154.1778 H   0  0  0  0  0  0  0  0  0  0  0  0
  153.2434  141.4839  160.6671 H   0  0  0  0  0  0  0  0  0  0  0  0
  152.8853  143.5691  161.9494 H   0  0  0  0  0  0  0  0  0  0  0  0
  151.8396  145.5464  160.8596 H   0  0  0  0  0  0  0  0  0  0  0  0
  151.1419  145.4249  158.4751 H   0  0  0  0  0  0  0  0  0  0  0  0
  151.4856  143.3511  157.1796 H   0  0  0  0  0  0  0  0  0  0  0  0
  1  2  2  0  0  0  0
  2  3  1  0  0  0  0
  2 33  1  0  0  0  0
  3  4  1  0  0  0  0
  3 39  1  0  0  0  0
  4  9  1  0  0  0  0
  4  5  2  0  0  0  0
  5  6  1  0  0  0  0
  6  7  2  0  0  0  0
  6 40  1  0  0  0  0
  7  8  1  0  0  0  0
  8 12  1  0  0  0  0
  8  9  2  0  0  0  0
  9 10  1  0  0  0  0
 10 11  2  0  0  0  0
 11 12  1  0  0  0  0
 11 41  1  0  0  0  0
 12 13  1  0  0  0  0
 13 32  1  0  0  0  0
 13 14  1  0  0  0  0
 13 42  1  0  0  0  0
 14 15  1  0  0  0  0
 15 16  1  0  0  0  0
 15 26  1  0  0  0  0
 15 43  1  0  0  0  0
 16 17  1  0  0  0  0
 16 44  1  0  0  0  0
 16 45  1  0  0  0  0
 17 18  1  0  0  0  0
 18 19  2  0  0  0  0
 18 20  1  0  0  0  0
 20 25  1  0  0  0  0
 20 21  2  0  0  0  0
 21 22  1  0  0  0  0
 21 46  1  0  0  0  0
 22 23  2  0  0  0  0
 22 47  1  0  0  0  0
 23 24  1  0  0  0  0
 23 48  1  0  0  0  0
 24 25  2  0  0  0  0
 24 49  1  0  0  0  0
 25 50  1  0  0  0  0
 26 32  1  0  0  0  0
 26 27  1  0  0  0  0
 26 51  1  0  0  0  0
 27 28  1  0  0  0  0
 28 29  2  0  0  0  0
 28 30  2  0  0  0  0
 28 31  1  0  0  0  0
 31 32  1  0  0  0  0
 32 52  1  0  0  0  0
 33 38  1  0  0  0  0
 33 34  2  0  0  0  0
 34 35  1  0  0  0  0
 34 53  1  0  0  0  0
 35 36  2  0  0  0  0
 35 54  1  0  0  0  0
 36 37  1  0  0  0  0
 36 55  1  0  0  0  0
 37 38  2  0  0  0  0
 37 56  1  0  0  0  0
 38 57  1  0  0  0  0
M  END
> <s_m_source_file>
AV-unprocessed.smi

> <i_m_source_file_index>
1

> <i_lp_mmshare_version>
43012

> <i_f3d_flags>
0

> <s_epik_input>
W2NIXTFbY0hdW2NIXVtjSF1bY0hdYzFDKD1PKVtOSF1jKG5bY0hdbjIpYyhjMjMpbltjSF1uM1tDQEBIXShbQ0BIXShbQ0BIXTQ1KU9TKE81KSg9Tyk9TylPW0NASF00W0NIMl1PQyg9TyljNltjSF1bY0hdW2NIXVtjSF1bY0hdNg==

> <s_epik_cmdline>
J2VwaWtfcHl0aG9uJywgJy1waCcsICc3LjAnLCAnLXRuJywgJzgnLCAnLW1hJywgJzIwMCcsICctbWV0YWxfYmluZGluZycsICctaW1hZScsICc8aW5maWxlLm1hZT4nLCAnLW9tYWUnLCAnPG91dGZpbGUubWFlPic=

> <r_lp_tautomer_probability>
1

> <r_epik_Ionization_Penalty>
0.00195722

> <r_epik_Ionization_Penalty_Charging>
0

> <r_epik_Ionization_Penalty_Neutral>
0.00195722

> <r_epik_State_Penalty>
0.00633741

> <r_epik_Charging_Adjusted_Penalty>
0.00633741

> <i_epik_Tot_Q>
0

> <i_epik_Tot_abs_Q>
0

> <r_epik_Metal_State_Penalty>
0.341185

> <b_epik_Metal_Only>
0

> <s_epik_Chemistry_Notes>
This compound has an ester and may undergo hydrolysis at high or low pH. This compound contains an acetal/aminal-like group ( X-CH(R)-Y where X, Y are N, S, or O) that may be acid/base labile, releasing an aldehyde.

> <s_lp_Force_Field>
OPLS_2005

> <r_lp_Energy>
46.2159

> <b_lp_Chiralities_Consistent>
1

> <s_lp_Variant>
AV-unprocessed.smi:1-1

> <Gold.Version>
5.8.1

> <Gold.Id.Protein>
6NUR|6NUR_protein|mol2

> <Gold.PLP.Fitness>
61.3053

> <Gold.PLP.PLP>
-55.3111

> <Gold.PLP.part.hbond>
-5.3820

> <Gold.PLP.part.metal>
0.0000

> <Gold.PLP.part.buried>
0.6547

> <Gold.PLP.part.nonpolar>
-49.7664

> <Gold.PLP.part.repulsive>
0.5572

> <Gold.PLP.ligand.clash>
0.0000

> <Gold.PLP.ligand.torsion>
1.9757

> <Gold.PLP.Chemscore.Hbond>
3.2847

> <Gold.PLP.Chemscore.CHOScore>
0.0000

> <Gold.PLP.Chemscore.Metal>
0.0000

> <Gold.Chemscore.Hbonds>
donor molecule, donor type, donor heavy atom, donor atom, acceptor molecule, acceptor atom, score
      P1  H  6896  6907       L1    29  0.67
      P1  H  7989  7998       L1     5  0.05
      P1  H  7997  8008       L1     1  0.61
      P1  H  7997  8009       L1     5  1.00
      P1  H 10752 10763       L1     7  0.41

> <Gold.PLP.Chemscore.Internal.Correction>
0.0915

> <Gold.Rescore>
     Score         DG    S(hbond)    S(metal)    S(lipo)     H(rot)  DE(clash)    DE(int)     intcor
     17.66     -21.79       1.46        0.00     144.39       2.13       2.24       1.89       ----

> <Gold.Chemscore.Fitness>
17.6642

> <Gold.Chemscore.DG>
-21.7877

> <Gold.Chemscore.ZeroCoef>
-5.4800

> <Gold.Chemscore.Hbond>
1.4596

> <Gold.Chemscore.Metal>
0.0000

> <Gold.Chemscore.Lipo>
144.3947

> <Gold.Chemscore.Internal_Hbond>
0.0000

> <Gold.Chemscore.DEClash>
2.2368

> <Gold.Chemscore.DEInternal>
1.8868

> <Gold.Chemscore.Rot>
2.1333

> <Gold.Chemscore.Internal.Correction>
   9.000000E+99

> <Gold.Chemscore.Hbonds>
donor molecule, donor type, donor heavy atom, donor atom, acceptor molecule, acceptor atom, score
      P1  H  6896  6907       L1    29  0.59
      P1  H  7997  8008       L1     1  0.50
      P1  H  7997  8009       L1     5  0.76
      P1  H 10752 10763       L1     7  0.21

> <Gold.Chemscore.Hbond.Weighted>
-4.8749

> <Gold.Chemscore.Metal.Weighted>
-0.0000

> <Gold.Chemscore.Lipo.Weighted>
-16.8942

> <Gold.Chemscore.Internal_Hbond.Weighted>
0.0000

> <Gold.Chemscore.DEClash.Weighted>
2.2368

> <Gold.Chemscore.DEInternal.Weighted>
1.8868

> <Gold.Chemscore.Rot.Weighted>
5.4614

> <Gold.Chemscore.Internal.Correction.Weighted>
   9.000000E+99

> <Gold.Protein.RotatedTorsions>
[ 6907 6896 6895 6894 ] final  -82.41 input  -60.11 | X-H torsion
[ 7974 7965 7964 7962 ] final  137.43 input  175.53 | X-H torsion
[ 8008 7997 7996 7995 ] final -118.48 input   59.86 | X-H torsion
[ 10167 10162 10161 10158 ] final   85.57 input  -65.29 | X-H torsion
[ 10718 10713 10712 10709 ] final   85.26 input   66.30 | X-H torsion
[ 10763 10752 10751 10750 ] final   34.62 input  -60.55 | X-H torsion
[ 11005 11000 10999 10996 ] final  159.65 input  -57.11 | X-H torsion

> <Gold.Protein.ActiveResidues>
 VAL166  LYS551  ARG553  GLY616  TRP617  ASP618  TYR619  PRO620  LYS621  CYS622 
 ASP623  PHE694  ASN695  SER759  ASP760  ASP761  ALA762  ILE779  LEU786  VAL792 
 PHE793  MET794  SER795  GLU796  ALA797  LYS798  CYS799  TRP800  GLU811  SER814 

> <Gold.Protein.RotatedAtoms>
  150.6898  134.3669  159.4974 H   0  0  0  0  0  0  0  0  0  0  0  0  # atno 6907 bound_to 6896
  152.1490  134.9000  160.0558 H   0  0  0  0  0  0  0  0  0  0  0  0  # atno 6908 bound_to 6896
  152.0105  133.3825  159.4255 H   0  0  0  0  0  0  0  0  0  0  0  0  # atno 6909 bound_to 6896
  144.9468  139.4865  143.5545 H   0  0  0  0  0  0  0  0  0  0  0  0  # atno 7974 bound_to 7965
  155.1003  140.0396  157.2695 H   0  0  0  0  0  0  0  0  0  0  0  0  # atno 8008 bound_to 7997
  154.6763  140.2623  155.6929 H   0  0  0  0  0  0  0  0  0  0  0  0  # atno 8009 bound_to 7997
  156.2678  140.2787  156.1291 H   0  0  0  0  0  0  0  0  0  0  0  0  # atno 8010 bound_to 7997
  139.8964  144.6355  150.8683 H   0  0  0  0  0  0  0  0  0  0  0  0  # atno 10167 bound_to 10162
  157.6912  131.0167  150.2796 H   0  0  0  0  0  0  0  0  0  0  0  0  # atno 10718 bound_to 10713
  153.0156  135.6355  154.1698 H   0  0  0  0  0  0  0  0  0  0  0  0  # atno 10763 bound_to 10752
  154.1437  135.2833  155.3155 H   0  0  0  0  0  0  0  0  0  0  0  0  # atno 10764 bound_to 10752
  154.6105  135.5558  153.7529 H   0  0  0  0  0  0  0  0  0  0  0  0  # atno 10765 bound_to 10752
  140.1982  134.8357  157.2988 H   0  0  0  0  0  0  0  0  0  0  0  0  # atno 11005 bound_to 11000
  146.3306  139.8526  142.8870 LP  0  0  0  0  0  0  0  0  0  0  0  0  # atno 17320 bound_to 7965
  145.2905  141.0166  143.3666 LP  0  0  0  0  0  0  0  0  0  0  0  0  # atno 17321 bound_to 7965
  140.7716  143.3470  151.2091 LP  0  0  0  0  0  0  0  0  0  0  0  0  # atno 17342 bound_to 10162
  139.7064  143.9449  152.2928 LP  0  0  0  0  0  0  0  0  0  0  0  0  # atno 17343 bound_to 10162
  156.3345  130.3805  149.7462 LP  0  0  0  0  0  0  0  0  0  0  0  0  # atno 17370 bound_to 10713
  156.4991  130.8120  151.3125 LP  0  0  0  0  0  0  0  0  0  0  0  0  # atno 17371 bound_to 10713
  140.2083  134.4169  155.7626 LP  0  0  0  0  0  0  0  0  0  0  0  0  # atno 17394 bound_to 11000
  141.2227  133.7106  156.8297 LP  0  0  0  0  0  0  0  0  0  0  0  0  # atno 17395 bound_to 11000

$$$$
