AV-unprocessed.smi:1965|AV-procd|sdf|7945|dock8
  -GOLD-   2272010113D 1   1.00000     0.00000
 Structure written by MMmdl.
 36 38  0  0  0  0  0  0  0  0  3 V2000
  149.3850  135.2157  158.1465 O   0  0  0  0  0  0  0  0  0  0  0  0
  148.9590  136.3697  158.1702 C   0  0  0  0  0  0  0  0  0  0  0  0
  148.6751  137.0403  159.3170 N   0  5  0  0  0  0  0  0  0  0  0  0
  148.0877  136.4501  160.3745 C   0  0  0  0  0  0  0  0  0  0  0  0
  147.7350  137.1130  161.4821 N   0  0  0  0  0  0  0  0  0  0  0  0
  147.1453  136.2994  162.4515 C   0  0  0  0  0  0  0  0  0  0  0  0
  147.0448  134.9871  162.0721 C   0  0  0  0  0  0  0  0  0  0  0  0
  147.6870  134.7333  160.4746 S   0  0  0  0  0  0  0  0  0  0  0  0
  148.7584  137.0118  157.0046 N   0  0  0  0  0  0  0  0  0  0  0  0
  149.0301  136.4804  155.6752 C   0  0  1  0  0  0  0  0  0  0  0  0
  150.3542  135.7005  155.5612 C   0  0  0  0  0  0  0  0  0  0  0  0
  150.0506  134.5204  154.6168 C   0  0  0  0  0  0  0  0  0  0  0  0
  148.6541  134.7171  154.1822 N   0  3  1  0  0  0  0  0  0  0  0  0
  147.9056  133.5175  153.7473 C   0  0  0  0  0  0  0  0  0  0  0  0
  146.5011  133.9386  153.2684 C   0  0  0  0  0  0  0  0  0  0  0  0
  145.7597  134.7768  154.3304 C   0  0  0  0  0  0  0  0  0  0  0  0
  146.6247  135.9596  154.8070 C   0  0  0  0  0  0  0  0  0  0  0  0
  147.9904  135.4361  155.2788 C   0  0  2  0  0  0  0  0  0  0  0  0
  146.8253  136.7389  163.3845 H   0  0  0  0  0  0  0  0  0  0  0  0
  146.6313  134.1595  162.6286 H   0  0  0  0  0  0  0  0  0  0  0  0
  148.3993  137.9541  157.0546 H   0  0  0  0  0  0  0  0  0  0  0  0
  149.0221  137.2921  154.9446 H   0  0  0  0  0  0  0  0  0  0  0  0
  151.1524  136.3363  155.1763 H   0  0  0  0  0  0  0  0  0  0  0  0
  150.6768  135.3221  156.5326 H   0  0  0  0  0  0  0  0  0  0  0  0
  150.7214  134.4920  153.7578 H   0  0  0  0  0  0  0  0  0  0  0  0
  150.1486  133.5765  155.1554 H   0  0  0  0  0  0  0  0  0  0  0  0
  148.4461  133.0211  152.9410 H   0  0  0  0  0  0  0  0  0  0  0  0
  147.8308  132.8072  154.5721 H   0  0  0  0  0  0  0  0  0  0  0  0
  146.5937  134.5230  152.3520 H   0  0  0  0  0  0  0  0  0  0  0  0
  145.9137  133.0565  153.0119 H   0  0  0  0  0  0  0  0  0  0  0  0
  144.8134  135.1410  153.9291 H   0  0  0  0  0  0  0  0  0  0  0  0
  145.5102  134.1434  155.1828 H   0  0  0  0  0  0  0  0  0  0  0  0
  146.7559  136.6754  153.9944 H   0  0  0  0  0  0  0  0  0  0  0  0
  146.1230  136.4912  155.6165 H   0  0  0  0  0  0  0  0  0  0  0  0
  147.8447  134.7422  156.1106 H   0  0  0  0  0  0  0  0  0  0  0  0
  148.6841  135.3566  153.4011 H   0  0  0  0  0  0  0  0  0  0  0  0
  1  2  2  0  0  0  0
  2  3  1  0  0  0  0
  2  9  1  0  0  0  0
  3  4  1  0  0  0  0
  4  8  1  0  0  0  0
  4  5  2  0  0  0  0
  5  6  1  0  0  0  0
  6  7  2  0  0  0  0
  6 19  1  0  0  0  0
  7  8  1  0  0  0  0
  7 20  1  0  0  0  0
  9 10  1  0  0  0  0
  9 21  1  0  0  0  0
 10 18  1  0  0  0  0
 10 11  1  0  0  0  0
 10 22  1  0  0  0  0
 11 12  1  0  0  0  0
 11 23  1  0  0  0  0
 11 24  1  0  0  0  0
 12 13  1  0  0  0  0
 12 25  1  0  0  0  0
 12 26  1  0  0  0  0
 13 18  1  0  0  0  0
 13 14  1  0  0  0  0
 13 36  1  0  0  0  0
 14 15  1  0  0  0  0
 14 27  1  0  0  0  0
 14 28  1  0  0  0  0
 15 16  1  0  0  0  0
 15 29  1  0  0  0  0
 15 30  1  0  0  0  0
 16 17  1  0  0  0  0
 16 31  1  0  0  0  0
 16 32  1  0  0  0  0
 17 18  1  0  0  0  0
 17 33  1  0  0  0  0
 17 34  1  0  0  0  0
 18 35  1  0  0  0  0
M  CHG  1   3  -1
M  CHG  1  13   1
M  END
> <s_m_source_file>
AV-unprocessed.smi

> <i_m_source_file_index>
1965

> <i_lp_mmshare_version>
43012

> <i_f3d_flags>
0

> <s_epik_input>
czFbY0hdW2NIXW5jMVtOSF1DKD1PKVtOSF1bQ0BIXShbQ0gyXVtDSDJdMilbQ0BASF0oTjIzKVtDSDJdW0NIMl1bQ0gyXVtDSDJdMw==

> <s_epik_cmdline>
J2VwaWtfcHl0aG9uJywgJy1waCcsICc3LjAnLCAnLXRuJywgJzgnLCAnLW1hJywgJzIwMCcsICctbWV0YWxfYmluZGluZycsICctaW1hZScsICc8aW5maWxlLm1hZT4nLCAnLW9tYWUnLCAnPG91dGZpbGUubWFlPic=

> <r_lp_tautomer_probability>
1

> <r_epik_Ionization_Penalty>
7.4116

> <r_epik_Ionization_Penalty_Charging>
6.13869

> <r_epik_Ionization_Penalty_Neutral>
1.27291

> <r_epik_State_Penalty>
6.13761

> <r_epik_Charging_Adjusted_Penalty>
12.2763

> <i_epik_Tot_Q>
0

> <i_epik_Tot_abs_Q>
2

> <r_epik_Metal_State_Penalty>
2.08142

> <b_epik_Metal_Only>
1

> <s_lp_Force_Field>
OPLS_2005

> <r_lp_Energy>
26.2693

> <b_lp_Chiralities_Consistent>
1

> <s_lp_Variant>
AV-unprocessed.smi:1965-14

> <Gold.Version>
5.8.1

> <Gold.Id.Protein>
6NUR|6NUR_protein|mol2

> <Gold.PLP.Fitness>
40.1648

> <Gold.PLP.PLP>
-26.7069

> <Gold.PLP.part.hbond>
-4.0000

> <Gold.PLP.part.metal>
0.0000

> <Gold.PLP.part.buried>
-4.3611

> <Gold.PLP.part.nonpolar>
-17.7682

> <Gold.PLP.part.repulsive>
0.0048

> <Gold.PLP.ligand.clash>
0.0000

> <Gold.PLP.ligand.torsion>
0.5149

> <Gold.PLP.Chemscore.Hbond>
4.8240

> <Gold.PLP.Chemscore.CHOScore>
0.0000

> <Gold.PLP.Chemscore.Metal>
0.0000

> <Gold.Chemscore.Hbonds>
donor molecule, donor type, donor heavy atom, donor atom, acceptor molecule, acceptor atom, score
      L1  H    13    36       P1  7948  2.00
      P1  H  6896  6907       L1     1  1.00
      P1  H  6931  6943       L1     5  1.00
      P1  H  6934  6947       L1     5  0.73

> <Gold.PLP.Chemscore.Internal.Correction>
0.0157

> <Gold.Rescore>
     Score         DG    S(hbond)    S(metal)    S(lipo)     H(rot)  DE(clash)    DE(int)     intcor
     16.33     -19.42       3.20        0.00      49.67       1.00       0.06       3.03       ----

> <Gold.Chemscore.Fitness>
16.3317

> <Gold.Chemscore.DG>
-19.4216

> <Gold.Chemscore.ZeroCoef>
-5.4800

> <Gold.Chemscore.Hbond>
3.2007

> <Gold.Chemscore.Metal>
0.0000

> <Gold.Chemscore.Lipo>
49.6701

> <Gold.Chemscore.Internal_Hbond>
0.0000

> <Gold.Chemscore.DEClash>
0.0595

> <Gold.Chemscore.DEInternal>
3.0304

> <Gold.Chemscore.Rot>
1.0000

> <Gold.Chemscore.Internal.Correction>
   9.000000E+99

> <Gold.Chemscore.Hbonds>
donor molecule, donor type, donor heavy atom, donor atom, acceptor molecule, acceptor atom, score
      L1  H    13    36       P1  7948  0.88
      P1  H  6896  6907       L1     1  0.94
      P1  H  6931  6943       L1     5  0.67
      P1  H  6934  6947       L1     5  0.45

> <Gold.Chemscore.Hbond.Weighted>
-10.6902

> <Gold.Chemscore.Metal.Weighted>
-0.0000

> <Gold.Chemscore.Lipo.Weighted>
-5.8114

> <Gold.Chemscore.Internal_Hbond.Weighted>
0.0000

> <Gold.Chemscore.DEClash.Weighted>
0.0595

> <Gold.Chemscore.DEInternal.Weighted>
3.0304

> <Gold.Chemscore.Rot.Weighted>
2.5600

> <Gold.Chemscore.Internal.Correction.Weighted>
   9.000000E+99

> <Gold.Protein.RotatedTorsions>
[ 6907 6896 6895 6894 ] final  -70.65 input  -60.11 | X-H torsion
[ 7974 7965 7964 7962 ] final -140.25 input  175.53 | X-H torsion
[ 8008 7997 7996 7995 ] final   97.09 input   59.86 | X-H torsion
[ 10167 10162 10161 10158 ] final  -18.20 input  -65.29 | X-H torsion
[ 10718 10713 10712 10709 ] final -125.50 input   66.30 | X-H torsion
[ 10763 10752 10751 10750 ] final  -16.85 input  -60.55 | X-H torsion
[ 11005 11000 10999 10996 ] final  -96.55 input  -57.11 | X-H torsion

> <Gold.Protein.ActiveResidues>
 VAL166  LYS551  ARG553  GLY616  TRP617  ASP618  TYR619  PRO620  LYS621  CYS622 
 ASP623  PHE694  ASN695  SER759  ASP760  ASP761  ALA762  ILE779  LEU786  VAL792 
 PHE793  MET794  SER795  GLU796  ALA797  LYS798  CYS799  TRP800  GLU811  SER814 

> <Gold.Protein.RotatedAtoms>
  150.7248  134.5423  159.5752 H   0  0  0  0  0  0  0  0  0  0  0  0  # atno 6907 bound_to 6896
  152.2930  134.7696  160.0383 H   0  0  0  0  0  0  0  0  0  0  0  0  # atno 6908 bound_to 6896
  151.8303  133.3372  159.3648 H   0  0  0  0  0  0  0  0  0  0  0  0  # atno 6909 bound_to 6896
  144.8612  140.6222  143.5327 H   0  0  0  0  0  0  0  0  0  0  0  0  # atno 7974 bound_to 7965
  156.0865  140.3263  155.7760 H   0  0  0  0  0  0  0  0  0  0  0  0  # atno 8008 bound_to 7997
  155.5067  140.0573  157.2947 H   0  0  0  0  0  0  0  0  0  0  0  0  # atno 8009 bound_to 7997
  154.4612  140.1967  156.0256 H   0  0  0  0  0  0  0  0  0  0  0  0  # atno 8010 bound_to 7997
  140.7256  143.4940  150.9955 H   0  0  0  0  0  0  0  0  0  0  0  0  # atno 10167 bound_to 10162
  156.1681  130.6648  151.0142 H   0  0  0  0  0  0  0  0  0  0  0  0  # atno 10718 bound_to 10713
  153.5649  135.7009  153.5531 H   0  0  0  0  0  0  0  0  0  0  0  0  # atno 10763 bound_to 10752
  153.3396  135.4024  155.1561 H   0  0  0  0  0  0  0  0  0  0  0  0  # atno 10764 bound_to 10752
  154.8642  135.3739  154.5168 H   0  0  0  0  0  0  0  0  0  0  0  0  # atno 10765 bound_to 10752
  141.1408  133.8106  157.0586 H   0  0  0  0  0  0  0  0  0  0  0  0  # atno 11005 bound_to 11000
  145.4309  139.1549  143.4023 LP  0  0  0  0  0  0  0  0  0  0  0  0  # atno 17320 bound_to 7965
  146.2862  140.4425  142.8757 LP  0  0  0  0  0  0  0  0  0  0  0  0  # atno 17321 bound_to 7965
  139.8645  143.7271  152.3171 LP  0  0  0  0  0  0  0  0  0  0  0  0  # atno 17342 bound_to 10162
  139.7498  144.7537  151.0524 LP  0  0  0  0  0  0  0  0  0  0  0  0  # atno 17343 bound_to 10162
  157.6783  131.0845  150.7437 LP  0  0  0  0  0  0  0  0  0  0  0  0  # atno 17370 bound_to 10713
  156.7498  130.4765  149.5459 LP  0  0  0  0  0  0  0  0  0  0  0  0  # atno 17371 bound_to 10713
  140.0586  134.9767  157.1264 LP  0  0  0  0  0  0  0  0  0  0  0  0  # atno 17394 bound_to 11000
  140.3882  134.2213  155.7167 LP  0  0  0  0  0  0  0  0  0  0  0  0  # atno 17395 bound_to 11000

$$$$
