AV-unprocessed.smi:1648|AV-procd|sdf|6627|dock6
  -GOLD-   22720 7323D 1   1.00000     0.00000
 Structure written by MMmdl.
 42 42  0  0  0  0  0  0  0  0  2 V2000
  150.6066  134.2767  154.9048 C   0  0  0  0  0  0  0  0  0  0  0  0
  150.1280  135.5935  155.5191 C   0  0  0  0  0  0  0  0  0  0  0  0
  150.1596  135.7356  156.7390 O   0  0  0  0  0  0  0  0  0  0  0  0
  149.6783  136.5715  154.7138 N   0  0  0  0  0  0  0  0  0  0  0  0
  149.1822  137.8915  155.1115 C   0  0  2  0  0  0  0  0  0  0  0  0
  147.6980  137.9607  154.7088 C   0  0  0  0  0  0  0  0  0  0  0  0
  146.8721  138.4808  155.4606 O   0  0  0  0  0  0  0  0  0  0  0  0
  147.3799  137.4452  153.5106 N   0  0  0  0  0  0  0  0  0  0  0  0
  146.0474  137.4488  152.9081 C   0  0  2  0  0  0  0  0  0  0  0  0
  145.1581  136.4549  153.6669 C   0  0  0  0  0  0  0  0  0  0  0  0
  146.1175  137.1029  151.4037 C   0  0  0  0  0  0  0  0  0  0  0  0
  145.4455  135.8409  151.0708 N   0  0  0  0  0  0  0  0  0  0  0  0
  146.0034  134.5886  151.0288 C   0  0  0  0  0  0  0  0  0  0  0  0
  144.9959  133.7225  150.6905 C   0  0  0  0  0  0  0  0  0  0  0  0
  143.8688  134.4826  150.5292 N   0  3  0  0  0  0  0  0  0  0  0  0
  144.1467  135.7714  150.7496 C   0  0  0  0  0  0  0  0  0  0  0  0
  149.9922  138.9850  154.3552 C   0  0  0  0  0  0  0  0  0  0  0  0
  151.4919  138.9309  154.7065 C   0  0  0  0  0  0  0  0  0  0  0  0
  149.4637  140.4109  154.6172 C   0  0  0  0  0  0  0  0  0  0  0  0
  149.7703  133.7424  154.4535 H   0  0  0  0  0  0  0  0  0  0  0  0
  151.0439  133.6332  155.6690 H   0  0  0  0  0  0  0  0  0  0  0  0
  151.3633  134.4479  154.1398 H   0  0  0  0  0  0  0  0  0  0  0  0
  149.6269  136.3625  153.7271 H   0  0  0  0  0  0  0  0  0  0  0  0
  149.2941  138.0449  156.1863 H   0  0  0  0  0  0  0  0  0  0  0  0
  148.1217  137.0285  152.9666 H   0  0  0  0  0  0  0  0  0  0  0  0
  145.5952  138.4356  153.0233 H   0  0  0  0  0  0  0  0  0  0  0  0
  144.1431  136.4532  153.2683 H   0  0  0  0  0  0  0  0  0  0  0  0
  145.0942  136.7129  154.7245 H   0  0  0  0  0  0  0  0  0  0  0  0
  145.5451  135.4379  153.5945 H   0  0  0  0  0  0  0  0  0  0  0  0
  145.6824  137.9019  150.8006 H   0  0  0  0  0  0  0  0  0  0  0  0
  147.1566  137.0009  151.0887 H   0  0  0  0  0  0  0  0  0  0  0  0
  147.0461  134.4104  151.2485 H   0  0  0  0  0  0  0  0  0  0  0  0
  144.9963  132.6505  150.5567 H   0  0  0  0  0  0  0  0  0  0  0  0
  143.4531  136.5907  150.6912 H   0  0  0  0  0  0  0  0  0  0  0  0
  149.9111  138.8024  153.2821 H   0  0  0  0  0  0  0  0  0  0  0  0
  151.6524  139.0754  155.7754 H   0  0  0  0  0  0  0  0  0  0  0  0
  152.0467  139.7087  154.1807 H   0  0  0  0  0  0  0  0  0  0  0  0
  151.9427  137.9782  154.4285 H   0  0  0  0  0  0  0  0  0  0  0  0
  149.4773  140.6476  155.6816 H   0  0  0  0  0  0  0  0  0  0  0  0
  148.4430  140.5448  154.2587 H   0  0  0  0  0  0  0  0  0  0  0  0
  150.0756  141.1549  154.1062 H   0  0  0  0  0  0  0  0  0  0  0  0
  142.9558  134.1235  150.2783 H   0  0  0  0  0  0  0  0  0  0  0  0
  1  2  1  0  0  0  0
  1 20  1  0  0  0  0
  1 21  1  0  0  0  0
  1 22  1  0  0  0  0
  2  3  2  0  0  0  0
  2  4  1  0  0  0  0
  4  5  1  0  0  0  0
  4 23  1  0  0  0  0
  5  6  1  0  0  0  0
  5 17  1  0  0  0  0
  5 24  1  0  0  0  0
  6  7  2  0  0  0  0
  6  8  1  0  0  0  0
  8  9  1  0  0  0  0
  8 25  1  0  0  0  0
  9 10  1  0  0  0  0
  9 11  1  0  0  0  0
  9 26  1  0  0  0  0
 10 27  1  0  0  0  0
 10 28  1  0  0  0  0
 10 29  1  0  0  0  0
 11 12  1  0  0  0  0
 11 30  1  0  0  0  0
 11 31  1  0  0  0  0
 12 16  1  0  0  0  0
 12 13  1  0  0  0  0
 13 14  2  0  0  0  0
 13 32  1  0  0  0  0
 14 15  1  0  0  0  0
 14 33  1  0  0  0  0
 15 16  2  0  0  0  0
 15 42  1  0  0  0  0
 16 34  1  0  0  0  0
 17 18  1  0  0  0  0
 17 19  1  0  0  0  0
 17 35  1  0  0  0  0
 18 36  1  0  0  0  0
 18 37  1  0  0  0  0
 18 38  1  0  0  0  0
 19 39  1  0  0  0  0
 19 40  1  0  0  0  0
 19 41  1  0  0  0  0
M  CHG  1  15   1
M  END
> <s_m_source_file>
AV-unprocessed.smi

> <i_m_source_file_index>
1648

> <i_lp_mmshare_version>
43012

> <i_f3d_flags>
0

> <s_epik_input>
W0NIM11DKD1PKVtOSF1bQ0BASF0oW0NIXShbQ0gzXSlbQ0gzXSlDKD1PKVtOSF1bQ0BIXShbQ0gzXSlbQ0gyXW4xW2NIXVtjSF1uW2NIXTE=

> <s_epik_cmdline>
J2VwaWtfcHl0aG9uJywgJy1waCcsICc3LjAnLCAnLXRuJywgJzgnLCAnLW1hJywgJzIwMCcsICctbWV0YWxfYmluZGluZycsICctaW1hZScsICc8aW5maWxlLm1hZT4nLCAnLW9tYWUnLCAnPG91dGZpbGUubWFlPic=

> <r_lp_tautomer_probability>
1

> <r_epik_Ionization_Penalty>
0.251562

> <r_epik_Ionization_Penalty_Charging>
0

> <r_epik_Ionization_Penalty_Neutral>
0.251562

> <r_epik_State_Penalty>
0.242926

> <r_epik_Charging_Adjusted_Penalty>
0.242926

> <i_epik_Tot_Q>
1

> <i_epik_Tot_abs_Q>
1

> <r_epik_Metal_State_Penalty>
0.53388

> <b_epik_Metal_Only>
0

> <s_lp_Force_Field>
OPLS_2005

> <r_lp_Energy>
9.98337

> <b_lp_Chiralities_Consistent>
1

> <s_lp_Variant>
AV-unprocessed.smi:1648-1

> <Gold.Version>
5.8.1

> <Gold.Id.Protein>
6NUR|6NUR_protein|mol2

> <Gold.PLP.Fitness>
41.2136

> <Gold.PLP.PLP>
-28.4048

> <Gold.PLP.part.hbond>
-3.0000

> <Gold.PLP.part.metal>
0.0000

> <Gold.PLP.part.buried>
0.0275

> <Gold.PLP.part.nonpolar>
-25.6147

> <Gold.PLP.part.repulsive>
0.0829

> <Gold.PLP.ligand.clash>
0.0000

> <Gold.PLP.ligand.torsion>
1.7770

> <Gold.PLP.Chemscore.Hbond>
4.0000

> <Gold.PLP.Chemscore.CHOScore>
1.4340

> <Gold.PLP.Chemscore.Metal>
0.0000

> <Gold.Chemscore.Hbonds>
donor molecule, donor type, donor heavy atom, donor atom, acceptor molecule, acceptor atom, score
      L1  H     4    23       P1  7948  1.00
      L1  H     8    25       P1  7948  1.00
      L1  H    15    42       P1 10186  1.66
      L1  C    13    32       P1  7948  0.69
      L1  C    16    34       P1 10171  0.93

> <Gold.PLP.Chemscore.Internal.Correction>
0.0607

> <Gold.Rescore>
     Score         DG    S(hbond)    S(metal)    S(lipo)     H(rot)  DE(clash)    DE(int)     intcor
     12.11     -14.57       2.65        0.00      59.13       2.61       0.63       1.83       ----

> <Gold.Chemscore.Fitness>
12.1082

> <Gold.Chemscore.DG>
-14.5728

> <Gold.Chemscore.ZeroCoef>
-5.4800

> <Gold.Chemscore.Hbond>
2.6543

> <Gold.Chemscore.Metal>
0.0000

> <Gold.Chemscore.Lipo>
59.1277

> <Gold.Chemscore.Internal_Hbond>
0.0000

> <Gold.Chemscore.DEClash>
0.6323

> <Gold.Chemscore.DEInternal>
1.8323

> <Gold.Chemscore.Rot>
2.6135

> <Gold.Chemscore.Internal.Correction>
   9.000000E+99

> <Gold.Chemscore.Hbonds>
donor molecule, donor type, donor heavy atom, donor atom, acceptor molecule, acceptor atom, score
      L1  H     4    23       P1  7948  0.54
      L1  H     8    25       P1  7948  0.98
      L1  H    15    42       P1 10186  0.73

> <Gold.Chemscore.Hbond.Weighted>
-8.8655

> <Gold.Chemscore.Metal.Weighted>
-0.0000

> <Gold.Chemscore.Lipo.Weighted>
-6.9179

> <Gold.Chemscore.Internal_Hbond.Weighted>
0.0000

> <Gold.Chemscore.DEClash.Weighted>
0.6323

> <Gold.Chemscore.DEInternal.Weighted>
1.8323

> <Gold.Chemscore.Rot.Weighted>
6.6906

> <Gold.Chemscore.Internal.Correction.Weighted>
   9.000000E+99

> <Gold.Protein.RotatedTorsions>
[ 6907 6896 6895 6894 ] final  -18.97 input  -60.11 | X-H torsion
[ 7974 7965 7964 7962 ] final  -20.97 input  175.53 | X-H torsion
[ 8008 7997 7996 7995 ] final -147.95 input   59.86 | X-H torsion
[ 10167 10162 10161 10158 ] final   97.56 input  -65.29 | X-H torsion
[ 10718 10713 10712 10709 ] final  159.08 input   66.30 | X-H torsion
[ 10763 10752 10751 10750 ] final -117.33 input  -60.55 | X-H torsion
[ 11005 11000 10999 10996 ] final  -87.77 input  -57.11 | X-H torsion

> <Gold.Protein.ActiveResidues>
 VAL166  LYS551  ARG553  GLY616  TRP617  ASP618  TYR619  PRO620  LYS621  CYS622 
 ASP623  PHE694  ASN695  SER759  ASP760  ASP761  ALA762  ILE779  LEU786  VAL792 
 PHE793  MET794  SER795  GLU796  ALA797  LYS798  CYS799  TRP800  GLU811  SER814 

> <Gold.Protein.RotatedAtoms>
  151.2702  135.0682  159.9130 H   0  0  0  0  0  0  0  0  0  0  0  0  # atno 6907 bound_to 6896
  152.5352  134.0139  159.7961 H   0  0  0  0  0  0  0  0  0  0  0  0  # atno 6908 bound_to 6896
  151.0376  133.5685  159.2685 H   0  0  0  0  0  0  0  0  0  0  0  0  # atno 6909 bound_to 6896
  146.1759  140.4276  142.8514 H   0  0  0  0  0  0  0  0  0  0  0  0  # atno 7974 bound_to 7965
  155.5838  140.0646  157.2776 H   0  0  0  0  0  0  0  0  0  0  0  0  # atno 8008 bound_to 7997
  154.4325  140.1847  156.1050 H   0  0  0  0  0  0  0  0  0  0  0  0  # atno 8009 bound_to 7997
  156.0285  140.3309  155.7117 H   0  0  0  0  0  0  0  0  0  0  0  0  # atno 8010 bound_to 7997
  139.7790  144.6895  151.0049 H   0  0  0  0  0  0  0  0  0  0  0  0  # atno 10167 bound_to 10162
  157.1691  131.0605  151.2192 H   0  0  0  0  0  0  0  0  0  0  0  0  # atno 10718 bound_to 10713
  154.8551  135.4313  154.1963 H   0  0  0  0  0  0  0  0  0  0  0  0  # atno 10763 bound_to 10752
  153.3020  135.6969  153.7200 H   0  0  0  0  0  0  0  0  0  0  0  0  # atno 10764 bound_to 10752
  153.6327  135.3482  155.3021 H   0  0  0  0  0  0  0  0  0  0  0  0  # atno 10765 bound_to 10752
  141.1612  133.7531  156.9355 H   0  0  0  0  0  0  0  0  0  0  0  0  # atno 11005 bound_to 11000
  144.8235  140.6590  143.6337 LP  0  0  0  0  0  0  0  0  0  0  0  0  # atno 17320 bound_to 7965
  145.4213  139.1563  143.4072 LP  0  0  0  0  0  0  0  0  0  0  0  0  # atno 17321 bound_to 7965
  140.7817  143.4504  151.0421 LP  0  0  0  0  0  0  0  0  0  0  0  0  # atno 17342 bound_to 10162
  139.8185  143.7852  152.3175 LP  0  0  0  0  0  0  0  0  0  0  0  0  # atno 17343 bound_to 10162
  157.4060  130.7359  149.6803 LP  0  0  0  0  0  0  0  0  0  0  0  0  # atno 17370 bound_to 10713
  155.9741  130.4108  150.3948 LP  0  0  0  0  0  0  0  0  0  0  0  0  # atno 17371 bound_to 10713
  140.1357  134.9327  157.2398 LP  0  0  0  0  0  0  0  0  0  0  0  0  # atno 17394 bound_to 11000
  140.2898  134.3253  155.7318 LP  0  0  0  0  0  0  0  0  0  0  0  0  # atno 17395 bound_to 11000

$$$$
