AV-unprocessed.smi:2264|AV-procd|sdf|9142|dock6
  -GOLD-   2272012343D 1   1.00000     0.00000
 Structure written by MMmdl.
 44 45  0  0  0  0  0  0  0  0  1 V2000
  153.3858  142.9888  163.1580 C   0  0  0  0  0  0  0  0  0  0  0  0
  153.0915  142.3054  161.8384 C   0  0  0  0  0  0  0  0  0  0  0  0
  152.2014  142.8869  160.9148 C   0  0  0  0  0  0  0  0  0  0  0  0
  151.9324  142.2465  159.6903 C   0  0  0  0  0  0  0  0  0  0  0  0
  152.5520  141.0118  159.3718 C   0  0  0  0  0  0  0  0  0  0  0  0
  152.3360  140.3280  158.1944 O   0  0  0  0  0  0  0  0  0  0  0  0
  151.1190  140.5445  157.4932 C   0  0  0  0  0  0  0  0  0  0  0  0
  151.0464  139.5331  156.3396 C   0  0  1  0  0  0  0  0  0  0  0  0
  152.2849  139.5792  155.6608 O   0  0  0  0  0  0  0  0  0  0  0  0
  150.7981  138.0910  156.8410 C   0  0  0  0  0  0  0  0  0  0  0  0
  149.4549  137.9362  157.4217 N   0  0  0  0  0  0  0  0  0  0  0  0
  148.3888  138.4666  156.6754 C   0  0  0  0  0  0  0  0  0  0  0  0
  147.1659  138.3857  157.0865 N   0  0  0  0  0  0  0  0  0  0  0  0
  146.8795  137.7559  158.3012 C   0  0  0  0  0  0  0  0  0  0  0  0
  145.4127  137.7233  158.6930 C   0  0  0  0  0  0  0  0  0  0  0  0
  147.8659  137.2140  159.0667 C   0  0  0  0  0  0  0  0  0  0  0  0
  147.6135  136.5185  160.3986 C   0  0  0  0  0  0  0  0  0  0  0  0
  149.2625  137.2910  158.6077 C   0  0  0  0  0  0  0  0  0  0  0  0
  150.2024  136.8112  159.2443 O   0  0  0  0  0  0  0  0  0  0  0  0
  153.4423  140.4326  160.3050 C   0  0  0  0  0  0  0  0  0  0  0  0
  154.1203  139.1123  159.9884 C   0  0  0  0  0  0  0  0  0  0  0  0
  153.7091  141.0781  161.5305 C   0  0  0  0  0  0  0  0  0  0  0  0
  152.9271  143.9769  163.2059 H   0  0  0  0  0  0  0  0  0  0  0  0
  154.4614  143.1070  163.2919 H   0  0  0  0  0  0  0  0  0  0  0  0
  153.0000  142.3931  163.9857 H   0  0  0  0  0  0  0  0  0  0  0  0
  151.7197  143.8271  161.1411 H   0  0  0  0  0  0  0  0  0  0  0  0
  151.2422  142.7233  159.0113 H   0  0  0  0  0  0  0  0  0  0  0  0
  150.2778  140.3951  158.1723 H   0  0  0  0  0  0  0  0  0  0  0  0
  151.0685  141.5635  157.1047 H   0  0  0  0  0  0  0  0  0  0  0  0
  150.2640  139.8484  155.6477 H   0  0  0  0  0  0  0  0  0  0  0  0
  152.1375  139.3736  154.7504 H   0  0  0  0  0  0  0  0  0  0  0  0
  150.9851  137.3646  156.0477 H   0  0  0  0  0  0  0  0  0  0  0  0
  151.5362  137.8323  157.6030 H   0  0  0  0  0  0  0  0  0  0  0  0
  148.6666  138.9408  155.7322 H   0  0  0  0  0  0  0  0  0  0  0  0
  145.2553  138.2626  159.6273 H   0  0  0  0  0  0  0  0  0  0  0  0
  145.0731  136.6952  158.8215 H   0  0  0  0  0  0  0  0  0  0  0  0
  144.7875  138.1877  157.9293 H   0  0  0  0  0  0  0  0  0  0  0  0
  147.9417  135.4799  160.3482 H   0  0  0  0  0  0  0  0  0  0  0  0
  146.5647  136.5178  160.6910 H   0  0  0  0  0  0  0  0  0  0  0  0
  148.1739  137.0129  161.1927 H   0  0  0  0  0  0  0  0  0  0  0  0
  154.8029  138.8123  160.7839 H   0  0  0  0  0  0  0  0  0  0  0  0
  154.6930  139.1923  159.0639 H   0  0  0  0  0  0  0  0  0  0  0  0
  153.3762  138.3253  159.8643 H   0  0  0  0  0  0  0  0  0  0  0  0
  154.3912  140.6318  162.2396 H   0  0  0  0  0  0  0  0  0  0  0  0
  1  2  1  0  0  0  0
  1 23  1  0  0  0  0
  1 24  1  0  0  0  0
  1 25  1  0  0  0  0
  2 22  1  0  0  0  0
  2  3  2  0  0  0  0
  3  4  1  0  0  0  0
  3 26  1  0  0  0  0
  4  5  2  0  0  0  0
  4 27  1  0  0  0  0
  5  6  1  0  0  0  0
  5 20  1  0  0  0  0
  6  7  1  0  0  0  0
  7  8  1  0  0  0  0
  7 28  1  0  0  0  0
  7 29  1  0  0  0  0
  8  9  1  0  0  0  0
  8 10  1  0  0  0  0
  8 30  1  0  0  0  0
  9 31  1  0  0  0  0
 10 11  1  0  0  0  0
 10 32  1  0  0  0  0
 10 33  1  0  0  0  0
 11 18  1  0  0  0  0
 11 12  1  0  0  0  0
 12 13  2  0  0  0  0
 12 34  1  0  0  0  0
 13 14  1  0  0  0  0
 14 15  1  0  0  0  0
 14 16  2  0  0  0  0
 15 35  1  0  0  0  0
 15 36  1  0  0  0  0
 15 37  1  0  0  0  0
 16 17  1  0  0  0  0
 16 18  1  0  0  0  0
 17 38  1  0  0  0  0
 17 39  1  0  0  0  0
 17 40  1  0  0  0  0
 18 19  2  0  0  0  0
 20 21  1  0  0  0  0
 20 22  2  0  0  0  0
 21 41  1  0  0  0  0
 21 42  1  0  0  0  0
 21 43  1  0  0  0  0
 22 44  1  0  0  0  0
M  END
> <s_m_source_file>
AV-unprocessed.smi

> <i_m_source_file_index>
2264

> <i_lp_mmshare_version>
43012

> <i_f3d_flags>
0

> <s_epik_input>
W0NIM11jMVtjSF1bY0hdYyhjKFtDSDNdKVtjSF0xKU9bQ0gyXVtDQEhdKFtPSF0pW0NIMl1uMltjSF1uYyhbQ0gzXSljKFtDSDNdKWMyPU8=

> <s_epik_cmdline>
J2VwaWtfcHl0aG9uJywgJy1waCcsICc3LjAnLCAnLXRuJywgJzgnLCAnLW1hJywgJzIwMCcsICctbWV0YWxfYmluZGluZycsICctaW1hZScsICc8aW5maWxlLm1hZT4nLCAnLW9tYWUnLCAnPG91dGZpbGUubWFlPic=

> <r_lp_tautomer_probability>
1

> <r_epik_Ionization_Penalty>
3.7476e-05

> <r_epik_Ionization_Penalty_Charging>
8.44705e-08

> <r_epik_Ionization_Penalty_Neutral>
3.73915e-05

> <r_epik_State_Penalty>
-0

> <r_epik_Charging_Adjusted_Penalty>
8.44705e-08

> <i_epik_Tot_Q>
0

> <i_epik_Tot_abs_Q>
0

> <r_epik_Metal_State_Penalty>
-0

> <b_epik_Metal_Only>
0

> <s_lp_Force_Field>
OPLS_2005

> <r_lp_Energy>
22.0846

> <b_lp_Chiralities_Consistent>
1

> <s_lp_Variant>
AV-unprocessed.smi:2264-2

> <Gold.Version>
5.8.1

> <Gold.Id.Protein>
6NUR|6NUR_protein|mol2

> <Gold.PLP.Fitness>
44.9762

> <Gold.PLP.PLP>
-40.1735

> <Gold.PLP.part.hbond>
-2.4213

> <Gold.PLP.part.metal>
0.0000

> <Gold.PLP.part.buried>
-5.3625

> <Gold.PLP.part.nonpolar>
-31.6723

> <Gold.PLP.part.repulsive>
0.0000

> <Gold.PLP.ligand.clash>
0.0000

> <Gold.PLP.ligand.torsion>
0.6151

> <Gold.PLP.Chemscore.Hbond>
2.0000

> <Gold.PLP.Chemscore.CHOScore>
0.0000

> <Gold.PLP.Chemscore.Metal>
0.0000

> <Gold.Chemscore.Hbonds>
donor molecule, donor type, donor heavy atom, donor atom, acceptor molecule, acceptor atom, score
      P1  H  6896  6907       L1    19  0.96
      P1  H  7997  8008       L1     9  0.57

> <Gold.PLP.Chemscore.Internal.Correction>
0.0330

> <Gold.Rescore>
     Score         DG    S(hbond)    S(metal)    S(lipo)     H(rot)  DE(clash)    DE(int)     intcor
     17.16     -17.98       1.95        0.00     102.03       2.32       0.06       0.75       ----

> <Gold.Chemscore.Fitness>
17.1624

> <Gold.Chemscore.DG>
-17.9752

> <Gold.Chemscore.ZeroCoef>
-5.4800

> <Gold.Chemscore.Hbond>
1.9481

> <Gold.Chemscore.Metal>
0.0000

> <Gold.Chemscore.Lipo>
102.0252

> <Gold.Chemscore.Internal_Hbond>
0.0000

> <Gold.Chemscore.DEClash>
0.0609

> <Gold.Chemscore.DEInternal>
0.7519

> <Gold.Chemscore.Rot>
2.3236

> <Gold.Chemscore.Internal.Correction>
   9.000000E+99

> <Gold.Chemscore.Hbonds>
donor molecule, donor type, donor heavy atom, donor atom, acceptor molecule, acceptor atom, score
      P1  H  6896  6907       L1    19  0.91
      P1  H  7997  8008       L1     9  0.50

> <Gold.Chemscore.Hbond.Weighted>
-6.5067

> <Gold.Chemscore.Metal.Weighted>
-0.0000

> <Gold.Chemscore.Lipo.Weighted>
-11.9370

> <Gold.Chemscore.Internal_Hbond.Weighted>
0.0000

> <Gold.Chemscore.DEClash.Weighted>
0.0609

> <Gold.Chemscore.DEInternal.Weighted>
0.7519

> <Gold.Chemscore.Rot.Weighted>
5.9484

> <Gold.Chemscore.Internal.Correction.Weighted>
   9.000000E+99

> <Gold.Protein.RotatedTorsions>
[ 6907 6896 6895 6894 ] final  -38.99 input  -60.11 | X-H torsion
[ 7974 7965 7964 7962 ] final  142.11 input  175.53 | X-H torsion
[ 8008 7997 7996 7995 ] final  -29.79 input   59.86 | X-H torsion
[ 10167 10162 10161 10158 ] final  102.30 input  -65.29 | X-H torsion
[ 10718 10713 10712 10709 ] final -161.69 input   66.30 | X-H torsion
[ 10763 10752 10751 10750 ] final -159.93 input  -60.55 | X-H torsion
[ 11005 11000 10999 10996 ] final -117.50 input  -57.11 | X-H torsion

> <Gold.Protein.ActiveResidues>
 VAL166  LYS551  ARG553  GLY616  TRP617  ASP618  TYR619  PRO620  LYS621  CYS622 
 ASP623  PHE694  ASN695  SER759  ASP760  ASP761  ALA762  ILE779  LEU786  VAL792 
 PHE793  MET794  SER795  GLU796  ALA797  LYS798  CYS799  TRP800  GLU811  SER814 

> <Gold.Protein.RotatedAtoms>
  150.9957  134.9281  159.7924 H   0  0  0  0  0  0  0  0  0  0  0  0  # atno 6907 bound_to 6896
  152.5264  134.3221  159.9162 H   0  0  0  0  0  0  0  0  0  0  0  0  # atno 6908 bound_to 6896
  151.3227  133.3992  159.2690 H   0  0  0  0  0  0  0  0  0  0  0  0  # atno 6909 bound_to 6896
  144.9037  139.5388  143.5742 H   0  0  0  0  0  0  0  0  0  0  0  0  # atno 7974 bound_to 7965
  154.4276  140.1808  156.1304 H   0  0  0  0  0  0  0  0  0  0  0  0  # atno 8008 bound_to 7997
  156.0072  140.3354  155.6879 H   0  0  0  0  0  0  0  0  0  0  0  0  # atno 8009 bound_to 7997
  155.6161  140.0655  157.2682 H   0  0  0  0  0  0  0  0  0  0  0  0  # atno 8010 bound_to 7997
  139.7362  144.7023  151.0645 H   0  0  0  0  0  0  0  0  0  0  0  0  # atno 10167 bound_to 10162
  156.5998  130.8805  151.2911 H   0  0  0  0  0  0  0  0  0  0  0  0  # atno 10718 bound_to 10713
  154.7433  135.3074  154.8689 H   0  0  0  0  0  0  0  0  0  0  0  0  # atno 10763 bound_to 10752
  153.9497  135.6765  153.4748 H   0  0  0  0  0  0  0  0  0  0  0  0  # atno 10764 bound_to 10752
  153.1031  135.4902  154.8828 H   0  0  0  0  0  0  0  0  0  0  0  0  # atno 10765 bound_to 10752
  141.0351  133.9922  157.3084 H   0  0  0  0  0  0  0  0  0  0  0  0  # atno 11005 bound_to 11000
  146.3122  139.7787  142.9011 LP  0  0  0  0  0  0  0  0  0  0  0  0  # atno 17320 bound_to 7965
  145.3573  141.0319  143.3305 LP  0  0  0  0  0  0  0  0  0  0  0  0  # atno 17321 bound_to 7965
  140.7779  143.4981  150.9807 LP  0  0  0  0  0  0  0  0  0  0  0  0  # atno 17342 bound_to 10162
  139.8669  143.7242  152.3169 LP  0  0  0  0  0  0  0  0  0  0  0  0  # atno 17343 bound_to 10162
  157.7282  130.9654  150.1734 LP  0  0  0  0  0  0  0  0  0  0  0  0  # atno 17370 bound_to 10713
  156.2479  130.3697  149.8264 LP  0  0  0  0  0  0  0  0  0  0  0  0  # atno 17371 bound_to 10713
  139.9235  135.0201  156.8149 LP  0  0  0  0  0  0  0  0  0  0  0  0  # atno 17394 bound_to 11000
  140.6337  133.9882  155.7674 LP  0  0  0  0  0  0  0  0  0  0  0  0  # atno 17395 bound_to 11000

$$$$
