AV-unprocessed.smi:1644|AV-procd|sdf|6597|dock3
  -GOLD-   22720 7303D 1   1.00000     0.00000
 Structure written by MMmdl.
 49 51  0  0  0  0  0  0  0  0  3 V2000
  149.8956  131.1600  157.7373 C   0  0  0  0  0  0  0  0  0  0  0  0
  149.5356  132.6499  157.7464 C   0  0  0  0  0  0  0  0  0  0  0  0
  150.2143  133.4260  156.6061 C   0  0  0  0  0  0  0  0  0  0  0  0
  149.8642  134.9294  156.5980 C   0  0  1  0  0  0  0  0  0  0  0  0
  150.1449  135.5473  157.8781 N   0  5  0  0  0  0  0  0  0  0  0  0
  151.0403  136.5446  157.6917 C   0  0  0  0  0  0  0  0  0  0  0  0
  151.5120  137.2805  158.5577 O   0  0  0  0  0  0  0  0  0  0  0  0
  151.3904  136.6444  156.3956 N   0  0  0  0  0  0  0  0  0  0  0  0
  152.3748  137.5890  155.8565 C   0  0  0  0  0  0  0  0  0  0  0  0
  151.8200  139.0282  155.8238 C   0  0  2  0  0  0  0  0  0  0  0  0
  152.4798  139.7422  154.7967 O   0  0  0  0  0  0  0  0  0  0  0  0
  152.0489  139.7605  157.1603 C   0  0  0  0  0  0  0  0  0  0  0  0
  151.4561  141.1056  157.1809 N   0  0  0  0  0  0  0  0  0  0  0  0
  150.6818  141.7244  156.2494 C   0  0  0  0  0  0  0  0  0  0  0  0
  150.3788  142.9642  156.7244 N   0  3  0  0  0  0  0  0  0  0  0  0
  150.9727  143.1411  157.9759 C   0  0  0  0  0  0  0  0  0  0  0  0
  150.9559  144.2252  158.8453 C   0  0  0  0  0  0  0  0  0  0  0  0
  151.6724  144.0927  160.0561 C   0  0  0  0  0  0  0  0  0  0  0  0
  151.6758  145.2603  161.0279 C   0  0  0  0  0  0  0  0  0  0  0  0
  152.3754  142.8985  160.3611 C   0  0  0  0  0  0  0  0  0  0  0  0
  153.1464  142.7685  161.6637 C   0  0  0  0  0  0  0  0  0  0  0  0
  152.3781  141.8061  159.4643 C   0  0  0  0  0  0  0  0  0  0  0  0
  151.6666  141.9528  158.2756 C   0  0  0  0  0  0  0  0  0  0  0  0
  150.7602  135.7188  155.6654 C   0  0  0  0  0  0  0  0  0  0  0  0
  150.8733  135.5085  154.4569 O   0  0  0  0  0  0  0  0  0  0  0  0
  149.3979  130.6352  158.5530 H   0  0  0  0  0  0  0  0  0  0  0  0
  150.9698  131.0142  157.8537 H   0  0  0  0  0  0  0  0  0  0  0  0
  149.5916  130.6879  156.8027 H   0  0  0  0  0  0  0  0  0  0  0  0
  148.4533  132.7579  157.6684 H   0  0  0  0  0  0  0  0  0  0  0  0
  149.8200  133.0805  158.7072 H   0  0  0  0  0  0  0  0  0  0  0  0
  151.2960  133.2917  156.6636 H   0  0  0  0  0  0  0  0  0  0  0  0
  149.9070  132.9802  155.6590 H   0  0  0  0  0  0  0  0  0  0  0  0
  148.8301  135.0725  156.2814 H   0  0  0  0  0  0  0  0  0  0  0  0
  153.2588  137.5526  156.4957 H   0  0  0  0  0  0  0  0  0  0  0  0
  152.7265  137.2800  154.8703 H   0  0  0  0  0  0  0  0  0  0  0  0
  150.7501  139.0149  155.6104 H   0  0  0  0  0  0  0  0  0  0  0  0
  152.4060  139.2464  153.9947 H   0  0  0  0  0  0  0  0  0  0  0  0
  151.5842  139.1997  157.9721 H   0  0  0  0  0  0  0  0  0  0  0  0
  153.1098  139.8262  157.4038 H   0  0  0  0  0  0  0  0  0  0  0  0
  150.3658  141.3067  155.3043 H   0  0  0  0  0  0  0  0  0  0  0  0
  150.4197  145.1318  158.6056 H   0  0  0  0  0  0  0  0  0  0  0  0
  151.2197  144.9709  161.9749 H   0  0  0  0  0  0  0  0  0  0  0  0
  151.1163  146.1092  160.6335 H   0  0  0  0  0  0  0  0  0  0  0  0
  152.6950  145.5954  161.2217 H   0  0  0  0  0  0  0  0  0  0  0  0
  153.6121  141.7867  161.7558 H   0  0  0  0  0  0  0  0  0  0  0  0
  152.4826  142.9031  162.5181 H   0  0  0  0  0  0  0  0  0  0  0  0
  153.9365  143.5177  161.7169 H   0  0  0  0  0  0  0  0  0  0  0  0
  152.9199  140.9002  159.6926 H   0  0  0  0  0  0  0  0  0  0  0  0
  149.8106  143.6389  156.2284 H   0  0  0  0  0  0  0  0  0  0  0  0
  1  2  1  0  0  0  0
  1 26  1  0  0  0  0
  1 27  1  0  0  0  0
  1 28  1  0  0  0  0
  2  3  1  0  0  0  0
  2 29  1  0  0  0  0
  2 30  1  0  0  0  0
  3  4  1  0  0  0  0
  3 31  1  0  0  0  0
  3 32  1  0  0  0  0
  4 24  1  0  0  0  0
  4  5  1  0  0  0  0
  4 33  1  0  0  0  0
  5  6  1  0  0  0  0
  6  7  2  0  0  0  0
  6  8  1  0  0  0  0
  8  9  1  0  0  0  0
  8 24  1  0  0  0  0
  9 10  1  0  0  0  0
  9 34  1  0  0  0  0
  9 35  1  0  0  0  0
 10 11  1  0  0  0  0
 10 12  1  0  0  0  0
 10 36  1  0  0  0  0
 11 37  1  0  0  0  0
 12 13  1  0  0  0  0
 12 38  1  0  0  0  0
 12 39  1  0  0  0  0
 13 23  1  0  0  0  0
 13 14  1  0  0  0  0
 14 15  2  0  0  0  0
 14 40  1  0  0  0  0
 15 16  1  0  0  0  0
 15 49  1  0  0  0  0
 16 23  2  0  0  0  0
 16 17  1  0  0  0  0
 17 18  2  0  0  0  0
 17 41  1  0  0  0  0
 18 19  1  0  0  0  0
 18 20  1  0  0  0  0
 19 42  1  0  0  0  0
 19 43  1  0  0  0  0
 19 44  1  0  0  0  0
 20 21  1  0  0  0  0
 20 22  2  0  0  0  0
 21 45  1  0  0  0  0
 21 46  1  0  0  0  0
 21 47  1  0  0  0  0
 22 23  1  0  0  0  0
 22 48  1  0  0  0  0
 24 25  2  0  0  0  0
M  CHG  1   5  -1
M  CHG  1  15   1
M  END
> <s_m_source_file>
AV-unprocessed.smi

> <i_m_source_file_index>
1644

> <i_lp_mmshare_version>
43012

> <i_f3d_flags>
0

> <s_epik_input>
W0NIM11bQ0gyXVtDSDJdW0NAQEhdMVtOSF1DKD1PKU4oQzE9TylbQ0gyXVtDQEhdKFtPSF0pW0NIMl1uKFtjSF1uMiljKGMyMylbY0hdYyhbQ0gzXSljKFtjSF0zKVtDSDNd

> <s_epik_cmdline>
J2VwaWtfcHl0aG9uJywgJy1waCcsICc3LjAnLCAnLXRuJywgJzgnLCAnLW1hJywgJzIwMCcsICctbWV0YWxfYmluZGluZycsICctaW1hZScsICc8aW5maWxlLm1hZT4nLCAnLW9tYWUnLCAnPG91dGZpbGUubWFlPic=

> <r_lp_tautomer_probability>
1

> <r_epik_Ionization_Penalty>
6.86868

> <r_epik_Ionization_Penalty_Charging>
6.86868

> <r_epik_Ionization_Penalty_Neutral>
5.84798e-07

> <r_epik_State_Penalty>
6.92818

> <r_epik_Charging_Adjusted_Penalty>
13.7969

> <i_epik_Tot_Q>
0

> <i_epik_Tot_abs_Q>
2

> <r_epik_Metal_State_Penalty>
2.98017

> <b_epik_Metal_Only>
1

> <s_lp_Force_Field>
OPLS_2005

> <r_lp_Energy>
23.8384

> <b_lp_Chiralities_Consistent>
1

> <s_lp_Variant>
AV-unprocessed.smi:1644-14

> <Gold.Version>
5.8.1

> <Gold.Id.Protein>
6NUR|6NUR_protein|mol2

> <Gold.PLP.Fitness>
58.7159

> <Gold.PLP.PLP>
-42.0490

> <Gold.PLP.part.hbond>
-5.0000

> <Gold.PLP.part.metal>
0.0000

> <Gold.PLP.part.buried>
-3.6761

> <Gold.PLP.part.nonpolar>
-33.8687

> <Gold.PLP.part.repulsive>
0.2361

> <Gold.PLP.ligand.clash>
0.0000

> <Gold.PLP.ligand.torsion>
0.5178

> <Gold.PLP.Chemscore.Hbond>
5.8715

> <Gold.PLP.Chemscore.CHOScore>
0.0000

> <Gold.PLP.Chemscore.Metal>
0.0000

> <Gold.Chemscore.Hbonds>
donor molecule, donor type, donor heavy atom, donor atom, acceptor molecule, acceptor atom, score
      L1  H    15    49       P1  8028  1.98
      P1  H  6896  6909       L1     5  1.57
      P1  H  7997  8009       L1    11  0.32
      P1  H 10752 10764       L1    25  0.58

> <Gold.PLP.Chemscore.Internal.Correction>
0.0879

> <Gold.Rescore>
     Score         DG    S(hbond)    S(metal)    S(lipo)     H(rot)  DE(clash)    DE(int)     intcor
     17.60     -21.00       2.71        0.00     114.92       2.72       1.62       1.77       ----

> <Gold.Chemscore.Fitness>
17.6003

> <Gold.Chemscore.DG>
-20.9978

> <Gold.Chemscore.ZeroCoef>
-5.4800

> <Gold.Chemscore.Hbond>
2.7087

> <Gold.Chemscore.Metal>
0.0000

> <Gold.Chemscore.Lipo>
114.9180

> <Gold.Chemscore.Internal_Hbond>
0.0000

> <Gold.Chemscore.DEClash>
1.6234

> <Gold.Chemscore.DEInternal>
1.7740

> <Gold.Chemscore.Rot>
2.7245

> <Gold.Chemscore.Internal.Correction>
   9.000000E+99

> <Gold.Chemscore.Hbonds>
donor molecule, donor type, donor heavy atom, donor atom, acceptor molecule, acceptor atom, score
      L1  H    15    49       P1  8028  0.92
      P1  H  6896  6909       L1     5  0.45
      P1  H  7997  8009       L1    11  0.10
      P1  H 10752 10764       L1    25  0.04

> <Gold.Chemscore.Hbond.Weighted>
-9.0472

> <Gold.Chemscore.Metal.Weighted>
-0.0000

> <Gold.Chemscore.Lipo.Weighted>
-13.4454

> <Gold.Chemscore.Internal_Hbond.Weighted>
0.0000

> <Gold.Chemscore.DEClash.Weighted>
1.6234

> <Gold.Chemscore.DEInternal.Weighted>
1.7740

> <Gold.Chemscore.Rot.Weighted>
6.9748

> <Gold.Chemscore.Internal.Correction.Weighted>
   9.000000E+99

> <Gold.Protein.RotatedTorsions>
[ 6907 6896 6895 6894 ] final   49.91 input  -60.11 | X-H torsion
[ 7974 7965 7964 7962 ] final  -67.24 input  175.53 | X-H torsion
[ 8008 7997 7996 7995 ] final -130.62 input   59.86 | X-H torsion
[ 10167 10162 10161 10158 ] final -147.97 input  -65.29 | X-H torsion
[ 10718 10713 10712 10709 ] final  -30.38 input   66.30 | X-H torsion
[ 10763 10752 10751 10750 ] final  -60.80 input  -60.55 | X-H torsion
[ 11005 11000 10999 10996 ] final  123.74 input  -57.11 | X-H torsion

> <Gold.Protein.ActiveResidues>
 VAL166  LYS551  ARG553  GLY616  TRP617  ASP618  TYR619  PRO620  LYS621  CYS622 
 ASP623  PHE694  ASN695  SER759  ASP760  ASP761  ALA762  ILE779  LEU786  VAL792 
 PHE793  MET794  SER795  GLU796  ALA797  LYS798  CYS799  TRP800  GLU811  SER814 

> <Gold.Protein.RotatedAtoms>
  152.2960  134.7666  160.0367 H   0  0  0  0  0  0  0  0  0  0  0  0  # atno 6907 bound_to 6896
  151.8196  133.3387  159.3588 H   0  0  0  0  0  0  0  0  0  0  0  0  # atno 6908 bound_to 6896
  150.7252  134.5516  159.5841 H   0  0  0  0  0  0  0  0  0  0  0  0  # atno 6909 bound_to 6896
  145.7317  140.8994  143.0576 H   0  0  0  0  0  0  0  0  0  0  0  0  # atno 7974 bound_to 7965
  155.2987  140.0452  157.3028 H   0  0  0  0  0  0  0  0  0  0  0  0  # atno 8008 bound_to 7997
  154.5499  140.2314  155.8469 H   0  0  0  0  0  0  0  0  0  0  0  0  # atno 8009 bound_to 7997
  156.1957  140.3039  155.9430 H   0  0  0  0  0  0  0  0  0  0  0  0  # atno 8010 bound_to 7997
  139.7574  143.8428  152.2600 H   0  0  0  0  0  0  0  0  0  0  0  0  # atno 10167 bound_to 10162
  156.4006  130.4389  149.7325 H   0  0  0  0  0  0  0  0  0  0  0  0  # atno 10718 bound_to 10713
  154.2747  135.6283  153.5324 H   0  0  0  0  0  0  0  0  0  0  0  0  # atno 10763 bound_to 10752
  152.9875  135.5618  154.5561 H   0  0  0  0  0  0  0  0  0  0  0  0  # atno 10764 bound_to 10752
  154.5139  135.2878  155.1295 H   0  0  0  0  0  0  0  0  0  0  0  0  # atno 10765 bound_to 10752
  139.9326  134.9641  156.8305 H   0  0  0  0  0  0  0  0  0  0  0  0  # atno 11005 bound_to 11000
  144.6891  139.9340  143.7473 LP  0  0  0  0  0  0  0  0  0  0  0  0  # atno 17320 bound_to 7965
  146.0531  139.3530  143.0627 LP  0  0  0  0  0  0  0  0  0  0  0  0  # atno 17321 bound_to 7965
  139.8424  144.7203  150.9314 LP  0  0  0  0  0  0  0  0  0  0  0  0  # atno 17342 bound_to 10162
  140.7804  143.3971  151.1211 LP  0  0  0  0  0  0  0  0  0  0  0  0  # atno 17343 bound_to 10162
  156.4343  130.7830  151.2851 LP  0  0  0  0  0  0  0  0  0  0  0  0  # atno 17370 bound_to 10713
  157.7503  131.0144  150.3464 LP  0  0  0  0  0  0  0  0  0  0  0  0  # atno 17371 bound_to 10713
  140.6160  134.0038  155.7597 LP  0  0  0  0  0  0  0  0  0  0  0  0  # atno 17394 bound_to 11000
  141.0924  133.9896  157.3216 LP  0  0  0  0  0  0  0  0  0  0  0  0  # atno 17395 bound_to 11000

$$$$
