AV-unprocessed.smi:1754|AV-procd|sdf|7064|dock1
  -GOLD-   22720 8283D 1   1.00000     0.00000
 Structure written by MMmdl.
 45 46  0  0  0  0  0  0  0  0  2 V2000
  150.4776  142.2492  157.0745 C   0  0  0  0  0  0  0  0  0  0  0  0
  150.7191  142.9755  158.4073 C   0  0  0  0  0  0  0  0  0  0  0  0
  152.1333  143.2629  158.6576 N   0  0  0  0  0  0  0  0  0  0  0  0
  152.5541  144.6605  158.5643 C   0  0  0  0  0  0  0  0  0  0  0  0
  152.0111  145.5249  159.7126 C   0  0  0  0  0  0  0  0  0  0  0  0
  152.8276  142.4871  159.6136 C   0  0  0  0  0  0  0  0  0  0  0  0
  153.2376  143.0186  160.8590 C   0  0  0  0  0  0  0  0  0  0  0  0
  153.9207  142.1999  161.7808 C   0  0  0  0  0  0  0  0  0  0  0  0
  154.1833  140.8515  161.4618 C   0  0  0  0  0  0  0  0  0  0  0  0
  154.8907  140.0739  162.4174 N   0  0  0  0  0  0  0  0  0  0  0  0
  155.6321  140.4875  163.4641 C   0  0  0  0  0  0  0  0  0  0  0  0
  155.8771  141.6628  163.7258 O   0  0  0  0  0  0  0  0  0  0  0  0
  156.1374  139.4882  164.2103 N   0  0  0  0  0  0  0  0  0  0  0  0
  156.9773  139.5876  165.4056 C   0  0  2  0  0  0  0  0  0  0  0  0
  156.2936  140.3924  166.5313 C   0  0  0  0  0  0  0  0  0  0  0  0
  157.3462  140.7866  167.5757 C   0  0  0  0  0  0  0  0  0  0  0  0
  158.9442  140.8929  166.6828 S   0  0  0  0  0  0  0  0  0  0  0  0
  159.3445  142.3010  166.5428 O   0  0  0  0  0  0  0  0  0  0  0  0
  159.8658  139.8944  167.2456 O   0  0  0  0  0  0  0  0  0  0  0  0
  158.3031  140.2858  165.0785 C   0  0  0  0  0  0  0  0  0  0  0  0
  153.7612  140.3679  160.2005 C   0  0  0  0  0  0  0  0  0  0  0  0
  153.1118  141.1886  159.3467 N   0  3  0  0  0  0  0  0  0  0  0  0
  149.4106  142.1003  156.9091 H   0  0  0  0  0  0  0  0  0  0  0  0
  150.9520  141.2686  157.0450 H   0  0  0  0  0  0  0  0  0  0  0  0
  150.8618  142.8314  156.2365 H   0  0  0  0  0  0  0  0  0  0  0  0
  150.1655  143.9150  158.3949 H   0  0  0  0  0  0  0  0  0  0  0  0
  150.3062  142.3961  159.2338 H   0  0  0  0  0  0  0  0  0  0  0  0
  153.6398  144.7401  158.5253 H   0  0  0  0  0  0  0  0  0  0  0  0
  152.2010  145.0626  157.6140 H   0  0  0  0  0  0  0  0  0  0  0  0
  152.3306  146.5609  159.5975 H   0  0  0  0  0  0  0  0  0  0  0  0
  152.3707  145.1744  160.6805 H   0  0  0  0  0  0  0  0  0  0  0  0
  150.9210  145.5176  159.7368 H   0  0  0  0  0  0  0  0  0  0  0  0
  153.0499  144.0512  161.1121 H   0  0  0  0  0  0  0  0  0  0  0  0
  154.2396  142.6094  162.7283 H   0  0  0  0  0  0  0  0  0  0  0  0
  154.8535  139.0754  162.2738 H   0  0  0  0  0  0  0  0  0  0  0  0
  155.9592  138.5507  163.8793 H   0  0  0  0  0  0  0  0  0  0  0  0
  157.2181  138.5913  165.7809 H   0  0  0  0  0  0  0  0  0  0  0  0
  155.8682  141.3038  166.1086 H   0  0  0  0  0  0  0  0  0  0  0  0
  155.4702  139.8423  166.9875 H   0  0  0  0  0  0  0  0  0  0  0  0
  157.1229  141.7370  168.0606 H   0  0  0  0  0  0  0  0  0  0  0  0
  157.4413  140.0189  168.3437 H   0  0  0  0  0  0  0  0  0  0  0  0
  159.0328  139.6281  164.6058 H   0  0  0  0  0  0  0  0  0  0  0  0
  158.1460  141.1527  164.4356 H   0  0  0  0  0  0  0  0  0  0  0  0
  153.9232  139.3672  159.8297 H   0  0  0  0  0  0  0  0  0  0  0  0
  152.8201  140.8073  158.4466 H   0  0  0  0  0  0  0  0  0  0  0  0
  1  2  1  0  0  0  0
  1 23  1  0  0  0  0
  1 24  1  0  0  0  0
  1 25  1  0  0  0  0
  2  3  1  0  0  0  0
  2 26  1  0  0  0  0
  2 27  1  0  0  0  0
  3  4  1  0  0  0  0
  3  6  1  0  0  0  0
  4  5  1  0  0  0  0
  4 28  1  0  0  0  0
  4 29  1  0  0  0  0
  5 30  1  0  0  0  0
  5 31  1  0  0  0  0
  5 32  1  0  0  0  0
  6 22  1  0  0  0  0
  6  7  2  0  0  0  0
  7  8  1  0  0  0  0
  7 33  1  0  0  0  0
  8  9  2  0  0  0  0
  8 34  1  0  0  0  0
  9 10  1  0  0  0  0
  9 21  1  0  0  0  0
 10 11  1  0  0  0  0
 10 35  1  0  0  0  0
 11 12  2  0  0  0  0
 11 13  1  0  0  0  0
 13 14  1  0  0  0  0
 13 36  1  0  0  0  0
 14 20  1  0  0  0  0
 14 15  1  0  0  0  0
 14 37  1  0  0  0  0
 15 16  1  0  0  0  0
 15 38  1  0  0  0  0
 15 39  1  0  0  0  0
 16 17  1  0  0  0  0
 16 40  1  0  0  0  0
 16 41  1  0  0  0  0
 17 18  2  0  0  0  0
 17 19  2  0  0  0  0
 17 20  1  0  0  0  0
 20 42  1  0  0  0  0
 20 43  1  0  0  0  0
 21 22  2  0  0  0  0
 21 44  1  0  0  0  0
 22 45  1  0  0  0  0
M  CHG  1  22   1
M  END
> <s_m_source_file>
AV-unprocessed.smi

> <i_m_source_file_index>
1754

> <i_lp_mmshare_version>
43012

> <i_f3d_flags>
0

> <s_epik_input>
W0NIM11bQ0gyXU4oW0NIMl1bQ0gzXSljMVtjSF1bY0hdYyhbY0hdbjEpW05IXUMoPU8pW05IXVtDQEBIXShbQ0gyXTIpW0NIMl1bQ0gyXVMyKD1PKT1P

> <s_epik_cmdline>
J2VwaWtfcHl0aG9uJywgJy1waCcsICc3LjAnLCAnLXRuJywgJzgnLCAnLW1hJywgJzIwMCcsICctbWV0YWxfYmluZGluZycsICctaW1hZScsICc8aW5maWxlLm1hZT4nLCAnLW9tYWUnLCAnPG91dGZpbGUubWFlPic=

> <r_lp_tautomer_probability>
0.999994

> <r_epik_Ionization_Penalty>
0.271106

> <r_epik_Ionization_Penalty_Charging>
0.271085

> <r_epik_Ionization_Penalty_Neutral>
2.10634e-05

> <r_epik_State_Penalty>
0.017795

> <r_epik_Charging_Adjusted_Penalty>
0.28888

> <i_epik_Tot_Q>
1

> <i_epik_Tot_abs_Q>
1

> <r_epik_Metal_State_Penalty>
0.0544868

> <b_epik_Metal_Only>
0

> <s_lp_Force_Field>
OPLS_2005

> <r_lp_Energy>
28.7888

> <b_lp_Chiralities_Consistent>
1

> <s_lp_Variant>
AV-unprocessed.smi:1754-1

> <Gold.Version>
5.8.1

> <Gold.Id.Protein>
6NUR|6NUR_protein|mol2

> <Gold.PLP.Fitness>
42.3897

> <Gold.PLP.PLP>
-44.1495

> <Gold.PLP.part.hbond>
-1.0000

> <Gold.PLP.part.metal>
0.0000

> <Gold.PLP.part.buried>
-4.7046

> <Gold.PLP.part.nonpolar>
-37.1641

> <Gold.PLP.part.repulsive>
0.0886

> <Gold.PLP.ligand.clash>
0.0000

> <Gold.PLP.ligand.torsion>
1.3169

> <Gold.PLP.Chemscore.Hbond>
0.0000

> <Gold.PLP.Chemscore.CHOScore>
0.0000

> <Gold.PLP.Chemscore.Metal>
0.0000

> <Gold.PLP.Chemscore.Internal.Correction>
0.8740

> <Gold.Rescore>
     Score         DG    S(hbond)    S(metal)    S(lipo)     H(rot)  DE(clash)    DE(int)     intcor
     10.22     -13.45       0.00        0.00      98.87       1.41       0.25       2.98       ----

> <Gold.Chemscore.Fitness>
10.2159

> <Gold.Chemscore.DG>
-13.4458

> <Gold.Chemscore.ZeroCoef>
-5.4800

> <Gold.Chemscore.Hbond>
0.0000

> <Gold.Chemscore.Metal>
0.0000

> <Gold.Chemscore.Lipo>
98.8696

> <Gold.Chemscore.Internal_Hbond>
0.0000

> <Gold.Chemscore.DEClash>
0.2531

> <Gold.Chemscore.DEInternal>
2.9768

> <Gold.Chemscore.Rot>
1.4070

> <Gold.Chemscore.Internal.Correction>
   9.000000E+99

> <Gold.Chemscore.Hbond.Weighted>
-0.0000

> <Gold.Chemscore.Metal.Weighted>
-0.0000

> <Gold.Chemscore.Lipo.Weighted>
-11.5677

> <Gold.Chemscore.Internal_Hbond.Weighted>
0.0000

> <Gold.Chemscore.DEClash.Weighted>
0.2531

> <Gold.Chemscore.DEInternal.Weighted>
2.9768

> <Gold.Chemscore.Rot.Weighted>
3.6020

> <Gold.Chemscore.Internal.Correction.Weighted>
   9.000000E+99

> <Gold.Protein.RotatedTorsions>
[ 6907 6896 6895 6894 ] final  -52.23 input  -60.11 | X-H torsion
[ 7974 7965 7964 7962 ] final   -2.61 input  175.53 | X-H torsion
[ 8008 7997 7996 7995 ] final -172.40 input   59.86 | X-H torsion
[ 10167 10162 10161 10158 ] final -174.29 input  -65.29 | X-H torsion
[ 10718 10713 10712 10709 ] final   64.31 input   66.30 | X-H torsion
[ 10763 10752 10751 10750 ] final -122.96 input  -60.55 | X-H torsion
[ 11005 11000 10999 10996 ] final  -50.97 input  -57.11 | X-H torsion

> <Gold.Protein.ActiveResidues>
 VAL166  LYS551  ARG553  GLY616  TRP617  ASP618  TYR619  PRO620  LYS621  CYS622 
 ASP623  PHE694  ASN695  SER759  ASP760  ASP761  ALA762  ILE779  LEU786  VAL792 
 PHE793  MET794  SER795  GLU796  ALA797  LYS798  CYS799  TRP800  GLU811  SER814 

> <Gold.Protein.RotatedAtoms>
  150.8538  134.7870  159.7028 H   0  0  0  0  0  0  0  0  0  0  0  0  # atno 6907 bound_to 6896
  152.4595  134.5213  159.9793 H   0  0  0  0  0  0  0  0  0  0  0  0  # atno 6908 bound_to 6896
  151.5329  133.3408  159.2957 H   0  0  0  0  0  0  0  0  0  0  0  0  # atno 6909 bound_to 6896
  146.2402  140.1597  142.8333 H   0  0  0  0  0  0  0  0  0  0  0  0  # atno 7974 bound_to 7965
  155.9441  140.1114  157.1031 H   0  0  0  0  0  0  0  0  0  0  0  0  # atno 8008 bound_to 7997
  154.4095  140.1213  156.5032 H   0  0  0  0  0  0  0  0  0  0  0  0  # atno 8009 bound_to 7997
  155.6925  140.3472  155.4902 H   0  0  0  0  0  0  0  0  0  0  0  0  # atno 8010 bound_to 7997
  139.5642  144.1796  152.1286 H   0  0  0  0  0  0  0  0  0  0  0  0  # atno 10167 bound_to 10162
  157.6031  130.9153  149.9829 H   0  0  0  0  0  0  0  0  0  0  0  0  # atno 10718 bound_to 10713
  154.8699  135.4115  154.2866 H   0  0  0  0  0  0  0  0  0  0  0  0  # atno 10763 bound_to 10752
  153.3749  135.7009  153.6615 H   0  0  0  0  0  0  0  0  0  0  0  0  # atno 10764 bound_to 10752
  153.5461  135.3638  155.2711 H   0  0  0  0  0  0  0  0  0  0  0  0  # atno 10765 bound_to 10752
  141.0845  133.6645  156.3809 H   0  0  0  0  0  0  0  0  0  0  0  0  # atno 11005 bound_to 11000
  145.0099  140.8705  143.5230 LP  0  0  0  0  0  0  0  0  0  0  0  0  # atno 17320 bound_to 7965
  145.1629  139.2448  143.5382 LP  0  0  0  0  0  0  0  0  0  0  0  0  # atno 17321 bound_to 7965
  140.1315  144.5283  150.6799 LP  0  0  0  0  0  0  0  0  0  0  0  0  # atno 17342 bound_to 10162
  140.6924  143.2384  151.5094 LP  0  0  0  0  0  0  0  0  0  0  0  0  # atno 17343 bound_to 10162
  156.1109  130.3650  150.0051 LP  0  0  0  0  0  0  0  0  0  0  0  0  # atno 17370 bound_to 10713
  156.8149  130.9338  151.3643 LP  0  0  0  0  0  0  0  0  0  0  0  0  # atno 17371 bound_to 10713
  140.5393  134.6136  157.5375 LP  0  0  0  0  0  0  0  0  0  0  0  0  # atno 17394 bound_to 11000
  139.9662  134.7369  156.0133 LP  0  0  0  0  0  0  0  0  0  0  0  0  # atno 17395 bound_to 11000

$$$$
