AV-unprocessed.smi:1720|AV-procd|sdf|6931|dock10
  -GOLD-   22720 8143D 1   1.00000     0.00000
 Structure written by MMmdl.
 32 33  0  0  0  0  0  0  0  0  1 V2000
  148.9633  144.7696  160.5369 C   0  0  0  0  0  0  0  0  0  0  0  0
  147.9923  143.6905  160.0335 C   0  0  2  0  0  0  0  0  0  0  0  0
  148.1657  143.5483  158.5894 N   0  0  0  0  0  0  0  0  0  0  0  0
  148.4365  142.4047  157.9438 C   0  0  0  0  0  0  0  0  0  0  0  0
  148.5798  141.3189  158.5062 O   0  0  0  0  0  0  0  0  0  0  0  0
  148.5273  142.6044  156.6188 N   0  0  0  0  0  0  0  0  0  0  0  0
  148.7898  141.6353  155.6177 C   0  0  0  0  0  0  0  0  0  0  0  0
  149.9304  140.7875  155.5911 C   0  0  0  0  0  0  0  0  0  0  0  0
  149.9108  139.9832  154.5377 N   0  0  0  0  0  0  0  0  0  0  0  0
  148.7682  140.3093  153.8921 N   0  0  0  0  0  0  0  0  0  0  0  0
  148.0536  141.3099  154.5130 C   0  0  0  0  0  0  0  0  0  0  0  0
  146.5222  144.0304  160.3561 C   0  0  2  0  0  0  0  0  0  0  0  0
  146.2737  144.4992  161.7903 C   0  0  0  0  0  0  0  0  0  0  0  0
  144.8084  144.1700  162.0263 C   0  0  0  0  0  0  0  0  0  0  0  0
  144.4642  143.1810  160.9095 C   0  0  0  0  0  0  0  0  0  0  0  0
  145.7044  142.8719  160.2897 O   0  0  0  0  0  0  0  0  0  0  0  0
  148.4928  139.8453  153.0382 H   0  0  0  0  0  0  0  0  0  0  0  0
  148.9191  144.8701  161.6214 H   0  0  0  0  0  0  0  0  0  0  0  0
  148.7348  145.7436  160.1028 H   0  0  0  0  0  0  0  0  0  0  0  0
  149.9930  144.5220  160.2772 H   0  0  0  0  0  0  0  0  0  0  0  0
  148.2550  142.7538  160.5285 H   0  0  0  0  0  0  0  0  0  0  0  0
  148.0626  144.3878  158.0387 H   0  0  0  0  0  0  0  0  0  0  0  0
  148.3882  143.5487  156.2906 H   0  0  0  0  0  0  0  0  0  0  0  0
  150.7552  140.7304  156.2862 H   0  0  0  0  0  0  0  0  0  0  0  0
  147.1189  141.6823  154.1205 H   0  0  0  0  0  0  0  0  0  0  0  0
  146.1389  144.7722  159.6524 H   0  0  0  0  0  0  0  0  0  0  0  0
  146.8913  143.9284  162.4852 H   0  0  0  0  0  0  0  0  0  0  0  0
  146.4962  145.5572  161.9336 H   0  0  0  0  0  0  0  0  0  0  0  0
  144.6593  143.7350  163.0150 H   0  0  0  0  0  0  0  0  0  0  0  0
  144.1838  145.0609  161.9531 H   0  0  0  0  0  0  0  0  0  0  0  0
  143.9792  142.2792  161.2835 H   0  0  0  0  0  0  0  0  0  0  0  0
  143.8021  143.6446  160.1768 H   0  0  0  0  0  0  0  0  0  0  0  0
  1  2  1  0  0  0  0
  1 18  1  0  0  0  0
  1 19  1  0  0  0  0
  1 20  1  0  0  0  0
  2  3  1  0  0  0  0
  2 12  1  0  0  0  0
  2 21  1  0  0  0  0
  3  4  1  0  0  0  0
  3 22  1  0  0  0  0
  4  5  2  0  0  0  0
  4  6  1  0  0  0  0
  6  7  1  0  0  0  0
  6 23  1  0  0  0  0
  7 11  2  0  0  0  0
  7  8  1  0  0  0  0
  8  9  2  0  0  0  0
  8 24  1  0  0  0  0
  9 10  1  0  0  0  0
 10 17  1  0  0  0  0
 10 11  1  0  0  0  0
 11 25  1  0  0  0  0
 12 16  1  0  0  0  0
 12 13  1  0  0  0  0
 12 26  1  0  0  0  0
 13 14  1  0  0  0  0
 13 27  1  0  0  0  0
 13 28  1  0  0  0  0
 14 15  1  0  0  0  0
 14 29  1  0  0  0  0
 14 30  1  0  0  0  0
 15 16  1  0  0  0  0
 15 31  1  0  0  0  0
 15 32  1  0  0  0  0
M  END
> <s_m_source_file>
AV-unprocessed.smi

> <i_m_source_file_index>
1720

> <i_lp_mmshare_version>
43012

> <i_f3d_flags>
0

> <s_epik_input>
TzFbQ0gyXVtDSDJdW0NIMl1bQ0BIXTFbQ0BIXShbQ0gzXSlbTkhdQyg9TylbTkhdYzJbY0hdbltuSF1bY0hdMg==

> <s_epik_cmdline>
J2VwaWtfcHl0aG9uJywgJy1waCcsICc3LjAnLCAnLXRuJywgJzgnLCAnLW1hJywgJzIwMCcsICctbWV0YWxfYmluZGluZycsICctaW1hZScsICc8aW5maWxlLm1hZT4nLCAnLW9tYWUnLCAnPG91dGZpbGUubWFlPic=

> <r_lp_tautomer_probability>
1

> <r_epik_Ionization_Penalty>
4.95841e-05

> <r_epik_Ionization_Penalty_Charging>
0

> <r_epik_Ionization_Penalty_Neutral>
4.95841e-05

> <r_epik_State_Penalty>
-0

> <r_epik_Charging_Adjusted_Penalty>
0

> <i_epik_Tot_Q>
0

> <i_epik_Tot_abs_Q>
0

> <r_epik_Metal_State_Penalty>
-0

> <b_epik_Metal_Only>
0

> <s_lp_Force_Field>
OPLS_2005

> <r_lp_Energy>
20.531

> <b_lp_Chiralities_Consistent>
1

> <s_lp_Variant>
AV-unprocessed.smi:1720-1

> <Gold.Version>
5.8.1

> <Gold.Id.Protein>
6NUR|6NUR_protein|mol2

> <Gold.PLP.Fitness>
37.6591

> <Gold.PLP.PLP>
-25.8361

> <Gold.PLP.part.hbond>
-6.0157

> <Gold.PLP.part.metal>
0.0000

> <Gold.PLP.part.buried>
-0.8950

> <Gold.PLP.part.nonpolar>
-18.8798

> <Gold.PLP.part.repulsive>
0.6381

> <Gold.PLP.ligand.clash>
0.0000

> <Gold.PLP.ligand.torsion>
0.8131

> <Gold.PLP.Chemscore.Hbond>
4.4758

> <Gold.PLP.Chemscore.CHOScore>
0.0000

> <Gold.PLP.Chemscore.Metal>
0.0000

> <Gold.Chemscore.Hbonds>
donor molecule, donor type, donor heavy atom, donor atom, acceptor molecule, acceptor atom, score
      L1  H     3    22       P1  8029  1.00
      L1  H     6    23       P1  8028  0.68
      L1  H    10    17       P1  7957  0.28
      P1  H  6934  6946       L1    16  0.13
      P1  H  7989  7998       L1     9  0.51

> <Gold.PLP.Chemscore.Internal.Correction>
0.0218

> <Gold.Rescore>
     Score         DG    S(hbond)    S(metal)    S(lipo)     H(rot)  DE(clash)    DE(int)     intcor
     15.19     -18.21       2.99        0.00      51.98       1.31       1.75       1.27       ----

> <Gold.Chemscore.Fitness>
15.1871

> <Gold.Chemscore.DG>
-18.2065

> <Gold.Chemscore.ZeroCoef>
-5.4800

> <Gold.Chemscore.Hbond>
2.9921

> <Gold.Chemscore.Metal>
0.0000

> <Gold.Chemscore.Lipo>
51.9763

> <Gold.Chemscore.Internal_Hbond>
0.0000

> <Gold.Chemscore.DEClash>
1.7494

> <Gold.Chemscore.DEInternal>
1.2701

> <Gold.Chemscore.Rot>
1.3079

> <Gold.Chemscore.Internal.Correction>
   9.000000E+99

> <Gold.Chemscore.Hbonds>
donor molecule, donor type, donor heavy atom, donor atom, acceptor molecule, acceptor atom, score
      L1  H     3    22       P1  8029  0.30
      L1  H     6    23       P1  8028  0.30
      L1  H    10    17       P1  7957  0.29
      P1  H  6934  6946       L1    16  0.12
      P1  H  7989  7998       L1     9  0.06

> <Gold.Chemscore.Hbond.Weighted>
-9.9936

> <Gold.Chemscore.Metal.Weighted>
-0.0000

> <Gold.Chemscore.Lipo.Weighted>
-6.0812

> <Gold.Chemscore.Internal_Hbond.Weighted>
0.0000

> <Gold.Chemscore.DEClash.Weighted>
1.7494

> <Gold.Chemscore.DEInternal.Weighted>
1.2701

> <Gold.Chemscore.Rot.Weighted>
3.3483

> <Gold.Chemscore.Internal.Correction.Weighted>
   9.000000E+99

> <Gold.Protein.RotatedTorsions>
[ 6907 6896 6895 6894 ] final -169.75 input  -60.11 | X-H torsion
[ 7974 7965 7964 7962 ] final -161.98 input  175.53 | X-H torsion
[ 8008 7997 7996 7995 ] final  -92.71 input   59.86 | X-H torsion
[ 10167 10162 10161 10158 ] final  -99.55 input  -65.29 | X-H torsion
[ 10718 10713 10712 10709 ] final -107.12 input   66.30 | X-H torsion
[ 10763 10752 10751 10750 ] final  142.97 input  -60.55 | X-H torsion
[ 11005 11000 10999 10996 ] final  167.42 input  -57.11 | X-H torsion

> <Gold.Protein.ActiveResidues>
 VAL166  LYS551  ARG553  GLY616  TRP617  ASP618  TYR619  PRO620  LYS621  CYS622 
 ASP623  PHE694  ASN695  SER759  ASP760  ASP761  ALA762  ILE779  LEU786  VAL792 
 PHE793  MET794  SER795  GLU796  ALA797  LYS798  CYS799  TRP800  GLU811  SER814 

> <Gold.Protein.RotatedAtoms>
  151.4967  133.3513  159.2861 H   0  0  0  0  0  0  0  0  0  0  0  0  # atno 6907 bound_to 6896
  150.8799  134.8191  159.7228 H   0  0  0  0  0  0  0  0  0  0  0  0  # atno 6908 bound_to 6896
  152.4756  134.4863  159.9733 H   0  0  0  0  0  0  0  0  0  0  0  0  # atno 6909 bound_to 6896
  144.7372  140.3319  143.6151 H   0  0  0  0  0  0  0  0  0  0  0  0  # atno 7974 bound_to 7965
  154.7266  140.0506  157.0688 H   0  0  0  0  0  0  0  0  0  0  0  0  # atno 8008 bound_to 7997
  155.0357  140.3163  155.4723 H   0  0  0  0  0  0  0  0  0  0  0  0  # atno 8009 bound_to 7997
  156.2830  140.2142  156.5479 H   0  0  0  0  0  0  0  0  0  0  0  0  # atno 8010 bound_to 7997
  140.2613  143.3405  152.0623 H   0  0  0  0  0  0  0  0  0  0  0  0  # atno 10167 bound_to 10162
  156.0422  130.5647  150.7777 H   0  0  0  0  0  0  0  0  0  0  0  0  # atno 10718 bound_to 10713
  153.9646  135.2957  155.3431 H   0  0  0  0  0  0  0  0  0  0  0  0  # atno 10763 bound_to 10752
  154.7356  135.5048  153.9039 H   0  0  0  0  0  0  0  0  0  0  0  0  # atno 10764 bound_to 10752
  153.0930  135.6713  153.9929 H   0  0  0  0  0  0  0  0  0  0  0  0  # atno 10765 bound_to 10752
  140.2767  134.7783  157.3722 H   0  0  0  0  0  0  0  0  0  0  0  0  # atno 11005 bound_to 11000
  145.7463  139.1780  143.2347 LP  0  0  0  0  0  0  0  0  0  0  0  0  # atno 17320 bound_to 7965
  146.1095  140.7445  142.9510 LP  0  0  0  0  0  0  0  0  0  0  0  0  # atno 17321 bound_to 7965
  139.5016  144.6717  151.6227 LP  0  0  0  0  0  0  0  0  0  0  0  0  # atno 17342 bound_to 10162
  140.5964  143.9689  150.6357 LP  0  0  0  0  0  0  0  0  0  0  0  0  # atno 17343 bound_to 10162
  157.5253  131.0934  151.0025 LP  0  0  0  0  0  0  0  0  0  0  0  0  # atno 17370 bound_to 10713
  157.0345  130.5724  149.5347 LP  0  0  0  0  0  0  0  0  0  0  0  0  # atno 17371 bound_to 10713
  140.1322  134.5080  155.8096 LP  0  0  0  0  0  0  0  0  0  0  0  0  # atno 17394 bound_to 11000
  141.2169  133.6794  156.7060 LP  0  0  0  0  0  0  0  0  0  0  0  0  # atno 17395 bound_to 11000

$$$$
