AV-unprocessed.smi:2268|AV-procd|sdf|9150|dock5
  -GOLD-   2272012353D 1   1.00000     0.00000
 Structure written by MMmdl.
 37 38  0  0  0  0  0  0  0  0  1 V2000
  151.9323  144.4733  159.4747 C   0  0  0  0  0  0  0  0  0  0  0  0
  152.2753  142.9966  159.5685 C   0  0  0  0  0  0  0  0  0  0  0  0
  153.2841  142.5958  160.4714 C   0  0  0  0  0  0  0  0  0  0  0  0
  153.6482  141.2418  160.5843 C   0  0  0  0  0  0  0  0  0  0  0  0
  154.6175  140.8702  161.4537 F   0  0  0  0  0  0  0  0  0  0  0  0
  153.0067  140.2760  159.7900 C   0  0  0  0  0  0  0  0  0  0  0  0
  151.9994  140.6658  158.8884 C   0  0  0  0  0  0  0  0  0  0  0  0
  151.6160  142.0225  158.7714 C   0  0  0  0  0  0  0  0  0  0  0  0
  150.5192  142.4017  157.7760 C   0  0  2  0  0  0  0  0  0  0  0  0
  149.3637  141.6036  157.9503 O   0  0  0  0  0  0  0  0  0  0  0  0
  151.0161  142.2387  156.3219 C   0  0  0  0  0  0  0  0  0  0  0  0
  150.2383  141.2393  155.5682 N   0  0  0  0  0  0  0  0  0  0  0  0
  149.0540  141.6976  154.9674 C   0  0  0  0  0  0  0  0  0  0  0  0
  148.2929  140.9118  154.2784 N   0  0  0  0  0  0  0  0  0  0  0  0
  148.6439  139.5689  154.1141 C   0  0  0  0  0  0  0  0  0  0  0  0
  147.6829  138.7363  153.2839 C   0  0  0  0  0  0  0  0  0  0  0  0
  149.7785  139.0620  154.6690 C   0  0  0  0  0  0  0  0  0  0  0  0
  150.2127  137.6089  154.5226 C   0  0  0  0  0  0  0  0  0  0  0  0
  150.6537  139.9443  155.4575 C   0  0  0  0  0  0  0  0  0  0  0  0
  151.6957  139.5514  155.9848 O   0  0  0  0  0  0  0  0  0  0  0  0
  152.5914  145.0761  160.1002 H   0  0  0  0  0  0  0  0  0  0  0  0
  150.9083  144.6520  159.8031 H   0  0  0  0  0  0  0  0  0  0  0  0
  152.0393  144.8258  158.4493 H   0  0  0  0  0  0  0  0  0  0  0  0
  153.7889  143.3289  161.0834 H   0  0  0  0  0  0  0  0  0  0  0  0
  153.2873  139.2363  159.8706 H   0  0  0  0  0  0  0  0  0  0  0  0
  151.5214  139.9110  158.2812 H   0  0  0  0  0  0  0  0  0  0  0  0
  150.2044  143.4295  157.9490 H   0  0  0  0  0  0  0  0  0  0  0  0
  149.4287  140.8550  157.3772 H   0  0  0  0  0  0  0  0  0  0  0  0
  150.9291  143.1969  155.8056 H   0  0  0  0  0  0  0  0  0  0  0  0
  152.0865  142.0226  156.3085 H   0  0  0  0  0  0  0  0  0  0  0  0
  148.8283  142.7545  155.1192 H   0  0  0  0  0  0  0  0  0  0  0  0
  147.2801  137.9139  153.8754 H   0  0  0  0  0  0  0  0  0  0  0  0
  148.1905  138.3238  152.4118 H   0  0  0  0  0  0  0  0  0  0  0  0
  146.8436  139.3351  152.9285 H   0  0  0  0  0  0  0  0  0  0  0  0
  151.1891  137.5553  154.0402 H   0  0  0  0  0  0  0  0  0  0  0  0
  149.5215  137.0114  153.9306 H   0  0  0  0  0  0  0  0  0  0  0  0
  150.2941  137.1400  155.5039 H   0  0  0  0  0  0  0  0  0  0  0  0
  1  2  1  0  0  0  0
  1 21  1  0  0  0  0
  1 22  1  0  0  0  0
  1 23  1  0  0  0  0
  2  8  1  0  0  0  0
  2  3  2  0  0  0  0
  3  4  1  0  0  0  0
  3 24  1  0  0  0  0
  4  5  1  0  0  0  0
  4  6  2  0  0  0  0
  6  7  1  0  0  0  0
  6 25  1  0  0  0  0
  7  8  2  0  0  0  0
  7 26  1  0  0  0  0
  8  9  1  0  0  0  0
  9 10  1  0  0  0  0
  9 11  1  0  0  0  0
  9 27  1  0  0  0  0
 10 28  1  0  0  0  0
 11 12  1  0  0  0  0
 11 29  1  0  0  0  0
 11 30  1  0  0  0  0
 12 19  1  0  0  0  0
 12 13  1  0  0  0  0
 13 14  2  0  0  0  0
 13 31  1  0  0  0  0
 14 15  1  0  0  0  0
 15 16  1  0  0  0  0
 15 17  2  0  0  0  0
 16 32  1  0  0  0  0
 16 33  1  0  0  0  0
 16 34  1  0  0  0  0
 17 18  1  0  0  0  0
 17 19  1  0  0  0  0
 18 35  1  0  0  0  0
 18 36  1  0  0  0  0
 18 37  1  0  0  0  0
 19 20  2  0  0  0  0
M  END
> <s_m_source_file>
AV-unprocessed.smi

> <i_m_source_file_index>
2268

> <i_lp_mmshare_version>
43012

> <i_f3d_flags>
0

> <s_epik_input>
W0NIM11jMVtjSF1jKEYpW2NIXVtjSF1jMVtDQEhdKFtPSF0pW0NIMl1uMltjSF1uYyhbQ0gzXSljKFtDSDNdKWMyPU8=

> <s_epik_cmdline>
J2VwaWtfcHl0aG9uJywgJy1waCcsICc3LjAnLCAnLXRuJywgJzgnLCAnLW1hJywgJzIwMCcsICctbWV0YWxfYmluZGluZycsICctaW1hZScsICc8aW5maWxlLm1hZT4nLCAnLW9tYWUnLCAnPG91dGZpbGUubWFlPic=

> <r_lp_tautomer_probability>
1

> <r_epik_Ionization_Penalty>
5.07449e-05

> <r_epik_Ionization_Penalty_Charging>
7.56727e-08

> <r_epik_Ionization_Penalty_Neutral>
5.06692e-05

> <r_epik_State_Penalty>
-0

> <r_epik_Charging_Adjusted_Penalty>
7.56727e-08

> <i_epik_Tot_Q>
0

> <i_epik_Tot_abs_Q>
0

> <r_epik_Metal_State_Penalty>
-0

> <b_epik_Metal_Only>
0

> <s_lp_Force_Field>
OPLS_2005

> <r_lp_Energy>
19.9067

> <b_lp_Chiralities_Consistent>
1

> <s_lp_Variant>
AV-unprocessed.smi:2268-1

> <Gold.Version>
5.8.1

> <Gold.Id.Protein>
6NUR|6NUR_protein|mol2

> <Gold.PLP.Fitness>
42.9371

> <Gold.PLP.PLP>
-42.4623

> <Gold.PLP.part.hbond>
0.0000

> <Gold.PLP.part.metal>
0.0000

> <Gold.PLP.part.buried>
-1.3967

> <Gold.PLP.part.nonpolar>
-40.9799

> <Gold.PLP.part.repulsive>
0.1254

> <Gold.PLP.ligand.clash>
0.0000

> <Gold.PLP.ligand.torsion>
1.2664

> <Gold.PLP.Chemscore.Hbond>
0.0000

> <Gold.PLP.Chemscore.CHOScore>
1.0000

> <Gold.PLP.Chemscore.Metal>
0.0000

> <Gold.Chemscore.Hbonds>
donor molecule, donor type, donor heavy atom, donor atom, acceptor molecule, acceptor atom, score
      L1  C    13    31       P1  8028  0.99

> <Gold.PLP.Chemscore.Internal.Correction>
0.0076

> <Gold.Rescore>
     Score         DG    S(hbond)    S(metal)    S(lipo)     H(rot)  DE(clash)    DE(int)     intcor
     11.51     -13.03       0.00        0.00     107.87       1.98       0.07       1.44       ----

> <Gold.Chemscore.Fitness>
11.5132

> <Gold.Chemscore.DG>
-13.0264

> <Gold.Chemscore.ZeroCoef>
-5.4800

> <Gold.Chemscore.Hbond>
0.0000

> <Gold.Chemscore.Metal>
0.0000

> <Gold.Chemscore.Lipo>
107.8736

> <Gold.Chemscore.Internal_Hbond>
0.0000

> <Gold.Chemscore.DEClash>
0.0726

> <Gold.Chemscore.DEInternal>
1.4406

> <Gold.Chemscore.Rot>
1.9823

> <Gold.Chemscore.Internal.Correction>
   9.000000E+99

> <Gold.Chemscore.Hbond.Weighted>
-0.0000

> <Gold.Chemscore.Metal.Weighted>
-0.0000

> <Gold.Chemscore.Lipo.Weighted>
-12.6212

> <Gold.Chemscore.Internal_Hbond.Weighted>
0.0000

> <Gold.Chemscore.DEClash.Weighted>
0.0726

> <Gold.Chemscore.DEInternal.Weighted>
1.4406

> <Gold.Chemscore.Rot.Weighted>
5.0748

> <Gold.Chemscore.Internal.Correction.Weighted>
   9.000000E+99

> <Gold.Protein.RotatedTorsions>
[ 6907 6896 6895 6894 ] final  -54.54 input  -60.11 | X-H torsion
[ 7974 7965 7964 7962 ] final   -8.50 input  175.53 | X-H torsion
[ 8008 7997 7996 7995 ] final -148.07 input   59.86 | X-H torsion
[ 10167 10162 10161 10158 ] final -122.11 input  -65.29 | X-H torsion
[ 10718 10713 10712 10709 ] final -108.54 input   66.30 | X-H torsion
[ 10763 10752 10751 10750 ] final   58.24 input  -60.55 | X-H torsion
[ 11005 11000 10999 10996 ] final   77.66 input  -57.11 | X-H torsion

> <Gold.Protein.ActiveResidues>
 VAL166  LYS551  ARG553  GLY616  TRP617  ASP618  TYR619  PRO620  LYS621  CYS622 
 ASP623  PHE694  ASN695  SER759  ASP760  ASP761  ALA762  ILE779  LEU786  VAL792 
 PHE793  MET794  SER795  GLU796  ALA797  LYS798  CYS799  TRP800  GLU811  SER814 

> <Gold.Protein.RotatedAtoms>
  150.8329  134.7590  159.6868 H   0  0  0  0  0  0  0  0  0  0  0  0  # atno 6907 bound_to 6896
  152.4430  134.5548  159.9887 H   0  0  0  0  0  0  0  0  0  0  0  0  # atno 6908 bound_to 6896
  151.5705  133.3353  159.3024 H   0  0  0  0  0  0  0  0  0  0  0  0  # atno 6909 bound_to 6896
  146.2278  140.2478  142.8346 H   0  0  0  0  0  0  0  0  0  0  0  0  # atno 7974 bound_to 7965
  155.5857  140.0647  157.2772 H   0  0  0  0  0  0  0  0  0  0  0  0  # atno 8008 bound_to 7997
  154.4319  140.1844  156.1069 H   0  0  0  0  0  0  0  0  0  0  0  0  # atno 8009 bound_to 7997
  156.0271  140.3310  155.7103 H   0  0  0  0  0  0  0  0  0  0  0  0  # atno 8010 bound_to 7997
  140.0178  143.5375  152.2234 H   0  0  0  0  0  0  0  0  0  0  0  0  # atno 10167 bound_to 10162
  156.0491  130.5718  150.7976 H   0  0  0  0  0  0  0  0  0  0  0  0  # atno 10718 bound_to 10713
  152.9866  135.5614  154.5520 H   0  0  0  0  0  0  0  0  0  0  0  0  # atno 10763 bound_to 10752
  154.4955  135.2795  155.1465 H   0  0  0  0  0  0  0  0  0  0  0  0  # atno 10764 bound_to 10752
  154.2917  135.6325  153.5441 H   0  0  0  0  0  0  0  0  0  0  0  0  # atno 10765 bound_to 10752
  139.9245  134.7701  156.1551 H   0  0  0  0  0  0  0  0  0  0  0  0  # atno 11005 bound_to 11000
  144.9435  140.8104  143.5616 LP  0  0  0  0  0  0  0  0  0  0  0  0  # atno 17320 bound_to 7965
  145.2431  139.2064  143.4982 LP  0  0  0  0  0  0  0  0  0  0  0  0  # atno 17321 bound_to 7965
  139.6160  144.7619  151.2845 LP  0  0  0  0  0  0  0  0  0  0  0  0  # atno 17342 bound_to 10162
  140.7355  143.6735  150.8061 LP  0  0  0  0  0  0  0  0  0  0  0  0  # atno 17343 bound_to 10162
  157.5398  131.0940  150.9842 LP  0  0  0  0  0  0  0  0  0  0  0  0  # atno 17370 bound_to 10713
  157.0128  130.5643  149.5322 LP  0  0  0  0  0  0  0  0  0  0  0  0  # atno 17371 bound_to 10713
  141.0792  133.6762  156.2300 LP  0  0  0  0  0  0  0  0  0  0  0  0  # atno 17394 bound_to 11000
  140.6377  134.5198  157.5566 LP  0  0  0  0  0  0  0  0  0  0  0  0  # atno 17395 bound_to 11000

$$$$
