AV-unprocessed.smi:193|AV-procd|sdf|1503|dock2
  -GOLD-   2262019333D 1   1.00000     0.00000
 Structure written by MMmdl.
 62 66  0  0  0  0  0  0  0  0  2 V2000
  148.1753  137.9873  158.2468 C   0  0  0  0  0  0  0  0  0  0  0  0
  148.1239  138.5820  156.8323 C   0  0  1  0  0  0  0  0  0  0  0  0
  146.7619  139.2744  156.6023 C   0  0  0  0  0  0  0  0  0  0  0  0
  146.6376  139.8940  155.2826 N   0  0  0  0  0  0  0  0  0  0  0  0
  146.3498  139.1562  154.1661 C   0  0  0  0  0  0  0  0  0  0  0  0
  147.0430  139.4345  153.0284 N   0  0  0  0  0  0  0  0  0  0  0  0
  146.8349  138.7472  151.9037 C   0  0  0  0  0  0  0  0  0  0  0  0
  145.9872  137.7435  151.6897 N   0  0  0  0  0  0  0  0  0  0  0  0
  145.2760  137.4526  152.8145 C   0  0  0  0  0  0  0  0  0  0  0  0
  145.3875  138.0991  154.0821 C   0  0  0  0  0  0  0  0  0  0  0  0
  144.4949  137.5064  154.9708 N   0  0  0  0  0  0  0  0  0  0  0  0
  143.8975  136.5785  154.2768 C   0  0  0  0  0  0  0  0  0  0  0  0
  144.3029  136.4809  152.9676 N   0  0  0  0  0  0  0  0  0  0  0  0
  143.8080  135.5441  151.9699 C   0  0  0  0  0  0  0  0  0  0  0  0
  144.9147  134.6723  151.3259 C   0  0  0  0  0  0  0  0  0  0  0  0
  145.6161  135.4850  150.4002 O   0  0  0  0  0  0  0  0  0  0  0  0
  145.9237  134.1289  152.3618 C   0  0  0  0  0  0  0  0  0  0  0  0
  146.8914  133.1030  151.7454 C   0  0  0  0  0  0  0  0  0  0  0  0
  146.1614  132.0514  151.1253 O   0  0  0  0  0  0  0  0  0  0  0  0
  145.3547  132.5040  150.0447 C   0  0  0  0  0  0  0  0  0  0  0  0
  144.2902  133.4895  150.5587 C   0  0  0  0  0  0  0  0  0  0  0  0
  147.3098  141.1894  155.1318 C   0  0  0  0  0  0  0  0  0  0  0  0
  148.7971  141.0855  154.7246 C   0  0  0  0  0  0  0  0  0  0  0  0
  149.4586  139.8212  155.1387 N   0  3  1  0  0  0  0  0  0  0  0  0
  150.8523  139.7399  154.6460 C   0  0  1  0  0  0  0  0  0  0  0  0
  151.8336  139.1980  155.6618 C   0  0  0  0  0  0  0  0  0  0  0  0
  151.3923  138.3269  154.5067 C   0  0  1  0  0  0  0  0  0  0  0  0
  150.5643  137.0818  154.7725 C   0  0  0  0  0  0  0  0  0  0  0  0
  149.3246  139.5197  156.5864 C   0  0  0  0  0  0  0  0  0  0  0  0
  148.1103  138.7660  159.0076 H   0  0  0  0  0  0  0  0  0  0  0  0
  149.1024  137.4377  158.4110 H   0  0  0  0  0  0  0  0  0  0  0  0
  147.3506  137.2925  158.4095 H   0  0  0  0  0  0  0  0  0  0  0  0
  148.2124  137.7463  156.1375 H   0  0  0  0  0  0  0  0  0  0  0  0
  145.9339  138.5912  156.7829 H   0  0  0  0  0  0  0  0  0  0  0  0
  146.6335  140.0530  157.3551 H   0  0  0  0  0  0  0  0  0  0  0  0
  147.4362  139.0410  151.0560 H   0  0  0  0  0  0  0  0  0  0  0  0
  143.1366  135.9391  154.7009 H   0  0  0  0  0  0  0  0  0  0  0  0
  143.0608  134.9071  152.4453 H   0  0  0  0  0  0  0  0  0  0  0  0
  143.2766  136.1109  151.2038 H   0  0  0  0  0  0  0  0  0  0  0  0
  145.6732  135.0224  149.5780 H   0  0  0  0  0  0  0  0  0  0  0  0
  146.4931  134.9413  152.8149 H   0  0  0  0  0  0  0  0  0  0  0  0
  145.3800  133.6457  153.1745 H   0  0  0  0  0  0  0  0  0  0  0  0
  147.5564  133.5754  151.0208 H   0  0  0  0  0  0  0  0  0  0  0  0
  147.5259  132.6772  152.5230 H   0  0  0  0  0  0  0  0  0  0  0  0
  145.9785  132.9624  149.2759 H   0  0  0  0  0  0  0  0  0  0  0  0
  144.8715  131.6419  149.5842 H   0  0  0  0  0  0  0  0  0  0  0  0
  143.6123  132.9486  151.2203 H   0  0  0  0  0  0  0  0  0  0  0  0
  143.6818  133.8495  149.7279 H   0  0  0  0  0  0  0  0  0  0  0  0
  146.7670  141.8346  154.4400 H   0  0  0  0  0  0  0  0  0  0  0  0
  147.2544  141.7072  156.0900 H   0  0  0  0  0  0  0  0  0  0  0  0
  148.8629  141.1528  153.6385 H   0  0  0  0  0  0  0  0  0  0  0  0
  149.3474  141.9431  155.1141 H   0  0  0  0  0  0  0  0  0  0  0  0
  151.1639  140.5279  153.9626 H   0  0  0  0  0  0  0  0  0  0  0  0
  152.8509  139.5827  155.6326 H   0  0  0  0  0  0  0  0  0  0  0  0
  151.4620  138.9493  156.6545 H   0  0  0  0  0  0  0  0  0  0  0  0
  152.1216  138.1899  153.7105 H   0  0  0  0  0  0  0  0  0  0  0  0
  149.9272  137.2057  155.6486 H   0  0  0  0  0  0  0  0  0  0  0  0
  151.2216  136.2308  154.9505 H   0  0  0  0  0  0  0  0  0  0  0  0
  149.9355  136.8558  153.9115 H   0  0  0  0  0  0  0  0  0  0  0  0
  149.2479  140.4353  157.1749 H   0  0  0  0  0  0  0  0  0  0  0  0
  150.2286  139.0181  156.9347 H   0  0  0  0  0  0  0  0  0  0  0  0
  148.9669  139.0779  154.6636 H   0  0  0  0  0  0  0  0  0  0  0  0
  1  2  1  0  0  0  0
  1 30  1  0  0  0  0
  1 31  1  0  0  0  0
  1 32  1  0  0  0  0
  2 29  1  0  0  0  0
  2  3  1  0  0  0  0
  2 33  1  0  0  0  0
  3  4  1  0  0  0  0
  3 34  1  0  0  0  0
  3 35  1  0  0  0  0
  4  5  1  0  0  0  0
  4 22  1  0  0  0  0
  5 10  1  0  0  0  0
  5  6  2  0  0  0  0
  6  7  1  0  0  0  0
  7  8  2  0  0  0  0
  7 36  1  0  0  0  0
  8  9  1  0  0  0  0
  9 13  1  0  0  0  0
  9 10  2  0  0  0  0
 10 11  1  0  0  0  0
 11 12  2  0  0  0  0
 12 13  1  0  0  0  0
 12 37  1  0  0  0  0
 13 14  1  0  0  0  0
 14 15  1  0  0  0  0
 14 38  1  0  0  0  0
 14 39  1  0  0  0  0
 15 21  1  0  0  0  0
 15 16  1  0  0  0  0
 15 17  1  0  0  0  0
 16 40  1  0  0  0  0
 17 18  1  0  0  0  0
 17 41  1  0  0  0  0
 17 42  1  0  0  0  0
 18 19  1  0  0  0  0
 18 43  1  0  0  0  0
 18 44  1  0  0  0  0
 19 20  1  0  0  0  0
 20 21  1  0  0  0  0
 20 45  1  0  0  0  0
 20 46  1  0  0  0  0
 21 47  1  0  0  0  0
 21 48  1  0  0  0  0
 22 23  1  0  0  0  0
 22 49  1  0  0  0  0
 22 50  1  0  0  0  0
 23 24  1  0  0  0  0
 23 51  1  0  0  0  0
 23 52  1  0  0  0  0
 24 25  1  0  0  0  0
 24 29  1  0  0  0  0
 24 62  1  0  0  0  0
 25 27  1  0  0  0  0
 25 26  1  0  0  0  0
 25 53  1  0  0  0  0
 26 27  1  0  0  0  0
 26 54  1  0  0  0  0
 26 55  1  0  0  0  0
 27 28  1  0  0  0  0
 27 56  1  0  0  0  0
 28 57  1  0  0  0  0
 28 58  1  0  0  0  0
 28 59  1  0  0  0  0
 29 60  1  0  0  0  0
 29 61  1  0  0  0  0
M  CHG  1  24   1
M  END
> <s_m_source_file>
AV-unprocessed.smi

> <i_m_source_file_index>
193

> <i_lp_mmshare_version>
43012

> <i_f3d_flags>
0

> <s_epik_input>
W0NIM11bQ0BASF0xW0NIMl1bQ0BIXTFOKFtDSDJdMilbQ0gyXVtDSDJdTihbQ0gyXVtDQEhdMltDSDNdKWMobltjSF1uMyljKGMzNCluW2NIXW40W0NIMl1DNShbT0hdKVtDSDJdW0NIMl1PW0NIMl1bQ0gyXTU=

> <s_epik_cmdline>
J2VwaWtfcHl0aG9uJywgJy1waCcsICc3LjAnLCAnLXRuJywgJzgnLCAnLW1hJywgJzIwMCcsICctbWV0YWxfYmluZGluZycsICctaW1hZScsICc8aW5maWxlLm1hZT4nLCAnLW9tYWUnLCAnPG91dGZpbGUubWFlPic=

> <r_lp_tautomer_probability>
1

> <r_epik_Ionization_Penalty>
0.0540825

> <r_epik_Ionization_Penalty_Charging>
0.0538476

> <r_epik_Ionization_Penalty_Neutral>
0.000234891

> <r_epik_State_Penalty>
0.0200719

> <r_epik_Charging_Adjusted_Penalty>
0.0739194

> <i_epik_Tot_Q>
1

> <i_epik_Tot_abs_Q>
1

> <r_epik_Metal_State_Penalty>
0.0199414

> <b_epik_Metal_Only>
0

> <s_lp_Force_Field>
OPLS_2005

> <r_lp_Energy>
52.5482

> <b_lp_Chiralities_Consistent>
1

> <s_lp_Variant>
AV-unprocessed.smi:193-8

> <Gold.Version>
5.8.1

> <Gold.Id.Protein>
6NUR|6NUR_protein|mol2

> <Gold.PLP.Fitness>
40.6643

> <Gold.PLP.PLP>
-38.4275

> <Gold.PLP.part.hbond>
-1.0000

> <Gold.PLP.part.metal>
0.0000

> <Gold.PLP.part.buried>
-5.4332

> <Gold.PLP.part.nonpolar>
-35.3803

> <Gold.PLP.part.repulsive>
2.1292

> <Gold.PLP.ligand.clash>
2.0424

> <Gold.PLP.ligand.torsion>
1.4553

> <Gold.PLP.Chemscore.Hbond>
1.0000

> <Gold.PLP.Chemscore.CHOScore>
0.9264

> <Gold.PLP.Chemscore.Metal>
0.0000

> <Gold.Chemscore.Hbonds>
donor molecule, donor type, donor heavy atom, donor atom, acceptor molecule, acceptor atom, score
      L1  H    16    40       P1  7921  1.00
      L1  C     7    36       P1  7957  0.95

> <Gold.PLP.Chemscore.Internal.Correction>
1.4106

> <Gold.Rescore>
     Score         DG    S(hbond)    S(metal)    S(lipo)     H(rot)  DE(clash)    DE(int)     intcor
      9.53     -12.98       0.97        0.00      78.77       1.93       0.85       2.60       ----

> <Gold.Chemscore.Fitness>
9.5323

> <Gold.Chemscore.DG>
-12.9834

> <Gold.Chemscore.ZeroCoef>
-5.4800

> <Gold.Chemscore.Hbond>
0.9658

> <Gold.Chemscore.Metal>
0.0000

> <Gold.Chemscore.Lipo>
78.7689

> <Gold.Chemscore.Internal_Hbond>
0.0000

> <Gold.Chemscore.DEClash>
0.8502

> <Gold.Chemscore.DEInternal>
2.6008

> <Gold.Chemscore.Rot>
1.9290

> <Gold.Chemscore.Internal.Correction>
   9.000000E+99

> <Gold.Chemscore.Hbonds>
donor molecule, donor type, donor heavy atom, donor atom, acceptor molecule, acceptor atom, score
      L1  H    16    40       P1  7921  0.92

> <Gold.Chemscore.Hbond.Weighted>
-3.2257

> <Gold.Chemscore.Metal.Weighted>
-0.0000

> <Gold.Chemscore.Lipo.Weighted>
-9.2160

> <Gold.Chemscore.Internal_Hbond.Weighted>
0.0000

> <Gold.Chemscore.DEClash.Weighted>
0.8502

> <Gold.Chemscore.DEInternal.Weighted>
2.6008

> <Gold.Chemscore.Rot.Weighted>
4.9383

> <Gold.Chemscore.Internal.Correction.Weighted>
   9.000000E+99

> <Gold.Protein.RotatedTorsions>
[ 6907 6896 6895 6894 ] final -135.86 input  -60.11 | X-H torsion
[ 7974 7965 7964 7962 ] final   19.03 input  175.53 | X-H torsion
[ 8008 7997 7996 7995 ] final  110.78 input   59.86 | X-H torsion
[ 10167 10162 10161 10158 ] final -120.48 input  -65.29 | X-H torsion
[ 10718 10713 10712 10709 ] final   62.75 input   66.30 | X-H torsion
[ 10763 10752 10751 10750 ] final   23.53 input  -60.55 | X-H torsion
[ 11005 11000 10999 10996 ] final -137.84 input  -57.11 | X-H torsion

> <Gold.Protein.ActiveResidues>
 VAL166  LYS551  ARG553  GLY616  TRP617  ASP618  TYR619  PRO620  LYS621  CYS622 
 ASP623  PHE694  ASN695  SER759  ASP760  ASP761  ALA762  ILE779  LEU786  VAL792 
 PHE793  MET794  SER795  GLU796  ALA797  LYS798  CYS799  TRP800  GLU811  SER814 

> <Gold.Protein.RotatedAtoms>
  151.0030  133.6038  159.2692 H   0  0  0  0  0  0  0  0  0  0  0  0  # atno 6907 bound_to 6896
  151.3218  135.0819  159.9318 H   0  0  0  0  0  0  0  0  0  0  0  0  # atno 6908 bound_to 6896
  152.5279  133.9676  159.7801 H   0  0  0  0  0  0  0  0  0  0  0  0  # atno 6909 bound_to 6896
  146.2164  139.8371  142.8648 H   0  0  0  0  0  0  0  0  0  0  0  0  # atno 7974 bound_to 7965
  156.2077  140.3032  155.9664 H   0  0  0  0  0  0  0  0  0  0  0  0  # atno 8008 bound_to 7997
  155.2800  140.0437  157.3031 H   0  0  0  0  0  0  0  0  0  0  0  0  # atno 8009 bound_to 7997
  154.5656  140.2333  155.8277 H   0  0  0  0  0  0  0  0  0  0  0  0  # atno 8010 bound_to 7997
  140.0354  143.5207  152.2156 H   0  0  0  0  0  0  0  0  0  0  0  0  # atno 10167 bound_to 10162
  157.5923  130.9067  149.9628 H   0  0  0  0  0  0  0  0  0  0  0  0  # atno 10718 bound_to 10713
  153.0831  135.6625  154.0004 H   0  0  0  0  0  0  0  0  0  0  0  0  # atno 10763 bound_to 10752
  153.9620  135.2973  155.3434 H   0  0  0  0  0  0  0  0  0  0  0  0  # atno 10764 bound_to 10752
  154.7234  135.5154  153.8920 H   0  0  0  0  0  0  0  0  0  0  0  0  # atno 10765 bound_to 10752
  140.8673  134.2095  157.4672 H   0  0  0  0  0  0  0  0  0  0  0  0  # atno 11005 bound_to 11000
  145.2937  141.0174  143.3648 LP  0  0  0  0  0  0  0  0  0  0  0  0  # atno 17320 bound_to 7965
  144.9058  139.4591  143.6611 LP  0  0  0  0  0  0  0  0  0  0  0  0  # atno 17321 bound_to 7965
  139.6049  144.7593  151.3086 LP  0  0  0  0  0  0  0  0  0  0  0  0  # atno 17342 bound_to 10162
  140.7284  143.6937  150.7901 LP  0  0  0  0  0  0  0  0  0  0  0  0  # atno 17343 bound_to 10162
  156.0980  130.3658  150.0271 LP  0  0  0  0  0  0  0  0  0  0  0  0  # atno 17370 bound_to 10713
  156.8391  130.9419  151.3633 LP  0  0  0  0  0  0  0  0  0  0  0  0  # atno 17371 bound_to 10713
  139.8710  134.9757  156.4895 LP  0  0  0  0  0  0  0  0  0  0  0  0  # atno 17394 bound_to 11000
  140.8614  133.8056  155.9269 LP  0  0  0  0  0  0  0  0  0  0  0  0  # atno 17395 bound_to 11000

$$$$
