AV-unprocessed.smi:3285|AV-procd|sdf|12582|dock1
  -GOLD-   2272018503D 1   1.00000     0.00000
 Structure written by MMmdl.
 45 46  0  0  0  0  0  0  0  0  2 V2000
  152.2097  138.8379  155.6106 C   0  0  0  0  0  0  0  0  0  0  0  0
  150.9166  139.2427  154.9624 C   0  0  0  0  0  0  0  0  0  0  0  0
  150.7350  140.4996  154.5947 N   0  0  0  0  0  0  0  0  0  0  0  0
  149.4572  140.5526  154.0301 O   0  0  0  0  0  0  0  0  0  0  0  0
  148.9141  139.3096  154.0775 C   0  0  0  0  0  0  0  0  0  0  0  0
  147.5411  139.1562  153.5159 C   0  0  0  0  0  0  0  0  0  0  0  0
  149.7874  138.4301  154.6561 C   0  0  0  0  0  0  0  0  0  0  0  0
  149.6119  136.9576  154.9104 C   0  0  0  0  0  0  0  0  0  0  0  0
  148.1285  136.5703  154.9626 C   0  0  0  0  0  0  0  0  0  0  0  0
  147.8742  135.3455  154.1762 N   0  3  0  0  0  0  0  0  0  0  0  0
  146.4975  134.8039  154.2635 C   0  0  2  0  0  0  0  0  0  0  0  0
  146.5164  133.2703  154.1514 C   0  0  0  0  0  0  0  0  0  0  0  0
  146.8660  132.8007  152.7302 C   0  0  0  0  0  0  0  0  0  0  0  0
  145.9195  133.3971  151.6686 C   0  0  2  0  0  0  0  0  0  0  0  0
  146.3129  132.8842  150.2718 C   0  0  0  0  0  0  0  0  0  0  0  0
  145.8991  134.9458  151.7612 C   0  0  1  0  0  0  0  0  0  0  0  0
  144.9222  135.5929  150.7631 C   0  0  0  0  0  0  0  0  0  0  0  0
  145.5557  135.4008  153.1965 C   0  0  0  0  0  0  0  0  0  0  0  0
  152.8144  138.2372  154.9313 H   0  0  0  0  0  0  0  0  0  0  0  0
  152.0285  138.2450  156.5071 H   0  0  0  0  0  0  0  0  0  0  0  0
  152.8036  139.7044  155.9044 H   0  0  0  0  0  0  0  0  0  0  0  0
  147.4975  138.3137  152.8254 H   0  0  0  0  0  0  0  0  0  0  0  0
  147.2355  140.0514  152.9736 H   0  0  0  0  0  0  0  0  0  0  0  0
  146.8169  138.9804  154.3114 H   0  0  0  0  0  0  0  0  0  0  0  0
  150.1101  136.3763  154.1338 H   0  0  0  0  0  0  0  0  0  0  0  0
  150.0922  136.6705  155.8466 H   0  0  0  0  0  0  0  0  0  0  0  0
  147.8251  136.4060  155.9974 H   0  0  0  0  0  0  0  0  0  0  0  0
  147.5244  137.3896  154.5739 H   0  0  0  0  0  0  0  0  0  0  0  0
  148.0930  135.5228  153.2062 H   0  0  0  0  0  0  0  0  0  0  0  0
  146.1120  135.0578  155.2520 H   0  0  0  0  0  0  0  0  0  0  0  0
  147.2190  132.8460  154.8699 H   0  0  0  0  0  0  0  0  0  0  0  0
  145.5347  132.8790  154.4221 H   0  0  0  0  0  0  0  0  0  0  0  0
  147.8969  133.0715  152.4976 H   0  0  0  0  0  0  0  0  0  0  0  0
  146.8239  131.7114  152.6935 H   0  0  0  0  0  0  0  0  0  0  0  0
  144.9135  133.0310  151.8802 H   0  0  0  0  0  0  0  0  0  0  0  0
  147.2823  133.2763  149.9625 H   0  0  0  0  0  0  0  0  0  0  0  0
  145.5801  133.1646  149.5158 H   0  0  0  0  0  0  0  0  0  0  0  0
  146.3773  131.7958  150.2589 H   0  0  0  0  0  0  0  0  0  0  0  0
  146.8973  135.3152  151.5216 H   0  0  0  0  0  0  0  0  0  0  0  0
  143.9085  135.2134  150.8961 H   0  0  0  0  0  0  0  0  0  0  0  0
  145.2167  135.4100  149.7301 H   0  0  0  0  0  0  0  0  0  0  0  0
  144.8896  136.6749  150.8936 H   0  0  0  0  0  0  0  0  0  0  0  0
  144.5346  135.0929  153.4262 H   0  0  0  0  0  0  0  0  0  0  0  0
  145.5467  136.4889  153.2556 H   0  0  0  0  0  0  0  0  0  0  0  0
  148.5028  134.6332  154.5192 H   0  0  0  0  0  0  0  0  0  0  0  0
  1  2  1  0  0  0  0
  1 19  1  0  0  0  0
  1 20  1  0  0  0  0
  1 21  1  0  0  0  0
  2  7  1  0  0  0  0
  2  3  2  0  0  0  0
  3  4  1  0  0  0  0
  4  5  1  0  0  0  0
  5  6  1  0  0  0  0
  5  7  2  0  0  0  0
  6 22  1  0  0  0  0
  6 23  1  0  0  0  0
  6 24  1  0  0  0  0
  7  8  1  0  0  0  0
  8  9  1  0  0  0  0
  8 25  1  0  0  0  0
  8 26  1  0  0  0  0
  9 10  1  0  0  0  0
  9 27  1  0  0  0  0
  9 28  1  0  0  0  0
 10 11  1  0  0  0  0
 10 29  1  0  0  0  0
 10 45  1  0  0  0  0
 11 18  1  0  0  0  0
 11 12  1  0  0  0  0
 11 30  1  0  0  0  0
 12 13  1  0  0  0  0
 12 31  1  0  0  0  0
 12 32  1  0  0  0  0
 13 14  1  0  0  0  0
 13 33  1  0  0  0  0
 13 34  1  0  0  0  0
 14 15  1  0  0  0  0
 14 16  1  0  0  0  0
 14 35  1  0  0  0  0
 15 36  1  0  0  0  0
 15 37  1  0  0  0  0
 15 38  1  0  0  0  0
 16 17  1  0  0  0  0
 16 18  1  0  0  0  0
 16 39  1  0  0  0  0
 17 40  1  0  0  0  0
 17 41  1  0  0  0  0
 17 42  1  0  0  0  0
 18 43  1  0  0  0  0
 18 44  1  0  0  0  0
M  CHG  1  10   1
M  END
> <s_m_source_file>
AV-unprocessed.smi

> <i_m_source_file_index>
3285

> <i_lp_mmshare_version>
43012

> <i_f3d_flags>
0

> <s_epik_input>
W0NIM11jMW5vYyhbQ0gzXSljMVtDSDJdW0NIMl1bTkhdW0NAQEhdMltDSDJdW0NIMl1bQ0BASF0oW0NIM10pW0NAQEhdKFtDSDNdKVtDSDJdMg==

> <s_epik_cmdline>
J2VwaWtfcHl0aG9uJywgJy1waCcsICc3LjAnLCAnLXRuJywgJzgnLCAnLW1hJywgJzIwMCcsICctbWV0YWxfYmluZGluZycsICctaW1hZScsICc8aW5maWxlLm1hZT4nLCAnLW9tYWUnLCAnPG91dGZpbGUubWFlPic=

> <r_lp_tautomer_probability>
1

> <r_epik_Ionization_Penalty>
0.000204615

> <r_epik_Ionization_Penalty_Charging>
0.000204615

> <r_epik_Ionization_Penalty_Neutral>
9.28663e-11

> <r_epik_State_Penalty>
-0

> <r_epik_Charging_Adjusted_Penalty>
0.000204615

> <i_epik_Tot_Q>
1

> <i_epik_Tot_abs_Q>
1

> <r_epik_Metal_State_Penalty>
-0

> <b_epik_Metal_Only>
0

> <s_lp_Force_Field>
OPLS_2005

> <r_lp_Energy>
13.9042

> <b_lp_Chiralities_Consistent>
1

> <s_lp_Variant>
AV-unprocessed.smi:3285-3

> <Gold.Version>
5.8.1

> <Gold.Id.Protein>
6NUR|6NUR_protein|mol2

> <Gold.PLP.Fitness>
34.5722

> <Gold.PLP.PLP>
-27.6481

> <Gold.PLP.part.hbond>
-2.8580

> <Gold.PLP.part.metal>
0.0000

> <Gold.PLP.part.buried>
-2.3949

> <Gold.PLP.part.nonpolar>
-23.2152

> <Gold.PLP.part.repulsive>
0.9166

> <Gold.PLP.ligand.clash>
0.0000

> <Gold.PLP.ligand.torsion>
1.0407

> <Gold.PLP.Chemscore.Hbond>
3.0000

> <Gold.PLP.Chemscore.CHOScore>
0.0000

> <Gold.PLP.Chemscore.Metal>
0.0000

> <Gold.Chemscore.Hbonds>
donor molecule, donor type, donor heavy atom, donor atom, acceptor molecule, acceptor atom, score
      L1  H    10    29       P1  7948  2.00
      P1  H  7989  7998       L1     3  0.83

> <Gold.PLP.Chemscore.Internal.Correction>
0.0055

> <Gold.Rescore>
     Score         DG    S(hbond)    S(metal)    S(lipo)     H(rot)  DE(clash)    DE(int)     intcor
     13.99     -16.16       1.60        0.00      75.11       1.35       0.11       2.06       ----

> <Gold.Chemscore.Fitness>
13.9925

> <Gold.Chemscore.DG>
-16.1616

> <Gold.Chemscore.ZeroCoef>
-5.4800

> <Gold.Chemscore.Hbond>
1.5991

> <Gold.Chemscore.Metal>
0.0000

> <Gold.Chemscore.Lipo>
75.1083

> <Gold.Chemscore.Internal_Hbond>
0.0000

> <Gold.Chemscore.DEClash>
0.1058

> <Gold.Chemscore.DEInternal>
2.0633

> <Gold.Chemscore.Rot>
1.3465

> <Gold.Chemscore.Internal.Correction>
   9.000000E+99

> <Gold.Chemscore.Hbonds>
donor molecule, donor type, donor heavy atom, donor atom, acceptor molecule, acceptor atom, score
      L1  H    10    29       P1  7948  0.99
      P1  H  7989  7998       L1     3  0.29

> <Gold.Chemscore.Hbond.Weighted>
-5.3410

> <Gold.Chemscore.Metal.Weighted>
-0.0000

> <Gold.Chemscore.Lipo.Weighted>
-8.7877

> <Gold.Chemscore.Internal_Hbond.Weighted>
0.0000

> <Gold.Chemscore.DEClash.Weighted>
0.1058

> <Gold.Chemscore.DEInternal.Weighted>
2.0633

> <Gold.Chemscore.Rot.Weighted>
3.4470

> <Gold.Chemscore.Internal.Correction.Weighted>
   9.000000E+99

> <Gold.Protein.RotatedTorsions>
[ 6907 6896 6895 6894 ] final  -27.31 input  -60.11 | X-H torsion
[ 7974 7965 7964 7962 ] final   39.13 input  175.53 | X-H torsion
[ 8008 7997 7996 7995 ] final  -12.02 input   59.86 | X-H torsion
[ 10167 10162 10161 10158 ] final -147.64 input  -65.29 | X-H torsion
[ 10718 10713 10712 10709 ] final  116.62 input   66.30 | X-H torsion
[ 10763 10752 10751 10750 ] final  140.39 input  -60.55 | X-H torsion
[ 11005 11000 10999 10996 ] final  -54.16 input  -57.11 | X-H torsion

> <Gold.Protein.ActiveResidues>
 VAL166  LYS551  ARG553  GLY616  TRP617  ASP618  TYR619  PRO620  LYS621  CYS622 
 ASP623  PHE694  ASN695  SER759  ASP760  ASP761  ALA762  ILE779  LEU786  VAL792 
 PHE793  MET794  SER795  GLU796  ALA797  LYS798  CYS799  TRP800  GLU811  SER814 

> <Gold.Protein.RotatedAtoms>
  151.1487  135.0216  159.8658 H   0  0  0  0  0  0  0  0  0  0  0  0  # atno 6907 bound_to 6896
  152.5453  134.1414  159.8490 H   0  0  0  0  0  0  0  0  0  0  0  0  # atno 6908 bound_to 6896
  151.1497  133.4870  159.2628 H   0  0  0  0  0  0  0  0  0  0  0  0  # atno 6909 bound_to 6896
  146.1008  139.5688  142.9415 H   0  0  0  0  0  0  0  0  0  0  0  0  # atno 7974 bound_to 7965
  154.5414  140.2287  155.8635 H   0  0  0  0  0  0  0  0  0  0  0  0  # atno 8008 bound_to 7997
  156.1862  140.3088  155.9204 H   0  0  0  0  0  0  0  0  0  0  0  0  # atno 8009 bound_to 7997
  155.3251  140.0442  157.3031 H   0  0  0  0  0  0  0  0  0  0  0  0  # atno 8010 bound_to 7997
  139.7604  143.8386  152.2606 H   0  0  0  0  0  0  0  0  0  0  0  0  # atno 10167 bound_to 10162
  157.6149  131.1027  150.7498 H   0  0  0  0  0  0  0  0  0  0  0  0  # atno 10718 bound_to 10713
  153.9218  135.2999  155.3447 H   0  0  0  0  0  0  0  0  0  0  0  0  # atno 10763 bound_to 10752
  154.7571  135.4952  153.9398 H   0  0  0  0  0  0  0  0  0  0  0  0  # atno 10764 bound_to 10752
  153.1137  135.6765  153.9558 H   0  0  0  0  0  0  0  0  0  0  0  0  # atno 10765 bound_to 10752
  141.1012  133.6618  156.4279 H   0  0  0  0  0  0  0  0  0  0  0  0  # atno 11005 bound_to 11000
  145.5858  141.0376  143.2097 LP  0  0  0  0  0  0  0  0  0  0  0  0  # atno 17320 bound_to 7965
  144.7431  139.7393  143.7303 LP  0  0  0  0  0  0  0  0  0  0  0  0  # atno 17321 bound_to 7965
  139.8390  144.7218  150.9354 LP  0  0  0  0  0  0  0  0  0  0  0  0  # atno 17342 bound_to 10162
  140.7806  143.4000  151.1165 LP  0  0  0  0  0  0  0  0  0  0  0  0  # atno 17343 bound_to 10162
  156.7868  130.4877  149.5391 LP  0  0  0  0  0  0  0  0  0  0  0  0  # atno 17370 bound_to 10713
  156.1267  130.6148  151.0273 LP  0  0  0  0  0  0  0  0  0  0  0  0  # atno 17371 bound_to 10713
  140.5017  134.6479  157.5251 LP  0  0  0  0  0  0  0  0  0  0  0  0  # atno 17394 bound_to 11000
  139.9864  134.7054  155.9766 LP  0  0  0  0  0  0  0  0  0  0  0  0  # atno 17395 bound_to 11000

$$$$
