AV-unprocessed.smi:688|AV-procd|sdf|3357|dock3
  -GOLD-   22720 0333D 1   1.00000     0.00000
 Structure written by MMmdl.
 35 36  0  0  0  0  0  0  0  0  2 V2000
  149.4689  134.0941  158.0898 O   0  0  0  0  0  0  0  0  0  0  0  0
  149.3831  135.1025  157.3907 C   0  0  0  0  0  0  0  0  0  0  0  0
  149.0453  136.3236  157.8983 N   0  5  0  0  0  0  0  0  0  0  0  0
  148.9374  137.4553  157.1361 C   0  0  0  0  0  0  0  0  0  0  0  0
  148.6309  138.5453  157.6191 O   0  0  0  0  0  0  0  0  0  0  0  0
  149.1767  137.3714  155.7932 N   0  0  0  0  0  0  0  0  0  0  0  0
  149.0675  138.5375  154.8990 C   0  0  0  0  0  0  0  0  0  0  0  0
  150.4395  139.0078  154.3637 C   0  0  1  0  0  0  0  0  0  0  0  0
  150.2665  140.2647  153.7423 O   0  0  0  0  0  0  0  0  0  0  0  0
  151.5199  139.1381  155.4549 C   0  0  0  0  0  0  0  0  0  0  0  0
  151.0400  139.9984  156.4796 O   0  0  0  0  0  0  0  0  0  0  0  0
  151.9431  140.1550  157.5649 C   0  0  0  0  0  0  0  0  0  0  0  0
  151.9535  141.5718  158.1159 C   0  0  0  0  0  0  0  0  0  0  0  0
  152.6493  141.8596  159.3092 C   0  0  0  0  0  0  0  0  0  0  0  0
  152.6504  143.1675  159.8306 C   0  0  0  0  0  0  0  0  0  0  0  0
  151.9536  144.1929  159.1625 C   0  0  0  0  0  0  0  0  0  0  0  0
  151.9410  145.7920  159.8094 Cl  0  0  0  0  0  0  0  0  0  0  0  0
  151.2630  143.9107  157.9677 C   0  0  0  0  0  0  0  0  0  0  0  0
  151.2662  142.6036  157.4428 C   0  0  0  0  0  0  0  0  0  0  0  0
  149.5360  136.1374  155.2226 C   0  0  0  0  0  0  0  0  0  0  0  0
  149.6426  135.0125  155.9557 C   0  0  0  0  0  0  0  0  0  0  0  0
  150.0609  133.5058  155.2207 Cl  0  0  0  0  0  0  0  0  0  0  0  0
  148.4134  138.2798  154.0638 H   0  0  0  0  0  0  0  0  0  0  0  0
  148.5664  139.3646  155.4042 H   0  0  0  0  0  0  0  0  0  0  0  0
  150.7780  138.3099  153.5971 H   0  0  0  0  0  0  0  0  0  0  0  0
  150.0086  140.1183  152.8451 H   0  0  0  0  0  0  0  0  0  0  0  0
  151.8048  138.1700  155.8699 H   0  0  0  0  0  0  0  0  0  0  0  0
  152.4278  139.5559  155.0244 H   0  0  0  0  0  0  0  0  0  0  0  0
  151.6302  139.4854  158.3662 H   0  0  0  0  0  0  0  0  0  0  0  0
  152.9461  139.8427  157.2691 H   0  0  0  0  0  0  0  0  0  0  0  0
  153.1754  141.0754  159.8341 H   0  0  0  0  0  0  0  0  0  0  0  0
  153.1759  143.3796  160.7502 H   0  0  0  0  0  0  0  0  0  0  0  0
  150.7275  144.6958  157.4544 H   0  0  0  0  0  0  0  0  0  0  0  0
  150.7310  142.3949  156.5279 H   0  0  0  0  0  0  0  0  0  0  0  0
  149.7052  136.1577  154.1560 H   0  0  0  0  0  0  0  0  0  0  0  0
  1  2  2  0  0  0  0
  2 21  1  0  0  0  0
  2  3  1  0  0  0  0
  3  4  1  0  0  0  0
  4  5  2  0  0  0  0
  4  6  1  0  0  0  0
  6  7  1  0  0  0  0
  6 20  1  0  0  0  0
  7  8  1  0  0  0  0
  7 23  1  0  0  0  0
  7 24  1  0  0  0  0
  8  9  1  0  0  0  0
  8 10  1  0  0  0  0
  8 25  1  0  0  0  0
  9 26  1  0  0  0  0
 10 11  1  0  0  0  0
 10 27  1  0  0  0  0
 10 28  1  0  0  0  0
 11 12  1  0  0  0  0
 12 13  1  0  0  0  0
 12 29  1  0  0  0  0
 12 30  1  0  0  0  0
 13 19  1  0  0  0  0
 13 14  2  0  0  0  0
 14 15  1  0  0  0  0
 14 31  1  0  0  0  0
 15 16  2  0  0  0  0
 15 32  1  0  0  0  0
 16 17  1  0  0  0  0
 16 18  1  0  0  0  0
 18 19  2  0  0  0  0
 18 33  1  0  0  0  0
 19 34  1  0  0  0  0
 20 21  2  0  0  0  0
 20 35  1  0  0  0  0
 21 22  1  0  0  0  0
M  CHG  1   3  -1
M  END
> <s_m_source_file>
AV-unprocessed.smi

> <i_m_source_file_index>
688

> <i_lp_mmshare_version>
43012

> <i_f3d_flags>
0

> <s_epik_input>
Tz1jMVtuSF1jKD1PKW4oW2NIXWMxQ2wpW0NIMl1bQ0BIXShbT0hdKVtDSDJdT1tDSDJdYzJbY0hdW2NIXWMoQ2wpW2NIXVtjSF0y

> <s_epik_cmdline>
J2VwaWtfcHl0aG9uJywgJy1waCcsICc3LjAnLCAnLXRuJywgJzgnLCAnLW1hJywgJzIwMCcsICctbWV0YWxfYmluZGluZycsICctaW1hZScsICc8aW5maWxlLm1hZT4nLCAnLW9tYWUnLCAnPG91dGZpbGUubWFlPic=

> <r_epik_Ionization_Penalty>
1.82111

> <r_epik_Ionization_Penalty_Charging>
5.03334e-08

> <r_epik_Ionization_Penalty_Neutral>
1.82111

> <r_epik_State_Penalty>
1.93633

> <r_epik_Charging_Adjusted_Penalty>
1.93633

> <i_epik_Tot_Q>
-1

> <i_epik_Tot_abs_Q>
1

> <r_epik_Metal_State_Penalty>
0.0147818

> <b_epik_Metal_Only>
0

> <s_lp_Force_Field>
OPLS_2005

> <r_lp_Energy>
20.5354

> <b_lp_Chiralities_Consistent>
1

> <s_lp_Variant>
AV-unprocessed.smi:688-4

> <Gold.Version>
5.8.1

> <Gold.Id.Protein>
6NUR|6NUR_protein|mol2

> <Gold.PLP.Fitness>
51.1228

> <Gold.PLP.PLP>
-40.6739

> <Gold.PLP.part.hbond>
-2.8996

> <Gold.PLP.part.metal>
0.0000

> <Gold.PLP.part.buried>
-5.8638

> <Gold.PLP.part.nonpolar>
-33.0988

> <Gold.PLP.part.repulsive>
0.0000

> <Gold.PLP.ligand.clash>
0.0000

> <Gold.PLP.ligand.torsion>
0.5105

> <Gold.PLP.Chemscore.Hbond>
2.7360

> <Gold.PLP.Chemscore.CHOScore>
1.0000

> <Gold.PLP.Chemscore.Metal>
0.0000

> <Gold.Chemscore.Hbonds>
donor molecule, donor type, donor heavy atom, donor atom, acceptor molecule, acceptor atom, score
      L1  H     9    26       P1  7957  1.00
      P1  H  6896  6909       L1     1  0.96
      P1  H  7989  7998       L1     9  0.61
      L1  C    20    35       P1  7948  1.00

> <Gold.PLP.Chemscore.Internal.Correction>
0.2619

> <Gold.Rescore>
     Score         DG    S(hbond)    S(metal)    S(lipo)     H(rot)  DE(clash)    DE(int)     intcor
     16.53     -18.28       1.95        0.00     116.10       2.85       0.07       1.68       ----

> <Gold.Chemscore.Fitness>
16.5330

> <Gold.Chemscore.DG>
-18.2782

> <Gold.Chemscore.ZeroCoef>
-5.4800

> <Gold.Chemscore.Hbond>
1.9523

> <Gold.Chemscore.Metal>
0.0000

> <Gold.Chemscore.Lipo>
116.1043

> <Gold.Chemscore.Internal_Hbond>
0.0000

> <Gold.Chemscore.DEClash>
0.0673

> <Gold.Chemscore.DEInternal>
1.6780

> <Gold.Chemscore.Rot>
2.8542

> <Gold.Chemscore.Internal.Correction>
   9.000000E+99

> <Gold.Chemscore.Hbonds>
donor molecule, donor type, donor heavy atom, donor atom, acceptor molecule, acceptor atom, score
      L1  H     9    26       P1  7957  1.00
      P1  H  6896  6909       L1     1  0.92
      P1  H  7989  7998       L1     9  0.07

> <Gold.Chemscore.Hbond.Weighted>
-6.5207

> <Gold.Chemscore.Metal.Weighted>
-0.0000

> <Gold.Chemscore.Lipo.Weighted>
-13.5842

> <Gold.Chemscore.Internal_Hbond.Weighted>
0.0000

> <Gold.Chemscore.DEClash.Weighted>
0.0673

> <Gold.Chemscore.DEInternal.Weighted>
1.6780

> <Gold.Chemscore.Rot.Weighted>
7.3067

> <Gold.Chemscore.Internal.Correction.Weighted>
   9.000000E+99

> <Gold.Protein.RotatedTorsions>
[ 6907 6896 6895 6894 ] final   -4.55 input  -60.11 | X-H torsion
[ 7974 7965 7964 7962 ] final   31.05 input  175.53 | X-H torsion
[ 8008 7997 7996 7995 ] final  -96.89 input   59.86 | X-H torsion
[ 10167 10162 10161 10158 ] final -121.25 input  -65.29 | X-H torsion
[ 10718 10713 10712 10709 ] final -127.25 input   66.30 | X-H torsion
[ 10763 10752 10751 10750 ] final -148.86 input  -60.55 | X-H torsion
[ 11005 11000 10999 10996 ] final -123.15 input  -57.11 | X-H torsion

> <Gold.Protein.ActiveResidues>
 VAL166  LYS551  ARG553  GLY616  TRP617  ASP618  TYR619  PRO620  LYS621  CYS622 
 ASP623  PHE694  ASN695  SER759  ASP760  ASP761  ALA762  ILE779  LEU786  VAL792 
 PHE793  MET794  SER795  GLU796  ALA797  LYS798  CYS799  TRP800  GLU811  SER814 

> <Gold.Protein.RotatedAtoms>
  151.4958  135.1059  159.9815 H   0  0  0  0  0  0  0  0  0  0  0  0  # atno 6907 bound_to 6896
  152.4722  133.8052  159.6984 H   0  0  0  0  0  0  0  0  0  0  0  0  # atno 6908 bound_to 6896
  150.8738  133.7405  159.2979 H   0  0  0  0  0  0  0  0  0  0  0  0  # atno 6909 bound_to 6896
  146.1574  139.6707  142.9057 H   0  0  0  0  0  0  0  0  0  0  0  0  # atno 7974 bound_to 7965
  154.7805  140.0467  157.1123 H   0  0  0  0  0  0  0  0  0  0  0  0  # atno 8008 bound_to 7997
  154.9711  140.3089  155.4968 H   0  0  0  0  0  0  0  0  0  0  0  0  # atno 8009 bound_to 7997
  156.2935  140.2253  156.4803 H   0  0  0  0  0  0  0  0  0  0  0  0  # atno 8010 bound_to 7997
  140.0270  143.5286  152.2194 H   0  0  0  0  0  0  0  0  0  0  0  0  # atno 10167 bound_to 10162
  156.1839  130.6751  151.0340 H   0  0  0  0  0  0  0  0  0  0  0  0  # atno 10718 bound_to 10713
  154.8209  135.3323  154.7040 H   0  0  0  0  0  0  0  0  0  0  0  0  # atno 10763 bound_to 10752
  153.7673  135.6928  153.4918 H   0  0  0  0  0  0  0  0  0  0  0  0  # atno 10764 bound_to 10752
  153.2069  135.4496  155.0282 H   0  0  0  0  0  0  0  0  0  0  0  0  # atno 10765 bound_to 10752
  140.9941  134.0497  157.3619 H   0  0  0  0  0  0  0  0  0  0  0  0  # atno 11005 bound_to 11000
  145.4674  141.0435  143.2717 LP  0  0  0  0  0  0  0  0  0  0  0  0  # atno 17320 bound_to 7965
  144.7981  139.6194  143.7083 LP  0  0  0  0  0  0  0  0  0  0  0  0  # atno 17321 bound_to 7965
  139.6101  144.7606  151.2971 LP  0  0  0  0  0  0  0  0  0  0  0  0  # atno 17342 bound_to 10162
  140.7318  143.6841  150.7977 LP  0  0  0  0  0  0  0  0  0  0  0  0  # atno 17343 bound_to 10162
  157.6886  131.0817  150.7171 LP  0  0  0  0  0  0  0  0  0  0  0  0  # atno 17370 bound_to 10713
  156.7228  130.4686  149.5518 LP  0  0  0  0  0  0  0  0  0  0  0  0  # atno 17371 bound_to 10713
  139.9006  135.0163  156.7250 LP  0  0  0  0  0  0  0  0  0  0  0  0  # atno 17394 bound_to 11000
  140.6994  133.9320  155.8015 LP  0  0  0  0  0  0  0  0  0  0  0  0  # atno 17395 bound_to 11000

$$$$
