AV-unprocessed.smi:2622|AV-procd|sdf|10228|dock6
  -GOLD-   2272014233D 1   1.00000     0.00000
 Structure written by MMmdl.
 27 28  0  0  0  0  0  0  0  0  3 V2000
  151.3620  139.6152  158.3635 O   0  0  0  0  0  0  0  0  0  0  0  0
  152.3155  140.4162  158.4831 C   0  0  0  0  0  0  0  0  0  0  0  0
  153.4756  140.0135  158.7196 O   0  5  0  0  0  0  0  0  0  0  0  0
  152.0334  141.8964  158.3345 C   0  0  0  0  0  0  0  0  0  0  0  0
  152.8975  142.8225  158.9726 C   0  0  0  0  0  0  0  0  0  0  0  0
  152.6713  144.2081  158.8599 C   0  0  0  0  0  0  0  0  0  0  0  0
  151.5760  144.6599  158.1051 C   0  0  0  0  0  0  0  0  0  0  0  0
  150.7661  143.7645  157.5059 N   0  3  0  0  0  0  0  0  0  0  0  0
  150.9379  142.4204  157.5818 C   0  0  0  0  0  0  0  0  0  0  0  0
  150.0025  141.6242  156.9006 N   0  0  0  0  0  0  0  0  0  0  0  0
  148.6320  141.7847  157.3664 C   0  0  0  0  0  0  0  0  0  0  0  0
  147.7257  140.7463  156.6839 C   0  0  0  0  0  0  0  0  0  0  0  0
  147.8459  140.8654  155.2686 O   0  0  0  0  0  0  0  0  0  0  0  0
  149.1777  140.6242  154.8222 C   0  0  0  0  0  0  0  0  0  0  0  0
  150.1257  141.6600  155.4497 C   0  0  0  0  0  0  0  0  0  0  0  0
  153.7420  142.4835  159.5549 H   0  0  0  0  0  0  0  0  0  0  0  0
  153.3305  144.9116  159.3469 H   0  0  0  0  0  0  0  0  0  0  0  0
  151.3236  145.7004  157.9628 H   0  0  0  0  0  0  0  0  0  0  0  0
  148.5933  141.6632  158.4496 H   0  0  0  0  0  0  0  0  0  0  0  0
  148.2801  142.7919  157.1396 H   0  0  0  0  0  0  0  0  0  0  0  0
  147.9889  139.7348  156.9979 H   0  0  0  0  0  0  0  0  0  0  0  0
  146.6863  140.9088  156.9688 H   0  0  0  0  0  0  0  0  0  0  0  0
  149.4822  139.6094  155.0846 H   0  0  0  0  0  0  0  0  0  0  0  0
  149.2084  140.6957  153.7351 H   0  0  0  0  0  0  0  0  0  0  0  0
  149.8821  142.6575  155.0818 H   0  0  0  0  0  0  0  0  0  0  0  0
  151.1564  141.4497  155.1615 H   0  0  0  0  0  0  0  0  0  0  0  0
  149.9774  144.1177  156.9640 H   0  0  0  0  0  0  0  0  0  0  0  0
  1  2  2  0  0  0  0
  2  3  1  0  0  0  0
  2  4  1  0  0  0  0
  4  9  1  0  0  0  0
  4  5  2  0  0  0  0
  5  6  1  0  0  0  0
  5 16  1  0  0  0  0
  6  7  2  0  0  0  0
  6 17  1  0  0  0  0
  7  8  1  0  0  0  0
  7 18  1  0  0  0  0
  8  9  2  0  0  0  0
  8 27  1  0  0  0  0
  9 10  1  0  0  0  0
 10 15  1  0  0  0  0
 10 11  1  0  0  0  0
 11 12  1  0  0  0  0
 11 19  1  0  0  0  0
 11 20  1  0  0  0  0
 12 13  1  0  0  0  0
 12 21  1  0  0  0  0
 12 22  1  0  0  0  0
 13 14  1  0  0  0  0
 14 15  1  0  0  0  0
 14 23  1  0  0  0  0
 14 24  1  0  0  0  0
 15 25  1  0  0  0  0
 15 26  1  0  0  0  0
M  CHG  1   3  -1
M  CHG  1   8   1
M  END
> <s_m_source_file>
AV-unprocessed.smi

> <i_m_source_file_index>
2622

> <i_lp_mmshare_version>
43012

> <i_f3d_flags>
0

> <s_epik_input>
Tz1DKFtPSF0pYzFbY0hdW2NIXVtjSF1uYzFOMltDSDJdW0NIMl1PW0NIMl1bQ0gyXTI=

> <s_epik_cmdline>
J2VwaWtfcHl0aG9uJywgJy1waCcsICc3LjAnLCAnLXRuJywgJzgnLCAnLW1hJywgJzIwMCcsICctbWV0YWxfYmluZGluZycsICctaW1hZScsICc8aW5maWxlLm1hZT4nLCAnLW9tYWUnLCAnPG91dGZpbGUubWFlPic=

> <r_epik_Ionization_Penalty>
2.51472

> <r_epik_Ionization_Penalty_Charging>
2.51472

> <r_epik_Ionization_Penalty_Neutral>
3.20239e-12

> <r_epik_State_Penalty>
2.68069

> <r_epik_Charging_Adjusted_Penalty>
5.19542

> <i_epik_Tot_Q>
0

> <i_epik_Tot_abs_Q>
2

> <r_epik_Metal_State_Penalty>
6.76699

> <b_epik_Metal_Only>
0

> <s_lp_Force_Field>
OPLS_2005

> <r_lp_Energy>
23.1971

> <b_lp_Chiralities_Consistent>
1

> <s_lp_Variant>
AV-unprocessed.smi:2622-2

> <Gold.Version>
5.8.1

> <Gold.Id.Protein>
6NUR|6NUR_protein|mol2

> <Gold.PLP.Fitness>
39.3467

> <Gold.PLP.PLP>
-27.9835

> <Gold.PLP.part.hbond>
-2.0000

> <Gold.PLP.part.metal>
0.0000

> <Gold.PLP.part.buried>
-3.8579

> <Gold.PLP.part.nonpolar>
-21.5528

> <Gold.PLP.part.repulsive>
0.1717

> <Gold.PLP.ligand.clash>
0.0000

> <Gold.PLP.ligand.torsion>
0.3993

> <Gold.PLP.Chemscore.Hbond>
4.0000

> <Gold.PLP.Chemscore.CHOScore>
0.0000

> <Gold.PLP.Chemscore.Metal>
0.0000

> <Gold.Chemscore.Hbonds>
donor molecule, donor type, donor heavy atom, donor atom, acceptor molecule, acceptor atom, score
      L1  H     8    27       P1  8028  2.00
      P1  H  7997  8008       L1     3  2.00

> <Gold.PLP.Chemscore.Internal.Correction>
0.1618

> <Gold.Rescore>
     Score         DG    S(hbond)    S(metal)    S(lipo)     H(rot)  DE(clash)    DE(int)     intcor
     15.51     -17.43       1.93        0.00      68.96       1.00       0.14       1.79       ----

> <Gold.Chemscore.Fitness>
15.5065

> <Gold.Chemscore.DG>
-17.4328

> <Gold.Chemscore.ZeroCoef>
-5.4800

> <Gold.Chemscore.Hbond>
1.9295

> <Gold.Chemscore.Metal>
0.0000

> <Gold.Chemscore.Lipo>
68.9601

> <Gold.Chemscore.Internal_Hbond>
0.0000

> <Gold.Chemscore.DEClash>
0.1376

> <Gold.Chemscore.DEInternal>
1.7888

> <Gold.Chemscore.Rot>
1.0000

> <Gold.Chemscore.Internal.Correction>
   9.000000E+99

> <Gold.Chemscore.Hbonds>
donor molecule, donor type, donor heavy atom, donor atom, acceptor molecule, acceptor atom, score
      L1  H     8    27       P1  8028  0.91
      P1  H  7997  8008       L1     3  0.87

> <Gold.Chemscore.Hbond.Weighted>
-6.4445

> <Gold.Chemscore.Metal.Weighted>
-0.0000

> <Gold.Chemscore.Lipo.Weighted>
-8.0683

> <Gold.Chemscore.Internal_Hbond.Weighted>
0.0000

> <Gold.Chemscore.DEClash.Weighted>
0.1376

> <Gold.Chemscore.DEInternal.Weighted>
1.7888

> <Gold.Chemscore.Rot.Weighted>
2.5600

> <Gold.Chemscore.Internal.Correction.Weighted>
   9.000000E+99

> <Gold.Protein.RotatedTorsions>
[ 6907 6896 6895 6894 ] final   52.63 input  -60.11 | X-H torsion
[ 7974 7965 7964 7962 ] final  -62.25 input  175.53 | X-H torsion
[ 8008 7997 7996 7995 ] final -103.07 input   59.86 | X-H torsion
[ 10167 10162 10161 10158 ] final   88.25 input  -65.29 | X-H torsion
[ 10718 10713 10712 10709 ] final  -63.00 input   66.30 | X-H torsion
[ 10763 10752 10751 10750 ] final  176.00 input  -60.55 | X-H torsion
[ 11005 11000 10999 10996 ] final -135.10 input  -57.11 | X-H torsion

> <Gold.Protein.ActiveResidues>
 VAL166  LYS551  ARG553  GLY616  TRP617  ASP618  TYR619  PRO620  LYS621  CYS622 
 ASP623  PHE694  ASN695  SER759  ASP760  ASP761  ALA762  ILE779  LEU786  VAL792 
 PHE793  MET794  SER795  GLU796  ALA797  LYS798  CYS799  TRP800  GLU811  SER814 

> <Gold.Protein.RotatedAtoms>
  152.3253  134.7329  160.0303 H   0  0  0  0  0  0  0  0  0  0  0  0  # atno 6907 bound_to 6896
  151.7764  133.3340  159.3467 H   0  0  0  0  0  0  0  0  0  0  0  0  # atno 6908 bound_to 6896
  150.7392  134.5903  159.6028 H   0  0  0  0  0  0  0  0  0  0  0  0  # atno 6909 bound_to 6896
  145.7936  140.8695  143.0268 H   0  0  0  0  0  0  0  0  0  0  0  0  # atno 7974 bound_to 7965
  154.8657  140.0425  157.1693 H   0  0  0  0  0  0  0  0  0  0  0  0  # atno 8008 bound_to 7997
  154.8792  140.2970  155.5414 H   0  0  0  0  0  0  0  0  0  0  0  0  # atno 8009 bound_to 7997
  156.2999  140.2414  156.3793 H   0  0  0  0  0  0  0  0  0  0  0  0  # atno 8010 bound_to 7997
  139.8691  144.6502  150.8969 H   0  0  0  0  0  0  0  0  0  0  0  0  # atno 10167 bound_to 10162
  156.0819  130.4215  150.1215 H   0  0  0  0  0  0  0  0  0  0  0  0  # atno 10718 bound_to 10713
  154.4752  135.2772  155.1613 H   0  0  0  0  0  0  0  0  0  0  0  0  # atno 10763 bound_to 10752
  154.3345  135.6183  153.5571 H   0  0  0  0  0  0  0  0  0  0  0  0  # atno 10764 bound_to 10752
  152.9868  135.5773  154.5141 H   0  0  0  0  0  0  0  0  0  0  0  0  # atno 10765 bound_to 10752
  140.8929  134.1788  157.4515 H   0  0  0  0  0  0  0  0  0  0  0  0  # atno 11005 bound_to 11000
  144.6778  140.0159  143.7484 LP  0  0  0  0  0  0  0  0  0  0  0  0  # atno 17320 bound_to 7965
  145.9951  139.3046  143.0961 LP  0  0  0  0  0  0  0  0  0  0  0  0  # atno 17321 bound_to 7965
  140.7763  143.3678  151.1705 LP  0  0  0  0  0  0  0  0  0  0  0  0  # atno 17342 bound_to 10162
  139.7300  143.9087  152.3016 LP  0  0  0  0  0  0  0  0  0  0  0  0  # atno 17343 bound_to 10162
  156.9245  130.9693  151.3543 LP  0  0  0  0  0  0  0  0  0  0  0  0  # atno 17370 bound_to 10713
  157.5938  130.8463  149.8699 LP  0  0  0  0  0  0  0  0  0  0  0  0  # atno 17371 bound_to 10713
  139.8732  134.9866  156.5332 LP  0  0  0  0  0  0  0  0  0  0  0  0  # atno 17394 bound_to 11000
  140.8324  133.8268  155.8997 LP  0  0  0  0  0  0  0  0  0  0  0  0  # atno 17395 bound_to 11000

$$$$
