AV-unprocessed.smi:2459|AV-procd|sdf|9713|dock3
  -GOLD-   2272013353D 1   1.00000     0.00000
 Structure written by MMmdl.
 46 47  0  0  0  0  0  0  0  0  1 V2000
  150.0879  143.9370  159.7094 C   0  0  0  0  0  0  0  0  0  0  0  0
  151.0074  144.6784  158.9093 O   0  0  0  0  0  0  0  0  0  0  0  0
  152.1174  143.9773  158.3289 C   0  0  0  0  0  0  0  0  0  0  0  0
  152.8782  144.8883  157.3364 C   0  0  0  0  0  0  0  0  0  0  0  0
  153.0442  143.6243  159.5056 C   0  0  0  0  0  0  0  0  0  0  0  0
  151.6453  142.6671  157.6558 C   0  0  0  0  0  0  0  0  0  0  0  0
  152.1687  141.5979  157.9692 O   0  0  0  0  0  0  0  0  0  0  0  0
  150.6643  142.7889  156.7404 N   0  0  0  0  0  0  0  0  0  0  0  0
  150.0467  141.7840  155.9478 C   0  0  0  0  0  0  0  0  0  0  0  0
  148.6497  141.8505  155.7769 C   0  0  0  0  0  0  0  0  0  0  0  0
  147.9410  140.9571  155.0570 N   0  0  0  0  0  0  0  0  0  0  0  0
  148.6017  139.9314  154.4700 C   0  0  0  0  0  0  0  0  0  0  0  0
  147.8449  139.0184  153.7192 N   0  0  0  0  0  0  0  0  0  0  0  0
  147.0247  139.6550  152.6918 C   0  0  0  0  0  0  0  0  0  0  0  0
  146.4021  138.6006  151.7610 C   0  0  0  0  0  0  0  0  0  0  0  0
  145.6234  137.5482  152.5672 C   0  0  0  0  0  0  0  0  0  0  0  0
  146.5241  136.9346  153.6517 C   0  0  0  0  0  0  0  0  0  0  0  0
  147.1442  138.0303  154.5355 C   0  0  0  0  0  0  0  0  0  0  0  0
  150.0017  139.7606  154.5915 C   0  0  0  0  0  0  0  0  0  0  0  0
  150.7176  138.5949  153.9317 C   0  0  0  0  0  0  0  0  0  0  0  0
  150.7320  140.7014  155.3476 C   0  0  0  0  0  0  0  0  0  0  0  0
  149.3814  144.6274  160.1693 H   0  0  0  0  0  0  0  0  0  0  0  0
  150.5754  143.3848  160.5128 H   0  0  0  0  0  0  0  0  0  0  0  0
  149.5083  143.2367  159.1081 H   0  0  0  0  0  0  0  0  0  0  0  0
  153.8243  144.4403  157.0298 H   0  0  0  0  0  0  0  0  0  0  0  0
  153.1092  145.8531  157.7890 H   0  0  0  0  0  0  0  0  0  0  0  0
  152.3047  145.0771  156.4282 H   0  0  0  0  0  0  0  0  0  0  0  0
  153.9342  143.0903  159.1695 H   0  0  0  0  0  0  0  0  0  0  0  0
  152.5383  142.9952  160.2392 H   0  0  0  0  0  0  0  0  0  0  0  0
  153.3773  144.5238  160.0242 H   0  0  0  0  0  0  0  0  0  0  0  0
  150.3760  143.7358  156.5387 H   0  0  0  0  0  0  0  0  0  0  0  0
  148.0797  142.6502  156.2271 H   0  0  0  0  0  0  0  0  0  0  0  0
  146.2366  140.2413  153.1668 H   0  0  0  0  0  0  0  0  0  0  0  0
  147.6347  140.3489  152.1118 H   0  0  0  0  0  0  0  0  0  0  0  0
  145.7438  139.0825  151.0377 H   0  0  0  0  0  0  0  0  0  0  0  0
  147.1899  138.1116  151.1864 H   0  0  0  0  0  0  0  0  0  0  0  0
  144.7543  138.0139  153.0334 H   0  0  0  0  0  0  0  0  0  0  0  0
  145.2442  136.7693  151.9052 H   0  0  0  0  0  0  0  0  0  0  0  0
  145.9521  136.2385  154.2655 H   0  0  0  0  0  0  0  0  0  0  0  0
  147.3186  136.3537  153.1813 H   0  0  0  0  0  0  0  0  0  0  0  0
  147.8386  137.5838  155.2485 H   0  0  0  0  0  0  0  0  0  0  0  0
  146.3629  138.5239  155.1155 H   0  0  0  0  0  0  0  0  0  0  0  0
  151.7890  138.6205  154.1319 H   0  0  0  0  0  0  0  0  0  0  0  0
  150.5751  138.6250  152.8511 H   0  0  0  0  0  0  0  0  0  0  0  0
  150.3259  137.6481  154.3046 H   0  0  0  0  0  0  0  0  0  0  0  0
  151.7963  140.5686  155.4625 H   0  0  0  0  0  0  0  0  0  0  0  0
  1  2  1  0  0  0  0
  1 22  1  0  0  0  0
  1 23  1  0  0  0  0
  1 24  1  0  0  0  0
  2  3  1  0  0  0  0
  3  4  1  0  0  0  0
  3  5  1  0  0  0  0
  3  6  1  0  0  0  0
  4 25  1  0  0  0  0
  4 26  1  0  0  0  0
  4 27  1  0  0  0  0
  5 28  1  0  0  0  0
  5 29  1  0  0  0  0
  5 30  1  0  0  0  0
  6  7  2  0  0  0  0
  6  8  1  0  0  0  0
  8  9  1  0  0  0  0
  8 31  1  0  0  0  0
  9 21  1  0  0  0  0
  9 10  2  0  0  0  0
 10 11  1  0  0  0  0
 10 32  1  0  0  0  0
 11 12  2  0  0  0  0
 12 13  1  0  0  0  0
 12 19  1  0  0  0  0
 13 18  1  0  0  0  0
 13 14  1  0  0  0  0
 14 15  1  0  0  0  0
 14 33  1  0  0  0  0
 14 34  1  0  0  0  0
 15 16  1  0  0  0  0
 15 35  1  0  0  0  0
 15 36  1  0  0  0  0
 16 17  1  0  0  0  0
 16 37  1  0  0  0  0
 16 38  1  0  0  0  0
 17 18  1  0  0  0  0
 17 39  1  0  0  0  0
 17 40  1  0  0  0  0
 18 41  1  0  0  0  0
 18 42  1  0  0  0  0
 19 20  1  0  0  0  0
 19 21  2  0  0  0  0
 20 43  1  0  0  0  0
 20 44  1  0  0  0  0
 20 45  1  0  0  0  0
 21 46  1  0  0  0  0
M  END
> <s_m_source_file>
AV-unprocessed.smi

> <i_m_source_file_index>
2459

> <i_lp_mmshare_version>
43012

> <i_f3d_flags>
0

> <s_epik_input>
W0NIM11PQyhbQ0gzXSkoW0NIM10pQyg9TylbTkhdYzFbY0hdbmMoYyhbQ0gzXSlbY0hdMSlOMltDSDJdW0NIMl1bQ0gyXVtDSDJdW0NIMl0y

> <s_epik_cmdline>
J2VwaWtfcHl0aG9uJywgJy1waCcsICc3LjAnLCAnLXRuJywgJzgnLCAnLW1hJywgJzIwMCcsICctbWV0YWxfYmluZGluZycsICctaW1hZScsICc8aW5maWxlLm1hZT4nLCAnLW9tYWUnLCAnPG91dGZpbGUubWFlPic=

> <r_lp_tautomer_probability>
1

> <r_epik_Ionization_Penalty>
0.0966188

> <r_epik_Ionization_Penalty_Charging>
0

> <r_epik_Ionization_Penalty_Neutral>
0.0966188

> <r_epik_State_Penalty>
1.07001

> <r_epik_Charging_Adjusted_Penalty>
1.07001

> <i_epik_Tot_Q>
0

> <i_epik_Tot_abs_Q>
0

> <r_epik_Metal_State_Penalty>
1.00145

> <b_epik_Metal_Only>
0

> <s_lp_Force_Field>
OPLS_2005

> <r_lp_Energy>
29.1962

> <b_lp_Chiralities_Consistent>
1

> <s_lp_Variant>
AV-unprocessed.smi:2459-2

> <Gold.Version>
5.8.1

> <Gold.Id.Protein>
6NUR|6NUR_protein|mol2

> <Gold.PLP.Fitness>
39.1624

> <Gold.PLP.PLP>
-35.8511

> <Gold.PLP.part.hbond>
-1.0000

> <Gold.PLP.part.metal>
0.0000

> <Gold.PLP.part.buried>
-0.2765

> <Gold.PLP.part.nonpolar>
-35.4852

> <Gold.PLP.part.repulsive>
0.4860

> <Gold.PLP.ligand.clash>
0.0000

> <Gold.PLP.ligand.torsion>
0.9220

> <Gold.PLP.Chemscore.Hbond>
0.8000

> <Gold.PLP.Chemscore.CHOScore>
0.8494

> <Gold.PLP.Chemscore.Metal>
0.0000

> <Gold.Chemscore.Hbonds>
donor molecule, donor type, donor heavy atom, donor atom, acceptor molecule, acceptor atom, score
      L1  H     8    31       P1  8028  0.82
      L1  C    10    32       P1  8028  0.66

> <Gold.PLP.Chemscore.Internal.Correction>
0.2072

> <Gold.Rescore>
     Score         DG    S(hbond)    S(metal)    S(lipo)     H(rot)  DE(clash)    DE(int)     intcor
     14.44     -17.95       0.91        0.00     109.51       1.32       2.84       0.67       ----

> <Gold.Chemscore.Fitness>
14.4386

> <Gold.Chemscore.DG>
-17.9512

> <Gold.Chemscore.ZeroCoef>
-5.4800

> <Gold.Chemscore.Hbond>
0.9088

> <Gold.Chemscore.Metal>
0.0000

> <Gold.Chemscore.Lipo>
109.5053

> <Gold.Chemscore.Internal_Hbond>
0.0000

> <Gold.Chemscore.DEClash>
2.8423

> <Gold.Chemscore.DEInternal>
0.6703

> <Gold.Chemscore.Rot>
1.3189

> <Gold.Chemscore.Internal.Correction>
   9.000000E+99

> <Gold.Chemscore.Hbonds>
donor molecule, donor type, donor heavy atom, donor atom, acceptor molecule, acceptor atom, score
      L1  H     8    31       P1  8028  0.80

> <Gold.Chemscore.Hbond.Weighted>
-3.0355

> <Gold.Chemscore.Metal.Weighted>
-0.0000

> <Gold.Chemscore.Lipo.Weighted>
-12.8121

> <Gold.Chemscore.Internal_Hbond.Weighted>
0.0000

> <Gold.Chemscore.DEClash.Weighted>
2.8423

> <Gold.Chemscore.DEInternal.Weighted>
0.6703

> <Gold.Chemscore.Rot.Weighted>
3.3764

> <Gold.Chemscore.Internal.Correction.Weighted>
   9.000000E+99

> <Gold.Protein.RotatedTorsions>
[ 6907 6896 6895 6894 ] final -176.37 input  -60.11 | X-H torsion
[ 7974 7965 7964 7962 ] final  -95.53 input  175.53 | X-H torsion
[ 8008 7997 7996 7995 ] final  -22.48 input   59.86 | X-H torsion
[ 10167 10162 10161 10158 ] final -139.57 input  -65.29 | X-H torsion
[ 10718 10713 10712 10709 ] final  -76.31 input   66.30 | X-H torsion
[ 10763 10752 10751 10750 ] final   77.52 input  -60.55 | X-H torsion
[ 11005 11000 10999 10996 ] final   -0.48 input  -57.11 | X-H torsion

> <Gold.Protein.ActiveResidues>
 VAL166  LYS551  ARG553  GLY616  TRP617  ASP618  TYR619  PRO620  LYS621  CYS622 
 ASP623  PHE694  ASN695  SER759  ASP760  ASP761  ALA762  ILE779  LEU786  VAL792 
 PHE793  MET794  SER795  GLU796  ALA797  LYS798  CYS799  TRP800  GLU811  SER814 

> <Gold.Protein.RotatedAtoms>
  151.6037  133.3354  159.3052 H   0  0  0  0  0  0  0  0  0  0  0  0  # atno 6907 bound_to 6896
  150.8194  134.7396  159.6770 H   0  0  0  0  0  0  0  0  0  0  0  0  # atno 6908 bound_to 6896
  152.4288  134.5823  160.0003 H   0  0  0  0  0  0  0  0  0  0  0  0  # atno 6909 bound_to 6896
  145.3589  140.9488  143.2512 H   0  0  0  0  0  0  0  0  0  0  0  0  # atno 7974 bound_to 7965
  154.4642  140.2006  156.0164 H   0  0  0  0  0  0  0  0  0  0  0  0  # atno 8008 bound_to 7997
  156.0895  140.3260  155.7769 H   0  0  0  0  0  0  0  0  0  0  0  0  # atno 8009 bound_to 7997
  155.4979  140.0551  157.2934 H   0  0  0  0  0  0  0  0  0  0  0  0  # atno 8010 bound_to 7997
  139.8367  143.7376  152.2664 H   0  0  0  0  0  0  0  0  0  0  0  0  # atno 10167 bound_to 10162
  156.0179  130.4462  150.3175 H   0  0  0  0  0  0  0  0  0  0  0  0  # atno 10718 bound_to 10713
  153.0804  135.4911  154.8492 H   0  0  0  0  0  0  0  0  0  0  0  0  # atno 10763 bound_to 10752
  154.7144  135.3026  154.9150 H   0  0  0  0  0  0  0  0  0  0  0  0  # atno 10764 bound_to 10752
  153.9833  135.6787  153.4804 H   0  0  0  0  0  0  0  0  0  0  0  0  # atno 10765 bound_to 10752
  140.6368  133.9525  155.8304 H   0  0  0  0  0  0  0  0  0  0  0  0  # atno 11005 bound_to 11000
  144.8661  139.5105  143.6789 LP  0  0  0  0  0  0  0  0  0  0  0  0  # atno 17320 bound_to 7965
  146.2936  139.7211  142.9143 LP  0  0  0  0  0  0  0  0  0  0  0  0  # atno 17321 bound_to 7965
  139.7600  144.7509  151.0378 LP  0  0  0  0  0  0  0  0  0  0  0  0  # atno 17342 bound_to 10162
  140.7802  143.4762  151.0080 LP  0  0  0  0  0  0  0  0  0  0  0  0  # atno 17343 bound_to 10162
  157.1276  131.0263  151.2983 LP  0  0  0  0  0  0  0  0  0  0  0  0  # atno 17370 bound_to 10713
  157.4577  130.7635  149.7208 LP  0  0  0  0  0  0  0  0  0  0  0  0  # atno 17371 bound_to 10713
  141.0636  134.0310  157.3625 LP  0  0  0  0  0  0  0  0  0  0  0  0  # atno 17394 bound_to 11000
  139.9095  135.0187  156.7631 LP  0  0  0  0  0  0  0  0  0  0  0  0  # atno 17395 bound_to 11000

$$$$
