AV-unprocessed.smi:53|AV-procd|sdf|526|dock6
  -GOLD-   2262016403D 1   1.00000     0.00000
 Structure written by MMmdl.
 30 31  0  0  0  0  0  0  0  0  1 V2000
  153.0765  138.2173  161.4156 N   0  0  0  0  0  0  0  0  0  0  0  0
  152.4288  138.1753  160.2425 C   0  0  0  0  0  0  0  0  0  0  0  0
  151.6147  139.2917  159.8182 C   0  0  0  0  0  0  0  0  0  0  0  0
  150.9920  139.1758  158.6245 C   0  0  0  0  0  0  0  0  0  0  0  0
  151.1184  138.0423  157.8309 N   0  0  0  0  0  0  0  0  0  0  0  0
  150.4129  137.9056  156.4925 C   0  0  1  0  0  0  0  0  0  0  0  0
  149.5969  139.0193  156.2711 O   0  0  0  0  0  0  0  0  0  0  0  0
  150.1648  139.8516  155.2645 C   0  0  2  0  0  0  0  0  0  0  0  0
  149.0985  140.7536  154.6196 C   0  0  0  0  0  0  0  0  0  0  0  0
  149.4803  141.0896  153.3027 O   0  0  0  0  0  0  0  0  0  0  0  0
  150.8354  138.8415  154.3260 C   0  0  2  0  0  0  0  0  0  0  0  0
  149.8918  138.2514  153.4494 O   0  0  0  0  0  0  0  0  0  0  0  0
  151.3888  137.8031  155.2930 C   0  0  1  0  0  0  0  0  0  0  0  0
  152.7312  138.1257  155.6155 O   0  0  0  0  0  0  0  0  0  0  0  0
  151.9252  136.9668  158.2742 C   0  0  0  0  0  0  0  0  0  0  0  0
  152.0745  135.9504  157.5968 O   0  0  0  0  0  0  0  0  0  0  0  0
  152.5480  137.1016  159.4861 N   0  0  0  0  0  0  0  0  0  0  0  0
  149.7565  137.0387  156.5911 H   0  0  0  0  0  0  0  0  0  0  0  0
  150.9508  140.4648  155.7091 H   0  0  0  0  0  0  0  0  0  0  0  0
  151.6132  139.3058  153.7178 H   0  0  0  0  0  0  0  0  0  0  0  0
  151.3663  136.7929  154.8818 H   0  0  0  0  0  0  0  0  0  0  0  0
  153.6445  137.4359  161.7090 H   0  0  0  0  0  0  0  0  0  0  0  0
  152.9952  139.0338  162.0043 H   0  0  0  0  0  0  0  0  0  0  0  0
  151.4874  140.1908  160.4042 H   0  0  0  0  0  0  0  0  0  0  0  0
  150.3823  140.0069  158.3051 H   0  0  0  0  0  0  0  0  0  0  0  0
  148.1474  140.2240  154.5573 H   0  0  0  0  0  0  0  0  0  0  0  0
  148.9322  141.6576  155.2065 H   0  0  0  0  0  0  0  0  0  0  0  0
  149.3763  140.3264  152.7550 H   0  0  0  0  0  0  0  0  0  0  0  0
  149.7137  138.8575  152.7468 H   0  0  0  0  0  0  0  0  0  0  0  0
  152.7994  139.0658  155.6894 H   0  0  0  0  0  0  0  0  0  0  0  0
  1  2  1  0  0  0  0
  1 22  1  0  0  0  0
  1 23  1  0  0  0  0
  2 17  2  0  0  0  0
  2  3  1  0  0  0  0
  3  4  2  0  0  0  0
  3 24  1  0  0  0  0
  4  5  1  0  0  0  0
  4 25  1  0  0  0  0
  5  6  1  0  0  0  0
  5 15  1  0  0  0  0
  6 18  1  0  0  0  0
  6 13  1  0  0  0  0
  6  7  1  0  0  0  0
  7  8  1  0  0  0  0
  8 19  1  0  0  0  0
  8  9  1  0  0  0  0
  8 11  1  0  0  0  0
  9 10  1  0  0  0  0
  9 26  1  0  0  0  0
  9 27  1  0  0  0  0
 10 28  1  0  0  0  0
 11 20  1  0  0  0  0
 11 12  1  0  0  0  0
 11 13  1  0  0  0  0
 12 29  1  0  0  0  0
 13 21  1  0  0  0  0
 13 14  1  0  0  0  0
 14 30  1  0  0  0  0
 15 16  2  0  0  0  0
 15 17  1  0  0  0  0
M  END
> <s_m_source_file>
AV-unprocessed.smi

> <i_m_source_file_index>
53

> <i_lp_mmshare_version>
43012

> <i_f3d_flags>
0

> <s_epik_input>
W05IMl1jMVtjSF1bY0hdbihjKD1PKW4xKVtDQEBIXTJPW0NASF0oW0NIMl1bT0hdKVtDQEBIXShbT0hdKVtDQEBIXTJbT0hd

> <s_epik_cmdline>
J2VwaWtfcHl0aG9uJywgJy1waCcsICc3LjAnLCAnLXRuJywgJzgnLCAnLW1hJywgJzIwMCcsICctbWV0YWxfYmluZGluZycsICctaW1hZScsICc8aW5maWxlLm1hZT4nLCAnLW9tYWUnLCAnPG91dGZpbGUubWFlPic=

> <r_lp_tautomer_probability>
0.99996

> <r_epik_Ionization_Penalty>
0.00069087

> <r_epik_Ionization_Penalty_Charging>
2.61959e-08

> <r_epik_Ionization_Penalty_Neutral>
0.000690844

> <r_epik_State_Penalty>
1.15523e-05

> <r_epik_Charging_Adjusted_Penalty>
1.15785e-05

> <i_epik_Tot_Q>
0

> <i_epik_Tot_abs_Q>
0

> <r_epik_Metal_State_Penalty>
-0

> <b_epik_Metal_Only>
0

> <s_epik_Chemistry_Notes>
This compound contains an acetal/aminal-like group ( X-CH(R)-Y where X, Y are N, S, or O) that may be acid/base labile, releasing an aldehyde.

> <s_lp_Force_Field>
OPLS_2005

> <r_lp_Energy>
36.7572

> <b_lp_Chiralities_Consistent>
1

> <s_lp_Variant>
AV-unprocessed.smi:53-14

> <Gold.Version>
5.8.1

> <Gold.Id.Protein>
6NUR|6NUR_protein|mol2

> <Gold.PLP.Fitness>
37.2943

> <Gold.PLP.PLP>
-24.3381

> <Gold.PLP.part.hbond>
-8.3249

> <Gold.PLP.part.metal>
0.0000

> <Gold.PLP.part.buried>
-4.2293

> <Gold.PLP.part.nonpolar>
-12.8502

> <Gold.PLP.part.repulsive>
0.0444

> <Gold.PLP.ligand.clash>
0.0000

> <Gold.PLP.ligand.torsion>
0.3112

> <Gold.PLP.Chemscore.Hbond>
4.5058

> <Gold.PLP.Chemscore.CHOScore>
0.0000

> <Gold.PLP.Chemscore.Metal>
0.0000

> <Gold.Chemscore.Hbonds>
donor molecule, donor type, donor heavy atom, donor atom, acceptor molecule, acceptor atom, score
      L1  H    10    28       P1  7957  0.66
      L1  H    12    29       P1  7957  1.00
      P1  H  6896  6909       L1    17  0.30
      P1  H  7989  7998       L1    10  0.09
      P1  H  8011  8017       L1    10  1.00

> <Gold.PLP.Chemscore.Internal.Correction>
0.0610

> <Gold.Rescore>
     Score         DG    S(hbond)    S(metal)    S(lipo)     H(rot)  DE(clash)    DE(int)     intcor
      9.76     -10.39       2.96        0.00      38.67       3.71       0.12       0.50       ----

> <Gold.Chemscore.Fitness>
9.7641

> <Gold.Chemscore.DG>
-10.3851

> <Gold.Chemscore.ZeroCoef>
-5.4800

> <Gold.Chemscore.Hbond>
2.9574

> <Gold.Chemscore.Metal>
0.0000

> <Gold.Chemscore.Lipo>
38.6657

> <Gold.Chemscore.Internal_Hbond>
0.0000

> <Gold.Chemscore.DEClash>
0.1172

> <Gold.Chemscore.DEInternal>
0.5037

> <Gold.Chemscore.Rot>
3.7095

> <Gold.Chemscore.Internal.Correction>
   9.000000E+99

> <Gold.Chemscore.Hbonds>
donor molecule, donor type, donor heavy atom, donor atom, acceptor molecule, acceptor atom, score
      L1  H    10    28       P1  7957  0.66
      L1  H    12    29       P1  7957  0.81
      P1  H  6896  6909       L1    17  0.03
      P1  H  8011  8017       L1    10  0.69

> <Gold.Chemscore.Hbond.Weighted>
-9.8776

> <Gold.Chemscore.Metal.Weighted>
-0.0000

> <Gold.Chemscore.Lipo.Weighted>
-4.5239

> <Gold.Chemscore.Internal_Hbond.Weighted>
0.0000

> <Gold.Chemscore.DEClash.Weighted>
0.1172

> <Gold.Chemscore.DEInternal.Weighted>
0.5037

> <Gold.Chemscore.Rot.Weighted>
9.4964

> <Gold.Chemscore.Internal.Correction.Weighted>
   9.000000E+99

> <Gold.Protein.RotatedTorsions>
[ 6907 6896 6895 6894 ] final  156.93 input  -60.11 | X-H torsion
[ 7974 7965 7964 7962 ] final  -96.82 input  175.53 | X-H torsion
[ 8008 7997 7996 7995 ] final  -24.71 input   59.86 | X-H torsion
[ 10167 10162 10161 10158 ] final   98.86 input  -65.29 | X-H torsion
[ 10718 10713 10712 10709 ] final -161.60 input   66.30 | X-H torsion
[ 10763 10752 10751 10750 ] final -128.57 input  -60.55 | X-H torsion
[ 11005 11000 10999 10996 ] final  -14.55 input  -57.11 | X-H torsion

> <Gold.Protein.ActiveResidues>
 VAL166  LYS551  ARG553  GLY616  TRP617  ASP618  TYR619  PRO620  LYS621  CYS622 
 ASP623  PHE694  ASN695  SER759  ASP760  ASP761  ALA762  ILE779  LEU786  VAL792 
 PHE793  MET794  SER795  GLU796  ALA797  LYS798  CYS799  TRP800  GLU811  SER814 

> <Gold.Protein.RotatedAtoms>
  152.0225  133.3904  159.4263 H   0  0  0  0  0  0  0  0  0  0  0  0  # atno 6907 bound_to 6896
  150.6889  134.3610  159.4960 H   0  0  0  0  0  0  0  0  0  0  0  0  # atno 6908 bound_to 6896
  152.1386  134.9080  160.0605 H   0  0  0  0  0  0  0  0  0  0  0  0  # atno 6909 bound_to 6896
  145.3418  140.9461  143.2603 H   0  0  0  0  0  0  0  0  0  0  0  0  # atno 7974 bound_to 7965
  154.4514  140.1946  156.0507 H   0  0  0  0  0  0  0  0  0  0  0  0  # atno 8008 bound_to 7997
  156.0656  140.3291  155.7487 H   0  0  0  0  0  0  0  0  0  0  0  0  # atno 8009 bound_to 7997
  155.5343  140.0581  157.2873 H   0  0  0  0  0  0  0  0  0  0  0  0  # atno 8010 bound_to 7997
  139.7670  144.6935  151.0210 H   0  0  0  0  0  0  0  0  0  0  0  0  # atno 10167 bound_to 10162
  156.5985  130.8800  151.2908 H   0  0  0  0  0  0  0  0  0  0  0  0  # atno 10718 bound_to 10713
  154.8756  135.3924  154.3779 H   0  0  0  0  0  0  0  0  0  0  0  0  # atno 10763 bound_to 10752
  153.4530  135.7028  153.6102 H   0  0  0  0  0  0  0  0  0  0  0  0  # atno 10764 bound_to 10752
  153.4634  135.3807  155.2319 H   0  0  0  0  0  0  0  0  0  0  0  0  # atno 10765 bound_to 10752
  140.7875  133.8314  155.9349 H   0  0  0  0  0  0  0  0  0  0  0  0  # atno 11005 bound_to 11000
  144.8784  139.4938  143.6734 LP  0  0  0  0  0  0  0  0  0  0  0  0  # atno 17320 bound_to 7965
  146.3004  139.7409  142.9095 LP  0  0  0  0  0  0  0  0  0  0  0  0  # atno 17321 bound_to 7965
  140.7811  143.4631  151.0249 LP  0  0  0  0  0  0  0  0  0  0  0  0  # atno 17342 bound_to 10162
  139.8316  143.7683  152.3180 LP  0  0  0  0  0  0  0  0  0  0  0  0  # atno 17343 bound_to 10162
  157.7285  130.9658  150.1747 LP  0  0  0  0  0  0  0  0  0  0  0  0  # atno 17370 bound_to 10713
  156.2489  130.3698  149.8254 LP  0  0  0  0  0  0  0  0  0  0  0  0  # atno 17371 bound_to 10713
  140.9422  134.1886  157.4789 LP  0  0  0  0  0  0  0  0  0  0  0  0  # atno 17394 bound_to 11000
  139.8735  134.9876  156.5376 LP  0  0  0  0  0  0  0  0  0  0  0  0  # atno 17395 bound_to 11000

$$$$
