AV-unprocessed.smi:1552|AV-procd|sdf|6237|dock9
  -GOLD-   22720 6423D 1   1.00000     0.00000
 Structure written by MMmdl.
 49 50  0  0  0  0  0  0  0  0  3 V2000
  150.5855  135.2275  154.7999 C   0  0  0  0  0  0  0  0  0  0  0  0
  149.2681  134.7678  154.3043 N   0  3  0  0  0  0  0  0  0  0  0  0
  148.1621  135.3090  155.1331 C   0  0  0  0  0  0  0  0  0  0  0  0
  149.2325  133.2959  154.0312 C   0  0  1  0  0  0  0  0  0  0  0  0
  149.7966  132.4374  155.1924 C   0  0  0  0  0  0  0  0  0  0  0  0
  148.9183  132.4554  156.3560 N   0  0  0  0  0  0  0  0  0  0  0  0
  149.1002  133.1571  157.4859 C   0  0  0  0  0  0  0  0  0  0  0  0
  150.1001  133.8579  157.6328 O   0  0  0  0  0  0  0  0  0  0  0  0
  148.0571  133.0488  158.6160 C   0  0  0  0  0  0  0  0  0  0  0  0
  148.0732  134.2056  159.5255 N   0  0  0  0  0  0  0  0  0  0  0  0
  148.1851  133.9549  160.9043 C   0  0  0  0  0  0  0  0  0  0  0  0
  148.2084  134.9534  161.8078 C   0  0  0  0  0  0  0  0  0  0  0  0
  148.1133  136.3252  161.3237 C   0  0  0  0  0  0  0  0  0  0  0  0
  148.1273  137.2490  162.1349 O   0  0  0  0  0  0  0  0  0  0  0  0
  148.0118  136.5170  159.9758 N   0  5  0  0  0  0  0  0  0  0  0  0
  147.9921  135.4920  159.0684 C   0  0  0  0  0  0  0  0  0  0  0  0
  147.9020  135.6861  157.8552 O   0  0  0  0  0  0  0  0  0  0  0  0
  147.8376  132.8430  153.5102 C   0  0  0  0  0  0  0  0  0  0  0  0
  147.6480  131.3126  153.6080 C   0  0  0  0  0  0  0  0  0  0  0  0
  146.2264  130.8903  153.2017 C   0  0  0  0  0  0  0  0  0  0  0  0
  145.8724  131.3974  151.7954 C   0  0  0  0  0  0  0  0  0  0  0  0
  146.0562  132.9194  151.6928 C   0  0  0  0  0  0  0  0  0  0  0  0
  147.4823  133.3341  152.0889 C   0  0  0  0  0  0  0  0  0  0  0  0
  150.8157  134.7806  155.7679 H   0  0  0  0  0  0  0  0  0  0  0  0
  150.5995  136.3121  154.9122 H   0  0  0  0  0  0  0  0  0  0  0  0
  151.3786  134.9618  154.1001 H   0  0  0  0  0  0  0  0  0  0  0  0
  148.2612  135.0066  156.1764 H   0  0  0  0  0  0  0  0  0  0  0  0
  147.1855  134.9852  154.7770 H   0  0  0  0  0  0  0  0  0  0  0  0
  148.1717  136.3990  155.1040 H   0  0  0  0  0  0  0  0  0  0  0  0
  149.9073  133.1147  153.1924 H   0  0  0  0  0  0  0  0  0  0  0  0
  149.9074  131.4036  154.8615 H   0  0  0  0  0  0  0  0  0  0  0  0
  150.7833  132.7886  155.4957 H   0  0  0  0  0  0  0  0  0  0  0  0
  148.0932  131.8752  156.3070 H   0  0  0  0  0  0  0  0  0  0  0  0
  147.0508  132.9336  158.2120 H   0  0  0  0  0  0  0  0  0  0  0  0
  148.2513  132.1278  159.1678 H   0  0  0  0  0  0  0  0  0  0  0  0
  148.2563  132.9126  161.1785 H   0  0  0  0  0  0  0  0  0  0  0  0
  148.2978  134.7445  162.8638 H   0  0  0  0  0  0  0  0  0  0  0  0
  147.0936  133.2745  154.1810 H   0  0  0  0  0  0  0  0  0  0  0  0
  148.3684  130.8025  152.9677 H   0  0  0  0  0  0  0  0  0  0  0  0
  147.8461  130.9740  154.6255 H   0  0  0  0  0  0  0  0  0  0  0  0
  146.1366  129.8041  153.2380 H   0  0  0  0  0  0  0  0  0  0  0  0
  145.5080  131.2831  153.9224 H   0  0  0  0  0  0  0  0  0  0  0  0
  146.5045  130.9018  151.0575 H   0  0  0  0  0  0  0  0  0  0  0  0
  144.8442  131.1291  151.5515 H   0  0  0  0  0  0  0  0  0  0  0  0
  145.8408  133.2510  150.6766 H   0  0  0  0  0  0  0  0  0  0  0  0
  145.3350  133.4206  152.3398 H   0  0  0  0  0  0  0  0  0  0  0  0
  147.5706  134.4186  152.0239 H   0  0  0  0  0  0  0  0  0  0  0  0
  148.1775  132.9159  151.3613 H   0  0  0  0  0  0  0  0  0  0  0  0
  149.1668  135.2011  153.3975 H   0  0  0  0  0  0  0  0  0  0  0  0
  1  2  1  0  0  0  0
  1 24  1  0  0  0  0
  1 25  1  0  0  0  0
  1 26  1  0  0  0  0
  2  3  1  0  0  0  0
  2  4  1  0  0  0  0
  2 49  1  0  0  0  0
  3 27  1  0  0  0  0
  3 28  1  0  0  0  0
  3 29  1  0  0  0  0
  4  5  1  0  0  0  0
  4 18  1  0  0  0  0
  4 30  1  0  0  0  0
  5  6  1  0  0  0  0
  5 31  1  0  0  0  0
  5 32  1  0  0  0  0
  6  7  1  0  0  0  0
  6 33  1  0  0  0  0
  7  8  2  0  0  0  0
  7  9  1  0  0  0  0
  9 10  1  0  0  0  0
  9 34  1  0  0  0  0
  9 35  1  0  0  0  0
 10 16  1  0  0  0  0
 10 11  1  0  0  0  0
 11 12  2  0  0  0  0
 11 36  1  0  0  0  0
 12 13  1  0  0  0  0
 12 37  1  0  0  0  0
 13 14  2  0  0  0  0
 13 15  1  0  0  0  0
 15 16  1  0  0  0  0
 16 17  2  0  0  0  0
 18 23  1  0  0  0  0
 18 19  1  0  0  0  0
 18 38  1  0  0  0  0
 19 20  1  0  0  0  0
 19 39  1  0  0  0  0
 19 40  1  0  0  0  0
 20 21  1  0  0  0  0
 20 41  1  0  0  0  0
 20 42  1  0  0  0  0
 21 22  1  0  0  0  0
 21 43  1  0  0  0  0
 21 44  1  0  0  0  0
 22 23  1  0  0  0  0
 22 45  1  0  0  0  0
 22 46  1  0  0  0  0
 23 47  1  0  0  0  0
 23 48  1  0  0  0  0
M  CHG  1   2   1
M  CHG  1  15  -1
M  END
> <s_m_source_file>
AV-unprocessed.smi

> <i_m_source_file_index>
1552

> <i_lp_mmshare_version>
43012

> <i_f3d_flags>
0

> <s_epik_input>
W0NIMl0xW0NIMl1bQ0gyXVtDSDJdW0NIMl1bQ0hdMVtDQEhdKE4oW0NIM10pW0NIM10pW0NIMl1bTkhdQyg9TylbQ0gyXW4yW2NIXVtjSF1jKD1PKVtuSF1jMj1P

> <s_epik_cmdline>
J2VwaWtfcHl0aG9uJywgJy1waCcsICc3LjAnLCAnLXRuJywgJzgnLCAnLW1hJywgJzIwMCcsICctbWV0YWxfYmluZGluZycsICctaW1hZScsICc8aW5maWxlLm1hZT4nLCAnLW9tYWUnLCAnPG91dGZpbGUubWFlPic=

> <r_lp_tautomer_probability>
1

> <r_epik_Ionization_Penalty>
2.93575

> <r_epik_Ionization_Penalty_Charging>
0.00331645

> <r_epik_Ionization_Penalty_Neutral>
2.93244

> <r_epik_State_Penalty>
2.92822

> <r_epik_Charging_Adjusted_Penalty>
2.93154

> <i_epik_Tot_Q>
0

> <i_epik_Tot_abs_Q>
2

> <r_epik_Metal_State_Penalty>
0.448509

> <b_epik_Metal_Only>
1

> <s_lp_Force_Field>
OPLS_2005

> <r_lp_Energy>
36.4882

> <b_lp_Chiralities_Consistent>
1

> <s_lp_Variant>
AV-unprocessed.smi:1552-4

> <Gold.Version>
5.8.1

> <Gold.Id.Protein>
6NUR|6NUR_protein|mol2

> <Gold.PLP.Fitness>
46.6904

> <Gold.PLP.PLP>
-35.2540

> <Gold.PLP.part.hbond>
-4.0000

> <Gold.PLP.part.metal>
0.0000

> <Gold.PLP.part.buried>
-4.1458

> <Gold.PLP.part.nonpolar>
-26.6585

> <Gold.PLP.part.repulsive>
0.0156

> <Gold.PLP.ligand.clash>
0.0000

> <Gold.PLP.ligand.torsion>
1.0300

> <Gold.PLP.Chemscore.Hbond>
4.3970

> <Gold.PLP.Chemscore.CHOScore>
0.0000

> <Gold.PLP.Chemscore.Metal>
0.0000

> <Gold.Chemscore.Hbonds>
donor molecule, donor type, donor heavy atom, donor atom, acceptor molecule, acceptor atom, score
      L1  H     2    49       P1  7948  2.00
      P1  H  6896  6909       L1     8  0.99
      P1  H  6931  6943       L1    14  0.57
      P1  H  6934  6947       L1    14  0.11

> <Gold.PLP.Chemscore.Internal.Correction>
0.3054

> <Gold.Rescore>
     Score         DG    S(hbond)    S(metal)    S(lipo)     H(rot)  DE(clash)    DE(int)     intcor
     11.91     -17.38       2.79        0.00      75.28       2.43       0.03       5.44       ----

> <Gold.Chemscore.Fitness>
11.9117

> <Gold.Chemscore.DG>
-17.3823

> <Gold.Chemscore.ZeroCoef>
-5.4800

> <Gold.Chemscore.Hbond>
2.7896

> <Gold.Chemscore.Metal>
0.0000

> <Gold.Chemscore.Lipo>
75.2751

> <Gold.Chemscore.Internal_Hbond>
0.0000

> <Gold.Chemscore.DEClash>
0.0284

> <Gold.Chemscore.DEInternal>
5.4422

> <Gold.Chemscore.Rot>
2.4305

> <Gold.Chemscore.Internal.Correction>
   9.000000E+99

> <Gold.Chemscore.Hbonds>
donor molecule, donor type, donor heavy atom, donor atom, acceptor molecule, acceptor atom, score
      L1  H     2    49       P1  7948  0.26
      P1  H  6896  6909       L1     8  0.86
      P1  H  6931  6943       L1    14  0.55
      P1  H  6934  6947       L1    14  0.05

> <Gold.Chemscore.Hbond.Weighted>
-9.3172

> <Gold.Chemscore.Metal.Weighted>
-0.0000

> <Gold.Chemscore.Lipo.Weighted>
-8.8072

> <Gold.Chemscore.Internal_Hbond.Weighted>
0.0000

> <Gold.Chemscore.DEClash.Weighted>
0.0284

> <Gold.Chemscore.DEInternal.Weighted>
5.4422

> <Gold.Chemscore.Rot.Weighted>
6.2220

> <Gold.Chemscore.Internal.Correction.Weighted>
   9.000000E+99

> <Gold.Protein.RotatedTorsions>
[ 6907 6896 6895 6894 ] final   -0.65 input  -60.11 | X-H torsion
[ 7974 7965 7964 7962 ] final -144.14 input  175.53 | X-H torsion
[ 8008 7997 7996 7995 ] final  -91.73 input   59.86 | X-H torsion
[ 10167 10162 10161 10158 ] final   81.46 input  -65.29 | X-H torsion
[ 10718 10713 10712 10709 ] final  -78.25 input   66.30 | X-H torsion
[ 10763 10752 10751 10750 ] final  164.86 input  -60.55 | X-H torsion
[ 11005 11000 10999 10996 ] final -167.53 input  -57.11 | X-H torsion

> <Gold.Protein.ActiveResidues>
 VAL166  LYS551  ARG553  GLY616  TRP617  ASP618  TYR619  PRO620  LYS621  CYS622 
 ASP623  PHE694  ASN695  SER759  ASP760  ASP761  ALA762  ILE779  LEU786  VAL792 
 PHE793  MET794  SER795  GLU796  ALA797  LYS798  CYS799  TRP800  GLU811  SER814 

> <Gold.Protein.RotatedAtoms>
  151.5588  135.1066  159.9967 H   0  0  0  0  0  0  0  0  0  0  0  0  # atno 6907 bound_to 6896
  152.4456  133.7526  159.6713 H   0  0  0  0  0  0  0  0  0  0  0  0  # atno 6908 bound_to 6896
  150.8371  133.7928  159.3099 H   0  0  0  0  0  0  0  0  0  0  0  0  # atno 6909 bound_to 6896
  144.8319  140.5747  143.5510 H   0  0  0  0  0  0  0  0  0  0  0  0  # atno 7974 bound_to 7965
  154.7143  140.0516  157.0580 H   0  0  0  0  0  0  0  0  0  0  0  0  # atno 8008 bound_to 7997
  155.0512  140.3179  155.4672 H   0  0  0  0  0  0  0  0  0  0  0  0  # atno 8009 bound_to 7997
  156.2798  140.2115  156.5637 H   0  0  0  0  0  0  0  0  0  0  0  0  # atno 8010 bound_to 7997
  139.9390  144.6102  150.8270 H   0  0  0  0  0  0  0  0  0  0  0  0  # atno 10167 bound_to 10162
  156.0122  130.4513  150.3469 H   0  0  0  0  0  0  0  0  0  0  0  0  # atno 10718 bound_to 10713
  154.3153  135.2756  155.2546 H   0  0  0  0  0  0  0  0  0  0  0  0  # atno 10763 bound_to 10752
  154.4923  135.5830  153.6472 H   0  0  0  0  0  0  0  0  0  0  0  0  # atno 10764 bound_to 10752
  152.9883  135.6138  154.3333 H   0  0  0  0  0  0  0  0  0  0  0  0  # atno 10765 bound_to 10752
  140.5522  134.5417  157.5125 H   0  0  0  0  0  0  0  0  0  0  0  0  # atno 11005 bound_to 11000
  145.4878  139.1491  143.3726 LP  0  0  0  0  0  0  0  0  0  0  0  0  # atno 17320 bound_to 7965
  146.2621  140.5016  142.8849 LP  0  0  0  0  0  0  0  0  0  0  0  0  # atno 17321 bound_to 7965
  140.7616  143.3178  151.2692 LP  0  0  0  0  0  0  0  0  0  0  0  0  # atno 17342 bound_to 10162
  139.6720  144.0004  152.2758 LP  0  0  0  0  0  0  0  0  0  0  0  0  # atno 17343 bound_to 10162
  157.1562  131.0333  151.2862 LP  0  0  0  0  0  0  0  0  0  0  0  0  # atno 17370 bound_to 10713
  157.4350  130.7512  149.7021 LP  0  0  0  0  0  0  0  0  0  0  0  0  # atno 17371 bound_to 10713
  139.9449  134.7719  156.0585 LP  0  0  0  0  0  0  0  0  0  0  0  0  # atno 17394 bound_to 11000
  141.1165  133.6626  156.3106 LP  0  0  0  0  0  0  0  0  0  0  0  0  # atno 17395 bound_to 11000

$$$$
