AV-unprocessed.smi:2109|AV-procd|sdf|8606|dock1
  -GOLD-   2272011343D 1   1.00000     0.00000
 Structure written by MMmdl.
 45 46  0  0  0  0  0  0  0  0  1 V2000
  148.8971  132.9688  152.8076 C   0  0  0  0  0  0  0  0  0  0  0  0
  148.7082  133.0498  154.3322 C   0  0  0  0  0  0  0  0  0  0  0  0
  147.3030  133.5627  154.6797 C   0  0  0  0  0  0  0  0  0  0  0  0
  149.7882  133.9166  155.0153 C   0  0  0  0  0  0  0  0  0  0  0  0
  149.9953  135.1996  154.3507 N   0  0  0  0  0  0  0  0  0  0  0  0
  150.8976  136.1195  154.7202 C   0  0  0  0  0  0  0  0  0  0  0  0
  151.6829  135.9784  155.6579 O   0  0  0  0  0  0  0  0  0  0  0  0
  150.8405  137.2130  153.9479 N   0  0  0  0  0  0  0  0  0  0  0  0
  151.7117  138.3733  154.0929 C   0  0  0  0  0  0  0  0  0  0  0  0
  151.0490  139.5215  154.8343 C   0  0  0  0  0  0  0  0  0  0  0  0
  149.7775  139.9867  154.4471 C   0  0  0  0  0  0  0  0  0  0  0  0
  149.2068  141.0488  155.1720 C   0  0  0  0  0  0  0  0  0  0  0  0
  149.8219  141.6504  156.2117 N   0  0  0  0  0  0  0  0  0  0  0  0
  151.0527  141.2200  156.5854 C   0  0  0  0  0  0  0  0  0  0  0  0
  151.6911  141.8693  157.6647 N   0  0  0  0  0  0  0  0  0  0  0  0
  151.9837  141.0801  158.8602 C   0  0  0  0  0  0  0  0  0  0  0  0
  152.9104  141.8618  159.8065 C   0  0  0  0  0  0  0  0  0  0  0  0
  152.3287  143.1246  160.1121 O   0  0  0  0  0  0  0  0  0  0  0  0
  152.1551  143.9227  158.9461 C   0  0  0  0  0  0  0  0  0  0  0  0
  151.2047  143.2140  157.9657 C   0  0  0  0  0  0  0  0  0  0  0  0
  151.6951  140.1479  155.9210 C   0  0  0  0  0  0  0  0  0  0  0  0
  148.8520  133.9574  152.3498 H   0  0  0  0  0  0  0  0  0  0  0  0
  148.1204  132.3554  152.3504 H   0  0  0  0  0  0  0  0  0  0  0  0
  149.8562  132.5222  152.5454 H   0  0  0  0  0  0  0  0  0  0  0  0
  148.7844  132.0360  154.7270 H   0  0  0  0  0  0  0  0  0  0  0  0
  147.1491  134.5783  154.3133 H   0  0  0  0  0  0  0  0  0  0  0  0
  147.1429  133.5700  155.7583 H   0  0  0  0  0  0  0  0  0  0  0  0
  146.5327  132.9291  154.2392 H   0  0  0  0  0  0  0  0  0  0  0  0
  149.5044  134.1163  156.0491 H   0  0  0  0  0  0  0  0  0  0  0  0
  150.7357  133.3766  155.0582 H   0  0  0  0  0  0  0  0  0  0  0  0
  149.3983  135.4059  153.5633 H   0  0  0  0  0  0  0  0  0  0  0  0
  150.1621  137.2398  153.2010 H   0  0  0  0  0  0  0  0  0  0  0  0
  152.5960  138.0682  154.6526 H   0  0  0  0  0  0  0  0  0  0  0  0
  152.0662  138.7047  153.1152 H   0  0  0  0  0  0  0  0  0  0  0  0
  149.2450  139.5381  153.6213 H   0  0  0  0  0  0  0  0  0  0  0  0
  148.2304  141.4277  154.9085 H   0  0  0  0  0  0  0  0  0  0  0  0
  151.0507  140.8362  159.3701 H   0  0  0  0  0  0  0  0  0  0  0  0
  152.4612  140.1392  158.5836 H   0  0  0  0  0  0  0  0  0  0  0  0
  153.0568  141.3052  160.7322 H   0  0  0  0  0  0  0  0  0  0  0  0
  153.8960  142.0008  159.3593 H   0  0  0  0  0  0  0  0  0  0  0  0
  151.7416  144.8887  159.2366 H   0  0  0  0  0  0  0  0  0  0  0  0
  153.1213  144.1184  158.4780 H   0  0  0  0  0  0  0  0  0  0  0  0
  151.1095  143.8207  157.0664 H   0  0  0  0  0  0  0  0  0  0  0  0
  150.2082  143.1373  158.4027 H   0  0  0  0  0  0  0  0  0  0  0  0
  152.6657  139.7973  156.2385 H   0  0  0  0  0  0  0  0  0  0  0  0
  1  2  1  0  0  0  0
  1 22  1  0  0  0  0
  1 23  1  0  0  0  0
  1 24  1  0  0  0  0
  2  3  1  0  0  0  0
  2  4  1  0  0  0  0
  2 25  1  0  0  0  0
  3 26  1  0  0  0  0
  3 27  1  0  0  0  0
  3 28  1  0  0  0  0
  4  5  1  0  0  0  0
  4 29  1  0  0  0  0
  4 30  1  0  0  0  0
  5  6  1  0  0  0  0
  5 31  1  0  0  0  0
  6  7  2  0  0  0  0
  6  8  1  0  0  0  0
  8  9  1  0  0  0  0
  8 32  1  0  0  0  0
  9 10  1  0  0  0  0
  9 33  1  0  0  0  0
  9 34  1  0  0  0  0
 10 21  1  0  0  0  0
 10 11  2  0  0  0  0
 11 12  1  0  0  0  0
 11 35  1  0  0  0  0
 12 13  2  0  0  0  0
 12 36  1  0  0  0  0
 13 14  1  0  0  0  0
 14 15  1  0  0  0  0
 14 21  2  0  0  0  0
 15 20  1  0  0  0  0
 15 16  1  0  0  0  0
 16 17  1  0  0  0  0
 16 37  1  0  0  0  0
 16 38  1  0  0  0  0
 17 18  1  0  0  0  0
 17 39  1  0  0  0  0
 17 40  1  0  0  0  0
 18 19  1  0  0  0  0
 19 20  1  0  0  0  0
 19 41  1  0  0  0  0
 19 42  1  0  0  0  0
 20 43  1  0  0  0  0
 20 44  1  0  0  0  0
 21 45  1  0  0  0  0
M  END
> <s_m_source_file>
AV-unprocessed.smi

> <i_m_source_file_index>
2109

> <i_lp_mmshare_version>
43012

> <i_f3d_flags>
0

> <s_epik_input>
W0NIM11bQ0hdKFtDSDNdKVtDSDJdW05IXUMoPU8pW05IXVtDSDJdYzFbY0hdW2NIXW5jKFtjSF0xKU4yW0NIMl1bQ0gyXU9bQ0gyXVtDSDJdMg==

> <s_epik_cmdline>
J2VwaWtfcHl0aG9uJywgJy1waCcsICc3LjAnLCAnLXRuJywgJzgnLCAnLW1hJywgJzIwMCcsICctbWV0YWxfYmluZGluZycsICctaW1hZScsICc8aW5maWxlLm1hZT4nLCAnLW9tYWUnLCAnPG91dGZpbGUubWFlPic=

> <r_lp_tautomer_probability>
1

> <r_epik_Ionization_Penalty>
0.012582

> <r_epik_Ionization_Penalty_Charging>
0

> <r_epik_Ionization_Penalty_Neutral>
0.012582

> <r_epik_State_Penalty>
0.00970236

> <r_epik_Charging_Adjusted_Penalty>
0.00970236

> <i_epik_Tot_Q>
0

> <i_epik_Tot_abs_Q>
0

> <r_epik_Metal_State_Penalty>
0.00950075

> <b_epik_Metal_Only>
0

> <s_lp_Force_Field>
OPLS_2005

> <r_lp_Energy>
12.0327

> <b_lp_Chiralities_Consistent>
1

> <s_lp_Variant>
AV-unprocessed.smi:2109-1

> <Gold.Version>
5.8.1

> <Gold.Id.Protein>
6NUR|6NUR_protein|mol2

> <Gold.PLP.Fitness>
50.3384

> <Gold.PLP.PLP>
-42.3968

> <Gold.PLP.part.hbond>
-4.0000

> <Gold.PLP.part.metal>
0.0000

> <Gold.PLP.part.buried>
-3.7533

> <Gold.PLP.part.nonpolar>
-34.8501

> <Gold.PLP.part.repulsive>
0.3211

> <Gold.PLP.ligand.clash>
0.0000

> <Gold.PLP.ligand.torsion>
0.6383

> <Gold.PLP.Chemscore.Hbond>
2.9520

> <Gold.PLP.Chemscore.CHOScore>
0.0000

> <Gold.PLP.Chemscore.Metal>
0.0000

> <Gold.Chemscore.Hbonds>
donor molecule, donor type, donor heavy atom, donor atom, acceptor molecule, acceptor atom, score
      L1  H     5    31       P1  7948  0.95
      L1  H     8    32       P1  7948  0.73
      P1  H 10752 10765       L1     7  1.00

> <Gold.PLP.Chemscore.Internal.Correction>
0.3622

> <Gold.Rescore>
     Score         DG    S(hbond)    S(metal)    S(lipo)     H(rot)  DE(clash)    DE(int)     intcor
     18.36     -19.09       2.07        0.00      95.86       1.77       0.22       0.51       ----

> <Gold.Chemscore.Fitness>
18.3642

> <Gold.Chemscore.DG>
-19.0879

> <Gold.Chemscore.ZeroCoef>
-5.4800

> <Gold.Chemscore.Hbond>
2.0700

> <Gold.Chemscore.Metal>
0.0000

> <Gold.Chemscore.Lipo>
95.8602

> <Gold.Chemscore.Internal_Hbond>
0.0000

> <Gold.Chemscore.DEClash>
0.2156

> <Gold.Chemscore.DEInternal>
0.5082

> <Gold.Chemscore.Rot>
1.7662

> <Gold.Chemscore.Internal.Correction>
   9.000000E+99

> <Gold.Chemscore.Hbonds>
donor molecule, donor type, donor heavy atom, donor atom, acceptor molecule, acceptor atom, score
      L1  H     5    31       P1  7948  0.21
      L1  H     8    32       P1  7948  0.08
      P1  H 10752 10765       L1     7  0.75

> <Gold.Chemscore.Hbond.Weighted>
-6.9137

> <Gold.Chemscore.Metal.Weighted>
-0.0000

> <Gold.Chemscore.Lipo.Weighted>
-11.2156

> <Gold.Chemscore.Internal_Hbond.Weighted>
0.0000

> <Gold.Chemscore.DEClash.Weighted>
0.2156

> <Gold.Chemscore.DEInternal.Weighted>
0.5082

> <Gold.Chemscore.Rot.Weighted>
4.5214

> <Gold.Chemscore.Internal.Correction.Weighted>
   9.000000E+99

> <Gold.Protein.RotatedTorsions>
[ 6907 6896 6895 6894 ] final  -54.13 input  -60.11 | X-H torsion
[ 7974 7965 7964 7962 ] final -112.83 input  175.53 | X-H torsion
[ 8008 7997 7996 7995 ] final  164.47 input   59.86 | X-H torsion
[ 10167 10162 10161 10158 ] final   39.50 input  -65.29 | X-H torsion
[ 10718 10713 10712 10709 ] final   86.06 input   66.30 | X-H torsion
[ 10763 10752 10751 10750 ] final -144.56 input  -60.55 | X-H torsion
[ 11005 11000 10999 10996 ] final -147.30 input  -57.11 | X-H torsion

> <Gold.Protein.ActiveResidues>
 VAL166  LYS551  ARG553  GLY616  TRP617  ASP618  TYR619  PRO620  LYS621  CYS622 
 ASP623  PHE694  ASN695  SER759  ASP760  ASP761  ALA762  ILE779  LEU786  VAL792 
 PHE793  MET794  SER795  GLU796  ALA797  LYS798  CYS799  TRP800  GLU811  SER814 

> <Gold.Protein.RotatedAtoms>
  150.8365  134.7640  159.6897 H   0  0  0  0  0  0  0  0  0  0  0  0  # atno 6907 bound_to 6896
  152.4461  134.5488  159.9870 H   0  0  0  0  0  0  0  0  0  0  0  0  # atno 6908 bound_to 6896
  151.5638  133.3362  159.3012 H   0  0  0  0  0  0  0  0  0  0  0  0  # atno 6909 bound_to 6896
  145.1393  140.8769  143.3711 H   0  0  0  0  0  0  0  0  0  0  0  0  # atno 7974 bound_to 7965
  156.1877  140.1696  156.8152 H   0  0  0  0  0  0  0  0  0  0  0  0  # atno 8008 bound_to 7997
  154.5434  140.0732  156.8580 H   0  0  0  0  0  0  0  0  0  0  0  0  # atno 8009 bound_to 7997
  155.3170  140.3371  155.4244 H   0  0  0  0  0  0  0  0  0  0  0  0  # atno 8010 bound_to 7997
  140.3833  144.1950  150.6130 H   0  0  0  0  0  0  0  0  0  0  0  0  # atno 10167 bound_to 10162
  157.6923  131.0200  150.2916 H   0  0  0  0  0  0  0  0  0  0  0  0  # atno 10718 bound_to 10713
  154.8422  135.3437  154.6366 H   0  0  0  0  0  0  0  0  0  0  0  0  # atno 10763 bound_to 10752
  153.6976  135.6971  153.5076 H   0  0  0  0  0  0  0  0  0  0  0  0  # atno 10764 bound_to 10752
  153.2547  135.4342  155.0788 H   0  0  0  0  0  0  0  0  0  0  0  0  # atno 10765 bound_to 10752
  140.7731  134.3166  157.5069 H   0  0  0  0  0  0  0  0  0  0  0  0  # atno 11005 bound_to 11000
  145.0549  139.3151  143.5910 LP  0  0  0  0  0  0  0  0  0  0  0  0  # atno 17320 bound_to 7965
  146.3506  139.9971  142.8680 LP  0  0  0  0  0  0  0  0  0  0  0  0  # atno 17321 bound_to 7965
  140.4915  143.2346  151.8812 LP  0  0  0  0  0  0  0  0  0  0  0  0  # atno 17342 bound_to 10162
  139.4794  144.5161  151.8866 LP  0  0  0  0  0  0  0  0  0  0  0  0  # atno 17343 bound_to 10162
  156.3446  130.3821  149.7380 LP  0  0  0  0  0  0  0  0  0  0  0  0  # atno 17370 bound_to 10713
  156.4878  130.8071  151.3082 LP  0  0  0  0  0  0  0  0  0  0  0  0  # atno 17371 bound_to 10713
  139.8753  134.9273  156.3421 LP  0  0  0  0  0  0  0  0  0  0  0  0  # atno 17394 bound_to 11000
  140.9555  133.7423  156.0329 LP  0  0  0  0  0  0  0  0  0  0  0  0  # atno 17395 bound_to 11000

$$$$
