AV-unprocessed.smi:1895|AV-procd|sdf|7681|dock2
  -GOLD-   22720 9423D 1   1.00000     0.00000
 Structure written by MMmdl.
 36 37  0  0  0  0  0  0  0  0  1 V2000
  152.1479  144.6661  158.2162 C   0  0  0  0  0  0  0  0  0  0  0  0
  152.4785  143.3731  158.9012 C   0  0  0  0  0  0  0  0  0  0  0  0
  153.3509  143.1587  160.0048 C   0  0  0  0  0  0  0  0  0  0  0  0
  153.2913  141.8114  160.2250 C   0  0  0  0  0  0  0  0  0  0  0  0
  153.9861  140.9694  161.2440 C   0  0  0  0  0  0  0  0  0  0  0  0
  152.4199  141.2890  159.2852 N   0  0  0  0  0  0  0  0  0  0  0  0
  152.0039  139.9075  159.0845 C   0  0  0  0  0  0  0  0  0  0  0  0
  152.5131  139.3105  157.7660 C   0  0  0  0  0  0  0  0  0  0  0  0
  153.6973  139.0048  157.6169 O   0  0  0  0  0  0  0  0  0  0  0  0
  151.5875  139.1437  156.8093 N   0  0  0  0  0  0  0  0  0  0  0  0
  151.8390  138.6002  155.4797 C   0  0  0  0  0  0  0  0  0  0  0  0
  150.6539  138.8479  154.5322 C   0  0  1  0  0  0  0  0  0  0  0  0
  149.3568  138.1838  154.9841 C   0  0  0  0  0  0  0  0  0  0  0  0
  148.3257  138.9904  154.2269 C   0  0  0  0  0  0  0  0  0  0  0  0
  148.9310  140.3944  154.2330 C   0  0  0  0  0  0  0  0  0  0  0  0
  150.3254  140.2321  154.4848 O   0  0  0  0  0  0  0  0  0  0  0  0
  151.9234  142.2502  158.4759 N   0  0  0  0  0  0  0  0  0  0  0  0
  152.6851  145.4999  158.6682 H   0  0  0  0  0  0  0  0  0  0  0  0
  151.0817  144.8842  158.2817 H   0  0  0  0  0  0  0  0  0  0  0  0
  152.4182  144.6310  157.1605 H   0  0  0  0  0  0  0  0  0  0  0  0
  153.9340  143.8850  160.5510 H   0  0  0  0  0  0  0  0  0  0  0  0
  154.6446  141.5757  161.8661 H   0  0  0  0  0  0  0  0  0  0  0  0
  154.5928  140.2007  160.7650 H   0  0  0  0  0  0  0  0  0  0  0  0
  153.2667  140.4768  161.8983 H   0  0  0  0  0  0  0  0  0  0  0  0
  152.3676  139.3050  159.9173 H   0  0  0  0  0  0  0  0  0  0  0  0
  150.9140  139.8577  159.1101 H   0  0  0  0  0  0  0  0  0  0  0  0
  150.6394  139.4248  157.0125 H   0  0  0  0  0  0  0  0  0  0  0  0
  152.7506  139.0363  155.0676 H   0  0  0  0  0  0  0  0  0  0  0  0
  152.0246  137.5301  155.5754 H   0  0  0  0  0  0  0  0  0  0  0  0
  150.8919  138.5152  153.5202 H   0  0  0  0  0  0  0  0  0  0  0  0
  149.3206  137.1186  154.7538 H   0  0  0  0  0  0  0  0  0  0  0  0
  149.2138  138.3087  156.0585 H   0  0  0  0  0  0  0  0  0  0  0  0
  148.2477  138.6227  153.2029 H   0  0  0  0  0  0  0  0  0  0  0  0
  147.3341  138.9513  154.6788 H   0  0  0  0  0  0  0  0  0  0  0  0
  148.7615  140.9102  153.2873 H   0  0  0  0  0  0  0  0  0  0  0  0
  148.5016  141.0012  155.0309 H   0  0  0  0  0  0  0  0  0  0  0  0
  1  2  1  0  0  0  0
  1 18  1  0  0  0  0
  1 19  1  0  0  0  0
  1 20  1  0  0  0  0
  2 17  2  0  0  0  0
  2  3  1  0  0  0  0
  3  4  2  0  0  0  0
  3 21  1  0  0  0  0
  4  5  1  0  0  0  0
  4  6  1  0  0  0  0
  5 22  1  0  0  0  0
  5 23  1  0  0  0  0
  5 24  1  0  0  0  0
  6  7  1  0  0  0  0
  6 17  1  0  0  0  0
  7  8  1  0  0  0  0
  7 25  1  0  0  0  0
  7 26  1  0  0  0  0
  8  9  2  0  0  0  0
  8 10  1  0  0  0  0
 10 11  1  0  0  0  0
 10 27  1  0  0  0  0
 11 12  1  0  0  0  0
 11 28  1  0  0  0  0
 11 29  1  0  0  0  0
 12 16  1  0  0  0  0
 12 13  1  0  0  0  0
 12 30  1  0  0  0  0
 13 14  1  0  0  0  0
 13 31  1  0  0  0  0
 13 32  1  0  0  0  0
 14 15  1  0  0  0  0
 14 33  1  0  0  0  0
 14 34  1  0  0  0  0
 15 16  1  0  0  0  0
 15 35  1  0  0  0  0
 15 36  1  0  0  0  0
M  END
> <s_m_source_file>
AV-unprocessed.smi

> <i_m_source_file_index>
1895

> <i_lp_mmshare_version>
43012

> <i_f3d_flags>
0

> <s_epik_input>
W0NIM11jMVtjSF1jKFtDSDNdKW4objEpW0NIMl1DKD1PKVtOSF1bQ0gyXVtDQEBIXTJbQ0gyXVtDSDJdW0NIMl1PMg==

> <s_epik_cmdline>
J2VwaWtfcHl0aG9uJywgJy1waCcsICc3LjAnLCAnLXRuJywgJzgnLCAnLW1hJywgJzIwMCcsICctbWV0YWxfYmluZGluZycsICctaW1hZScsICc8aW5maWxlLm1hZT4nLCAnLW9tYWUnLCAnPG91dGZpbGUubWFlPic=

> <r_lp_tautomer_probability>
1

> <r_epik_Ionization_Penalty>
0.000408438

> <r_epik_Ionization_Penalty_Charging>
0

> <r_epik_Ionization_Penalty_Neutral>
0.000408438

> <r_epik_State_Penalty>
-0

> <r_epik_Charging_Adjusted_Penalty>
0

> <i_epik_Tot_Q>
0

> <i_epik_Tot_abs_Q>
0

> <r_epik_Metal_State_Penalty>
-0

> <b_epik_Metal_Only>
0

> <s_lp_Force_Field>
OPLS_2005

> <r_lp_Energy>
16.1731

> <b_lp_Chiralities_Consistent>
1

> <s_lp_Variant>
AV-unprocessed.smi:1895-2

> <Gold.Version>
5.8.1

> <Gold.Id.Protein>
6NUR|6NUR_protein|mol2

> <Gold.PLP.Fitness>
43.9626

> <Gold.PLP.PLP>
-38.5237

> <Gold.PLP.part.hbond>
-1.8747

> <Gold.PLP.part.metal>
0.0000

> <Gold.PLP.part.buried>
-2.8676

> <Gold.PLP.part.nonpolar>
-33.2515

> <Gold.PLP.part.repulsive>
0.1979

> <Gold.PLP.ligand.clash>
0.0000

> <Gold.PLP.ligand.torsion>
0.2910

> <Gold.PLP.Chemscore.Hbond>
2.0000

> <Gold.PLP.Chemscore.CHOScore>
0.0000

> <Gold.PLP.Chemscore.Metal>
0.0000

> <Gold.Chemscore.Hbonds>
donor molecule, donor type, donor heavy atom, donor atom, acceptor molecule, acceptor atom, score
      P1  H  7989  7998       L1    16  1.00
      P1  H  7997  8009       L1     9  0.93

> <Gold.PLP.Chemscore.Internal.Correction>
0.0209

> <Gold.Rescore>
     Score         DG    S(hbond)    S(metal)    S(lipo)     H(rot)  DE(clash)    DE(int)     intcor
     18.82     -19.14       1.87        0.00      97.19       1.54       0.18       0.15       ----

> <Gold.Chemscore.Fitness>
18.8179

> <Gold.Chemscore.DG>
-19.1424

> <Gold.Chemscore.ZeroCoef>
-5.4800

> <Gold.Chemscore.Hbond>
1.8652

> <Gold.Chemscore.Metal>
0.0000

> <Gold.Chemscore.Lipo>
97.1948

> <Gold.Chemscore.Internal_Hbond>
0.0000

> <Gold.Chemscore.DEClash>
0.1761

> <Gold.Chemscore.DEInternal>
0.1483

> <Gold.Chemscore.Rot>
1.5387

> <Gold.Chemscore.Internal.Correction>
   9.000000E+99

> <Gold.Chemscore.Hbonds>
donor molecule, donor type, donor heavy atom, donor atom, acceptor molecule, acceptor atom, score
      P1  H  7989  7998       L1    16  0.34
      P1  H  7997  8009       L1     9  0.86

> <Gold.Chemscore.Hbond.Weighted>
-6.2298

> <Gold.Chemscore.Metal.Weighted>
-0.0000

> <Gold.Chemscore.Lipo.Weighted>
-11.3718

> <Gold.Chemscore.Internal_Hbond.Weighted>
0.0000

> <Gold.Chemscore.DEClash.Weighted>
0.1761

> <Gold.Chemscore.DEInternal.Weighted>
0.1483

> <Gold.Chemscore.Rot.Weighted>
3.9392

> <Gold.Chemscore.Internal.Correction.Weighted>
   9.000000E+99

> <Gold.Protein.RotatedTorsions>
[ 6907 6896 6895 6894 ] final   -5.87 input  -60.11 | X-H torsion
[ 7974 7965 7964 7962 ] final   26.02 input  175.53 | X-H torsion
[ 8008 7997 7996 7995 ] final  146.84 input   59.86 | X-H torsion
[ 10167 10162 10161 10158 ] final -106.25 input  -65.29 | X-H torsion
[ 10718 10713 10712 10709 ] final  -26.90 input   66.30 | X-H torsion
[ 10763 10752 10751 10750 ] final    6.40 input  -60.55 | X-H torsion
[ 11005 11000 10999 10996 ] final   58.85 input  -57.11 | X-H torsion

> <Gold.Protein.ActiveResidues>
 VAL166  LYS551  ARG553  GLY616  TRP617  ASP618  TYR619  PRO620  LYS621  CYS622 
 ASP623  PHE694  ASN695  SER759  ASP760  ASP761  ALA762  ILE779  LEU786  VAL792 
 PHE793  MET794  SER795  GLU796  ALA797  LYS798  CYS799  TRP800  GLU811  SER814 

> <Gold.Protein.RotatedAtoms>
  151.4746  135.1048  159.9760 H   0  0  0  0  0  0  0  0  0  0  0  0  # atno 6907 bound_to 6896
  152.4803  133.8234  159.7076 H   0  0  0  0  0  0  0  0  0  0  0  0  # atno 6908 bound_to 6896
  150.8870  133.7233  159.2942 H   0  0  0  0  0  0  0  0  0  0  0  0  # atno 6909 bound_to 6896
  146.1859  139.7386  142.8867 H   0  0  0  0  0  0  0  0  0  0  0  0  # atno 7974 bound_to 7965
  156.2843  140.2171  156.5441 H   0  0  0  0  0  0  0  0  0  0  0  0  # atno 8008 bound_to 7997
  154.7345  140.0492  157.0779 H   0  0  0  0  0  0  0  0  0  0  0  0  # atno 8009 bound_to 7997
  155.0310  140.3135  155.4761 H   0  0  0  0  0  0  0  0  0  0  0  0  # atno 8010 bound_to 7997
  140.1898  143.3901  152.1215 H   0  0  0  0  0  0  0  0  0  0  0  0  # atno 10167 bound_to 10162
  156.4452  130.4472  149.7026 H   0  0  0  0  0  0  0  0  0  0  0  0  # atno 10718 bound_to 10713
  153.2482  135.6911  153.7708 H   0  0  0  0  0  0  0  0  0  0  0  0  # atno 10763 bound_to 10752
  153.6813  135.3328  155.3180 H   0  0  0  0  0  0  0  0  0  0  0  0  # atno 10764 bound_to 10752
  154.8383  135.4523  154.1429 H   0  0  0  0  0  0  0  0  0  0  0  0  # atno 10765 bound_to 10752
  140.0347  134.5961  155.9460 H   0  0  0  0  0  0  0  0  0  0  0  0  # atno 11005 bound_to 11000
  145.3939  141.0376  143.3108 LP  0  0  0  0  0  0  0  0  0  0  0  0  # atno 17320 bound_to 7965
  144.8397  139.5492  143.6906 LP  0  0  0  0  0  0  0  0  0  0  0  0  # atno 17321 bound_to 7965
  139.5261  144.7103  151.5226 LP  0  0  0  0  0  0  0  0  0  0  0  0  # atno 17342 bound_to 10162
  140.6463  143.8787  150.6741 LP  0  0  0  0  0  0  0  0  0  0  0  0  # atno 17343 bound_to 10162
  156.3874  130.7610  151.2608 LP  0  0  0  0  0  0  0  0  0  0  0  0  # atno 17370 bound_to 10713
  157.7505  131.0278  150.4020 LP  0  0  0  0  0  0  0  0  0  0  0  0  # atno 17371 bound_to 10713
  141.1850  133.6554  156.5182 LP  0  0  0  0  0  0  0  0  0  0  0  0  # atno 17394 bound_to 11000
  140.4167  134.7223  157.4867 LP  0  0  0  0  0  0  0  0  0  0  0  0  # atno 17395 bound_to 11000

$$$$
