AV-unprocessed.smi:211|AV-procd|sdf|1616|dock2
  -GOLD-   2262019543D 1   1.00000     0.00000
 Structure written by MMmdl.
 59 62  0  0  0  0  0  0  0  0  1 V2000
  152.5091  143.6596  162.2286 C   0  0  0  0  0  0  0  0  0  0  0  0
  152.0334  144.1044  160.8501 C   0  0  0  0  0  0  0  0  0  0  0  0
  151.7685  145.2877  160.6406 O   0  0  0  0  0  0  0  0  0  0  0  0
  151.9289  143.1414  159.9215 N   0  0  0  0  0  0  0  0  0  0  0  0
  151.4698  143.3289  158.5454 C   0  0  1  0  0  0  0  0  0  0  0  0
  152.4784  144.2287  157.8064 C   0  0  0  0  0  0  0  0  0  0  0  0
  151.2574  141.9515  157.8630 C   0  0  0  0  0  0  0  0  0  0  0  0
  150.7222  142.0785  156.4187 C   0  0  0  0  0  0  0  0  0  0  0  0
  150.4974  140.7028  155.7702 C   0  0  0  0  0  0  0  0  0  0  0  0
  149.6237  139.8678  156.5943 N   0  0  0  0  0  0  0  0  0  0  0  0
  149.1076  138.7481  156.0255 C   0  0  0  0  0  0  0  0  0  0  0  0
  149.8109  137.5841  156.0578 N   0  0  0  0  0  0  0  0  0  0  0  0
  149.3032  136.4721  155.5181 C   0  0  0  0  0  0  0  0  0  0  0  0
  148.1319  136.3037  154.9023 N   0  0  0  0  0  0  0  0  0  0  0  0
  147.4259  137.4696  154.8550 C   0  0  0  0  0  0  0  0  0  0  0  0
  147.8336  138.7244  155.3901 C   0  0  0  0  0  0  0  0  0  0  0  0
  146.8506  139.6788  155.1552 N   0  0  0  0  0  0  0  0  0  0  0  0
  145.9093  139.0218  154.5342 C   0  0  0  0  0  0  0  0  0  0  0  0
  146.1835  137.6953  154.2887 N   0  0  0  0  0  0  0  0  0  0  0  0
  145.3168  136.7373  153.6681 C   0  0  0  0  0  0  0  0  0  0  0  0
  145.8384  135.3687  153.2238 C   0  0  0  0  0  0  0  0  0  0  0  0
  144.8208  135.3684  152.0617 C   0  0  0  0  0  0  0  0  0  0  0  0
  145.3544  134.8328  150.7227 C   0  0  0  0  0  0  0  0  0  0  0  0
  144.7962  135.5342  149.6300 O   0  0  0  0  0  0  0  0  0  0  0  0
  143.4698  134.6935  152.3752 C   0  0  0  0  0  0  0  0  0  0  0  0
  143.6225  133.3036  152.5801 O   0  0  0  0  0  0  0  0  0  0  0  0
  144.8440  136.9058  152.2222 C   0  0  0  0  0  0  0  0  0  0  0  0
  150.0788  139.6878  157.9707 C   0  0  0  0  0  0  0  0  0  0  0  0
  150.2920  141.0435  158.6617 C   0  0  0  0  0  0  0  0  0  0  0  0
  153.4692  143.1478  162.1558 H   0  0  0  0  0  0  0  0  0  0  0  0
  151.7861  142.9777  162.6773 H   0  0  0  0  0  0  0  0  0  0  0  0
  152.6285  144.5160  162.8932 H   0  0  0  0  0  0  0  0  0  0  0  0
  152.1754  142.2002  160.1916 H   0  0  0  0  0  0  0  0  0  0  0  0
  150.5067  143.8427  158.5631 H   0  0  0  0  0  0  0  0  0  0  0  0
  152.1146  144.5206  156.8218 H   0  0  0  0  0  0  0  0  0  0  0  0
  153.4376  143.7264  157.6752 H   0  0  0  0  0  0  0  0  0  0  0  0
  152.6611  145.1518  158.3577 H   0  0  0  0  0  0  0  0  0  0  0  0
  152.2246  141.4482  157.8166 H   0  0  0  0  0  0  0  0  0  0  0  0
  149.7853  142.6370  156.4206 H   0  0  0  0  0  0  0  0  0  0  0  0
  151.4174  142.6399  155.7956 H   0  0  0  0  0  0  0  0  0  0  0  0
  150.0588  140.8380  154.7803 H   0  0  0  0  0  0  0  0  0  0  0  0
  151.4547  140.1978  155.6328 H   0  0  0  0  0  0  0  0  0  0  0  0
  149.9243  135.5914  155.5905 H   0  0  0  0  0  0  0  0  0  0  0  0
  144.9851  139.4932  154.2324 H   0  0  0  0  0  0  0  0  0  0  0  0
  144.4653  136.6258  154.3413 H   0  0  0  0  0  0  0  0  0  0  0  0
  146.8752  135.4084  152.8835 H   0  0  0  0  0  0  0  0  0  0  0  0
  145.6990  134.5726  153.9557 H   0  0  0  0  0  0  0  0  0  0  0  0
  146.4412  134.8983  150.6679 H   0  0  0  0  0  0  0  0  0  0  0  0
  145.1064  133.7779  150.6017 H   0  0  0  0  0  0  0  0  0  0  0  0
  145.1803  135.2029  148.8326 H   0  0  0  0  0  0  0  0  0  0  0  0
  143.0008  135.1293  153.2576 H   0  0  0  0  0  0  0  0  0  0  0  0
  142.7601  134.8322  151.5596 H   0  0  0  0  0  0  0  0  0  0  0  0
  143.0870  133.0485  153.3159 H   0  0  0  0  0  0  0  0  0  0  0  0
  143.8762  137.3977  152.1203 H   0  0  0  0  0  0  0  0  0  0  0  0
  145.5932  137.3879  151.5912 H   0  0  0  0  0  0  0  0  0  0  0  0
  149.3698  139.0987  158.5515 H   0  0  0  0  0  0  0  0  0  0  0  0
  151.0141  139.1263  157.9596 H   0  0  0  0  0  0  0  0  0  0  0  0
  150.6698  140.8620  159.6679 H   0  0  0  0  0  0  0  0  0  0  0  0
  149.3300  141.5444  158.7802 H   0  0  0  0  0  0  0  0  0  0  0  0
  1  2  1  0  0  0  0
  1 30  1  0  0  0  0
  1 31  1  0  0  0  0
  1 32  1  0  0  0  0
  2  3  2  0  0  0  0
  2  4  1  0  0  0  0
  4  5  1  0  0  0  0
  4 33  1  0  0  0  0
  5  6  1  0  0  0  0
  5  7  1  0  0  0  0
  5 34  1  0  0  0  0
  6 35  1  0  0  0  0
  6 36  1  0  0  0  0
  6 37  1  0  0  0  0
  7 29  1  0  0  0  0
  7  8  1  0  0  0  0
  7 38  1  0  0  0  0
  8  9  1  0  0  0  0
  8 39  1  0  0  0  0
  8 40  1  0  0  0  0
  9 10  1  0  0  0  0
  9 41  1  0  0  0  0
  9 42  1  0  0  0  0
 10 11  1  0  0  0  0
 10 28  1  0  0  0  0
 11 16  1  0  0  0  0
 11 12  2  0  0  0  0
 12 13  1  0  0  0  0
 13 14  2  0  0  0  0
 13 43  1  0  0  0  0
 14 15  1  0  0  0  0
 15 19  1  0  0  0  0
 15 16  2  0  0  0  0
 16 17  1  0  0  0  0
 17 18  2  0  0  0  0
 18 19  1  0  0  0  0
 18 44  1  0  0  0  0
 19 20  1  0  0  0  0
 20 27  1  0  0  0  0
 20 21  1  0  0  0  0
 20 45  1  0  0  0  0
 21 22  1  0  0  0  0
 21 46  1  0  0  0  0
 21 47  1  0  0  0  0
 22 23  1  0  0  0  0
 22 25  1  0  0  0  0
 22 27  1  0  0  0  0
 23 24  1  0  0  0  0
 23 48  1  0  0  0  0
 23 49  1  0  0  0  0
 24 50  1  0  0  0  0
 25 26  1  0  0  0  0
 25 51  1  0  0  0  0
 25 52  1  0  0  0  0
 26 53  1  0  0  0  0
 27 54  1  0  0  0  0
 27 55  1  0  0  0  0
 28 29  1  0  0  0  0
 28 56  1  0  0  0  0
 28 57  1  0  0  0  0
 29 58  1  0  0  0  0
 29 59  1  0  0  0  0
M  END
> <s_m_source_file>
AV-unprocessed.smi

> <i_m_source_file_index>
211

> <i_lp_mmshare_version>
43012

> <i_f3d_flags>
0

> <s_epik_input>
W0NIM11DKD1PKVtOSF1bQ0BIXShbQ0gzXSlbQ0hdMVtDSDJdW0NIMl1OKFtDSDJdW0NIMl0xKWMobltjSF1uMiljKGMyMyluW2NIXW4zW0NIXShbQ0gyXTQpW0NIMl1DNChbQ0gyXVtPSF0pW0NIMl1bT0hd

> <s_epik_cmdline>
J2VwaWtfcHl0aG9uJywgJy1waCcsICc3LjAnLCAnLXRuJywgJzgnLCAnLW1hJywgJzIwMCcsICctbWV0YWxfYmluZGluZycsICctaW1hZScsICc8aW5maWxlLm1hZT4nLCAnLW9tYWUnLCAnPG91dGZpbGUubWFlPic=

> <r_lp_tautomer_probability>
1

> <r_epik_Ionization_Penalty>
0.00335435

> <r_epik_Ionization_Penalty_Charging>
0

> <r_epik_Ionization_Penalty_Neutral>
0.00335435

> <r_epik_State_Penalty>
0.00231338

> <r_epik_Charging_Adjusted_Penalty>
0.00231338

> <i_epik_Tot_Q>
0

> <i_epik_Tot_abs_Q>
0

> <r_epik_Metal_State_Penalty>
-0

> <b_epik_Metal_Only>
0

> <s_lp_Force_Field>
OPLS_2005

> <r_lp_Energy>
40.8238

> <b_lp_Chiralities_Consistent>
1

> <s_lp_Variant>
AV-unprocessed.smi:211-2

> <Gold.Version>
5.8.1

> <Gold.Id.Protein>
6NUR|6NUR_protein|mol2

> <Gold.PLP.Fitness>
45.8177

> <Gold.PLP.PLP>
-38.2591

> <Gold.PLP.part.hbond>
-3.0000

> <Gold.PLP.part.metal>
0.0000

> <Gold.PLP.part.buried>
-5.8495

> <Gold.PLP.part.nonpolar>
-30.5584

> <Gold.PLP.part.repulsive>
1.5573

> <Gold.PLP.ligand.clash>
0.0000

> <Gold.PLP.ligand.torsion>
1.1683

> <Gold.PLP.Chemscore.Hbond>
2.0000

> <Gold.PLP.Chemscore.CHOScore>
1.0000

> <Gold.PLP.Chemscore.Metal>
0.0000

> <Gold.Chemscore.Hbonds>
donor molecule, donor type, donor heavy atom, donor atom, acceptor molecule, acceptor atom, score
      L1  H    24    50       P1  7921  1.00
      L1  H    26    53       P1 10957  0.99
      L1  C    18    44       P1 10175  1.00

> <Gold.PLP.Chemscore.Internal.Correction>
0.8951

> <Gold.Rescore>
     Score         DG    S(hbond)    S(metal)    S(lipo)     H(rot)  DE(clash)    DE(int)     intcor
     10.33     -12.50       1.89        0.00      91.63       3.92       0.20       1.97       ----

> <Gold.Chemscore.Fitness>
10.3268

> <Gold.Chemscore.DG>
-12.4956

> <Gold.Chemscore.ZeroCoef>
-5.4800

> <Gold.Chemscore.Hbond>
1.8918

> <Gold.Chemscore.Metal>
0.0000

> <Gold.Chemscore.Lipo>
91.6298

> <Gold.Chemscore.Internal_Hbond>
0.0000

> <Gold.Chemscore.DEClash>
0.1989

> <Gold.Chemscore.DEInternal>
1.9700

> <Gold.Chemscore.Rot>
3.9155

> <Gold.Chemscore.Internal.Correction>
   9.000000E+99

> <Gold.Chemscore.Hbonds>
donor molecule, donor type, donor heavy atom, donor atom, acceptor molecule, acceptor atom, score
      L1  H    24    50       P1  7921  0.97
      L1  H    26    53       P1 10957  0.75

> <Gold.Chemscore.Hbond.Weighted>
-6.3185

> <Gold.Chemscore.Metal.Weighted>
-0.0000

> <Gold.Chemscore.Lipo.Weighted>
-10.7207

> <Gold.Chemscore.Internal_Hbond.Weighted>
0.0000

> <Gold.Chemscore.DEClash.Weighted>
0.1989

> <Gold.Chemscore.DEInternal.Weighted>
1.9700

> <Gold.Chemscore.Rot.Weighted>
10.0236

> <Gold.Chemscore.Internal.Correction.Weighted>
   9.000000E+99

> <Gold.Protein.RotatedTorsions>
[ 6907 6896 6895 6894 ] final -110.51 input  -60.11 | X-H torsion
[ 7974 7965 7964 7962 ] final  -92.15 input  175.53 | X-H torsion
[ 8008 7997 7996 7995 ] final  -54.32 input   59.86 | X-H torsion
[ 10167 10162 10161 10158 ] final  -83.83 input  -65.29 | X-H torsion
[ 10718 10713 10712 10709 ] final   12.56 input   66.30 | X-H torsion
[ 10763 10752 10751 10750 ] final -100.80 input  -60.55 | X-H torsion
[ 11005 11000 10999 10996 ] final   34.03 input  -57.11 | X-H torsion

> <Gold.Protein.ActiveResidues>
 VAL166  LYS551  ARG553  GLY616  TRP617  ASP618  TYR619  PRO620  LYS621  CYS622 
 ASP623  PHE694  ASN695  SER759  ASP760  ASP761  ALA762  ILE779  LEU786  VAL792 
 PHE793  MET794  SER795  GLU796  ALA797  LYS798  CYS799  TRP800  GLU811  SER814 

> <Gold.Protein.RotatedAtoms>
  150.7630  133.9371  159.3444 H   0  0  0  0  0  0  0  0  0  0  0  0  # atno 6907 bound_to 6896
  151.7275  135.0880  160.0304 H   0  0  0  0  0  0  0  0  0  0  0  0  # atno 6908 bound_to 6896
  152.3611  133.6260  159.6051 H   0  0  0  0  0  0  0  0  0  0  0  0  # atno 6909 bound_to 6896
  145.4036  140.9539  143.2273 H   0  0  0  0  0  0  0  0  0  0  0  0  # atno 7974 bound_to 7965
  154.4159  140.1179  156.5296 H   0  0  0  0  0  0  0  0  0  0  0  0  # atno 8008 bound_to 7997
  155.6619  140.3496  155.4766 H   0  0  0  0  0  0  0  0  0  0  0  0  # atno 8009 bound_to 7997
  155.9706  140.1140  157.0806 H   0  0  0  0  0  0  0  0  0  0  0  0  # atno 8010 bound_to 7997
  140.4190  143.2592  151.8916 H   0  0  0  0  0  0  0  0  0  0  0  0  # atno 10167 bound_to 10162
  157.0119  130.6120  149.5709 H   0  0  0  0  0  0  0  0  0  0  0  0  # atno 10718 bound_to 10713
  154.7608  135.4921  153.9460 H   0  0  0  0  0  0  0  0  0  0  0  0  # atno 10763 bound_to 10752
  153.1249  135.6740  153.9282 H   0  0  0  0  0  0  0  0  0  0  0  0  # atno 10764 bound_to 10752
  153.9003  135.3110  155.3427 H   0  0  0  0  0  0  0  0  0  0  0  0  # atno 10765 bound_to 10752
  140.2571  134.3236  155.7870 H   0  0  0  0  0  0  0  0  0  0  0  0  # atno 11005 bound_to 11000
  144.8357  139.5554  143.6923 LP  0  0  0  0  0  0  0  0  0  0  0  0  # atno 17320 bound_to 7965
  146.2740  139.6705  142.9276 LP  0  0  0  0  0  0  0  0  0  0  0  0  # atno 17321 bound_to 7965
  139.4782  144.5458  151.8461 LP  0  0  0  0  0  0  0  0  0  0  0  0  # atno 17342 bound_to 10162
  140.4555  144.1795  150.5901 LP  0  0  0  0  0  0  0  0  0  0  0  0  # atno 17343 bound_to 10162
  156.0133  130.5226  150.8056 LP  0  0  0  0  0  0  0  0  0  0  0  0  # atno 17370 bound_to 10713
  157.5314  131.0937  150.9950 LP  0  0  0  0  0  0  0  0  0  0  0  0  # atno 17371 bound_to 10713
  141.2195  133.7387  156.9128 LP  0  0  0  0  0  0  0  0  0  0  0  0  # atno 17394 bound_to 11000
  140.1501  134.9236  157.2581 LP  0  0  0  0  0  0  0  0  0  0  0  0  # atno 17395 bound_to 11000

$$$$
