AV-unprocessed.smi:107|AV-procd|sdf|1028|dock3
  -GOLD-   2262018 33D 1   1.00000     0.00000
 Structure written by MMmdl.
 30 31  0  0  0  0  0  0  0  0  2 V2000
  150.7116  142.9936  158.9589 C   0  0  0  0  0  0  0  0  0  0  0  0
  151.0297  142.0040  157.8516 C   0  0  0  0  0  0  0  0  0  0  0  0
  150.3181  141.9531  156.7034 C   0  0  0  0  0  0  0  0  0  0  0  0
  150.6114  141.0483  155.6960 N   0  0  0  0  0  0  0  0  0  0  0  0
  149.8102  140.9963  154.4091 C   0  0  1  0  0  0  0  0  0  0  0  0
  149.0510  139.6615  154.2935 C   0  0  0  0  0  0  0  0  0  0  0  0
  147.6222  140.0923  154.0130 C   0  0  2  0  0  0  0  0  0  0  0  0
  147.3744  140.1313  152.6198 O   0  0  0  0  0  0  0  0  0  0  0  0
  147.5633  141.4848  154.6512 C   0  0  2  0  0  0  0  0  0  0  0  0
  146.4640  142.4370  154.1490 C   0  0  0  0  0  0  0  0  0  0  0  0
  145.1872  141.9470  154.5019 O   0  0  0  0  0  0  0  0  0  0  0  0
  148.8568  142.0206  154.3973 O   0  0  0  0  0  0  0  0  0  0  0  0
  151.6969  140.1479  155.8604 C   0  0  0  0  0  0  0  0  0  0  0  0
  151.9372  139.3593  154.9458 O   0  0  0  0  0  0  0  0  0  0  0  0
  152.4201  140.1921  157.0155 N   0  5  0  0  0  0  0  0  0  0  0  0
  152.1473  141.0683  158.0242 C   0  0  0  0  0  0  0  0  0  0  0  0
  152.8063  141.0948  159.0635 O   0  0  0  0  0  0  0  0  0  0  0  0
  149.8612  143.6231  158.6964 H   0  0  0  0  0  0  0  0  0  0  0  0
  151.5674  143.6428  159.1464 H   0  0  0  0  0  0  0  0  0  0  0  0
  150.4693  142.4667  159.8825 H   0  0  0  0  0  0  0  0  0  0  0  0
  149.5003  142.6462  156.5825 H   0  0  0  0  0  0  0  0  0  0  0  0
  150.5290  141.1703  153.6065 H   0  0  0  0  0  0  0  0  0  0  0  0
  149.4841  139.0288  153.5178 H   0  0  0  0  0  0  0  0  0  0  0  0
  149.0989  139.1265  155.2432 H   0  0  0  0  0  0  0  0  0  0  0  0
  146.9011  139.4127  154.4680 H   0  0  0  0  0  0  0  0  0  0  0  0
  148.1621  139.8669  152.1693 H   0  0  0  0  0  0  0  0  0  0  0  0
  147.4644  141.3653  155.7317 H   0  0  0  0  0  0  0  0  0  0  0  0
  146.5909  143.4203  154.6025 H   0  0  0  0  0  0  0  0  0  0  0  0
  146.5179  142.5782  153.0694 H   0  0  0  0  0  0  0  0  0  0  0  0
  144.8511  141.4380  153.7801 H   0  0  0  0  0  0  0  0  0  0  0  0
  1  2  1  0  0  0  0
  1 18  1  0  0  0  0
  1 19  1  0  0  0  0
  1 20  1  0  0  0  0
  2 16  1  0  0  0  0
  2  3  2  0  0  0  0
  3  4  1  0  0  0  0
  3 21  1  0  0  0  0
  4  5  1  0  0  0  0
  4 13  1  0  0  0  0
  5 12  1  0  0  0  0
  5  6  1  0  0  0  0
  5 22  1  0  0  0  0
  6  7  1  0  0  0  0
  6 23  1  0  0  0  0
  6 24  1  0  0  0  0
  7  8  1  0  0  0  0
  7  9  1  0  0  0  0
  7 25  1  0  0  0  0
  8 26  1  0  0  0  0
  9 10  1  0  0  0  0
  9 12  1  0  0  0  0
  9 27  1  0  0  0  0
 10 11  1  0  0  0  0
 10 28  1  0  0  0  0
 10 29  1  0  0  0  0
 11 30  1  0  0  0  0
 13 14  2  0  0  0  0
 13 15  1  0  0  0  0
 15 16  1  0  0  0  0
 16 17  2  0  0  0  0
M  CHG  1  15  -1
M  END
> <s_m_source_file>
AV-unprocessed.smi

> <i_m_source_file_index>
107

> <i_lp_mmshare_version>
43012

> <i_f3d_flags>
0

> <s_epik_input>
Tz1jMVtuSF1jKD1PKW4oW2NIXWMxW0NIM10pW0NAQEhdMltDSDJdW0NAQEhdKFtPSF0pW0NASF0oTzIpW0NIMl1bT0hd

> <s_epik_cmdline>
J2VwaWtfcHl0aG9uJywgJy1waCcsICc3LjAnLCAnLXRuJywgJzgnLCAnLW1hJywgJzIwMCcsICctbWV0YWxfYmluZGluZycsICctaW1hZScsICc8aW5maWxlLm1hZT4nLCAnLW9tYWUnLCAnPG91dGZpbGUubWFlPic=

> <r_lp_tautomer_probability>
0.999537

> <r_epik_Ionization_Penalty>
3.66603

> <r_epik_Ionization_Penalty_Charging>
1.09773e-07

> <r_epik_Ionization_Penalty_Neutral>
3.66603

> <r_epik_State_Penalty>
3.66562

> <r_epik_Charging_Adjusted_Penalty>
3.66562

> <i_epik_Tot_Q>
-1

> <i_epik_Tot_abs_Q>
1

> <r_epik_Metal_State_Penalty>
0.234536

> <b_epik_Metal_Only>
1

> <s_epik_Chemistry_Notes>
This compound contains an acetal/aminal-like group ( X-CH(R)-Y where X, Y are N, S, or O) that may be acid/base labile, releasing an aldehyde.

> <s_lp_Force_Field>
OPLS_2005

> <r_lp_Energy>
39.9297

> <b_lp_Chiralities_Consistent>
1

> <s_lp_Variant>
AV-unprocessed.smi:107-16

> <Gold.Version>
5.8.1

> <Gold.Id.Protein>
6NUR|6NUR_protein|mol2

> <Gold.PLP.Fitness>
46.3687

> <Gold.PLP.PLP>
-29.8660

> <Gold.PLP.part.hbond>
-5.0000

> <Gold.PLP.part.metal>
0.0000

> <Gold.PLP.part.buried>
-1.0160

> <Gold.PLP.part.nonpolar>
-23.5571

> <Gold.PLP.part.repulsive>
1.2845

> <Gold.PLP.ligand.clash>
0.0000

> <Gold.PLP.ligand.torsion>
0.0677

> <Gold.PLP.Chemscore.Hbond>
4.5449

> <Gold.PLP.Chemscore.CHOScore>
1.0000

> <Gold.PLP.Chemscore.Metal>
0.0000

> <Gold.Chemscore.Hbonds>
donor molecule, donor type, donor heavy atom, donor atom, acceptor molecule, acceptor atom, score
      L1  H     8    26       P1  7957  1.00
      L1  H    11    30       P1 10175  1.00
      P1  H  7989  7998       L1    14  0.49
      P1  H  7997  8009       L1    15  2.00
      P1  H  8011  8017       L1    12  0.01
      L1  C     3    21       P1  8028  1.00

> <Gold.PLP.Chemscore.Internal.Correction>
0.0036

> <Gold.Rescore>
     Score         DG    S(hbond)    S(metal)    S(lipo)     H(rot)  DE(clash)    DE(int)     intcor
      9.05     -11.94       2.43        0.00      44.72       2.69       1.72       1.17       ----

> <Gold.Chemscore.Fitness>
9.0515

> <Gold.Chemscore.DG>
-11.9447

> <Gold.Chemscore.ZeroCoef>
-5.4800

> <Gold.Chemscore.Hbond>
2.4286

> <Gold.Chemscore.Metal>
0.0000

> <Gold.Chemscore.Lipo>
44.7184

> <Gold.Chemscore.Internal_Hbond>
0.0000

> <Gold.Chemscore.DEClash>
1.7233

> <Gold.Chemscore.DEInternal>
1.1699

> <Gold.Chemscore.Rot>
2.6871

> <Gold.Chemscore.Internal.Correction>
   9.000000E+99

> <Gold.Chemscore.Hbonds>
donor molecule, donor type, donor heavy atom, donor atom, acceptor molecule, acceptor atom, score
      L1  H     8    26       P1  7957  0.99
      L1  H    11    30       P1 10175  0.25
      P1  H  7989  7998       L1    14  0.03
      P1  H  7997  8009       L1    15  0.58

> <Gold.Chemscore.Hbond.Weighted>
-8.1117

> <Gold.Chemscore.Metal.Weighted>
-0.0000

> <Gold.Chemscore.Lipo.Weighted>
-5.2320

> <Gold.Chemscore.Internal_Hbond.Weighted>
0.0000

> <Gold.Chemscore.DEClash.Weighted>
1.7233

> <Gold.Chemscore.DEInternal.Weighted>
1.1699

> <Gold.Chemscore.Rot.Weighted>
6.8791

> <Gold.Chemscore.Internal.Correction.Weighted>
   9.000000E+99

> <Gold.Protein.RotatedTorsions>
[ 6907 6896 6895 6894 ] final  178.51 input  -60.11 | X-H torsion
[ 7974 7965 7964 7962 ] final   10.29 input  175.53 | X-H torsion
[ 8008 7997 7996 7995 ] final -177.77 input   59.86 | X-H torsion
[ 10167 10162 10161 10158 ] final  163.68 input  -65.29 | X-H torsion
[ 10718 10713 10712 10709 ] final  120.39 input   66.30 | X-H torsion
[ 10763 10752 10751 10750 ] final  122.36 input  -60.55 | X-H torsion
[ 11005 11000 10999 10996 ] final   -6.70 input  -57.11 | X-H torsion

> <Gold.Protein.ActiveResidues>
 VAL166  LYS551  ARG553  GLY616  TRP617  ASP618  TYR619  PRO620  LYS621  CYS622 
 ASP623  PHE694  ASN695  SER759  ASP760  ASP761  ALA762  ILE779  LEU786  VAL792 
 PHE793  MET794  SER795  GLU796  ALA797  LYS798  CYS799  TRP800  GLU811  SER814 

> <Gold.Protein.RotatedAtoms>
  151.6866  133.3311  159.3232 H   0  0  0  0  0  0  0  0  0  0  0  0  # atno 6907 bound_to 6896
  150.7798  134.6735  159.6414 H   0  0  0  0  0  0  0  0  0  0  0  0  # atno 6908 bound_to 6896
  152.3852  134.6532  160.0180 H   0  0  0  0  0  0  0  0  0  0  0  0  # atno 6909 bound_to 6896
  146.2390  139.9656  142.8453 H   0  0  0  0  0  0  0  0  0  0  0  0  # atno 7974 bound_to 7965
  156.0109  140.1240  157.0454 H   0  0  0  0  0  0  0  0  0  0  0  0  # atno 8008 bound_to 7997
  154.4275  140.1088  156.5898 H   0  0  0  0  0  0  0  0  0  0  0  0  # atno 8009 bound_to 7997
  155.6081  140.3471  155.4616 H   0  0  0  0  0  0  0  0  0  0  0  0  # atno 8010 bound_to 7997
  139.4877  144.4313  151.9067 H   0  0  0  0  0  0  0  0  0  0  0  0  # atno 10167 bound_to 10162
  157.5894  131.1066  150.8029 H   0  0  0  0  0  0  0  0  0  0  0  0  # atno 10718 bound_to 10713
  153.6285  135.3400  155.3034 H   0  0  0  0  0  0  0  0  0  0  0  0  # atno 10763 bound_to 10752
  154.8585  135.4290  154.2131 H   0  0  0  0  0  0  0  0  0  0  0  0  # atno 10764 bound_to 10752
  153.3021  135.7025  153.7267 H   0  0  0  0  0  0  0  0  0  0  0  0  # atno 10765 bound_to 10752
  140.7048  133.8959  155.8709 H   0  0  0  0  0  0  0  0  0  0  0  0  # atno 11005 bound_to 11000
  145.1730  140.9730  143.4310 LP  0  0  0  0  0  0  0  0  0  0  0  0  # atno 17320 bound_to 7965
  145.0011  139.3597  143.6167 LP  0  0  0  0  0  0  0  0  0  0  0  0  # atno 17321 bound_to 7965
  140.3760  144.2795  150.5914 LP  0  0  0  0  0  0  0  0  0  0  0  0  # atno 17342 bound_to 10162
  140.5276  143.2251  151.8290 LP  0  0  0  0  0  0  0  0  0  0  0  0  # atno 17343 bound_to 10162
  156.8455  130.5062  149.5317 LP  0  0  0  0  0  0  0  0  0  0  0  0  # atno 17370 bound_to 10713
  156.0947  130.5923  150.9793 LP  0  0  0  0  0  0  0  0  0  0  0  0  # atno 17371 bound_to 10713
  141.0133  134.0990  157.4198 LP  0  0  0  0  0  0  0  0  0  0  0  0  # atno 17394 bound_to 11000
  139.8887  135.0099  156.6636 LP  0  0  0  0  0  0  0  0  0  0  0  0  # atno 17395 bound_to 11000

$$$$
