AV-unprocessed.smi:1451|AV-procd|sdf|5900|dock4
  -GOLD-   22720 5583D 1   1.00000     0.00000
 Structure written by MMmdl.
 47 48  0  0  0  0  0  0  0  0  2 V2000
  145.4957  135.3908  150.7876 C   0  0  0  0  0  0  0  0  0  0  0  0
  144.7504  136.0783  151.9451 C   0  0  1  0  0  0  0  0  0  0  0  0
  144.7344  135.2296  153.2298 C   0  0  0  0  0  0  0  0  0  0  0  0
  146.1094  135.2293  153.9123 C   0  0  0  0  0  0  0  0  0  0  0  0
  146.6051  136.6634  154.1542 C   0  0  0  0  0  0  0  0  0  0  0  0
  146.6363  137.4376  152.8875 N   0  3  2  0  0  0  0  0  0  0  0  0
  147.2595  138.7766  153.0534 C   0  0  0  0  0  0  0  0  0  0  0  0
  148.6013  138.7299  153.8102 C   0  0  0  0  0  0  0  0  0  0  0  0
  148.5223  139.4586  155.0730 N   0  0  0  0  0  0  0  0  0  0  0  0
  149.5339  140.1107  155.6718 C   0  0  0  0  0  0  0  0  0  0  0  0
  150.6497  140.2179  155.1660 O   0  0  0  0  0  0  0  0  0  0  0  0
  149.2900  140.7044  157.0694 C   0  0  0  0  0  0  0  0  0  0  0  0
  150.5124  141.1117  157.7850 N   0  0  0  0  0  0  0  0  0  0  0  0
  150.6594  142.4872  158.0521 C   0  0  0  0  0  0  0  0  0  0  0  0
  151.7275  143.0000  158.6911 C   0  0  0  0  0  0  0  0  0  0  0  0
  151.8719  144.4976  158.9094 C   0  0  0  0  0  0  0  0  0  0  0  0
  150.7346  145.1413  158.6467 F   0  0  0  0  0  0  0  0  0  0  0  0
  152.2168  144.7552  160.1716 F   0  0  0  0  0  0  0  0  0  0  0  0
  152.8233  144.9844  158.1138 F   0  0  0  0  0  0  0  0  0  0  0  0
  152.7536  142.0571  159.0924 C   0  0  0  0  0  0  0  0  0  0  0  0
  152.6356  140.7405  158.8309 C   0  0  0  0  0  0  0  0  0  0  0  0
  151.4683  140.1985  158.1316 C   0  0  0  0  0  0  0  0  0  0  0  0
  151.3612  139.0021  157.8643 O   0  0  0  0  0  0  0  0  0  0  0  0
  145.2989  137.4904  152.2381 C   0  0  0  0  0  0  0  0  0  0  0  0
  146.5582  135.2708  150.9992 H   0  0  0  0  0  0  0  0  0  0  0  0
  145.4073  135.9699  149.8683 H   0  0  0  0  0  0  0  0  0  0  0  0
  145.0836  134.4013  150.5888 H   0  0  0  0  0  0  0  0  0  0  0  0
  143.7157  136.1910  151.6186 H   0  0  0  0  0  0  0  0  0  0  0  0
  143.9949  135.6368  153.9204 H   0  0  0  0  0  0  0  0  0  0  0  0
  144.4187  134.2086  153.0124 H   0  0  0  0  0  0  0  0  0  0  0  0
  146.0533  134.6915  154.8591 H   0  0  0  0  0  0  0  0  0  0  0  0
  146.8292  134.6891  153.2970 H   0  0  0  0  0  0  0  0  0  0  0  0
  145.9627  137.1696  154.8766 H   0  0  0  0  0  0  0  0  0  0  0  0
  147.6046  136.6239  154.5890 H   0  0  0  0  0  0  0  0  0  0  0  0
  147.3791  139.2602  152.0832 H   0  0  0  0  0  0  0  0  0  0  0  0
  146.5826  139.4106  153.6279 H   0  0  0  0  0  0  0  0  0  0  0  0
  148.9154  137.6969  153.9655 H   0  0  0  0  0  0  0  0  0  0  0  0
  149.3800  139.1881  153.2000 H   0  0  0  0  0  0  0  0  0  0  0  0
  147.6327  139.4370  155.5509 H   0  0  0  0  0  0  0  0  0  0  0  0
  148.6313  141.5677  156.9605 H   0  0  0  0  0  0  0  0  0  0  0  0
  148.7126  139.9851  157.6527 H   0  0  0  0  0  0  0  0  0  0  0  0
  149.8496  143.1042  157.6896 H   0  0  0  0  0  0  0  0  0  0  0  0
  153.6314  142.4083  159.6150 H   0  0  0  0  0  0  0  0  0  0  0  0
  153.4189  140.0665  159.1462 H   0  0  0  0  0  0  0  0  0  0  0  0
  145.3483  138.0596  151.3100 H   0  0  0  0  0  0  0  0  0  0  0  0
  144.6086  138.0258  152.8919 H   0  0  0  0  0  0  0  0  0  0  0  0
  147.2406  136.9242  152.2620 H   0  0  0  0  0  0  0  0  0  0  0  0
  1  2  1  0  0  0  0
  1 25  1  0  0  0  0
  1 26  1  0  0  0  0
  1 27  1  0  0  0  0
  2 24  1  0  0  0  0
  2  3  1  0  0  0  0
  2 28  1  0  0  0  0
  3  4  1  0  0  0  0
  3 29  1  0  0  0  0
  3 30  1  0  0  0  0
  4  5  1  0  0  0  0
  4 31  1  0  0  0  0
  4 32  1  0  0  0  0
  5  6  1  0  0  0  0
  5 33  1  0  0  0  0
  5 34  1  0  0  0  0
  6  7  1  0  0  0  0
  6 24  1  0  0  0  0
  6 47  1  0  0  0  0
  7  8  1  0  0  0  0
  7 35  1  0  0  0  0
  7 36  1  0  0  0  0
  8  9  1  0  0  0  0
  8 37  1  0  0  0  0
  8 38  1  0  0  0  0
  9 10  1  0  0  0  0
  9 39  1  0  0  0  0
 10 11  2  0  0  0  0
 10 12  1  0  0  0  0
 12 13  1  0  0  0  0
 12 40  1  0  0  0  0
 12 41  1  0  0  0  0
 13 22  1  0  0  0  0
 13 14  1  0  0  0  0
 14 15  2  0  0  0  0
 14 42  1  0  0  0  0
 15 16  1  0  0  0  0
 15 20  1  0  0  0  0
 16 17  1  0  0  0  0
 16 18  1  0  0  0  0
 16 19  1  0  0  0  0
 20 21  2  0  0  0  0
 20 43  1  0  0  0  0
 21 22  1  0  0  0  0
 21 44  1  0  0  0  0
 22 23  2  0  0  0  0
 24 45  1  0  0  0  0
 24 46  1  0  0  0  0
M  CHG  1   6   1
M  END
> <s_m_source_file>
AV-unprocessed.smi

> <i_m_source_file_index>
1451

> <i_lp_mmshare_version>
43012

> <i_f3d_flags>
0

> <s_epik_input>
W0NIM11bQ0BASF0xW0NIMl1bQ0gyXVtDSDJdTihbQ0gyXTEpW0NIMl1bQ0gyXVtOSF1DKD1PKVtDSDJdbjJbY0hdYyhDKEYpKEYpRilbY0hdW2NIXWMyPU8=

> <s_epik_cmdline>
J2VwaWtfcHl0aG9uJywgJy1waCcsICc3LjAnLCAnLXRuJywgJzgnLCAnLW1hJywgJzIwMCcsICctbWV0YWxfYmluZGluZycsICctaW1hZScsICc8aW5maWxlLm1hZT4nLCAnLW9tYWUnLCAnPG91dGZpbGUubWFlPic=

> <r_lp_tautomer_probability>
1

> <r_epik_Ionization_Penalty>
0.00192452

> <r_epik_Ionization_Penalty_Charging>
0.00192444

> <r_epik_Ionization_Penalty_Neutral>
8.16761e-08

> <r_epik_State_Penalty>
0.00131115

> <r_epik_Charging_Adjusted_Penalty>
0.00323559

> <i_epik_Tot_Q>
1

> <i_epik_Tot_abs_Q>
1

> <r_epik_Metal_State_Penalty>
-0

> <b_epik_Metal_Only>
0

> <s_lp_Force_Field>
OPLS_2005

> <r_lp_Energy>
37.139

> <b_lp_Chiralities_Consistent>
1

> <s_lp_Variant>
AV-unprocessed.smi:1451-2

> <Gold.Version>
5.8.1

> <Gold.Id.Protein>
6NUR|6NUR_protein|mol2

> <Gold.PLP.Fitness>
47.7378

> <Gold.PLP.PLP>
-40.3571

> <Gold.PLP.part.hbond>
-2.0000

> <Gold.PLP.part.metal>
0.0000

> <Gold.PLP.part.buried>
-2.1455

> <Gold.PLP.part.nonpolar>
-35.4984

> <Gold.PLP.part.repulsive>
0.0961

> <Gold.PLP.ligand.clash>
1.0528

> <Gold.PLP.ligand.torsion>
1.0928

> <Gold.PLP.Chemscore.Hbond>
3.0000

> <Gold.PLP.Chemscore.CHOScore>
0.5255

> <Gold.PLP.Chemscore.Metal>
0.0000

> <Gold.Chemscore.Hbonds>
donor molecule, donor type, donor heavy atom, donor atom, acceptor molecule, acceptor atom, score
      L1  H     6    47       P1  7948  2.00
      P1  H  7989  7998       L1    11  0.98
      L1  C    14    42       P1  8028  0.44

> <Gold.PLP.Chemscore.Internal.Correction>
0.0424

> <Gold.Rescore>
     Score         DG    S(hbond)    S(metal)    S(lipo)     H(rot)  DE(clash)    DE(int)     intcor
     15.60     -17.04       1.94        0.00      88.85       2.08       0.50       0.94       ----

> <Gold.Chemscore.Fitness>
15.5964

> <Gold.Chemscore.DG>
-17.0394

> <Gold.Chemscore.ZeroCoef>
-5.4800

> <Gold.Chemscore.Hbond>
1.9400

> <Gold.Chemscore.Metal>
0.0000

> <Gold.Chemscore.Lipo>
88.8450

> <Gold.Chemscore.Internal_Hbond>
0.0000

> <Gold.Chemscore.DEClash>
0.5010

> <Gold.Chemscore.DEInternal>
0.9421

> <Gold.Chemscore.Rot>
2.0762

> <Gold.Chemscore.Internal.Correction>
   9.000000E+99

> <Gold.Chemscore.Hbonds>
donor molecule, donor type, donor heavy atom, donor atom, acceptor molecule, acceptor atom, score
      L1  H     6    47       P1  7948  0.94
      P1  H  7989  7998       L1    11  0.90

> <Gold.Chemscore.Hbond.Weighted>
-6.4795

> <Gold.Chemscore.Metal.Weighted>
-0.0000

> <Gold.Chemscore.Lipo.Weighted>
-10.3949

> <Gold.Chemscore.Internal_Hbond.Weighted>
0.0000

> <Gold.Chemscore.DEClash.Weighted>
0.5010

> <Gold.Chemscore.DEInternal.Weighted>
0.9421

> <Gold.Chemscore.Rot.Weighted>
5.3150

> <Gold.Chemscore.Internal.Correction.Weighted>
   9.000000E+99

> <Gold.Protein.RotatedTorsions>
[ 6907 6896 6895 6894 ] final   -0.31 input  -60.11 | X-H torsion
[ 7974 7965 7964 7962 ] final  113.79 input  175.53 | X-H torsion
[ 8008 7997 7996 7995 ] final  -56.97 input   59.86 | X-H torsion
[ 10167 10162 10161 10158 ] final  154.71 input  -65.29 | X-H torsion
[ 10718 10713 10712 10709 ] final   82.61 input   66.30 | X-H torsion
[ 10763 10752 10751 10750 ] final   78.23 input  -60.55 | X-H torsion
[ 11005 11000 10999 10996 ] final  157.13 input  -57.11 | X-H torsion

> <Gold.Protein.ActiveResidues>
 VAL166  LYS551  ARG553  GLY616  TRP617  ASP618  TYR619  PRO620  LYS621  CYS622 
 ASP623  PHE694  ASN695  SER759  ASP760  ASP761  ALA762  ILE779  LEU786  VAL792 
 PHE793  MET794  SER795  GLU796  ALA797  LYS798  CYS799  TRP800  GLU811  SER814 

> <Gold.Protein.RotatedAtoms>
  151.5643  135.1064  159.9979 H   0  0  0  0  0  0  0  0  0  0  0  0  # atno 6907 bound_to 6896
  152.4432  133.7482  159.6690 H   0  0  0  0  0  0  0  0  0  0  0  0  # atno 6908 bound_to 6896
  150.8341  133.7974  159.3110 H   0  0  0  0  0  0  0  0  0  0  0  0  # atno 6909 bound_to 6896
  145.2125  139.2900  143.4261 H   0  0  0  0  0  0  0  0  0  0  0  0  # atno 7974 bound_to 7965
  154.4250  140.1117  156.5722 H   0  0  0  0  0  0  0  0  0  0  0  0  # atno 8008 bound_to 7997
  155.6200  140.3495  155.4630 H   0  0  0  0  0  0  0  0  0  0  0  0  # atno 8009 bound_to 7997
  156.0031  140.1203  157.0517 H   0  0  0  0  0  0  0  0  0  0  0  0  # atno 8010 bound_to 7997
  139.4822  144.5163  151.7946 H   0  0  0  0  0  0  0  0  0  0  0  0  # atno 10167 bound_to 10162
  157.6861  131.0055  150.2400 H   0  0  0  0  0  0  0  0  0  0  0  0  # atno 10718 bound_to 10713
  153.0858  135.4885  154.8594 H   0  0  0  0  0  0  0  0  0  0  0  0  # atno 10763 bound_to 10752
  154.7209  135.3039  154.9052 H   0  0  0  0  0  0  0  0  0  0  0  0  # atno 10764 bound_to 10752
  153.9716  135.6800  153.4800 H   0  0  0  0  0  0  0  0  0  0  0  0  # atno 10765 bound_to 10752
  140.1741  134.8522  157.2725 H   0  0  0  0  0  0  0  0  0  0  0  0  # atno 11005 bound_to 11000
  146.3394  140.2405  142.8595 LP  0  0  0  0  0  0  0  0  0  0  0  0  # atno 17320 bound_to 7965
  144.9842  140.8488  143.5378 LP  0  0  0  0  0  0  0  0  0  0  0  0  # atno 17321 bound_to 7965
  140.4672  144.1639  150.5913 LP  0  0  0  0  0  0  0  0  0  0  0  0  # atno 17342 bound_to 10162
  140.4421  143.2522  151.9459 LP  0  0  0  0  0  0  0  0  0  0  0  0  # atno 17343 bound_to 10162
  156.3016  130.3759  149.7745 LP  0  0  0  0  0  0  0  0  0  0  0  0  # atno 17370 bound_to 10713
  156.5373  130.8284  151.3257 LP  0  0  0  0  0  0  0  0  0  0  0  0  # atno 17371 bound_to 10713
  140.2343  134.3871  155.7508 LP  0  0  0  0  0  0  0  0  0  0  0  0  # atno 17394 bound_to 11000
  141.2219  133.7231  156.8690 LP  0  0  0  0  0  0  0  0  0  0  0  0  # atno 17395 bound_to 11000

$$$$
