AV-unprocessed.smi:1708|AV-procd|sdf|6889|dock9
  -GOLD-   22720 8 93D 1   1.00000     0.00000
 Structure written by MMmdl.
 36 38  0  0  0  0  0  0  0  0  1 V2000
  153.6897  140.5085  160.1454 C   0  0  0  0  0  0  0  0  0  0  0  0
  152.8541  141.2923  159.2439 N   0  0  0  0  0  0  0  0  0  0  0  0
  152.3822  140.9138  158.0335 C   0  0  0  0  0  0  0  0  0  0  0  0
  152.5803  139.8301  157.4844 O   0  0  0  0  0  0  0  0  0  0  0  0
  151.6362  141.9290  157.5371 N   0  0  0  0  0  0  0  0  0  0  0  0
  150.9073  141.9232  156.2676 C   0  0  0  0  0  0  0  0  0  0  0  0
  150.4837  140.5016  155.8387 C   0  0  2  0  0  0  0  0  0  0  0  0
  151.5429  139.9230  155.1045 O   0  0  0  0  0  0  0  0  0  0  0  0
  149.1694  140.4861  155.0691 C   0  0  0  0  0  0  0  0  0  0  0  0
  148.6971  139.2934  154.4784 C   0  0  0  0  0  0  0  0  0  0  0  0
  147.4972  139.2932  153.7414 C   0  0  0  0  0  0  0  0  0  0  0  0
  146.7628  140.4850  153.5899 C   0  0  0  0  0  0  0  0  0  0  0  0
  147.2289  141.6772  154.1763 C   0  0  0  0  0  0  0  0  0  0  0  0
  146.5260  142.8247  154.0272 F   0  0  0  0  0  0  0  0  0  0  0  0
  148.4280  141.6775  154.9147 C   0  0  0  0  0  0  0  0  0  0  0  0
  151.6240  142.9847  158.4627 C   0  0  0  0  0  0  0  0  0  0  0  0
  150.9903  144.2400  158.4343 C   0  0  0  0  0  0  0  0  0  0  0  0
  151.1693  145.0812  159.5572 C   0  0  0  0  0  0  0  0  0  0  0  0
  151.9579  144.6638  160.6607 C   0  0  0  0  0  0  0  0  0  0  0  0
  152.5836  143.3950  160.6647 C   0  0  0  0  0  0  0  0  0  0  0  0
  152.3887  142.5801  159.5366 C   0  0  0  0  0  0  0  0  0  0  0  0
  154.0123  139.5696  159.6936 H   0  0  0  0  0  0  0  0  0  0  0  0
  153.1403  140.2737  161.0573 H   0  0  0  0  0  0  0  0  0  0  0  0
  154.5818  141.0724  160.4190 H   0  0  0  0  0  0  0  0  0  0  0  0
  150.0299  142.5650  156.3506 H   0  0  0  0  0  0  0  0  0  0  0  0
  151.5321  142.3746  155.4952 H   0  0  0  0  0  0  0  0  0  0  0  0
  150.3617  139.8894  156.7332 H   0  0  0  0  0  0  0  0  0  0  0  0
  152.1198  139.4815  155.7091 H   0  0  0  0  0  0  0  0  0  0  0  0
  149.2598  138.3770  154.5802 H   0  0  0  0  0  0  0  0  0  0  0  0
  147.1421  138.3790  153.2890 H   0  0  0  0  0  0  0  0  0  0  0  0
  145.8438  140.4847  153.0228 H   0  0  0  0  0  0  0  0  0  0  0  0
  148.7830  142.5988  155.3531 H   0  0  0  0  0  0  0  0  0  0  0  0
  150.3862  144.5537  157.5963 H   0  0  0  0  0  0  0  0  0  0  0  0
  150.6979  146.0527  159.5754 H   0  0  0  0  0  0  0  0  0  0  0  0
  152.0803  145.3215  161.5084 H   0  0  0  0  0  0  0  0  0  0  0  0
  153.1828  143.0681  161.5015 H   0  0  0  0  0  0  0  0  0  0  0  0
  1  2  1  0  0  0  0
  1 22  1  0  0  0  0
  1 23  1  0  0  0  0
  1 24  1  0  0  0  0
  2 21  1  0  0  0  0
  2  3  1  0  0  0  0
  3  4  2  0  0  0  0
  3  5  1  0  0  0  0
  5  6  1  0  0  0  0
  5 16  1  0  0  0  0
  6  7  1  0  0  0  0
  6 25  1  0  0  0  0
  6 26  1  0  0  0  0
  7  8  1  0  0  0  0
  7  9  1  0  0  0  0
  7 27  1  0  0  0  0
  8 28  1  0  0  0  0
  9 15  1  0  0  0  0
  9 10  2  0  0  0  0
 10 11  1  0  0  0  0
 10 29  1  0  0  0  0
 11 12  2  0  0  0  0
 11 30  1  0  0  0  0
 12 13  1  0  0  0  0
 12 31  1  0  0  0  0
 13 14  1  0  0  0  0
 13 15  2  0  0  0  0
 15 32  1  0  0  0  0
 16 21  2  0  0  0  0
 16 17  1  0  0  0  0
 17 18  2  0  0  0  0
 17 33  1  0  0  0  0
 18 19  1  0  0  0  0
 18 34  1  0  0  0  0
 19 20  2  0  0  0  0
 19 35  1  0  0  0  0
 20 21  1  0  0  0  0
 20 36  1  0  0  0  0
M  END
> <s_m_source_file>
AV-unprocessed.smi

> <i_m_source_file_index>
1708

> <i_lp_mmshare_version>
43012

> <i_f3d_flags>
0

> <s_epik_input>
W2NIXTFbY0hdW2NIXVtjSF1jKGMxMiluKFtDSDNdKWMoPU8pbjJbQ0gyXVtDQEhdKFtPSF0pYzNbY0hdW2NIXVtjSF1jKEYpW2NIXTM=

> <s_epik_cmdline>
J2VwaWtfcHl0aG9uJywgJy1waCcsICc3LjAnLCAnLXRuJywgJzgnLCAnLW1hJywgJzIwMCcsICctbWV0YWxfYmluZGluZycsICctaW1hZScsICc8aW5maWxlLm1hZT4nLCAnLW9tYWUnLCAnPG91dGZpbGUubWFlPic=

> <r_lp_tautomer_probability>
1

> <r_epik_Ionization_Penalty>
3.53466e-06

> <r_epik_Ionization_Penalty_Charging>
2.57375e-09

> <r_epik_Ionization_Penalty_Neutral>
3.53208e-06

> <r_epik_State_Penalty>
-0

> <r_epik_Charging_Adjusted_Penalty>
2.57375e-09

> <i_epik_Tot_Q>
0

> <i_epik_Tot_abs_Q>
0

> <r_epik_Metal_State_Penalty>
-0

> <b_epik_Metal_Only>
0

> <s_lp_Force_Field>
OPLS_2005

> <r_lp_Energy>
39.7129

> <b_lp_Chiralities_Consistent>
1

> <s_lp_Variant>
AV-unprocessed.smi:1708-1

> <Gold.Version>
5.8.1

> <Gold.Id.Protein>
6NUR|6NUR_protein|mol2

> <Gold.PLP.Fitness>
56.0232

> <Gold.PLP.PLP>
-51.7560

> <Gold.PLP.part.hbond>
-2.0000

> <Gold.PLP.part.metal>
0.0000

> <Gold.PLP.part.buried>
-6.4859

> <Gold.PLP.part.nonpolar>
-41.6668

> <Gold.PLP.part.repulsive>
0.0000

> <Gold.PLP.ligand.clash>
0.0500

> <Gold.PLP.ligand.torsion>
0.8519

> <Gold.PLP.Chemscore.Hbond>
2.0000

> <Gold.PLP.Chemscore.CHOScore>
0.0000

> <Gold.PLP.Chemscore.Metal>
0.0000

> <Gold.Chemscore.Hbonds>
donor molecule, donor type, donor heavy atom, donor atom, acceptor molecule, acceptor atom, score
      P1  H  7989  7998       L1     8  1.00
      P1  H  7997  8010       L1     4  1.00

> <Gold.PLP.Chemscore.Internal.Correction>
0.0210

> <Gold.Rescore>
     Score         DG    S(hbond)    S(metal)    S(lipo)     H(rot)  DE(clash)    DE(int)     intcor
     18.18     -20.69       1.78        0.00     119.55       1.85       0.04       2.47       ----

> <Gold.Chemscore.Fitness>
18.1751

> <Gold.Chemscore.DG>
-20.6869

> <Gold.Chemscore.ZeroCoef>
-5.4800

> <Gold.Chemscore.Hbond>
1.7805

> <Gold.Chemscore.Metal>
0.0000

> <Gold.Chemscore.Lipo>
119.5481

> <Gold.Chemscore.Internal_Hbond>
0.0000

> <Gold.Chemscore.DEClash>
0.0438

> <Gold.Chemscore.DEInternal>
2.4680

> <Gold.Chemscore.Rot>
1.8465

> <Gold.Chemscore.Internal.Correction>
   9.000000E+99

> <Gold.Chemscore.Hbonds>
donor molecule, donor type, donor heavy atom, donor atom, acceptor molecule, acceptor atom, score
      P1  H  7989  7998       L1     8  0.59
      P1  H  7997  8010       L1     4  0.33

> <Gold.Chemscore.Hbond.Weighted>
-5.9468

> <Gold.Chemscore.Metal.Weighted>
-0.0000

> <Gold.Chemscore.Lipo.Weighted>
-13.9871

> <Gold.Chemscore.Internal_Hbond.Weighted>
0.0000

> <Gold.Chemscore.DEClash.Weighted>
0.0438

> <Gold.Chemscore.DEInternal.Weighted>
2.4680

> <Gold.Chemscore.Rot.Weighted>
4.7270

> <Gold.Chemscore.Internal.Correction.Weighted>
   9.000000E+99

> <Gold.Protein.RotatedTorsions>
[ 6907 6896 6895 6894 ] final -133.74 input  -60.11 | X-H torsion
[ 7974 7965 7964 7962 ] final   61.44 input  175.53 | X-H torsion
[ 8008 7997 7996 7995 ] final   52.39 input   59.86 | X-H torsion
[ 10167 10162 10161 10158 ] final  134.97 input  -65.29 | X-H torsion
[ 10718 10713 10712 10709 ] final   88.00 input   66.30 | X-H torsion
[ 10763 10752 10751 10750 ] final   -2.54 input  -60.55 | X-H torsion
[ 11005 11000 10999 10996 ] final   42.70 input  -57.11 | X-H torsion

> <Gold.Protein.ActiveResidues>
 VAL166  LYS551  ARG553  GLY616  TRP617  ASP618  TYR619  PRO620  LYS621  CYS622 
 ASP623  PHE694  ASN695  SER759  ASP760  ASP761  ALA762  ILE779  LEU786  VAL792 
 PHE793  MET794  SER795  GLU796  ALA797  LYS798  CYS799  TRP800  GLU811  SER814 

> <Gold.Protein.RotatedAtoms>
  150.9776  133.6279  159.2727 H   0  0  0  0  0  0  0  0  0  0  0  0  # atno 6907 bound_to 6896
  151.3546  135.0890  159.9424 H   0  0  0  0  0  0  0  0  0  0  0  0  # atno 6908 bound_to 6896
  152.5204  133.9361  159.7658 H   0  0  0  0  0  0  0  0  0  0  0  0  # atno 6909 bound_to 6896
  145.8847  139.3468  143.0685 H   0  0  0  0  0  0  0  0  0  0  0  0  # atno 7974 bound_to 7965
  155.4509  140.3458  155.4301 H   0  0  0  0  0  0  0  0  0  0  0  0  # atno 8008 bound_to 7997
  156.1221  140.1490  156.9220 H   0  0  0  0  0  0  0  0  0  0  0  0  # atno 8009 bound_to 7997
  154.4831  140.0864  156.7402 H   0  0  0  0  0  0  0  0  0  0  0  0  # atno 8010 bound_to 7997
  139.5235  144.6541  151.5215 H   0  0  0  0  0  0  0  0  0  0  0  0  # atno 10167 bound_to 10162
  157.6945  131.0277  150.3208 H   0  0  0  0  0  0  0  0  0  0  0  0  # atno 10718 bound_to 10713
  153.3593  135.6989  153.6725 H   0  0  0  0  0  0  0  0  0  0  0  0  # atno 10763 bound_to 10752
  153.5419  135.3571  155.2723 H   0  0  0  0  0  0  0  0  0  0  0  0  # atno 10764 bound_to 10752
  154.8666  135.4206  154.2847 H   0  0  0  0  0  0  0  0  0  0  0  0  # atno 10765 bound_to 10752
  140.1715  134.4216  155.8254 H   0  0  0  0  0  0  0  0  0  0  0  0  # atno 11005 bound_to 11000
  145.8981  140.9261  143.0517 LP  0  0  0  0  0  0  0  0  0  0  0  0  # atno 17320 bound_to 7965
  144.6728  140.0995  143.7461 LP  0  0  0  0  0  0  0  0  0  0  0  0  # atno 17321 bound_to 7965
  140.6358  143.8986  150.6646 LP  0  0  0  0  0  0  0  0  0  0  0  0  # atno 17342 bound_to 10162
  140.2305  143.3739  152.1570 LP  0  0  0  0  0  0  0  0  0  0  0  0  # atno 17343 bound_to 10162
  156.3696  130.3861  149.7186 LP  0  0  0  0  0  0  0  0  0  0  0  0  # atno 17370 bound_to 10713
  156.4605  130.7949  151.2970 LP  0  0  0  0  0  0  0  0  0  0  0  0  # atno 17371 bound_to 10713
  141.2217  133.6958  156.7771 LP  0  0  0  0  0  0  0  0  0  0  0  0  # atno 17394 bound_to 11000
  140.2372  134.8641  157.3537 LP  0  0  0  0  0  0  0  0  0  0  0  0  # atno 17395 bound_to 11000

$$$$
