AV-unprocessed.smi:3057|AV-procd|sdf|11664|dock9
  -GOLD-   2272017 73D 1   1.00000     0.00000
 Structure written by MMmdl.
 40 42  0  0  0  0  0  0  0  0  1 V2000
  155.6213  144.7782  167.8407 C   0  0  0  0  0  0  0  0  0  0  0  0
  156.6938  143.6987  168.0841 C   0  0  2  0  0  0  0  0  0  0  0  0
  157.9557  144.2906  168.7379 C   0  0  0  0  0  0  0  0  0  0  0  0
  158.9042  144.5702  167.5627 C   0  0  0  0  0  0  0  0  0  0  0  0
  158.3910  143.6188  166.4937 C   0  0  0  0  0  0  0  0  0  0  0  0
  159.0456  143.2974  165.5033 O   0  0  0  0  0  0  0  0  0  0  0  0
  157.1814  143.1547  166.8319 N   0  0  0  0  0  0  0  0  0  0  0  0
  156.4940  141.9866  166.2750 C   0  0  2  0  0  0  0  0  0  0  0  0
  155.7266  142.3498  164.9913 C   0  0  0  0  0  0  0  0  0  0  0  0
  156.0341  141.8613  163.9028 O   0  0  0  0  0  0  0  0  0  0  0  0
  154.7307  143.2359  165.1397 N   0  0  0  0  0  0  0  0  0  0  0  0
  153.8890  143.7479  164.0622 C   0  0  0  0  0  0  0  0  0  0  0  0
  153.2073  142.6335  163.2415 C   0  0  0  0  0  0  0  0  0  0  0  0
  152.5510  143.1300  161.9639 C   0  0  0  0  0  0  0  0  0  0  0  0
  152.8371  142.5200  160.7235 C   0  0  0  0  0  0  0  0  0  0  0  0
  152.2190  143.0298  159.5658 C   0  0  0  0  0  0  0  0  0  0  0  0
  151.3384  144.1212  159.6927 C   0  0  0  0  0  0  0  0  0  0  0  0
  151.1137  144.6555  160.9773 C   0  0  0  0  0  0  0  0  0  0  0  0
  151.7040  144.1760  162.0936 N   0  0  0  0  0  0  0  0  0  0  0  0
  155.4954  141.5081  167.3598 C   0  0  0  0  0  0  0  0  0  0  0  0
  156.0054  142.2652  168.9277 S   0  0  0  0  0  0  0  0  0  0  0  0
  156.0099  145.5973  167.2347 H   0  0  0  0  0  0  0  0  0  0  0  0
  155.2733  145.2011  168.7834 H   0  0  0  0  0  0  0  0  0  0  0  0
  154.7501  144.3735  167.3252 H   0  0  0  0  0  0  0  0  0  0  0  0
  157.7463  145.1868  169.3228 H   0  0  0  0  0  0  0  0  0  0  0  0
  158.4166  143.5651  169.4101 H   0  0  0  0  0  0  0  0  0  0  0  0
  158.8083  145.5968  167.2079 H   0  0  0  0  0  0  0  0  0  0  0  0
  159.9471  144.3772  167.8155 H   0  0  0  0  0  0  0  0  0  0  0  0
  157.2277  141.2046  166.0705 H   0  0  0  0  0  0  0  0  0  0  0  0
  154.5464  143.5904  166.0671 H   0  0  0  0  0  0  0  0  0  0  0  0
  153.1439  144.4379  164.4608 H   0  0  0  0  0  0  0  0  0  0  0  0
  154.5315  144.3356  163.4059 H   0  0  0  0  0  0  0  0  0  0  0  0
  153.9399  141.8672  162.9857 H   0  0  0  0  0  0  0  0  0  0  0  0
  152.4570  142.1336  163.8551 H   0  0  0  0  0  0  0  0  0  0  0  0
  153.5214  141.6867  160.6584 H   0  0  0  0  0  0  0  0  0  0  0  0
  152.4188  142.5929  158.5986 H   0  0  0  0  0  0  0  0  0  0  0  0
  150.8467  144.5386  158.8266 H   0  0  0  0  0  0  0  0  0  0  0  0
  150.4434  145.4916  161.1116 H   0  0  0  0  0  0  0  0  0  0  0  0
  154.4772  141.8426  167.1561 H   0  0  0  0  0  0  0  0  0  0  0  0
  155.4722  140.4214  167.4454 H   0  0  0  0  0  0  0  0  0  0  0  0
  1  2  1  0  0  0  0
  1 22  1  0  0  0  0
  1 23  1  0  0  0  0
  1 24  1  0  0  0  0
  2  7  1  0  0  0  0
  2 21  1  0  0  0  0
  2  3  1  0  0  0  0
  3  4  1  0  0  0  0
  3 25  1  0  0  0  0
  3 26  1  0  0  0  0
  4  5  1  0  0  0  0
  4 27  1  0  0  0  0
  4 28  1  0  0  0  0
  5  6  2  0  0  0  0
  5  7  1  0  0  0  0
  7  8  1  0  0  0  0
  8  9  1  0  0  0  0
  8 20  1  0  0  0  0
  8 29  1  0  0  0  0
  9 10  2  0  0  0  0
  9 11  1  0  0  0  0
 11 12  1  0  0  0  0
 11 30  1  0  0  0  0
 12 13  1  0  0  0  0
 12 31  1  0  0  0  0
 12 32  1  0  0  0  0
 13 14  1  0  0  0  0
 13 33  1  0  0  0  0
 13 34  1  0  0  0  0
 14 19  1  0  0  0  0
 14 15  2  0  0  0  0
 15 16  1  0  0  0  0
 15 35  1  0  0  0  0
 16 17  2  0  0  0  0
 16 36  1  0  0  0  0
 17 18  1  0  0  0  0
 17 37  1  0  0  0  0
 18 19  2  0  0  0  0
 18 38  1  0  0  0  0
 20 21  1  0  0  0  0
 20 39  1  0  0  0  0
 20 40  1  0  0  0  0
M  END
> <s_m_source_file>
AV-unprocessed.smi

> <i_m_source_file_index>
3057

> <i_lp_mmshare_version>
43012

> <i_f3d_flags>
0

> <s_epik_input>
W0NIMl0xW0NIMl1DKD1PKU4oW0NAQF0xMltDSDNdKVtDQEhdKFtDSDJdUzIpQyg9TylbTkhdW0NIMl1bQ0gyXWMzW2NIXVtjSF1bY0hdW2NIXW4z

> <s_epik_cmdline>
J2VwaWtfcHl0aG9uJywgJy1waCcsICc3LjAnLCAnLXRuJywgJzgnLCAnLW1hJywgJzIwMCcsICctbWV0YWxfYmluZGluZycsICctaW1hZScsICc8aW5maWxlLm1hZT4nLCAnLW9tYWUnLCAnPG91dGZpbGUubWFlPic=

> <r_epik_Ionization_Penalty>
0.0249631

> <r_epik_Ionization_Penalty_Charging>
0

> <r_epik_Ionization_Penalty_Neutral>
0.0249631

> <r_epik_State_Penalty>
0.0202943

> <r_epik_Charging_Adjusted_Penalty>
0.0202943

> <i_epik_Tot_Q>
0

> <i_epik_Tot_abs_Q>
0

> <r_epik_Metal_State_Penalty>
0.0194661

> <b_epik_Metal_Only>
0

> <s_lp_Force_Field>
OPLS_2005

> <r_lp_Energy>
26.6501

> <b_lp_Chiralities_Consistent>
1

> <s_lp_Variant>
AV-unprocessed.smi:3057-4

> <Gold.Version>
5.8.1

> <Gold.Id.Protein>
6NUR|6NUR_protein|mol2

> <Gold.PLP.Fitness>
45.6971

> <Gold.PLP.PLP>
-46.0154

> <Gold.PLP.part.hbond>
-1.0000

> <Gold.PLP.part.metal>
0.0000

> <Gold.PLP.part.buried>
-7.4174

> <Gold.PLP.part.nonpolar>
-37.2899

> <Gold.PLP.part.repulsive>
0.2617

> <Gold.PLP.ligand.clash>
0.0000

> <Gold.PLP.ligand.torsion>
0.1662

> <Gold.PLP.Chemscore.Hbond>
0.0000

> <Gold.PLP.Chemscore.CHOScore>
0.0000

> <Gold.PLP.Chemscore.Metal>
0.0000

> <Gold.PLP.Chemscore.Internal.Correction>
0.0142

> <Gold.Rescore>
     Score         DG    S(hbond)    S(metal)    S(lipo)     H(rot)  DE(clash)    DE(int)     intcor
     15.22     -15.61       0.00        0.00     120.11       1.53       0.29       0.10       ----

> <Gold.Chemscore.Fitness>
15.2169

> <Gold.Chemscore.DG>
-15.6061

> <Gold.Chemscore.ZeroCoef>
-5.4800

> <Gold.Chemscore.Hbond>
0.0000

> <Gold.Chemscore.Metal>
0.0000

> <Gold.Chemscore.Lipo>
120.1093

> <Gold.Chemscore.Internal_Hbond>
0.0000

> <Gold.Chemscore.DEClash>
0.2932

> <Gold.Chemscore.DEInternal>
0.0959

> <Gold.Chemscore.Rot>
1.5339

> <Gold.Chemscore.Internal.Correction>
   9.000000E+99

> <Gold.Chemscore.Hbond.Weighted>
-0.0000

> <Gold.Chemscore.Metal.Weighted>
-0.0000

> <Gold.Chemscore.Lipo.Weighted>
-14.0528

> <Gold.Chemscore.Internal_Hbond.Weighted>
0.0000

> <Gold.Chemscore.DEClash.Weighted>
0.2932

> <Gold.Chemscore.DEInternal.Weighted>
0.0959

> <Gold.Chemscore.Rot.Weighted>
3.9267

> <Gold.Chemscore.Internal.Correction.Weighted>
   9.000000E+99

> <Gold.Protein.RotatedTorsions>
[ 6907 6896 6895 6894 ] final   99.21 input  -60.11 | X-H torsion
[ 7974 7965 7964 7962 ] final  -41.41 input  175.53 | X-H torsion
[ 8008 7997 7996 7995 ] final   -1.09 input   59.86 | X-H torsion
[ 10167 10162 10161 10158 ] final  -50.58 input  -65.29 | X-H torsion
[ 10718 10713 10712 10709 ] final   16.33 input   66.30 | X-H torsion
[ 10763 10752 10751 10750 ] final  168.16 input  -60.55 | X-H torsion
[ 11005 11000 10999 10996 ] final  -30.47 input  -57.11 | X-H torsion

> <Gold.Protein.ActiveResidues>
 VAL166  LYS551  ARG553  GLY616  TRP617  ASP618  TYR619  PRO620  LYS621  CYS622 
 ASP623  PHE694  ASN695  SER759  ASP760  ASP761  ALA762  ILE779  LEU786  VAL792 
 PHE793  MET794  SER795  GLU796  ALA797  LYS798  CYS799  TRP800  GLU811  SER814 

> <Gold.Protein.RotatedAtoms>
  152.5396  134.0464  159.8090 H   0  0  0  0  0  0  0  0  0  0  0  0  # atno 6907 bound_to 6896
  151.0612  133.5535  159.2641 H   0  0  0  0  0  0  0  0  0  0  0  0  # atno 6908 bound_to 6896
  151.2433  135.0604  159.9087 H   0  0  0  0  0  0  0  0  0  0  0  0  # atno 6909 bound_to 6896
  146.0214  140.6845  142.9177 H   0  0  0  0  0  0  0  0  0  0  0  0  # atno 7974 bound_to 7965
  154.6507  140.2568  155.7217 H   0  0  0  0  0  0  0  0  0  0  0  0  # atno 8008 bound_to 7997
  156.2573  140.2868  156.0860 H   0  0  0  0  0  0  0  0  0  0  0  0  # atno 8009 bound_to 7997
  155.1455  140.0381  157.2799 H   0  0  0  0  0  0  0  0  0  0  0  0  # atno 8010 bound_to 7997
  140.6631  143.2652  151.4380 H   0  0  0  0  0  0  0  0  0  0  0  0  # atno 10167 bound_to 10162
  157.0662  130.6329  149.5796 H   0  0  0  0  0  0  0  0  0  0  0  0  # atno 10718 bound_to 10713
  154.3645  135.2753  155.2301 H   0  0  0  0  0  0  0  0  0  0  0  0  # atno 10763 bound_to 10752
  154.4475  135.5939  153.6173 H   0  0  0  0  0  0  0  0  0  0  0  0  # atno 10764 bound_to 10752
  152.9841  135.6034  154.3869 H   0  0  0  0  0  0  0  0  0  0  0  0  # atno 10765 bound_to 10752
  140.9385  133.7293  156.1041 H   0  0  0  0  0  0  0  0  0  0  0  0  # atno 11005 bound_to 11000
  144.6991  140.3572  143.7170 LP  0  0  0  0  0  0  0  0  0  0  0  0  # atno 17320 bound_to 7965
  145.7187  139.1704  143.2497 LP  0  0  0  0  0  0  0  0  0  0  0  0  # atno 17321 bound_to 7965
  139.5870  144.1582  152.2042 LP  0  0  0  0  0  0  0  0  0  0  0  0  # atno 17342 bound_to 10162
  140.0925  144.5609  150.7045 LP  0  0  0  0  0  0  0  0  0  0  0  0  # atno 17343 bound_to 10162
  155.9963  130.5033  150.7494 LP  0  0  0  0  0  0  0  0  0  0  0  0  # atno 17370 bound_to 10713
  157.4915  131.0911  151.0422 LP  0  0  0  0  0  0  0  0  0  0  0  0  # atno 17371 bound_to 10713
  140.7766  134.3772  157.5496 LP  0  0  0  0  0  0  0  0  0  0  0  0  # atno 17394 bound_to 11000
  139.8814  134.9055  156.2902 LP  0  0  0  0  0  0  0  0  0  0  0  0  # atno 17395 bound_to 11000

$$$$
