AV-unprocessed.smi:3343|AV-procd|sdf|12893|dock4
  -GOLD-   2272019303D 1   1.00000     0.00000
 Structure written by MMmdl.
 41 42  0  0  0  0  0  0  0  0  1 V2000
  146.9863  133.3614  152.0800 C   0  0  0  0  0  0  0  0  0  0  0  0
  146.1430  133.9884  150.9510 C   0  0  2  0  0  0  0  0  0  0  0  0
  145.5761  135.3697  151.3181 C   0  0  0  0  0  0  0  0  0  0  0  0
  144.3668  135.5942  151.2573 O   0  0  0  0  0  0  0  0  0  0  0  0
  146.4785  136.2973  151.6725 N   0  0  0  0  0  0  0  0  0  0  0  0
  146.1972  137.7130  151.8747 C   0  0  0  0  0  0  0  0  0  0  0  0
  146.4436  138.1123  153.3411 C   0  0  0  0  0  0  0  0  0  0  0  0
  147.7360  138.7437  153.6135 N   0  0  0  0  0  0  0  0  0  0  0  0
  147.5504  140.0542  154.2393 C   0  0  0  0  0  0  0  0  0  0  0  0
  148.8958  140.7469  154.5250 C   0  0  0  0  0  0  0  0  0  0  0  0
  149.7356  139.9333  155.4008 N   0  0  0  0  0  0  0  0  0  0  0  0
  151.0036  140.5868  155.6856 C   0  0  0  0  0  0  0  0  0  0  0  0
  149.9330  138.6250  154.7822 C   0  0  0  0  0  0  0  0  0  0  0  0
  148.5899  137.9327  154.4881 C   0  0  0  0  0  0  0  0  0  0  0  0
  145.0627  133.1070  150.5200 N   0  0  0  0  0  0  0  0  0  0  0  0
  144.7251  132.6992  149.2945 C   0  0  0  0  0  0  0  0  0  0  0  0
  143.6359  131.9442  149.2583 N   0  0  0  0  0  0  0  0  0  0  0  0
  143.3246  131.9294  150.5882 C   0  0  0  0  0  0  0  0  0  0  0  0
  144.1401  132.6180  151.3864 N   0  0  0  0  0  0  0  0  0  0  0  0
  147.8248  134.0047  152.3481 H   0  0  0  0  0  0  0  0  0  0  0  0
  147.3989  132.4015  151.7684 H   0  0  0  0  0  0  0  0  0  0  0  0
  146.3993  133.1900  152.9834 H   0  0  0  0  0  0  0  0  0  0  0  0
  146.8031  134.1305  150.0936 H   0  0  0  0  0  0  0  0  0  0  0  0
  147.4483  136.0204  151.7123 H   0  0  0  0  0  0  0  0  0  0  0  0
  146.7723  138.3529  151.2029 H   0  0  0  0  0  0  0  0  0  0  0  0
  145.1462  137.8693  151.6294 H   0  0  0  0  0  0  0  0  0  0  0  0
  145.6616  138.8245  153.6076 H   0  0  0  0  0  0  0  0  0  0  0  0
  146.2927  137.2548  153.9993 H   0  0  0  0  0  0  0  0  0  0  0  0
  146.9526  140.6924  153.5876 H   0  0  0  0  0  0  0  0  0  0  0  0
  146.9908  139.9479  155.1699 H   0  0  0  0  0  0  0  0  0  0  0  0
  149.4141  140.9437  153.5851 H   0  0  0  0  0  0  0  0  0  0  0  0
  148.7113  141.7164  154.9888 H   0  0  0  0  0  0  0  0  0  0  0  0
  151.6088  139.9772  156.3574 H   0  0  0  0  0  0  0  0  0  0  0  0
  150.8412  141.5513  156.1678 H   0  0  0  0  0  0  0  0  0  0  0  0
  151.5750  140.7552  154.7718 H   0  0  0  0  0  0  0  0  0  0  0  0
  150.5002  138.7300  153.8559 H   0  0  0  0  0  0  0  0  0  0  0  0
  150.5272  137.9915  155.4418 H   0  0  0  0  0  0  0  0  0  0  0  0
  148.0727  137.7189  155.4248 H   0  0  0  0  0  0  0  0  0  0  0  0
  148.8032  136.9736  154.0192 H   0  0  0  0  0  0  0  0  0  0  0  0
  145.2811  132.9695  148.4086 H   0  0  0  0  0  0  0  0  0  0  0  0
  142.4667  131.4023  150.9790 H   0  0  0  0  0  0  0  0  0  0  0  0
  1  2  1  0  0  0  0
  1 20  1  0  0  0  0
  1 21  1  0  0  0  0
  1 22  1  0  0  0  0
  2  3  1  0  0  0  0
  2 15  1  0  0  0  0
  2 23  1  0  0  0  0
  3  4  2  0  0  0  0
  3  5  1  0  0  0  0
  5  6  1  0  0  0  0
  5 24  1  0  0  0  0
  6  7  1  0  0  0  0
  6 25  1  0  0  0  0
  6 26  1  0  0  0  0
  7  8  1  0  0  0  0
  7 27  1  0  0  0  0
  7 28  1  0  0  0  0
  8 14  1  0  0  0  0
  8  9  1  0  0  0  0
  9 10  1  0  0  0  0
  9 29  1  0  0  0  0
  9 30  1  0  0  0  0
 10 11  1  0  0  0  0
 10 31  1  0  0  0  0
 10 32  1  0  0  0  0
 11 12  1  0  0  0  0
 11 13  1  0  0  0  0
 12 33  1  0  0  0  0
 12 34  1  0  0  0  0
 12 35  1  0  0  0  0
 13 14  1  0  0  0  0
 13 36  1  0  0  0  0
 13 37  1  0  0  0  0
 14 38  1  0  0  0  0
 14 39  1  0  0  0  0
 15 19  1  0  0  0  0
 15 16  1  0  0  0  0
 16 17  2  0  0  0  0
 16 40  1  0  0  0  0
 17 18  1  0  0  0  0
 18 19  2  0  0  0  0
 18 41  1  0  0  0  0
M  END
> <s_m_source_file>
AV-unprocessed.smi

> <i_m_source_file_index>
3343

> <i_lp_mmshare_version>
43012

> <i_f3d_flags>
0

> <s_epik_input>
bjFbY0hdbltjSF1uMVtDQEhdKFtDSDNdKUMoPU8pW05IXVtDSDJdW0NIMl1OMltDSDJdW0NIMl1OKFtDSDNdKVtDSDJdW0NIMl0y

> <s_epik_cmdline>
J2VwaWtfcHl0aG9uJywgJy1waCcsICc3LjAnLCAnLXRuJywgJzgnLCAnLW1hJywgJzIwMCcsICctbWV0YWxfYmluZGluZycsICctaW1hZScsICc8aW5maWxlLm1hZT4nLCAnLW9tYWUnLCAnPG91dGZpbGUubWFlPic=

> <r_lp_tautomer_probability>
1

> <r_epik_Ionization_Penalty>
1.97295

> <r_epik_Ionization_Penalty_Charging>
0

> <r_epik_Ionization_Penalty_Neutral>
1.97295

> <r_epik_State_Penalty>
1.8027

> <r_epik_Charging_Adjusted_Penalty>
1.8027

> <i_epik_Tot_Q>
0

> <i_epik_Tot_abs_Q>
0

> <r_epik_Metal_State_Penalty>
1.8027

> <b_epik_Metal_Only>
0

> <s_lp_Force_Field>
OPLS_2005

> <r_lp_Energy>
39.2202

> <b_lp_Chiralities_Consistent>
1

> <s_lp_Variant>
AV-unprocessed.smi:3343-3

> <Gold.Version>
5.8.1

> <Gold.Id.Protein>
6NUR|6NUR_protein|mol2

> <Gold.PLP.Fitness>
38.5319

> <Gold.PLP.PLP>
-30.9366

> <Gold.PLP.part.hbond>
-1.9340

> <Gold.PLP.part.metal>
0.0000

> <Gold.PLP.part.buried>
-1.8001

> <Gold.PLP.part.nonpolar>
-29.0006

> <Gold.PLP.part.repulsive>
1.5327

> <Gold.PLP.ligand.clash>
0.0000

> <Gold.PLP.ligand.torsion>
1.2355

> <Gold.PLP.Chemscore.Hbond>
1.8800

> <Gold.PLP.Chemscore.CHOScore>
1.4269

> <Gold.PLP.Chemscore.Metal>
0.0000

> <Gold.Chemscore.Hbonds>
donor molecule, donor type, donor heavy atom, donor atom, acceptor molecule, acceptor atom, score
      L1  H     5    24       P1  7948  0.91
      P1  H 10785 10796       L1    17  0.90
      L1  C    16    40       P1  7921  0.77
      L1  C    18    41       P1 10952  0.58

> <Gold.PLP.Chemscore.Internal.Correction>
0.1456

> <Gold.Rescore>
     Score         DG    S(hbond)    S(metal)    S(lipo)     H(rot)  DE(clash)    DE(int)     intcor
      8.88     -11.52       1.88        0.00      54.05       2.56       0.23       2.42       ----

> <Gold.Chemscore.Fitness>
8.8779

> <Gold.Chemscore.DG>
-11.5231

> <Gold.Chemscore.ZeroCoef>
-5.4800

> <Gold.Chemscore.Hbond>
1.8764

> <Gold.Chemscore.Metal>
0.0000

> <Gold.Chemscore.Lipo>
54.0483

> <Gold.Chemscore.Internal_Hbond>
0.0000

> <Gold.Chemscore.DEClash>
0.2278

> <Gold.Chemscore.DEInternal>
2.4173

> <Gold.Chemscore.Rot>
2.5577

> <Gold.Chemscore.Internal.Correction>
   9.000000E+99

> <Gold.Chemscore.Hbonds>
donor molecule, donor type, donor heavy atom, donor atom, acceptor molecule, acceptor atom, score
      L1  H     5    24       P1  7948  0.86
      P1  H 10785 10796       L1    17  0.30

> <Gold.Chemscore.Hbond.Weighted>
-6.2671

> <Gold.Chemscore.Metal.Weighted>
-0.0000

> <Gold.Chemscore.Lipo.Weighted>
-6.3237

> <Gold.Chemscore.Internal_Hbond.Weighted>
0.0000

> <Gold.Chemscore.DEClash.Weighted>
0.2278

> <Gold.Chemscore.DEInternal.Weighted>
2.4173

> <Gold.Chemscore.Rot.Weighted>
6.5477

> <Gold.Chemscore.Internal.Correction.Weighted>
   9.000000E+99

> <Gold.Protein.RotatedTorsions>
[ 6907 6896 6895 6894 ] final   60.17 input  -60.11 | X-H torsion
[ 7974 7965 7964 7962 ] final   14.48 input  175.53 | X-H torsion
[ 8008 7997 7996 7995 ] final  131.02 input   59.86 | X-H torsion
[ 10167 10162 10161 10158 ] final  178.81 input  -65.29 | X-H torsion
[ 10718 10713 10712 10709 ] final -135.06 input   66.30 | X-H torsion
[ 10763 10752 10751 10750 ] final  -36.79 input  -60.55 | X-H torsion
[ 11005 11000 10999 10996 ] final -159.22 input  -57.11 | X-H torsion

> <Gold.Protein.ActiveResidues>
 VAL166  LYS551  ARG553  GLY616  TRP617  ASP618  TYR619  PRO620  LYS621  CYS622 
 ASP623  PHE694  ASN695  SER759  ASP760  ASP761  ALA762  ILE779  LEU786  VAL792 
 PHE793  MET794  SER795  GLU796  ALA797  LYS798  CYS799  TRP800  GLU811  SER814 

> <Gold.Protein.RotatedAtoms>
  152.3979  134.6334  160.0081 H   0  0  0  0  0  0  0  0  0  0  0  0  # atno 6907 bound_to 6896
  151.6548  133.3314  159.3168 H   0  0  0  0  0  0  0  0  0  0  0  0  # atno 6908 bound_to 6896
  150.7884  134.6931  159.6552 H   0  0  0  0  0  0  0  0  0  0  0  0  # atno 6909 bound_to 6896
  146.2304  139.9034  142.8535 H   0  0  0  0  0  0  0  0  0  0  0  0  # atno 7974 bound_to 7965
  156.2963  140.2582  156.2856 H   0  0  0  0  0  0  0  0  0  0  0  0  # atno 8008 bound_to 7997
  154.9559  140.0393  157.2185 H   0  0  0  0  0  0  0  0  0  0  0  0  # atno 8009 bound_to 7997
  154.7992  140.2825  155.5938 H   0  0  0  0  0  0  0  0  0  0  0  0  # atno 8010 bound_to 7997
  139.5309  144.2636  152.0686 H   0  0  0  0  0  0  0  0  0  0  0  0  # atno 10167 bound_to 10162
  156.2621  130.7216  151.1154 H   0  0  0  0  0  0  0  0  0  0  0  0  # atno 10718 bound_to 10713
  153.8856  135.6817  153.4764 H   0  0  0  0  0  0  0  0  0  0  0  0  # atno 10763 bound_to 10752
  153.1209  135.4740  154.9192 H   0  0  0  0  0  0  0  0  0  0  0  0  # atno 10764 bound_to 10752
  154.7647  135.3221  154.8261 H   0  0  0  0  0  0  0  0  0  0  0  0  # atno 10765 bound_to 10752
  140.6449  134.4511  157.5234 H   0  0  0  0  0  0  0  0  0  0  0  0  # atno 11005 bound_to 11000
  145.2301  140.9969  143.3996 LP  0  0  0  0  0  0  0  0  0  0  0  0  # atno 17320 bound_to 7965
  144.9538  139.4054  143.6389 LP  0  0  0  0  0  0  0  0  0  0  0  0  # atno 17321 bound_to 7965
  140.2099  144.4573  150.6390 LP  0  0  0  0  0  0  0  0  0  0  0  0  # atno 17342 bound_to 10162
  140.6487  143.2219  151.6127 LP  0  0  0  0  0  0  0  0  0  0  0  0  # atno 17343 bound_to 10162
  157.7254  131.0653  150.5953 LP  0  0  0  0  0  0  0  0  0  0  0  0  # atno 17370 bound_to 10713
  156.6042  130.4362  149.5885 LP  0  0  0  0  0  0  0  0  0  0  0  0  # atno 17371 bound_to 10713
  139.9066  134.8435  156.1682 LP  0  0  0  0  0  0  0  0  0  0  0  0  # atno 17394 bound_to 11000
  141.0579  133.6856  156.1896 LP  0  0  0  0  0  0  0  0  0  0  0  0  # atno 17395 bound_to 11000

$$$$
