AV-unprocessed.smi:584|AV-procd|sdf|2999|dock5
  -GOLD-   2262023503D 1   1.00000     0.00000
 Structure written by MMmdl.
 41 42  0  0  0  0  0  0  0  0  1 V2000
  149.1096  140.0874  156.5682 O   0  0  0  0  0  0  0  0  0  0  0  0
  149.2491  141.2234  156.1124 C   0  0  0  0  0  0  0  0  0  0  0  0
  150.6398  141.8609  155.9817 C   0  0  0  0  0  0  0  0  0  0  0  0
  151.3662  141.9483  157.2596 N   0  0  0  0  0  0  0  0  0  0  0  0
  151.1663  143.1135  158.0254 C   0  0  0  0  0  0  0  0  0  0  0  0
  151.7861  143.3343  159.2003 C   0  0  0  0  0  0  0  0  0  0  0  0
  151.5141  144.5831  160.0243 C   0  0  0  0  0  0  0  0  0  0  0  0
  152.1115  144.5144  161.2141 F   0  0  0  0  0  0  0  0  0  0  0  0
  151.9801  145.6558  159.3865 F   0  0  0  0  0  0  0  0  0  0  0  0
  150.2061  144.7534  160.2213 F   0  0  0  0  0  0  0  0  0  0  0  0
  152.6634  142.2819  159.6741 C   0  0  0  0  0  0  0  0  0  0  0  0
  152.8632  141.1596  158.9555 C   0  0  0  0  0  0  0  0  0  0  0  0
  152.2028  140.9468  157.6655 C   0  0  0  0  0  0  0  0  0  0  0  0
  152.3904  139.9327  156.9930 O   0  0  0  0  0  0  0  0  0  0  0  0
  148.2223  141.9778  155.6915 N   0  0  0  0  0  0  0  0  0  0  0  0
  146.8174  141.5796  155.6962 C   0  0  0  0  0  0  0  0  0  0  0  0
  146.6204  140.1068  155.2776 C   0  0  0  0  0  0  0  0  0  0  0  0
  147.2854  139.8396  153.9111 C   0  0  0  0  0  0  0  0  0  0  0  0
  147.1189  138.3772  153.4677 C   0  0  0  0  0  0  0  0  0  0  0  0
  145.6385  137.9712  153.4318 C   0  0  0  0  0  0  0  0  0  0  0  0
  144.9687  138.2199  154.7907 C   0  0  0  0  0  0  0  0  0  0  0  0
  145.1341  139.6819  155.2366 C   0  0  0  0  0  0  0  0  0  0  0  0
  151.2228  141.2800  155.2651 H   0  0  0  0  0  0  0  0  0  0  0  0
  150.5310  142.8464  155.5258 H   0  0  0  0  0  0  0  0  0  0  0  0
  150.4786  143.8238  157.5893 H   0  0  0  0  0  0  0  0  0  0  0  0
  153.1746  142.3977  160.6184 H   0  0  0  0  0  0  0  0  0  0  0  0
  153.5276  140.3981  159.3369 H   0  0  0  0  0  0  0  0  0  0  0  0
  148.4300  142.8983  155.3323 H   0  0  0  0  0  0  0  0  0  0  0  0
  146.3596  141.7633  156.6695 H   0  0  0  0  0  0  0  0  0  0  0  0
  146.2969  142.2304  154.9931 H   0  0  0  0  0  0  0  0  0  0  0  0
  147.1246  139.4822  156.0168 H   0  0  0  0  0  0  0  0  0  0  0  0
  146.8543  140.4987  153.1560 H   0  0  0  0  0  0  0  0  0  0  0  0
  148.3474  140.0827  153.9596 H   0  0  0  0  0  0  0  0  0  0  0  0
  147.5675  138.2339  152.4844 H   0  0  0  0  0  0  0  0  0  0  0  0
  147.6604  137.7241  154.1532 H   0  0  0  0  0  0  0  0  0  0  0  0
  145.1206  138.5395  152.6583 H   0  0  0  0  0  0  0  0  0  0  0  0
  145.5469  136.9196  153.1582 H   0  0  0  0  0  0  0  0  0  0  0  0
  143.9098  137.9655  154.7354 H   0  0  0  0  0  0  0  0  0  0  0  0
  145.4060  137.5585  155.5399 H   0  0  0  0  0  0  0  0  0  0  0  0
  144.6754  139.8003  156.2181 H   0  0  0  0  0  0  0  0  0  0  0  0
  144.5826  140.3348  154.5587 H   0  0  0  0  0  0  0  0  0  0  0  0
  1  2  2  0  0  0  0
  2  3  1  0  0  0  0
  2 15  1  0  0  0  0
  3  4  1  0  0  0  0
  3 23  1  0  0  0  0
  3 24  1  0  0  0  0
  4 13  1  0  0  0  0
  4  5  1  0  0  0  0
  5  6  2  0  0  0  0
  5 25  1  0  0  0  0
  6  7  1  0  0  0  0
  6 11  1  0  0  0  0
  7  8  1  0  0  0  0
  7  9  1  0  0  0  0
  7 10  1  0  0  0  0
 11 12  2  0  0  0  0
 11 26  1  0  0  0  0
 12 13  1  0  0  0  0
 12 27  1  0  0  0  0
 13 14  2  0  0  0  0
 15 16  1  0  0  0  0
 15 28  1  0  0  0  0
 16 17  1  0  0  0  0
 16 29  1  0  0  0  0
 16 30  1  0  0  0  0
 17 22  1  0  0  0  0
 17 18  1  0  0  0  0
 17 31  1  0  0  0  0
 18 19  1  0  0  0  0
 18 32  1  0  0  0  0
 18 33  1  0  0  0  0
 19 20  1  0  0  0  0
 19 34  1  0  0  0  0
 19 35  1  0  0  0  0
 20 21  1  0  0  0  0
 20 36  1  0  0  0  0
 20 37  1  0  0  0  0
 21 22  1  0  0  0  0
 21 38  1  0  0  0  0
 21 39  1  0  0  0  0
 22 40  1  0  0  0  0
 22 41  1  0  0  0  0
M  END
> <s_m_source_file>
AV-unprocessed.smi

> <i_m_source_file_index>
584

> <i_lp_mmshare_version>
43012

> <i_f3d_flags>
0

> <s_epik_input>
W0NIMl0xW0NIMl1bQ0gyXVtDSDJdW0NIMl1bQ0hdMVtDSDJdW05IXUMoPU8pW0NIMl1uMltjSF1jKEMoRikoRilGKVtjSF1bY0hdYzI9Tw==

> <s_epik_cmdline>
J2VwaWtfcHl0aG9uJywgJy1waCcsICc3LjAnLCAnLXRuJywgJzgnLCAnLW1hJywgJzIwMCcsICctbWV0YWxfYmluZGluZycsICctaW1hZScsICc8aW5maWxlLm1hZT4nLCAnLW9tYWUnLCAnPG91dGZpbGUubWFlPic=

> <r_lp_tautomer_probability>
1

> <r_epik_Ionization_Penalty>
3.78989e-08

> <r_epik_Ionization_Penalty_Charging>
1.81011e-08

> <r_epik_Ionization_Penalty_Neutral>
1.97978e-08

> <r_epik_State_Penalty>
-0

> <r_epik_Charging_Adjusted_Penalty>
1.81011e-08

> <i_epik_Tot_Q>
0

> <i_epik_Tot_abs_Q>
0

> <r_epik_Metal_State_Penalty>
-0

> <b_epik_Metal_Only>
0

> <s_lp_Force_Field>
OPLS_2005

> <r_lp_Energy>
22.635

> <b_lp_Chiralities_Consistent>
1

> <s_lp_Variant>
AV-unprocessed.smi:584-1

> <Gold.Version>
5.8.1

> <Gold.Id.Protein>
6NUR|6NUR_protein|mol2

> <Gold.PLP.Fitness>
45.1060

> <Gold.PLP.PLP>
-38.1534

> <Gold.PLP.part.hbond>
-2.0000

> <Gold.PLP.part.metal>
0.0000

> <Gold.PLP.part.buried>
-4.9147

> <Gold.PLP.part.nonpolar>
-30.7565

> <Gold.PLP.part.repulsive>
0.0721

> <Gold.PLP.ligand.clash>
0.0000

> <Gold.PLP.ligand.torsion>
0.6426

> <Gold.PLP.Chemscore.Hbond>
2.0000

> <Gold.PLP.Chemscore.CHOScore>
0.7294

> <Gold.PLP.Chemscore.Metal>
0.0000

> <Gold.Chemscore.Hbonds>
donor molecule, donor type, donor heavy atom, donor atom, acceptor molecule, acceptor atom, score
      L1  H    15    28       P1  8028  1.00
      P1  H  7997  8009       L1    14  1.00
      L1  C     5    25       P1  8028  0.74

> <Gold.PLP.Chemscore.Internal.Correction>
0.0496

> <Gold.Rescore>
     Score         DG    S(hbond)    S(metal)    S(lipo)     H(rot)  DE(clash)    DE(int)     intcor
     14.06     -16.09       1.76        0.00      78.76       1.75       0.10       1.93       ----

> <Gold.Chemscore.Fitness>
14.0650

> <Gold.Chemscore.DG>
-16.0941

> <Gold.Chemscore.ZeroCoef>
-5.4800

> <Gold.Chemscore.Hbond>
1.7573

> <Gold.Chemscore.Metal>
0.0000

> <Gold.Chemscore.Lipo>
78.7559

> <Gold.Chemscore.Internal_Hbond>
0.0000

> <Gold.Chemscore.DEClash>
0.0983

> <Gold.Chemscore.DEInternal>
1.9308

> <Gold.Chemscore.Rot>
1.7459

> <Gold.Chemscore.Internal.Correction>
   9.000000E+99

> <Gold.Chemscore.Hbonds>
donor molecule, donor type, donor heavy atom, donor atom, acceptor molecule, acceptor atom, score
      L1  H    15    28       P1  8028  0.94
      P1  H  7997  8009       L1    14  0.24

> <Gold.Chemscore.Hbond.Weighted>
-5.8693

> <Gold.Chemscore.Metal.Weighted>
-0.0000

> <Gold.Chemscore.Lipo.Weighted>
-9.2144

> <Gold.Chemscore.Internal_Hbond.Weighted>
0.0000

> <Gold.Chemscore.DEClash.Weighted>
0.0983

> <Gold.Chemscore.DEInternal.Weighted>
1.9308

> <Gold.Chemscore.Rot.Weighted>
4.4696

> <Gold.Chemscore.Internal.Correction.Weighted>
   9.000000E+99

> <Gold.Protein.RotatedTorsions>
[ 6907 6896 6895 6894 ] final -176.33 input  -60.11 | X-H torsion
[ 7974 7965 7964 7962 ] final   53.27 input  175.53 | X-H torsion
[ 8008 7997 7996 7995 ] final  178.61 input   59.86 | X-H torsion
[ 10167 10162 10161 10158 ] final  -61.97 input  -65.29 | X-H torsion
[ 10718 10713 10712 10709 ] final   -4.19 input   66.30 | X-H torsion
[ 10763 10752 10751 10750 ] final   80.32 input  -60.55 | X-H torsion
[ 11005 11000 10999 10996 ] final  -86.07 input  -57.11 | X-H torsion

> <Gold.Protein.ActiveResidues>
 VAL166  LYS551  ARG553  GLY616  TRP617  ASP618  TYR619  PRO620  LYS621  CYS622 
 ASP623  PHE694  ASN695  SER759  ASP760  ASP761  ALA762  ILE779  LEU786  VAL792 
 PHE793  MET794  SER795  GLU796  ALA797  LYS798  CYS799  TRP800  GLU811  SER814 

> <Gold.Protein.RotatedAtoms>
  151.6030  133.3354  159.3051 H   0  0  0  0  0  0  0  0  0  0  0  0  # atno 6907 bound_to 6896
  150.8197  134.7402  159.6773 H   0  0  0  0  0  0  0  0  0  0  0  0  # atno 6908 bound_to 6896
  152.4291  134.5817  160.0001 H   0  0  0  0  0  0  0  0  0  0  0  0  # atno 6909 bound_to 6896
  145.9729  139.4167  143.0179 H   0  0  0  0  0  0  0  0  0  0  0  0  # atno 7974 bound_to 7965
  156.0527  140.1329  157.0032 H   0  0  0  0  0  0  0  0  0  0  0  0  # atno 8008 bound_to 7997
  154.4442  140.1007  156.6470 H   0  0  0  0  0  0  0  0  0  0  0  0  # atno 8009 bound_to 7997
  155.5499  140.3462  155.4468 H   0  0  0  0  0  0  0  0  0  0  0  0  # atno 8010 bound_to 7997
  140.5970  143.2353  151.6013 H   0  0  0  0  0  0  0  0  0  0  0  0  # atno 10167 bound_to 10162
  156.7649  130.5281  149.5778 H   0  0  0  0  0  0  0  0  0  0  0  0  # atno 10718 bound_to 10713
  153.1024  135.4807  154.8891 H   0  0  0  0  0  0  0  0  0  0  0  0  # atno 10763 bound_to 10752
  154.7393  135.3078  154.8758 H   0  0  0  0  0  0  0  0  0  0  0  0  # atno 10764 bound_to 10752
  153.9371  135.6838  153.4798 H   0  0  0  0  0  0  0  0  0  0  0  0  # atno 10765 bound_to 10752
  141.1634  133.7434  156.9107 H   0  0  0  0  0  0  0  0  0  0  0  0  # atno 11005 bound_to 11000
  145.7880  140.9827  143.1064 LP  0  0  0  0  0  0  0  0  0  0  0  0  # atno 17320 bound_to 7965
  144.6841  139.9647  143.7481 LP  0  0  0  0  0  0  0  0  0  0  0  0  # atno 17321 bound_to 7965
  139.5265  144.3043  152.1047 LP  0  0  0  0  0  0  0  0  0  0  0  0  # atno 17342 bound_to 10162
  140.2218  144.4459  150.6339 LP  0  0  0  0  0  0  0  0  0  0  0  0  # atno 17343 bound_to 10162
  156.1315  130.6181  151.0340 LP  0  0  0  0  0  0  0  0  0  0  0  0  # atno 17370 bound_to 10713
  157.6718  131.0860  150.7594 LP  0  0  0  0  0  0  0  0  0  0  0  0  # atno 17371 bound_to 10713
  140.1519  134.9224  157.2603 LP  0  0  0  0  0  0  0  0  0  0  0  0  # atno 17394 bound_to 11000
  140.2713  134.3457  155.7373 LP  0  0  0  0  0  0  0  0  0  0  0  0  # atno 17395 bound_to 11000

$$$$
