AV-unprocessed.smi:351|AV-procd|sdf|2400|dock8
  -GOLD-   2262022333D 1   1.00000     0.00000
 Structure written by MMmdl.
 39 40  0  0  0  0  0  0  0  0  1 V2000
  150.6023  137.3697  154.6398 C   0  0  0  0  0  0  0  0  0  0  0  0
  149.9728  138.5572  153.9359 C   0  0  0  0  0  0  0  0  0  0  0  0
  148.9537  138.3424  152.9844 C   0  0  0  0  0  0  0  0  0  0  0  0
  148.3608  139.4325  152.3221 C   0  0  0  0  0  0  0  0  0  0  0  0
  148.7871  140.7412  152.6093 C   0  0  0  0  0  0  0  0  0  0  0  0
  149.8044  140.9610  153.5574 C   0  0  0  0  0  0  0  0  0  0  0  0
  150.4096  139.8698  154.2323 C   0  0  0  0  0  0  0  0  0  0  0  0
  151.4108  140.0095  155.1714 O   0  0  0  0  0  0  0  0  0  0  0  0
  151.8286  141.3191  155.5280 C   0  0  0  0  0  0  0  0  0  0  0  0
  151.0619  141.7427  156.7942 C   0  0  0  0  0  0  0  0  0  0  0  0
  151.8493  141.5090  158.0271 N   0  0  0  0  0  0  0  0  0  0  0  0
  152.4669  142.6074  158.7043 C   0  0  0  0  0  0  0  0  0  0  0  0
  152.3317  144.0242  158.1280 C   0  0  0  0  0  0  0  0  0  0  0  0
  152.9509  144.9193  158.8992 F   0  0  0  0  0  0  0  0  0  0  0  0
  152.8778  144.1259  156.9167 F   0  0  0  0  0  0  0  0  0  0  0  0
  151.0506  144.3888  158.0646 F   0  0  0  0  0  0  0  0  0  0  0  0
  153.1780  142.3868  159.8254 C   0  0  0  0  0  0  0  0  0  0  0  0
  153.3111  141.0550  160.3472 C   0  0  0  0  0  0  0  0  0  0  0  0
  152.7316  140.0062  159.7203 C   0  0  0  0  0  0  0  0  0  0  0  0
  152.8447  138.6156  160.2172 C   0  0  0  0  0  0  0  0  0  0  0  0
  153.8411  138.4225  161.0907 N   0  0  0  0  0  0  0  0  0  0  0  0
  152.1329  137.6589  159.9119 O   0  0  0  0  0  0  0  0  0  0  0  0
  151.9432  140.2116  158.4775 C   0  0  0  0  0  0  0  0  0  0  0  0
  151.3895  139.2990  157.8565 O   0  0  0  0  0  0  0  0  0  0  0  0
  150.1014  136.4375  154.3769 H   0  0  0  0  0  0  0  0  0  0  0  0
  150.5416  137.4920  155.7215 H   0  0  0  0  0  0  0  0  0  0  0  0
  151.6529  137.2814  154.3624 H   0  0  0  0  0  0  0  0  0  0  0  0
  148.6231  137.3397  152.7574 H   0  0  0  0  0  0  0  0  0  0  0  0
  147.5812  139.2646  151.5939 H   0  0  0  0  0  0  0  0  0  0  0  0
  148.3340  141.5796  152.1011 H   0  0  0  0  0  0  0  0  0  0  0  0
  150.1032  141.9802  153.7481 H   0  0  0  0  0  0  0  0  0  0  0  0
  152.9029  141.3268  155.7161 H   0  0  0  0  0  0  0  0  0  0  0  0
  151.6258  142.0130  154.7119 H   0  0  0  0  0  0  0  0  0  0  0  0
  150.7362  142.7729  156.6900 H   0  0  0  0  0  0  0  0  0  0  0  0
  150.1159  141.1996  156.8386 H   0  0  0  0  0  0  0  0  0  0  0  0
  153.6575  143.1998  160.3501 H   0  0  0  0  0  0  0  0  0  0  0  0
  153.8911  140.9361  161.2504 H   0  0  0  0  0  0  0  0  0  0  0  0
  153.9988  137.5064  161.4843 H   0  0  0  0  0  0  0  0  0  0  0  0
  154.4336  139.1976  161.3516 H   0  0  0  0  0  0  0  0  0  0  0  0
  1  2  1  0  0  0  0
  1 25  1  0  0  0  0
  1 26  1  0  0  0  0
  1 27  1  0  0  0  0
  2  7  1  0  0  0  0
  2  3  2  0  0  0  0
  3  4  1  0  0  0  0
  3 28  1  0  0  0  0
  4  5  2  0  0  0  0
  4 29  1  0  0  0  0
  5  6  1  0  0  0  0
  5 30  1  0  0  0  0
  6  7  2  0  0  0  0
  6 31  1  0  0  0  0
  7  8  1  0  0  0  0
  8  9  1  0  0  0  0
  9 10  1  0  0  0  0
  9 32  1  0  0  0  0
  9 33  1  0  0  0  0
 10 11  1  0  0  0  0
 10 34  1  0  0  0  0
 10 35  1  0  0  0  0
 11 23  1  0  0  0  0
 11 12  1  0  0  0  0
 12 13  1  0  0  0  0
 12 17  2  0  0  0  0
 13 14  1  0  0  0  0
 13 15  1  0  0  0  0
 13 16  1  0  0  0  0
 17 18  1  0  0  0  0
 17 36  1  0  0  0  0
 18 19  2  0  0  0  0
 18 37  1  0  0  0  0
 19 20  1  0  0  0  0
 19 23  1  0  0  0  0
 20 21  1  0  0  0  0
 20 22  2  0  0  0  0
 21 38  1  0  0  0  0
 21 39  1  0  0  0  0
 23 24  2  0  0  0  0
M  END
> <s_m_source_file>
AV-unprocessed.smi

> <i_m_source_file_index>
351

> <i_lp_mmshare_version>
43012

> <i_f3d_flags>
0

> <s_epik_input>
W0NIM11jMVtjSF1bY0hdW2NIXVtjSF1jMU9bQ0gyXVtDSDJdbjJjKEMoRikoRilGKVtjSF1bY0hdYyhjMj1PKUMoPU8pW05IMl0=

> <s_epik_cmdline>
J2VwaWtfcHl0aG9uJywgJy1waCcsICc3LjAnLCAnLXRuJywgJzgnLCAnLW1hJywgJzIwMCcsICctbWV0YWxfYmluZGluZycsICctaW1hZScsICc8aW5maWxlLm1hZT4nLCAnLW9tYWUnLCAnPG91dGZpbGUubWFlPic=

> <r_lp_tautomer_probability>
1

> <r_epik_Ionization_Penalty>
1.75286e-06

> <r_epik_Ionization_Penalty_Charging>
1.15608e-09

> <r_epik_Ionization_Penalty_Neutral>
1.7517e-06

> <r_epik_State_Penalty>
-0

> <r_epik_Charging_Adjusted_Penalty>
1.15608e-09

> <i_epik_Tot_Q>
0

> <i_epik_Tot_abs_Q>
0

> <r_epik_Metal_State_Penalty>
-0

> <b_epik_Metal_Only>
0

> <s_lp_Force_Field>
OPLS_2005

> <r_lp_Energy>
33.8975

> <b_lp_Chiralities_Consistent>
1

> <s_lp_Variant>
AV-unprocessed.smi:351-1

> <Gold.Version>
5.8.1

> <Gold.Id.Protein>
6NUR|6NUR_protein|mol2

> <Gold.PLP.Fitness>
53.0008

> <Gold.PLP.PLP>
-54.5136

> <Gold.PLP.part.hbond>
-0.5452

> <Gold.PLP.part.metal>
0.0000

> <Gold.PLP.part.buried>
-6.7014

> <Gold.PLP.part.nonpolar>
-46.6973

> <Gold.PLP.part.repulsive>
0.0805

> <Gold.PLP.ligand.clash>
3.7642

> <Gold.PLP.ligand.torsion>
0.8550

> <Gold.PLP.Chemscore.Hbond>
0.0487

> <Gold.PLP.Chemscore.CHOScore>
0.0000

> <Gold.PLP.Chemscore.Metal>
0.0000

> <Gold.PLP.Chemscore.Internal.Correction>
3.8155

> <Gold.Rescore>
     Score         DG    S(hbond)    S(metal)    S(lipo)     H(rot)  DE(clash)    DE(int)     intcor
      9.39     -15.86       0.96        0.00     101.64       1.84       0.03       6.44       ----

> <Gold.Chemscore.Fitness>
9.3897

> <Gold.Chemscore.DG>
-15.8616

> <Gold.Chemscore.ZeroCoef>
-5.4800

> <Gold.Chemscore.Hbond>
0.9589

> <Gold.Chemscore.Metal>
0.0000

> <Gold.Chemscore.Lipo>
101.6426

> <Gold.Chemscore.Internal_Hbond>
0.0000

> <Gold.Chemscore.DEClash>
0.0331

> <Gold.Chemscore.DEInternal>
6.4388

> <Gold.Chemscore.Rot>
1.8412

> <Gold.Chemscore.Internal.Correction>
   9.000000E+99

> <Gold.Chemscore.Hbond.Weighted>
-3.2028

> <Gold.Chemscore.Metal.Weighted>
-0.0000

> <Gold.Chemscore.Lipo.Weighted>
-11.8922

> <Gold.Chemscore.Internal_Hbond.Weighted>
0.0000

> <Gold.Chemscore.DEClash.Weighted>
0.0331

> <Gold.Chemscore.DEInternal.Weighted>
6.4388

> <Gold.Chemscore.Rot.Weighted>
4.7134

> <Gold.Chemscore.Internal.Correction.Weighted>
   9.000000E+99

> <Gold.Protein.RotatedTorsions>
[ 6907 6896 6895 6894 ] final  124.76 input  -60.11 | X-H torsion
[ 7974 7965 7964 7962 ] final   74.73 input  175.53 | X-H torsion
[ 8008 7997 7996 7995 ] final   99.07 input   59.86 | X-H torsion
[ 10167 10162 10161 10158 ] final  -73.08 input  -65.29 | X-H torsion
[ 10718 10713 10712 10709 ] final  131.85 input   66.30 | X-H torsion
[ 10763 10752 10751 10750 ] final -167.76 input  -60.55 | X-H torsion
[ 11005 11000 10999 10996 ] final  139.32 input  -57.11 | X-H torsion

> <Gold.Protein.ActiveResidues>
 VAL166  LYS551  ARG553  GLY616  TRP617  ASP618  TYR619  PRO620  LYS621  CYS622 
 ASP623  PHE694  ASN695  SER759  ASP760  ASP761  ALA762  ILE779  LEU786  VAL792 
 PHE793  MET794  SER795  GLU796  ALA797  LYS798  CYS799  TRP800  GLU811  SER814 

> <Gold.Protein.RotatedAtoms>
  152.4050  133.6876  159.6348 H   0  0  0  0  0  0  0  0  0  0  0  0  # atno 6907 bound_to 6896
  150.7936  133.8724  159.3271 H   0  0  0  0  0  0  0  0  0  0  0  0  # atno 6908 bound_to 6896
  151.6481  135.1006  160.0206 H   0  0  0  0  0  0  0  0  0  0  0  0  # atno 6909 bound_to 6896
  145.7246  139.2661  143.1576 H   0  0  0  0  0  0  0  0  0  0  0  0  # atno 7974 bound_to 7965
  156.1068  140.3234  155.8017 H   0  0  0  0  0  0  0  0  0  0  0  0  # atno 8008 bound_to 7997
  155.4742  140.0549  157.2993 H   0  0  0  0  0  0  0  0  0  0  0  0  # atno 8009 bound_to 7997
  154.4733  140.2021  155.9955 H   0  0  0  0  0  0  0  0  0  0  0  0  # atno 8010 bound_to 7997
  140.5140  143.2341  151.7545 H   0  0  0  0  0  0  0  0  0  0  0  0  # atno 10167 bound_to 10162
  157.4927  131.1091  150.9534 H   0  0  0  0  0  0  0  0  0  0  0  0  # atno 10718 bound_to 10713
  154.6699  135.2937  154.9756 H   0  0  0  0  0  0  0  0  0  0  0  0  # atno 10763 bound_to 10752
  154.0786  135.6608  153.4838 H   0  0  0  0  0  0  0  0  0  0  0  0  # atno 10764 bound_to 10752
  153.0480  135.5192  154.7690 H   0  0  0  0  0  0  0  0  0  0  0  0  # atno 10765 bound_to 10752
  140.0246  134.9380  157.0543 H   0  0  0  0  0  0  0  0  0  0  0  0  # atno 11005 bound_to 11000
  146.0594  140.7987  142.9742 LP  0  0  0  0  0  0  0  0  0  0  0  0  # atno 17320 bound_to 7965
  144.6908  140.3173  143.7238 LP  0  0  0  0  0  0  0  0  0  0  0  0  # atno 17321 bound_to 7965
  139.4904  144.4350  151.9829 LP  0  0  0  0  0  0  0  0  0  0  0  0  # atno 17342 bound_to 10162
  140.3444  144.3165  150.5961 LP  0  0  0  0  0  0  0  0  0  0  0  0  # atno 17343 bound_to 10162
  157.0230  130.5681  149.5333 LP  0  0  0  0  0  0  0  0  0  0  0  0  # atno 17370 bound_to 10713
  156.0183  130.5277  150.8200 LP  0  0  0  0  0  0  0  0  0  0  0  0  # atno 17371 bound_to 10713
  140.4328  134.1762  155.7169 LP  0  0  0  0  0  0  0  0  0  0  0  0  # atno 17394 bound_to 11000
  141.1795  133.8444  157.1307 LP  0  0  0  0  0  0  0  0  0  0  0  0  # atno 17395 bound_to 11000

$$$$
