AV-unprocessed.smi:13|AV-procd|sdf|72|dock3
  -GOLD-   2262015193D 1   1.00000     0.00000
 Structure written by MMmdl.
 54 58  0  0  0  0  0  0  0  0  1 V2000
  148.7876  133.1792  154.8211 C   0  0  0  0  0  0  0  0  0  0  0  0
  149.5775  133.9779  155.8574 C   0  0  0  0  0  0  0  0  0  0  0  0
  149.9527  132.9976  156.9778 C   0  0  0  0  0  0  0  0  0  0  0  0
  150.7355  134.8275  155.3064 C   0  0  0  0  0  0  0  0  0  0  0  0
  150.3324  135.8508  156.2551 N   0  0  0  0  0  0  0  0  0  0  0  0
  150.5240  137.1807  155.7918 C   0  0  0  0  0  0  0  0  0  0  0  0
  150.3835  137.5061  154.4782 N   0  0  0  0  0  0  0  0  0  0  0  0
  150.5559  138.7637  154.0612 C   0  0  0  0  0  0  0  0  0  0  0  0
  150.8747  139.8426  154.7773 N   0  0  0  0  0  0  0  0  0  0  0  0
  151.0292  139.5275  156.0945 C   0  0  0  0  0  0  0  0  0  0  0  0
  150.8723  138.2375  156.6751 C   0  0  0  0  0  0  0  0  0  0  0  0
  151.0987  138.3030  158.0435 N   0  0  0  0  0  0  0  0  0  0  0  0
  151.3709  139.5608  158.2604 C   0  0  0  0  0  0  0  0  0  0  0  0
  151.3664  140.3665  157.1431 N   0  0  0  0  0  0  0  0  0  0  0  0
  151.6210  141.7991  157.0929 C   0  0  0  0  0  0  0  0  0  0  0  0
  151.4923  142.5362  158.4512 C   0  0  2  0  0  0  0  0  0  0  0  0
  150.1759  142.3001  158.9171 O   0  0  0  0  0  0  0  0  0  0  0  0
  151.7129  144.0488  158.4022 C   0  0  0  0  0  0  0  0  0  0  0  0
  152.2794  144.3569  159.7813 C   0  0  0  0  0  0  0  0  0  0  0  0
  153.1354  143.2519  160.0104 O   0  0  0  0  0  0  0  0  0  0  0  0
  152.4761  142.0777  159.5501 C   0  0  0  0  0  0  0  0  0  0  0  0
  148.9673  135.3364  156.2658 C   0  0  2  0  0  0  0  0  0  0  0  0
  148.2916  135.5634  157.6185 C   0  0  2  0  0  0  0  0  0  0  0  0
  147.9880  137.0322  157.9233 C   0  0  0  0  0  0  0  0  0  0  0  0
  148.1186  137.1343  159.4369 C   0  0  0  0  0  0  0  0  0  0  0  0
  148.6475  135.7637  159.8621 C   0  0  0  0  0  0  0  0  0  0  0  0
  149.1759  135.2068  158.6697 O   0  0  0  0  0  0  0  0  0  0  0  0
  149.3709  132.3465  154.4272 H   0  0  0  0  0  0  0  0  0  0  0  0
  148.4999  133.8009  153.9726 H   0  0  0  0  0  0  0  0  0  0  0  0
  147.8707  132.7702  155.2463 H   0  0  0  0  0  0  0  0  0  0  0  0
  150.4894  133.4933  157.7872 H   0  0  0  0  0  0  0  0  0  0  0  0
  150.5995  132.2016  156.6079 H   0  0  0  0  0  0  0  0  0  0  0  0
  149.0723  132.5259  157.4143 H   0  0  0  0  0  0  0  0  0  0  0  0
  151.7297  134.4209  155.4942 H   0  0  0  0  0  0  0  0  0  0  0  0
  150.6017  135.1278  154.2650 H   0  0  0  0  0  0  0  0  0  0  0  0
  150.4178  138.9279  153.0029 H   0  0  0  0  0  0  0  0  0  0  0  0
  151.5789  139.9354  159.2519 H   0  0  0  0  0  0  0  0  0  0  0  0
  152.6229  141.9458  156.6864 H   0  0  0  0  0  0  0  0  0  0  0  0
  150.9351  142.2364  156.3662 H   0  0  0  0  0  0  0  0  0  0  0  0
  149.7492  141.7049  158.3198 H   0  0  0  0  0  0  0  0  0  0  0  0
  152.4678  144.3178  157.6658 H   0  0  0  0  0  0  0  0  0  0  0  0
  150.8121  144.6186  158.1704 H   0  0  0  0  0  0  0  0  0  0  0  0
  152.8221  145.3019  159.8148 H   0  0  0  0  0  0  0  0  0  0  0  0
  151.4920  144.3803  160.5364 H   0  0  0  0  0  0  0  0  0  0  0  0
  151.9596  141.6082  160.3891 H   0  0  0  0  0  0  0  0  0  0  0  0
  153.2166  141.3626  159.1971 H   0  0  0  0  0  0  0  0  0  0  0  0
  148.3685  135.7213  155.4384 H   0  0  0  0  0  0  0  0  0  0  0  0
  147.3775  134.9736  157.7133 H   0  0  0  0  0  0  0  0  0  0  0  0
  148.7249  137.6815  157.4483 H   0  0  0  0  0  0  0  0  0  0  0  0
  147.0019  137.3321  157.5683 H   0  0  0  0  0  0  0  0  0  0  0  0
  148.8233  137.9235  159.7017 H   0  0  0  0  0  0  0  0  0  0  0  0
  147.1665  137.3576  159.9194 H   0  0  0  0  0  0  0  0  0  0  0  0
  149.4047  135.8271  160.6440 H   0  0  0  0  0  0  0  0  0  0  0  0
  147.8348  135.1318  160.2237 H   0  0  0  0  0  0  0  0  0  0  0  0
  1  2  1  0  0  0  0
  1 28  1  0  0  0  0
  1 29  1  0  0  0  0
  1 30  1  0  0  0  0
  2 22  1  0  0  0  0
  2  3  1  0  0  0  0
  2  4  1  0  0  0  0
  3 31  1  0  0  0  0
  3 32  1  0  0  0  0
  3 33  1  0  0  0  0
  4  5  1  0  0  0  0
  4 34  1  0  0  0  0
  4 35  1  0  0  0  0
  5  6  1  0  0  0  0
  5 22  1  0  0  0  0
  6 11  1  0  0  0  0
  6  7  2  0  0  0  0
  7  8  1  0  0  0  0
  8  9  2  0  0  0  0
  8 36  1  0  0  0  0
  9 10  1  0  0  0  0
 10 14  1  0  0  0  0
 10 11  2  0  0  0  0
 11 12  1  0  0  0  0
 12 13  2  0  0  0  0
 13 14  1  0  0  0  0
 13 37  1  0  0  0  0
 14 15  1  0  0  0  0
 15 16  1  0  0  0  0
 15 38  1  0  0  0  0
 15 39  1  0  0  0  0
 16 21  1  0  0  0  0
 16 17  1  0  0  0  0
 16 18  1  0  0  0  0
 17 40  1  0  0  0  0
 18 19  1  0  0  0  0
 18 41  1  0  0  0  0
 18 42  1  0  0  0  0
 19 20  1  0  0  0  0
 19 43  1  0  0  0  0
 19 44  1  0  0  0  0
 20 21  1  0  0  0  0
 21 45  1  0  0  0  0
 21 46  1  0  0  0  0
 22 23  1  0  0  0  0
 22 47  1  0  0  0  0
 23 27  1  0  0  0  0
 23 24  1  0  0  0  0
 23 48  1  0  0  0  0
 24 25  1  0  0  0  0
 24 49  1  0  0  0  0
 24 50  1  0  0  0  0
 25 26  1  0  0  0  0
 25 51  1  0  0  0  0
 25 52  1  0  0  0  0
 26 27  1  0  0  0  0
 26 53  1  0  0  0  0
 26 54  1  0  0  0  0
M  END
> <s_m_source_file>
AV-unprocessed.smi

> <i_m_source_file_index>
13

> <i_lp_mmshare_version>
43012

> <i_f3d_flags>
0

> <s_epik_input>
TzFbQ0gyXVtDSDJdW0NIMl1bQ0BIXTFbQ0BASF0yTihbQ0gyXUMyKFtDSDNdKVtDSDNdKWMobltjSF1uMyljKGMzNCluW2NIXW40W0NIMl1bQ0BAXTUoW09IXSlbQ0gyXVtDSDJdT1tDSDJdNQ==

> <s_epik_cmdline>
J2VwaWtfcHl0aG9uJywgJy1waCcsICc3LjAnLCAnLXRuJywgJzgnLCAnLW1hJywgJzIwMCcsICctbWV0YWxfYmluZGluZycsICctaW1hZScsICc8aW5maWxlLm1hZT4nLCAnLW9tYWUnLCAnPG91dGZpbGUubWFlPic=

> <r_lp_tautomer_probability>
1

> <r_epik_Ionization_Penalty>
0.00202764

> <r_epik_Ionization_Penalty_Charging>
0

> <r_epik_Ionization_Penalty_Neutral>
0.00202764

> <r_epik_State_Penalty>
0.00134017

> <r_epik_Charging_Adjusted_Penalty>
0.00134017

> <i_epik_Tot_Q>
0

> <i_epik_Tot_abs_Q>
0

> <r_epik_Metal_State_Penalty>
-0

> <b_epik_Metal_Only>
0

> <s_lp_Force_Field>
OPLS_2005

> <r_lp_Energy>
64.4217

> <b_lp_Chiralities_Consistent>
1

> <s_lp_Variant>
AV-unprocessed.smi:13-4

> <Gold.Version>
5.8.1

> <Gold.Id.Protein>
6NUR|6NUR_protein|mol2

> <Gold.PLP.Fitness>
44.7916

> <Gold.PLP.PLP>
-37.0375

> <Gold.PLP.part.hbond>
-2.7961

> <Gold.PLP.part.metal>
0.0000

> <Gold.PLP.part.buried>
-7.6386

> <Gold.PLP.part.nonpolar>
-27.6155

> <Gold.PLP.part.repulsive>
0.3058

> <Gold.PLP.ligand.clash>
0.0000

> <Gold.PLP.ligand.torsion>
0.8527

> <Gold.PLP.Chemscore.Hbond>
2.0000

> <Gold.PLP.Chemscore.CHOScore>
1.0000

> <Gold.PLP.Chemscore.Metal>
0.0000

> <Gold.Chemscore.Hbonds>
donor molecule, donor type, donor heavy atom, donor atom, acceptor molecule, acceptor atom, score
      P1  H  6896  6908       L1    27  0.99
      P1  H  7989  7998       L1     9  1.00
      L1  C     8    36       P1  7957  1.00

> <Gold.PLP.Chemscore.Internal.Correction>
0.4595

> <Gold.Rescore>
     Score         DG    S(hbond)    S(metal)    S(lipo)     H(rot)  DE(clash)    DE(int)     intcor
     11.69     -15.98       1.75        0.00      90.09       2.30       1.13       3.15       ----

> <Gold.Chemscore.Fitness>
11.6920

> <Gold.Chemscore.DG>
-15.9765

> <Gold.Chemscore.ZeroCoef>
-5.4800

> <Gold.Chemscore.Hbond>
1.7494

> <Gold.Chemscore.Metal>
0.0000

> <Gold.Chemscore.Lipo>
90.0906

> <Gold.Chemscore.Internal_Hbond>
0.0000

> <Gold.Chemscore.DEClash>
1.1338

> <Gold.Chemscore.DEInternal>
3.1507

> <Gold.Chemscore.Rot>
2.2996

> <Gold.Chemscore.Internal.Correction>
   9.000000E+99

> <Gold.Chemscore.Hbonds>
donor molecule, donor type, donor heavy atom, donor atom, acceptor molecule, acceptor atom, score
      P1  H  6896  6908       L1    27  0.24
      P1  H  7989  7998       L1     9  0.26

> <Gold.Chemscore.Hbond.Weighted>
-5.8429

> <Gold.Chemscore.Metal.Weighted>
-0.0000

> <Gold.Chemscore.Lipo.Weighted>
-10.5406

> <Gold.Chemscore.Internal_Hbond.Weighted>
0.0000

> <Gold.Chemscore.DEClash.Weighted>
1.1338

> <Gold.Chemscore.DEInternal.Weighted>
3.1507

> <Gold.Chemscore.Rot.Weighted>
5.8869

> <Gold.Chemscore.Internal.Correction.Weighted>
   9.000000E+99

> <Gold.Protein.RotatedTorsions>
[ 6907 6896 6895 6894 ] final  142.94 input  -60.11 | X-H torsion
[ 7974 7965 7964 7962 ] final   16.63 input  175.53 | X-H torsion
[ 8008 7997 7996 7995 ] final  -97.24 input   59.86 | X-H torsion
[ 10167 10162 10161 10158 ] final  -72.20 input  -65.29 | X-H torsion
[ 10718 10713 10712 10709 ] final  125.40 input   66.30 | X-H torsion
[ 10763 10752 10751 10750 ] final   -5.92 input  -60.55 | X-H torsion
[ 11005 11000 10999 10996 ] final  146.57 input  -57.11 | X-H torsion

> <Gold.Protein.ActiveResidues>
 VAL166  LYS551  ARG553  GLY616  TRP617  ASP618  TYR619  PRO620  LYS621  CYS622 
 ASP623  PHE694  ASN695  SER759  ASP760  ASP761  ALA762  ILE779  LEU786  VAL792 
 PHE793  MET794  SER795  GLU796  ALA797  LYS798  CYS799  TRP800  GLU811  SER814 

> <Gold.Protein.RotatedAtoms>
  152.2125  133.4922  159.5117 H   0  0  0  0  0  0  0  0  0  0  0  0  # atno 6907 bound_to 6896
  150.6993  134.1448  159.4127 H   0  0  0  0  0  0  0  0  0  0  0  0  # atno 6908 bound_to 6896
  151.9368  135.0231  160.0584 H   0  0  0  0  0  0  0  0  0  0  0  0  # atno 6909 bound_to 6896
  146.2243  139.8720  142.8586 H   0  0  0  0  0  0  0  0  0  0  0  0  # atno 7974 bound_to 7965
  154.7851  140.0464  157.1157 H   0  0  0  0  0  0  0  0  0  0  0  0  # atno 8008 bound_to 7997
  154.9658  140.3083  155.4990 H   0  0  0  0  0  0  0  0  0  0  0  0  # atno 8009 bound_to 7997
  156.2942  140.2262  156.4747 H   0  0  0  0  0  0  0  0  0  0  0  0  # atno 8010 bound_to 7997
  140.5211  143.2331  151.7428 H   0  0  0  0  0  0  0  0  0  0  0  0  # atno 10167 bound_to 10162
  157.5506  131.1094  150.8708 H   0  0  0  0  0  0  0  0  0  0  0  0  # atno 10718 bound_to 10713
  153.4052  135.7006  153.6398 H   0  0  0  0  0  0  0  0  0  0  0  0  # atno 10763 bound_to 10752
  153.4915  135.3672  155.2494 H   0  0  0  0  0  0  0  0  0  0  0  0  # atno 10764 bound_to 10752
  154.8713  135.4090  154.3394 H   0  0  0  0  0  0  0  0  0  0  0  0  # atno 10765 bound_to 10752
  140.0804  134.9100  157.1491 H   0  0  0  0  0  0  0  0  0  0  0  0  # atno 11005 bound_to 11000
  145.2599  141.0073  143.3832 LP  0  0  0  0  0  0  0  0  0  0  0  0  # atno 17320 bound_to 7965
  144.9307  139.4302  143.6496 LP  0  0  0  0  0  0  0  0  0  0  0  0  # atno 17321 bound_to 7965
  139.4924  144.4253  151.9933 LP  0  0  0  0  0  0  0  0  0  0  0  0  # atno 17342 bound_to 10162
  140.3350  144.3272  150.5979 LP  0  0  0  0  0  0  0  0  0  0  0  0  # atno 17343 bound_to 10162
  156.9234  130.5323  149.5279 LP  0  0  0  0  0  0  0  0  0  0  0  0  # atno 17370 bound_to 10713
  156.0573  130.5632  150.9119 LP  0  0  0  0  0  0  0  0  0  0  0  0  # atno 17371 bound_to 10713
  140.3496  134.2613  155.7200 LP  0  0  0  0  0  0  0  0  0  0  0  0  # atno 17394 bound_to 11000
  141.2044  133.7886  157.0286 LP  0  0  0  0  0  0  0  0  0  0  0  0  # atno 17395 bound_to 11000

$$$$
