AV-unprocessed.smi:99|AV-procd|sdf|877|dock10
  -GOLD-   2262017353D 1   1.00000     0.00000
 Structure written by MMmdl.
 53 56  0  0  0  0  0  0  0  0  1 V2000
  148.1236  133.1635  153.3513 O   0  0  0  0  0  0  0  0  0  0  0  0
  146.9214  132.9725  153.5467 C   0  0  0  0  0  0  0  0  0  0  0  0
  146.3460  133.0247  154.7634 O   0  0  0  0  0  0  0  0  0  0  0  0
  147.1302  133.3157  155.9079 C   0  0  0  0  0  0  0  0  0  0  0  0
  147.5731  134.7873  155.8478 C   0  0  2  0  0  0  0  0  0  0  0  0
  148.7674  134.8693  155.0694 O   0  0  0  0  0  0  0  0  0  0  0  0
  149.9019  134.9923  155.8827 C   0  0  1  0  0  0  0  0  0  0  0  0
  150.5978  136.2984  155.5672 N   0  0  0  0  0  0  0  0  0  0  0  0
  150.1714  137.1215  154.5322 C   0  0  0  0  0  0  0  0  0  0  0  0
  150.7607  138.3047  154.2391 C   0  0  0  0  0  0  0  0  0  0  0  0
  151.8959  138.7809  155.0223 C   0  0  0  0  0  0  0  0  0  0  0  0
  152.4963  139.8360  154.8308 O   0  0  0  0  0  0  0  0  0  0  0  0
  152.2822  137.9291  156.0608 N   0  0  0  0  0  0  0  0  0  0  0  0
  151.6797  136.7102  156.3761 C   0  0  0  0  0  0  0  0  0  0  0  0
  152.0899  136.0492  157.3293 O   0  0  0  0  0  0  0  0  0  0  0  0
  149.4443  134.9843  157.3483 C   0  0  2  0  0  0  0  0  0  0  0  0
  149.6087  133.6980  157.9158 O   0  0  0  0  0  0  0  0  0  0  0  0
  147.9837  135.3827  157.1953 C   0  0  2  0  0  0  0  0  0  0  0  0
  147.1616  135.0094  158.2958 O   0  0  0  0  0  0  0  0  0  0  0  0
  147.4379  135.4413  159.5446 C   0  0  0  0  0  0  0  0  0  0  0  0
  148.2540  136.3305  159.7954 O   0  0  0  0  0  0  0  0  0  0  0  0
  146.6565  134.7224  160.5911 C   0  0  0  0  0  0  0  0  0  0  0  0
  146.7804  135.1185  161.9434 C   0  0  0  0  0  0  0  0  0  0  0  0
  146.0580  134.4553  162.9543 C   0  0  0  0  0  0  0  0  0  0  0  0
  145.2028  133.3877  162.6250 C   0  0  0  0  0  0  0  0  0  0  0  0
  145.0705  132.9842  161.2835 C   0  0  0  0  0  0  0  0  0  0  0  0
  145.7919  133.6463  160.2711 C   0  0  0  0  0  0  0  0  0  0  0  0
  145.9502  132.6556  152.4603 C   0  0  0  0  0  0  0  0  0  0  0  0
  145.3957  131.3567  152.3832 C   0  0  0  0  0  0  0  0  0  0  0  0
  144.4763  131.0288  151.3679 C   0  0  0  0  0  0  0  0  0  0  0  0
  144.1015  131.9951  150.4164 C   0  0  0  0  0  0  0  0  0  0  0  0
  144.6471  133.2903  150.4813 C   0  0  0  0  0  0  0  0  0  0  0  0
  145.5658  133.6206  151.4966 C   0  0  0  0  0  0  0  0  0  0  0  0
  153.0589  138.2234  156.6350 H   0  0  0  0  0  0  0  0  0  0  0  0
  146.5263  133.1438  156.7998 H   0  0  0  0  0  0  0  0  0  0  0  0
  147.9883  132.6450  155.9553 H   0  0  0  0  0  0  0  0  0  0  0  0
  146.7835  135.3892  155.3967 H   0  0  0  0  0  0  0  0  0  0  0  0
  150.6072  134.1992  155.6263 H   0  0  0  0  0  0  0  0  0  0  0  0
  149.3298  136.8251  153.9239 H   0  0  0  0  0  0  0  0  0  0  0  0
  150.3882  138.9040  153.4209 H   0  0  0  0  0  0  0  0  0  0  0  0
  150.0076  135.7024  157.9457 H   0  0  0  0  0  0  0  0  0  0  0  0
  148.7534  133.3353  158.0899 H   0  0  0  0  0  0  0  0  0  0  0  0
  147.9436  136.4667  157.0761 H   0  0  0  0  0  0  0  0  0  0  0  0
  147.4316  135.9351  162.2204 H   0  0  0  0  0  0  0  0  0  0  0  0
  146.1613  134.7660  163.9836 H   0  0  0  0  0  0  0  0  0  0  0  0
  144.6497  132.8783  163.4004 H   0  0  0  0  0  0  0  0  0  0  0  0
  144.4146  132.1645  161.0299 H   0  0  0  0  0  0  0  0  0  0  0  0
  145.6678  133.3099  159.2520 H   0  0  0  0  0  0  0  0  0  0  0  0
  145.6677  130.5980  153.1029 H   0  0  0  0  0  0  0  0  0  0  0  0
  144.0578  130.0344  151.3198 H   0  0  0  0  0  0  0  0  0  0  0  0
  143.3965  131.7433  149.6377 H   0  0  0  0  0  0  0  0  0  0  0  0
  144.3608  134.0328  149.7513 H   0  0  0  0  0  0  0  0  0  0  0  0
  145.9667  134.6234  151.5161 H   0  0  0  0  0  0  0  0  0  0  0  0
  1  2  2  0  0  0  0
  2  3  1  0  0  0  0
  2 28  1  0  0  0  0
  3  4  1  0  0  0  0
  4  5  1  0  0  0  0
  4 35  1  0  0  0  0
  4 36  1  0  0  0  0
  5 18  1  0  0  0  0
  5  6  1  0  0  0  0
  5 37  1  0  0  0  0
  6  7  1  0  0  0  0
  7  8  1  0  0  0  0
  7 16  1  0  0  0  0
  7 38  1  0  0  0  0
  8 14  1  0  0  0  0
  8  9  1  0  0  0  0
  9 10  2  0  0  0  0
  9 39  1  0  0  0  0
 10 11  1  0  0  0  0
 10 40  1  0  0  0  0
 11 12  2  0  0  0  0
 11 13  1  0  0  0  0
 13 34  1  0  0  0  0
 13 14  1  0  0  0  0
 14 15  2  0  0  0  0
 16 17  1  0  0  0  0
 16 18  1  0  0  0  0
 16 41  1  0  0  0  0
 17 42  1  0  0  0  0
 18 19  1  0  0  0  0
 18 43  1  0  0  0  0
 19 20  1  0  0  0  0
 20 21  2  0  0  0  0
 20 22  1  0  0  0  0
 22 27  1  0  0  0  0
 22 23  2  0  0  0  0
 23 24  1  0  0  0  0
 23 44  1  0  0  0  0
 24 25  2  0  0  0  0
 24 45  1  0  0  0  0
 25 26  1  0  0  0  0
 25 46  1  0  0  0  0
 26 27  2  0  0  0  0
 26 47  1  0  0  0  0
 27 48  1  0  0  0  0
 28 33  1  0  0  0  0
 28 29  2  0  0  0  0
 29 30  1  0  0  0  0
 29 49  1  0  0  0  0
 30 31  2  0  0  0  0
 30 50  1  0  0  0  0
 31 32  1  0  0  0  0
 31 51  1  0  0  0  0
 32 33  2  0  0  0  0
 32 52  1  0  0  0  0
 33 53  1  0  0  0  0
M  END
> <s_m_source_file>
AV-unprocessed.smi

> <i_m_source_file_index>
99

> <i_lp_mmshare_version>
43012

> <i_f3d_flags>
0

> <s_epik_input>
W2NIXTFbY0hdW2NIXVtjSF1bY0hdYzFDKD1PKU9bQ0gyXVtDQEBIXTJPW0NAQEhdKG4zW2NIXVtjSF1jKD1PKVtuSF1jMz1PKVtDQEBIXShbT0hdKVtDQEhdMk9DKD1PKWM0W2NIXVtjSF1bY0hdW2NIXVtjSF00

> <s_epik_cmdline>
J2VwaWtfcHl0aG9uJywgJy1waCcsICc3LjAnLCAnLXRuJywgJzgnLCAnLW1hJywgJzIwMCcsICctbWV0YWxfYmluZGluZycsICctaW1hZScsICc8aW5maWxlLm1hZT4nLCAnLW9tYWUnLCAnPG91dGZpbGUubWFlPic=

> <r_lp_tautomer_probability>
1

> <r_epik_Ionization_Penalty>
0.00454555

> <r_epik_Ionization_Penalty_Charging>
0.0045191

> <r_epik_Ionization_Penalty_Neutral>
2.64449e-05

> <r_epik_State_Penalty>
-0

> <r_epik_Charging_Adjusted_Penalty>
0.0045191

> <i_epik_Tot_Q>
0

> <i_epik_Tot_abs_Q>
0

> <r_epik_Metal_State_Penalty>
1.27877

> <b_epik_Metal_Only>
0

> <s_epik_Chemistry_Notes>
This compound has an ester and may undergo hydrolysis at high or low pH. This compound contains an acetal/aminal-like group ( X-CH(R)-Y where X, Y are N, S, or O) that may be acid/base labile, releasing an aldehyde.

> <s_lp_Force_Field>
OPLS_2005

> <r_lp_Energy>
39.429

> <b_lp_Chiralities_Consistent>
1

> <s_lp_Variant>
AV-unprocessed.smi:99-13

> <Gold.Version>
5.8.1

> <Gold.Id.Protein>
6NUR|6NUR_protein|mol2

> <Gold.PLP.Fitness>
50.8996

> <Gold.PLP.PLP>
-43.9681

> <Gold.PLP.part.hbond>
-3.2644

> <Gold.PLP.part.metal>
0.0000

> <Gold.PLP.part.buried>
-5.5158

> <Gold.PLP.part.nonpolar>
-35.9118

> <Gold.PLP.part.repulsive>
0.5373

> <Gold.PLP.ligand.clash>
0.0000

> <Gold.PLP.ligand.torsion>
1.7993

> <Gold.PLP.Chemscore.Hbond>
2.4755

> <Gold.PLP.Chemscore.CHOScore>
1.0000

> <Gold.PLP.Chemscore.Metal>
0.0000

> <Gold.Chemscore.Hbonds>
donor molecule, donor type, donor heavy atom, donor atom, acceptor molecule, acceptor atom, score
      P1  H  6896  6909       L1    17  1.00
      P1  H  7989  7998       L1    12  0.59
      P1  H  7997  8010       L1    12  0.41
      L1  C     9    39       P1  7948  1.00

> <Gold.PLP.Chemscore.Internal.Correction>
0.1035

> <Gold.Rescore>
     Score         DG    S(hbond)    S(metal)    S(lipo)     H(rot)  DE(clash)    DE(int)     intcor
     12.03     -16.73       2.05        0.00     107.27       3.19       0.02       4.68       ----

> <Gold.Chemscore.Fitness>
12.0300

> <Gold.Chemscore.DG>
-16.7256

> <Gold.Chemscore.ZeroCoef>
-5.4800

> <Gold.Chemscore.Hbond>
2.0543

> <Gold.Chemscore.Metal>
0.0000

> <Gold.Chemscore.Lipo>
107.2750

> <Gold.Chemscore.Internal_Hbond>
0.0000

> <Gold.Chemscore.DEClash>
0.0172

> <Gold.Chemscore.DEInternal>
4.6784

> <Gold.Chemscore.Rot>
3.1903

> <Gold.Chemscore.Internal.Correction>
   9.000000E+99

> <Gold.Chemscore.Hbonds>
donor molecule, donor type, donor heavy atom, donor atom, acceptor molecule, acceptor atom, score
      P1  H  6896  6909       L1    17  0.48
      P1  H  7989  7998       L1    12  0.49
      P1  H  7997  8010       L1    12  0.39

> <Gold.Chemscore.Hbond.Weighted>
-6.8615

> <Gold.Chemscore.Metal.Weighted>
-0.0000

> <Gold.Chemscore.Lipo.Weighted>
-12.5512

> <Gold.Chemscore.Internal_Hbond.Weighted>
0.0000

> <Gold.Chemscore.DEClash.Weighted>
0.0172

> <Gold.Chemscore.DEInternal.Weighted>
4.6784

> <Gold.Chemscore.Rot.Weighted>
8.1671

> <Gold.Chemscore.Internal.Correction.Weighted>
   9.000000E+99

> <Gold.Protein.RotatedTorsions>
[ 6907 6896 6895 6894 ] final   11.15 input  -60.11 | X-H torsion
[ 7974 7965 7964 7962 ] final   20.17 input  175.53 | X-H torsion
[ 8008 7997 7996 7995 ] final   94.29 input   59.86 | X-H torsion
[ 10167 10162 10161 10158 ] final -163.76 input  -65.29 | X-H torsion
[ 10718 10713 10712 10709 ] final  145.23 input   66.30 | X-H torsion
[ 10763 10752 10751 10750 ] final  -49.03 input  -60.55 | X-H torsion
[ 11005 11000 10999 10996 ] final   55.25 input  -57.11 | X-H torsion

> <Gold.Protein.ActiveResidues>
 VAL166  LYS551  ARG553  GLY616  TRP617  ASP618  TYR619  PRO620  LYS621  CYS622 
 ASP623  PHE694  ASN695  SER759  ASP760  ASP761  ALA762  ILE779  LEU786  VAL792 
 PHE793  MET794  SER795  GLU796  ALA797  LYS798  CYS799  TRP800  GLU811  SER814 

> <Gold.Protein.RotatedAtoms>
  151.7497  135.0835  160.0328 H   0  0  0  0  0  0  0  0  0  0  0  0  # atno 6907 bound_to 6896
  152.3425  133.6079  159.5895 H   0  0  0  0  0  0  0  0  0  0  0  0  # atno 6908 bound_to 6896
  150.7488  133.9616  159.3559 H   0  0  0  0  0  0  0  0  0  0  0  0  # atno 6909 bound_to 6896
  146.2121  139.8208  142.8680 H   0  0  0  0  0  0  0  0  0  0  0  0  # atno 7974 bound_to 7965
  156.0562  140.3302  155.7408 H   0  0  0  0  0  0  0  0  0  0  0  0  # atno 8008 bound_to 7997
  155.5525  140.0611  157.2864 H   0  0  0  0  0  0  0  0  0  0  0  0  # atno 8009 bound_to 7997
  154.4459  140.1891  156.0689 H   0  0  0  0  0  0  0  0  0  0  0  0  # atno 8010 bound_to 7997
  139.6298  144.0462  152.2006 H   0  0  0  0  0  0  0  0  0  0  0  0  # atno 10167 bound_to 10162
  157.3478  131.0946  151.1027 H   0  0  0  0  0  0  0  0  0  0  0  0  # atno 10718 bound_to 10713
  154.0875  135.6582  153.4847 H   0  0  0  0  0  0  0  0  0  0  0  0  # atno 10763 bound_to 10752
  153.0333  135.5194  154.7413 H   0  0  0  0  0  0  0  0  0  0  0  0  # atno 10764 bound_to 10752
  154.6527  135.3003  154.9935 H   0  0  0  0  0  0  0  0  0  0  0  0  # atno 10765 bound_to 10752
  140.0622  134.5586  155.9139 H   0  0  0  0  0  0  0  0  0  0  0  0  # atno 11005 bound_to 11000
  145.3099  141.0217  143.3561 LP  0  0  0  0  0  0  0  0  0  0  0  0  # atno 17320 bound_to 7965
  144.8944  139.4732  143.6662 LP  0  0  0  0  0  0  0  0  0  0  0  0  # atno 17321 bound_to 7965
  140.0125  144.6213  150.7635 LP  0  0  0  0  0  0  0  0  0  0  0  0  # atno 17342 bound_to 10162
  140.7432  143.2843  151.3509 LP  0  0  0  0  0  0  0  0  0  0  0  0  # atno 17343 bound_to 10162
  157.2214  130.6483  149.5812 LP  0  0  0  0  0  0  0  0  0  0  0  0  # atno 17370 bound_to 10713
  155.9717  130.4628  150.6159 LP  0  0  0  0  0  0  0  0  0  0  0  0  # atno 17371 bound_to 10713
  141.1978  133.6598  156.5759 LP  0  0  0  0  0  0  0  0  0  0  0  0  # atno 17394 bound_to 11000
  140.3753  134.7570  157.4625 LP  0  0  0  0  0  0  0  0  0  0  0  0  # atno 17395 bound_to 11000

$$$$
