AV-unprocessed.smi:2265|AV-procd|sdf|9144|dock9
  -GOLD-   2272012353D 1   1.00000     0.00000
 Structure written by MMmdl.
 36 37  0  0  0  0  0  0  0  0  1 V2000
  153.1091  142.2554  162.0852 C   0  0  0  0  0  0  0  0  0  0  0  0
  153.1785  142.0065  160.5747 C   0  0  0  0  0  0  0  0  0  0  0  0
  152.0275  142.6783  159.8143 C   0  0  0  0  0  0  0  0  0  0  0  0
  152.3727  144.0909  159.3768 C   0  0  1  0  0  0  0  0  0  0  0  0
  152.5084  144.4404  157.9185 C   0  0  0  0  0  0  0  0  0  0  0  0
  151.3570  145.0075  158.7240 C   0  0  1  0  0  0  0  0  0  0  0  0
  150.0468  144.5089  158.4274 N   0  0  0  0  0  0  0  0  0  0  0  0
  149.1322  144.0377  159.2936 C   0  0  0  0  0  0  0  0  0  0  0  0
  149.3568  144.0295  160.5037 O   0  0  0  0  0  0  0  0  0  0  0  0
  147.9816  143.6370  158.7087 N   0  0  0  0  0  0  0  0  0  0  0  0
  146.8262  143.1316  159.3170 C   0  0  0  0  0  0  0  0  0  0  0  0
  146.1291  142.1466  158.8231 N   0  0  0  0  0  0  0  0  0  0  0  0
  144.9818  141.6698  159.4572 C   0  0  0  0  0  0  0  0  0  0  0  0
  144.5508  142.2180  160.6076 C   0  0  0  0  0  0  0  0  0  0  0  0
  145.2459  143.2830  161.1973 N   0  0  0  0  0  0  0  0  0  0  0  0
  144.7356  143.8396  162.4506 C   0  0  0  0  0  0  0  0  0  0  0  0
  146.3739  143.7855  160.6257 C   0  0  0  0  0  0  0  0  0  0  0  0
  147.0216  144.7165  161.1089 O   0  0  0  0  0  0  0  0  0  0  0  0
  153.9363  141.7647  162.5981 H   0  0  0  0  0  0  0  0  0  0  0  0
  152.1804  141.8691  162.5059 H   0  0  0  0  0  0  0  0  0  0  0  0
  153.1623  143.3206  162.3112 H   0  0  0  0  0  0  0  0  0  0  0  0
  154.1324  142.3729  160.1941 H   0  0  0  0  0  0  0  0  0  0  0  0
  153.1629  140.9324  160.3859 H   0  0  0  0  0  0  0  0  0  0  0  0
  151.7665  142.0780  158.9422 H   0  0  0  0  0  0  0  0  0  0  0  0
  151.1384  142.7217  160.4442 H   0  0  0  0  0  0  0  0  0  0  0  0
  153.0698  144.5866  160.0500 H   0  0  0  0  0  0  0  0  0  0  0  0
  153.3106  145.1207  157.6402 H   0  0  0  0  0  0  0  0  0  0  0  0
  152.2869  143.6625  157.1902 H   0  0  0  0  0  0  0  0  0  0  0  0
  151.4420  146.0692  158.9510 H   0  0  0  0  0  0  0  0  0  0  0  0
  149.7530  144.5938  157.4650 H   0  0  0  0  0  0  0  0  0  0  0  0
  147.9539  143.7293  157.7037 H   0  0  0  0  0  0  0  0  0  0  0  0
  144.4680  140.8488  158.9796 H   0  0  0  0  0  0  0  0  0  0  0  0
  143.6700  141.8826  161.1353 H   0  0  0  0  0  0  0  0  0  0  0  0
  145.4373  143.6483  163.2635 H   0  0  0  0  0  0  0  0  0  0  0  0
  143.7746  143.4106  162.7364 H   0  0  0  0  0  0  0  0  0  0  0  0
  144.5973  144.9185  162.3673 H   0  0  0  0  0  0  0  0  0  0  0  0
  1  2  1  0  0  0  0
  1 19  1  0  0  0  0
  1 20  1  0  0  0  0
  1 21  1  0  0  0  0
  2  3  1  0  0  0  0
  2 22  1  0  0  0  0
  2 23  1  0  0  0  0
  3  4  1  0  0  0  0
  3 24  1  0  0  0  0
  3 25  1  0  0  0  0
  4  6  1  0  0  0  0
  4  5  1  0  0  0  0
  4 26  1  0  0  0  0
  5  6  1  0  0  0  0
  5 27  1  0  0  0  0
  5 28  1  0  0  0  0
  6  7  1  0  0  0  0
  6 29  1  0  0  0  0
  7  8  1  0  0  0  0
  7 30  1  0  0  0  0
  8  9  2  0  0  0  0
  8 10  1  0  0  0  0
 10 11  1  0  0  0  0
 10 31  1  0  0  0  0
 11 17  1  0  0  0  0
 11 12  2  0  0  0  0
 12 13  1  0  0  0  0
 13 14  2  0  0  0  0
 13 32  1  0  0  0  0
 14 15  1  0  0  0  0
 14 33  1  0  0  0  0
 15 16  1  0  0  0  0
 15 17  1  0  0  0  0
 16 34  1  0  0  0  0
 16 35  1  0  0  0  0
 16 36  1  0  0  0  0
 17 18  2  0  0  0  0
M  END
> <s_m_source_file>
AV-unprocessed.smi

> <i_m_source_file_index>
2265

> <i_lp_mmshare_version>
43012

> <i_f3d_flags>
0

> <s_epik_input>
W0NIM11bQ0gyXVtDSDJdW0NAQEhdMVtDSDJdW0NASF0xW05IXUMoPU8pW05IXWMybltjSF1bY0hdbihbQ0gzXSljMj1P

> <s_epik_cmdline>
J2VwaWtfcHl0aG9uJywgJy1waCcsICc3LjAnLCAnLXRuJywgJzgnLCAnLW1hJywgJzIwMCcsICctbWV0YWxfYmluZGluZycsICctaW1hZScsICc8aW5maWxlLm1hZT4nLCAnLW9tYWUnLCAnPG91dGZpbGUubWFlPic=

> <r_lp_tautomer_probability>
1

> <r_epik_Ionization_Penalty>
0.000728552

> <r_epik_Ionization_Penalty_Charging>
1.67739e-07

> <r_epik_Ionization_Penalty_Neutral>
0.000728385

> <r_epik_State_Penalty>
-0

> <r_epik_Charging_Adjusted_Penalty>
1.67739e-07

> <i_epik_Tot_Q>
0

> <i_epik_Tot_abs_Q>
0

> <r_epik_Metal_State_Penalty>
-0

> <b_epik_Metal_Only>
0

> <s_lp_Force_Field>
OPLS_2005

> <r_lp_Energy>
43.9495

> <b_lp_Chiralities_Consistent>
1

> <s_lp_Variant>
AV-unprocessed.smi:2265-2

> <Gold.Version>
5.8.1

> <Gold.Id.Protein>
6NUR|6NUR_protein|mol2

> <Gold.PLP.Fitness>
44.5898

> <Gold.PLP.PLP>
-42.3186

> <Gold.PLP.part.hbond>
-4.4098

> <Gold.PLP.part.metal>
0.0000

> <Gold.PLP.part.buried>
-5.0719

> <Gold.PLP.part.nonpolar>
-34.8430

> <Gold.PLP.part.repulsive>
0.5671

> <Gold.PLP.ligand.clash>
0.0000

> <Gold.PLP.ligand.torsion>
0.9144

> <Gold.PLP.Chemscore.Hbond>
1.1807

> <Gold.PLP.Chemscore.CHOScore>
0.0000

> <Gold.PLP.Chemscore.Metal>
0.0000

> <Gold.Chemscore.Hbonds>
donor molecule, donor type, donor heavy atom, donor atom, acceptor molecule, acceptor atom, score
      L1  H     7    30       P1  8028  0.70
      L1  H    10    31       P1  8029  0.02
      P1  H  6933  6944       L1     9  0.42

> <Gold.PLP.Chemscore.Internal.Correction>
0.5578

> <Gold.Rescore>
     Score         DG    S(hbond)    S(metal)    S(lipo)     H(rot)  DE(clash)    DE(int)     intcor
     17.68     -19.50       2.50        0.00      80.33       1.46       0.08       1.74       ----

> <Gold.Chemscore.Fitness>
17.6814

> <Gold.Chemscore.DG>
-19.5020

> <Gold.Chemscore.ZeroCoef>
-5.4800

> <Gold.Chemscore.Hbond>
2.5037

> <Gold.Chemscore.Metal>
0.0000

> <Gold.Chemscore.Lipo>
80.3285

> <Gold.Chemscore.Internal_Hbond>
0.0000

> <Gold.Chemscore.DEClash>
0.0819

> <Gold.Chemscore.DEInternal>
1.7387

> <Gold.Chemscore.Rot>
1.4604

> <Gold.Chemscore.Internal.Correction>
   9.000000E+99

> <Gold.Chemscore.Hbonds>
donor molecule, donor type, donor heavy atom, donor atom, acceptor molecule, acceptor atom, score
      L1  H     7    30       P1  8028  0.07
      P1  H  6933  6944       L1     9  0.33

> <Gold.Chemscore.Hbond.Weighted>
-8.3623

> <Gold.Chemscore.Metal.Weighted>
-0.0000

> <Gold.Chemscore.Lipo.Weighted>
-9.3984

> <Gold.Chemscore.Internal_Hbond.Weighted>
0.0000

> <Gold.Chemscore.DEClash.Weighted>
0.0819

> <Gold.Chemscore.DEInternal.Weighted>
1.7387

> <Gold.Chemscore.Rot.Weighted>
3.7387

> <Gold.Chemscore.Internal.Correction.Weighted>
   9.000000E+99

> <Gold.Protein.RotatedTorsions>
[ 6907 6896 6895 6894 ] final  128.53 input  -60.11 | X-H torsion
[ 7974 7965 7964 7962 ] final -116.37 input  175.53 | X-H torsion
[ 8008 7997 7996 7995 ] final  143.58 input   59.86 | X-H torsion
[ 10167 10162 10161 10158 ] final   20.37 input  -65.29 | X-H torsion
[ 10718 10713 10712 10709 ] final  -24.92 input   66.30 | X-H torsion
[ 10763 10752 10751 10750 ] final    1.82 input  -60.55 | X-H torsion
[ 11005 11000 10999 10996 ] final  177.94 input  -57.11 | X-H torsion

> <Gold.Protein.ActiveResidues>
 VAL166  LYS551  ARG553  GLY616  TRP617  ASP618  TYR619  PRO620  LYS621  CYS622 
 ASP623  PHE694  ASN695  SER759  ASP760  ASP761  ALA762  ILE779  LEU786  VAL792 
 PHE793  MET794  SER795  GLU796  ALA797  LYS798  CYS799  TRP800  GLU811  SER814 

> <Gold.Protein.RotatedAtoms>
  152.3710  133.6419  159.6086 H   0  0  0  0  0  0  0  0  0  0  0  0  # atno 6907 bound_to 6896
  150.7669  133.9270  159.3424 H   0  0  0  0  0  0  0  0  0  0  0  0  # atno 6908 bound_to 6896
  151.7093  135.0917  160.0316 H   0  0  0  0  0  0  0  0  0  0  0  0  # atno 6909 bound_to 6896
  145.0975  140.8530  143.3946 H   0  0  0  0  0  0  0  0  0  0  0  0  # atno 7974 bound_to 7965
  156.2927  140.2258  156.4914 H   0  0  0  0  0  0  0  0  0  0  0  0  # atno 8008 bound_to 7997
  154.7768  140.0463  157.1116 H   0  0  0  0  0  0  0  0  0  0  0  0  # atno 8009 bound_to 7997
  154.9807  140.3078  155.4951 H   0  0  0  0  0  0  0  0  0  0  0  0  # atno 8010 bound_to 7997
  140.5509  143.9511  150.6577 H   0  0  0  0  0  0  0  0  0  0  0  0  # atno 10167 bound_to 10162
  156.4712  130.4525  149.6868 H   0  0  0  0  0  0  0  0  0  0  0  0  # atno 10718 bound_to 10713
  153.3033  135.6957  153.7183 H   0  0  0  0  0  0  0  0  0  0  0  0  # atno 10763 bound_to 10752
  153.6088  135.3448  155.2972 H   0  0  0  0  0  0  0  0  0  0  0  0  # atno 10764 bound_to 10752
  154.8556  135.4358  154.2150 H   0  0  0  0  0  0  0  0  0  0  0  0  # atno 10765 bound_to 10752
  140.3897  134.6873  157.4500 H   0  0  0  0  0  0  0  0  0  0  0  0  # atno 11005 bound_to 11000
  145.0994  139.2834  143.5694 LP  0  0  0  0  0  0  0  0  0  0  0  0  # atno 17320 bound_to 7965
  146.3530  140.0556  142.8633 LP  0  0  0  0  0  0  0  0  0  0  0  0  # atno 17321 bound_to 7965
  140.2937  143.3307  152.1038 LP  0  0  0  0  0  0  0  0  0  0  0  0  # atno 17342 bound_to 10162
  139.5027  144.6740  151.6174 LP  0  0  0  0  0  0  0  0  0  0  0  0  # atno 17343 bound_to 10162
  156.3616  130.7484  151.2457 LP  0  0  0  0  0  0  0  0  0  0  0  0  # atno 17370 bound_to 10713
  157.7491  131.0348  150.4336 LP  0  0  0  0  0  0  0  0  0  0  0  0  # atno 17371 bound_to 10713
  140.0416  134.6259  155.8973 LP  0  0  0  0  0  0  0  0  0  0  0  0  # atno 17394 bound_to 11000
  141.1895  133.6565  156.5371 LP  0  0  0  0  0  0  0  0  0  0  0  0  # atno 17395 bound_to 11000

$$$$
