AV-unprocessed.smi:2062|AV-procd|sdf|8401|dock4
  -GOLD-   2272011 83D 1   1.00000     0.00000
 Structure written by MMmdl.
 42 43  0  0  0  0  0  0  0  0  1 V2000
  150.7382  137.3197  154.6558 C   0  0  0  0  0  0  0  0  0  0  0  0
  151.4073  138.6872  154.4448 C   0  0  0  0  0  0  0  0  0  0  0  0
  152.8119  138.6829  155.0729 C   0  0  0  0  0  0  0  0  0  0  0  0
  150.5279  139.8281  155.0090 C   0  0  0  0  0  0  0  0  0  0  0  0
  149.3648  140.1912  154.1975 N   0  0  0  0  0  0  0  0  0  0  0  0
  148.7261  141.4271  154.6417 C   0  0  0  0  0  0  0  0  0  0  0  0
  147.4847  141.7679  153.7997 C   0  0  0  0  0  0  0  0  0  0  0  0
  146.5726  140.6758  153.8299 O   0  0  0  0  0  0  0  0  0  0  0  0
  147.1420  139.4643  153.3392 C   0  0  2  0  0  0  0  0  0  0  0  0
  146.0704  138.3620  153.3970 C   0  0  0  0  0  0  0  0  0  0  0  0
  146.4726  137.1800  152.6420 N   0  0  0  0  0  0  0  0  0  0  0  0
  145.6316  136.3424  152.0193 C   0  0  0  0  0  0  0  0  0  0  0  0
  144.4113  136.5021  151.9936 O   0  0  0  0  0  0  0  0  0  0  0  0
  146.2941  135.3257  151.4443 N   0  0  0  0  0  0  0  0  0  0  0  0
  145.7501  134.2313  150.7273 C   0  0  0  0  0  0  0  0  0  0  0  0
  144.4681  134.2736  150.3598 N   0  0  0  0  0  0  0  0  0  0  0  0
  144.0849  133.1269  149.6579 C   0  0  0  0  0  0  0  0  0  0  0  0
  145.0969  132.2127  149.4995 C   0  0  0  0  0  0  0  0  0  0  0  0
  146.5836  132.7565  150.2291 S   0  0  0  0  0  0  0  0  0  0  0  0
  148.3749  139.1186  154.1973 C   0  0  0  0  0  0  0  0  0  0  0  0
  150.5892  137.1099  155.7154 H   0  0  0  0  0  0  0  0  0  0  0  0
  151.3449  136.5154  154.2390 H   0  0  0  0  0  0  0  0  0  0  0  0
  149.7639  137.2794  154.1677 H   0  0  0  0  0  0  0  0  0  0  0  0
  151.5135  138.8221  153.3674 H   0  0  0  0  0  0  0  0  0  0  0  0
  152.7629  138.5104  156.1486 H   0  0  0  0  0  0  0  0  0  0  0  0
  153.3306  139.6278  154.9152 H   0  0  0  0  0  0  0  0  0  0  0  0
  153.4308  137.8965  154.6400 H   0  0  0  0  0  0  0  0  0  0  0  0
  150.1624  139.5159  155.9884 H   0  0  0  0  0  0  0  0  0  0  0  0
  151.1389  140.7110  155.2040 H   0  0  0  0  0  0  0  0  0  0  0  0
  148.4389  141.3399  155.6907 H   0  0  0  0  0  0  0  0  0  0  0  0
  149.4268  142.2583  154.5737 H   0  0  0  0  0  0  0  0  0  0  0  0
  146.9909  142.6560  154.1941 H   0  0  0  0  0  0  0  0  0  0  0  0
  147.7652  141.9882  152.7683 H   0  0  0  0  0  0  0  0  0  0  0  0
  147.4574  139.6100  152.3044 H   0  0  0  0  0  0  0  0  0  0  0  0
  145.8652  138.0854  154.4327 H   0  0  0  0  0  0  0  0  0  0  0  0
  145.1311  138.7307  152.9839 H   0  0  0  0  0  0  0  0  0  0  0  0
  147.4604  136.9727  152.6158 H   0  0  0  0  0  0  0  0  0  0  0  0
  147.2986  135.3258  151.5426 H   0  0  0  0  0  0  0  0  0  0  0  0
  143.0676  133.0438  149.3050 H   0  0  0  0  0  0  0  0  0  0  0  0
  145.0584  131.2565  148.9993 H   0  0  0  0  0  0  0  0  0  0  0  0
  148.8279  138.2010  153.8196 H   0  0  0  0  0  0  0  0  0  0  0  0
  148.0577  138.9101  155.2206 H   0  0  0  0  0  0  0  0  0  0  0  0
  1  2  1  0  0  0  0
  1 21  1  0  0  0  0
  1 22  1  0  0  0  0
  1 23  1  0  0  0  0
  2  3  1  0  0  0  0
  2  4  1  0  0  0  0
  2 24  1  0  0  0  0
  3 25  1  0  0  0  0
  3 26  1  0  0  0  0
  3 27  1  0  0  0  0
  4  5  1  0  0  0  0
  4 28  1  0  0  0  0
  4 29  1  0  0  0  0
  5 20  1  0  0  0  0
  5  6  1  0  0  0  0
  6  7  1  0  0  0  0
  6 30  1  0  0  0  0
  6 31  1  0  0  0  0
  7  8  1  0  0  0  0
  7 32  1  0  0  0  0
  7 33  1  0  0  0  0
  8  9  1  0  0  0  0
  9 10  1  0  0  0  0
  9 20  1  0  0  0  0
  9 34  1  0  0  0  0
 10 11  1  0  0  0  0
 10 35  1  0  0  0  0
 10 36  1  0  0  0  0
 11 12  1  0  0  0  0
 11 37  1  0  0  0  0
 12 13  2  0  0  0  0
 12 14  1  0  0  0  0
 14 15  1  0  0  0  0
 14 38  1  0  0  0  0
 15 19  1  0  0  0  0
 15 16  2  0  0  0  0
 16 17  1  0  0  0  0
 17 18  2  0  0  0  0
 17 39  1  0  0  0  0
 18 19  1  0  0  0  0
 18 40  1  0  0  0  0
 20 41  1  0  0  0  0
 20 42  1  0  0  0  0
M  END
> <s_m_source_file>
AV-unprocessed.smi

> <i_m_source_file_index>
2062

> <i_lp_mmshare_version>
43012

> <i_f3d_flags>
0

> <s_epik_input>
W0NIM11bQ0hdKFtDSDNdKVtDSDJdTjFbQ0gyXVtDSDJdT1tDQEhdKFtDSDJdMSlbQ0gyXVtOSF1DKD1PKVtOSF1jMm5bY0hdW2NIXXMy

> <s_epik_cmdline>
J2VwaWtfcHl0aG9uJywgJy1waCcsICc3LjAnLCAnLXRuJywgJzgnLCAnLW1hJywgJzIwMCcsICctbWV0YWxfYmluZGluZycsICctaW1hZScsICc8aW5maWxlLm1hZT4nLCAnLW9tYWUnLCAnPG91dGZpbGUubWFlPic=

> <r_lp_tautomer_probability>
0.999

> <r_epik_Ionization_Penalty>
1.11227

> <r_epik_Ionization_Penalty_Charging>
0

> <r_epik_Ionization_Penalty_Neutral>
1.11227

> <r_epik_State_Penalty>
1.17021

> <r_epik_Charging_Adjusted_Penalty>
1.17021

> <i_epik_Tot_Q>
0

> <i_epik_Tot_abs_Q>
0

> <r_epik_Metal_State_Penalty>
1.22349

> <b_epik_Metal_Only>
0

> <s_lp_Force_Field>
OPLS_2005

> <r_lp_Energy>
23.0648

> <b_lp_Chiralities_Consistent>
1

> <s_lp_Variant>
AV-unprocessed.smi:2062-6

> <Gold.Version>
5.8.1

> <Gold.Id.Protein>
6NUR|6NUR_protein|mol2

> <Gold.PLP.Fitness>
45.8805

> <Gold.PLP.PLP>
-37.8415

> <Gold.PLP.part.hbond>
-2.1080

> <Gold.PLP.part.metal>
0.0000

> <Gold.PLP.part.buried>
-5.3142

> <Gold.PLP.part.nonpolar>
-32.3089

> <Gold.PLP.part.repulsive>
1.2320

> <Gold.PLP.ligand.clash>
0.0000

> <Gold.PLP.ligand.torsion>
0.4979

> <Gold.PLP.Chemscore.Hbond>
2.0000

> <Gold.PLP.Chemscore.CHOScore>
1.0000

> <Gold.PLP.Chemscore.Metal>
0.0000

> <Gold.Chemscore.Hbonds>
donor molecule, donor type, donor heavy atom, donor atom, acceptor molecule, acceptor atom, score
      L1  H    11    37       P1  7948  1.00
      L1  H    14    38       P1  7948  1.00
      L1  C    17    39       P1 10186  1.00

> <Gold.PLP.Chemscore.Internal.Correction>
0.0348

> <Gold.Rescore>
     Score         DG    S(hbond)    S(metal)    S(lipo)     H(rot)  DE(clash)    DE(int)     intcor
     15.79     -17.90       1.85        0.00      91.02       1.72       0.04       2.07       ----

> <Gold.Chemscore.Fitness>
15.7925

> <Gold.Chemscore.DG>
-17.8981

> <Gold.Chemscore.ZeroCoef>
-5.4800

> <Gold.Chemscore.Hbond>
1.8474

> <Gold.Chemscore.Metal>
0.0000

> <Gold.Chemscore.Lipo>
91.0218

> <Gold.Chemscore.Internal_Hbond>
0.0000

> <Gold.Chemscore.DEClash>
0.0368

> <Gold.Chemscore.DEInternal>
2.0688

> <Gold.Chemscore.Rot>
1.7195

> <Gold.Chemscore.Internal.Correction>
   9.000000E+99

> <Gold.Chemscore.Hbonds>
donor molecule, donor type, donor heavy atom, donor atom, acceptor molecule, acceptor atom, score
      L1  H    11    37       P1  7948  0.96
      L1  H    14    38       P1  7948  0.89

> <Gold.Chemscore.Hbond.Weighted>
-6.1704

> <Gold.Chemscore.Metal.Weighted>
-0.0000

> <Gold.Chemscore.Lipo.Weighted>
-10.6496

> <Gold.Chemscore.Internal_Hbond.Weighted>
0.0000

> <Gold.Chemscore.DEClash.Weighted>
0.0368

> <Gold.Chemscore.DEInternal.Weighted>
2.0688

> <Gold.Chemscore.Rot.Weighted>
4.4019

> <Gold.Chemscore.Internal.Correction.Weighted>
   9.000000E+99

> <Gold.Protein.RotatedTorsions>
[ 6907 6896 6895 6894 ] final -109.86 input  -60.11 | X-H torsion
[ 7974 7965 7964 7962 ] final -166.75 input  175.53 | X-H torsion
[ 8008 7997 7996 7995 ] final  -13.07 input   59.86 | X-H torsion
[ 10167 10162 10161 10158 ] final  116.08 input  -65.29 | X-H torsion
[ 10718 10713 10712 10709 ] final  -38.59 input   66.30 | X-H torsion
[ 10763 10752 10751 10750 ] final  160.67 input  -60.55 | X-H torsion
[ 11005 11000 10999 10996 ] final  139.52 input  -57.11 | X-H torsion

> <Gold.Protein.ActiveResidues>
 VAL166  LYS551  ARG553  GLY616  TRP617  ASP618  TYR619  PRO620  LYS621  CYS622 
 ASP623  PHE694  ASN695  SER759  ASP760  ASP761  ALA762  ILE779  LEU786  VAL792 
 PHE793  MET794  SER795  GLU796  ALA797  LYS798  CYS799  TRP800  GLU811  SER814 

> <Gold.Protein.RotatedAtoms>
  150.7588  133.9466  159.3472 H   0  0  0  0  0  0  0  0  0  0  0  0  # atno 6907 bound_to 6896
  151.7380  135.0858  160.0320 H   0  0  0  0  0  0  0  0  0  0  0  0  # atno 6908 bound_to 6896
  152.3547  133.6185  159.6006 H   0  0  0  0  0  0  0  0  0  0  0  0  # atno 6909 bound_to 6896
  144.7238  140.2620  143.6263 H   0  0  0  0  0  0  0  0  0  0  0  0  # atno 7974 bound_to 7965
  154.5323  140.2259  155.8783 H   0  0  0  0  0  0  0  0  0  0  0  0  # atno 8008 bound_to 7997
  156.1776  140.3107  155.9052 H   0  0  0  0  0  0  0  0  0  0  0  0  # atno 8009 bound_to 7997
  155.3426  140.0451  157.3036 H   0  0  0  0  0  0  0  0  0  0  0  0  # atno 8010 bound_to 7997
  139.6272  144.7110  151.2508 H   0  0  0  0  0  0  0  0  0  0  0  0  # atno 10167 bound_to 10162
  156.3021  130.4241  149.8133 H   0  0  0  0  0  0  0  0  0  0  0  0  # atno 10718 bound_to 10713
  154.2510  135.2771  155.2816 H   0  0  0  0  0  0  0  0  0  0  0  0  # atno 10763 bound_to 10752
  154.5465  135.5687  153.6887 H   0  0  0  0  0  0  0  0  0  0  0  0  # atno 10764 bound_to 10752
  152.9980  135.6264  154.2657 H   0  0  0  0  0  0  0  0  0  0  0  0  # atno 10765 bound_to 10752
  140.0261  134.9374  157.0570 H   0  0  0  0  0  0  0  0  0  0  0  0  # atno 11005 bound_to 11000
  145.8126  139.2009  143.1984 LP  0  0  0  0  0  0  0  0  0  0  0  0  # atno 17320 bound_to 7965
  146.0583  140.7998  142.9747 LP  0  0  0  0  0  0  0  0  0  0  0  0  # atno 17321 bound_to 7965
  140.7418  143.6546  150.8218 LP  0  0  0  0  0  0  0  0  0  0  0  0  # atno 17342 bound_to 10162
  140.0166  143.5587  152.2818 LP  0  0  0  0  0  0  0  0  0  0  0  0  # atno 17343 bound_to 10162
  156.5508  130.8341  151.3299 LP  0  0  0  0  0  0  0  0  0  0  0  0  # atno 17370 bound_to 10713
  157.7370  130.9789  150.2170 LP  0  0  0  0  0  0  0  0  0  0  0  0  # atno 17371 bound_to 10713
  140.4305  134.1786  155.7168 LP  0  0  0  0  0  0  0  0  0  0  0  0  # atno 17394 bound_to 11000
  141.1803  133.8427  157.1280 LP  0  0  0  0  0  0  0  0  0  0  0  0  # atno 17395 bound_to 11000

$$$$
