AV-unprocessed.smi:2149|AV-procd|sdf|8753|dock4
  -GOLD-   2272011533D 1   1.00000     0.00000
 Structure written by MMmdl.
 42 43  0  0  0  0  0  0  0  0  1 V2000
  143.9473  142.0720  157.1852 C   0  0  0  0  0  0  0  0  0  0  0  0
  145.3148  140.9526  157.6988 S   0  0  0  0  0  0  0  0  0  0  0  0
  145.8172  141.4314  158.9959 O   0  0  0  0  0  0  0  0  0  0  0  0
  144.8776  139.5563  157.5504 O   0  0  0  0  0  0  0  0  0  0  0  0
  146.5419  141.2527  156.5096 N   0  0  0  0  0  0  0  0  0  0  0  0
  146.1480  141.1708  155.0883 C   0  0  0  0  0  0  0  0  0  0  0  0
  147.1861  141.8429  154.1755 C   0  0  0  0  0  0  0  0  0  0  0  0
  148.5852  141.2678  154.4119 C   0  0  0  0  0  0  0  0  0  0  0  0
  148.9563  141.4325  155.8941 C   0  0  2  0  0  0  0  0  0  0  0  0
  150.3608  140.8815  156.1750 C   0  0  0  0  0  0  0  0  0  0  0  0
  151.0452  140.4261  155.2582 O   0  0  0  0  0  0  0  0  0  0  0  0
  150.7764  140.9286  157.4503 N   0  0  0  0  0  0  0  0  0  0  0  0
  152.0698  140.4578  157.9316 C   0  0  0  0  0  0  0  0  0  0  0  0
  152.5479  141.2627  159.1515 C   0  0  0  0  0  0  0  0  0  0  0  0
  152.3588  142.7563  158.9628 C   0  0  0  0  0  0  0  0  0  0  0  0
  152.6665  143.6580  160.0042 C   0  0  0  0  0  0  0  0  0  0  0  0
  152.4652  145.0341  159.7814 C   0  0  0  0  0  0  0  0  0  0  0  0
  151.9655  145.4532  158.5333 C   0  0  0  0  0  0  0  0  0  0  0  0
  151.6883  144.4733  157.5591 C   0  0  0  0  0  0  0  0  0  0  0  0
  151.8774  143.1516  157.7627 N   0  0  0  0  0  0  0  0  0  0  0  0
  147.9021  140.7461  156.7887 C   0  0  0  0  0  0  0  0  0  0  0  0
  143.1514  142.0295  157.9283 H   0  0  0  0  0  0  0  0  0  0  0  0
  143.5488  141.7603  156.2209 H   0  0  0  0  0  0  0  0  0  0  0  0
  144.3202  143.0934  157.1147 H   0  0  0  0  0  0  0  0  0  0  0  0
  146.0283  140.1216  154.8150 H   0  0  0  0  0  0  0  0  0  0  0  0
  145.1786  141.6451  154.9433 H   0  0  0  0  0  0  0  0  0  0  0  0
  146.9019  141.7116  153.1312 H   0  0  0  0  0  0  0  0  0  0  0  0
  147.1943  142.9181  154.3599 H   0  0  0  0  0  0  0  0  0  0  0  0
  148.6030  140.2148  154.1260 H   0  0  0  0  0  0  0  0  0  0  0  0
  149.3089  141.7797  153.7762 H   0  0  0  0  0  0  0  0  0  0  0  0
  148.9547  142.4988  156.1293 H   0  0  0  0  0  0  0  0  0  0  0  0
  150.1490  141.3193  158.1383 H   0  0  0  0  0  0  0  0  0  0  0  0
  152.0190  139.3934  158.1678 H   0  0  0  0  0  0  0  0  0  0  0  0
  152.7875  140.5609  157.1173 H   0  0  0  0  0  0  0  0  0  0  0  0
  152.0070  140.9436  160.0436 H   0  0  0  0  0  0  0  0  0  0  0  0
  153.6027  141.0634  159.3461 H   0  0  0  0  0  0  0  0  0  0  0  0
  153.0461  143.3058  160.9521 H   0  0  0  0  0  0  0  0  0  0  0  0
  152.6891  145.7546  160.5544 H   0  0  0  0  0  0  0  0  0  0  0  0
  151.7982  146.5000  158.3274 H   0  0  0  0  0  0  0  0  0  0  0  0
  151.3035  144.7585  156.5910 H   0  0  0  0  0  0  0  0  0  0  0  0
  148.1513  140.9237  157.8350 H   0  0  0  0  0  0  0  0  0  0  0  0
  147.9078  139.6645  156.6429 H   0  0  0  0  0  0  0  0  0  0  0  0
  1  2  1  0  0  0  0
  1 22  1  0  0  0  0
  1 23  1  0  0  0  0
  1 24  1  0  0  0  0
  2  3  2  0  0  0  0
  2  4  2  0  0  0  0
  2  5  1  0  0  0  0
  5 21  1  0  0  0  0
  5  6  1  0  0  0  0
  6  7  1  0  0  0  0
  6 25  1  0  0  0  0
  6 26  1  0  0  0  0
  7  8  1  0  0  0  0
  7 27  1  0  0  0  0
  7 28  1  0  0  0  0
  8  9  1  0  0  0  0
  8 29  1  0  0  0  0
  8 30  1  0  0  0  0
  9 10  1  0  0  0  0
  9 21  1  0  0  0  0
  9 31  1  0  0  0  0
 10 11  2  0  0  0  0
 10 12  1  0  0  0  0
 12 13  1  0  0  0  0
 12 32  1  0  0  0  0
 13 14  1  0  0  0  0
 13 33  1  0  0  0  0
 13 34  1  0  0  0  0
 14 15  1  0  0  0  0
 14 35  1  0  0  0  0
 14 36  1  0  0  0  0
 15 20  1  0  0  0  0
 15 16  2  0  0  0  0
 16 17  1  0  0  0  0
 16 37  1  0  0  0  0
 17 18  2  0  0  0  0
 17 38  1  0  0  0  0
 18 19  1  0  0  0  0
 18 39  1  0  0  0  0
 19 20  2  0  0  0  0
 19 40  1  0  0  0  0
 21 41  1  0  0  0  0
 21 42  1  0  0  0  0
M  END
> <s_m_source_file>
AV-unprocessed.smi

> <i_m_source_file_index>
2149

> <i_lp_mmshare_version>
43012

> <i_f3d_flags>
0

> <s_epik_input>
W0NIM11TKD1PKSg9TylOMVtDSDJdW0NIMl1bQ0gyXVtDQEhdKFtDSDJdMSlDKD1PKVtOSF1bQ0gyXVtDSDJdYzJbY0hdW2NIXVtjSF1bY0hdbjI=

> <s_epik_cmdline>
J2VwaWtfcHl0aG9uJywgJy1waCcsICc3LjAnLCAnLXRuJywgJzgnLCAnLW1hJywgJzIwMCcsICctbWV0YWxfYmluZGluZycsICctaW1hZScsICc8aW5maWxlLm1hZT4nLCAnLW9tYWUnLCAnPG91dGZpbGUubWFlPic=

> <r_epik_Ionization_Penalty>
0.0273806

> <r_epik_Ionization_Penalty_Charging>
0

> <r_epik_Ionization_Penalty_Neutral>
0.0273806

> <r_epik_State_Penalty>
0.0224071

> <r_epik_Charging_Adjusted_Penalty>
0.0224071

> <i_epik_Tot_Q>
0

> <i_epik_Tot_abs_Q>
0

> <r_epik_Metal_State_Penalty>
0.0214134

> <b_epik_Metal_Only>
0

> <s_lp_Force_Field>
OPLS_2005

> <r_lp_Energy>
5.16122

> <b_lp_Chiralities_Consistent>
1

> <s_lp_Variant>
AV-unprocessed.smi:2149-2

> <Gold.Version>
5.8.1

> <Gold.Id.Protein>
6NUR|6NUR_protein|mol2

> <Gold.PLP.Fitness>
44.7985

> <Gold.PLP.PLP>
-38.0518

> <Gold.PLP.part.hbond>
-2.0000

> <Gold.PLP.part.metal>
0.0000

> <Gold.PLP.part.buried>
-5.7754

> <Gold.PLP.part.nonpolar>
-30.9293

> <Gold.PLP.part.repulsive>
0.1736

> <Gold.PLP.ligand.clash>
0.0000

> <Gold.PLP.ligand.torsion>
0.6524

> <Gold.PLP.Chemscore.Hbond>
1.4366

> <Gold.PLP.Chemscore.CHOScore>
0.9846

> <Gold.PLP.Chemscore.Metal>
0.0000

> <Gold.Chemscore.Hbonds>
donor molecule, donor type, donor heavy atom, donor atom, acceptor molecule, acceptor atom, score
      P1  H  6934  6946       L1     3  0.68
      P1  H  7989  7998       L1    11  1.00
      L1  C    19    40       P1  8028  0.95

> <Gold.PLP.Chemscore.Internal.Correction>
0.7878

> <Gold.Rescore>
     Score         DG    S(hbond)    S(metal)    S(lipo)     H(rot)  DE(clash)    DE(int)     intcor
     14.85     -17.35       1.56        0.00      97.08       1.84       0.06       2.44       ----

> <Gold.Chemscore.Fitness>
14.8532

> <Gold.Chemscore.DG>
-17.3474

> <Gold.Chemscore.ZeroCoef>
-5.4800

> <Gold.Chemscore.Hbond>
1.5643

> <Gold.Chemscore.Metal>
0.0000

> <Gold.Chemscore.Lipo>
97.0756

> <Gold.Chemscore.Internal_Hbond>
0.0000

> <Gold.Chemscore.DEClash>
0.0580

> <Gold.Chemscore.DEInternal>
2.4362

> <Gold.Chemscore.Rot>
1.8419

> <Gold.Chemscore.Internal.Correction>
   9.000000E+99

> <Gold.Chemscore.Hbonds>
donor molecule, donor type, donor heavy atom, donor atom, acceptor molecule, acceptor atom, score
      P1  H  6934  6946       L1     3  0.67
      P1  H  7989  7998       L1    11  0.94

> <Gold.Chemscore.Hbond.Weighted>
-5.2249

> <Gold.Chemscore.Metal.Weighted>
-0.0000

> <Gold.Chemscore.Lipo.Weighted>
-11.3578

> <Gold.Chemscore.Internal_Hbond.Weighted>
0.0000

> <Gold.Chemscore.DEClash.Weighted>
0.0580

> <Gold.Chemscore.DEInternal.Weighted>
2.4362

> <Gold.Chemscore.Rot.Weighted>
4.7153

> <Gold.Chemscore.Internal.Correction.Weighted>
   9.000000E+99

> <Gold.Protein.RotatedTorsions>
[ 6907 6896 6895 6894 ] final -120.89 input  -60.11 | X-H torsion
[ 7974 7965 7964 7962 ] final  123.74 input  175.53 | X-H torsion
[ 8008 7997 7996 7995 ] final   58.83 input   59.86 | X-H torsion
[ 10167 10162 10161 10158 ] final   87.63 input  -65.29 | X-H torsion
[ 10718 10713 10712 10709 ] final   98.42 input   66.30 | X-H torsion
[ 10763 10752 10751 10750 ] final  120.71 input  -60.55 | X-H torsion
[ 11005 11000 10999 10996 ] final  -95.09 input  -57.11 | X-H torsion

> <Gold.Protein.ActiveResidues>
 VAL166  LYS551  ARG553  GLY616  TRP617  ASP618  TYR619  PRO620  LYS621  CYS622 
 ASP623  PHE694  ASN695  SER759  ASP760  ASP761  ALA762  ILE779  LEU786  VAL792 
 PHE793  MET794  SER795  GLU796  ALA797  LYS798  CYS799  TRP800  GLU811  SER814 

> <Gold.Protein.RotatedAtoms>
  150.8433  133.7901  159.3052 H   0  0  0  0  0  0  0  0  0  0  0  0  # atno 6907 bound_to 6896
  151.5595  135.1064  159.9979 H   0  0  0  0  0  0  0  0  0  0  0  0  # atno 6908 bound_to 6896
  152.4493  133.7554  159.6773 H   0  0  0  0  0  0  0  0  0  0  0  0  # atno 6909 bound_to 6896
  145.0924  139.3577  143.4854 H   0  0  0  0  0  0  0  0  0  0  0  0  # atno 7974 bound_to 7965
  155.5563  140.3487  155.4480 H   0  0  0  0  0  0  0  0  0  0  0  0  # atno 8008 bound_to 7997
  156.0547  140.1326  157.0036 H   0  0  0  0  0  0  0  0  0  0  0  0  # atno 8009 bound_to 7997
  154.4450  140.0997  156.6413 H   0  0  0  0  0  0  0  0  0  0  0  0  # atno 8010 bound_to 7997
  139.8754  144.6470  150.8903 H   0  0  0  0  0  0  0  0  0  0  0  0  # atno 10167 bound_to 10162
  157.6896  131.0639  150.4793 H   0  0  0  0  0  0  0  0  0  0  0  0  # atno 10718 bound_to 10713
  153.6028  135.3445  155.2951 H   0  0  0  0  0  0  0  0  0  0  0  0  # atno 10763 bound_to 10752
  154.8633  135.4231  154.2394 H   0  0  0  0  0  0  0  0  0  0  0  0  # atno 10764 bound_to 10752
  153.3227  135.7039  153.7088 H   0  0  0  0  0  0  0  0  0  0  0  0  # atno 10765 bound_to 10752
  141.1452  133.8001  157.0387 H   0  0  0  0  0  0  0  0  0  0  0  0  # atno 11005 bound_to 11000
  146.3531  140.0764  142.8620 LP  0  0  0  0  0  0  0  0  0  0  0  0  # atno 17320 bound_to 7965
  145.1050  140.9370  143.4690 LP  0  0  0  0  0  0  0  0  0  0  0  0  # atno 17321 bound_to 7965
  140.7754  143.3629  151.1793 LP  0  0  0  0  0  0  0  0  0  0  0  0  # atno 17342 bound_to 10162
  139.7245  143.9170  152.2997 LP  0  0  0  0  0  0  0  0  0  0  0  0  # atno 17343 bound_to 10162
  156.5126  130.4143  149.6293 LP  0  0  0  0  0  0  0  0  0  0  0  0  # atno 17370 bound_to 10713
  156.3226  130.7289  151.2204 LP  0  0  0  0  0  0  0  0  0  0  0  0  # atno 17371 bound_to 10713
  140.0707  134.9704  157.1462 LP  0  0  0  0  0  0  0  0  0  0  0  0  # atno 17394 bound_to 11000
  140.3715  134.2385  155.7177 LP  0  0  0  0  0  0  0  0  0  0  0  0  # atno 17395 bound_to 11000

$$$$
