AV-unprocessed.smi:3183|AV-procd|sdf|12159|dock3
  -GOLD-   2272017593D 1   1.00000     0.00000
 Structure written by MMmdl.
 43 44  0  0  0  0  0  0  0  0  2 V2000
  151.9076  144.1056  161.3349 C   0  0  0  0  0  0  0  0  0  0  0  0
  152.7895  144.0545  160.0708 C   0  0  2  0  0  0  0  0  0  0  0  0
  152.2650  145.0024  158.9730 C   0  0  0  0  0  0  0  0  0  0  0  0
  150.9834  144.4763  158.3037 C   0  0  0  0  0  0  0  0  0  0  0  0
  151.1844  143.0570  157.7331 C   0  0  2  0  0  0  0  0  0  0  0  0
  149.9342  142.5198  157.1515 N   0  3  0  0  0  0  0  0  0  0  0  0
  149.9828  141.0981  156.7506 C   0  0  0  0  0  0  0  0  0  0  0  0
  151.2731  140.7892  155.9770 C   0  0  0  0  0  0  0  0  0  0  0  0
  151.3387  139.3996  155.4198 C   0  0  0  0  0  0  0  0  0  0  0  0
  150.7552  138.8415  154.3150 C   0  0  0  0  0  0  0  0  0  0  0  0
  151.2045  137.4923  154.3272 C   0  0  0  0  0  0  0  0  0  0  0  0
  151.9986  137.2324  155.3507 N   0  0  0  0  0  0  0  0  0  0  0  0
  152.0823  138.4006  156.0217 N   0  0  0  0  0  0  0  0  0  0  0  0
  152.8915  138.4719  157.2233 C   0  0  0  0  0  0  0  0  0  0  0  0
  151.6995  142.1030  158.8276 C   0  0  0  0  0  0  0  0  0  0  0  0
  152.9881  142.6310  159.4902 C   0  0  2  0  0  0  0  0  0  0  0  0
  153.5569  141.6312  160.5108 C   0  0  0  0  0  0  0  0  0  0  0  0
  150.9110  143.7015  161.1603 H   0  0  0  0  0  0  0  0  0  0  0  0
  151.7878  145.1320  161.6825 H   0  0  0  0  0  0  0  0  0  0  0  0
  152.3532  143.5450  162.1564 H   0  0  0  0  0  0  0  0  0  0  0  0
  153.7712  144.4264  160.3679 H   0  0  0  0  0  0  0  0  0  0  0  0
  152.0887  145.9966  159.3853 H   0  0  0  0  0  0  0  0  0  0  0  0
  153.0356  145.1275  158.2110 H   0  0  0  0  0  0  0  0  0  0  0  0
  150.1641  144.4760  159.0234 H   0  0  0  0  0  0  0  0  0  0  0  0
  150.6938  145.1687  157.5135 H   0  0  0  0  0  0  0  0  0  0  0  0
  151.9366  143.0953  156.9433 H   0  0  0  0  0  0  0  0  0  0  0  0
  149.2109  142.6087  157.8509 H   0  0  0  0  0  0  0  0  0  0  0  0
  149.9260  140.4643  157.6355 H   0  0  0  0  0  0  0  0  0  0  0  0
  149.1148  140.8708  156.1302 H   0  0  0  0  0  0  0  0  0  0  0  0
  151.3799  141.5028  155.1592 H   0  0  0  0  0  0  0  0  0  0  0  0
  152.1298  140.9485  156.6330 H   0  0  0  0  0  0  0  0  0  0  0  0
  150.1034  139.3217  153.6004 H   0  0  0  0  0  0  0  0  0  0  0  0
  150.9790  136.7005  153.6281 H   0  0  0  0  0  0  0  0  0  0  0  0
  153.6650  139.2302  157.1004 H   0  0  0  0  0  0  0  0  0  0  0  0
  153.3691  137.5118  157.4247 H   0  0  0  0  0  0  0  0  0  0  0  0
  152.2630  138.7371  158.0738 H   0  0  0  0  0  0  0  0  0  0  0  0
  150.9280  141.9504  159.5833 H   0  0  0  0  0  0  0  0  0  0  0  0
  151.8924  141.1220  158.3908 H   0  0  0  0  0  0  0  0  0  0  0  0
  153.7374  142.7165  158.7014 H   0  0  0  0  0  0  0  0  0  0  0  0
  152.8403  141.4064  161.3009 H   0  0  0  0  0  0  0  0  0  0  0  0
  154.4624  142.0187  160.9787 H   0  0  0  0  0  0  0  0  0  0  0  0
  153.8157  140.6881  160.0290 H   0  0  0  0  0  0  0  0  0  0  0  0
  149.6773  143.0829  156.3533 H   0  0  0  0  0  0  0  0  0  0  0  0
  1  2  1  0  0  0  0
  1 18  1  0  0  0  0
  1 19  1  0  0  0  0
  1 20  1  0  0  0  0
  2 16  1  0  0  0  0
  2  3  1  0  0  0  0
  2 21  1  0  0  0  0
  3  4  1  0  0  0  0
  3 22  1  0  0  0  0
  3 23  1  0  0  0  0
  4  5  1  0  0  0  0
  4 24  1  0  0  0  0
  4 25  1  0  0  0  0
  5  6  1  0  0  0  0
  5 15  1  0  0  0  0
  5 26  1  0  0  0  0
  6  7  1  0  0  0  0
  6 27  1  0  0  0  0
  6 43  1  0  0  0  0
  7  8  1  0  0  0  0
  7 28  1  0  0  0  0
  7 29  1  0  0  0  0
  8  9  1  0  0  0  0
  8 30  1  0  0  0  0
  8 31  1  0  0  0  0
  9 13  1  0  0  0  0
  9 10  2  0  0  0  0
 10 11  1  0  0  0  0
 10 32  1  0  0  0  0
 11 12  2  0  0  0  0
 11 33  1  0  0  0  0
 12 13  1  0  0  0  0
 13 14  1  0  0  0  0
 14 34  1  0  0  0  0
 14 35  1  0  0  0  0
 14 36  1  0  0  0  0
 15 16  1  0  0  0  0
 15 37  1  0  0  0  0
 15 38  1  0  0  0  0
 16 17  1  0  0  0  0
 16 39  1  0  0  0  0
 17 40  1  0  0  0  0
 17 41  1  0  0  0  0
 17 42  1  0  0  0  0
M  CHG  1   6   1
M  END
> <s_m_source_file>
AV-unprocessed.smi

> <i_m_source_file_index>
3183

> <i_lp_mmshare_version>
43012

> <i_f3d_flags>
0

> <s_epik_input>
W0NIM11bQ0BASF0xW0NIMl1bQ0gyXVtDQEhdKFtDSDJdW0NASF0xW0NIM10pW05IXVtDSDJdW0NIMl1jMltjSF1bY0hdbm4yW0NIM10=

> <s_epik_cmdline>
J2VwaWtfcHl0aG9uJywgJy1waCcsICc3LjAnLCAnLXRuJywgJzgnLCAnLW1hJywgJzIwMCcsICctbWV0YWxfYmluZGluZycsICctaW1hZScsICc8aW5maWxlLm1hZT4nLCAnLW9tYWUnLCAnPG91dGZpbGUubWFlPic=

> <r_lp_tautomer_probability>
1

> <r_epik_Ionization_Penalty>
0.000327718

> <r_epik_Ionization_Penalty_Charging>
0.000294043

> <r_epik_Ionization_Penalty_Neutral>
3.36755e-05

> <r_epik_State_Penalty>
-0

> <r_epik_Charging_Adjusted_Penalty>
0.000294043

> <i_epik_Tot_Q>
1

> <i_epik_Tot_abs_Q>
1

> <r_epik_Metal_State_Penalty>
-0

> <b_epik_Metal_Only>
0

> <s_lp_Force_Field>
OPLS_2005

> <r_lp_Energy>
14.2939

> <b_lp_Chiralities_Consistent>
1

> <s_lp_Variant>
AV-unprocessed.smi:3183-7

> <Gold.Version>
5.8.1

> <Gold.Id.Protein>
6NUR|6NUR_protein|mol2

> <Gold.PLP.Fitness>
55.1332

> <Gold.PLP.PLP>
-44.1164

> <Gold.PLP.part.hbond>
-2.0000

> <Gold.PLP.part.metal>
0.0000

> <Gold.PLP.part.buried>
-4.2228

> <Gold.PLP.part.nonpolar>
-38.3041

> <Gold.PLP.part.repulsive>
0.0718

> <Gold.PLP.ligand.clash>
0.0000

> <Gold.PLP.ligand.torsion>
0.3532

> <Gold.PLP.Chemscore.Hbond>
2.8640

> <Gold.PLP.Chemscore.CHOScore>
1.0400

> <Gold.PLP.Chemscore.Metal>
0.0000

> <Gold.Chemscore.Hbonds>
donor molecule, donor type, donor heavy atom, donor atom, acceptor molecule, acceptor atom, score
      L1  H     6    43       P1  8028  1.95
      P1  H 10752 10763       L1    12  0.91
      L1  C    11    33       P1  7948  0.04
      L1  C    11    33       P1  7949  1.00

> <Gold.PLP.Chemscore.Internal.Correction>
0.0111

> <Gold.Rescore>
     Score         DG    S(hbond)    S(metal)    S(lipo)     H(rot)  DE(clash)    DE(int)     intcor
     22.12     -22.48       1.54        0.00     131.35       1.38       0.05       0.31       ----

> <Gold.Chemscore.Fitness>
22.1198

> <Gold.Chemscore.DG>
-22.4819

> <Gold.Chemscore.ZeroCoef>
-5.4800

> <Gold.Chemscore.Hbond>
1.5444

> <Gold.Chemscore.Metal>
0.0000

> <Gold.Chemscore.Lipo>
131.3520

> <Gold.Chemscore.Internal_Hbond>
0.0000

> <Gold.Chemscore.DEClash>
0.0484

> <Gold.Chemscore.DEInternal>
0.3138

> <Gold.Chemscore.Rot>
1.3768

> <Gold.Chemscore.Internal.Correction>
   9.000000E+99

> <Gold.Chemscore.Hbonds>
donor molecule, donor type, donor heavy atom, donor atom, acceptor molecule, acceptor atom, score
      L1  H     6    43       P1  8028  0.91
      P1  H 10752 10763       L1    12  0.25

> <Gold.Chemscore.Hbond.Weighted>
-5.1584

> <Gold.Chemscore.Metal.Weighted>
-0.0000

> <Gold.Chemscore.Lipo.Weighted>
-15.3682

> <Gold.Chemscore.Internal_Hbond.Weighted>
0.0000

> <Gold.Chemscore.DEClash.Weighted>
0.0484

> <Gold.Chemscore.DEInternal.Weighted>
0.3138

> <Gold.Chemscore.Rot.Weighted>
3.5247

> <Gold.Chemscore.Internal.Correction.Weighted>
   9.000000E+99

> <Gold.Protein.RotatedTorsions>
[ 6907 6896 6895 6894 ] final   66.95 input  -60.11 | X-H torsion
[ 7974 7965 7964 7962 ] final  -93.20 input  175.53 | X-H torsion
[ 8008 7997 7996 7995 ] final -150.82 input   59.86 | X-H torsion
[ 10167 10162 10161 10158 ] final  -42.70 input  -65.29 | X-H torsion
[ 10718 10713 10712 10709 ] final   28.23 input   66.30 | X-H torsion
[ 10763 10752 10751 10750 ] final   65.30 input  -60.55 | X-H torsion
[ 11005 11000 10999 10996 ] final   32.57 input  -57.11 | X-H torsion

> <Gold.Protein.ActiveResidues>
 VAL166  LYS551  ARG553  GLY616  TRP617  ASP618  TYR619  PRO620  LYS621  CYS622 
 ASP623  PHE694  ASN695  SER759  ASP760  ASP761  ALA762  ILE779  LEU786  VAL792 
 PHE793  MET794  SER795  GLU796  ALA797  LYS798  CYS799  TRP800  GLU811  SER814 

> <Gold.Protein.RotatedAtoms>
  152.4518  134.5378  159.9829 H   0  0  0  0  0  0  0  0  0  0  0  0  # atno 6907 bound_to 6896
  151.5449  133.3421  159.2950 H   0  0  0  0  0  0  0  0  0  0  0  0  # atno 6908 bound_to 6896
  150.8449  134.7786  159.7025 H   0  0  0  0  0  0  0  0  0  0  0  0  # atno 6909 bound_to 6896
  145.3896  140.9527  143.2348 H   0  0  0  0  0  0  0  0  0  0  0  0  # atno 7974 bound_to 7965
  155.6296  140.0690  157.2653 H   0  0  0  0  0  0  0  0  0  0  0  0  # atno 8008 bound_to 7997
  154.4209  140.1770  156.1507 H   0  0  0  0  0  0  0  0  0  0  0  0  # atno 8009 bound_to 7997
  155.9944  140.3342  155.6787 H   0  0  0  0  0  0  0  0  0  0  0  0  # atno 8010 bound_to 7997
  140.6960  143.3023  151.3247 H   0  0  0  0  0  0  0  0  0  0  0  0  # atno 10167 bound_to 10162
  157.2306  130.7022  149.6312 H   0  0  0  0  0  0  0  0  0  0  0  0  # atno 10718 bound_to 10713
  153.0091  135.5361  154.6646 H   0  0  0  0  0  0  0  0  0  0  0  0  # atno 10763 bound_to 10752
  154.5846  135.2853  155.0700 H   0  0  0  0  0  0  0  0  0  0  0  0  # atno 10764 bound_to 10752
  154.1816  135.6515  153.5088 H   0  0  0  0  0  0  0  0  0  0  0  0  # atno 10765 bound_to 10752
  140.2721  134.3070  155.7825 H   0  0  0  0  0  0  0  0  0  0  0  0  # atno 11005 bound_to 11000
  144.8449  139.5412  143.6883 LP  0  0  0  0  0  0  0  0  0  0  0  0  # atno 17320 bound_to 7965
  146.2804  139.6861  142.9233 LP  0  0  0  0  0  0  0  0  0  0  0  0  # atno 17321 bound_to 7965
  139.6416  144.0529  152.2558 LP  0  0  0  0  0  0  0  0  0  0  0  0  # atno 17342 bound_to 10162
  140.0036  144.6275  150.7708 LP  0  0  0  0  0  0  0  0  0  0  0  0  # atno 17343 bound_to 10162
  155.9675  130.4490  150.5641 LP  0  0  0  0  0  0  0  0  0  0  0  0  # atno 17370 bound_to 10713
  157.3482  131.0729  151.1735 LP  0  0  0  0  0  0  0  0  0  0  0  0  # atno 17371 bound_to 10713
  141.2176  133.7473  156.9351 LP  0  0  0  0  0  0  0  0  0  0  0  0  # atno 17394 bound_to 11000
  140.1363  134.9323  157.2406 LP  0  0  0  0  0  0  0  0  0  0  0  0  # atno 17395 bound_to 11000

$$$$
