AV-unprocessed.smi:1065|AV-procd|sdf|4666|dock9
  -GOLD-   22720 3183D 1   1.00000     0.00000
 Structure written by MMmdl.
 39 40  0  0  0  0  0  0  0  0  1 V2000
  151.3630  145.5586  160.1028 C   0  0  0  0  0  0  0  0  0  0  0  0
  152.2922  145.2598  158.9179 C   0  0  0  0  0  0  0  0  0  0  0  0
  152.3376  143.7723  158.5120 C   0  0  2  0  0  0  0  0  0  0  0  0
  150.9465  143.2843  158.0613 C   0  0  0  0  0  0  0  0  0  0  0  0
  150.9640  141.8054  157.6418 C   0  0  0  0  0  0  0  0  0  0  0  0
  151.4945  140.8990  158.7732 C   0  0  1  0  0  0  0  0  0  0  0  0
  151.5385  139.4126  158.3702 C   0  0  0  0  0  0  0  0  0  0  0  0
  150.2025  138.8352  158.3109 N   0  0  0  0  0  0  0  0  0  0  0  0
  149.8619  137.6497  158.8360 C   0  0  0  0  0  0  0  0  0  0  0  0
  150.6473  136.9289  159.4509 O   0  0  0  0  0  0  0  0  0  0  0  0
  148.4142  137.2046  158.6309 C   0  0  0  0  0  0  0  0  0  0  0  0
  147.8855  136.5970  159.8373 N   0  0  0  0  0  0  0  0  0  0  0  0
  147.5702  135.3303  160.1150 C   0  0  0  0  0  0  0  0  0  0  0  0
  147.0981  135.2031  161.3458 N   0  0  0  0  0  0  0  0  0  0  0  0
  147.1365  136.4988  161.8336 N   0  0  0  0  0  0  0  0  0  0  0  0
  147.6025  137.3306  160.9429 N   0  0  0  0  0  0  0  0  0  0  0  0
  152.8842  141.3858  159.2258 C   0  0  0  0  0  0  0  0  0  0  0  0
  152.8659  142.8651  159.6432 C   0  0  0  0  0  0  0  0  0  0  0  0
  151.4365  146.6066  160.3940 H   0  0  0  0  0  0  0  0  0  0  0  0
  151.6249  144.9550  160.9721 H   0  0  0  0  0  0  0  0  0  0  0  0
  150.3196  145.3629  159.8573 H   0  0  0  0  0  0  0  0  0  0  0  0
  152.0005  145.8703  158.0625 H   0  0  0  0  0  0  0  0  0  0  0  0
  153.2975  145.5839  159.1897 H   0  0  0  0  0  0  0  0  0  0  0  0
  153.0113  143.6793  157.6587 H   0  0  0  0  0  0  0  0  0  0  0  0
  150.2277  143.4225  158.8703 H   0  0  0  0  0  0  0  0  0  0  0  0
  150.5901  143.8906  157.2278 H   0  0  0  0  0  0  0  0  0  0  0  0
  149.9556  141.5071  157.3540 H   0  0  0  0  0  0  0  0  0  0  0  0
  151.5845  141.6866  156.7524 H   0  0  0  0  0  0  0  0  0  0  0  0
  150.8176  140.9923  159.6241 H   0  0  0  0  0  0  0  0  0  0  0  0
  152.0245  139.3013  157.3992 H   0  0  0  0  0  0  0  0  0  0  0  0
  152.1330  138.8491  159.0910 H   0  0  0  0  0  0  0  0  0  0  0  0
  149.4955  139.3622  157.8182 H   0  0  0  0  0  0  0  0  0  0  0  0
  147.7924  138.0616  158.3683 H   0  0  0  0  0  0  0  0  0  0  0  0
  148.3500  136.4937  157.8055 H   0  0  0  0  0  0  0  0  0  0  0  0
  147.6821  134.5107  159.4204 H   0  0  0  0  0  0  0  0  0  0  0  0
  153.2378  140.7788  160.0601 H   0  0  0  0  0  0  0  0  0  0  0  0
  153.6044  141.2467  158.4184 H   0  0  0  0  0  0  0  0  0  0  0  0
  153.8752  143.1607  159.9288 H   0  0  0  0  0  0  0  0  0  0  0  0
  152.2461  142.9846  160.5329 H   0  0  0  0  0  0  0  0  0  0  0  0
  1  2  1  0  0  0  0
  1 19  1  0  0  0  0
  1 20  1  0  0  0  0
  1 21  1  0  0  0  0
  2  3  1  0  0  0  0
  2 22  1  0  0  0  0
  2 23  1  0  0  0  0
  3 18  1  0  0  0  0
  3  4  1  0  0  0  0
  3 24  1  0  0  0  0
  4  5  1  0  0  0  0
  4 25  1  0  0  0  0
  4 26  1  0  0  0  0
  5  6  1  0  0  0  0
  5 27  1  0  0  0  0
  5 28  1  0  0  0  0
  6  7  1  0  0  0  0
  6 17  1  0  0  0  0
  6 29  1  0  0  0  0
  7  8  1  0  0  0  0
  7 30  1  0  0  0  0
  7 31  1  0  0  0  0
  8  9  1  0  0  0  0
  8 32  1  0  0  0  0
  9 10  2  0  0  0  0
  9 11  1  0  0  0  0
 11 12  1  0  0  0  0
 11 33  1  0  0  0  0
 11 34  1  0  0  0  0
 12 16  1  0  0  0  0
 12 13  1  0  0  0  0
 13 14  2  0  0  0  0
 13 35  1  0  0  0  0
 14 15  1  0  0  0  0
 15 16  2  0  0  0  0
 17 18  1  0  0  0  0
 17 36  1  0  0  0  0
 17 37  1  0  0  0  0
 18 38  1  0  0  0  0
 18 39  1  0  0  0  0
M  END
> <s_m_source_file>
AV-unprocessed.smi

> <i_m_source_file_index>
1065

> <i_lp_mmshare_version>
43012

> <i_f3d_flags>
0

> <s_epik_input>
W0NIM11bQ0gyXVtDQEBIXTFbQ0gyXVtDSDJdW0NASF0oW0NIMl1bQ0gyXTEpW0NIMl1bTkhdQyg9TylbQ0gyXW4yW2NIXW5ubjI=

> <s_epik_cmdline>
J2VwaWtfcHl0aG9uJywgJy1waCcsICc3LjAnLCAnLXRuJywgJzgnLCAnLW1hJywgJzIwMCcsICctbWV0YWxfYmluZGluZycsICctaW1hZScsICc8aW5maWxlLm1hZT4nLCAnLW9tYWUnLCAnPG91dGZpbGUubWFlPic=

> <r_lp_tautomer_probability>
1

> <r_epik_Ionization_Penalty>
4.54759e-07

> <r_epik_Ionization_Penalty_Charging>
0

> <r_epik_Ionization_Penalty_Neutral>
4.54759e-07

> <r_epik_State_Penalty>
-0

> <r_epik_Charging_Adjusted_Penalty>
0

> <i_epik_Tot_Q>
0

> <i_epik_Tot_abs_Q>
0

> <r_epik_Metal_State_Penalty>
-0

> <b_epik_Metal_Only>
0

> <s_lp_Force_Field>
OPLS_2005

> <r_lp_Energy>
13.9446

> <b_lp_Chiralities_Consistent>
1

> <s_lp_Variant>
AV-unprocessed.smi:1065-1

> <Gold.Version>
5.8.1

> <Gold.Id.Protein>
6NUR|6NUR_protein|mol2

> <Gold.PLP.Fitness>
46.6418

> <Gold.PLP.PLP>
-39.5214

> <Gold.PLP.part.hbond>
-3.0000

> <Gold.PLP.part.metal>
0.0000

> <Gold.PLP.part.buried>
-5.9815

> <Gold.PLP.part.nonpolar>
-30.3874

> <Gold.PLP.part.repulsive>
0.1364

> <Gold.PLP.ligand.clash>
0.0000

> <Gold.PLP.ligand.torsion>
0.5613

> <Gold.PLP.Chemscore.Hbond>
2.7440

> <Gold.PLP.Chemscore.CHOScore>
0.0000

> <Gold.PLP.Chemscore.Metal>
0.0000

> <Gold.Chemscore.Hbonds>
donor molecule, donor type, donor heavy atom, donor atom, acceptor molecule, acceptor atom, score
      P1  H  6896  6907       L1    10  1.00
      P1  H  6931  6943       L1    16  0.80
      P1  H  6934  6947       L1    16  0.93

> <Gold.PLP.Chemscore.Internal.Correction>
0.0109

> <Gold.Rescore>
     Score         DG    S(hbond)    S(metal)    S(lipo)     H(rot)  DE(clash)    DE(int)     intcor
     17.55     -18.01       2.61        0.00      86.22       2.45       0.00       0.45       ----

> <Gold.Chemscore.Fitness>
17.5543

> <Gold.Chemscore.DG>
-18.0103

> <Gold.Chemscore.ZeroCoef>
-5.4800

> <Gold.Chemscore.Hbond>
2.6099

> <Gold.Chemscore.Metal>
0.0000

> <Gold.Chemscore.Lipo>
86.2249

> <Gold.Chemscore.Internal_Hbond>
0.0000

> <Gold.Chemscore.DEClash>
0.0018

> <Gold.Chemscore.DEInternal>
0.4542

> <Gold.Chemscore.Rot>
2.4512

> <Gold.Chemscore.Internal.Correction>
   9.000000E+99

> <Gold.Chemscore.Hbonds>
donor molecule, donor type, donor heavy atom, donor atom, acceptor molecule, acceptor atom, score
      P1  H  6896  6907       L1    10  0.99
      P1  H  6931  6943       L1    16  0.31
      P1  H  6934  6947       L1    16  0.90

> <Gold.Chemscore.Hbond.Weighted>
-8.7170

> <Gold.Chemscore.Metal.Weighted>
-0.0000

> <Gold.Chemscore.Lipo.Weighted>
-10.0883

> <Gold.Chemscore.Internal_Hbond.Weighted>
0.0000

> <Gold.Chemscore.DEClash.Weighted>
0.0018

> <Gold.Chemscore.DEInternal.Weighted>
0.4542

> <Gold.Chemscore.Rot.Weighted>
6.2750

> <Gold.Chemscore.Internal.Correction.Weighted>
   9.000000E+99

> <Gold.Protein.RotatedTorsions>
[ 6907 6896 6895 6894 ] final  -25.39 input  -60.11 | X-H torsion
[ 7974 7965 7964 7962 ] final  -81.28 input  175.53 | X-H torsion
[ 8008 7997 7996 7995 ] final   76.21 input   59.86 | X-H torsion
[ 10167 10162 10161 10158 ] final  -67.08 input  -65.29 | X-H torsion
[ 10718 10713 10712 10709 ] final   79.56 input   66.30 | X-H torsion
[ 10763 10752 10751 10750 ] final   68.60 input  -60.55 | X-H torsion
[ 11005 11000 10999 10996 ] final  -13.35 input  -57.11 | X-H torsion

> <Gold.Protein.ActiveResidues>
 VAL166  LYS551  ARG553  GLY616  TRP617  ASP618  TYR619  PRO620  LYS621  CYS622 
 ASP623  PHE694  ASN695  SER759  ASP760  ASP761  ALA762  ILE779  LEU786  VAL792 
 PHE793  MET794  SER795  GLU796  ALA797  LYS798  CYS799  TRP800  GLU811  SER814 

> <Gold.Protein.RotatedAtoms>
  151.1759  135.0339  159.8771 H   0  0  0  0  0  0  0  0  0  0  0  0  # atno 6907 bound_to 6896
  152.5447  134.1118  159.8372 H   0  0  0  0  0  0  0  0  0  0  0  0  # atno 6908 bound_to 6896
  151.1229  133.5044  159.2634 H   0  0  0  0  0  0  0  0  0  0  0  0  # atno 6909 bound_to 6896
  145.5487  140.9500  143.1511 H   0  0  0  0  0  0  0  0  0  0  0  0  # atno 7974 bound_to 7965
  155.8240  140.3468  155.5532 H   0  0  0  0  0  0  0  0  0  0  0  0  # atno 8008 bound_to 7997
  155.8312  140.0927  157.1811 H   0  0  0  0  0  0  0  0  0  0  0  0  # atno 8009 bound_to 7997
  154.4004  140.1412  156.3603 H   0  0  0  0  0  0  0  0  0  0  0  0  # atno 8010 bound_to 7997
  140.5609  143.2313  151.6729 H   0  0  0  0  0  0  0  0  0  0  0  0  # atno 10167 bound_to 10162
  157.6780  130.9920  150.1950 H   0  0  0  0  0  0  0  0  0  0  0  0  # atno 10718 bound_to 10713
  153.0244  135.5241  154.7160 H   0  0  0  0  0  0  0  0  0  0  0  0  # atno 10763 bound_to 10752
  154.6229  135.2891  155.0308 H   0  0  0  0  0  0  0  0  0  0  0  0  # atno 10764 bound_to 10752
  154.1288  135.6596  153.4970 H   0  0  0  0  0  0  0  0  0  0  0  0  # atno 10765 bound_to 10752
  140.7752  133.8406  155.9243 H   0  0  0  0  0  0  0  0  0  0  0  0  # atno 11005 bound_to 11000
  144.7540  139.7121  143.7261 LP  0  0  0  0  0  0  0  0  0  0  0  0  # atno 17320 bound_to 7965
  146.1932  139.5183  142.9792 LP  0  0  0  0  0  0  0  0  0  0  0  0  # atno 17321 bound_to 7965
  139.5070  144.3662  152.0514 LP  0  0  0  0  0  0  0  0  0  0  0  0  # atno 17342 bound_to 10162
  140.2789  144.3882  150.6126 LP  0  0  0  0  0  0  0  0  0  0  0  0  # atno 17343 bound_to 10162
  156.2653  130.3715  149.8087 LP  0  0  0  0  0  0  0  0  0  0  0  0  # atno 17370 bound_to 10713
  156.5820  130.8470  151.3385 LP  0  0  0  0  0  0  0  0  0  0  0  0  # atno 17371 bound_to 10713
  140.9535  134.1748  157.4709 LP  0  0  0  0  0  0  0  0  0  0  0  0  # atno 17394 bound_to 11000
  139.8750  134.9918  156.5567 LP  0  0  0  0  0  0  0  0  0  0  0  0  # atno 17395 bound_to 11000

$$$$
