AV-unprocessed.smi:94|AV-procd|sdf|852|dock6
  -GOLD-   2262017293D 1   1.00000     0.00000
 Structure written by MMmdl.
 53 55  0  0  0  0  0  0  0  0  1 V2000
  155.3914  139.5624  166.0906 C   0  0  0  0  0  0  0  0  0  0  0  0
  154.9583  138.5796  165.1614 O   0  0  0  0  0  0  0  0  0  0  0  0
  155.6262  137.3722  165.1192 C   0  0  0  0  0  0  0  0  0  0  0  0
  156.7066  137.0529  165.9809 C   0  0  0  0  0  0  0  0  0  0  0  0
  157.3610  135.8117  165.8847 C   0  0  0  0  0  0  0  0  0  0  0  0
  156.9515  134.8703  164.9233 C   0  0  0  0  0  0  0  0  0  0  0  0
  157.6594  133.5357  164.8134 C   0  0  0  0  0  0  0  0  0  0  0  0
  155.8777  135.1748  164.0657 C   0  0  0  0  0  0  0  0  0  0  0  0
  155.2041  136.4154  164.1608 C   0  0  0  0  0  0  0  0  0  0  0  0
  154.0472  136.7393  163.2138 C   0  0  1  0  0  0  0  0  0  0  0  0
  152.7598  137.0303  164.0035 C   0  0  0  0  0  0  0  0  0  0  0  0
  154.3510  137.8532  162.3153 N   0  0  0  0  0  0  0  0  0  0  0  0
  153.6911  138.1475  161.1848 C   0  0  0  0  0  0  0  0  0  0  0  0
  152.7373  137.4883  160.7687 O   0  0  0  0  0  0  0  0  0  0  0  0
  154.1983  139.3695  160.4049 C   0  0  0  0  0  0  0  0  0  0  0  0
  153.6605  140.6441  160.9284 N   0  0  0  0  0  0  0  0  0  0  0  0
  154.0453  141.0751  162.2222 C   0  0  0  0  0  0  0  0  0  0  0  0
  154.8033  140.4018  162.9215 O   0  0  0  0  0  0  0  0  0  0  0  0
  153.4901  142.3543  162.6503 C   0  0  0  0  0  0  0  0  0  0  0  0
  153.7862  142.8326  163.8707 F   0  0  0  0  0  0  0  0  0  0  0  0
  152.6812  143.0680  161.8401 C   0  0  0  0  0  0  0  0  0  0  0  0
  152.3317  142.6452  160.5699 N   0  0  0  0  0  0  0  0  0  0  0  0
  151.4290  143.4610  159.6673 C   0  0  2  0  0  0  0  0  0  0  0  0
  152.1996  143.9471  158.4233 C   0  0  0  0  0  0  0  0  0  0  0  0
  151.9444  145.4413  158.4296 C   0  0  0  0  0  0  0  0  0  0  0  0
  151.7516  145.7229  159.9117 C   0  0  0  0  0  0  0  0  0  0  0  0
  150.9875  144.6046  160.3423 O   0  0  0  0  0  0  0  0  0  0  0  0
  152.8094  141.4054  160.0930 C   0  0  0  0  0  0  0  0  0  0  0  0
  152.4958  141.0022  158.9704 O   0  0  0  0  0  0  0  0  0  0  0  0
  154.7600  140.4458  165.9977 H   0  0  0  0  0  0  0  0  0  0  0  0
  156.4194  139.8705  165.8954 H   0  0  0  0  0  0  0  0  0  0  0  0
  155.3078  139.2049  167.1177 H   0  0  0  0  0  0  0  0  0  0  0  0
  157.0588  137.7475  166.7280 H   0  0  0  0  0  0  0  0  0  0  0  0
  158.1822  135.5873  166.5497 H   0  0  0  0  0  0  0  0  0  0  0  0
  157.6594  133.1798  163.7827 H   0  0  0  0  0  0  0  0  0  0  0  0
  157.1582  132.7930  165.4342 H   0  0  0  0  0  0  0  0  0  0  0  0
  158.6961  133.6159  165.1421 H   0  0  0  0  0  0  0  0  0  0  0  0
  155.5796  134.4459  163.3265 H   0  0  0  0  0  0  0  0  0  0  0  0
  153.8763  135.8616  162.5886 H   0  0  0  0  0  0  0  0  0  0  0  0
  152.4910  136.1854  164.6383 H   0  0  0  0  0  0  0  0  0  0  0  0
  151.9166  137.2181  163.3380 H   0  0  0  0  0  0  0  0  0  0  0  0
  152.8777  137.9039  164.6456 H   0  0  0  0  0  0  0  0  0  0  0  0
  155.1254  138.4457  162.5769 H   0  0  0  0  0  0  0  0  0  0  0  0
  155.2899  139.3844  160.4184 H   0  0  0  0  0  0  0  0  0  0  0  0
  153.9488  139.2264  159.3529 H   0  0  0  0  0  0  0  0  0  0  0  0
  152.3025  144.0044  162.2200 H   0  0  0  0  0  0  0  0  0  0  0  0
  150.5783  142.8148  159.4439 H   0  0  0  0  0  0  0  0  0  0  0  0
  153.2661  143.7435  158.5333 H   0  0  0  0  0  0  0  0  0  0  0  0
  151.8361  143.4543  157.5212 H   0  0  0  0  0  0  0  0  0  0  0  0
  152.7584  146.0163  157.9875 H   0  0  0  0  0  0  0  0  0  0  0  0
  151.0276  145.6681  157.8839 H   0  0  0  0  0  0  0  0  0  0  0  0
  152.7107  145.7479  160.4311 H   0  0  0  0  0  0  0  0  0  0  0  0
  151.2314  146.6623  160.0995 H   0  0  0  0  0  0  0  0  0  0  0  0
  1  2  1  0  0  0  0
  1 30  1  0  0  0  0
  1 31  1  0  0  0  0
  1 32  1  0  0  0  0
  2  3  1  0  0  0  0
  3  9  1  0  0  0  0
  3  4  2  0  0  0  0
  4  5  1  0  0  0  0
  4 33  1  0  0  0  0
  5  6  2  0  0  0  0
  5 34  1  0  0  0  0
  6  7  1  0  0  0  0
  6  8  1  0  0  0  0
  7 35  1  0  0  0  0
  7 36  1  0  0  0  0
  7 37  1  0  0  0  0
  8  9  2  0  0  0  0
  8 38  1  0  0  0  0
  9 10  1  0  0  0  0
 10 11  1  0  0  0  0
 10 12  1  0  0  0  0
 10 39  1  0  0  0  0
 11 40  1  0  0  0  0
 11 41  1  0  0  0  0
 11 42  1  0  0  0  0
 12 13  1  0  0  0  0
 12 43  1  0  0  0  0
 13 14  2  0  0  0  0
 13 15  1  0  0  0  0
 15 16  1  0  0  0  0
 15 44  1  0  0  0  0
 15 45  1  0  0  0  0
 16 28  1  0  0  0  0
 16 17  1  0  0  0  0
 17 18  2  0  0  0  0
 17 19  1  0  0  0  0
 19 20  1  0  0  0  0
 19 21  2  0  0  0  0
 21 22  1  0  0  0  0
 21 46  1  0  0  0  0
 22 23  1  0  0  0  0
 22 28  1  0  0  0  0
 23 27  1  0  0  0  0
 23 24  1  0  0  0  0
 23 47  1  0  0  0  0
 24 25  1  0  0  0  0
 24 48  1  0  0  0  0
 24 49  1  0  0  0  0
 25 26  1  0  0  0  0
 25 50  1  0  0  0  0
 25 51  1  0  0  0  0
 26 27  1  0  0  0  0
 26 52  1  0  0  0  0
 26 53  1  0  0  0  0
 28 29  2  0  0  0  0
M  END
> <s_m_source_file>
AV-unprocessed.smi

> <i_m_source_file_index>
94

> <i_lp_mmshare_version>
43012

> <i_f3d_flags>
0

> <s_epik_input>
W0NIM11PYzFbY0hdW2NIXWMoW0NIM10pW2NIXWMxW0NASF0oW0NIM10pW05IXUMoPU8pW0NIMl1uMmMoPU8pYyhGKVtjSF1uKGMyPU8pW0NAQEhdM1tDSDJdW0NIMl1bQ0gyXU8z

> <s_epik_cmdline>
J2VwaWtfcHl0aG9uJywgJy1waCcsICc3LjAnLCAnLXRuJywgJzgnLCAnLW1hJywgJzIwMCcsICctbWV0YWxfYmluZGluZycsICctaW1hZScsICc8aW5maWxlLm1hZT4nLCAnLW9tYWUnLCAnPG91dGZpbGUubWFlPic=

> <r_lp_tautomer_probability>
1

> <r_epik_Ionization_Penalty>
3.37009e-08

> <r_epik_Ionization_Penalty_Charging>
3.59856e-09

> <r_epik_Ionization_Penalty_Neutral>
3.01024e-08

> <r_epik_State_Penalty>
-0

> <r_epik_Charging_Adjusted_Penalty>
3.59856e-09

> <i_epik_Tot_Q>
0

> <i_epik_Tot_abs_Q>
0

> <r_epik_Metal_State_Penalty>
-0

> <b_epik_Metal_Only>
0

> <s_epik_Chemistry_Notes>
This compound contains an acetal/aminal-like group ( X-CH(R)-Y where X, Y are N, S, or O) that may be acid/base labile, releasing an aldehyde.

> <s_lp_Force_Field>
OPLS_2005

> <r_lp_Energy>
32.1562

> <b_lp_Chiralities_Consistent>
1

> <s_lp_Variant>
AV-unprocessed.smi:94-2

> <Gold.Version>
5.8.1

> <Gold.Id.Protein>
6NUR|6NUR_protein|mol2

> <Gold.PLP.Fitness>
55.3547

> <Gold.PLP.PLP>
-56.4788

> <Gold.PLP.part.hbond>
-0.6270

> <Gold.PLP.part.metal>
0.0000

> <Gold.PLP.part.buried>
-7.0985

> <Gold.PLP.part.nonpolar>
-48.3428

> <Gold.PLP.part.repulsive>
0.1792

> <Gold.PLP.ligand.clash>
0.0000

> <Gold.PLP.ligand.torsion>
0.6231

> <Gold.PLP.Chemscore.Hbond>
0.0000

> <Gold.PLP.Chemscore.CHOScore>
0.0000

> <Gold.PLP.Chemscore.Metal>
0.0000

> <Gold.PLP.Chemscore.Internal.Correction>
0.1220

> <Gold.Rescore>
     Score         DG    S(hbond)    S(metal)    S(lipo)     H(rot)  DE(clash)    DE(int)     intcor
      7.55     -12.22       0.00        0.00     108.75       2.34       0.21       4.46       ----

> <Gold.Chemscore.Fitness>
7.5523

> <Gold.Chemscore.DG>
-12.2215

> <Gold.Chemscore.ZeroCoef>
-5.4800

> <Gold.Chemscore.Hbond>
0.0000

> <Gold.Chemscore.Metal>
0.0000

> <Gold.Chemscore.Lipo>
108.7535

> <Gold.Chemscore.Internal_Hbond>
0.0000

> <Gold.Chemscore.DEClash>
0.2119

> <Gold.Chemscore.DEInternal>
4.4573

> <Gold.Chemscore.Rot>
2.3370

> <Gold.Chemscore.Internal.Correction>
   9.000000E+99

> <Gold.Chemscore.Hbond.Weighted>
-0.0000

> <Gold.Chemscore.Metal.Weighted>
-0.0000

> <Gold.Chemscore.Lipo.Weighted>
-12.7242

> <Gold.Chemscore.Internal_Hbond.Weighted>
0.0000

> <Gold.Chemscore.DEClash.Weighted>
0.2119

> <Gold.Chemscore.DEInternal.Weighted>
4.4573

> <Gold.Chemscore.Rot.Weighted>
5.9827

> <Gold.Chemscore.Internal.Correction.Weighted>
   9.000000E+99

> <Gold.Protein.RotatedTorsions>
[ 6907 6896 6895 6894 ] final  -99.76 input  -60.11 | X-H torsion
[ 7974 7965 7964 7962 ] final  132.67 input  175.53 | X-H torsion
[ 8008 7997 7996 7995 ] final  -16.11 input   59.86 | X-H torsion
[ 10167 10162 10161 10158 ] final   14.27 input  -65.29 | X-H torsion
[ 10718 10713 10712 10709 ] final  173.78 input   66.30 | X-H torsion
[ 10763 10752 10751 10750 ] final  102.97 input  -60.55 | X-H torsion
[ 11005 11000 10999 10996 ] final -153.74 input  -57.11 | X-H torsion

> <Gold.Protein.ActiveResidues>
 VAL166  LYS551  ARG553  GLY616  TRP617  ASP618  TYR619  PRO620  LYS621  CYS622 
 ASP623  PHE694  ASN695  SER759  ASP760  ASP761  ALA762  ILE779  LEU786  VAL792 
 PHE793  MET794  SER795  GLU796  ALA797  LYS798  CYS799  TRP800  GLU811  SER814 

> <Gold.Protein.RotatedAtoms>
  150.7091  134.0991  159.3958 H   0  0  0  0  0  0  0  0  0  0  0  0  # atno 6907 bound_to 6896
  151.8977  135.0389  160.0513 H   0  0  0  0  0  0  0  0  0  0  0  0  # atno 6908 bound_to 6896
  152.2440  133.5123  159.5323 H   0  0  0  0  0  0  0  0  0  0  0  0  # atno 6909 bound_to 6896
  144.9944  139.4374  143.5323 H   0  0  0  0  0  0  0  0  0  0  0  0  # atno 7974 bound_to 7965
  154.5078  140.2178  155.9216 H   0  0  0  0  0  0  0  0  0  0  0  0  # atno 8008 bound_to 7997
  156.1515  140.3160  155.8622 H   0  0  0  0  0  0  0  0  0  0  0  0  # atno 8009 bound_to 7997
  155.3929  140.0479  157.3030 H   0  0  0  0  0  0  0  0  0  0  0  0  # atno 8010 bound_to 7997
  140.5946  143.8726  150.6906 H   0  0  0  0  0  0  0  0  0  0  0  0  # atno 10167 bound_to 10162
  156.9593  131.0056  151.2931 H   0  0  0  0  0  0  0  0  0  0  0  0  # atno 10718 bound_to 10713
  153.3465  135.3992  155.1613 H   0  0  0  0  0  0  0  0  0  0  0  0  # atno 10763 bound_to 10752
  154.8654  135.3646  154.5278 H   0  0  0  0  0  0  0  0  0  0  0  0  # atno 10764 bound_to 10752
  153.5726  135.7078  153.5558 H   0  0  0  0  0  0  0  0  0  0  0  0  # atno 10765 bound_to 10752
  140.7049  134.3897  157.5205 H   0  0  0  0  0  0  0  0  0  0  0  0  # atno 11005 bound_to 11000
  146.3438  139.9295  142.8755 LP  0  0  0  0  0  0  0  0  0  0  0  0  # atno 17320 bound_to 7965
  145.2240  140.9946  143.4029 LP  0  0  0  0  0  0  0  0  0  0  0  0  # atno 17321 bound_to 7965
  140.2257  143.3774  152.1606 LP  0  0  0  0  0  0  0  0  0  0  0  0  # atno 17342 bound_to 10162
  139.5250  144.7090  151.5264 LP  0  0  0  0  0  0  0  0  0  0  0  0  # atno 17343 bound_to 10162
  157.5669  130.8283  149.8339 LP  0  0  0  0  0  0  0  0  0  0  0  0  # atno 17370 bound_to 10713
  156.0329  130.3759  150.1639 LP  0  0  0  0  0  0  0  0  0  0  0  0  # atno 17371 bound_to 10713
  139.8887  134.8850  156.2461 LP  0  0  0  0  0  0  0  0  0  0  0  0  # atno 17394 bound_to 11000
  141.0133  133.7083  156.1147 LP  0  0  0  0  0  0  0  0  0  0  0  0  # atno 17395 bound_to 11000

$$$$
