AV-unprocessed.smi:2091|AV-procd|sdf|8538|dock9
  -GOLD-   2272011263D 1   1.00000     0.00000
 Structure written by MMmdl.
 36 37  0  0  0  0  0  0  0  0  1 V2000
  150.4656  139.7762  158.9396 O   0  0  0  0  0  0  0  0  0  0  0  0
  151.5115  139.5201  158.3416 C   0  0  0  0  0  0  0  0  0  0  0  0
  151.8414  138.0799  157.9274 C   0  0  0  0  0  0  0  0  0  0  0  0
  152.7544  137.4156  158.8681 N   0  0  0  0  0  0  0  0  0  0  0  0
  152.7104  137.7176  160.2217 C   0  0  0  0  0  0  0  0  0  0  0  0
  153.5265  137.1473  161.1396 C   0  0  0  0  0  0  0  0  0  0  0  0
  154.5194  136.1590  160.7324 C   0  0  0  0  0  0  0  0  0  0  0  0
  155.3001  135.5854  161.4883 O   0  0  0  0  0  0  0  0  0  0  0  0
  154.5347  135.8847  159.3624 N   0  0  0  0  0  0  0  0  0  0  0  0
  153.6982  136.4702  158.4109 C   0  0  0  0  0  0  0  0  0  0  0  0
  153.7972  136.1584  157.2246 O   0  0  0  0  0  0  0  0  0  0  0  0
  152.4099  140.4563  157.9965 N   0  0  0  0  0  0  0  0  0  0  0  0
  152.3103  141.8861  158.2975 C   0  0  2  0  0  0  0  0  0  0  0  0
  152.2410  142.0326  159.8351 C   0  0  0  0  0  0  0  0  0  0  0  0
  152.6651  143.4195  160.3482 C   0  0  0  0  0  0  0  0  0  0  0  0
  151.7495  144.5766  159.9219 C   0  0  0  0  0  0  0  0  0  0  0  0
  151.6991  144.7954  158.4003 C   0  0  0  0  0  0  0  0  0  0  0  0
  150.8454  143.8207  157.7342 N   0  0  0  0  0  0  0  0  0  0  0  0
  151.0339  142.4938  157.6685 C   0  0  0  0  0  0  0  0  0  0  0  0
  150.1993  141.7749  157.1191 O   0  0  0  0  0  0  0  0  0  0  0  0
  155.2073  135.2078  159.0325 H   0  0  0  0  0  0  0  0  0  0  0  0
  150.9036  137.5276  157.8537 H   0  0  0  0  0  0  0  0  0  0  0  0
  152.2645  138.0637  156.9207 H   0  0  0  0  0  0  0  0  0  0  0  0
  151.9926  138.4476  160.5685 H   0  0  0  0  0  0  0  0  0  0  0  0
  153.4446  137.4243  162.1806 H   0  0  0  0  0  0  0  0  0  0  0  0
  153.2415  140.1537  157.5109 H   0  0  0  0  0  0  0  0  0  0  0  0
  153.1964  142.3926  157.9105 H   0  0  0  0  0  0  0  0  0  0  0  0
  151.2465  141.7802  160.2075 H   0  0  0  0  0  0  0  0  0  0  0  0
  152.9150  141.3062  160.2919 H   0  0  0  0  0  0  0  0  0  0  0  0
  152.6995  143.3900  161.4377 H   0  0  0  0  0  0  0  0  0  0  0  0
  153.6861  143.6275  160.0263 H   0  0  0  0  0  0  0  0  0  0  0  0
  150.7426  144.4269  160.3148 H   0  0  0  0  0  0  0  0  0  0  0  0
  152.1192  145.4895  160.3901 H   0  0  0  0  0  0  0  0  0  0  0  0
  151.2807  145.7809  158.1941 H   0  0  0  0  0  0  0  0  0  0  0  0
  152.6996  144.7901  157.9656 H   0  0  0  0  0  0  0  0  0  0  0  0
  150.0071  144.1846  157.3046 H   0  0  0  0  0  0  0  0  0  0  0  0
  1  2  2  0  0  0  0
  2  3  1  0  0  0  0
  2 12  1  0  0  0  0
  3  4  1  0  0  0  0
  3 22  1  0  0  0  0
  3 23  1  0  0  0  0
  4 10  1  0  0  0  0
  4  5  1  0  0  0  0
  5  6  2  0  0  0  0
  5 24  1  0  0  0  0
  6  7  1  0  0  0  0
  6 25  1  0  0  0  0
  7  8  2  0  0  0  0
  7  9  1  0  0  0  0
  9 21  1  0  0  0  0
  9 10  1  0  0  0  0
 10 11  2  0  0  0  0
 12 13  1  0  0  0  0
 12 26  1  0  0  0  0
 13 19  1  0  0  0  0
 13 14  1  0  0  0  0
 13 27  1  0  0  0  0
 14 15  1  0  0  0  0
 14 28  1  0  0  0  0
 14 29  1  0  0  0  0
 15 16  1  0  0  0  0
 15 30  1  0  0  0  0
 15 31  1  0  0  0  0
 16 17  1  0  0  0  0
 16 32  1  0  0  0  0
 16 33  1  0  0  0  0
 17 18  1  0  0  0  0
 17 34  1  0  0  0  0
 17 35  1  0  0  0  0
 18 19  1  0  0  0  0
 18 36  1  0  0  0  0
 19 20  2  0  0  0  0
M  END
> <s_m_source_file>
AV-unprocessed.smi

> <i_m_source_file_index>
2091

> <i_lp_mmshare_version>
43012

> <i_f3d_flags>
0

> <s_epik_input>
Tz1jMVtuSF1jKD1PKVtjSF1bY0hdbjFbQ0gyXUMoPU8pW05IXVtDQEBIXTJbQ0gyXVtDSDJdW0NIMl1bQ0gyXVtOSF1DMj1P

> <s_epik_cmdline>
J2VwaWtfcHl0aG9uJywgJy1waCcsICc3LjAnLCAnLXRuJywgJzgnLCAnLW1hJywgJzIwMCcsICctbWV0YWxfYmluZGluZycsICctaW1hZScsICc8aW5maWxlLm1hZT4nLCAnLW9tYWUnLCAnPG91dGZpbGUubWFlPic=

> <r_lp_tautomer_probability>
0.999537

> <r_epik_Ionization_Penalty>
0.00356328

> <r_epik_Ionization_Penalty_Charging>
0.00356323

> <r_epik_Ionization_Penalty_Neutral>
5.33217e-08

> <r_epik_State_Penalty>
0.00253125

> <r_epik_Charging_Adjusted_Penalty>
0.00609448

> <i_epik_Tot_Q>
0

> <i_epik_Tot_abs_Q>
0

> <r_epik_Metal_State_Penalty>
0.368636

> <b_epik_Metal_Only>
0

> <s_lp_Force_Field>
OPLS_2005

> <r_lp_Energy>
10.0871

> <b_lp_Chiralities_Consistent>
1

> <s_lp_Variant>
AV-unprocessed.smi:2091-1

> <Gold.Version>
5.8.1

> <Gold.Id.Protein>
6NUR|6NUR_protein|mol2

> <Gold.PLP.Fitness>
35.6840

> <Gold.PLP.PLP>
-31.0445

> <Gold.PLP.part.hbond>
-2.0000

> <Gold.PLP.part.metal>
0.0000

> <Gold.PLP.part.buried>
-5.8955

> <Gold.PLP.part.nonpolar>
-23.4167

> <Gold.PLP.part.repulsive>
0.2692

> <Gold.PLP.ligand.clash>
0.0000

> <Gold.PLP.ligand.torsion>
0.6810

> <Gold.PLP.Chemscore.Hbond>
2.0000

> <Gold.PLP.Chemscore.CHOScore>
0.0000

> <Gold.PLP.Chemscore.Metal>
0.0000

> <Gold.Chemscore.Hbonds>
donor molecule, donor type, donor heavy atom, donor atom, acceptor molecule, acceptor atom, score
      L1  H    18    36       P1  8028  0.99
      P1  H 10752 10764       L1    11  0.96

> <Gold.PLP.Chemscore.Internal.Correction>
0.0015

> <Gold.Rescore>
     Score         DG    S(hbond)    S(metal)    S(lipo)     H(rot)  DE(clash)    DE(int)     intcor
     13.14     -15.51       1.98        0.00      70.34       1.88       0.01       2.36       ----

> <Gold.Chemscore.Fitness>
13.1447

> <Gold.Chemscore.DG>
-15.5125

> <Gold.Chemscore.ZeroCoef>
-5.4800

> <Gold.Chemscore.Hbond>
1.9841

> <Gold.Chemscore.Metal>
0.0000

> <Gold.Chemscore.Lipo>
70.3388

> <Gold.Chemscore.Internal_Hbond>
0.0000

> <Gold.Chemscore.DEClash>
0.0108

> <Gold.Chemscore.DEInternal>
2.3570

> <Gold.Chemscore.Rot>
1.8844

> <Gold.Chemscore.Internal.Correction>
   9.000000E+99

> <Gold.Chemscore.Hbonds>
donor molecule, donor type, donor heavy atom, donor atom, acceptor molecule, acceptor atom, score
      L1  H    18    36       P1  8028  0.58
      P1  H 10752 10764       L1    11  0.87

> <Gold.Chemscore.Hbond.Weighted>
-6.6270

> <Gold.Chemscore.Metal.Weighted>
-0.0000

> <Gold.Chemscore.Lipo.Weighted>
-8.2296

> <Gold.Chemscore.Internal_Hbond.Weighted>
0.0000

> <Gold.Chemscore.DEClash.Weighted>
0.0108

> <Gold.Chemscore.DEInternal.Weighted>
2.3570

> <Gold.Chemscore.Rot.Weighted>
4.8242

> <Gold.Chemscore.Internal.Correction.Weighted>
   9.000000E+99

> <Gold.Protein.RotatedTorsions>
[ 6907 6896 6895 6894 ] final  138.55 input  -60.11 | X-H torsion
[ 7974 7965 7964 7962 ] final -104.47 input  175.53 | X-H torsion
[ 8008 7997 7996 7995 ] final   64.39 input   59.86 | X-H torsion
[ 10167 10162 10161 10158 ] final   29.73 input  -65.29 | X-H torsion
[ 10718 10713 10712 10709 ] final   84.48 input   66.30 | X-H torsion
[ 10763 10752 10751 10750 ] final   33.00 input  -60.55 | X-H torsion
[ 11005 11000 10999 10996 ] final -139.15 input  -57.11 | X-H torsion

> <Gold.Protein.ActiveResidues>
 VAL166  LYS551  ARG553  GLY616  TRP617  ASP618  TYR619  PRO620  LYS621  CYS622 
 ASP623  PHE694  ASN695  SER759  ASP760  ASP761  ALA762  ILE779  LEU786  VAL792 
 PHE793  MET794  SER795  GLU796  ALA797  LYS798  CYS799  TRP800  GLU811  SER814 

> <Gold.Protein.RotatedAtoms>
  152.2653  133.5333  159.5405 H   0  0  0  0  0  0  0  0  0  0  0  0  # atno 6907 bound_to 6896
  150.7139  134.0773  159.3894 H   0  0  0  0  0  0  0  0  0  0  0  0  # atno 6908 bound_to 6896
  151.8690  135.0496  160.0528 H   0  0  0  0  0  0  0  0  0  0  0  0  # atno 6909 bound_to 6896
  145.2428  140.9211  143.3140 H   0  0  0  0  0  0  0  0  0  0  0  0  # atno 7974 bound_to 7965
  155.6453  140.3497  155.4729 H   0  0  0  0  0  0  0  0  0  0  0  0  # atno 8008 bound_to 7997
  155.9892  140.1190  157.0677 H   0  0  0  0  0  0  0  0  0  0  0  0  # atno 8009 bound_to 7997
  154.4214  140.1123  156.5528 H   0  0  0  0  0  0  0  0  0  0  0  0  # atno 8010 bound_to 7997
  140.4740  144.0719  150.6245 H   0  0  0  0  0  0  0  0  0  0  0  0  # atno 10167 bound_to 10162
  157.6899  131.0135  150.2679 H   0  0  0  0  0  0  0  0  0  0  0  0  # atno 10718 bound_to 10713
  153.0233  135.6398  154.1444 H   0  0  0  0  0  0  0  0  0  0  0  0  # atno 10763 bound_to 10752
  154.1175  135.2849  155.3218 H   0  0  0  0  0  0  0  0  0  0  0  0  # atno 10764 bound_to 10752
  154.6287  135.5500  153.7718 H   0  0  0  0  0  0  0  0  0  0  0  0  # atno 10765 bound_to 10752
  140.8547  134.2242  157.4741 H   0  0  0  0  0  0  0  0  0  0  0  0  # atno 11005 bound_to 11000
  144.9574  139.4017  143.6373 LP  0  0  0  0  0  0  0  0  0  0  0  0  # atno 17320 bound_to 7965
  146.3324  139.8610  142.8856 LP  0  0  0  0  0  0  0  0  0  0  0  0  # atno 17321 bound_to 7965
  140.3942  143.2737  152.0024 LP  0  0  0  0  0  0  0  0  0  0  0  0  # atno 17342 bound_to 10162
  139.4822  144.6052  151.7534 LP  0  0  0  0  0  0  0  0  0  0  0  0  # atno 17343 bound_to 10162
  156.3247  130.3791  149.7544 LP  0  0  0  0  0  0  0  0  0  0  0  0  # atno 17370 bound_to 10713
  156.5103  130.8169  151.3166 LP  0  0  0  0  0  0  0  0  0  0  0  0  # atno 17371 bound_to 10713
  139.8705  134.9700  156.4688 LP  0  0  0  0  0  0  0  0  0  0  0  0  # atno 17394 bound_to 11000
  140.8750  133.7960  155.9405 LP  0  0  0  0  0  0  0  0  0  0  0  0  # atno 17395 bound_to 11000

$$$$
