AV-unprocessed.smi:1687|AV-procd|sdf|6769|dock2
  -GOLD-   22720 7533D 1   1.00000     0.00000
 Structure written by MMmdl.
 45 46  0  0  0  0  0  0  0  0  2 V2000
  145.9602  136.2616  154.3908 C   0  0  0  0  0  0  0  0  0  0  0  0
  145.0343  137.2579  153.6706 C   0  0  2  0  0  0  0  0  0  0  0  0
  145.6675  137.8469  152.3961 C   0  0  0  0  0  0  0  0  0  0  0  0
  146.7631  138.8792  152.7161 C   0  0  0  0  0  0  0  0  0  0  0  0
  146.2318  139.9655  153.5846 N   0  3  2  0  0  0  0  0  0  0  0  0
  147.1425  141.1324  153.7768 C   0  0  1  0  0  0  0  0  0  0  0  0
  146.4578  142.3246  154.4809 C   0  0  0  0  0  0  0  0  0  0  0  0
  148.4521  140.6934  154.4743 C   0  0  0  0  0  0  0  0  0  0  0  0
  149.0186  141.7362  155.3245 N   0  0  0  0  0  0  0  0  0  0  0  0
  149.8748  141.5224  156.3340 C   0  0  0  0  0  0  0  0  0  0  0  0
  150.2806  140.4032  156.6493 O   0  0  0  0  0  0  0  0  0  0  0  0
  150.2196  142.6753  156.9342 N   0  0  0  0  0  0  0  0  0  0  0  0
  151.1119  142.8654  158.0231 C   0  0  0  0  0  0  0  0  0  0  0  0
  151.4350  144.2123  158.3034 C   0  0  0  0  0  0  0  0  0  0  0  0
  152.3142  144.5080  159.3632 C   0  0  0  0  0  0  0  0  0  0  0  0
  152.8485  143.4473  160.1162 C   0  0  0  0  0  0  0  0  0  0  0  0
  152.4754  142.1352  159.7713 C   0  0  0  0  0  0  0  0  0  0  0  0
  151.6331  141.8495  158.7556 N   0  0  0  0  0  0  0  0  0  0  0  0
  145.6775  139.4323  154.8570 C   0  0  0  0  0  0  0  0  0  0  0  0
  144.5646  138.4027  154.5874 C   0  0  0  0  0  0  0  0  0  0  0  0
  146.8762  136.7321  154.7468 H   0  0  0  0  0  0  0  0  0  0  0  0
  146.2457  135.4448  153.7275 H   0  0  0  0  0  0  0  0  0  0  0  0
  145.4610  135.8204  155.2538 H   0  0  0  0  0  0  0  0  0  0  0  0
  144.1509  136.6937  153.3686 H   0  0  0  0  0  0  0  0  0  0  0  0
  146.0738  137.0495  151.7727 H   0  0  0  0  0  0  0  0  0  0  0  0
  144.8907  138.3288  151.8007 H   0  0  0  0  0  0  0  0  0  0  0  0
  147.6045  138.3852  153.2025 H   0  0  0  0  0  0  0  0  0  0  0  0
  147.1404  139.2915  151.7811 H   0  0  0  0  0  0  0  0  0  0  0  0
  147.4259  141.4725  152.7798 H   0  0  0  0  0  0  0  0  0  0  0  0
  147.0978  143.2070  154.4708 H   0  0  0  0  0  0  0  0  0  0  0  0
  146.2300  142.1049  155.5240 H   0  0  0  0  0  0  0  0  0  0  0  0
  145.5282  142.6044  153.9857 H   0  0  0  0  0  0  0  0  0  0  0  0
  148.2791  139.8249  155.1087 H   0  0  0  0  0  0  0  0  0  0  0  0
  149.1926  140.3886  153.7326 H   0  0  0  0  0  0  0  0  0  0  0  0
  148.7344  142.6861  155.1334 H   0  0  0  0  0  0  0  0  0  0  0  0
  149.7980  143.5161  156.5686 H   0  0  0  0  0  0  0  0  0  0  0  0
  151.0153  145.0155  157.7151 H   0  0  0  0  0  0  0  0  0  0  0  0
  152.5733  145.5308  159.5935 H   0  0  0  0  0  0  0  0  0  0  0  0
  153.5260  143.6338  160.9362 H   0  0  0  0  0  0  0  0  0  0  0  0
  152.8632  141.2930  160.3250 H   0  0  0  0  0  0  0  0  0  0  0  0
  146.4731  138.9847  155.4530 H   0  0  0  0  0  0  0  0  0  0  0  0
  145.2625  140.2478  155.4505 H   0  0  0  0  0  0  0  0  0  0  0  0
  143.7209  138.9109  154.1185 H   0  0  0  0  0  0  0  0  0  0  0  0
  144.1886  138.0027  155.5297 H   0  0  0  0  0  0  0  0  0  0  0  0
  145.4328  140.3420  153.0943 H   0  0  0  0  0  0  0  0  0  0  0  0
  1  2  1  0  0  0  0
  1 21  1  0  0  0  0
  1 22  1  0  0  0  0
  1 23  1  0  0  0  0
  2 20  1  0  0  0  0
  2  3  1  0  0  0  0
  2 24  1  0  0  0  0
  3  4  1  0  0  0  0
  3 25  1  0  0  0  0
  3 26  1  0  0  0  0
  4  5  1  0  0  0  0
  4 27  1  0  0  0  0
  4 28  1  0  0  0  0
  5  6  1  0  0  0  0
  5 19  1  0  0  0  0
  5 45  1  0  0  0  0
  6  7  1  0  0  0  0
  6  8  1  0  0  0  0
  6 29  1  0  0  0  0
  7 30  1  0  0  0  0
  7 31  1  0  0  0  0
  7 32  1  0  0  0  0
  8  9  1  0  0  0  0
  8 33  1  0  0  0  0
  8 34  1  0  0  0  0
  9 10  1  0  0  0  0
  9 35  1  0  0  0  0
 10 11  2  0  0  0  0
 10 12  1  0  0  0  0
 12 13  1  0  0  0  0
 12 36  1  0  0  0  0
 13 18  1  0  0  0  0
 13 14  2  0  0  0  0
 14 15  1  0  0  0  0
 14 37  1  0  0  0  0
 15 16  2  0  0  0  0
 15 38  1  0  0  0  0
 16 17  1  0  0  0  0
 16 39  1  0  0  0  0
 17 18  2  0  0  0  0
 17 40  1  0  0  0  0
 19 20  1  0  0  0  0
 19 41  1  0  0  0  0
 19 42  1  0  0  0  0
 20 43  1  0  0  0  0
 20 44  1  0  0  0  0
M  CHG  1   5   1
M  END
> <s_m_source_file>
AV-unprocessed.smi

> <i_m_source_file_index>
1687

> <i_lp_mmshare_version>
43012

> <i_f3d_flags>
0

> <s_epik_input>
W0NIM11bQ0hdMVtDSDJdW0NIMl1OKFtDSDJdW0NIMl0xKVtDQEhdKFtDSDNdKVtDSDJdW05IXUMoPU8pW05IXWMyW2NIXVtjSF1bY0hdW2NIXW4y

> <s_epik_cmdline>
J2VwaWtfcHl0aG9uJywgJy1waCcsICc3LjAnLCAnLXRuJywgJzgnLCAnLW1hJywgJzIwMCcsICctbWV0YWxfYmluZGluZycsICctaW1hZScsICc8aW5maWxlLm1hZT4nLCAnLW9tYWUnLCAnPG91dGZpbGUubWFlPic=

> <r_epik_Ionization_Penalty>
0.00142891

> <r_epik_Ionization_Penalty_Charging>
0.00139388

> <r_epik_Ionization_Penalty_Neutral>
3.50347e-05

> <r_epik_State_Penalty>
0.000929204

> <r_epik_Charging_Adjusted_Penalty>
0.00232308

> <i_epik_Tot_Q>
1

> <i_epik_Tot_abs_Q>
1

> <r_epik_Metal_State_Penalty>
-0

> <b_epik_Metal_Only>
0

> <s_lp_Force_Field>
OPLS_2005

> <r_lp_Energy>
23.2941

> <b_lp_Chiralities_Consistent>
1

> <s_lp_Variant>
AV-unprocessed.smi:1687-4

> <Gold.Version>
5.8.1

> <Gold.Id.Protein>
6NUR|6NUR_protein|mol2

> <Gold.PLP.Fitness>
51.4815

> <Gold.PLP.PLP>
-40.9984

> <Gold.PLP.part.hbond>
-3.0000

> <Gold.PLP.part.metal>
0.0000

> <Gold.PLP.part.buried>
-2.7935

> <Gold.PLP.part.nonpolar>
-35.7647

> <Gold.PLP.part.repulsive>
0.2719

> <Gold.PLP.ligand.clash>
0.0000

> <Gold.PLP.ligand.torsion>
0.6984

> <Gold.PLP.Chemscore.Hbond>
3.9120

> <Gold.PLP.Chemscore.CHOScore>
0.0000

> <Gold.PLP.Chemscore.Metal>
0.0000

> <Gold.Chemscore.Hbonds>
donor molecule, donor type, donor heavy atom, donor atom, acceptor molecule, acceptor atom, score
      L1  H     5    45       P1 10175  2.00
      L1  H     9    35       P1  8028  0.81
      L1  H    12    36       P1  8028  1.00

> <Gold.PLP.Chemscore.Internal.Correction>
0.1440

> <Gold.Rescore>
     Score         DG    S(hbond)    S(metal)    S(lipo)     H(rot)  DE(clash)    DE(int)     intcor
     19.97     -22.00       2.88        0.00      91.56       1.50       0.02       2.01       ----

> <Gold.Chemscore.Fitness>
19.9665

> <Gold.Chemscore.DG>
-21.9981

> <Gold.Chemscore.ZeroCoef>
-5.4800

> <Gold.Chemscore.Hbond>
2.8845

> <Gold.Chemscore.Metal>
0.0000

> <Gold.Chemscore.Lipo>
91.5609

> <Gold.Chemscore.Internal_Hbond>
0.0000

> <Gold.Chemscore.DEClash>
0.0202

> <Gold.Chemscore.DEInternal>
2.0114

> <Gold.Chemscore.Rot>
1.4956

> <Gold.Chemscore.Internal.Correction>
   9.000000E+99

> <Gold.Chemscore.Hbonds>
donor molecule, donor type, donor heavy atom, donor atom, acceptor molecule, acceptor atom, score
      L1  H     5    45       P1 10175  0.96
      L1  H     9    35       P1  8028  0.76
      L1  H    12    36       P1  8028  1.00

> <Gold.Chemscore.Hbond.Weighted>
-9.6344

> <Gold.Chemscore.Metal.Weighted>
-0.0000

> <Gold.Chemscore.Lipo.Weighted>
-10.7126

> <Gold.Chemscore.Internal_Hbond.Weighted>
0.0000

> <Gold.Chemscore.DEClash.Weighted>
0.0202

> <Gold.Chemscore.DEInternal.Weighted>
2.0114

> <Gold.Chemscore.Rot.Weighted>
3.8289

> <Gold.Chemscore.Internal.Correction.Weighted>
   9.000000E+99

> <Gold.Protein.RotatedTorsions>
[ 6907 6896 6895 6894 ] final  144.90 input  -60.11 | X-H torsion
[ 7974 7965 7964 7962 ] final  173.40 input  175.53 | X-H torsion
[ 8008 7997 7996 7995 ] final   16.61 input   59.86 | X-H torsion
[ 10167 10162 10161 10158 ] final -140.63 input  -65.29 | X-H torsion
[ 10718 10713 10712 10709 ] final  -89.81 input   66.30 | X-H torsion
[ 10763 10752 10751 10750 ] final -165.14 input  -60.55 | X-H torsion
[ 11005 11000 10999 10996 ] final   55.56 input  -57.11 | X-H torsion

> <Gold.Protein.ActiveResidues>
 VAL166  LYS551  ARG553  GLY616  TRP617  ASP618  TYR619  PRO620  LYS621  CYS622 
 ASP623  PHE694  ASN695  SER759  ASP760  ASP761  ALA762  ILE779  LEU786  VAL792 
 PHE793  MET794  SER795  GLU796  ALA797  LYS798  CYS799  TRP800  GLU811  SER814 

> <Gold.Protein.RotatedAtoms>
  152.1878  133.4752  159.4991 H   0  0  0  0  0  0  0  0  0  0  0  0  # atno 6907 bound_to 6896
  150.6945  134.1751  159.4236 H   0  0  0  0  0  0  0  0  0  0  0  0  # atno 6908 bound_to 6896
  151.9665  135.0098  160.0601 H   0  0  0  0  0  0  0  0  0  0  0  0  # atno 6909 bound_to 6896
  144.7244  139.9643  143.6435 H   0  0  0  0  0  0  0  0  0  0  0  0  # atno 7974 bound_to 7965
  154.8794  140.2971  155.5434 H   0  0  0  0  0  0  0  0  0  0  0  0  # atno 8008 bound_to 7997
  156.3022  140.2445  156.3728 H   0  0  0  0  0  0  0  0  0  0  0  0  # atno 8009 bound_to 7997
  154.8733  140.0400  157.1727 H   0  0  0  0  0  0  0  0  0  0  0  0  # atno 8010 bound_to 7997
  139.8263  143.7506  152.2666 H   0  0  0  0  0  0  0  0  0  0  0  0  # atno 10167 bound_to 10162
  155.9985  130.4886  150.5228 H   0  0  0  0  0  0  0  0  0  0  0  0  # atno 10718 bound_to 10713
  154.6961  135.2979  154.9409 H   0  0  0  0  0  0  0  0  0  0  0  0  # atno 10763 bound_to 10752
  154.0356  135.6664  153.4789 H   0  0  0  0  0  0  0  0  0  0  0  0  # atno 10764 bound_to 10752
  153.0647  135.5095  154.8080 H   0  0  0  0  0  0  0  0  0  0  0  0  # atno 10765 bound_to 10752
  140.0598  134.5619  155.9166 H   0  0  0  0  0  0  0  0  0  0  0  0  # atno 11005 bound_to 11000
  146.0613  139.3606  143.0579 LP  0  0  0  0  0  0  0  0  0  0  0  0  # atno 17320 bound_to 7965
  145.8089  140.9735  143.0959 LP  0  0  0  0  0  0  0  0  0  0  0  0  # atno 17321 bound_to 7965
  139.7700  144.7479  151.0238 LP  0  0  0  0  0  0  0  0  0  0  0  0  # atno 17342 bound_to 10162
  140.7810  143.4655  151.0218 LP  0  0  0  0  0  0  0  0  0  0  0  0  # atno 17343 bound_to 10162
  157.3187  131.0677  151.1948 LP  0  0  0  0  0  0  0  0  0  0  0  0  # atno 17370 bound_to 10713
  157.2869  130.6777  149.6094 LP  0  0  0  0  0  0  0  0  0  0  0  0  # atno 17371 bound_to 10713
  141.1968  133.6593  156.5709 LP  0  0  0  0  0  0  0  0  0  0  0  0  # atno 17394 bound_to 11000
  140.3788  134.7541  157.4647 LP  0  0  0  0  0  0  0  0  0  0  0  0  # atno 17395 bound_to 11000

$$$$
