AV-unprocessed.smi:1221|AV-procd|sdf|5118|dock6
  -GOLD-   22720 4173D 1   1.00000     0.00000
 Structure written by MMmdl.
 40 41  0  0  0  0  0  0  0  0  1 V2000
  142.7635  145.5858  161.6096 C   0  0  0  0  0  0  0  0  0  0  0  0
  143.8880  144.8129  161.0104 C   0  0  0  0  0  0  0  0  0  0  0  0
  145.0504  145.1867  160.3965 C   0  0  0  0  0  0  0  0  0  0  0  0
  145.6545  143.9430  160.0717 C   0  0  0  0  0  0  0  0  0  0  0  0
  146.9072  143.8935  159.4088 N   0  0  0  0  0  0  0  0  0  0  0  0
  147.5469  142.8046  158.9497 C   0  0  0  0  0  0  0  0  0  0  0  0
  147.1313  141.6486  159.0363 O   0  0  0  0  0  0  0  0  0  0  0  0
  148.7121  143.1301  158.3716 N   0  0  0  0  0  0  0  0  0  0  0  0
  149.6369  142.1768  157.7712 C   0  0  0  0  0  0  0  0  0  0  0  0
  150.9285  142.8672  157.2946 C   0  0  0  0  0  0  0  0  0  0  0  0
  151.9475  142.8727  158.3515 N   0  0  0  0  0  0  0  0  0  0  0  0
  152.5193  144.1833  158.7019 C   0  0  0  0  0  0  0  0  0  0  0  0
  152.0883  144.6972  160.0958 C   0  0  0  0  0  0  0  0  0  0  0  0
  151.7846  143.6213  161.1573 C   0  0  0  0  0  0  0  0  0  0  0  0
  152.8966  142.5708  161.3582 C   0  0  0  0  0  0  0  0  0  0  0  0
  153.3787  141.8250  160.0911 C   0  0  0  0  0  0  0  0  0  0  0  0
  152.3270  141.7293  158.9741 C   0  0  0  0  0  0  0  0  0  0  0  0
  151.8643  140.6241  158.6900 O   0  0  0  0  0  0  0  0  0  0  0  0
  144.9267  142.9043  160.4527 N   0  0  0  0  0  0  0  0  0  0  0  0
  143.7916  143.4564  161.0578 O   0  0  0  0  0  0  0  0  0  0  0  0
  142.7552  146.6111  161.2395 H   0  0  0  0  0  0  0  0  0  0  0  0
  142.8543  145.6181  162.6953 H   0  0  0  0  0  0  0  0  0  0  0  0
  141.8043  145.1303  161.3630 H   0  0  0  0  0  0  0  0  0  0  0  0
  145.4080  146.1887  160.2113 H   0  0  0  0  0  0  0  0  0  0  0  0
  147.3634  144.7824  159.2673 H   0  0  0  0  0  0  0  0  0  0  0  0
  148.9774  144.1037  158.3428 H   0  0  0  0  0  0  0  0  0  0  0  0
  149.8765  141.4186  158.5174 H   0  0  0  0  0  0  0  0  0  0  0  0
  149.1460  141.6547  156.9481 H   0  0  0  0  0  0  0  0  0  0  0  0
  151.3207  142.3641  156.4088 H   0  0  0  0  0  0  0  0  0  0  0  0
  150.7035  143.8820  156.9655 H   0  0  0  0  0  0  0  0  0  0  0  0
  153.6068  144.1239  158.6503 H   0  0  0  0  0  0  0  0  0  0  0  0
  152.2620  144.9394  157.9595 H   0  0  0  0  0  0  0  0  0  0  0  0
  152.8532  145.3770  160.4726 H   0  0  0  0  0  0  0  0  0  0  0  0
  151.1906  145.3047  159.9767 H   0  0  0  0  0  0  0  0  0  0  0  0
  151.5897  144.1139  162.1101 H   0  0  0  0  0  0  0  0  0  0  0  0
  150.8501  143.1183  160.9050 H   0  0  0  0  0  0  0  0  0  0  0  0
  153.7570  143.0519  161.8247 H   0  0  0  0  0  0  0  0  0  0  0  0
  152.5442  141.8368  162.0838 H   0  0  0  0  0  0  0  0  0  0  0  0
  154.2749  142.3010  159.6936 H   0  0  0  0  0  0  0  0  0  0  0  0
  153.6981  140.8195  160.3680 H   0  0  0  0  0  0  0  0  0  0  0  0
  1  2  1  0  0  0  0
  1 21  1  0  0  0  0
  1 22  1  0  0  0  0
  1 23  1  0  0  0  0
  2 20  1  0  0  0  0
  2  3  2  0  0  0  0
  3  4  1  0  0  0  0
  3 24  1  0  0  0  0
  4  5  1  0  0  0  0
  4 19  2  0  0  0  0
  5  6  1  0  0  0  0
  5 25  1  0  0  0  0
  6  7  2  0  0  0  0
  6  8  1  0  0  0  0
  8  9  1  0  0  0  0
  8 26  1  0  0  0  0
  9 10  1  0  0  0  0
  9 27  1  0  0  0  0
  9 28  1  0  0  0  0
 10 11  1  0  0  0  0
 10 29  1  0  0  0  0
 10 30  1  0  0  0  0
 11 17  1  0  0  0  0
 11 12  1  0  0  0  0
 12 13  1  0  0  0  0
 12 31  1  0  0  0  0
 12 32  1  0  0  0  0
 13 14  1  0  0  0  0
 13 33  1  0  0  0  0
 13 34  1  0  0  0  0
 14 15  1  0  0  0  0
 14 35  1  0  0  0  0
 14 36  1  0  0  0  0
 15 16  1  0  0  0  0
 15 37  1  0  0  0  0
 15 38  1  0  0  0  0
 16 17  1  0  0  0  0
 16 39  1  0  0  0  0
 16 40  1  0  0  0  0
 17 18  2  0  0  0  0
 19 20  1  0  0  0  0
M  END
> <s_m_source_file>
AV-unprocessed.smi

> <i_m_source_file_index>
1221

> <i_lp_mmshare_version>
43012

> <i_f3d_flags>
0

> <s_epik_input>
W0NIM11jMVtjSF1jKG5vMSlbTkhdQyg9TylbTkhdW0NIMl1bQ0gyXU4yW0NIMl1bQ0gyXVtDSDJdW0NIMl1bQ0gyXUMyPU8=

> <s_epik_cmdline>
J2VwaWtfcHl0aG9uJywgJy1waCcsICc3LjAnLCAnLXRuJywgJzgnLCAnLW1hJywgJzIwMCcsICctbWV0YWxfYmluZGluZycsICctaW1hZScsICc8aW5maWxlLm1hZT4nLCAnLW9tYWUnLCAnPG91dGZpbGUubWFlPic=

> <r_lp_tautomer_probability>
1

> <r_epik_Ionization_Penalty>
2.943e-05

> <r_epik_Ionization_Penalty_Charging>
0

> <r_epik_Ionization_Penalty_Neutral>
2.943e-05

> <r_epik_State_Penalty>
-0

> <r_epik_Charging_Adjusted_Penalty>
0

> <i_epik_Tot_Q>
0

> <i_epik_Tot_abs_Q>
0

> <r_epik_Metal_State_Penalty>
0.0104721

> <b_epik_Metal_Only>
0

> <s_lp_Force_Field>
OPLS_2005

> <r_lp_Energy>
18.1231

> <b_lp_Chiralities_Consistent>
1

> <s_lp_Variant>
AV-unprocessed.smi:1221-1

> <Gold.Version>
5.8.1

> <Gold.Id.Protein>
6NUR|6NUR_protein|mol2

> <Gold.PLP.Fitness>
44.6955

> <Gold.PLP.PLP>
-39.4545

> <Gold.PLP.part.hbond>
-4.0000

> <Gold.PLP.part.metal>
0.0000

> <Gold.PLP.part.buried>
-3.4296

> <Gold.PLP.part.nonpolar>
-33.0068

> <Gold.PLP.part.repulsive>
0.1915

> <Gold.PLP.ligand.clash>
0.0000

> <Gold.PLP.ligand.torsion>
0.2495

> <Gold.PLP.Chemscore.Hbond>
1.9103

> <Gold.PLP.Chemscore.CHOScore>
0.0000

> <Gold.PLP.Chemscore.Metal>
0.0000

> <Gold.Chemscore.Hbonds>
donor molecule, donor type, donor heavy atom, donor atom, acceptor molecule, acceptor atom, score
      L1  H     5    25       P1  8029  0.11
      L1  H     8    26       P1  8029  0.07
      P1  H  6934  6946       L1     7  0.50

> <Gold.PLP.Chemscore.Internal.Correction>
0.0089

> <Gold.Rescore>
     Score         DG    S(hbond)    S(metal)    S(lipo)     H(rot)  DE(clash)    DE(int)     intcor
     14.79     -17.48       1.78        0.00      87.32       1.63       0.01       2.69       ----

> <Gold.Chemscore.Fitness>
14.7912

> <Gold.Chemscore.DG>
-17.4838

> <Gold.Chemscore.ZeroCoef>
-5.4800

> <Gold.Chemscore.Hbond>
1.7820

> <Gold.Chemscore.Metal>
0.0000

> <Gold.Chemscore.Lipo>
87.3171

> <Gold.Chemscore.Internal_Hbond>
0.0000

> <Gold.Chemscore.DEClash>
0.0052

> <Gold.Chemscore.DEInternal>
2.6875

> <Gold.Chemscore.Rot>
1.6266

> <Gold.Chemscore.Internal.Correction>
   9.000000E+99

> <Gold.Chemscore.Hbonds>
donor molecule, donor type, donor heavy atom, donor atom, acceptor molecule, acceptor atom, score
      L1  H     5    25       P1  8029  0.12
      L1  H     8    26       P1  8029  0.02
      P1  H  6934  6946       L1     7  0.47

> <Gold.Chemscore.Hbond.Weighted>
-5.9518

> <Gold.Chemscore.Metal.Weighted>
-0.0000

> <Gold.Chemscore.Lipo.Weighted>
-10.2161

> <Gold.Chemscore.Internal_Hbond.Weighted>
0.0000

> <Gold.Chemscore.DEClash.Weighted>
0.0052

> <Gold.Chemscore.DEInternal.Weighted>
2.6875

> <Gold.Chemscore.Rot.Weighted>
4.1641

> <Gold.Chemscore.Internal.Correction.Weighted>
   9.000000E+99

> <Gold.Protein.RotatedTorsions>
[ 6907 6896 6895 6894 ] final  -88.25 input  -60.11 | X-H torsion
[ 7974 7965 7964 7962 ] final    3.34 input  175.53 | X-H torsion
[ 8008 7997 7996 7995 ] final  -28.55 input   59.86 | X-H torsion
[ 10167 10162 10161 10158 ] final   45.89 input  -65.29 | X-H torsion
[ 10718 10713 10712 10709 ] final  163.33 input   66.30 | X-H torsion
[ 10763 10752 10751 10750 ] final   44.58 input  -60.55 | X-H torsion
[ 11005 11000 10999 10996 ] final  176.84 input  -57.11 | X-H torsion

> <Gold.Protein.ActiveResidues>
 VAL166  LYS551  ARG553  GLY616  TRP617  ASP618  TYR619  PRO620  LYS621  CYS622 
 ASP623  PHE694  ASN695  SER759  ASP760  ASP761  ALA762  ILE779  LEU786  VAL792 
 PHE793  MET794  SER795  GLU796  ALA797  LYS798  CYS799  TRP800  GLU811  SER814 

> <Gold.Protein.RotatedAtoms>
  150.6868  134.2770  159.4611 H   0  0  0  0  0  0  0  0  0  0  0  0  # atno 6907 bound_to 6896
  152.0687  134.9545  160.0584 H   0  0  0  0  0  0  0  0  0  0  0  0  # atno 6908 bound_to 6896
  152.0943  133.4182  159.4595 H   0  0  0  0  0  0  0  0  0  0  0  0  # atno 6909 bound_to 6896
  146.2445  140.0700  142.8363 H   0  0  0  0  0  0  0  0  0  0  0  0  # atno 7974 bound_to 7965
  154.4327  140.1842  156.1108 H   0  0  0  0  0  0  0  0  0  0  0  0  # atno 8008 bound_to 7997
  156.0219  140.3340  155.7022 H   0  0  0  0  0  0  0  0  0  0  0  0  # atno 8009 bound_to 7997
  155.5964  140.0636  157.2736 H   0  0  0  0  0  0  0  0  0  0  0  0  # atno 8010 bound_to 7997
  140.3195  144.2722  150.6185 H   0  0  0  0  0  0  0  0  0  0  0  0  # atno 10167 bound_to 10162
  157.1099  131.0465  151.2461 H   0  0  0  0  0  0  0  0  0  0  0  0  # atno 10718 bound_to 10713
  152.9839  135.6066  154.3297 H   0  0  0  0  0  0  0  0  0  0  0  0  # atno 10763 bound_to 10752
  154.3001  135.2773  155.2617 H   0  0  0  0  0  0  0  0  0  0  0  0  # atno 10764 bound_to 10752
  154.4873  135.5901  153.6489 H   0  0  0  0  0  0  0  0  0  0  0  0  # atno 10765 bound_to 10752
  140.3775  134.6975  157.4431 H   0  0  0  0  0  0  0  0  0  0  0  0  # atno 11005 bound_to 11000
  145.0824  140.9230  143.4817 LP  0  0  0  0  0  0  0  0  0  0  0  0  # atno 17320 bound_to 7965
  145.0856  139.2927  143.5761 LP  0  0  0  0  0  0  0  0  0  0  0  0  # atno 17321 bound_to 7965
  140.5496  143.2208  151.7949 LP  0  0  0  0  0  0  0  0  0  0  0  0  # atno 17342 bound_to 10162
  139.4877  144.4494  151.9672 LP  0  0  0  0  0  0  0  0  0  0  0  0  # atno 17343 bound_to 10162
  157.4568  130.7630  149.7200 LP  0  0  0  0  0  0  0  0  0  0  0  0  # atno 17370 bound_to 10713
  155.9853  130.3984  150.3269 LP  0  0  0  0  0  0  0  0  0  0  0  0  # atno 17371 bound_to 10713
  140.0504  134.6139  155.8869 LP  0  0  0  0  0  0  0  0  0  0  0  0  # atno 17394 bound_to 11000
  141.1934  133.6579  156.5547 LP  0  0  0  0  0  0  0  0  0  0  0  0  # atno 17395 bound_to 11000

$$$$
