AV-unprocessed.smi:1843|AV-procd|sdf|7501|dock5
  -GOLD-   22720 9203D 1   1.00000     0.00000
 Structure written by MMmdl.
 37 39  0  0  0  0  0  0  0  0  1 V2000
  147.5548  132.4734  154.1789 O   0  0  0  0  0  0  0  0  0  0  0  0
  147.9883  133.4810  153.6197 C   0  0  0  0  0  0  0  0  0  0  0  0
  149.1551  134.0863  153.9030 N   0  0  0  0  0  0  0  0  0  0  0  0
  150.1275  133.7140  154.8687 C   0  0  0  0  0  0  0  0  0  0  0  0
  150.7470  134.5859  155.6761 N   0  0  0  0  0  0  0  0  0  0  0  0
  151.6506  133.9574  156.5214 N   0  0  0  0  0  0  0  0  0  0  0  0
  151.6874  132.6330  156.3318 C   0  0  0  0  0  0  0  0  0  0  0  0
  152.5860  131.7409  157.1220 C   0  0  0  0  0  0  0  0  0  0  0  0
  154.0726  132.0033  157.2255 C   0  0  0  0  0  0  0  0  0  0  0  0
  153.5696  130.8254  156.4303 C   0  0  0  0  0  0  0  0  0  0  0  0
  150.6000  132.0371  155.0817 S   0  0  0  0  0  0  0  0  0  0  0  0
  147.3376  134.1183  152.6354 N   0  0  0  0  0  0  0  0  0  0  0  0
  146.0479  133.7160  152.0771 C   0  0  1  0  0  0  0  0  0  0  0  0
  145.4420  134.8154  151.1794 C   0  0  0  0  0  0  0  0  0  0  0  0
  144.0794  134.3768  150.6177 C   0  0  0  0  0  0  0  0  0  0  0  0
  144.1838  133.0403  149.8648 C   0  0  0  0  0  0  0  0  0  0  0  0
  144.8092  131.9415  150.7445 C   0  0  0  0  0  0  0  0  0  0  0  0
  146.1698  132.3692  151.3290 C   0  0  1  0  0  0  0  0  0  0  0  0
  147.1145  132.4536  150.2772 O   0  0  0  0  0  0  0  0  0  0  0  0
  149.3750  134.9105  153.3636 H   0  0  0  0  0  0  0  0  0  0  0  0
  152.0729  131.3633  158.0044 H   0  0  0  0  0  0  0  0  0  0  0  0
  154.4896  132.8377  156.6654 H   0  0  0  0  0  0  0  0  0  0  0  0
  154.5526  131.7971  158.1797 H   0  0  0  0  0  0  0  0  0  0  0  0
  153.7142  129.8336  156.8532 H   0  0  0  0  0  0  0  0  0  0  0  0
  153.6394  130.8855  155.3458 H   0  0  0  0  0  0  0  0  0  0  0  0
  147.7669  134.9401  152.2373 H   0  0  0  0  0  0  0  0  0  0  0  0
  145.3609  133.5528  152.9102 H   0  0  0  0  0  0  0  0  0  0  0  0
  145.3182  135.7389  151.7460 H   0  0  0  0  0  0  0  0  0  0  0  0
  146.1212  135.0474  150.3580 H   0  0  0  0  0  0  0  0  0  0  0  0
  143.3643  134.2785  151.4354 H   0  0  0  0  0  0  0  0  0  0  0  0
  143.6849  135.1469  149.9543 H   0  0  0  0  0  0  0  0  0  0  0  0
  143.1948  132.7264  149.5292 H   0  0  0  0  0  0  0  0  0  0  0  0
  144.7832  133.1761  148.9638 H   0  0  0  0  0  0  0  0  0  0  0  0
  144.1262  131.7122  151.5635 H   0  0  0  0  0  0  0  0  0  0  0  0
  144.9161  131.0193  150.1722 H   0  0  0  0  0  0  0  0  0  0  0  0
  146.5175  131.5998  152.0196 H   0  0  0  0  0  0  0  0  0  0  0  0
  147.8498  131.9000  150.4885 H   0  0  0  0  0  0  0  0  0  0  0  0
  1  2  2  0  0  0  0
  2  3  1  0  0  0  0
  2 12  1  0  0  0  0
  3  4  1  0  0  0  0
  3 20  1  0  0  0  0
  4 11  1  0  0  0  0
  4  5  2  0  0  0  0
  5  6  1  0  0  0  0
  6  7  2  0  0  0  0
  7  8  1  0  0  0  0
  7 11  1  0  0  0  0
  8 10  1  0  0  0  0
  8  9  1  0  0  0  0
  8 21  1  0  0  0  0
  9 10  1  0  0  0  0
  9 22  1  0  0  0  0
  9 23  1  0  0  0  0
 10 24  1  0  0  0  0
 10 25  1  0  0  0  0
 12 13  1  0  0  0  0
 12 26  1  0  0  0  0
 13 18  1  0  0  0  0
 13 14  1  0  0  0  0
 13 27  1  0  0  0  0
 14 15  1  0  0  0  0
 14 28  1  0  0  0  0
 14 29  1  0  0  0  0
 15 16  1  0  0  0  0
 15 30  1  0  0  0  0
 15 31  1  0  0  0  0
 16 17  1  0  0  0  0
 16 32  1  0  0  0  0
 16 33  1  0  0  0  0
 17 18  1  0  0  0  0
 17 34  1  0  0  0  0
 17 35  1  0  0  0  0
 18 19  1  0  0  0  0
 18 36  1  0  0  0  0
 19 37  1  0  0  0  0
M  END
> <s_m_source_file>
AV-unprocessed.smi

> <i_m_source_file_index>
1843

> <i_lp_mmshare_version>
43012

> <i_f3d_flags>
0

> <s_epik_input>
W09IXVtDQEBIXTFbQ0gyXVtDSDJdW0NIMl1bQ0gyXVtDQEhdMVtOSF1DKD1PKVtOSF1jMm5uYyhzMilbQ0hdM1tDSDJdW0NIMl0z

> <s_epik_cmdline>
J2VwaWtfcHl0aG9uJywgJy1waCcsICc3LjAnLCAnLXRuJywgJzgnLCAnLW1hJywgJzIwMCcsICctbWV0YWxfYmluZGluZycsICctaW1hZScsICc8aW5maWxlLm1hZT4nLCAnLW9tYWUnLCAnPG91dGZpbGUubWFlPic=

> <r_lp_tautomer_probability>
1

> <r_epik_Ionization_Penalty>
0.000257313

> <r_epik_Ionization_Penalty_Charging>
0

> <r_epik_Ionization_Penalty_Neutral>
0.000257313

> <r_epik_State_Penalty>
-0

> <r_epik_Charging_Adjusted_Penalty>
0

> <i_epik_Tot_Q>
0

> <i_epik_Tot_abs_Q>
0

> <r_epik_Metal_State_Penalty>
0.147479

> <b_epik_Metal_Only>
0

> <s_lp_Force_Field>
OPLS_2005

> <r_lp_Energy>
11.0621

> <b_lp_Chiralities_Consistent>
1

> <s_lp_Variant>
AV-unprocessed.smi:1843-2

> <Gold.Version>
5.8.1

> <Gold.Id.Protein>
6NUR|6NUR_protein|mol2

> <Gold.PLP.Fitness>
38.5146

> <Gold.PLP.PLP>
-31.2777

> <Gold.PLP.part.hbond>
-2.9625

> <Gold.PLP.part.metal>
0.0000

> <Gold.PLP.part.buried>
-6.3497

> <Gold.PLP.part.nonpolar>
-22.8199

> <Gold.PLP.part.repulsive>
0.0967

> <Gold.PLP.ligand.clash>
0.0000

> <Gold.PLP.ligand.torsion>
0.5025

> <Gold.PLP.Chemscore.Hbond>
2.7000

> <Gold.PLP.Chemscore.CHOScore>
0.0000

> <Gold.PLP.Chemscore.Metal>
0.0000

> <Gold.Chemscore.Hbonds>
donor molecule, donor type, donor heavy atom, donor atom, acceptor molecule, acceptor atom, score
      L1  H     3    20       P1  7948  0.55
      L1  H    12    26       P1  7948  1.00
      L1  H    19    37       P1 10747  1.00

> <Gold.PLP.Chemscore.Internal.Correction>
0.1419

> <Gold.Rescore>
     Score         DG    S(hbond)    S(metal)    S(lipo)     H(rot)  DE(clash)    DE(int)     intcor
     16.56     -17.10       2.42        0.00      68.27       1.74       0.12       0.41       ----

> <Gold.Chemscore.Fitness>
16.5636

> <Gold.Chemscore.DG>
-17.0976

> <Gold.Chemscore.ZeroCoef>
-5.4800

> <Gold.Chemscore.Hbond>
2.4206

> <Gold.Chemscore.Metal>
0.0000

> <Gold.Chemscore.Lipo>
68.2744

> <Gold.Chemscore.Internal_Hbond>
0.0000

> <Gold.Chemscore.DEClash>
0.1191

> <Gold.Chemscore.DEInternal>
0.4148

> <Gold.Chemscore.Rot>
1.7404

> <Gold.Chemscore.Internal.Correction>
   9.000000E+99

> <Gold.Chemscore.Hbonds>
donor molecule, donor type, donor heavy atom, donor atom, acceptor molecule, acceptor atom, score
      L1  H     3    20       P1  7948  0.03
      L1  H    12    26       P1  7948  0.85
      L1  H    19    37       P1 10747  0.94

> <Gold.Chemscore.Hbond.Weighted>
-8.0849

> <Gold.Chemscore.Metal.Weighted>
-0.0000

> <Gold.Chemscore.Lipo.Weighted>
-7.9881

> <Gold.Chemscore.Internal_Hbond.Weighted>
0.0000

> <Gold.Chemscore.DEClash.Weighted>
0.1191

> <Gold.Chemscore.DEInternal.Weighted>
0.4148

> <Gold.Chemscore.Rot.Weighted>
4.4555

> <Gold.Chemscore.Internal.Correction.Weighted>
   9.000000E+99

> <Gold.Protein.RotatedTorsions>
[ 6907 6896 6895 6894 ] final   49.55 input  -60.11 | X-H torsion
[ 7974 7965 7964 7962 ] final  104.72 input  175.53 | X-H torsion
[ 8008 7997 7996 7995 ] final  158.09 input   59.86 | X-H torsion
[ 10167 10162 10161 10158 ] final  -74.73 input  -65.29 | X-H torsion
[ 10718 10713 10712 10709 ] final   55.74 input   66.30 | X-H torsion
[ 10763 10752 10751 10750 ] final  -18.91 input  -60.55 | X-H torsion
[ 11005 11000 10999 10996 ] final  -41.15 input  -57.11 | X-H torsion

> <Gold.Protein.ActiveResidues>
 VAL166  LYS551  ARG553  GLY616  TRP617  ASP618  TYR619  PRO620  LYS621  CYS622 
 ASP623  PHE694  ASN695  SER759  ASP760  ASP761  ALA762  ILE779  LEU786  VAL792 
 PHE793  MET794  SER795  GLU796  ALA797  LYS798  CYS799  TRP800  GLU811  SER814 

> <Gold.Protein.RotatedAtoms>
  152.2920  134.7710  160.0375 H   0  0  0  0  0  0  0  0  0  0  0  0  # atno 6907 bound_to 6896
  151.8253  133.3395  159.3605 H   0  0  0  0  0  0  0  0  0  0  0  0  # atno 6908 bound_to 6896
  150.7234  134.5464  159.5817 H   0  0  0  0  0  0  0  0  0  0  0  0  # atno 6909 bound_to 6896
  145.3291  139.2491  143.3670 H   0  0  0  0  0  0  0  0  0  0  0  0  # atno 7974 bound_to 7965
  156.2324  140.1867  156.7208 H   0  0  0  0  0  0  0  0  0  0  0  0  # atno 8008 bound_to 7997
  154.6046  140.0631  156.9441 H   0  0  0  0  0  0  0  0  0  0  0  0  # atno 8009 bound_to 7997
  155.2117  140.3300  155.4330 H   0  0  0  0  0  0  0  0  0  0  0  0  # atno 8010 bound_to 7997
  140.5003  143.2362  151.7763 H   0  0  0  0  0  0  0  0  0  0  0  0  # atno 10167 bound_to 10162
  157.5371  130.8671  149.8769 H   0  0  0  0  0  0  0  0  0  0  0  0  # atno 10718 bound_to 10713
  153.5965  135.7001  153.5401 H   0  0  0  0  0  0  0  0  0  0  0  0  # atno 10763 bound_to 10752
  153.3133  135.4095  155.1354 H   0  0  0  0  0  0  0  0  0  0  0  0  # atno 10764 bound_to 10752
  154.8590  135.3677  154.5499 H   0  0  0  0  0  0  0  0  0  0  0  0  # atno 10765 bound_to 10752
  141.0225  133.6856  156.2418 H   0  0  0  0  0  0  0  0  0  0  0  0  # atno 11005 bound_to 11000
  146.3053  140.3865  142.8689 LP  0  0  0  0  0  0  0  0  0  0  0  0  # atno 17320 bound_to 7965
  144.8878  140.7485  143.5945 LP  0  0  0  0  0  0  0  0  0  0  0  0  # atno 17321 bound_to 7965
  139.4870  144.4531  151.9630 LP  0  0  0  0  0  0  0  0  0  0  0  0  # atno 17342 bound_to 10162
  140.3620  144.2961  150.5932 LP  0  0  0  0  0  0  0  0  0  0  0  0  # atno 17343 bound_to 10162
  156.0467  130.3726  150.1300 LP  0  0  0  0  0  0  0  0  0  0  0  0  # atno 17370 bound_to 10713
  156.9482  130.9766  151.3503 LP  0  0  0  0  0  0  0  0  0  0  0  0  # atno 17371 bound_to 10713
  140.6548  134.5030  157.5580 LP  0  0  0  0  0  0  0  0  0  0  0  0  # atno 17394 bound_to 11000
  139.9155  134.8255  156.1381 LP  0  0  0  0  0  0  0  0  0  0  0  0  # atno 17395 bound_to 11000

$$$$
