AV-unprocessed.smi:2524|AV-procd|sdf|9922|dock7
  -GOLD-   2272013563D 1   1.00000     0.00000
 Structure written by MMmdl.
 36 37  0  0  0  0  0  0  0  0  1 V2000
  146.9027  142.8650  153.4374 C   0  0  0  0  0  0  0  0  0  0  0  0
  146.5593  141.9911  154.3954 C   0  0  0  0  0  0  0  0  0  0  0  0
  147.5072  140.9920  155.0251 C   0  0  0  0  0  0  0  0  0  0  0  0
  148.9735  141.3725  154.7907 C   0  0  0  0  0  0  0  0  0  0  0  0
  150.0610  140.6326  156.0778 S   0  0  0  0  0  0  0  0  0  0  0  0
  149.2099  140.0605  157.1324 O   0  0  0  0  0  0  0  0  0  0  0  0
  151.0830  139.7998  155.4261 O   0  0  0  0  0  0  0  0  0  0  0  0
  150.8519  142.0170  156.7289 N   0  0  0  0  0  0  0  0  0  0  0  0
  151.8231  141.8308  157.8081 C   0  0  0  0  0  0  0  0  0  0  0  0
  151.8801  143.0544  158.7116 C   0  0  0  0  0  0  0  0  0  0  0  0
  152.4873  142.7236  160.0477 C   0  0  0  0  0  0  0  0  0  0  0  0
  152.3618  143.5993  161.1479 C   0  0  0  0  0  0  0  0  0  0  0  0
  152.9382  143.2314  162.3798 C   0  0  0  0  0  0  0  0  0  0  0  0
  153.6108  142.0763  162.5678 N   0  0  0  0  0  0  0  0  0  0  0  0
  153.7293  141.2398  161.5152 C   0  0  0  0  0  0  0  0  0  0  0  0
  153.1898  141.5155  160.2430 C   0  0  0  0  0  0  0  0  0  0  0  0
  152.1929  144.4028  158.0967 C   0  0  0  0  0  0  0  0  0  0  0  0
  150.8060  144.1185  158.6139 C   0  0  0  0  0  0  0  0  0  0  0  0
  147.9097  142.9060  153.0485 H   0  0  0  0  0  0  0  0  0  0  0  0
  146.1773  143.5528  153.0289 H   0  0  0  0  0  0  0  0  0  0  0  0
  145.5419  141.9807  154.7591 H   0  0  0  0  0  0  0  0  0  0  0  0
  147.3072  140.9208  156.0949 H   0  0  0  0  0  0  0  0  0  0  0  0
  147.3043  140.0085  154.6003 H   0  0  0  0  0  0  0  0  0  0  0  0
  149.3169  141.0283  153.8150 H   0  0  0  0  0  0  0  0  0  0  0  0
  149.0997  142.4550  154.8260 H   0  0  0  0  0  0  0  0  0  0  0  0
  151.2296  142.6103  155.9906 H   0  0  0  0  0  0  0  0  0  0  0  0
  151.5536  140.9613  158.4083 H   0  0  0  0  0  0  0  0  0  0  0  0
  152.8037  141.6328  157.3742 H   0  0  0  0  0  0  0  0  0  0  0  0
  151.8285  144.5335  161.0533 H   0  0  0  0  0  0  0  0  0  0  0  0
  152.8542  143.8823  163.2375 H   0  0  0  0  0  0  0  0  0  0  0  0
  154.2695  140.3215  161.6915 H   0  0  0  0  0  0  0  0  0  0  0  0
  153.3096  140.8095  159.4344 H   0  0  0  0  0  0  0  0  0  0  0  0
  152.8047  145.0968  158.6696 H   0  0  0  0  0  0  0  0  0  0  0  0
  152.3089  144.4616  157.0163 H   0  0  0  0  0  0  0  0  0  0  0  0
  150.0237  143.9906  157.8685 H   0  0  0  0  0  0  0  0  0  0  0  0
  150.5007  144.6246  159.5275 H   0  0  0  0  0  0  0  0  0  0  0  0
  1  2  2  0  0  0  0
  1 19  1  0  0  0  0
  1 20  1  0  0  0  0
  2  3  1  0  0  0  0
  2 21  1  0  0  0  0
  3  4  1  0  0  0  0
  3 22  1  0  0  0  0
  3 23  1  0  0  0  0
  4  5  1  0  0  0  0
  4 24  1  0  0  0  0
  4 25  1  0  0  0  0
  5  6  2  0  0  0  0
  5  7  2  0  0  0  0
  5  8  1  0  0  0  0
  8  9  1  0  0  0  0
  8 26  1  0  0  0  0
  9 10  1  0  0  0  0
  9 27  1  0  0  0  0
  9 28  1  0  0  0  0
 10 18  1  0  0  0  0
 10 11  1  0  0  0  0
 10 17  1  0  0  0  0
 11 16  1  0  0  0  0
 11 12  2  0  0  0  0
 12 13  1  0  0  0  0
 12 29  1  0  0  0  0
 13 14  2  0  0  0  0
 13 30  1  0  0  0  0
 14 15  1  0  0  0  0
 15 16  2  0  0  0  0
 15 31  1  0  0  0  0
 16 32  1  0  0  0  0
 17 18  1  0  0  0  0
 17 33  1  0  0  0  0
 17 34  1  0  0  0  0
 18 35  1  0  0  0  0
 18 36  1  0  0  0  0
M  END
> <s_m_source_file>
AV-unprocessed.smi

> <i_m_source_file_index>
2524

> <i_lp_mmshare_version>
43012

> <i_f3d_flags>
0

> <s_epik_input>
W0NIMl09W0NIXVtDSDJdW0NIMl1TKD1PKSg9TylbTkhdW0NIMl1DMShbQ0gyXVtDSDJdMSljMltjSF1bY0hdbltjSF1bY0hdMg==

> <s_epik_cmdline>
J2VwaWtfcHl0aG9uJywgJy1waCcsICc3LjAnLCAnLXRuJywgJzgnLCAnLW1hJywgJzIwMCcsICctbWV0YWxfYmluZGluZycsICctaW1hZScsICc8aW5maWxlLm1hZT4nLCAnLW9tYWUnLCAnPG91dGZpbGUubWFlPic=

> <r_epik_Ionization_Penalty>
0.0344299

> <r_epik_Ionization_Penalty_Charging>
0

> <r_epik_Ionization_Penalty_Neutral>
0.0344299

> <r_epik_State_Penalty>
0.0286381

> <r_epik_Charging_Adjusted_Penalty>
0.0286381

> <i_epik_Tot_Q>
0

> <i_epik_Tot_abs_Q>
0

> <r_epik_Metal_State_Penalty>
0.0327794

> <b_epik_Metal_Only>
0

> <s_lp_Force_Field>
OPLS_2005

> <r_lp_Energy>
10.3721

> <b_lp_Chiralities_Consistent>
1

> <s_lp_Variant>
AV-unprocessed.smi:2524-1

> <Gold.Version>
5.8.1

> <Gold.Id.Protein>
6NUR|6NUR_protein|mol2

> <Gold.PLP.Fitness>
46.7161

> <Gold.PLP.PLP>
-44.9913

> <Gold.PLP.part.hbond>
-1.8914

> <Gold.PLP.part.metal>
0.0000

> <Gold.PLP.part.buried>
-6.4025

> <Gold.PLP.part.nonpolar>
-36.9921

> <Gold.PLP.part.repulsive>
0.0684

> <Gold.PLP.ligand.clash>
0.0000

> <Gold.PLP.ligand.torsion>
1.4327

> <Gold.PLP.Chemscore.Hbond>
1.0000

> <Gold.PLP.Chemscore.CHOScore>
0.0000

> <Gold.PLP.Chemscore.Metal>
0.0000

> <Gold.Chemscore.Hbonds>
donor molecule, donor type, donor heavy atom, donor atom, acceptor molecule, acceptor atom, score
      P1  H  7989  7998       L1     7  0.41

> <Gold.PLP.Chemscore.Internal.Correction>
1.5902

> <Gold.Rescore>
     Score         DG    S(hbond)    S(metal)    S(lipo)     H(rot)  DE(clash)    DE(int)     intcor
     16.15     -18.00       0.87        0.00     122.52       1.85       0.27       1.58       ----

> <Gold.Chemscore.Fitness>
16.1463

> <Gold.Chemscore.DG>
-18.0007

> <Gold.Chemscore.ZeroCoef>
-5.4800

> <Gold.Chemscore.Hbond>
0.8723

> <Gold.Chemscore.Metal>
0.0000

> <Gold.Chemscore.Lipo>
122.5170

> <Gold.Chemscore.Internal_Hbond>
0.0000

> <Gold.Chemscore.DEClash>
0.2717

> <Gold.Chemscore.DEInternal>
1.5827

> <Gold.Chemscore.Rot>
1.8465

> <Gold.Chemscore.Internal.Correction>
   9.000000E+99

> <Gold.Chemscore.Hbonds>
donor molecule, donor type, donor heavy atom, donor atom, acceptor molecule, acceptor atom, score
      P1  H  7989  7998       L1     7  0.22

> <Gold.Chemscore.Hbond.Weighted>
-2.9134

> <Gold.Chemscore.Metal.Weighted>
-0.0000

> <Gold.Chemscore.Lipo.Weighted>
-14.3345

> <Gold.Chemscore.Internal_Hbond.Weighted>
0.0000

> <Gold.Chemscore.DEClash.Weighted>
0.2717

> <Gold.Chemscore.DEInternal.Weighted>
1.5827

> <Gold.Chemscore.Rot.Weighted>
4.7272

> <Gold.Chemscore.Internal.Correction.Weighted>
   9.000000E+99

> <Gold.Protein.RotatedTorsions>
[ 6907 6896 6895 6894 ] final   51.43 input  -60.11 | X-H torsion
[ 7974 7965 7964 7962 ] final -105.50 input  175.53 | X-H torsion
[ 8008 7997 7996 7995 ] final  106.80 input   59.86 | X-H torsion
[ 10167 10162 10161 10158 ] final   89.67 input  -65.29 | X-H torsion
[ 10718 10713 10712 10709 ] final -125.80 input   66.30 | X-H torsion
[ 10763 10752 10751 10750 ] final  167.23 input  -60.55 | X-H torsion
[ 11005 11000 10999 10996 ] final -111.01 input  -57.11 | X-H torsion

> <Gold.Protein.ActiveResidues>
 VAL166  LYS551  ARG553  GLY616  TRP617  ASP618  TYR619  PRO620  LYS621  CYS622 
 ASP623  PHE694  ASN695  SER759  ASP760  ASP761  ALA762  ILE779  LEU786  VAL792 
 PHE793  MET794  SER795  GLU796  ALA797  LYS798  CYS799  TRP800  GLU811  SER814 

> <Gold.Protein.RotatedAtoms>
  152.3126  134.7479  160.0332 H   0  0  0  0  0  0  0  0  0  0  0  0  # atno 6907 bound_to 6896
  151.7955  133.3358  159.3519 H   0  0  0  0  0  0  0  0  0  0  0  0  # atno 6908 bound_to 6896
  150.7328  134.5733  159.5946 H   0  0  0  0  0  0  0  0  0  0  0  0  # atno 6909 bound_to 6896
  145.2297  140.9166  143.3212 H   0  0  0  0  0  0  0  0  0  0  0  0  # atno 7974 bound_to 7965
  156.1772  140.3106  155.9082 H   0  0  0  0  0  0  0  0  0  0  0  0  # atno 8008 bound_to 7997
  155.3461  140.0468  157.3062 H   0  0  0  0  0  0  0  0  0  0  0  0  # atno 8009 bound_to 7997
  154.5303  140.2228  155.8826 H   0  0  0  0  0  0  0  0  0  0  0  0  # atno 8010 bound_to 7997
  139.8549  144.6574  150.9126 H   0  0  0  0  0  0  0  0  0  0  0  0  # atno 10167 bound_to 10162
  156.1707  130.6666  151.0176 H   0  0  0  0  0  0  0  0  0  0  0  0  # atno 10718 bound_to 10713
  154.3508  135.2753  155.2373 H   0  0  0  0  0  0  0  0  0  0  0  0  # atno 10763 bound_to 10752
  154.4603  135.5909  153.6255 H   0  0  0  0  0  0  0  0  0  0  0  0  # atno 10764 bound_to 10752
  152.9850  135.6063  154.3718 H   0  0  0  0  0  0  0  0  0  0  0  0  # atno 10765 bound_to 10752
  141.0759  133.9302  157.2391 H   0  0  0  0  0  0  0  0  0  0  0  0  # atno 11005 bound_to 11000
  144.9688  139.3901  143.6319 LP  0  0  0  0  0  0  0  0  0  0  0  0  # atno 17320 bound_to 7965
  146.3356  139.8776  142.8829 LP  0  0  0  0  0  0  0  0  0  0  0  0  # atno 17321 bound_to 7965
  140.7783  143.3795  151.1503 LP  0  0  0  0  0  0  0  0  0  0  0  0  # atno 17342 bound_to 10162
  139.7429  143.8896  152.3055 LP  0  0  0  0  0  0  0  0  0  0  0  0  # atno 17343 bound_to 10162
  157.6801  131.0840  150.7393 LP  0  0  0  0  0  0  0  0  0  0  0  0  # atno 17370 bound_to 10713
  156.7452  130.4751  149.5468 LP  0  0  0  0  0  0  0  0  0  0  0  0  # atno 17371 bound_to 10713
  139.9571  135.0163  156.9159 LP  0  0  0  0  0  0  0  0  0  0  0  0  # atno 17394 bound_to 11000
  140.5574  134.0568  155.7388 LP  0  0  0  0  0  0  0  0  0  0  0  0  # atno 17395 bound_to 11000

$$$$
