AV-unprocessed.smi:2061|AV-procd|sdf|8390|dock5
  -GOLD-   2272011 73D 1   1.00000     0.00000
 Structure written by MMmdl.
 45 46  0  0  0  0  0  0  0  0  3 V2000
  152.9937  142.1943  160.4612 C   0  0  0  0  0  0  0  0  0  0  0  0
  153.1654  141.0956  159.4695 C   0  0  0  0  0  0  0  0  0  0  0  0
  152.2871  140.4147  158.6746 C   0  0  0  0  0  0  0  0  0  0  0  0
  153.1242  139.5022  157.9787 C   0  0  0  0  0  0  0  0  0  0  0  0
  152.5775  138.5983  157.0301 N   0  0  0  0  0  0  0  0  0  0  0  0
  153.1211  138.1478  155.8846 C   0  0  0  0  0  0  0  0  0  0  0  0
  154.2606  138.4971  155.5548 O   0  0  0  0  0  0  0  0  0  0  0  0
  152.2821  137.3145  155.2105 N   0  5  0  0  0  0  0  0  0  0  0  0
  151.0534  137.7358  154.5378 C   0  0  0  0  0  0  0  0  0  0  0  0
  149.9064  136.7297  154.8203 C   0  0  2  0  0  0  0  0  0  0  0  0
  150.2135  135.2738  154.3874 C   0  0  0  0  0  0  0  0  0  0  0  0
  148.6155  137.2417  154.2644 N   0  3  1  0  0  0  0  0  0  0  0  0
  147.3686  136.6191  154.7888 C   0  0  0  0  0  0  0  0  0  0  0  0
  146.1451  137.1000  153.9871 C   0  0  2  0  0  0  0  0  0  0  0  0
  146.0670  136.5034  152.5705 C   0  0  0  0  0  0  0  0  0  0  0  0
  146.0970  138.5275  153.9807 O   0  0  0  0  0  0  0  0  0  0  0  0
  147.2689  139.1676  153.4800 C   0  0  1  0  0  0  0  0  0  0  0  0
  147.0496  140.6824  153.5594 C   0  0  0  0  0  0  0  0  0  0  0  0
  148.4960  138.7191  154.2942 C   0  0  0  0  0  0  0  0  0  0  0  0
  154.3997  139.6185  158.3182 N   0  0  0  0  0  0  0  0  0  0  0  0
  154.4325  140.6400  159.2748 O   0  0  0  0  0  0  0  0  0  0  0  0
  151.9382  142.3665  160.6726 H   0  0  0  0  0  0  0  0  0  0  0  0
  153.4197  143.1244  160.0844 H   0  0  0  0  0  0  0  0  0  0  0  0
  153.4903  141.9491  161.4002 H   0  0  0  0  0  0  0  0  0  0  0  0
  151.2180  140.5484  158.6034 H   0  0  0  0  0  0  0  0  0  0  0  0
  151.6530  138.2532  157.2404 H   0  0  0  0  0  0  0  0  0  0  0  0
  150.7301  138.7222  154.8751 H   0  0  0  0  0  0  0  0  0  0  0  0
  151.1935  137.8280  153.4605 H   0  0  0  0  0  0  0  0  0  0  0  0
  149.7917  136.7153  155.9056 H   0  0  0  0  0  0  0  0  0  0  0  0
  151.0743  134.8654  154.9199 H   0  0  0  0  0  0  0  0  0  0  0  0
  150.4225  135.1851  153.3199 H   0  0  0  0  0  0  0  0  0  0  0  0
  149.3724  134.6175  154.6116 H   0  0  0  0  0  0  0  0  0  0  0  0
  147.4283  135.5309  154.7527 H   0  0  0  0  0  0  0  0  0  0  0  0
  147.2345  136.8934  155.8361 H   0  0  0  0  0  0  0  0  0  0  0  0
  145.2509  136.7710  154.5173 H   0  0  0  0  0  0  0  0  0  0  0  0
  145.9758  135.4177  152.6143 H   0  0  0  0  0  0  0  0  0  0  0  0
  146.9521  136.7277  151.9756 H   0  0  0  0  0  0  0  0  0  0  0  0
  145.1976  136.8853  152.0352 H   0  0  0  0  0  0  0  0  0  0  0  0
  147.4107  138.9027  152.4320 H   0  0  0  0  0  0  0  0  0  0  0  0
  147.9153  141.2253  153.1794 H   0  0  0  0  0  0  0  0  0  0  0  0
  146.8775  141.0036  154.5871 H   0  0  0  0  0  0  0  0  0  0  0  0
  146.1845  140.9822  152.9675 H   0  0  0  0  0  0  0  0  0  0  0  0
  148.4185  139.0608  155.3274 H   0  0  0  0  0  0  0  0  0  0  0  0
  149.3911  139.1765  153.8704 H   0  0  0  0  0  0  0  0  0  0  0  0
  148.6555  137.0015  153.2840 H   0  0  0  0  0  0  0  0  0  0  0  0
  1  2  1  0  0  0  0
  1 22  1  0  0  0  0
  1 23  1  0  0  0  0
  1 24  1  0  0  0  0
  2 21  1  0  0  0  0
  2  3  2  0  0  0  0
  3  4  1  0  0  0  0
  3 25  1  0  0  0  0
  4  5  1  0  0  0  0
  4 20  2  0  0  0  0
  5  6  1  0  0  0  0
  5 26  1  0  0  0  0
  6  7  2  0  0  0  0
  6  8  1  0  0  0  0
  8  9  1  0  0  0  0
  9 10  1  0  0  0  0
  9 27  1  0  0  0  0
  9 28  1  0  0  0  0
 10 11  1  0  0  0  0
 10 12  1  0  0  0  0
 10 29  1  0  0  0  0
 11 30  1  0  0  0  0
 11 31  1  0  0  0  0
 11 32  1  0  0  0  0
 12 19  1  0  0  0  0
 12 13  1  0  0  0  0
 12 45  1  0  0  0  0
 13 14  1  0  0  0  0
 13 33  1  0  0  0  0
 13 34  1  0  0  0  0
 14 15  1  0  0  0  0
 14 16  1  0  0  0  0
 14 35  1  0  0  0  0
 15 36  1  0  0  0  0
 15 37  1  0  0  0  0
 15 38  1  0  0  0  0
 16 17  1  0  0  0  0
 17 18  1  0  0  0  0
 17 19  1  0  0  0  0
 17 39  1  0  0  0  0
 18 40  1  0  0  0  0
 18 41  1  0  0  0  0
 18 42  1  0  0  0  0
 19 43  1  0  0  0  0
 19 44  1  0  0  0  0
 20 21  1  0  0  0  0
M  CHG  1   8  -1
M  CHG  1  12   1
M  END
> <s_m_source_file>
AV-unprocessed.smi

> <i_m_source_file_index>
2061

> <i_lp_mmshare_version>
43012

> <i_f3d_flags>
0

> <s_epik_input>
W0NIM11jMVtjSF1jKG5vMSlbTkhdQyg9TylbTkhdW0NIMl1bQ0BIXShbQ0gzXSlOMltDSDJdW0NAQEhdKFtDSDNdKU9bQ0BASF0oW0NIM10pW0NIMl0y

> <s_epik_cmdline>
J2VwaWtfcHl0aG9uJywgJy1waCcsICc3LjAnLCAnLXRuJywgJzgnLCAnLW1hJywgJzIwMCcsICctbWV0YWxfYmluZGluZycsICctaW1hZScsICc8aW5maWxlLm1hZT4nLCAnLW9tYWUnLCAnPG91dGZpbGUubWFlPic=

> <r_epik_Ionization_Penalty>
6.8073

> <r_epik_Ionization_Penalty_Charging>
6.80729

> <r_epik_Ionization_Penalty_Neutral>
5.65391e-06

> <r_epik_State_Penalty>
7.47323

> <r_epik_Charging_Adjusted_Penalty>
14.2805

> <i_epik_Tot_Q>
0

> <i_epik_Tot_abs_Q>
2

> <r_epik_Metal_State_Penalty>
3.40035

> <b_epik_Metal_Only>
1

> <s_lp_Force_Field>
OPLS_2005

> <r_lp_Energy>
19.801

> <b_lp_Chiralities_Consistent>
1

> <s_lp_Variant>
AV-unprocessed.smi:2061-31

> <Gold.Version>
5.8.1

> <Gold.Id.Protein>
6NUR|6NUR_protein|mol2

> <Gold.PLP.Fitness>
41.6623

> <Gold.PLP.PLP>
-28.6265

> <Gold.PLP.part.hbond>
-4.4171

> <Gold.PLP.part.metal>
0.0000

> <Gold.PLP.part.buried>
-1.5999

> <Gold.PLP.part.nonpolar>
-22.4034

> <Gold.PLP.part.repulsive>
0.3017

> <Gold.PLP.ligand.clash>
0.0000

> <Gold.PLP.ligand.torsion>
1.3594

> <Gold.PLP.Chemscore.Hbond>
5.1989

> <Gold.PLP.Chemscore.CHOScore>
0.0000

> <Gold.PLP.Chemscore.Metal>
0.0000

> <Gold.Chemscore.Hbonds>
donor molecule, donor type, donor heavy atom, donor atom, acceptor molecule, acceptor atom, score
      L1  H    12    45       P1  7948  2.00
      P1  H  7997  8008       L1     7  0.37
      P1  H  7997  8010       L1    20  0.39
      P1  H 10752 10765       L1     8  1.47

> <Gold.PLP.Chemscore.Internal.Correction>
0.1578

> <Gold.Rescore>
     Score         DG    S(hbond)    S(metal)    S(lipo)     H(rot)  DE(clash)    DE(int)     intcor
     14.79     -17.55       2.71        0.00      59.87       1.56       0.45       2.31       ----

> <Gold.Chemscore.Fitness>
14.7896

> <Gold.Chemscore.DG>
-17.5489

> <Gold.Chemscore.ZeroCoef>
-5.4800

> <Gold.Chemscore.Hbond>
2.7082

> <Gold.Chemscore.Metal>
0.0000

> <Gold.Chemscore.Lipo>
59.8657

> <Gold.Chemscore.Internal_Hbond>
0.0000

> <Gold.Chemscore.DEClash>
0.4513

> <Gold.Chemscore.DEInternal>
2.3081

> <Gold.Chemscore.Rot>
1.5550

> <Gold.Chemscore.Internal.Correction>
   9.000000E+99

> <Gold.Chemscore.Hbonds>
donor molecule, donor type, donor heavy atom, donor atom, acceptor molecule, acceptor atom, score
      L1  H    12    45       P1  7948  0.99
      P1  H  7997  8008       L1     7  0.33
      P1  H  7997  8010       L1    20  0.17
      P1  H 10752 10765       L1     8  0.64

> <Gold.Chemscore.Hbond.Weighted>
-9.0455

> <Gold.Chemscore.Metal.Weighted>
-0.0000

> <Gold.Chemscore.Lipo.Weighted>
-7.0043

> <Gold.Chemscore.Internal_Hbond.Weighted>
0.0000

> <Gold.Chemscore.DEClash.Weighted>
0.4513

> <Gold.Chemscore.DEInternal.Weighted>
2.3081

> <Gold.Chemscore.Rot.Weighted>
3.9809

> <Gold.Chemscore.Internal.Correction.Weighted>
   9.000000E+99

> <Gold.Protein.RotatedTorsions>
[ 6907 6896 6895 6894 ] final  -97.70 input  -60.11 | X-H torsion
[ 7974 7965 7964 7962 ] final   28.93 input  175.53 | X-H torsion
[ 8008 7997 7996 7995 ] final   -2.26 input   59.86 | X-H torsion
[ 10167 10162 10161 10158 ] final  -51.51 input  -65.29 | X-H torsion
[ 10718 10713 10712 10709 ] final  156.15 input   66.30 | X-H torsion
[ 10763 10752 10751 10750 ] final -169.29 input  -60.55 | X-H torsion
[ 11005 11000 10999 10996 ] final  168.16 input  -57.11 | X-H torsion

> <Gold.Protein.ActiveResidues>
 VAL166  LYS551  ARG553  GLY616  TRP617  ASP618  TYR619  PRO620  LYS621  CYS622 
 ASP623  PHE694  ASN695  SER759  ASP760  ASP761  ALA762  ILE779  LEU786  VAL792 
 PHE793  MET794  SER795  GLU796  ALA797  LYS798  CYS799  TRP800  GLU811  SER814 

> <Gold.Protein.RotatedAtoms>
  150.7024  134.1308  159.4068 H   0  0  0  0  0  0  0  0  0  0  0  0  # atno 6907 bound_to 6896
  151.9294  135.0261  160.0537 H   0  0  0  0  0  0  0  0  0  0  0  0  # atno 6908 bound_to 6896
  152.2189  133.4932  159.5188 H   0  0  0  0  0  0  0  0  0  0  0  0  # atno 6909 bound_to 6896
  146.1701  139.6990  142.8973 H   0  0  0  0  0  0  0  0  0  0  0  0  # atno 7974 bound_to 7965
  154.6377  140.2539  155.7359 H   0  0  0  0  0  0  0  0  0  0  0  0  # atno 8008 bound_to 7997
  156.2512  140.2894  156.0677 H   0  0  0  0  0  0  0  0  0  0  0  0  # atno 8009 bound_to 7997
  155.1645  140.0385  157.2840 H   0  0  0  0  0  0  0  0  0  0  0  0  # atno 8010 bound_to 7997
  140.6584  143.2617  151.4515 H   0  0  0  0  0  0  0  0  0  0  0  0  # atno 10167 bound_to 10162
  157.2088  131.0693  151.1982 H   0  0  0  0  0  0  0  0  0  0  0  0  # atno 10718 bound_to 10713
  154.6538  135.2915  154.9953 H   0  0  0  0  0  0  0  0  0  0  0  0  # atno 10763 bound_to 10752
  154.1036  135.6573  153.4876 H   0  0  0  0  0  0  0  0  0  0  0  0  # atno 10764 bound_to 10752
  153.0391  135.5248  154.7458 H   0  0  0  0  0  0  0  0  0  0  0  0  # atno 10765 bound_to 10752
  140.2843  134.7725  157.3785 H   0  0  0  0  0  0  0  0  0  0  0  0  # atno 11005 bound_to 11000
  145.4363  141.0419  143.2882 LP  0  0  0  0  0  0  0  0  0  0  0  0  # atno 17320 bound_to 7965
  144.8150  139.5893  143.7012 LP  0  0  0  0  0  0  0  0  0  0  0  0  # atno 17321 bound_to 7965
  139.5812  144.1705  152.1970 LP  0  0  0  0  0  0  0  0  0  0  0  0  # atno 17342 bound_to 10162
  140.1031  144.5522  150.6975 LP  0  0  0  0  0  0  0  0  0  0  0  0  # atno 17343 bound_to 10162
  157.3693  130.7172  149.6554 LP  0  0  0  0  0  0  0  0  0  0  0  0  # atno 17370 bound_to 10713
  155.9693  130.4203  150.4417 LP  0  0  0  0  0  0  0  0  0  0  0  0  # atno 17371 bound_to 10713
  140.1254  134.5165  155.8149 LP  0  0  0  0  0  0  0  0  0  0  0  0  # atno 17394 bound_to 11000
  141.2157  133.6771  156.6942 LP  0  0  0  0  0  0  0  0  0  0  0  0  # atno 17395 bound_to 11000

$$$$
