AV-unprocessed.smi:1856|AV-procd|sdf|7537|dock2
  -GOLD-   22720 9253D 1   1.00000     0.00000
 Structure written by MMmdl.
 45 46  0  0  0  0  0  0  0  0  2 V2000
  143.7472  134.1775  152.2527 C   0  0  0  0  0  0  0  0  0  0  0  0
  145.2788  134.2375  152.2639 C   0  0  0  0  0  0  0  0  0  0  0  0
  145.8290  135.3781  151.3888 C   0  0  0  0  0  0  0  0  0  0  0  0
  145.6428  136.7600  152.0226 C   0  0  0  0  0  0  0  0  0  0  0  0
  144.5341  137.1206  152.4177 O   0  0  0  0  0  0  0  0  0  0  0  0
  146.7438  137.5216  152.1179 N   0  0  0  0  0  0  0  0  0  0  0  0
  146.8057  138.8594  152.6986 C   0  0  2  0  0  0  0  0  0  0  0  0
  146.5803  139.9179  151.6062 C   0  0  0  0  0  0  0  0  0  0  0  0
  148.1066  139.0542  153.4176 C   0  0  0  0  0  0  0  0  0  0  0  0
  149.1093  138.1370  153.5433 N   0  3  0  0  0  0  0  0  0  0  0  0
  150.1475  138.6689  154.3083 C   0  0  0  0  0  0  0  0  0  0  0  0
  151.3676  138.1230  154.6946 C   0  0  0  0  0  0  0  0  0  0  0  0
  152.2038  138.9390  155.4847 C   0  0  0  0  0  0  0  0  0  0  0  0
  151.8153  140.2410  155.8622 C   0  0  0  0  0  0  0  0  0  0  0  0
  150.5748  140.7827  155.4653 C   0  0  0  0  0  0  0  0  0  0  0  0
  149.7557  139.9699  154.6823 C   0  0  0  0  0  0  0  0  0  0  0  0
  148.4907  140.1626  154.1167 N   0  0  0  0  0  0  0  0  0  0  0  0
  147.7944  141.4395  154.3409 C   0  0  0  0  0  0  0  0  0  0  0  0
  146.3796  141.2593  154.9242 C   0  0  2  0  0  0  0  0  0  0  0  0
  145.6149  142.5858  155.0042 C   0  0  0  0  0  0  0  0  0  0  0  0
  146.4552  140.7037  156.2213 O   0  0  0  0  0  0  0  0  0  0  0  0
  143.3861  133.3638  152.8823 H   0  0  0  0  0  0  0  0  0  0  0  0
  143.3678  134.0110  151.2441 H   0  0  0  0  0  0  0  0  0  0  0  0
  143.3128  135.1053  152.6264 H   0  0  0  0  0  0  0  0  0  0  0  0
  145.6240  134.3613  153.2915 H   0  0  0  0  0  0  0  0  0  0  0  0
  145.6708  133.2794  151.9193 H   0  0  0  0  0  0  0  0  0  0  0  0
  146.8936  135.2263  151.2072 H   0  0  0  0  0  0  0  0  0  0  0  0
  145.3399  135.3569  150.4136 H   0  0  0  0  0  0  0  0  0  0  0  0
  147.6106  137.1383  151.7692 H   0  0  0  0  0  0  0  0  0  0  0  0
  146.0120  138.9793  153.4377 H   0  0  0  0  0  0  0  0  0  0  0  0
  146.6096  140.9249  152.0237 H   0  0  0  0  0  0  0  0  0  0  0  0
  145.6060  139.7887  151.1338 H   0  0  0  0  0  0  0  0  0  0  0  0
  147.3363  139.8566  150.8225 H   0  0  0  0  0  0  0  0  0  0  0  0
  151.6669  137.1254  154.4076 H   0  0  0  0  0  0  0  0  0  0  0  0
  153.1620  138.5584  155.8083 H   0  0  0  0  0  0  0  0  0  0  0  0
  152.4822  140.8368  156.4684 H   0  0  0  0  0  0  0  0  0  0  0  0
  150.2863  141.7812  155.7593 H   0  0  0  0  0  0  0  0  0  0  0  0
  148.4071  142.0404  155.0139 H   0  0  0  0  0  0  0  0  0  0  0  0
  147.7596  141.9840  153.3965 H   0  0  0  0  0  0  0  0  0  0  0  0
  145.8135  140.5662  154.3013 H   0  0  0  0  0  0  0  0  0  0  0  0
  145.5097  143.0364  154.0171 H   0  0  0  0  0  0  0  0  0  0  0  0
  146.1295  143.3033  155.6448 H   0  0  0  0  0  0  0  0  0  0  0  0
  144.6124  142.4384  155.4074 H   0  0  0  0  0  0  0  0  0  0  0  0
  146.9459  141.2939  156.7722 H   0  0  0  0  0  0  0  0  0  0  0  0
  149.0820  137.2136  153.1300 H   0  0  0  0  0  0  0  0  0  0  0  0
  1  2  1  0  0  0  0
  1 22  1  0  0  0  0
  1 23  1  0  0  0  0
  1 24  1  0  0  0  0
  2  3  1  0  0  0  0
  2 25  1  0  0  0  0
  2 26  1  0  0  0  0
  3  4  1  0  0  0  0
  3 27  1  0  0  0  0
  3 28  1  0  0  0  0
  4  5  2  0  0  0  0
  4  6  1  0  0  0  0
  6  7  1  0  0  0  0
  6 29  1  0  0  0  0
  7  8  1  0  0  0  0
  7  9  1  0  0  0  0
  7 30  1  0  0  0  0
  8 31  1  0  0  0  0
  8 32  1  0  0  0  0
  8 33  1  0  0  0  0
  9 17  1  0  0  0  0
  9 10  2  0  0  0  0
 10 11  1  0  0  0  0
 10 45  1  0  0  0  0
 11 16  2  0  0  0  0
 11 12  1  0  0  0  0
 12 13  2  0  0  0  0
 12 34  1  0  0  0  0
 13 14  1  0  0  0  0
 13 35  1  0  0  0  0
 14 15  2  0  0  0  0
 14 36  1  0  0  0  0
 15 16  1  0  0  0  0
 15 37  1  0  0  0  0
 16 17  1  0  0  0  0
 17 18  1  0  0  0  0
 18 19  1  0  0  0  0
 18 38  1  0  0  0  0
 18 39  1  0  0  0  0
 19 20  1  0  0  0  0
 19 21  1  0  0  0  0
 19 40  1  0  0  0  0
 20 41  1  0  0  0  0
 20 42  1  0  0  0  0
 20 43  1  0  0  0  0
 21 44  1  0  0  0  0
M  CHG  1  10   1
M  END
> <s_m_source_file>
AV-unprocessed.smi

> <i_m_source_file_index>
1856

> <i_lp_mmshare_version>
43012

> <i_f3d_flags>
0

> <s_epik_input>
W0NIM11bQ0gyXVtDSDJdQyg9TylbTkhdW0NASF0oW0NIM10pYyhuMSluKFtDSDJdW0NASF0oW0NIM10pW09IXSljKGMxMilbY0hdW2NIXVtjSF1bY0hdMg==

> <s_epik_cmdline>
J2VwaWtfcHl0aG9uJywgJy1waCcsICc3LjAnLCAnLXRuJywgJzgnLCAnLW1hJywgJzIwMCcsICctbWV0YWxfYmluZGluZycsICctaW1hZScsICc8aW5maWxlLm1hZT4nLCAnLW9tYWUnLCAnPG91dGZpbGUubWFlPic=

> <r_epik_Ionization_Penalty>
0.945588

> <r_epik_Ionization_Penalty_Charging>
0.945588

> <r_epik_Ionization_Penalty_Neutral>
8.64698e-08

> <r_epik_State_Penalty>
0.989378

> <r_epik_Charging_Adjusted_Penalty>
1.93497

> <i_epik_Tot_Q>
1

> <i_epik_Tot_abs_Q>
1

> <r_epik_Metal_State_Penalty>
1.10045

> <b_epik_Metal_Only>
0

> <s_lp_Force_Field>
OPLS_2005

> <r_lp_Energy>
9.41994

> <b_lp_Chiralities_Consistent>
1

> <s_lp_Variant>
AV-unprocessed.smi:1856-5

> <Gold.Version>
5.8.1

> <Gold.Id.Protein>
6NUR|6NUR_protein|mol2

> <Gold.PLP.Fitness>
47.5614

> <Gold.PLP.PLP>
-39.5389

> <Gold.PLP.part.hbond>
-2.7689

> <Gold.PLP.part.metal>
0.0000

> <Gold.PLP.part.buried>
0.7841

> <Gold.PLP.part.nonpolar>
-40.2837

> <Gold.PLP.part.repulsive>
1.0963

> <Gold.PLP.ligand.clash>
0.0000

> <Gold.PLP.ligand.torsion>
0.5241

> <Gold.PLP.Chemscore.Hbond>
3.0000

> <Gold.PLP.Chemscore.CHOScore>
0.0000

> <Gold.PLP.Chemscore.Metal>
0.0000

> <Gold.Chemscore.Hbonds>
donor molecule, donor type, donor heavy atom, donor atom, acceptor molecule, acceptor atom, score
      L1  H     6    29       P1  7948  1.00
      L1  H    10    45       P1  7948  2.00

> <Gold.PLP.Chemscore.Internal.Correction>
0.0707

> <Gold.Rescore>
     Score         DG    S(hbond)    S(metal)    S(lipo)     H(rot)  DE(clash)    DE(int)     intcor
     14.40     -15.83       1.91        0.00      88.98       2.52       0.99       0.45       ----

> <Gold.Chemscore.Fitness>
14.3984

> <Gold.Chemscore.DG>
-15.8321

> <Gold.Chemscore.ZeroCoef>
-5.4800

> <Gold.Chemscore.Hbond>
1.9111

> <Gold.Chemscore.Metal>
0.0000

> <Gold.Chemscore.Lipo>
88.9756

> <Gold.Chemscore.Internal_Hbond>
0.0000

> <Gold.Chemscore.DEClash>
0.9878

> <Gold.Chemscore.DEInternal>
0.4460

> <Gold.Chemscore.Rot>
2.5161

> <Gold.Chemscore.Internal.Correction>
   9.000000E+99

> <Gold.Chemscore.Hbonds>
donor molecule, donor type, donor heavy atom, donor atom, acceptor molecule, acceptor atom, score
      L1  H     6    29       P1  7948  0.97
      L1  H    10    45       P1  7948  0.93

> <Gold.Chemscore.Hbond.Weighted>
-6.3831

> <Gold.Chemscore.Metal.Weighted>
-0.0000

> <Gold.Chemscore.Lipo.Weighted>
-10.4101

> <Gold.Chemscore.Internal_Hbond.Weighted>
0.0000

> <Gold.Chemscore.DEClash.Weighted>
0.9878

> <Gold.Chemscore.DEInternal.Weighted>
0.4460

> <Gold.Chemscore.Rot.Weighted>
6.4412

> <Gold.Chemscore.Internal.Correction.Weighted>
   9.000000E+99

> <Gold.Protein.RotatedTorsions>
[ 6907 6896 6895 6894 ] final  -86.24 input  -60.11 | X-H torsion
[ 7974 7965 7964 7962 ] final  167.56 input  175.53 | X-H torsion
[ 8008 7997 7996 7995 ] final  123.75 input   59.86 | X-H torsion
[ 10167 10162 10161 10158 ] final   78.21 input  -65.29 | X-H torsion
[ 10718 10713 10712 10709 ] final    6.49 input   66.30 | X-H torsion
[ 10763 10752 10751 10750 ] final -106.47 input  -60.55 | X-H torsion
[ 11005 11000 10999 10996 ] final    8.55 input  -57.11 | X-H torsion

> <Gold.Protein.ActiveResidues>
 VAL166  LYS551  ARG553  GLY616  TRP617  ASP618  TYR619  PRO620  LYS621  CYS622 
 ASP623  PHE694  ASN695  SER759  ASP760  ASP761  ALA762  ILE779  LEU786  VAL792 
 PHE793  MET794  SER795  GLU796  ALA797  LYS798  CYS799  TRP800  GLU811  SER814 

> <Gold.Protein.RotatedAtoms>
  150.6867  134.3081  159.4734 H   0  0  0  0  0  0  0  0  0  0  0  0  # atno 6907 bound_to 6896
  152.0970  134.9365  160.0580 H   0  0  0  0  0  0  0  0  0  0  0  0  # atno 6908 bound_to 6896
  152.0659  133.4049  159.4475 H   0  0  0  0  0  0  0  0  0  0  0  0  # atno 6909 bound_to 6896
  144.7420  139.8778  143.6394 H   0  0  0  0  0  0  0  0  0  0  0  0  # atno 7974 bound_to 7965
  156.2777  140.2755  156.1678 H   0  0  0  0  0  0  0  0  0  0  0  0  # atno 8008 bound_to 7997
  155.0687  140.0387  157.2619 H   0  0  0  0  0  0  0  0  0  0  0  0  # atno 8009 bound_to 7997
  154.7058  140.2658  155.6681 H   0  0  0  0  0  0  0  0  0  0  0  0  # atno 8010 bound_to 7997
  139.9733  144.5879  150.7965 H   0  0  0  0  0  0  0  0  0  0  0  0  # atno 10167 bound_to 10162
  156.9230  130.5798  149.5648 H   0  0  0  0  0  0  0  0  0  0  0  0  # atno 10718 bound_to 10713
  154.8014  135.4711  154.0285 H   0  0  0  0  0  0  0  0  0  0  0  0  # atno 10763 bound_to 10752
  153.1788  135.6837  153.8514 H   0  0  0  0  0  0  0  0  0  0  0  0  # atno 10764 bound_to 10752
  153.8071  135.3222  155.3374 H   0  0  0  0  0  0  0  0  0  0  0  0  # atno 10765 bound_to 10752
  140.5357  134.0423  155.7887 H   0  0  0  0  0  0  0  0  0  0  0  0  # atno 11005 bound_to 11000
  146.1233  139.4255  143.0214 LP  0  0  0  0  0  0  0  0  0  0  0  0  # atno 17320 bound_to 7965
  145.7272  141.0055  143.1371 LP  0  0  0  0  0  0  0  0  0  0  0  0  # atno 17321 bound_to 7965
  140.7514  143.2972  151.3173 LP  0  0  0  0  0  0  0  0  0  0  0  0  # atno 17342 bound_to 10162
  139.6464  144.0443  152.2594 LP  0  0  0  0  0  0  0  0  0  0  0  0  # atno 17343 bound_to 10162
  156.0482  130.5555  150.8929 LP  0  0  0  0  0  0  0  0  0  0  0  0  # atno 17370 bound_to 10713
  157.5896  131.0945  150.9141 LP  0  0  0  0  0  0  0  0  0  0  0  0  # atno 17371 bound_to 10713
  141.1256  133.9389  157.2642 LP  0  0  0  0  0  0  0  0  0  0  0  0  # atno 17394 bound_to 11000
  139.9530  135.0171  156.9049 LP  0  0  0  0  0  0  0  0  0  0  0  0  # atno 17395 bound_to 11000

$$$$
