AV-unprocessed.smi:289|AV-procd|sdf|2214|dock4
  -GOLD-   2262022 53D 1   1.00000     0.00000
 Structure written by MMmdl.
 51 54  0  0  0  0  0  0  0  0  1 V2000
  148.7496  140.9347  154.4406 O   0  0  0  0  0  0  0  0  0  0  0  0
  149.6822  140.1706  154.6977 C   0  0  0  0  0  0  0  0  0  0  0  0
  149.6997  138.7678  154.0542 C   0  0  0  0  0  0  0  0  0  0  0  0
  149.4326  137.6711  155.0120 N   0  0  0  0  0  0  0  0  0  0  0  0
  150.3643  136.6082  155.1048 C   0  0  0  0  0  0  0  0  0  0  0  0
  151.3657  136.5718  154.3883 O   0  0  0  0  0  0  0  0  0  0  0  0
  150.0618  135.5942  156.1071 C   0  0  0  0  0  0  0  0  0  0  0  0
  150.9122  134.5710  156.2961 F   0  0  0  0  0  0  0  0  0  0  0  0
  148.9478  135.6745  156.8635 C   0  0  0  0  0  0  0  0  0  0  0  0
  148.0198  136.6951  156.7345 N   0  0  0  0  0  0  0  0  0  0  0  0
  146.8062  136.8222  157.6435 C   0  0  1  0  0  0  0  0  0  0  0  0
  146.4540  135.5407  158.4114 C   0  0  0  0  0  0  0  0  0  0  0  0
  147.1010  135.7598  159.7765 C   0  0  0  0  0  0  0  0  0  0  0  0
  147.7616  137.1392  159.6798 C   0  0  0  0  0  0  0  0  0  0  0  0
  147.0789  137.7832  158.6128 O   0  0  0  0  0  0  0  0  0  0  0  0
  148.2787  137.7486  155.8287 C   0  0  0  0  0  0  0  0  0  0  0  0
  147.5173  138.7157  155.7531 O   0  0  0  0  0  0  0  0  0  0  0  0
  150.6935  140.5250  155.5272 N   0  0  0  0  0  0  0  0  0  0  0  0
  150.8022  141.7941  156.2607 C   0  0  0  0  0  0  0  0  0  0  0  0
  150.6954  141.5115  157.7735 C   0  0  0  0  0  0  0  0  0  0  0  0
  151.7490  140.5579  158.1688 N   0  0  0  0  0  0  0  0  0  0  0  0
  152.7842  140.8222  159.0050 C   0  0  0  0  0  0  0  0  0  0  0  0
  153.7907  140.1150  159.0584 O   0  0  0  0  0  0  0  0  0  0  0  0
  152.7073  141.9950  159.9025 C   0  0  0  0  0  0  0  0  0  0  0  0
  153.0572  142.1228  161.2197 C   0  0  0  0  0  0  0  0  0  0  0  0
  152.7208  143.4502  161.6038 C   0  0  0  0  0  0  0  0  0  0  0  0
  152.1656  144.0312  160.5003 C   0  0  0  0  0  0  0  0  0  0  0  0
  152.1368  143.1545  159.4600 O   0  0  0  0  0  0  0  0  0  0  0  0
  151.6645  139.3026  157.4040 C   0  0  0  0  0  0  0  0  0  0  0  0
  151.7789  139.6075  155.8984 C   0  0  0  0  0  0  0  0  0  0  0  0
  148.9719  138.7415  153.2419 H   0  0  0  0  0  0  0  0  0  0  0  0
  150.6629  138.6204  153.5632 H   0  0  0  0  0  0  0  0  0  0  0  0
  148.8042  134.9038  157.6040 H   0  0  0  0  0  0  0  0  0  0  0  0
  145.9871  137.1302  156.9916 H   0  0  0  0  0  0  0  0  0  0  0  0
  145.3698  135.4992  158.5233 H   0  0  0  0  0  0  0  0  0  0  0  0
  146.7641  134.6355  157.8901 H   0  0  0  0  0  0  0  0  0  0  0  0
  146.3366  135.7561  160.5545 H   0  0  0  0  0  0  0  0  0  0  0  0
  147.8281  134.9851  160.0207 H   0  0  0  0  0  0  0  0  0  0  0  0
  147.6775  137.7090  160.6054 H   0  0  0  0  0  0  0  0  0  0  0  0
  148.8213  137.0485  159.4373 H   0  0  0  0  0  0  0  0  0  0  0  0
  151.7664  142.2525  156.0354 H   0  0  0  0  0  0  0  0  0  0  0  0
  150.0582  142.5352  155.9749 H   0  0  0  0  0  0  0  0  0  0  0  0
  150.7527  142.4666  158.2914 H   0  0  0  0  0  0  0  0  0  0  0  0
  149.7187  141.0898  158.0153 H   0  0  0  0  0  0  0  0  0  0  0  0
  153.5042  141.3534  161.8321 H   0  0  0  0  0  0  0  0  0  0  0  0
  152.8589  143.9170  162.5680 H   0  0  0  0  0  0  0  0  0  0  0  0
  151.7529  145.0075  160.2931 H   0  0  0  0  0  0  0  0  0  0  0  0
  152.4292  138.5796  157.6910 H   0  0  0  0  0  0  0  0  0  0  0  0
  150.7087  138.8213  157.6171 H   0  0  0  0  0  0  0  0  0  0  0  0
  151.7590  138.6746  155.3341 H   0  0  0  0  0  0  0  0  0  0  0  0
  152.7412  140.0712  155.6758 H   0  0  0  0  0  0  0  0  0  0  0  0
  1  2  2  0  0  0  0
  2  3  1  0  0  0  0
  2 18  1  0  0  0  0
  3  4  1  0  0  0  0
  3 31  1  0  0  0  0
  3 32  1  0  0  0  0
  4 16  1  0  0  0  0
  4  5  1  0  0  0  0
  5  6  2  0  0  0  0
  5  7  1  0  0  0  0
  7  8  1  0  0  0  0
  7  9  2  0  0  0  0
  9 10  1  0  0  0  0
  9 33  1  0  0  0  0
 10 11  1  0  0  0  0
 10 16  1  0  0  0  0
 11 15  1  0  0  0  0
 11 12  1  0  0  0  0
 11 34  1  0  0  0  0
 12 13  1  0  0  0  0
 12 35  1  0  0  0  0
 12 36  1  0  0  0  0
 13 14  1  0  0  0  0
 13 37  1  0  0  0  0
 13 38  1  0  0  0  0
 14 15  1  0  0  0  0
 14 39  1  0  0  0  0
 14 40  1  0  0  0  0
 16 17  2  0  0  0  0
 18 30  1  0  0  0  0
 18 19  1  0  0  0  0
 19 20  1  0  0  0  0
 19 41  1  0  0  0  0
 19 42  1  0  0  0  0
 20 21  1  0  0  0  0
 20 43  1  0  0  0  0
 20 44  1  0  0  0  0
 21 22  1  0  0  0  0
 21 29  1  0  0  0  0
 22 23  2  0  0  0  0
 22 24  1  0  0  0  0
 24 28  1  0  0  0  0
 24 25  2  0  0  0  0
 25 26  1  0  0  0  0
 25 45  1  0  0  0  0
 26 27  2  0  0  0  0
 26 46  1  0  0  0  0
 27 28  1  0  0  0  0
 27 47  1  0  0  0  0
 29 30  1  0  0  0  0
 29 48  1  0  0  0  0
 29 49  1  0  0  0  0
 30 50  1  0  0  0  0
 30 51  1  0  0  0  0
M  END
> <s_m_source_file>
AV-unprocessed.smi

> <i_m_source_file_index>
289

> <i_lp_mmshare_version>
43012

> <i_f3d_flags>
0

> <s_epik_input>
bzFbY0hdW2NIXVtjSF1jMUMoPU8pTihbQ0gyXVtDSDJdMilbQ0gyXVtDSDJdTjJDKD1PKVtDSDJdbjNjKD1PKWMoRilbY0hdbihjMz1PKVtDQEBIXTRbQ0gyXVtDSDJdW0NIMl1PNA==

> <s_epik_cmdline>
J2VwaWtfcHl0aG9uJywgJy1waCcsICc3LjAnLCAnLXRuJywgJzgnLCAnLW1hJywgJzIwMCcsICctbWV0YWxfYmluZGluZycsICctaW1hZScsICc8aW5maWxlLm1hZT4nLCAnLW9tYWUnLCAnPG91dGZpbGUubWFlPic=

> <r_lp_tautomer_probability>
1

> <r_epik_Ionization_Penalty>
6.38128e-09

> <r_epik_Ionization_Penalty_Charging>
4.20153e-09

> <r_epik_Ionization_Penalty_Neutral>
2.17976e-09

> <r_epik_State_Penalty>
-0

> <r_epik_Charging_Adjusted_Penalty>
4.20153e-09

> <i_epik_Tot_Q>
0

> <i_epik_Tot_abs_Q>
0

> <r_epik_Metal_State_Penalty>
-0

> <b_epik_Metal_Only>
0

> <s_epik_Chemistry_Notes>
This compound contains an acetal/aminal-like group ( X-CH(R)-Y where X, Y are N, S, or O) that may be acid/base labile, releasing an aldehyde.

> <s_lp_Force_Field>
OPLS_2005

> <r_lp_Energy>
67.9556

> <b_lp_Chiralities_Consistent>
1

> <s_lp_Variant>
AV-unprocessed.smi:289-2

> <Gold.Version>
5.8.1

> <Gold.Id.Protein>
6NUR|6NUR_protein|mol2

> <Gold.PLP.Fitness>
51.0558

> <Gold.PLP.PLP>
-47.1166

> <Gold.PLP.part.hbond>
-2.0000

> <Gold.PLP.part.metal>
0.0000

> <Gold.PLP.part.buried>
-6.5322

> <Gold.PLP.part.nonpolar>
-38.0548

> <Gold.PLP.part.repulsive>
1.1469

> <Gold.PLP.ligand.clash>
0.0000

> <Gold.PLP.ligand.torsion>
1.2488

> <Gold.PLP.Chemscore.Hbond>
1.9357

> <Gold.PLP.Chemscore.CHOScore>
0.0000

> <Gold.PLP.Chemscore.Metal>
0.0000

> <Gold.Chemscore.Hbonds>
donor molecule, donor type, donor heavy atom, donor atom, acceptor molecule, acceptor atom, score
      P1  H  7997  8008       L1    23  0.78
      P1  H 10752 10763       L1     6  1.00

> <Gold.PLP.Chemscore.Internal.Correction>
0.6296

> <Gold.Rescore>
     Score         DG    S(hbond)    S(metal)    S(lipo)     H(rot)  DE(clash)    DE(int)     intcor
     13.20     -18.10       1.79        0.00      93.19       1.66       0.09       4.81       ----

> <Gold.Chemscore.Fitness>
13.2010

> <Gold.Chemscore.DG>
-18.1046

> <Gold.Chemscore.ZeroCoef>
-5.4800

> <Gold.Chemscore.Hbond>
1.7861

> <Gold.Chemscore.Metal>
0.0000

> <Gold.Chemscore.Lipo>
93.1934

> <Gold.Chemscore.Internal_Hbond>
0.0000

> <Gold.Chemscore.DEClash>
0.0916

> <Gold.Chemscore.DEInternal>
4.8121

> <Gold.Chemscore.Rot>
1.6580

> <Gold.Chemscore.Internal.Correction>
   9.000000E+99

> <Gold.Chemscore.Hbonds>
donor molecule, donor type, donor heavy atom, donor atom, acceptor molecule, acceptor atom, score
      P1  H  7997  8008       L1    23  0.67
      P1  H 10752 10763       L1     6  0.99

> <Gold.Chemscore.Hbond.Weighted>
-5.9656

> <Gold.Chemscore.Metal.Weighted>
-0.0000

> <Gold.Chemscore.Lipo.Weighted>
-10.9036

> <Gold.Chemscore.Internal_Hbond.Weighted>
0.0000

> <Gold.Chemscore.DEClash.Weighted>
0.0916

> <Gold.Chemscore.DEInternal.Weighted>
4.8121

> <Gold.Chemscore.Rot.Weighted>
4.2446

> <Gold.Chemscore.Internal.Correction.Weighted>
   9.000000E+99

> <Gold.Protein.RotatedTorsions>
[ 6907 6896 6895 6894 ] final  145.68 input  -60.11 | X-H torsion
[ 7974 7965 7964 7962 ] final  112.40 input  175.53 | X-H torsion
[ 8008 7997 7996 7995 ] final -108.86 input   59.86 | X-H torsion
[ 10167 10162 10161 10158 ] final   81.29 input  -65.29 | X-H torsion
[ 10718 10713 10712 10709 ] final  115.15 input   66.30 | X-H torsion
[ 10763 10752 10751 10750 ] final   61.23 input  -60.55 | X-H torsion
[ 11005 11000 10999 10996 ] final -117.06 input  -57.11 | X-H torsion

> <Gold.Protein.ActiveResidues>
 VAL166  LYS551  ARG553  GLY616  TRP617  ASP618  TYR619  PRO620  LYS621  CYS622 
 ASP623  PHE694  ASN695  SER759  ASP760  ASP761  ALA762  ILE779  LEU786  VAL792 
 PHE793  MET794  SER795  GLU796  ALA797  LYS798  CYS799  TRP800  GLU811  SER814 

> <Gold.Protein.RotatedAtoms>
  152.1777  133.4686  159.4941 H   0  0  0  0  0  0  0  0  0  0  0  0  # atno 6907 bound_to 6896
  150.6929  134.1873  159.4280 H   0  0  0  0  0  0  0  0  0  0  0  0  # atno 6908 bound_to 6896
  151.9783  135.0041  160.0607 H   0  0  0  0  0  0  0  0  0  0  0  0  # atno 6909 bound_to 6896
  145.2300  139.2823  143.4173 H   0  0  0  0  0  0  0  0  0  0  0  0  # atno 7974 bound_to 7965
  154.9507  140.0401  157.2142 H   0  0  0  0  0  0  0  0  0  0  0  0  # atno 8008 bound_to 7997
  154.7981  140.2847  155.5919 H   0  0  0  0  0  0  0  0  0  0  0  0  # atno 8009 bound_to 7997
  156.2958  140.2560  156.2844 H   0  0  0  0  0  0  0  0  0  0  0  0  # atno 8010 bound_to 7997
  139.9408  144.6091  150.8254 H   0  0  0  0  0  0  0  0  0  0  0  0  # atno 10167 bound_to 10162
  157.6239  131.1008  150.7288 H   0  0  0  0  0  0  0  0  0  0  0  0  # atno 10718 bound_to 10713
  152.9944  135.5508  154.6001 H   0  0  0  0  0  0  0  0  0  0  0  0  # atno 10763 bound_to 10752
  154.5344  135.2815  155.1154 H   0  0  0  0  0  0  0  0  0  0  0  0  # atno 10764 bound_to 10752
  154.2456  135.6408  153.5275 H   0  0  0  0  0  0  0  0  0  0  0  0  # atno 10765 bound_to 10752
  141.0380  133.9879  157.3039 H   0  0  0  0  0  0  0  0  0  0  0  0  # atno 11005 bound_to 11000
  146.3355  140.2633  142.8603 LP  0  0  0  0  0  0  0  0  0  0  0  0  # atno 17320 bound_to 7965
  144.9685  140.8345  143.5470 LP  0  0  0  0  0  0  0  0  0  0  0  0  # atno 17321 bound_to 7965
  140.7611  143.3167  151.2716 LP  0  0  0  0  0  0  0  0  0  0  0  0  # atno 17342 bound_to 10162
  139.6706  144.0026  152.2751 LP  0  0  0  0  0  0  0  0  0  0  0  0  # atno 17343 bound_to 10162
  156.7640  130.4808  149.5431 LP  0  0  0  0  0  0  0  0  0  0  0  0  # atno 17370 bound_to 10713
  156.1400  130.6238  151.0453 LP  0  0  0  0  0  0  0  0  0  0  0  0  # atno 17371 bound_to 10713
  139.9255  135.0201  156.8218 LP  0  0  0  0  0  0  0  0  0  0  0  0  # atno 17394 bound_to 11000
  140.6286  133.9927  155.7651 LP  0  0  0  0  0  0  0  0  0  0  0  0  # atno 17395 bound_to 11000

$$$$
