AV-unprocessed.smi:1692|AV-procd|sdf|6781|dock3
  -GOLD-   22720 7543D 1   1.00000     0.00000
 Structure written by MMmdl.
 46 47  0  0  0  0  0  0  0  0  2 V2000
  151.6235  141.5031  157.8197 C   0  0  0  0  0  0  0  0  0  0  0  0
  151.3026  140.2479  157.0010 C   0  0  1  0  0  0  0  0  0  0  0  0
  150.4632  140.5717  155.7524 C   0  0  0  0  0  0  0  0  0  0  0  0
  150.2443  139.3503  154.9430 N   0  3  1  0  0  0  0  0  0  0  0  0
  149.3508  139.5936  153.7831 C   0  0  0  0  0  0  0  0  0  0  0  0
  147.8741  139.2819  154.0970 C   0  0  0  0  0  0  0  0  0  0  0  0
  146.9764  139.1787  152.8500 C   0  0  0  0  0  0  0  0  0  0  0  0
  146.9324  137.8274  152.2975 N   0  0  0  0  0  0  0  0  0  0  0  0
  145.8721  137.0068  152.3363 C   0  0  0  0  0  0  0  0  0  0  0  0
  144.8082  137.3009  152.8822 O   0  0  0  0  0  0  0  0  0  0  0  0
  146.1322  135.8434  151.7143 N   0  0  0  0  0  0  0  0  0  0  0  0
  145.2786  134.7174  151.5676 C   0  0  0  0  0  0  0  0  0  0  0  0
  145.6573  133.8069  150.5549 C   0  0  0  0  0  0  0  0  0  0  0  0
  144.8752  132.6578  150.3286 C   0  0  0  0  0  0  0  0  0  0  0  0
  143.7347  132.4468  151.1237 C   0  0  0  0  0  0  0  0  0  0  0  0
  143.4296  133.4007  152.1121 C   0  0  0  0  0  0  0  0  0  0  0  0
  144.1776  134.5030  152.3305 N   0  0  0  0  0  0  0  0  0  0  0  0
  151.5460  138.7418  154.5728 C   0  0  0  0  0  0  0  0  0  0  0  0
  152.4085  138.4693  155.8212 C   0  0  2  0  0  0  0  0  0  0  0  0
  151.9211  137.2720  156.6565 C   0  0  0  0  0  0  0  0  0  0  0  0
  152.5365  139.6572  156.6024 O   0  0  0  0  0  0  0  0  0  0  0  0
  150.7117  141.9923  158.1631 H   0  0  0  0  0  0  0  0  0  0  0  0
  152.1901  142.2251  157.2309 H   0  0  0  0  0  0  0  0  0  0  0  0
  152.2170  141.2526  158.6993 H   0  0  0  0  0  0  0  0  0  0  0  0
  150.7538  139.5587  157.6430 H   0  0  0  0  0  0  0  0  0  0  0  0
  149.5032  140.9896  156.0589 H   0  0  0  0  0  0  0  0  0  0  0  0
  150.9614  141.3278  155.1429 H   0  0  0  0  0  0  0  0  0  0  0  0
  149.4279  140.6451  153.5069 H   0  0  0  0  0  0  0  0  0  0  0  0
  149.6942  139.0217  152.9198 H   0  0  0  0  0  0  0  0  0  0  0  0
  147.8036  138.3357  154.6322 H   0  0  0  0  0  0  0  0  0  0  0  0
  147.4740  140.0404  154.7712 H   0  0  0  0  0  0  0  0  0  0  0  0
  145.9724  139.5454  153.0711 H   0  0  0  0  0  0  0  0  0  0  0  0
  147.3690  139.8336  152.0717 H   0  0  0  0  0  0  0  0  0  0  0  0
  147.7664  137.5021  151.8305 H   0  0  0  0  0  0  0  0  0  0  0  0
  147.0464  135.7510  151.2971 H   0  0  0  0  0  0  0  0  0  0  0  0
  146.5368  133.9842  149.9532 H   0  0  0  0  0  0  0  0  0  0  0  0
  145.1465  131.9513  149.5583 H   0  0  0  0  0  0  0  0  0  0  0  0
  143.1103  131.5773  150.9804 H   0  0  0  0  0  0  0  0  0  0  0  0
  142.5628  133.2761  152.7441 H   0  0  0  0  0  0  0  0  0  0  0  0
  151.4011  137.8136  154.0212 H   0  0  0  0  0  0  0  0  0  0  0  0
  152.0775  139.4222  153.9053 H   0  0  0  0  0  0  0  0  0  0  0  0
  153.4148  138.2243  155.4805 H   0  0  0  0  0  0  0  0  0  0  0  0
  151.9618  136.3523  156.0723 H   0  0  0  0  0  0  0  0  0  0  0  0
  150.8930  137.3933  156.9960 H   0  0  0  0  0  0  0  0  0  0  0  0
  152.5497  137.1307  157.5362 H   0  0  0  0  0  0  0  0  0  0  0  0
  149.7666  138.6940  155.5440 H   0  0  0  0  0  0  0  0  0  0  0  0
  1  2  1  0  0  0  0
  1 22  1  0  0  0  0
  1 23  1  0  0  0  0
  1 24  1  0  0  0  0
  2 21  1  0  0  0  0
  2  3  1  0  0  0  0
  2 25  1  0  0  0  0
  3  4  1  0  0  0  0
  3 26  1  0  0  0  0
  3 27  1  0  0  0  0
  4  5  1  0  0  0  0
  4 18  1  0  0  0  0
  4 46  1  0  0  0  0
  5  6  1  0  0  0  0
  5 28  1  0  0  0  0
  5 29  1  0  0  0  0
  6  7  1  0  0  0  0
  6 30  1  0  0  0  0
  6 31  1  0  0  0  0
  7  8  1  0  0  0  0
  7 32  1  0  0  0  0
  7 33  1  0  0  0  0
  8  9  1  0  0  0  0
  8 34  1  0  0  0  0
  9 10  2  0  0  0  0
  9 11  1  0  0  0  0
 11 12  1  0  0  0  0
 11 35  1  0  0  0  0
 12 17  1  0  0  0  0
 12 13  2  0  0  0  0
 13 14  1  0  0  0  0
 13 36  1  0  0  0  0
 14 15  2  0  0  0  0
 14 37  1  0  0  0  0
 15 16  1  0  0  0  0
 15 38  1  0  0  0  0
 16 17  2  0  0  0  0
 16 39  1  0  0  0  0
 18 19  1  0  0  0  0
 18 40  1  0  0  0  0
 18 41  1  0  0  0  0
 19 20  1  0  0  0  0
 19 21  1  0  0  0  0
 19 42  1  0  0  0  0
 20 43  1  0  0  0  0
 20 44  1  0  0  0  0
 20 45  1  0  0  0  0
M  CHG  1   4   1
M  END
> <s_m_source_file>
AV-unprocessed.smi

> <i_m_source_file_index>
1692

> <i_lp_mmshare_version>
43012

> <i_f3d_flags>
0

> <s_epik_input>
W0NIM11bQ0BASF0xW0NIMl1OKFtDSDJdW0NASF0oTzEpW0NIM10pW0NIMl1bQ0gyXVtDSDJdW05IXUMoPU8pW05IXWMyW2NIXVtjSF1bY0hdW2NIXW4y

> <s_epik_cmdline>
J2VwaWtfcHl0aG9uJywgJy1waCcsICc3LjAnLCAnLXRuJywgJzgnLCAnLW1hJywgJzIwMCcsICctbWV0YWxfYmluZGluZycsICctaW1hZScsICc8aW5maWxlLm1hZT4nLCAnLW9tYWUnLCAnPG91dGZpbGUubWFlPic=

> <r_epik_Ionization_Penalty>
0.270538

> <r_epik_Ionization_Penalty_Charging>
0.270496

> <r_epik_Ionization_Penalty_Neutral>
4.22978e-05

> <r_epik_State_Penalty>
0.262618

> <r_epik_Charging_Adjusted_Penalty>
0.533114

> <i_epik_Tot_Q>
1

> <i_epik_Tot_abs_Q>
1

> <r_epik_Metal_State_Penalty>
0.262618

> <b_epik_Metal_Only>
0

> <s_lp_Force_Field>
OPLS_2005

> <r_lp_Energy>
21.4343

> <b_lp_Chiralities_Consistent>
1

> <s_lp_Variant>
AV-unprocessed.smi:1692-4

> <Gold.Version>
5.8.1

> <Gold.Id.Protein>
6NUR|6NUR_protein|mol2

> <Gold.PLP.Fitness>
41.3755

> <Gold.PLP.PLP>
-32.7289

> <Gold.PLP.part.hbond>
-3.0000

> <Gold.PLP.part.metal>
0.0000

> <Gold.PLP.part.buried>
-1.1085

> <Gold.PLP.part.nonpolar>
-29.5579

> <Gold.PLP.part.repulsive>
0.5081

> <Gold.PLP.ligand.clash>
0.0000

> <Gold.PLP.ligand.torsion>
0.8393

> <Gold.PLP.Chemscore.Hbond>
2.5680

> <Gold.PLP.Chemscore.CHOScore>
0.8555

> <Gold.PLP.Chemscore.Metal>
0.0000

> <Gold.Chemscore.Hbonds>
donor molecule, donor type, donor heavy atom, donor atom, acceptor molecule, acceptor atom, score
      L1  H     8    34       P1  7948  0.88
      L1  H    11    35       P1  7948  0.74
      P1  H  7997  8008       L1    21  1.00
      L1  C    16    39       P1 10957  0.82

> <Gold.PLP.Chemscore.Internal.Correction>
0.0547

> <Gold.Rescore>
     Score         DG    S(hbond)    S(metal)    S(lipo)     H(rot)  DE(clash)    DE(int)     intcor
     16.86     -20.19       2.72        0.00      87.16       1.78       1.27       2.05       ----

> <Gold.Chemscore.Fitness>
16.8619

> <Gold.Chemscore.DG>
-20.1862

> <Gold.Chemscore.ZeroCoef>
-5.4800

> <Gold.Chemscore.Hbond>
2.7153

> <Gold.Chemscore.Metal>
0.0000

> <Gold.Chemscore.Lipo>
87.1558

> <Gold.Chemscore.Internal_Hbond>
0.0000

> <Gold.Chemscore.DEClash>
1.2703

> <Gold.Chemscore.DEInternal>
2.0540

> <Gold.Chemscore.Rot>
1.7814

> <Gold.Chemscore.Internal.Correction>
   9.000000E+99

> <Gold.Chemscore.Hbonds>
donor molecule, donor type, donor heavy atom, donor atom, acceptor molecule, acceptor atom, score
      L1  H     8    34       P1  7948  0.86
      L1  H    11    35       P1  7948  0.70
      P1  H  7997  8008       L1    21  0.45

> <Gold.Chemscore.Hbond.Weighted>
-9.0692

> <Gold.Chemscore.Metal.Weighted>
-0.0000

> <Gold.Chemscore.Lipo.Weighted>
-10.1972

> <Gold.Chemscore.Internal_Hbond.Weighted>
0.0000

> <Gold.Chemscore.DEClash.Weighted>
1.2703

> <Gold.Chemscore.DEInternal.Weighted>
2.0540

> <Gold.Chemscore.Rot.Weighted>
4.5603

> <Gold.Chemscore.Internal.Correction.Weighted>
   9.000000E+99

> <Gold.Protein.RotatedTorsions>
[ 6907 6896 6895 6894 ] final -135.10 input  -60.11 | X-H torsion
[ 7974 7965 7964 7962 ] final -158.67 input  175.53 | X-H torsion
[ 8008 7997 7996 7995 ] final  -45.90 input   59.86 | X-H torsion
[ 10167 10162 10161 10158 ] final   85.47 input  -65.29 | X-H torsion
[ 10718 10713 10712 10709 ] final  -21.74 input   66.30 | X-H torsion
[ 10763 10752 10751 10750 ] final -168.30 input  -60.55 | X-H torsion
[ 11005 11000 10999 10996 ] final -126.43 input  -57.11 | X-H torsion

> <Gold.Protein.ActiveResidues>
 VAL166  LYS551  ARG553  GLY616  TRP617  ASP618  TYR619  PRO620  LYS621  CYS622 
 ASP623  PHE694  ASN695  SER759  ASP760  ASP761  ALA762  ILE779  LEU786  VAL792 
 PHE793  MET794  SER795  GLU796  ALA797  LYS798  CYS799  TRP800  GLU811  SER814 

> <Gold.Protein.RotatedAtoms>
  150.9937  133.6124  159.2704 H   0  0  0  0  0  0  0  0  0  0  0  0  # atno 6907 bound_to 6896
  151.3335  135.0846  159.9356 H   0  0  0  0  0  0  0  0  0  0  0  0  # atno 6908 bound_to 6896
  152.5253  133.9562  159.7750 H   0  0  0  0  0  0  0  0  0  0  0  0  # atno 6909 bound_to 6896
  144.7496  140.3794  143.6058 H   0  0  0  0  0  0  0  0  0  0  0  0  # atno 7974 bound_to 7965
  154.4003  140.1385  156.3923 H   0  0  0  0  0  0  0  0  0  0  0  0  # atno 8008 bound_to 7997
  155.7902  140.3479  155.5325 H   0  0  0  0  0  0  0  0  0  0  0  0  # atno 8009 bound_to 7997
  155.8587  140.0953  157.1618 H   0  0  0  0  0  0  0  0  0  0  0  0  # atno 8010 bound_to 7997
  139.8975  144.6349  150.8673 H   0  0  0  0  0  0  0  0  0  0  0  0  # atno 10167 bound_to 10162
  156.5140  130.4616  149.6633 H   0  0  0  0  0  0  0  0  0  0  0  0  # atno 10718 bound_to 10713
  154.6643  135.2929  154.9826 H   0  0  0  0  0  0  0  0  0  0  0  0  # atno 10763 bound_to 10752
  154.0875  135.6595  153.4851 H   0  0  0  0  0  0  0  0  0  0  0  0  # atno 10764 bound_to 10752
  153.0448  135.5212  154.7608 H   0  0  0  0  0  0  0  0  0  0  0  0  # atno 10765 bound_to 10752
  140.9682  134.0842  157.3898 H   0  0  0  0  0  0  0  0  0  0  0  0  # atno 11005 bound_to 11000
  145.6993  139.1657  143.2602 LP  0  0  0  0  0  0  0  0  0  0  0  0  # atno 17320 bound_to 7965
  146.1427  140.7035  142.9359 LP  0  0  0  0  0  0  0  0  0  0  0  0  # atno 17321 bound_to 7965
  140.7714  143.3462  151.2105 LP  0  0  0  0  0  0  0  0  0  0  0  0  # atno 17342 bound_to 10162
  139.7055  143.9462  152.2925 LP  0  0  0  0  0  0  0  0  0  0  0  0  # atno 17343 bound_to 10162
  156.3213  130.7282  151.2194 LP  0  0  0  0  0  0  0  0  0  0  0  0  # atno 17370 bound_to 10713
  157.7446  131.0455  150.4845 LP  0  0  0  0  0  0  0  0  0  0  0  0  # atno 17371 bound_to 10713
  139.8902  135.0110  156.6724 LP  0  0  0  0  0  0  0  0  0  0  0  0  # atno 17394 bound_to 11000
  140.7368  133.9012  155.8250 LP  0  0  0  0  0  0  0  0  0  0  0  0  # atno 17395 bound_to 11000

$$$$
