AV-unprocessed.smi:1356|AV-procd|sdf|5545|dock8
  -GOLD-   22720 5133D 1   1.00000     0.00000
 Structure written by MMmdl.
 42 43  0  0  0  0  0  0  0  0  2 V2000
  150.2667  131.7718  155.7778 C   0  0  0  0  0  0  0  0  0  0  0  0
  149.5249  132.2620  154.5465 C   0  0  1  0  0  0  0  0  0  0  0  0
  148.1820  132.9405  154.6725 C   0  0  0  0  0  0  0  0  0  0  0  0
  149.3731  133.7286  154.1637 C   0  0  1  0  0  0  0  0  0  0  0  0
  149.9370  134.7986  155.0463 C   0  0  0  0  0  0  0  0  0  0  0  0
  150.4385  134.5784  156.1496 O   0  0  0  0  0  0  0  0  0  0  0  0
  149.8404  136.0315  154.5287 N   0  0  0  0  0  0  0  0  0  0  0  0
  150.3173  137.2392  155.1883 C   0  0  0  0  0  0  0  0  0  0  0  0
  151.1509  138.0952  154.2215 C   0  0  0  0  0  0  0  0  0  0  0  0
  151.6092  139.3994  154.8759 C   0  0  0  0  0  0  0  0  0  0  0  0
  152.8073  139.6089  155.0639 O   0  0  0  0  0  0  0  0  0  0  0  0
  150.6452  140.2603  155.2361 N   0  0  0  0  0  0  0  0  0  0  0  0
  150.8629  141.5245  155.9342 C   0  0  0  0  0  0  0  0  0  0  0  0
  151.2383  141.3417  157.4204 C   0  0  0  0  0  0  0  0  0  0  0  0
  151.5068  142.6474  158.1494 C   0  0  0  0  0  0  0  0  0  0  0  0
  152.3334  142.7128  159.2928 C   0  0  0  0  0  0  0  0  0  0  0  0
  152.5299  143.9544  159.9318 C   0  0  0  0  0  0  0  0  0  0  0  0
  151.8994  145.1042  159.4128 C   0  0  0  0  0  0  0  0  0  0  0  0
  151.0867  144.9824  158.2671 C   0  0  0  0  0  0  0  0  0  0  0  0
  150.9216  143.7745  157.6843 N   0  3  0  0  0  0  0  0  0  0  0  0
  149.9625  132.3130  156.6732 H   0  0  0  0  0  0  0  0  0  0  0  0
  151.3414  131.8930  155.6412 H   0  0  0  0  0  0  0  0  0  0  0  0
  150.0567  130.7143  155.9384 H   0  0  0  0  0  0  0  0  0  0  0  0
  149.6531  131.5949  153.6963 H   0  0  0  0  0  0  0  0  0  0  0  0
  147.4131  132.6863  153.9459 H   0  0  0  0  0  0  0  0  0  0  0  0
  147.8110  133.1433  155.6756 H   0  0  0  0  0  0  0  0  0  0  0  0
  149.4027  133.9369  153.0951 H   0  0  0  0  0  0  0  0  0  0  0  0
  149.4172  136.1372  153.6179 H   0  0  0  0  0  0  0  0  0  0  0  0
  149.4609  137.8104  155.5520 H   0  0  0  0  0  0  0  0  0  0  0  0
  150.9120  136.9588  156.0594 H   0  0  0  0  0  0  0  0  0  0  0  0
  152.0333  137.5426  153.8964 H   0  0  0  0  0  0  0  0  0  0  0  0
  150.5710  138.3152  153.3236 H   0  0  0  0  0  0  0  0  0  0  0  0
  149.6881  140.0115  155.0309 H   0  0  0  0  0  0  0  0  0  0  0  0
  151.6232  142.1131  155.4186 H   0  0  0  0  0  0  0  0  0  0  0  0
  149.9351  142.0929  155.8642 H   0  0  0  0  0  0  0  0  0  0  0  0
  150.4380  140.8121  157.9388 H   0  0  0  0  0  0  0  0  0  0  0  0
  152.1178  140.7017  157.5005 H   0  0  0  0  0  0  0  0  0  0  0  0
  152.8054  141.8216  159.6811 H   0  0  0  0  0  0  0  0  0  0  0  0
  153.1554  144.0233  160.8099 H   0  0  0  0  0  0  0  0  0  0  0  0
  152.0368  146.0652  159.8868 H   0  0  0  0  0  0  0  0  0  0  0  0
  150.5670  145.8081  157.8034 H   0  0  0  0  0  0  0  0  0  0  0  0
  150.3280  143.7099  156.8569 H   0  0  0  0  0  0  0  0  0  0  0  0
  1  2  1  0  0  0  0
  1 21  1  0  0  0  0
  1 22  1  0  0  0  0
  1 23  1  0  0  0  0
  2  4  1  0  0  0  0
  2  3  1  0  0  0  0
  2 24  1  0  0  0  0
  3  4  1  0  0  0  0
  3 25  1  0  0  0  0
  3 26  1  0  0  0  0
  4  5  1  0  0  0  0
  4 27  1  0  0  0  0
  5  6  2  0  0  0  0
  5  7  1  0  0  0  0
  7  8  1  0  0  0  0
  7 28  1  0  0  0  0
  8  9  1  0  0  0  0
  8 29  1  0  0  0  0
  8 30  1  0  0  0  0
  9 10  1  0  0  0  0
  9 31  1  0  0  0  0
  9 32  1  0  0  0  0
 10 11  2  0  0  0  0
 10 12  1  0  0  0  0
 12 13  1  0  0  0  0
 12 33  1  0  0  0  0
 13 14  1  0  0  0  0
 13 34  1  0  0  0  0
 13 35  1  0  0  0  0
 14 15  1  0  0  0  0
 14 36  1  0  0  0  0
 14 37  1  0  0  0  0
 15 20  1  0  0  0  0
 15 16  2  0  0  0  0
 16 17  1  0  0  0  0
 16 38  1  0  0  0  0
 17 18  2  0  0  0  0
 17 39  1  0  0  0  0
 18 19  1  0  0  0  0
 18 40  1  0  0  0  0
 19 20  2  0  0  0  0
 19 41  1  0  0  0  0
 20 42  1  0  0  0  0
M  CHG  1  20   1
M  END
> <s_m_source_file>
AV-unprocessed.smi

> <i_m_source_file_index>
1356

> <i_lp_mmshare_version>
43012

> <i_f3d_flags>
0

> <s_epik_input>
W0NIM11bQ0BASF0xW0NIMl1bQ0BIXTFDKD1PKVtOSF1bQ0gyXVtDSDJdQyg9TylbTkhdW0NIMl1bQ0gyXWMyW2NIXVtjSF1bY0hdW2NIXW4y

> <s_epik_cmdline>
J2VwaWtfcHl0aG9uJywgJy1waCcsICc3LjAnLCAnLXRuJywgJzgnLCAnLW1hJywgJzIwMCcsICctbWV0YWxfYmluZGluZycsICctaW1hZScsICc8aW5maWxlLm1hZT4nLCAnLW9tYWUnLCAnPG91dGZpbGUubWFlPic=

> <r_epik_Ionization_Penalty>
1.86966

> <r_epik_Ionization_Penalty_Charging>
1.86966

> <r_epik_Ionization_Penalty_Neutral>
5.0403e-08

> <r_epik_State_Penalty>
1.98858

> <r_epik_Charging_Adjusted_Penalty>
3.85824

> <i_epik_Tot_Q>
1

> <i_epik_Tot_abs_Q>
1

> <r_epik_Metal_State_Penalty>
2.01347

> <b_epik_Metal_Only>
0

> <s_lp_Force_Field>
OPLS_2005

> <r_lp_Energy>
15.5699

> <b_lp_Chiralities_Consistent>
1

> <s_lp_Variant>
AV-unprocessed.smi:1356-6

> <Gold.Version>
5.8.1

> <Gold.Id.Protein>
6NUR|6NUR_protein|mol2

> <Gold.PLP.Fitness>
55.1909

> <Gold.PLP.PLP>
-45.2852

> <Gold.PLP.part.hbond>
-4.3265

> <Gold.PLP.part.metal>
0.0000

> <Gold.PLP.part.buried>
-4.4852

> <Gold.PLP.part.nonpolar>
-35.9907

> <Gold.PLP.part.repulsive>
0.8536

> <Gold.PLP.ligand.clash>
0.0000

> <Gold.PLP.ligand.torsion>
0.5613

> <Gold.PLP.Chemscore.Hbond>
3.6016

> <Gold.PLP.Chemscore.CHOScore>
0.0000

> <Gold.PLP.Chemscore.Metal>
0.0000

> <Gold.Chemscore.Hbonds>
donor molecule, donor type, donor heavy atom, donor atom, acceptor molecule, acceptor atom, score
      L1  H     7    28       P1  7948  1.00
      L1  H    20    42       P1  8028  1.37
      P1  H  7997  8010       L1    11  1.00

> <Gold.PLP.Chemscore.Internal.Correction>
0.2234

> <Gold.Rescore>
     Score         DG    S(hbond)    S(metal)    S(lipo)     H(rot)  DE(clash)    DE(int)     intcor
     18.51     -20.58       2.64        0.00     104.33       2.31       0.24       1.83       ----

> <Gold.Chemscore.Fitness>
18.5054

> <Gold.Chemscore.DG>
-20.5766

> <Gold.Chemscore.ZeroCoef>
-5.4800

> <Gold.Chemscore.Hbond>
2.6389

> <Gold.Chemscore.Metal>
0.0000

> <Gold.Chemscore.Lipo>
104.3301

> <Gold.Chemscore.Internal_Hbond>
0.0000

> <Gold.Chemscore.DEClash>
0.2401

> <Gold.Chemscore.DEInternal>
1.8311

> <Gold.Chemscore.Rot>
2.3140

> <Gold.Chemscore.Internal.Correction>
   9.000000E+99

> <Gold.Chemscore.Hbonds>
donor molecule, donor type, donor heavy atom, donor atom, acceptor molecule, acceptor atom, score
      L1  H     7    28       P1  7948  0.65
      L1  H    20    42       P1  8028  0.68
      P1  H  7997  8010       L1    11  0.98

> <Gold.Chemscore.Hbond.Weighted>
-8.8138

> <Gold.Chemscore.Metal.Weighted>
-0.0000

> <Gold.Chemscore.Lipo.Weighted>
-12.2066

> <Gold.Chemscore.Internal_Hbond.Weighted>
0.0000

> <Gold.Chemscore.DEClash.Weighted>
0.2401

> <Gold.Chemscore.DEInternal.Weighted>
1.8311

> <Gold.Chemscore.Rot.Weighted>
5.9238

> <Gold.Chemscore.Internal.Correction.Weighted>
   9.000000E+99

> <Gold.Protein.RotatedTorsions>
[ 6907 6896 6895 6894 ] final  124.33 input  -60.11 | X-H torsion
[ 7974 7965 7964 7962 ] final   31.81 input  175.53 | X-H torsion
[ 8008 7997 7996 7995 ] final   88.99 input   59.86 | X-H torsion
[ 10167 10162 10161 10158 ] final  -36.03 input  -65.29 | X-H torsion
[ 10718 10713 10712 10709 ] final -143.95 input   66.30 | X-H torsion
[ 10763 10752 10751 10750 ] final  151.39 input  -60.55 | X-H torsion
[ 11005 11000 10999 10996 ] final  -90.16 input  -57.11 | X-H torsion

> <Gold.Protein.ActiveResidues>
 VAL166  LYS551  ARG553  GLY616  TRP617  ASP618  TYR619  PRO620  LYS621  CYS622 
 ASP623  PHE694  ASN695  SER759  ASP760  ASP761  ALA762  ILE779  LEU786  VAL792 
 PHE793  MET794  SER795  GLU796  ALA797  LYS798  CYS799  TRP800  GLU811  SER814 

> <Gold.Protein.RotatedAtoms>
  152.4087  133.6929  159.6378 H   0  0  0  0  0  0  0  0  0  0  0  0  # atno 6907 bound_to 6896
  150.7969  133.8663  159.3255 H   0  0  0  0  0  0  0  0  0  0  0  0  # atno 6908 bound_to 6896
  151.6411  135.1014  160.0193 H   0  0  0  0  0  0  0  0  0  0  0  0  # atno 6909 bound_to 6896
  146.1526  139.6608  142.9088 H   0  0  0  0  0  0  0  0  0  0  0  0  # atno 7974 bound_to 7965
  155.9945  140.3365  155.6785 H   0  0  0  0  0  0  0  0  0  0  0  0  # atno 8008 bound_to 7997
  155.6376  140.0691  157.2647 H   0  0  0  0  0  0  0  0  0  0  0  0  # atno 8009 bound_to 7997
  154.4229  140.1748  156.1526 H   0  0  0  0  0  0  0  0  0  0  0  0  # atno 8010 bound_to 7997
  140.7152  143.3436  151.2304 H   0  0  0  0  0  0  0  0  0  0  0  0  # atno 10167 bound_to 10162
  156.3642  130.7754  151.1926 H   0  0  0  0  0  0  0  0  0  0  0  0  # atno 10718 bound_to 10713
  154.1029  135.2844  155.3247 H   0  0  0  0  0  0  0  0  0  0  0  0  # atno 10763 bound_to 10752
  154.6543  135.5358  153.7942 H   0  0  0  0  0  0  0  0  0  0  0  0  # atno 10764 bound_to 10752
  153.0372  135.6518  154.1192 H   0  0  0  0  0  0  0  0  0  0  0  0  # atno 10765 bound_to 10752
  141.1571  133.7675  156.9698 H   0  0  0  0  0  0  0  0  0  0  0  0  # atno 11005 bound_to 11000
  145.4785  141.0437  143.2659 LP  0  0  0  0  0  0  0  0  0  0  0  0  # atno 17320 bound_to 7965
  144.7923  139.6303  143.7108 LP  0  0  0  0  0  0  0  0  0  0  0  0  # atno 17321 bound_to 7965
  139.6950  143.9628  152.2878 LP  0  0  0  0  0  0  0  0  0  0  0  0  # atno 17342 bound_to 10162
  139.9302  144.6746  150.8370 LP  0  0  0  0  0  0  0  0  0  0  0  0  # atno 17343 bound_to 10162
  157.7477  131.0391  150.4535 LP  0  0  0  0  0  0  0  0  0  0  0  0  # atno 17370 bound_to 10713
  156.4751  130.4061  149.6495 LP  0  0  0  0  0  0  0  0  0  0  0  0  # atno 17371 bound_to 10713
  140.1137  134.9461  157.2103 LP  0  0  0  0  0  0  0  0  0  0  0  0  # atno 17394 bound_to 11000
  140.3161  134.2969  155.7256 LP  0  0  0  0  0  0  0  0  0  0  0  0  # atno 17395 bound_to 11000

$$$$
