AV-unprocessed.smi:2196|AV-procd|sdf|8908|dock7
  -GOLD-   2272012123D 1   1.00000     0.00000
 Structure written by MMmdl.
 45 46  0  0  0  0  0  0  0  0  1 V2000
  148.0159  141.7013  155.1088 C   0  0  0  0  0  0  0  0  0  0  0  0
  148.2792  141.6439  156.6193 C   0  0  0  0  0  0  0  0  0  0  0  0
  149.6346  141.1957  156.9275 N   0  0  0  0  0  0  0  0  0  0  0  0
  150.7263  142.0395  156.4408 C   0  0  0  0  0  0  0  0  0  0  0  0
  151.2829  142.9886  157.4876 C   0  0  0  0  0  0  0  0  0  0  0  0
  151.3025  142.6079  158.8456 C   0  0  0  0  0  0  0  0  0  0  0  0
  151.8452  143.4734  159.8152 C   0  0  0  0  0  0  0  0  0  0  0  0
  152.3711  144.7215  159.4295 C   0  0  0  0  0  0  0  0  0  0  0  0
  152.3546  145.1040  158.0743 C   0  0  0  0  0  0  0  0  0  0  0  0
  151.8115  144.2392  157.1045 C   0  0  0  0  0  0  0  0  0  0  0  0
  149.8715  139.9754  157.5612 C   0  0  0  0  0  0  0  0  0  0  0  0
  148.8849  139.0931  157.8977 C   0  0  0  0  0  0  0  0  0  0  0  0
  147.5584  139.4077  157.6472 N   0  0  0  0  0  0  0  0  0  0  0  0
  149.1666  137.8598  158.4920 N   0  0  0  0  0  0  0  0  0  0  0  0
  148.1515  136.8862  158.8399 C   0  0  0  0  0  0  0  0  0  0  0  0
  148.0476  136.6643  160.3558 C   0  0  0  0  0  0  0  0  0  0  0  0
  147.1761  135.5736  160.5991 O   0  0  0  0  0  0  0  0  0  0  0  0
  147.1116  135.2278  161.9715 C   0  0  0  0  0  0  0  0  0  0  0  0
  150.5081  137.4751  158.7249 C   0  0  0  0  0  0  0  0  0  0  0  0
  150.8318  136.3865  159.2010 O   0  0  0  0  0  0  0  0  0  0  0  0
  151.4962  138.3912  158.3848 N   0  0  0  0  0  0  0  0  0  0  0  0
  151.2795  139.6425  157.8141 C   0  0  0  0  0  0  0  0  0  0  0  0
  152.2452  140.3593  157.5528 O   0  0  0  0  0  0  0  0  0  0  0  0
  152.4540  138.1221  158.5559 H   0  0  0  0  0  0  0  0  0  0  0  0
  146.9913  142.0141  154.9074 H   0  0  0  0  0  0  0  0  0  0  0  0
  148.1613  140.7238  154.6482 H   0  0  0  0  0  0  0  0  0  0  0  0
  148.6801  142.4090  154.6123 H   0  0  0  0  0  0  0  0  0  0  0  0
  148.1120  142.6238  157.0679 H   0  0  0  0  0  0  0  0  0  0  0  0
  147.5529  140.9732  157.0807 H   0  0  0  0  0  0  0  0  0  0  0  0
  151.5252  141.4095  156.0497 H   0  0  0  0  0  0  0  0  0  0  0  0
  150.3861  142.6422  155.5975 H   0  0  0  0  0  0  0  0  0  0  0  0
  150.9098  141.6468  159.1439 H   0  0  0  0  0  0  0  0  0  0  0  0
  151.8616  143.1778  160.8538 H   0  0  0  0  0  0  0  0  0  0  0  0
  152.7896  145.3839  160.1727 H   0  0  0  0  0  0  0  0  0  0  0  0
  152.7615  146.0595  157.7780 H   0  0  0  0  0  0  0  0  0  0  0  0
  151.8110  144.5344  156.0655 H   0  0  0  0  0  0  0  0  0  0  0  0
  147.2959  140.2828  157.2170 H   0  0  0  0  0  0  0  0  0  0  0  0
  146.8019  138.8096  157.9471 H   0  0  0  0  0  0  0  0  0  0  0  0
  147.2034  137.2081  158.4056 H   0  0  0  0  0  0  0  0  0  0  0  0
  148.4015  135.9631  158.3179 H   0  0  0  0  0  0  0  0  0  0  0  0
  149.0338  136.4533  160.7729 H   0  0  0  0  0  0  0  0  0  0  0  0
  147.6677  137.5620  160.8462 H   0  0  0  0  0  0  0  0  0  0  0  0
  146.4308  134.3874  162.1062 H   0  0  0  0  0  0  0  0  0  0  0  0
  146.7410  136.0603  162.5709 H   0  0  0  0  0  0  0  0  0  0  0  0
  148.0909  134.9321  162.3500 H   0  0  0  0  0  0  0  0  0  0  0  0
  1  2  1  0  0  0  0
  1 25  1  0  0  0  0
  1 26  1  0  0  0  0
  1 27  1  0  0  0  0
  2  3  1  0  0  0  0
  2 28  1  0  0  0  0
  2 29  1  0  0  0  0
  3  4  1  0  0  0  0
  3 11  1  0  0  0  0
  4  5  1  0  0  0  0
  4 30  1  0  0  0  0
  4 31  1  0  0  0  0
  5 10  1  0  0  0  0
  5  6  2  0  0  0  0
  6  7  1  0  0  0  0
  6 32  1  0  0  0  0
  7  8  2  0  0  0  0
  7 33  1  0  0  0  0
  8  9  1  0  0  0  0
  8 34  1  0  0  0  0
  9 10  2  0  0  0  0
  9 35  1  0  0  0  0
 10 36  1  0  0  0  0
 11 22  1  0  0  0  0
 11 12  2  0  0  0  0
 12 13  1  0  0  0  0
 12 14  1  0  0  0  0
 13 37  1  0  0  0  0
 13 38  1  0  0  0  0
 14 15  1  0  0  0  0
 14 19  1  0  0  0  0
 15 16  1  0  0  0  0
 15 39  1  0  0  0  0
 15 40  1  0  0  0  0
 16 17  1  0  0  0  0
 16 41  1  0  0  0  0
 16 42  1  0  0  0  0
 17 18  1  0  0  0  0
 18 43  1  0  0  0  0
 18 44  1  0  0  0  0
 18 45  1  0  0  0  0
 19 20  2  0  0  0  0
 19 21  1  0  0  0  0
 21 24  1  0  0  0  0
 21 22  1  0  0  0  0
 22 23  2  0  0  0  0
M  END
> <s_m_source_file>
AV-unprocessed.smi

> <i_m_source_file_index>
2196

> <i_lp_mmshare_version>
43012

> <i_f3d_flags>
0

> <s_epik_input>
W0NIM11PW0NIMl1bQ0gyXW4oYyg9TylbbkhdYzE9TyljKFtOSDJdKWMxTihbQ0gyXVtDSDNdKVtDSDJdYzJbY0hdW2NIXVtjSF1bY0hdW2NIXTI=

> <s_epik_cmdline>
J2VwaWtfcHl0aG9uJywgJy1waCcsICc3LjAnLCAnLXRuJywgJzgnLCAnLW1hJywgJzIwMCcsICctbWV0YWxfYmluZGluZycsICctaW1hZScsICc8aW5maWxlLm1hZT4nLCAnLW9tYWUnLCAnPG91dGZpbGUubWFlPic=

> <r_lp_tautomer_probability>
1

> <r_epik_Ionization_Penalty>
0.000571321

> <r_epik_Ionization_Penalty_Charging>
3.00664e-06

> <r_epik_Ionization_Penalty_Neutral>
0.000568314

> <r_epik_State_Penalty>
-0

> <r_epik_Charging_Adjusted_Penalty>
3.00664e-06

> <i_epik_Tot_Q>
0

> <i_epik_Tot_abs_Q>
0

> <r_epik_Metal_State_Penalty>
-0

> <b_epik_Metal_Only>
0

> <s_lp_Force_Field>
OPLS_2005

> <r_lp_Energy>
20.6449

> <b_lp_Chiralities_Consistent>
1

> <s_lp_Variant>
AV-unprocessed.smi:2196-1

> <Gold.Version>
5.8.1

> <Gold.Id.Protein>
6NUR|6NUR_protein|mol2

> <Gold.PLP.Fitness>
41.8792

> <Gold.PLP.PLP>
-39.8783

> <Gold.PLP.part.hbond>
-1.0912

> <Gold.PLP.part.metal>
0.0000

> <Gold.PLP.part.buried>
-6.0412

> <Gold.PLP.part.nonpolar>
-32.4104

> <Gold.PLP.part.repulsive>
0.1790

> <Gold.PLP.ligand.clash>
21.3695

> <Gold.PLP.ligand.torsion>
0.8149

> <Gold.PLP.Chemscore.Hbond>
1.1718

> <Gold.PLP.Chemscore.CHOScore>
0.0000

> <Gold.PLP.Chemscore.Metal>
0.0000

> <Gold.Chemscore.Hbonds>
donor molecule, donor type, donor heavy atom, donor atom, acceptor molecule, acceptor atom, score
      P1  H  6896  6909       L1    20  0.72
      P1  H  7997  8009       L1    23  0.27

> <Gold.PLP.Chemscore.Internal.Correction>
21.4847

> <Gold.Rescore>
     Score         DG    S(hbond)    S(metal)    S(lipo)     H(rot)  DE(clash)    DE(int)     intcor
     10.30     -17.59       1.47        0.00     106.71       2.06       0.28       7.01       ----

> <Gold.Chemscore.Fitness>
10.2967

> <Gold.Chemscore.DG>
-17.5934

> <Gold.Chemscore.ZeroCoef>
-5.4800

> <Gold.Chemscore.Hbond>
1.4655

> <Gold.Chemscore.Metal>
0.0000

> <Gold.Chemscore.Lipo>
106.7081

> <Gold.Chemscore.Internal_Hbond>
0.0000

> <Gold.Chemscore.DEClash>
0.2831

> <Gold.Chemscore.DEInternal>
7.0136

> <Gold.Chemscore.Rot>
2.0571

> <Gold.Chemscore.Internal.Correction>
   9.000000E+99

> <Gold.Chemscore.Hbonds>
donor molecule, donor type, donor heavy atom, donor atom, acceptor molecule, acceptor atom, score
      P1  H  6896  6909       L1    20  0.71
      P1  H  7997  8009       L1    23  0.25

> <Gold.Chemscore.Hbond.Weighted>
-4.8947

> <Gold.Chemscore.Metal.Weighted>
-0.0000

> <Gold.Chemscore.Lipo.Weighted>
-12.4848

> <Gold.Chemscore.Internal_Hbond.Weighted>
0.0000

> <Gold.Chemscore.DEClash.Weighted>
0.2831

> <Gold.Chemscore.DEInternal.Weighted>
7.0136

> <Gold.Chemscore.Rot.Weighted>
5.2661

> <Gold.Chemscore.Internal.Correction.Weighted>
   9.000000E+99

> <Gold.Protein.RotatedTorsions>
[ 6907 6896 6895 6894 ] final   66.13 input  -60.11 | X-H torsion
[ 7974 7965 7964 7962 ] final  -64.20 input  175.53 | X-H torsion
[ 8008 7997 7996 7995 ] final  177.24 input   59.86 | X-H torsion
[ 10167 10162 10161 10158 ] final   50.11 input  -65.29 | X-H torsion
[ 10718 10713 10712 10709 ] final -172.98 input   66.30 | X-H torsion
[ 10763 10752 10751 10750 ] final  -60.12 input  -60.55 | X-H torsion
[ 11005 11000 10999 10996 ] final  -13.32 input  -57.11 | X-H torsion

> <Gold.Protein.ActiveResidues>
 VAL166  LYS551  ARG553  GLY616  TRP617  ASP618  TYR619  PRO620  LYS621  CYS622 
 ASP623  PHE694  ASN695  SER759  ASP760  ASP761  ALA762  ILE779  LEU786  VAL792 
 PHE793  MET794  SER795  GLU796  ALA797  LYS798  CYS799  TRP800  GLU811  SER814 

> <Gold.Protein.RotatedAtoms>
  152.4458  134.5497  159.9862 H   0  0  0  0  0  0  0  0  0  0  0  0  # atno 6907 bound_to 6896
  151.5582  133.3401  159.2974 H   0  0  0  0  0  0  0  0  0  0  0  0  # atno 6908 bound_to 6896
  150.8374  134.7686  159.6968 H   0  0  0  0  0  0  0  0  0  0  0  0  # atno 6909 bound_to 6896
  145.7696  140.8819  143.0387 H   0  0  0  0  0  0  0  0  0  0  0  0  # atno 7974 bound_to 7965
  156.0677  140.1363  156.9865 H   0  0  0  0  0  0  0  0  0  0  0  0  # atno 8008 bound_to 7997
  154.4515  140.0978  156.6684 H   0  0  0  0  0  0  0  0  0  0  0  0  # atno 8009 bound_to 7997
  155.5277  140.3458  155.4422 H   0  0  0  0  0  0  0  0  0  0  0  0  # atno 8010 bound_to 7997
  140.2759  144.3213  150.6277 H   0  0  0  0  0  0  0  0  0  0  0  0  # atno 10167 bound_to 10162
  156.7635  130.9422  151.3118 H   0  0  0  0  0  0  0  0  0  0  0  0  # atno 10718 bound_to 10713
  154.2643  135.6302  153.5286 H   0  0  0  0  0  0  0  0  0  0  0  0  # atno 10763 bound_to 10752
  152.9890  135.5595  154.5669 H   0  0  0  0  0  0  0  0  0  0  0  0  # atno 10764 bound_to 10752
  154.5225  135.2883  155.1225 H   0  0  0  0  0  0  0  0  0  0  0  0  # atno 10765 bound_to 10752
  140.7749  133.8409  155.9239 H   0  0  0  0  0  0  0  0  0  0  0  0  # atno 11005 bound_to 11000
  144.6815  139.9837  143.7483 LP  0  0  0  0  0  0  0  0  0  0  0  0  # atno 17320 bound_to 7965
  146.0183  139.3228  143.0828 LP  0  0  0  0  0  0  0  0  0  0  0  0  # atno 17321 bound_to 7965
  140.5852  143.2170  151.7355 LP  0  0  0  0  0  0  0  0  0  0  0  0  # atno 17342 bound_to 10162
  139.4976  144.4021  152.0170 LP  0  0  0  0  0  0  0  0  0  0  0  0  # atno 17343 bound_to 10162
  157.6724  130.9063  150.0070 LP  0  0  0  0  0  0  0  0  0  0  0  0  # atno 17370 bound_to 10713
  156.1324  130.3643  149.9711 LP  0  0  0  0  0  0  0  0  0  0  0  0  # atno 17371 bound_to 10713
  140.9539  134.1744  157.4707 LP  0  0  0  0  0  0  0  0  0  0  0  0  # atno 17394 bound_to 11000
  139.8750  134.9919  156.5572 LP  0  0  0  0  0  0  0  0  0  0  0  0  # atno 17395 bound_to 11000

$$$$
