AV-unprocessed.smi:1762|AV-procd|sdf|7104|dock9
  -GOLD-   22720 8323D 1   1.00000     0.00000
 Structure written by MMmdl.
 52 53  0  0  0  0  0  0  0  0  1 V2000
  150.5243  136.7865  157.3411 C   0  0  0  0  0  0  0  0  0  0  0  0
  150.6349  136.4768  155.8377 C   0  0  1  0  0  0  0  0  0  0  0  0
  149.4413  137.0041  155.0173 C   0  0  0  0  0  0  0  0  0  0  0  0
  149.4580  138.4663  154.8324 N   0  0  0  0  0  0  0  0  0  0  0  0
  148.3015  138.9980  154.0577 C   0  0  1  0  0  0  0  0  0  0  0  0
  147.0334  138.1193  154.1767 C   0  0  0  0  0  0  0  0  0  0  0  0
  146.1956  138.3481  155.0501 O   0  0  0  0  0  0  0  0  0  0  0  0
  146.9172  137.1090  153.3002 N   0  0  0  0  0  0  0  0  0  0  0  0
  145.8000  136.1745  153.2428 C   0  0  0  0  0  0  0  0  0  0  0  0
  145.1756  136.1265  151.8382 C   0  0  0  0  0  0  0  0  0  0  0  0
  145.2706  134.7469  151.2146 C   0  0  0  0  0  0  0  0  0  0  0  0
  144.1088  134.0656  150.7931 C   0  0  0  0  0  0  0  0  0  0  0  0
  144.2505  132.7835  150.2282 C   0  0  0  0  0  0  0  0  0  0  0  0
  145.5417  132.2343  150.1082 C   0  0  0  0  0  0  0  0  0  0  0  0
  146.6384  132.9948  150.5607 C   0  0  0  0  0  0  0  0  0  0  0  0
  146.5134  134.2249  151.1046 N   0  0  0  0  0  0  0  0  0  0  0  0
  147.9548  140.5008  154.3308 C   0  0  0  0  0  0  0  0  0  0  0  0
  147.0079  141.1217  153.2849 C   0  0  0  0  0  0  0  0  0  0  0  0
  149.1964  141.3948  154.5262 C   0  0  0  0  0  0  0  0  0  0  0  0
  150.7563  138.8449  154.2641 C   0  0  0  0  0  0  0  0  0  0  0  0
  151.9425  138.3557  155.1155 C   0  0  2  0  0  0  0  0  0  0  0  0
  153.2934  138.6770  154.4668 C   0  0  0  0  0  0  0  0  0  0  0  0
  151.8626  136.9445  155.2846 O   0  0  0  0  0  0  0  0  0  0  0  0
  149.6410  136.3122  157.7695 H   0  0  0  0  0  0  0  0  0  0  0  0
  150.4427  137.8557  157.5358 H   0  0  0  0  0  0  0  0  0  0  0  0
  151.3941  136.4123  157.8810 H   0  0  0  0  0  0  0  0  0  0  0  0
  150.6535  135.3909  155.7404 H   0  0  0  0  0  0  0  0  0  0  0  0
  149.4438  136.5183  154.0399 H   0  0  0  0  0  0  0  0  0  0  0  0
  148.5361  136.6679  155.5216 H   0  0  0  0  0  0  0  0  0  0  0  0
  148.5891  138.9517  153.0051 H   0  0  0  0  0  0  0  0  0  0  0  0
  147.6527  136.9848  152.6197 H   0  0  0  0  0  0  0  0  0  0  0  0
  146.1722  135.1881  153.5198 H   0  0  0  0  0  0  0  0  0  0  0  0
  145.0479  136.4433  153.9866 H   0  0  0  0  0  0  0  0  0  0  0  0
  144.1272  136.4248  151.8805 H   0  0  0  0  0  0  0  0  0  0  0  0
  145.6710  136.8459  151.1845 H   0  0  0  0  0  0  0  0  0  0  0  0
  143.1313  134.5124  150.9012 H   0  0  0  0  0  0  0  0  0  0  0  0
  143.3846  132.2315  149.8937 H   0  0  0  0  0  0  0  0  0  0  0  0
  145.6883  131.2539  149.6798 H   0  0  0  0  0  0  0  0  0  0  0  0
  147.6426  132.6049  150.4840 H   0  0  0  0  0  0  0  0  0  0  0  0
  147.4450  140.5542  155.2912 H   0  0  0  0  0  0  0  0  0  0  0  0
  147.4772  141.1972  152.3044 H   0  0  0  0  0  0  0  0  0  0  0  0
  146.7112  142.1282  153.5807 H   0  0  0  0  0  0  0  0  0  0  0  0
  146.0948  140.5371  153.1729 H   0  0  0  0  0  0  0  0  0  0  0  0
  149.7542  141.5341  153.5997 H   0  0  0  0  0  0  0  0  0  0  0  0
  149.8752  140.9701  155.2664 H   0  0  0  0  0  0  0  0  0  0  0  0
  148.9082  142.3853  154.8794 H   0  0  0  0  0  0  0  0  0  0  0  0
  150.8447  138.4565  153.2480 H   0  0  0  0  0  0  0  0  0  0  0  0
  150.8494  139.9266  154.1959 H   0  0  0  0  0  0  0  0  0  0  0  0
  151.9112  138.8405  156.0917 H   0  0  0  0  0  0  0  0  0  0  0  0
  153.4160  139.7511  154.3257 H   0  0  0  0  0  0  0  0  0  0  0  0
  153.3876  138.1977  153.4919 H   0  0  0  0  0  0  0  0  0  0  0  0
  154.1166  138.3278  155.0906 H   0  0  0  0  0  0  0  0  0  0  0  0
  1  2  1  0  0  0  0
  1 24  1  0  0  0  0
  1 25  1  0  0  0  0
  1 26  1  0  0  0  0
  2 23  1  0  0  0  0
  2  3  1  0  0  0  0
  2 27  1  0  0  0  0
  3  4  1  0  0  0  0
  3 28  1  0  0  0  0
  3 29  1  0  0  0  0
  4  5  1  0  0  0  0
  4 20  1  0  0  0  0
  5  6  1  0  0  0  0
  5 17  1  0  0  0  0
  5 30  1  0  0  0  0
  6  7  2  0  0  0  0
  6  8  1  0  0  0  0
  8  9  1  0  0  0  0
  8 31  1  0  0  0  0
  9 10  1  0  0  0  0
  9 32  1  0  0  0  0
  9 33  1  0  0  0  0
 10 11  1  0  0  0  0
 10 34  1  0  0  0  0
 10 35  1  0  0  0  0
 11 16  1  0  0  0  0
 11 12  2  0  0  0  0
 12 13  1  0  0  0  0
 12 36  1  0  0  0  0
 13 14  2  0  0  0  0
 13 37  1  0  0  0  0
 14 15  1  0  0  0  0
 14 38  1  0  0  0  0
 15 16  2  0  0  0  0
 15 39  1  0  0  0  0
 17 18  1  0  0  0  0
 17 19  1  0  0  0  0
 17 40  1  0  0  0  0
 18 41  1  0  0  0  0
 18 42  1  0  0  0  0
 18 43  1  0  0  0  0
 19 44  1  0  0  0  0
 19 45  1  0  0  0  0
 19 46  1  0  0  0  0
 20 21  1  0  0  0  0
 20 47  1  0  0  0  0
 20 48  1  0  0  0  0
 21 22  1  0  0  0  0
 21 23  1  0  0  0  0
 21 49  1  0  0  0  0
 22 50  1  0  0  0  0
 22 51  1  0  0  0  0
 22 52  1  0  0  0  0
M  END
> <s_m_source_file>
AV-unprocessed.smi

> <i_m_source_file_index>
1762

> <i_lp_mmshare_version>
43012

> <i_f3d_flags>
0

> <s_epik_input>
W0NIM11bQ0BASF0xW0NIMl1OKFtDSDJdW0NASF0oTzEpW0NIM10pW0NAQEhdKFtDSF0oW0NIM10pW0NIM10pQyg9TylbTkhdW0NIMl1bQ0gyXWMyW2NIXVtjSF1bY0hdW2NIXW4y

> <s_epik_cmdline>
J2VwaWtfcHl0aG9uJywgJy1waCcsICc3LjAnLCAnLXRuJywgJzgnLCAnLW1hJywgJzIwMCcsICctbWV0YWxfYmluZGluZycsICctaW1hZScsICc8aW5maWxlLm1hZT4nLCAnLW9tYWUnLCAnPG91dGZpbGUubWFlPic=

> <r_epik_Ionization_Penalty>
0.0399736

> <r_epik_Ionization_Penalty_Charging>
0

> <r_epik_Ionization_Penalty_Neutral>
0.0399736

> <r_epik_State_Penalty>
0.0317634

> <r_epik_Charging_Adjusted_Penalty>
0.0317634

> <i_epik_Tot_Q>
0

> <i_epik_Tot_abs_Q>
0

> <r_epik_Metal_State_Penalty>
0.0307795

> <b_epik_Metal_Only>
0

> <s_lp_Force_Field>
OPLS_2005

> <r_lp_Energy>
30.2117

> <b_lp_Chiralities_Consistent>
1

> <s_lp_Variant>
AV-unprocessed.smi:1762-6

> <Gold.Version>
5.8.1

> <Gold.Id.Protein>
6NUR|6NUR_protein|mol2

> <Gold.PLP.Fitness>
44.7071

> <Gold.PLP.PLP>
-39.1271

> <Gold.PLP.part.hbond>
-2.0000

> <Gold.PLP.part.metal>
0.0000

> <Gold.PLP.part.buried>
-5.4039

> <Gold.PLP.part.nonpolar>
-31.6087

> <Gold.PLP.part.repulsive>
0.5023

> <Gold.PLP.ligand.clash>
0.0000

> <Gold.PLP.ligand.torsion>
1.8802

> <Gold.PLP.Chemscore.Hbond>
2.0000

> <Gold.PLP.Chemscore.CHOScore>
1.0000

> <Gold.PLP.Chemscore.Metal>
0.0000

> <Gold.Chemscore.Hbonds>
donor molecule, donor type, donor heavy atom, donor atom, acceptor molecule, acceptor atom, score
      L1  H     8    31       P1  7948  1.00
      P1  H 10752 10763       L1    23  1.00
      L1  C    15    39       P1 10747  1.00

> <Gold.PLP.Chemscore.Internal.Correction>
0.3403

> <Gold.Rescore>
     Score         DG    S(hbond)    S(metal)    S(lipo)     H(rot)  DE(clash)    DE(int)     intcor
     18.07     -20.80       1.94        0.00     110.70       1.60       0.08       2.65       ----

> <Gold.Chemscore.Fitness>
18.0701

> <Gold.Chemscore.DG>
-20.8028

> <Gold.Chemscore.ZeroCoef>
-5.4800

> <Gold.Chemscore.Hbond>
1.9357

> <Gold.Chemscore.Metal>
0.0000

> <Gold.Chemscore.Lipo>
110.6987

> <Gold.Chemscore.Internal_Hbond>
0.0000

> <Gold.Chemscore.DEClash>
0.0814

> <Gold.Chemscore.DEInternal>
2.6513

> <Gold.Chemscore.Rot>
1.5993

> <Gold.Chemscore.Internal.Correction>
   9.000000E+99

> <Gold.Chemscore.Hbonds>
donor molecule, donor type, donor heavy atom, donor atom, acceptor molecule, acceptor atom, score
      L1  H     8    31       P1  7948  0.99
      P1  H 10752 10763       L1    23  0.82

> <Gold.Chemscore.Hbond.Weighted>
-6.4651

> <Gold.Chemscore.Metal.Weighted>
-0.0000

> <Gold.Chemscore.Lipo.Weighted>
-12.9517

> <Gold.Chemscore.Internal_Hbond.Weighted>
0.0000

> <Gold.Chemscore.DEClash.Weighted>
0.0814

> <Gold.Chemscore.DEInternal.Weighted>
2.6513

> <Gold.Chemscore.Rot.Weighted>
4.0941

> <Gold.Chemscore.Internal.Correction.Weighted>
   9.000000E+99

> <Gold.Protein.RotatedTorsions>
[ 6907 6896 6895 6894 ] final -100.68 input  -60.11 | X-H torsion
[ 7974 7965 7964 7962 ] final -139.79 input  175.53 | X-H torsion
[ 8008 7997 7996 7995 ] final   84.02 input   59.86 | X-H torsion
[ 10167 10162 10161 10158 ] final -176.03 input  -65.29 | X-H torsion
[ 10718 10713 10712 10709 ] final -169.99 input   66.30 | X-H torsion
[ 10763 10752 10751 10750 ] final   72.60 input  -60.55 | X-H torsion
[ 11005 11000 10999 10996 ] final  135.47 input  -57.11 | X-H torsion

> <Gold.Protein.ActiveResidues>
 VAL166  LYS551  ARG553  GLY616  TRP617  ASP618  TYR619  PRO620  LYS621  CYS622 
 ASP623  PHE694  ASN695  SER759  ASP760  ASP761  ALA762  ILE779  LEU786  VAL792 
 PHE793  MET794  SER795  GLU796  ALA797  LYS798  CYS799  TRP800  GLU811  SER814 

> <Gold.Protein.RotatedAtoms>
  150.7125  134.0850  159.3911 H   0  0  0  0  0  0  0  0  0  0  0  0  # atno 6907 bound_to 6896
  151.8835  135.0442  160.0500 H   0  0  0  0  0  0  0  0  0  0  0  0  # atno 6908 bound_to 6896
  152.2549  133.5211  159.5383 H   0  0  0  0  0  0  0  0  0  0  0  0  # atno 6909 bound_to 6896
  144.8648  140.6276  143.5305 H   0  0  0  0  0  0  0  0  0  0  0  0  # atno 7974 bound_to 7965
  155.9316  140.3414  155.6253 H   0  0  0  0  0  0  0  0  0  0  0  0  # atno 8008 bound_to 7997
  155.7151  140.0776  157.2373 H   0  0  0  0  0  0  0  0  0  0  0  0  # atno 8009 bound_to 7997
  154.4086  140.1615  156.2327 H   0  0  0  0  0  0  0  0  0  0  0  0  # atno 8010 bound_to 7997
  139.5550  144.2011  152.1144 H   0  0  0  0  0  0  0  0  0  0  0  0  # atno 10167 bound_to 10162
  156.7196  130.9265  151.3096 H   0  0  0  0  0  0  0  0  0  0  0  0  # atno 10718 bound_to 10713
  153.0469  135.5094  154.7769 H   0  0  0  0  0  0  0  0  0  0  0  0  # atno 10763 bound_to 10752
  154.6662  135.2946  154.9805 H   0  0  0  0  0  0  0  0  0  0  0  0  # atno 10764 bound_to 10752
  154.0639  135.6687  153.4868 H   0  0  0  0  0  0  0  0  0  0  0  0  # atno 10765 bound_to 10752
  139.9982  134.9489  157.0012 H   0  0  0  0  0  0  0  0  0  0  0  0  # atno 11005 bound_to 11000
  145.4242  139.1559  143.4057 LP  0  0  0  0  0  0  0  0  0  0  0  0  # atno 17320 bound_to 7965
  146.2888  140.4354  142.8747 LP  0  0  0  0  0  0  0  0  0  0  0  0  # atno 17321 bound_to 7965
  140.1514  144.5111  150.6685 LP  0  0  0  0  0  0  0  0  0  0  0  0  # atno 17342 bound_to 10162
  140.6821  143.2332  151.5356 LP  0  0  0  0  0  0  0  0  0  0  0  0  # atno 17343 bound_to 10162
  157.6903  130.9227  150.0497 LP  0  0  0  0  0  0  0  0  0  0  0  0  # atno 17370 bound_to 10713
  156.1604  130.3644  149.9308 LP  0  0  0  0  0  0  0  0  0  0  0  0  # atno 17371 bound_to 10713
  140.4778  134.1321  155.7212 LP  0  0  0  0  0  0  0  0  0  0  0  0  # atno 17394 bound_to 11000
  141.1621  133.8773  157.1818 LP  0  0  0  0  0  0  0  0  0  0  0  0  # atno 17395 bound_to 11000

$$$$
