AV-unprocessed.smi:2274|AV-procd|sdf|9169|dock1
  -GOLD-   2272012383D 1   1.00000     0.00000
 Structure written by MMmdl.
 47 48  0  0  0  0  0  0  0  0  1 V2000
  150.6586  141.9153  157.5526 C   0  0  0  0  0  0  0  0  0  0  0  0
  151.1655  141.4435  156.1800 C   0  0  0  0  0  0  0  0  0  0  0  0
  150.1132  140.9228  155.3153 N   0  0  0  0  0  0  0  0  0  0  0  0
  149.0407  141.7041  155.0299 N   0  0  0  0  0  0  0  0  0  0  0  0
  148.2463  140.9596  154.2803 C   0  0  0  0  0  0  0  0  0  0  0  0
  146.9501  141.5261  153.7767 C   0  0  0  0  0  0  0  0  0  0  0  0
  148.8134  139.6760  154.0679 C   0  0  0  0  0  0  0  0  0  0  0  0
  148.1891  138.6361  153.3344 N   0  0  0  0  0  0  0  0  0  0  0  0
  146.8792  138.3463  153.3075 C   0  0  0  0  0  0  0  0  0  0  0  0
  146.0141  138.9378  153.9533 O   0  0  0  0  0  0  0  0  0  0  0  0
  146.6243  137.3114  152.4951 N   0  0  0  0  0  0  0  0  0  0  0  0
  145.3014  136.7553  152.2359 C   0  0  0  0  0  0  0  0  0  0  0  0
  145.2960  135.8709  150.9768 C   0  0  0  0  0  0  0  0  0  0  0  0
  145.1571  134.3742  151.2963 C   0  0  1  0  0  0  0  0  0  0  0  0
  144.4148  133.6144  150.1792 C   0  0  0  0  0  0  0  0  0  0  0  0
  144.3659  132.1136  150.4876 C   0  0  0  0  0  0  0  0  0  0  0  0
  145.7822  131.5978  150.7619 C   0  0  0  0  0  0  0  0  0  0  0  0
  146.4597  132.4533  151.8437 C   0  0  0  0  0  0  0  0  0  0  0  0
  146.4636  133.8216  151.4475 O   0  0  0  0  0  0  0  0  0  0  0  0
  149.9831  139.6482  154.7813 C   0  0  0  0  0  0  0  0  0  0  0  0
  150.9806  138.5611  155.0393 C   0  0  0  0  0  0  0  0  0  0  0  0
  151.4709  142.3542  158.1319 H   0  0  0  0  0  0  0  0  0  0  0  0
  150.2506  141.0903  158.1374 H   0  0  0  0  0  0  0  0  0  0  0  0
  149.8806  142.6718  157.4461 H   0  0  0  0  0  0  0  0  0  0  0  0
  151.6490  142.2825  155.6799 H   0  0  0  0  0  0  0  0  0  0  0  0
  151.9215  140.6674  156.3031 H   0  0  0  0  0  0  0  0  0  0  0  0
  146.2841  140.7403  153.4201 H   0  0  0  0  0  0  0  0  0  0  0  0
  147.1222  142.2152  152.9499 H   0  0  0  0  0  0  0  0  0  0  0  0
  146.4252  142.0710  154.5617 H   0  0  0  0  0  0  0  0  0  0  0  0
  148.8080  137.9936  152.8618 H   0  0  0  0  0  0  0  0  0  0  0  0
  147.4000  136.8832  152.0112 H   0  0  0  0  0  0  0  0  0  0  0  0
  145.0103  136.1685  153.1073 H   0  0  0  0  0  0  0  0  0  0  0  0
  144.5687  137.5586  152.1438 H   0  0  0  0  0  0  0  0  0  0  0  0
  144.4697  136.1734  150.3321 H   0  0  0  0  0  0  0  0  0  0  0  0
  146.2084  136.0383  150.4029 H   0  0  0  0  0  0  0  0  0  0  0  0
  144.6086  134.2634  152.2338 H   0  0  0  0  0  0  0  0  0  0  0  0
  143.4024  134.0032  150.0642 H   0  0  0  0  0  0  0  0  0  0  0  0
  144.9209  133.7733  149.2261 H   0  0  0  0  0  0  0  0  0  0  0  0
  143.7351  131.9373  151.3599 H   0  0  0  0  0  0  0  0  0  0  0  0
  143.9152  131.5679  149.6582 H   0  0  0  0  0  0  0  0  0  0  0  0
  145.7511  130.5521  151.0689 H   0  0  0  0  0  0  0  0  0  0  0  0
  146.3711  131.6385  149.8449 H   0  0  0  0  0  0  0  0  0  0  0  0
  145.9520  132.3432  152.8033 H   0  0  0  0  0  0  0  0  0  0  0  0
  147.4893  132.1262  151.9899 H   0  0  0  0  0  0  0  0  0  0  0  0
  150.5295  137.5766  154.9193 H   0  0  0  0  0  0  0  0  0  0  0  0
  151.3669  138.6103  156.0572 H   0  0  0  0  0  0  0  0  0  0  0  0
  151.8220  138.6362  154.3503 H   0  0  0  0  0  0  0  0  0  0  0  0
  1  2  1  0  0  0  0
  1 22  1  0  0  0  0
  1 23  1  0  0  0  0
  1 24  1  0  0  0  0
  2  3  1  0  0  0  0
  2 25  1  0  0  0  0
  2 26  1  0  0  0  0
  3 20  1  0  0  0  0
  3  4  1  0  0  0  0
  4  5  2  0  0  0  0
  5  6  1  0  0  0  0
  5  7  1  0  0  0  0
  6 27  1  0  0  0  0
  6 28  1  0  0  0  0
  6 29  1  0  0  0  0
  7  8  1  0  0  0  0
  7 20  2  0  0  0  0
  8  9  1  0  0  0  0
  8 30  1  0  0  0  0
  9 10  2  0  0  0  0
  9 11  1  0  0  0  0
 11 12  1  0  0  0  0
 11 31  1  0  0  0  0
 12 13  1  0  0  0  0
 12 32  1  0  0  0  0
 12 33  1  0  0  0  0
 13 14  1  0  0  0  0
 13 34  1  0  0  0  0
 13 35  1  0  0  0  0
 14 19  1  0  0  0  0
 14 15  1  0  0  0  0
 14 36  1  0  0  0  0
 15 16  1  0  0  0  0
 15 37  1  0  0  0  0
 15 38  1  0  0  0  0
 16 17  1  0  0  0  0
 16 39  1  0  0  0  0
 16 40  1  0  0  0  0
 17 18  1  0  0  0  0
 17 41  1  0  0  0  0
 17 42  1  0  0  0  0
 18 19  1  0  0  0  0
 18 43  1  0  0  0  0
 18 44  1  0  0  0  0
 20 21  1  0  0  0  0
 21 45  1  0  0  0  0
 21 46  1  0  0  0  0
 21 47  1  0  0  0  0
M  END
> <s_m_source_file>
AV-unprocessed.smi

> <i_m_source_file_index>
2274

> <i_lp_mmshare_version>
43012

> <i_f3d_flags>
0

> <s_epik_input>
W0NIM11bQ0gyXW4xbmMoW0NIM10pYyhjMVtDSDNdKVtOSF1DKD1PKVtOSF1bQ0gyXVtDSDJdW0NAQEhdMltDSDJdW0NIMl1bQ0gyXVtDSDJdTzI=

> <s_epik_cmdline>
J2VwaWtfcHl0aG9uJywgJy1waCcsICc3LjAnLCAnLXRuJywgJzgnLCAnLW1hJywgJzIwMCcsICctbWV0YWxfYmluZGluZycsICctaW1hZScsICc8aW5maWxlLm1hZT4nLCAnLW9tYWUnLCAnPG91dGZpbGUubWFlPic=

> <r_lp_tautomer_probability>
1

> <r_epik_Ionization_Penalty>
0.00368263

> <r_epik_Ionization_Penalty_Charging>
0

> <r_epik_Ionization_Penalty_Neutral>
0.00368263

> <r_epik_State_Penalty>
0.00259417

> <r_epik_Charging_Adjusted_Penalty>
0.00259417

> <i_epik_Tot_Q>
0

> <i_epik_Tot_abs_Q>
0

> <r_epik_Metal_State_Penalty>
-0

> <b_epik_Metal_Only>
0

> <s_lp_Force_Field>
OPLS_2005

> <r_lp_Energy>
13.1283

> <b_lp_Chiralities_Consistent>
1

> <s_lp_Variant>
AV-unprocessed.smi:2274-2

> <Gold.Version>
5.8.1

> <Gold.Id.Protein>
6NUR|6NUR_protein|mol2

> <Gold.PLP.Fitness>
45.5504

> <Gold.PLP.PLP>
-41.6732

> <Gold.PLP.part.hbond>
-3.0000

> <Gold.PLP.part.metal>
0.0000

> <Gold.PLP.part.buried>
-5.2237

> <Gold.PLP.part.nonpolar>
-35.3030

> <Gold.PLP.part.repulsive>
0.8979

> <Gold.PLP.ligand.clash>
0.0000

> <Gold.PLP.ligand.torsion>
1.1530

> <Gold.PLP.Chemscore.Hbond>
1.9440

> <Gold.PLP.Chemscore.CHOScore>
0.0000

> <Gold.PLP.Chemscore.Metal>
0.0000

> <Gold.Chemscore.Hbonds>
donor molecule, donor type, donor heavy atom, donor atom, acceptor molecule, acceptor atom, score
      L1  H     8    30       P1  7948  0.94
      L1  H    11    31       P1  7948  1.00

> <Gold.PLP.Chemscore.Internal.Correction>
0.3511

> <Gold.Rescore>
     Score         DG    S(hbond)    S(metal)    S(lipo)     H(rot)  DE(clash)    DE(int)     intcor
     16.10     -19.48       1.88        0.00      98.09       1.46       0.20       3.18       ----

> <Gold.Chemscore.Fitness>
16.1017

> <Gold.Chemscore.DG>
-19.4841

> <Gold.Chemscore.ZeroCoef>
-5.4800

> <Gold.Chemscore.Hbond>
1.8763

> <Gold.Chemscore.Metal>
0.0000

> <Gold.Chemscore.Lipo>
98.0913

> <Gold.Chemscore.Internal_Hbond>
0.0000

> <Gold.Chemscore.DEClash>
0.2032

> <Gold.Chemscore.DEInternal>
3.1792

> <Gold.Chemscore.Rot>
1.4606

> <Gold.Chemscore.Internal.Correction>
   9.000000E+99

> <Gold.Chemscore.Hbonds>
donor molecule, donor type, donor heavy atom, donor atom, acceptor molecule, acceptor atom, score
      L1  H     8    30       P1  7948  0.87
      L1  H    11    31       P1  7948  0.99

> <Gold.Chemscore.Hbond.Weighted>
-6.2667

> <Gold.Chemscore.Metal.Weighted>
-0.0000

> <Gold.Chemscore.Lipo.Weighted>
-11.4767

> <Gold.Chemscore.Internal_Hbond.Weighted>
0.0000

> <Gold.Chemscore.DEClash.Weighted>
0.2032

> <Gold.Chemscore.DEInternal.Weighted>
3.1792

> <Gold.Chemscore.Rot.Weighted>
3.7393

> <Gold.Chemscore.Internal.Correction.Weighted>
   9.000000E+99

> <Gold.Protein.RotatedTorsions>
[ 6907 6896 6895 6894 ] final  113.73 input  -60.11 | X-H torsion
[ 7974 7965 7964 7962 ] final  -52.13 input  175.53 | X-H torsion
[ 8008 7997 7996 7995 ] final  -62.79 input   59.86 | X-H torsion
[ 10167 10162 10161 10158 ] final  -40.89 input  -65.29 | X-H torsion
[ 10718 10713 10712 10709 ] final   -4.75 input   66.30 | X-H torsion
[ 10763 10752 10751 10750 ] final -153.62 input  -60.55 | X-H torsion
[ 11005 11000 10999 10996 ] final  -88.92 input  -57.11 | X-H torsion

> <Gold.Protein.ActiveResidues>
 VAL166  LYS551  ARG553  GLY616  TRP617  ASP618  TYR619  PRO620  LYS621  CYS622 
 ASP623  PHE694  ASN695  SER759  ASP760  ASP761  ALA762  ILE779  LEU786  VAL792 
 PHE793  MET794  SER795  GLU796  ALA797  LYS798  CYS799  TRP800  GLU811  SER814 

> <Gold.Protein.RotatedAtoms>
  152.4844  133.8335  159.7115 H   0  0  0  0  0  0  0  0  0  0  0  0  # atno 6907 bound_to 6896
  150.8918  133.7223  159.2909 H   0  0  0  0  0  0  0  0  0  0  0  0  # atno 6908 bound_to 6896
  151.4693  135.1048  159.9799 H   0  0  0  0  0  0  0  0  0  0  0  0  # atno 6909 bound_to 6896
  145.9113  140.7912  142.9693 H   0  0  0  0  0  0  0  0  0  0  0  0  # atno 7974 bound_to 7965
  154.4518  140.0988  156.6641 H   0  0  0  0  0  0  0  0  0  0  0  0  # atno 8008 bound_to 7997
  155.5260  140.3480  155.4398 H   0  0  0  0  0  0  0  0  0  0  0  0  # atno 8009 bound_to 7997
  156.0697  140.1346  156.9832 H   0  0  0  0  0  0  0  0  0  0  0  0  # atno 8010 bound_to 7997
  140.7020  143.3127  151.2988 H   0  0  0  0  0  0  0  0  0  0  0  0  # atno 10167 bound_to 10162
  156.7566  130.5256  149.5793 H   0  0  0  0  0  0  0  0  0  0  0  0  # atno 10718 bound_to 10713
  154.7915  135.3208  154.7766 H   0  0  0  0  0  0  0  0  0  0  0  0  # atno 10763 bound_to 10752
  153.8454  135.6867  153.4802 H   0  0  0  0  0  0  0  0  0  0  0  0  # atno 10764 bound_to 10752
  153.1587  135.4669  154.9682 H   0  0  0  0  0  0  0  0  0  0  0  0  # atno 10765 bound_to 10752
  141.1593  133.7599  156.9521 H   0  0  0  0  0  0  0  0  0  0  0  0  # atno 11005 bound_to 11000
  144.6743  140.1831  143.7404 LP  0  0  0  0  0  0  0  0  0  0  0  0  # atno 17320 bound_to 7965
  145.8667  139.2251  143.1685 LP  0  0  0  0  0  0  0  0  0  0  0  0  # atno 17321 bound_to 7965
  139.6555  144.0284  152.2656 LP  0  0  0  0  0  0  0  0  0  0  0  0  # atno 17342 bound_to 10162
  139.9835  144.6412  150.7879 LP  0  0  0  0  0  0  0  0  0  0  0  0  # atno 17343 bound_to 10162
  156.1366  130.6215  151.0409 LP  0  0  0  0  0  0  0  0  0  0  0  0  # atno 17370 bound_to 10713
  157.6753  131.0852  150.7510 LP  0  0  0  0  0  0  0  0  0  0  0  0  # atno 17371 bound_to 10713
  140.1250  134.9393  157.2257 LP  0  0  0  0  0  0  0  0  0  0  0  0  # atno 17394 bound_to 11000
  140.3024  134.3116  155.7286 LP  0  0  0  0  0  0  0  0  0  0  0  0  # atno 17395 bound_to 11000

$$$$
