AV-unprocessed.smi:2917|AV-procd|sdf|11190|dock8
  -GOLD-   2272016 83D 1   1.00000     0.00000
 Structure written by MMmdl.
 34 35  0  0  0  0  0  0  0  0  1 V2000
  151.8844  146.0377  160.0999 C   0  0  0  0  0  0  0  0  0  0  0  0
  151.3880  144.7984  159.3243 C   0  0  0  0  0  0  0  0  0  0  0  0
  149.9225  144.8400  159.2009 N   0  0  0  0  0  0  0  0  0  0  0  0
  148.9958  144.5540  160.1309 C   0  0  0  0  0  0  0  0  0  0  0  0
  149.2584  144.1915  161.2769 O   0  0  0  0  0  0  0  0  0  0  0  0
  147.7564  144.7002  159.6322 N   0  0  0  0  0  0  0  0  0  0  0  0
  146.5108  144.4946  160.2850 C   0  0  0  0  0  0  0  0  0  0  0  0
  146.3723  143.9411  161.5810 C   0  0  0  0  0  0  0  0  0  0  0  0
  145.0818  143.8053  162.1277 C   0  0  0  0  0  0  0  0  0  0  0  0
  143.9789  144.2335  161.3639 C   0  0  0  0  0  0  0  0  0  0  0  0
  144.0969  144.7757  160.1336 N   0  0  0  0  0  0  0  0  0  0  0  0
  145.3375  144.9039  159.6164 C   0  0  0  0  0  0  0  0  0  0  0  0
  152.0799  144.7022  157.9422 C   0  0  0  0  0  0  0  0  0  0  0  0
  151.7804  143.3661  157.2388 C   0  0  0  0  0  0  0  0  0  0  0  0
  152.1836  142.2821  158.0674 O   0  0  0  0  0  0  0  0  0  0  0  0
  151.4828  142.2409  159.3047 C   0  0  0  0  0  0  0  0  0  0  0  0
  151.7603  143.5232  160.1120 C   0  0  0  0  0  0  0  0  0  0  0  0
  152.9566  145.9816  160.2901 H   0  0  0  0  0  0  0  0  0  0  0  0
  151.3860  146.1271  161.0659 H   0  0  0  0  0  0  0  0  0  0  0  0
  151.7084  146.9623  159.5506 H   0  0  0  0  0  0  0  0  0  0  0  0
  149.5769  145.1202  158.2949 H   0  0  0  0  0  0  0  0  0  0  0  0
  147.6973  144.9253  158.6499 H   0  0  0  0  0  0  0  0  0  0  0  0
  147.2231  143.6333  162.1685 H   0  0  0  0  0  0  0  0  0  0  0  0
  144.9413  143.3867  163.1131 H   0  0  0  0  0  0  0  0  0  0  0  0
  142.9759  144.1439  161.7543 H   0  0  0  0  0  0  0  0  0  0  0  0
  145.3937  145.3444  158.6314 H   0  0  0  0  0  0  0  0  0  0  0  0
  151.8000  145.5336  157.2959 H   0  0  0  0  0  0  0  0  0  0  0  0
  153.1597  144.7847  158.0745 H   0  0  0  0  0  0  0  0  0  0  0  0
  150.7213  143.2777  156.9918 H   0  0  0  0  0  0  0  0  0  0  0  0
  152.3289  143.3095  156.2984 H   0  0  0  0  0  0  0  0  0  0  0  0
  150.4147  142.1090  159.1254 H   0  0  0  0  0  0  0  0  0  0  0  0
  151.8164  141.3681  159.8660 H   0  0  0  0  0  0  0  0  0  0  0  0
  152.8214  143.5459  160.3652 H   0  0  0  0  0  0  0  0  0  0  0  0
  151.2233  143.4888  161.0611 H   0  0  0  0  0  0  0  0  0  0  0  0
  1  2  1  0  0  0  0
  1 18  1  0  0  0  0
  1 19  1  0  0  0  0
  1 20  1  0  0  0  0
  2 17  1  0  0  0  0
  2  3  1  0  0  0  0
  2 13  1  0  0  0  0
  3  4  1  0  0  0  0
  3 21  1  0  0  0  0
  4  5  2  0  0  0  0
  4  6  1  0  0  0  0
  6  7  1  0  0  0  0
  6 22  1  0  0  0  0
  7 12  1  0  0  0  0
  7  8  2  0  0  0  0
  8  9  1  0  0  0  0
  8 23  1  0  0  0  0
  9 10  2  0  0  0  0
  9 24  1  0  0  0  0
 10 11  1  0  0  0  0
 10 25  1  0  0  0  0
 11 12  2  0  0  0  0
 12 26  1  0  0  0  0
 13 14  1  0  0  0  0
 13 27  1  0  0  0  0
 13 28  1  0  0  0  0
 14 15  1  0  0  0  0
 14 29  1  0  0  0  0
 14 30  1  0  0  0  0
 15 16  1  0  0  0  0
 16 17  1  0  0  0  0
 16 31  1  0  0  0  0
 16 32  1  0  0  0  0
 17 33  1  0  0  0  0
 17 34  1  0  0  0  0
M  END
> <s_m_source_file>
AV-unprocessed.smi

> <i_m_source_file_index>
2917

> <i_lp_mmshare_version>
43012

> <i_f3d_flags>
0

> <s_epik_input>
W0NIMl0xW0NIMl1PW0NIMl1bQ0gyXUMxKFtDSDNdKVtOSF1DKD1PKVtOSF1jMltjSF1bY0hdW2NIXW5bY0hdMg==

> <s_epik_cmdline>
J2VwaWtfcHl0aG9uJywgJy1waCcsICc3LjAnLCAnLXRuJywgJzgnLCAnLW1hJywgJzIwMCcsICctbWV0YWxfYmluZGluZycsICctaW1hZScsICc8aW5maWxlLm1hZT4nLCAnLW9tYWUnLCAnPG91dGZpbGUubWFlPic=

> <r_epik_Ionization_Penalty>
0.00491607

> <r_epik_Ionization_Penalty_Charging>
0

> <r_epik_Ionization_Penalty_Neutral>
0.00491607

> <r_epik_State_Penalty>
0.00354213

> <r_epik_Charging_Adjusted_Penalty>
0.00354213

> <i_epik_Tot_Q>
0

> <i_epik_Tot_abs_Q>
0

> <r_epik_Metal_State_Penalty>
-0

> <b_epik_Metal_Only>
0

> <s_lp_Force_Field>
OPLS_2005

> <r_lp_Energy>
13.2781

> <b_lp_Chiralities_Consistent>
1

> <s_lp_Variant>
AV-unprocessed.smi:2917-1

> <Gold.Version>
5.8.1

> <Gold.Id.Protein>
6NUR|6NUR_protein|mol2

> <Gold.PLP.Fitness>
39.6931

> <Gold.PLP.PLP>
-33.4200

> <Gold.PLP.part.hbond>
-3.0000

> <Gold.PLP.part.metal>
0.0000

> <Gold.PLP.part.buried>
-3.1821

> <Gold.PLP.part.nonpolar>
-26.9851

> <Gold.PLP.part.repulsive>
0.6362

> <Gold.PLP.ligand.clash>
0.0000

> <Gold.PLP.ligand.torsion>
0.3964

> <Gold.PLP.Chemscore.Hbond>
2.1629

> <Gold.PLP.Chemscore.CHOScore>
0.1901

> <Gold.PLP.Chemscore.Metal>
0.0000

> <Gold.Chemscore.Hbonds>
donor molecule, donor type, donor heavy atom, donor atom, acceptor molecule, acceptor atom, score
      L1  H     3    21       P1  8029  0.70
      L1  H     6    22       P1  8029  1.00
      P1  H  6933  6944       L1     5  0.45
      L1  C    12    26       P1  8029  0.17

> <Gold.PLP.Chemscore.Internal.Correction>
0.0068

> <Gold.Rescore>
     Score         DG    S(hbond)    S(metal)    S(lipo)     H(rot)  DE(clash)    DE(int)     intcor
     18.26     -21.49       2.20        0.00      95.99       1.00       0.21       3.02       ----

> <Gold.Chemscore.Fitness>
18.2581

> <Gold.Chemscore.DG>
-21.4862

> <Gold.Chemscore.ZeroCoef>
-5.4800

> <Gold.Chemscore.Hbond>
2.1962

> <Gold.Chemscore.Metal>
0.0000

> <Gold.Chemscore.Lipo>
95.9896

> <Gold.Chemscore.Internal_Hbond>
0.0000

> <Gold.Chemscore.DEClash>
0.2126

> <Gold.Chemscore.DEInternal>
3.0155

> <Gold.Chemscore.Rot>
1.0000

> <Gold.Chemscore.Internal.Correction>
   9.000000E+99

> <Gold.Chemscore.Hbonds>
donor molecule, donor type, donor heavy atom, donor atom, acceptor molecule, acceptor atom, score
      L1  H     3    21       P1  8029  0.30
      L1  H     6    22       P1  8029  0.98
      P1  H  6933  6944       L1     5  0.27

> <Gold.Chemscore.Hbond.Weighted>
-7.3355

> <Gold.Chemscore.Metal.Weighted>
-0.0000

> <Gold.Chemscore.Lipo.Weighted>
-11.2308

> <Gold.Chemscore.Internal_Hbond.Weighted>
0.0000

> <Gold.Chemscore.DEClash.Weighted>
0.2126

> <Gold.Chemscore.DEInternal.Weighted>
3.0155

> <Gold.Chemscore.Rot.Weighted>
2.5600

> <Gold.Chemscore.Internal.Correction.Weighted>
   9.000000E+99

> <Gold.Protein.RotatedTorsions>
[ 6907 6896 6895 6894 ] final  -16.42 input  -60.11 | X-H torsion
[ 7974 7965 7964 7962 ] final  -98.57 input  175.53 | X-H torsion
[ 8008 7997 7996 7995 ] final  122.60 input   59.86 | X-H torsion
[ 10167 10162 10161 10158 ] final  -77.36 input  -65.29 | X-H torsion
[ 10718 10713 10712 10709 ] final   67.89 input   66.30 | X-H torsion
[ 10763 10752 10751 10750 ] final -161.84 input  -60.55 | X-H torsion
[ 11005 11000 10999 10996 ] final -144.29 input  -57.11 | X-H torsion

> <Gold.Protein.ActiveResidues>
 VAL166  LYS551  ARG553  GLY616  TRP617  ASP618  TYR619  PRO620  LYS621  CYS622 
 ASP623  PHE694  ASN695  SER759  ASP760  ASP761  ALA762  ILE779  LEU786  VAL792 
 PHE793  MET794  SER795  GLU796  ALA797  LYS798  CYS799  TRP800  GLU811  SER814 

> <Gold.Protein.RotatedAtoms>
  151.3089  135.0789  159.9265 H   0  0  0  0  0  0  0  0  0  0  0  0  # atno 6907 bound_to 6896
  152.5282  133.9756  159.7793 H   0  0  0  0  0  0  0  0  0  0  0  0  # atno 6908 bound_to 6896
  151.0056  133.5962  159.2719 H   0  0  0  0  0  0  0  0  0  0  0  0  # atno 6909 bound_to 6896
  145.3189  140.9417  143.2727 H   0  0  0  0  0  0  0  0  0  0  0  0  # atno 7974 bound_to 7965
  156.2734  140.2782  156.1494 H   0  0  0  0  0  0  0  0  0  0  0  0  # atno 8008 bound_to 7997
  155.0870  140.0388  157.2674 H   0  0  0  0  0  0  0  0  0  0  0  0  # atno 8009 bound_to 7997
  154.6919  140.2631  155.6810 H   0  0  0  0  0  0  0  0  0  0  0  0  # atno 8010 bound_to 7997
  140.4776  143.2410  151.8108 H   0  0  0  0  0  0  0  0  0  0  0  0  # atno 10167 bound_to 10162
  157.6257  130.9345  150.0303 H   0  0  0  0  0  0  0  0  0  0  0  0  # atno 10718 bound_to 10713
  154.7267  135.3037  154.8958 H   0  0  0  0  0  0  0  0  0  0  0  0  # atno 10763 bound_to 10752
  153.9813  135.6730  153.4754 H   0  0  0  0  0  0  0  0  0  0  0  0  # atno 10764 bound_to 10752
  153.0882  135.4973  154.8557 H   0  0  0  0  0  0  0  0  0  0  0  0  # atno 10765 bound_to 10752
  140.8039  134.2824  157.4968 H   0  0  0  0  0  0  0  0  0  0  0  0  # atno 11005 bound_to 11000
  144.8955  139.4718  143.6657 LP  0  0  0  0  0  0  0  0  0  0  0  0  # atno 17320 bound_to 7965
  146.3090  139.7679  142.9034 LP  0  0  0  0  0  0  0  0  0  0  0  0  # atno 17321 bound_to 7965
  139.4828  144.4813  151.9303 LP  0  0  0  0  0  0  0  0  0  0  0  0  # atno 17342 bound_to 10162
  140.3898  144.2630  150.5900 LP  0  0  0  0  0  0  0  0  0  0  0  0  # atno 17343 bound_to 10162
  156.1428  130.3642  149.9556 LP  0  0  0  0  0  0  0  0  0  0  0  0  # atno 17370 bound_to 10713
  156.7593  130.9145  151.3641 LP  0  0  0  0  0  0  0  0  0  0  0  0  # atno 17371 bound_to 10713
  139.8719  134.9445  156.3883 LP  0  0  0  0  0  0  0  0  0  0  0  0  # atno 17394 bound_to 11000
  140.9267  133.7607  155.9973 LP  0  0  0  0  0  0  0  0  0  0  0  0  # atno 17395 bound_to 11000

$$$$
