AV-unprocessed.smi:1120|AV-procd|sdf|4825|dock3
  -GOLD-   22720 3383D 1   1.00000     0.00000
 Structure written by MMmdl.
 48 49  0  0  0  0  0  0  0  0  3 V2000
  143.9134  134.6808  163.0320 C   0  0  0  0  0  0  0  0  0  0  0  0
  145.4146  134.8452  162.7568 C   0  0  2  0  0  0  0  0  0  0  0  0
  145.7294  136.1960  162.0745 C   0  0  0  0  0  0  0  0  0  0  0  0
  147.2336  136.3704  161.7371 C   0  0  0  0  0  0  0  0  0  0  0  0
  147.8332  135.2212  160.8895 C   0  0  2  0  0  0  0  0  0  0  0  0
  147.3084  135.2825  159.5322 N   0  5  0  0  0  0  0  0  0  0  0  0
  147.6402  134.1009  158.4713 S   0  0  0  0  0  0  0  0  0  0  0  0
  148.9393  133.4649  158.7427 O   0  0  0  0  0  0  0  0  0  0  0  0
  146.4966  133.2059  158.2259 O   0  0  0  0  0  0  0  0  0  0  0  0
  147.8790  135.0869  156.9245 C   0  0  0  0  0  0  0  0  0  0  0  0
  148.7136  134.3077  155.9068 C   0  0  0  0  0  0  0  0  0  0  0  0
  149.8495  133.9348  156.2007 O   0  0  0  0  0  0  0  0  0  0  0  0
  148.1386  134.0596  154.7188 N   0  0  0  0  0  0  0  0  0  0  0  0
  148.7790  133.3961  153.5864 C   0  0  0  0  0  0  0  0  0  0  0  0
  147.8728  132.3459  152.9140 C   0  0  0  0  0  0  0  0  0  0  0  0
  146.7702  132.9447  152.0589 C   0  0  0  0  0  0  0  0  0  0  0  0
  145.6910  132.1750  151.5724 C   0  0  0  0  0  0  0  0  0  0  0  0
  144.7156  132.7921  150.7618 C   0  0  0  0  0  0  0  0  0  0  0  0
  144.8375  134.1639  150.4578 C   0  0  0  0  0  0  0  0  0  0  0  0
  145.9336  134.8850  150.9733 C   0  0  0  0  0  0  0  0  0  0  0  0
  146.8467  134.2587  151.7469 N   0  3  0  0  0  0  0  0  0  0  0  0
  147.4759  133.8660  161.5528 C   0  0  0  0  0  0  0  0  0  0  0  0
  145.9698  133.6980  161.8819 C   0  0  0  0  0  0  0  0  0  0  0  0
  143.3369  134.6952  162.1065 H   0  0  0  0  0  0  0  0  0  0  0  0
  143.5418  135.4846  163.6680 H   0  0  0  0  0  0  0  0  0  0  0  0
  143.7082  133.7372  163.5381 H   0  0  0  0  0  0  0  0  0  0  0  0
  145.9342  134.8213  163.7158 H   0  0  0  0  0  0  0  0  0  0  0  0
  145.1298  136.2961  161.1673 H   0  0  0  0  0  0  0  0  0  0  0  0
  145.4150  137.0124  162.7255 H   0  0  0  0  0  0  0  0  0  0  0  0
  147.3916  137.3269  161.2371 H   0  0  0  0  0  0  0  0  0  0  0  0
  147.7891  136.4335  162.6736 H   0  0  0  0  0  0  0  0  0  0  0  0
  148.9179  135.3345  160.8907 H   0  0  0  0  0  0  0  0  0  0  0  0
  146.9010  135.3428  156.5169 H   0  0  0  0  0  0  0  0  0  0  0  0
  148.3828  136.0161  157.1903 H   0  0  0  0  0  0  0  0  0  0  0  0
  147.2037  134.4114  154.5682 H   0  0  0  0  0  0  0  0  0  0  0  0
  149.0411  134.1642  152.8586 H   0  0  0  0  0  0  0  0  0  0  0  0
  149.7217  132.9417  153.8960 H   0  0  0  0  0  0  0  0  0  0  0  0
  148.4789  131.6794  152.2989 H   0  0  0  0  0  0  0  0  0  0  0  0
  147.4156  131.7169  153.6787 H   0  0  0  0  0  0  0  0  0  0  0  0
  145.6161  131.1230  151.8062 H   0  0  0  0  0  0  0  0  0  0  0  0
  143.8861  132.2188  150.3747 H   0  0  0  0  0  0  0  0  0  0  0  0
  144.1035  134.6544  149.8352 H   0  0  0  0  0  0  0  0  0  0  0  0
  146.1095  135.9345  150.7877 H   0  0  0  0  0  0  0  0  0  0  0  0
  147.8116  133.0351  160.9324 H   0  0  0  0  0  0  0  0  0  0  0  0
  148.0396  133.7805  162.4823 H   0  0  0  0  0  0  0  0  0  0  0  0
  145.8231  132.7473  162.3951 H   0  0  0  0  0  0  0  0  0  0  0  0
  145.3913  133.6258  160.9581 H   0  0  0  0  0  0  0  0  0  0  0  0
  147.6378  134.7976  152.0998 H   0  0  0  0  0  0  0  0  0  0  0  0
  1  2  1  0  0  0  0
  1 24  1  0  0  0  0
  1 25  1  0  0  0  0
  1 26  1  0  0  0  0
  2 23  1  0  0  0  0
  2  3  1  0  0  0  0
  2 27  1  0  0  0  0
  3  4  1  0  0  0  0
  3 28  1  0  0  0  0
  3 29  1  0  0  0  0
  4  5  1  0  0  0  0
  4 30  1  0  0  0  0
  4 31  1  0  0  0  0
  5  6  1  0  0  0  0
  5 22  1  0  0  0  0
  5 32  1  0  0  0  0
  6  7  1  0  0  0  0
  7  8  2  0  0  0  0
  7  9  2  0  0  0  0
  7 10  1  0  0  0  0
 10 11  1  0  0  0  0
 10 33  1  0  0  0  0
 10 34  1  0  0  0  0
 11 12  2  0  0  0  0
 11 13  1  0  0  0  0
 13 14  1  0  0  0  0
 13 35  1  0  0  0  0
 14 15  1  0  0  0  0
 14 36  1  0  0  0  0
 14 37  1  0  0  0  0
 15 16  1  0  0  0  0
 15 38  1  0  0  0  0
 15 39  1  0  0  0  0
 16 21  1  0  0  0  0
 16 17  2  0  0  0  0
 17 18  1  0  0  0  0
 17 40  1  0  0  0  0
 18 19  2  0  0  0  0
 18 41  1  0  0  0  0
 19 20  1  0  0  0  0
 19 42  1  0  0  0  0
 20 21  2  0  0  0  0
 20 43  1  0  0  0  0
 21 48  1  0  0  0  0
 22 23  1  0  0  0  0
 22 44  1  0  0  0  0
 22 45  1  0  0  0  0
 23 46  1  0  0  0  0
 23 47  1  0  0  0  0
M  CHG  1   6  -1
M  CHG  1  21   1
M  END
> <s_m_source_file>
AV-unprocessed.smi

> <i_m_source_file_index>
1120

> <i_lp_mmshare_version>
43012

> <i_f3d_flags>
0

> <s_epik_input>
W0NIM11bQ0BASF0xW0NIMl1bQ0gyXVtDQEhdKFtDSDJdW0NIMl0xKVtOSF1TKD1PKSg9TylbQ0gyXUMoPU8pW05IXVtDSDJdW0NIMl1jMltjSF1bY0hdW2NIXVtjSF1uMg==

> <s_epik_cmdline>
J2VwaWtfcHl0aG9uJywgJy1waCcsICc3LjAnLCAnLXRuJywgJzgnLCAnLW1hJywgJzIwMCcsICctbWV0YWxfYmluZGluZycsICctaW1hZScsICc8aW5maWxlLm1hZT4nLCAnLW9tYWUnLCAnPG91dGZpbGUubWFlPic=

> <r_epik_Ionization_Penalty>
7.48373

> <r_epik_Ionization_Penalty_Charging>
7.48373

> <r_epik_Ionization_Penalty_Neutral>
1.58512e-08

> <r_epik_State_Penalty>
7.71683

> <r_epik_Charging_Adjusted_Penalty>
15.2006

> <i_epik_Tot_Q>
0

> <i_epik_Tot_abs_Q>
2

> <r_epik_Metal_State_Penalty>
3.7254

> <b_epik_Metal_Only>
1

> <s_lp_Force_Field>
OPLS_2005

> <r_lp_Energy>
13.616

> <b_lp_Chiralities_Consistent>
1

> <s_lp_Variant>
AV-unprocessed.smi:1120-8

> <Gold.Version>
5.8.1

> <Gold.Id.Protein>
6NUR|6NUR_protein|mol2

> <Gold.PLP.Fitness>
45.3413

> <Gold.PLP.PLP>
-37.9582

> <Gold.PLP.part.hbond>
-2.0000

> <Gold.PLP.part.metal>
0.0000

> <Gold.PLP.part.buried>
-4.4867

> <Gold.PLP.part.nonpolar>
-31.0342

> <Gold.PLP.part.repulsive>
0.0465

> <Gold.PLP.ligand.clash>
0.0000

> <Gold.PLP.ligand.torsion>
1.3858

> <Gold.PLP.Chemscore.Hbond>
3.0000

> <Gold.PLP.Chemscore.CHOScore>
0.0000

> <Gold.PLP.Chemscore.Metal>
0.0000

> <Gold.Chemscore.Hbonds>
donor molecule, donor type, donor heavy atom, donor atom, acceptor molecule, acceptor atom, score
      L1  H    21    48       P1  7948  1.95
      P1  H  6896  6907       L1     8  1.00

> <Gold.PLP.Chemscore.Internal.Correction>
1.1547

> <Gold.Rescore>
     Score         DG    S(hbond)    S(metal)    S(lipo)     H(rot)  DE(clash)    DE(int)     intcor
     15.36     -18.24       1.94        0.00      97.17       1.98       0.08       2.80       ----

> <Gold.Chemscore.Fitness>
15.3607

> <Gold.Chemscore.DG>
-18.2411

> <Gold.Chemscore.ZeroCoef>
-5.4800

> <Gold.Chemscore.Hbond>
1.9369

> <Gold.Chemscore.Metal>
0.0000

> <Gold.Chemscore.Lipo>
97.1685

> <Gold.Chemscore.Internal_Hbond>
0.0000

> <Gold.Chemscore.DEClash>
0.0811

> <Gold.Chemscore.DEInternal>
2.7993

> <Gold.Chemscore.Rot>
1.9832

> <Gold.Chemscore.Internal.Correction>
   9.000000E+99

> <Gold.Chemscore.Hbonds>
donor molecule, donor type, donor heavy atom, donor atom, acceptor molecule, acceptor atom, score
      L1  H    21    48       P1  7948  0.69
      P1  H  6896  6907       L1     8  0.99

> <Gold.Chemscore.Hbond.Weighted>
-6.4693

> <Gold.Chemscore.Metal.Weighted>
-0.0000

> <Gold.Chemscore.Lipo.Weighted>
-11.3687

> <Gold.Chemscore.Internal_Hbond.Weighted>
0.0000

> <Gold.Chemscore.DEClash.Weighted>
0.0811

> <Gold.Chemscore.DEInternal.Weighted>
2.7993

> <Gold.Chemscore.Rot.Weighted>
5.0769

> <Gold.Chemscore.Internal.Correction.Weighted>
   9.000000E+99

> <Gold.Protein.RotatedTorsions>
[ 6907 6896 6895 6894 ] final -108.04 input  -60.11 | X-H torsion
[ 7974 7965 7964 7962 ] final  154.76 input  175.53 | X-H torsion
[ 8008 7997 7996 7995 ] final   63.85 input   59.86 | X-H torsion
[ 10167 10162 10161 10158 ] final   48.35 input  -65.29 | X-H torsion
[ 10718 10713 10712 10709 ] final -117.16 input   66.30 | X-H torsion
[ 10763 10752 10751 10750 ] final   52.46 input  -60.55 | X-H torsion
[ 11005 11000 10999 10996 ] final  171.70 input  -57.11 | X-H torsion

> <Gold.Protein.ActiveResidues>
 VAL166  LYS551  ARG553  GLY616  TRP617  ASP618  TYR619  PRO620  LYS621  CYS622 
 ASP623  PHE694  ASN695  SER759  ASP760  ASP761  ALA762  ILE779  LEU786  VAL792 
 PHE793  MET794  SER795  GLU796  ALA797  LYS798  CYS799  TRP800  GLU811  SER814 

> <Gold.Protein.RotatedAtoms>
  150.7479  133.9736  159.3553 H   0  0  0  0  0  0  0  0  0  0  0  0  # atno 6907 bound_to 6896
  151.7672  135.0793  160.0364 H   0  0  0  0  0  0  0  0  0  0  0  0  # atno 6908 bound_to 6896
  152.3363  133.5979  159.5881 H   0  0  0  0  0  0  0  0  0  0  0  0  # atno 6909 bound_to 6896
  144.8068  139.6977  143.6159 H   0  0  0  0  0  0  0  0  0  0  0  0  # atno 7974 bound_to 7965
  155.6368  140.3496  155.4701 H   0  0  0  0  0  0  0  0  0  0  0  0  # atno 8008 bound_to 7997
  155.9959  140.1203  157.0618 H   0  0  0  0  0  0  0  0  0  0  0  0  # atno 8009 bound_to 7997
  154.4233  140.1110  156.5615 H   0  0  0  0  0  0  0  0  0  0  0  0  # atno 8010 bound_to 7997
  140.2942  144.3010  150.6233 H   0  0  0  0  0  0  0  0  0  0  0  0  # atno 10167 bound_to 10162
  156.1014  130.6175  150.9129 H   0  0  0  0  0  0  0  0  0  0  0  0  # atno 10718 bound_to 10713
  152.9789  135.5812  154.4582 H   0  0  0  0  0  0  0  0  0  0  0  0  # atno 10763 bound_to 10752
  154.4162  135.2771  155.2007 H   0  0  0  0  0  0  0  0  0  0  0  0  # atno 10764 bound_to 10752
  154.3776  135.6154  153.5827 H   0  0  0  0  0  0  0  0  0  0  0  0  # atno 10765 bound_to 10752
  140.3218  134.7431  157.4069 H   0  0  0  0  0  0  0  0  0  0  0  0  # atno 11005 bound_to 11000
  146.2360  139.5906  142.9523 LP  0  0  0  0  0  0  0  0  0  0  0  0  # atno 17320 bound_to 7965
  145.5420  141.0420  143.2325 LP  0  0  0  0  0  0  0  0  0  0  0  0  # atno 17321 bound_to 7965
  140.5706  143.2181  151.7605 LP  0  0  0  0  0  0  0  0  0  0  0  0  # atno 17342 bound_to 10162
  139.4930  144.4221  151.9966 LP  0  0  0  0  0  0  0  0  0  0  0  0  # atno 17343 bound_to 10162
  157.6185  131.0931  150.8666 LP  0  0  0  0  0  0  0  0  0  0  0  0  # atno 17370 bound_to 10713
  156.8793  130.5174  149.5292 LP  0  0  0  0  0  0  0  0  0  0  0  0  # atno 17371 bound_to 10713
  140.0935  134.5568  155.8421 LP  0  0  0  0  0  0  0  0  0  0  0  0  # atno 17394 bound_to 11000
  141.2085  133.6674  156.6373 LP  0  0  0  0  0  0  0  0  0  0  0  0  # atno 17395 bound_to 11000

$$$$
