AV-unprocessed.smi:910|AV-procd|sdf|4121|dock10
  -GOLD-   22720 2 23D 1   1.00000     0.00000
 Structure written by MMmdl.
 46 47  0  0  0  0  0  0  0  0  1 V2000
  145.8284  132.2554  149.3872 C   0  0  0  0  0  0  0  0  0  0  0  0
  146.2619  132.9213  150.6745 C   0  0  0  0  0  0  0  0  0  0  0  0
  147.4782  132.6693  151.2488 N   0  0  0  0  0  0  0  0  0  0  0  0
  147.5721  133.4209  152.4096 C   0  0  0  0  0  0  0  0  0  0  0  0
  148.5615  133.4734  153.2463 N   0  0  0  0  0  0  0  0  0  0  0  0
  148.4320  134.2981  154.3509 C   0  0  0  0  0  0  0  0  0  0  0  0
  147.5261  134.2908  155.1907 O   0  0  0  0  0  0  0  0  0  0  0  0
  149.4151  135.2115  154.3751 N   0  0  0  0  0  0  0  0  0  0  0  0
  149.4993  136.3352  155.3034 C   0  0  0  0  0  0  0  0  0  0  0  0
  150.4606  137.4077  154.7723 C   0  0  0  0  0  0  0  0  0  0  0  0
  150.5598  138.4438  155.7377 O   0  0  0  0  0  0  0  0  0  0  0  0
  150.8636  139.7369  155.2297 C   0  0  1  0  0  0  0  0  0  0  0  0
  149.7224  140.2638  154.3304 C   0  0  0  0  0  0  0  0  0  0  0  0
  148.4142  140.4392  155.1187 C   0  0  0  0  0  0  0  0  0  0  0  0
  148.6195  141.3627  156.3277 C   0  0  0  0  0  0  0  0  0  0  0  0
  149.7580  140.8589  157.2294 C   0  0  0  0  0  0  0  0  0  0  0  0
  151.0705  140.6780  156.4381 C   0  0  1  0  0  0  0  0  0  0  0  0
  152.2219  140.2125  157.3430 C   0  0  0  0  0  0  0  0  0  0  0  0
  146.3961  134.1293  152.5104 O   0  0  0  0  0  0  0  0  0  0  0  0
  145.6199  133.7978  151.4424 C   0  0  0  0  0  0  0  0  0  0  0  0
  144.2523  134.4291  151.3114 C   0  0  0  0  0  0  0  0  0  0  0  0
  144.9217  131.6726  149.5512 H   0  0  0  0  0  0  0  0  0  0  0  0
  146.6041  131.5877  149.0112 H   0  0  0  0  0  0  0  0  0  0  0  0
  145.6221  133.0072  148.6250 H   0  0  0  0  0  0  0  0  0  0  0  0
  148.1586  132.0331  150.8590 H   0  0  0  0  0  0  0  0  0  0  0  0
  150.1200  135.1633  153.6538 H   0  0  0  0  0  0  0  0  0  0  0  0
  148.5150  136.7645  155.4970 H   0  0  0  0  0  0  0  0  0  0  0  0
  149.8640  135.9578  156.2589 H   0  0  0  0  0  0  0  0  0  0  0  0
  151.4464  136.9758  154.5953 H   0  0  0  0  0  0  0  0  0  0  0  0
  150.0921  137.7819  153.8178 H   0  0  0  0  0  0  0  0  0  0  0  0
  151.7909  139.6909  154.6563 H   0  0  0  0  0  0  0  0  0  0  0  0
  150.0166  141.2267  153.9106 H   0  0  0  0  0  0  0  0  0  0  0  0
  149.5563  139.6111  153.4747 H   0  0  0  0  0  0  0  0  0  0  0  0
  147.6393  140.8463  154.4687 H   0  0  0  0  0  0  0  0  0  0  0  0
  148.0540  139.4666  155.4558 H   0  0  0  0  0  0  0  0  0  0  0  0
  148.8484  142.3710  155.9811 H   0  0  0  0  0  0  0  0  0  0  0  0
  147.6941  141.4364  156.8984 H   0  0  0  0  0  0  0  0  0  0  0  0
  149.9098  141.5617  158.0492 H   0  0  0  0  0  0  0  0  0  0  0  0
  149.4677  139.9127  157.6881 H   0  0  0  0  0  0  0  0  0  0  0  0
  151.3531  141.6560  156.0457 H   0  0  0  0  0  0  0  0  0  0  0  0
  152.0048  139.2471  157.8014 H   0  0  0  0  0  0  0  0  0  0  0  0
  152.4007  140.9270  158.1468 H   0  0  0  0  0  0  0  0  0  0  0  0
  153.1494  140.1127  156.7786 H   0  0  0  0  0  0  0  0  0  0  0  0
  144.1383  134.8846  150.3276 H   0  0  0  0  0  0  0  0  0  0  0  0
  144.1124  135.2013  152.0684 H   0  0  0  0  0  0  0  0  0  0  0  0
  143.4750  133.6757  151.4384 H   0  0  0  0  0  0  0  0  0  0  0  0
  1 22  1  0  0  0  0
  1 23  1  0  0  0  0
  1 24  1  0  0  0  0
  1  2  1  0  0  0  0
  2  3  1  0  0  0  0
  2 20  2  0  0  0  0
  3 25  1  0  0  0  0
  3  4  1  0  0  0  0
  4 19  1  0  0  0  0
  4  5  2  0  0  0  0
  5  6  1  0  0  0  0
  6  8  1  0  0  0  0
  6  7  2  0  0  0  0
  8  9  1  0  0  0  0
  8 26  1  0  0  0  0
  9 10  1  0  0  0  0
  9 27  1  0  0  0  0
  9 28  1  0  0  0  0
 10 11  1  0  0  0  0
 10 29  1  0  0  0  0
 10 30  1  0  0  0  0
 11 12  1  0  0  0  0
 12 17  1  0  0  0  0
 12 13  1  0  0  0  0
 12 31  1  0  0  0  0
 13 14  1  0  0  0  0
 13 32  1  0  0  0  0
 13 33  1  0  0  0  0
 14 15  1  0  0  0  0
 14 34  1  0  0  0  0
 14 35  1  0  0  0  0
 15 16  1  0  0  0  0
 15 36  1  0  0  0  0
 15 37  1  0  0  0  0
 16 17  1  0  0  0  0
 16 38  1  0  0  0  0
 16 39  1  0  0  0  0
 17 18  1  0  0  0  0
 17 40  1  0  0  0  0
 18 41  1  0  0  0  0
 18 42  1  0  0  0  0
 18 43  1  0  0  0  0
 19 20  1  0  0  0  0
 20 21  1  0  0  0  0
 21 44  1  0  0  0  0
 21 45  1  0  0  0  0
 21 46  1  0  0  0  0
M  END
> <s_m_source_file>
AV-unprocessed.smi

> <i_m_source_file_index>
910

> <i_lp_mmshare_version>
43012

> <i_f3d_flags>
0

> <s_epik_input>
W0NIM11jMW5jKG9jMVtDSDNdKVtOSF1DKD1PKVtOSF1bQ0gyXVtDSDJdT1tDQEBIXTJbQ0gyXVtDSDJdW0NIMl1bQ0gyXVtDQEhdMltDSDNd

> <s_epik_cmdline>
J2VwaWtfcHl0aG9uJywgJy1waCcsICc3LjAnLCAnLXRuJywgJzgnLCAnLW1hJywgJzIwMCcsICctbWV0YWxfYmluZGluZycsICctaW1hZScsICc8aW5maWxlLm1hZT4nLCAnLW9tYWUnLCAnPG91dGZpbGUubWFlPic=

> <r_lp_tautomer_probability>
0.107061

> <r_epik_Ionization_Penalty>
0.727192

> <r_epik_Ionization_Penalty_Charging>
0.726719

> <r_epik_Ionization_Penalty_Neutral>
0.000473387

> <r_epik_State_Penalty>
2.53712

> <r_epik_Charging_Adjusted_Penalty>
3.26383

> <i_epik_Tot_Q>
0

> <i_epik_Tot_abs_Q>
0

> <r_epik_Metal_State_Penalty>
3.71015

> <b_epik_Metal_Only>
0

> <s_lp_Force_Field>
OPLS_2005

> <r_lp_Energy>
28.3743

> <b_lp_Chiralities_Consistent>
1

> <s_lp_Variant>
AV-unprocessed.smi:910-6

> <Gold.Version>
5.8.1

> <Gold.Id.Protein>
6NUR|6NUR_protein|mol2

> <Gold.PLP.Fitness>
33.4951

> <Gold.PLP.PLP>
-32.1494

> <Gold.PLP.part.hbond>
-1.9967

> <Gold.PLP.part.metal>
0.0000

> <Gold.PLP.part.buried>
-3.8205

> <Gold.PLP.part.nonpolar>
-26.2430

> <Gold.PLP.part.repulsive>
0.4455

> <Gold.PLP.ligand.clash>
0.0000

> <Gold.PLP.ligand.torsion>
0.8347

> <Gold.PLP.Chemscore.Hbond>
0.9941

> <Gold.PLP.Chemscore.CHOScore>
0.0000

> <Gold.PLP.Chemscore.Metal>
0.0000

> <Gold.Chemscore.Hbonds>
donor molecule, donor type, donor heavy atom, donor atom, acceptor molecule, acceptor atom, score
      L1  H     3    25       P1 10747  1.00

> <Gold.PLP.Chemscore.Internal.Correction>
0.0330

> <Gold.Rescore>
     Score         DG    S(hbond)    S(metal)    S(lipo)     H(rot)  DE(clash)    DE(int)     intcor
     11.57     -13.63       1.00        0.00      77.38       1.66       0.03       2.03       ----

> <Gold.Chemscore.Fitness>
11.5696

> <Gold.Chemscore.DG>
-13.6303

> <Gold.Chemscore.ZeroCoef>
-5.4800

> <Gold.Chemscore.Hbond>
1.0000

> <Gold.Chemscore.Metal>
0.0000

> <Gold.Chemscore.Lipo>
77.3822

> <Gold.Chemscore.Internal_Hbond>
0.0000

> <Gold.Chemscore.DEClash>
0.0297

> <Gold.Chemscore.DEInternal>
2.0310

> <Gold.Chemscore.Rot>
1.6576

> <Gold.Chemscore.Internal.Correction>
   9.000000E+99

> <Gold.Chemscore.Hbonds>
donor molecule, donor type, donor heavy atom, donor atom, acceptor molecule, acceptor atom, score
      L1  H     3    25       P1 10747  0.94

> <Gold.Chemscore.Hbond.Weighted>
-3.3402

> <Gold.Chemscore.Metal.Weighted>
-0.0000

> <Gold.Chemscore.Lipo.Weighted>
-9.0537

> <Gold.Chemscore.Internal_Hbond.Weighted>
0.0000

> <Gold.Chemscore.DEClash.Weighted>
0.0297

> <Gold.Chemscore.DEInternal.Weighted>
2.0310

> <Gold.Chemscore.Rot.Weighted>
4.2436

> <Gold.Chemscore.Internal.Correction.Weighted>
   9.000000E+99

> <Gold.Protein.RotatedTorsions>
[ 6907 6896 6895 6894 ] final   -7.82 input  -60.11 | X-H torsion
[ 7974 7965 7964 7962 ] final -136.52 input  175.53 | X-H torsion
[ 8008 7997 7996 7995 ] final  -87.28 input   59.86 | X-H torsion
[ 10167 10162 10161 10158 ] final   21.64 input  -65.29 | X-H torsion
[ 10718 10713 10712 10709 ] final   15.94 input   66.30 | X-H torsion
[ 10763 10752 10751 10750 ] final -128.37 input  -60.55 | X-H torsion
[ 11005 11000 10999 10996 ] final   -2.68 input  -57.11 | X-H torsion

> <Gold.Protein.ActiveResidues>
 VAL166  LYS551  ARG553  GLY616  TRP617  ASP618  TYR619  PRO620  LYS621  CYS622 
 ASP623  PHE694  ASN695  SER759  ASP760  ASP761  ALA762  ILE779  LEU786  VAL792 
 PHE793  MET794  SER795  GLU796  ALA797  LYS798  CYS799  TRP800  GLU811  SER814 

> <Gold.Protein.RotatedAtoms>
  151.4434  135.1022  159.9676 H   0  0  0  0  0  0  0  0  0  0  0  0  # atno 6907 bound_to 6896
  152.4914  133.8507  159.7210 H   0  0  0  0  0  0  0  0  0  0  0  0  # atno 6908 bound_to 6896
  150.9072  133.6984  159.2891 H   0  0  0  0  0  0  0  0  0  0  0  0  # atno 6909 bound_to 6896
  144.8920  140.6655  143.5139 H   0  0  0  0  0  0  0  0  0  0  0  0  # atno 7974 bound_to 7965
  154.6614  140.0568  157.0067 H   0  0  0  0  0  0  0  0  0  0  0  0  # atno 8008 bound_to 7997
  155.1222  140.3248  155.4476 H   0  0  0  0  0  0  0  0  0  0  0  0  # atno 8009 bound_to 7997
  156.2620  140.1995  156.6344 H   0  0  0  0  0  0  0  0  0  0  0  0  # atno 8010 bound_to 7997
  140.5411  143.9675  150.6520 H   0  0  0  0  0  0  0  0  0  0  0  0  # atno 10167 bound_to 10162
  157.0608  130.6308  149.5785 H   0  0  0  0  0  0  0  0  0  0  0  0  # atno 10718 bound_to 10713
  154.8756  135.3930  154.3746 H   0  0  0  0  0  0  0  0  0  0  0  0  # atno 10763 bound_to 10752
  153.4501  135.7028  153.6119 H   0  0  0  0  0  0  0  0  0  0  0  0  # atno 10764 bound_to 10752
  153.4662  135.3800  155.2335 H   0  0  0  0  0  0  0  0  0  0  0  0  # atno 10765 bound_to 10752
  140.6610  133.9320  155.8436 H   0  0  0  0  0  0  0  0  0  0  0  0  # atno 11005 bound_to 11000
  145.3766  139.1646  143.4303 LP  0  0  0  0  0  0  0  0  0  0  0  0  # atno 17320 bound_to 7965
  146.3059  140.3843  142.8687 LP  0  0  0  0  0  0  0  0  0  0  0  0  # atno 17321 bound_to 7965
  140.3076  143.3219  152.0910 LP  0  0  0  0  0  0  0  0  0  0  0  0  # atno 17342 bound_to 10162
  139.4989  144.6657  151.6362 LP  0  0  0  0  0  0  0  0  0  0  0  0  # atno 17343 bound_to 10162
  155.9979  130.5052  150.7551 LP  0  0  0  0  0  0  0  0  0  0  0  0  # atno 17370 bound_to 10713
  157.4956  131.0914  151.0375 LP  0  0  0  0  0  0  0  0  0  0  0  0  # atno 17371 bound_to 10713
  141.0465  134.0546  157.3837 LP  0  0  0  0  0  0  0  0  0  0  0  0  # atno 17394 bound_to 11000
  139.9013  135.0165  156.7281 LP  0  0  0  0  0  0  0  0  0  0  0  0  # atno 17395 bound_to 11000

$$$$
