AV-unprocessed.smi:265|AV-procd|sdf|2030|dock6
  -GOLD-   2262021233D 1   1.00000     0.00000
 Structure written by MMmdl.
 52 56  0  0  0  0  0  0  0  0  1 V2000
  149.6657  132.6642  153.7611 C   0  0  0  0  0  0  0  0  0  0  0  0
  148.5988  133.6881  154.1788 C   0  0  1  0  0  0  0  0  0  0  0  0
  147.6350  133.0056  154.9773 O   0  0  0  0  0  0  0  0  0  0  0  0
  147.0920  133.9134  155.9192 C   0  0  0  0  0  0  0  0  0  0  0  0
  148.3142  134.7116  156.3449 C   0  0  0  0  0  0  0  0  0  0  0  0
  149.0800  134.8924  155.0369 C   0  0  2  0  0  0  0  0  0  0  0  0
  148.6058  136.0767  154.4185 O   0  0  0  0  0  0  0  0  0  0  0  0
  150.6130  135.0324  155.2315 C   0  0  0  0  0  0  0  0  0  0  0  0
  150.9942  136.2077  155.9997 N   0  0  0  0  0  0  0  0  0  0  0  0
  151.4110  136.2358  157.3115 C   0  0  0  0  0  0  0  0  0  0  0  0
  151.6955  137.4198  157.7796 N   0  0  0  0  0  0  0  0  0  0  0  0
  151.4729  138.2734  156.7049 C   0  0  0  0  0  0  0  0  0  0  0  0
  151.5872  139.6801  156.5156 C   0  0  0  0  0  0  0  0  0  0  0  0
  152.0168  140.5202  157.4916 N   0  0  0  0  0  0  0  0  0  0  0  0
  152.6851  139.9276  158.6559 C   0  0  0  0  0  0  0  0  0  0  0  0
  153.4103  140.9986  159.4936 C   0  0  0  0  0  0  0  0  0  0  0  0
  152.4365  142.1268  159.8580 C   0  0  1  0  0  0  0  0  0  0  0  0
  153.0822  143.1888  160.5439 O   0  0  0  0  0  0  0  0  0  0  0  0
  152.1741  144.1811  161.0350 C   0  0  0  0  0  0  0  0  0  0  0  0
  151.1412  144.6232  159.9763 C   0  0  0  0  0  0  0  0  0  0  0  0
  150.4643  145.6313  160.1646 O   0  0  0  0  0  0  0  0  0  0  0  0
  150.9836  143.8559  158.8854 N   0  0  0  0  0  0  0  0  0  0  0  0
  151.8480  142.7263  158.5717 C   0  0  2  0  0  0  0  0  0  0  0  0
  151.1125  141.6372  157.7766 C   0  0  0  0  0  0  0  0  0  0  0  0
  151.2500  140.1750  155.2945 N   0  0  0  0  0  0  0  0  0  0  0  0
  150.8443  139.3541  154.3212 C   0  0  0  0  0  0  0  0  0  0  0  0
  150.7045  138.0278  154.3526 N   0  0  0  0  0  0  0  0  0  0  0  0
  151.0271  137.5256  155.5785 C   0  0  0  0  0  0  0  0  0  0  0  0
  151.6450  141.7167  160.4893 H   0  0  0  0  0  0  0  0  0  0  0  0
  152.6605  143.1160  157.9556 H   0  0  0  0  0  0  0  0  0  0  0  0
  150.4309  133.1193  153.1319 H   0  0  0  0  0  0  0  0  0  0  0  0
  149.2149  131.8533  153.1886 H   0  0  0  0  0  0  0  0  0  0  0  0
  150.1539  132.2184  154.6277 H   0  0  0  0  0  0  0  0  0  0  0  0
  148.0914  134.0405  153.2787 H   0  0  0  0  0  0  0  0  0  0  0  0
  146.3514  134.5520  155.4353 H   0  0  0  0  0  0  0  0  0  0  0  0
  146.6146  133.3949  156.7507 H   0  0  0  0  0  0  0  0  0  0  0  0
  148.0645  135.6484  156.8453 H   0  0  0  0  0  0  0  0  0  0  0  0
  148.8990  134.1088  157.0411 H   0  0  0  0  0  0  0  0  0  0  0  0
  148.5783  135.9370  153.4843 H   0  0  0  0  0  0  0  0  0  0  0  0
  151.0128  134.1605  155.7497 H   0  0  0  0  0  0  0  0  0  0  0  0
  151.1189  135.0769  154.2663 H   0  0  0  0  0  0  0  0  0  0  0  0
  151.4928  135.3446  157.9166 H   0  0  0  0  0  0  0  0  0  0  0  0
  151.9443  139.4161  159.2723 H   0  0  0  0  0  0  0  0  0  0  0  0
  153.4058  139.1766  158.3295 H   0  0  0  0  0  0  0  0  0  0  0  0
  153.8259  140.5510  160.3965 H   0  0  0  0  0  0  0  0  0  0  0  0
  154.2512  141.4021  158.9277 H   0  0  0  0  0  0  0  0  0  0  0  0
  151.6399  143.7823  161.8982 H   0  0  0  0  0  0  0  0  0  0  0  0
  152.7431  145.0451  161.3789 H   0  0  0  0  0  0  0  0  0  0  0  0
  150.2864  144.1178  158.2037 H   0  0  0  0  0  0  0  0  0  0  0  0
  150.7088  142.0691  156.8617 H   0  0  0  0  0  0  0  0  0  0  0  0
  150.2615  141.2638  158.3477 H   0  0  0  0  0  0  0  0  0  0  0  0
  150.5974  139.8270  153.3821 H   0  0  0  0  0  0  0  0  0  0  0  0
  1  2  1  0  0  0  0
  1 31  1  0  0  0  0
  1 32  1  0  0  0  0
  1 33  1  0  0  0  0
  2  6  1  0  0  0  0
  2  3  1  0  0  0  0
  2 34  1  0  0  0  0
  3  4  1  0  0  0  0
  4  5  1  0  0  0  0
  4 35  1  0  0  0  0
  4 36  1  0  0  0  0
  5  6  1  0  0  0  0
  5 37  1  0  0  0  0
  5 38  1  0  0  0  0
  6  7  1  0  0  0  0
  6  8  1  0  0  0  0
  7 39  1  0  0  0  0
  8  9  1  0  0  0  0
  8 40  1  0  0  0  0
  8 41  1  0  0  0  0
  9 28  1  0  0  0  0
  9 10  1  0  0  0  0
 10 11  2  0  0  0  0
 10 42  1  0  0  0  0
 11 12  1  0  0  0  0
 12 28  2  0  0  0  0
 12 13  1  0  0  0  0
 13 14  1  0  0  0  0
 13 25  2  0  0  0  0
 14 24  1  0  0  0  0
 14 15  1  0  0  0  0
 15 16  1  0  0  0  0
 15 43  1  0  0  0  0
 15 44  1  0  0  0  0
 16 17  1  0  0  0  0
 16 45  1  0  0  0  0
 16 46  1  0  0  0  0
 17 29  1  0  0  0  0
 17 23  1  0  0  0  0
 17 18  1  0  0  0  0
 18 19  1  0  0  0  0
 19 20  1  0  0  0  0
 19 47  1  0  0  0  0
 19 48  1  0  0  0  0
 20 21  2  0  0  0  0
 20 22  1  0  0  0  0
 22 23  1  0  0  0  0
 22 49  1  0  0  0  0
 23 30  1  0  0  0  0
 23 24  1  0  0  0  0
 24 50  1  0  0  0  0
 24 51  1  0  0  0  0
 25 26  1  0  0  0  0
 26 27  2  0  0  0  0
 26 52  1  0  0  0  0
 27 28  1  0  0  0  0
M  END
> <s_m_source_file>
AV-unprocessed.smi

> <i_m_source_file_index>
265

> <i_lp_mmshare_version>
43012

> <i_f3d_flags>
0

> <s_epik_input>
W0NIMl0xW0NIMl1PW0NAQEhdKFtDSDNdKVtDQEBdMShbT0hdKVtDSDJdbihbY0hdbjIpYyhjMjMpbltjSF1uYzNOKFtDSDJdW0NIMl00KVtDSDJdW0NAQEhdKFtDQEhdNDUpW05IXUMoPU8pW0NIMl1PNQ==

> <s_epik_cmdline>
J2VwaWtfcHl0aG9uJywgJy1waCcsICc3LjAnLCAnLXRuJywgJzgnLCAnLW1hJywgJzIwMCcsICctbWV0YWxfYmluZGluZycsICctaW1hZScsICc8aW5maWxlLm1hZT4nLCAnLW9tYWUnLCAnPG91dGZpbGUubWFlPic=

> <r_lp_tautomer_probability>
1

> <r_epik_Ionization_Penalty>
0.00221504

> <r_epik_Ionization_Penalty_Charging>
0

> <r_epik_Ionization_Penalty_Neutral>
0.00221504

> <r_epik_State_Penalty>
-0

> <r_epik_Charging_Adjusted_Penalty>
0

> <i_epik_Tot_Q>
0

> <i_epik_Tot_abs_Q>
0

> <r_epik_Metal_State_Penalty>
-0

> <b_epik_Metal_Only>
0

> <s_lp_Force_Field>
OPLS_2005

> <r_lp_Energy>
44.2788

> <b_lp_Chiralities_Consistent>
1

> <s_lp_Variant>
AV-unprocessed.smi:265-16

> <Gold.Version>
5.8.1

> <Gold.Id.Protein>
6NUR|6NUR_protein|mol2

> <Gold.PLP.Fitness>
44.7384

> <Gold.PLP.PLP>
-39.1946

> <Gold.PLP.part.hbond>
-3.0897

> <Gold.PLP.part.metal>
0.0000

> <Gold.PLP.part.buried>
-5.9788

> <Gold.PLP.part.nonpolar>
-30.1706

> <Gold.PLP.part.repulsive>
0.5690

> <Gold.PLP.ligand.clash>
0.0000

> <Gold.PLP.ligand.torsion>
0.4382

> <Gold.PLP.Chemscore.Hbond>
1.0000

> <Gold.PLP.Chemscore.CHOScore>
1.0000

> <Gold.PLP.Chemscore.Metal>
0.0000

> <Gold.Chemscore.Hbonds>
donor molecule, donor type, donor heavy atom, donor atom, acceptor molecule, acceptor atom, score
      L1  H     7    39       P1  7948  1.00
      L1  C    26    52       P1  7957  1.00

> <Gold.PLP.Chemscore.Internal.Correction>
0.4203

> <Gold.Rescore>
     Score         DG    S(hbond)    S(metal)    S(lipo)     H(rot)  DE(clash)    DE(int)     intcor
      8.83     -12.23       0.98        0.00      78.94       2.25       1.46       1.93       ----

> <Gold.Chemscore.Fitness>
8.8334

> <Gold.Chemscore.DG>
-12.2258

> <Gold.Chemscore.ZeroCoef>
-5.4800

> <Gold.Chemscore.Hbond>
0.9755

> <Gold.Chemscore.Metal>
0.0000

> <Gold.Chemscore.Lipo>
78.9378

> <Gold.Chemscore.Internal_Hbond>
0.0000

> <Gold.Chemscore.DEClash>
1.4609

> <Gold.Chemscore.DEInternal>
1.9316

> <Gold.Chemscore.Rot>
2.2453

> <Gold.Chemscore.Internal.Correction>
   9.000000E+99

> <Gold.Chemscore.Hbonds>
donor molecule, donor type, donor heavy atom, donor atom, acceptor molecule, acceptor atom, score
      L1  H     7    39       P1  7948  0.98

> <Gold.Chemscore.Hbond.Weighted>
-3.2580

> <Gold.Chemscore.Metal.Weighted>
-0.0000

> <Gold.Chemscore.Lipo.Weighted>
-9.2357

> <Gold.Chemscore.Internal_Hbond.Weighted>
0.0000

> <Gold.Chemscore.DEClash.Weighted>
1.4609

> <Gold.Chemscore.DEInternal.Weighted>
1.9316

> <Gold.Chemscore.Rot.Weighted>
5.7479

> <Gold.Chemscore.Internal.Correction.Weighted>
   9.000000E+99

> <Gold.Protein.RotatedTorsions>
[ 6907 6896 6895 6894 ] final -167.87 input  -60.11 | X-H torsion
[ 7974 7965 7964 7962 ] final  -24.13 input  175.53 | X-H torsion
[ 8008 7997 7996 7995 ] final  149.57 input   59.86 | X-H torsion
[ 10167 10162 10161 10158 ] final   13.60 input  -65.29 | X-H torsion
[ 10718 10713 10712 10709 ] final   38.59 input   66.30 | X-H torsion
[ 10763 10752 10751 10750 ] final  153.58 input  -60.55 | X-H torsion
[ 11005 11000 10999 10996 ] final   62.06 input  -57.11 | X-H torsion

> <Gold.Protein.ActiveResidues>
 VAL166  LYS551  ARG553  GLY616  TRP617  ASP618  TYR619  PRO620  LYS621  CYS622 
 ASP623  PHE694  ASN695  SER759  ASP760  ASP761  ALA762  ILE779  LEU786  VAL792 
 PHE793  MET794  SER795  GLU796  ALA797  LYS798  CYS799  TRP800  GLU811  SER814 

> <Gold.Protein.RotatedAtoms>
  151.4665  133.3579  159.2816 H   0  0  0  0  0  0  0  0  0  0  0  0  # atno 6907 bound_to 6896
  150.8990  134.8402  159.7357 H   0  0  0  0  0  0  0  0  0  0  0  0  # atno 6908 bound_to 6896
  152.4868  134.4583  159.9649 H   0  0  0  0  0  0  0  0  0  0  0  0  # atno 6909 bound_to 6896
  146.1573  140.4710  142.8586 H   0  0  0  0  0  0  0  0  0  0  0  0  # atno 7974 bound_to 7965
  156.2749  140.2098  156.5880 H   0  0  0  0  0  0  0  0  0  0  0  0  # atno 8008 bound_to 7997
  154.7005  140.0521  157.0477 H   0  0  0  0  0  0  0  0  0  0  0  0  # atno 8009 bound_to 7997
  155.0741  140.3180  155.4624 H   0  0  0  0  0  0  0  0  0  0  0  0  # atno 8010 bound_to 7997
  140.5992  143.8640  150.6948 H   0  0  0  0  0  0  0  0  0  0  0  0  # atno 10167 bound_to 10162
  157.3607  130.7648  149.7045 H   0  0  0  0  0  0  0  0  0  0  0  0  # atno 10718 bound_to 10713
  154.1385  135.2822  155.3167 H   0  0  0  0  0  0  0  0  0  0  0  0  # atno 10763 bound_to 10752
  154.6304  135.5437  153.7677 H   0  0  0  0  0  0  0  0  0  0  0  0  # atno 10764 bound_to 10752
  153.0258  135.6461  154.1533 H   0  0  0  0  0  0  0  0  0  0  0  0  # atno 10765 bound_to 10752
  140.0118  134.6285  155.9769 H   0  0  0  0  0  0  0  0  0  0  0  0  # atno 11005 bound_to 11000
  144.7981  140.6160  143.6497 LP  0  0  0  0  0  0  0  0  0  0  0  0  # atno 17320 bound_to 7965
  145.4675  139.1506  143.3832 LP  0  0  0  0  0  0  0  0  0  0  0  0  # atno 17321 bound_to 7965
  140.2181  143.3830  152.1664 LP  0  0  0  0  0  0  0  0  0  0  0  0  # atno 17342 bound_to 10162
  139.5279  144.7124  151.5162 LP  0  0  0  0  0  0  0  0  0  0  0  0  # atno 17343 bound_to 10162
  155.9737  130.4115  150.3983 LP  0  0  0  0  0  0  0  0  0  0  0  0  # atno 17370 bound_to 10713
  157.2059  131.0449  151.2625 LP  0  0  0  0  0  0  0  0  0  0  0  0  # atno 17371 bound_to 10713
  141.1716  133.6537  156.4672 LP  0  0  0  0  0  0  0  0  0  0  0  0  # atno 17394 bound_to 11000
  140.4541  134.6902  157.5054 LP  0  0  0  0  0  0  0  0  0  0  0  0  # atno 17395 bound_to 11000

$$$$
