AV-unprocessed.smi:2062|AV-procd|sdf|8404|dock3
  -GOLD-   2272011 93D 1   1.00000     0.00000
 Structure written by MMmdl.
 42 43  0  0  0  0  0  0  0  0  3 V2000
  152.3362  143.5756  158.6389 C   0  0  0  0  0  0  0  0  0  0  0  0
  150.9810  143.4550  157.9218 C   0  0  0  0  0  0  0  0  0  0  0  0
  149.8305  143.7156  158.9054 C   0  0  0  0  0  0  0  0  0  0  0  0
  150.8106  142.0798  157.2415 C   0  0  0  0  0  0  0  0  0  0  0  0
  149.5571  141.9780  156.4457 N   0  3  1  0  0  0  0  0  0  0  0  0
  149.7873  141.7011  155.0070 C   0  0  0  0  0  0  0  0  0  0  0  0
  150.1143  140.2160  154.7730 C   0  0  0  0  0  0  0  0  0  0  0  0
  149.0572  139.4177  155.2883 O   0  0  0  0  0  0  0  0  0  0  0  0
  148.8921  139.5708  156.6951 C   0  0  2  0  0  0  0  0  0  0  0  0
  147.7848  138.6150  157.1579 C   0  0  0  0  0  0  0  0  0  0  0  0
  147.8738  138.3882  158.5936 N   0  0  0  0  0  0  0  0  0  0  0  0
  147.6484  137.2192  159.2051 C   0  0  0  0  0  0  0  0  0  0  0  0
  147.3346  136.2295  158.5399 O   0  0  0  0  0  0  0  0  0  0  0  0
  147.8003  137.2726  160.5474 N   0  5  0  0  0  0  0  0  0  0  0  0
  147.3889  136.2477  161.3118 C   0  0  0  0  0  0  0  0  0  0  0  0
  146.8955  135.1122  160.8045 N   0  0  0  0  0  0  0  0  0  0  0  0
  146.5367  134.1788  161.7787 C   0  0  0  0  0  0  0  0  0  0  0  0
  146.7714  134.6098  163.0574 C   0  0  0  0  0  0  0  0  0  0  0  0
  147.4537  136.2111  163.0762 S   0  0  0  0  0  0  0  0  0  0  0  0
  148.5413  141.0446  156.9981 C   0  0  0  0  0  0  0  0  0  0  0  0
  152.4434  142.8170  159.4150 H   0  0  0  0  0  0  0  0  0  0  0  0
  152.4426  144.5516  159.1135 H   0  0  0  0  0  0  0  0  0  0  0  0
  153.1687  143.4617  157.9442 H   0  0  0  0  0  0  0  0  0  0  0  0
  150.9310  144.2387  157.1665 H   0  0  0  0  0  0  0  0  0  0  0  0
  149.8130  142.9717  159.7029 H   0  0  0  0  0  0  0  0  0  0  0  0
  148.8650  143.6839  158.3997 H   0  0  0  0  0  0  0  0  0  0  0  0
  149.9239  144.6980  159.3694 H   0  0  0  0  0  0  0  0  0  0  0  0
  151.6696  141.9180  156.5887 H   0  0  0  0  0  0  0  0  0  0  0  0
  150.8481  141.2817  157.9829 H   0  0  0  0  0  0  0  0  0  0  0  0
  148.8801  141.9590  154.4591 H   0  0  0  0  0  0  0  0  0  0  0  0
  150.5755  142.3416  154.6100 H   0  0  0  0  0  0  0  0  0  0  0  0
  150.2140  140.0185  153.7056 H   0  0  0  0  0  0  0  0  0  0  0  0
  151.0620  139.9382  155.2367 H   0  0  0  0  0  0  0  0  0  0  0  0
  149.8185  139.2943  157.2011 H   0  0  0  0  0  0  0  0  0  0  0  0
  146.8069  139.0402  156.9264 H   0  0  0  0  0  0  0  0  0  0  0  0
  147.8575  137.6626  156.6306 H   0  0  0  0  0  0  0  0  0  0  0  0
  148.1348  139.1740  159.1711 H   0  0  0  0  0  0  0  0  0  0  0  0
  146.1220  133.2303  161.4710 H   0  0  0  0  0  0  0  0  0  0  0  0
  146.5872  134.0871  163.9836 H   0  0  0  0  0  0  0  0  0  0  0  0
  148.4111  141.1960  158.0689 H   0  0  0  0  0  0  0  0  0  0  0  0
  147.5809  141.2869  156.5406 H   0  0  0  0  0  0  0  0  0  0  0  0
  149.1502  142.9019  156.4836 H   0  0  0  0  0  0  0  0  0  0  0  0
  1  2  1  0  0  0  0
  1 21  1  0  0  0  0
  1 22  1  0  0  0  0
  1 23  1  0  0  0  0
  2  3  1  0  0  0  0
  2  4  1  0  0  0  0
  2 24  1  0  0  0  0
  3 25  1  0  0  0  0
  3 26  1  0  0  0  0
  3 27  1  0  0  0  0
  4  5  1  0  0  0  0
  4 28  1  0  0  0  0
  4 29  1  0  0  0  0
  5 20  1  0  0  0  0
  5  6  1  0  0  0  0
  5 42  1  0  0  0  0
  6  7  1  0  0  0  0
  6 30  1  0  0  0  0
  6 31  1  0  0  0  0
  7  8  1  0  0  0  0
  7 32  1  0  0  0  0
  7 33  1  0  0  0  0
  8  9  1  0  0  0  0
  9 10  1  0  0  0  0
  9 20  1  0  0  0  0
  9 34  1  0  0  0  0
 10 11  1  0  0  0  0
 10 35  1  0  0  0  0
 10 36  1  0  0  0  0
 11 12  1  0  0  0  0
 11 37  1  0  0  0  0
 12 13  2  0  0  0  0
 12 14  1  0  0  0  0
 14 15  1  0  0  0  0
 15 19  1  0  0  0  0
 15 16  2  0  0  0  0
 16 17  1  0  0  0  0
 17 18  2  0  0  0  0
 17 38  1  0  0  0  0
 18 19  1  0  0  0  0
 18 39  1  0  0  0  0
 20 40  1  0  0  0  0
 20 41  1  0  0  0  0
M  CHG  1   5   1
M  CHG  1  14  -1
M  END
> <s_m_source_file>
AV-unprocessed.smi

> <i_m_source_file_index>
2062

> <i_lp_mmshare_version>
43012

> <i_f3d_flags>
0

> <s_epik_input>
W0NIM11bQ0hdKFtDSDNdKVtDSDJdTjFbQ0gyXVtDSDJdT1tDQEhdKFtDSDJdMSlbQ0gyXVtOSF1DKD1PKVtOSF1jMm5bY0hdW2NIXXMy

> <s_epik_cmdline>
J2VwaWtfcHl0aG9uJywgJy1waCcsICc3LjAnLCAnLXRuJywgJzgnLCAnLW1hJywgJzIwMCcsICctbWV0YWxfYmluZGluZycsICctaW1hZScsICc8aW5maWxlLm1hZT4nLCAnLW9tYWUnLCAnPG91dGZpbGUubWFlPic=

> <r_lp_tautomer_probability>
0.999

> <r_epik_Ionization_Penalty>
6.35835

> <r_epik_Ionization_Penalty_Charging>
5.49938

> <r_epik_Ionization_Penalty_Neutral>
0.858963

> <r_epik_State_Penalty>
5.49328

> <r_epik_Charging_Adjusted_Penalty>
10.9927

> <i_epik_Tot_Q>
0

> <i_epik_Tot_abs_Q>
2

> <r_epik_Metal_State_Penalty>
1.51523

> <b_epik_Metal_Only>
1

> <s_lp_Force_Field>
OPLS_2005

> <r_lp_Energy>
10.2516

> <b_lp_Chiralities_Consistent>
1

> <s_lp_Variant>
AV-unprocessed.smi:2062-9

> <Gold.Version>
5.8.1

> <Gold.Id.Protein>
6NUR|6NUR_protein|mol2

> <Gold.PLP.Fitness>
45.8909

> <Gold.PLP.PLP>
-32.6780

> <Gold.PLP.part.hbond>
-3.0000

> <Gold.PLP.part.metal>
0.0000

> <Gold.PLP.part.buried>
0.2537

> <Gold.PLP.part.nonpolar>
-30.6871

> <Gold.PLP.part.repulsive>
1.1802

> <Gold.PLP.ligand.clash>
0.0000

> <Gold.PLP.ligand.torsion>
1.1020

> <Gold.PLP.Chemscore.Hbond>
5.0560

> <Gold.PLP.Chemscore.CHOScore>
0.0000

> <Gold.PLP.Chemscore.Metal>
0.0000

> <Gold.Chemscore.Hbonds>
donor molecule, donor type, donor heavy atom, donor atom, acceptor molecule, acceptor atom, score
      L1  H     5    42       P1  8028  2.00
      P1  H  6931  6943       L1    14  1.32
      P1  H  6934  6947       L1    14  1.70

> <Gold.PLP.Chemscore.Internal.Correction>
0.2489

> <Gold.Rescore>
     Score         DG    S(hbond)    S(metal)    S(lipo)     H(rot)  DE(clash)    DE(int)     intcor
     12.28     -15.99       1.45        0.00      86.04       1.72       1.06       2.65       ----

> <Gold.Chemscore.Fitness>
12.2761

> <Gold.Chemscore.DG>
-15.9914

> <Gold.Chemscore.ZeroCoef>
-5.4800

> <Gold.Chemscore.Hbond>
1.4511

> <Gold.Chemscore.Metal>
0.0000

> <Gold.Chemscore.Lipo>
86.0392

> <Gold.Chemscore.Internal_Hbond>
0.0000

> <Gold.Chemscore.DEClash>
1.0637

> <Gold.Chemscore.DEInternal>
2.6517

> <Gold.Chemscore.Rot>
1.7194

> <Gold.Chemscore.Internal.Correction>
   9.000000E+99

> <Gold.Chemscore.Hbonds>
donor molecule, donor type, donor heavy atom, donor atom, acceptor molecule, acceptor atom, score
      L1  H     5    42       P1  8028  0.90
      P1  H  6931  6943       L1    14  0.16
      P1  H  6934  6947       L1    14  0.25

> <Gold.Chemscore.Hbond.Weighted>
-4.8466

> <Gold.Chemscore.Metal.Weighted>
-0.0000

> <Gold.Chemscore.Lipo.Weighted>
-10.0666

> <Gold.Chemscore.Internal_Hbond.Weighted>
0.0000

> <Gold.Chemscore.DEClash.Weighted>
1.0637

> <Gold.Chemscore.DEInternal.Weighted>
2.6517

> <Gold.Chemscore.Rot.Weighted>
4.4017

> <Gold.Chemscore.Internal.Correction.Weighted>
   9.000000E+99

> <Gold.Protein.RotatedTorsions>
[ 6907 6896 6895 6894 ] final  -55.10 input  -60.11 | X-H torsion
[ 7974 7965 7964 7962 ] final   78.54 input  175.53 | X-H torsion
[ 8008 7997 7996 7995 ] final  -97.81 input   59.86 | X-H torsion
[ 10167 10162 10161 10158 ] final  -99.98 input  -65.29 | X-H torsion
[ 10718 10713 10712 10709 ] final  112.69 input   66.30 | X-H torsion
[ 10763 10752 10751 10750 ] final   25.41 input  -60.55 | X-H torsion
[ 11005 11000 10999 10996 ] final  -76.01 input  -57.11 | X-H torsion

> <Gold.Protein.ActiveResidues>
 VAL166  LYS551  ARG553  GLY616  TRP617  ASP618  TYR619  PRO620  LYS621  CYS622 
 ASP623  PHE694  ASN695  SER759  ASP760  ASP761  ALA762  ILE779  LEU786  VAL792 
 PHE793  MET794  SER795  GLU796  ALA797  LYS798  CYS799  TRP800  GLU811  SER814 

> <Gold.Protein.RotatedAtoms>
  150.8280  134.7520  159.6829 H   0  0  0  0  0  0  0  0  0  0  0  0  # atno 6907 bound_to 6896
  152.4389  134.5628  159.9909 H   0  0  0  0  0  0  0  0  0  0  0  0  # atno 6908 bound_to 6896
  151.5796  133.3342  159.3041 H   0  0  0  0  0  0  0  0  0  0  0  0  # atno 6909 bound_to 6896
  145.6758  139.2509  143.1842 H   0  0  0  0  0  0  0  0  0  0  0  0  # atno 7974 bound_to 7965
  154.7927  140.0460  157.1213 H   0  0  0  0  0  0  0  0  0  0  0  0  # atno 8008 bound_to 7997
  154.9572  140.3073  155.5028 H   0  0  0  0  0  0  0  0  0  0  0  0  # atno 8009 bound_to 7997
  156.2952  140.2277  156.4654 H   0  0  0  0  0  0  0  0  0  0  0  0  # atno 8010 bound_to 7997
  140.2567  143.3435  152.0664 H   0  0  0  0  0  0  0  0  0  0  0  0  # atno 10167 bound_to 10162
  157.6379  131.0971  150.6931 H   0  0  0  0  0  0  0  0  0  0  0  0  # atno 10718 bound_to 10713
  153.0694  135.6583  154.0281 H   0  0  0  0  0  0  0  0  0  0  0  0  # atno 10763 bound_to 10752
  153.9930  135.2944  155.3411 H   0  0  0  0  0  0  0  0  0  0  0  0  # atno 10764 bound_to 10752
  154.7063  135.5224  153.8670 H   0  0  0  0  0  0  0  0  0  0  0  0  # atno 10765 bound_to 10752
  141.1650  133.6968  156.7605 H   0  0  0  0  0  0  0  0  0  0  0  0  # atno 11005 bound_to 11000
  146.1007  140.7547  142.9550 LP  0  0  0  0  0  0  0  0  0  0  0  0  # atno 17320 bound_to 7965
  144.7042  140.3782  143.7131 LP  0  0  0  0  0  0  0  0  0  0  0  0  # atno 17321 bound_to 7965
  139.5029  144.6745  151.6162 LP  0  0  0  0  0  0  0  0  0  0  0  0  # atno 17342 bound_to 10162
  140.5998  143.9630  150.6379 LP  0  0  0  0  0  0  0  0  0  0  0  0  # atno 17343 bound_to 10162
  156.7260  130.4695  149.5511 LP  0  0  0  0  0  0  0  0  0  0  0  0  # atno 17370 bound_to 10713
  156.1634  130.6389  151.0747 LP  0  0  0  0  0  0  0  0  0  0  0  0  # atno 17371 bound_to 10713
  140.2538  134.8520  157.3693 LP  0  0  0  0  0  0  0  0  0  0  0  0  # atno 17394 bound_to 11000
  140.1677  134.4648  155.7852 LP  0  0  0  0  0  0  0  0  0  0  0  0  # atno 17395 bound_to 11000

$$$$
