AV-unprocessed.smi:2273|AV-procd|sdf|9164|dock2
  -GOLD-   2272012373D 1   1.00000     0.00000
 Structure written by MMmdl.
 53 54  0  0  0  0  0  0  0  0  1 V2000
  151.1666  140.8160  155.9301 C   0  0  0  0  0  0  0  0  0  0  0  0
  149.6721  140.8523  155.5889 C   0  0  0  0  0  0  0  0  0  0  0  0
  149.2544  140.1612  154.2625 C   0  0  0  0  0  0  0  0  0  0  0  0
  147.8038  140.5673  153.8867 C   0  0  0  0  0  0  0  0  0  0  0  0
  147.5330  142.0799  153.8639 C   0  0  0  0  0  0  0  0  0  0  0  0
  149.4260  138.6129  154.3330 C   0  0  2  0  0  0  0  0  0  0  0  0
  148.4141  137.9286  155.2867 C   0  0  0  0  0  0  0  0  0  0  0  0
  148.6017  136.4000  155.3160 C   0  0  1  0  0  0  0  0  0  0  0  0
  148.1948  135.7866  154.0473 N   0  0  0  0  0  0  0  0  0  0  0  0
  147.2246  134.8815  153.8257 C   0  0  0  0  0  0  0  0  0  0  0  0
  146.5378  134.4430  154.7470 O   0  0  0  0  0  0  0  0  0  0  0  0
  147.0934  134.5086  152.5362 N   0  0  0  0  0  0  0  0  0  0  0  0
  146.1796  133.5754  152.0202 C   0  0  0  0  0  0  0  0  0  0  0  0
  145.1334  134.0252  151.2783 C   0  0  0  0  0  0  0  0  0  0  0  0
  144.9529  135.5002  150.9580 C   0  0  0  0  0  0  0  0  0  0  0  0
  144.1793  133.0709  150.7530 C   0  0  0  0  0  0  0  0  0  0  0  0
  144.3394  131.7669  151.0143 C   0  0  0  0  0  0  0  0  0  0  0  0
  145.4002  131.2990  151.8024 N   0  0  0  0  0  0  0  0  0  0  0  0
  145.4790  129.8562  152.0448 C   0  0  0  0  0  0  0  0  0  0  0  0
  146.3162  132.1386  152.3655 C   0  0  0  0  0  0  0  0  0  0  0  0
  147.1828  131.7043  153.1279 O   0  0  0  0  0  0  0  0  0  0  0  0
  150.0716  136.0747  155.6182 C   0  0  0  0  0  0  0  0  0  0  0  0
  151.0192  136.8709  154.7070 C   0  0  0  0  0  0  0  0  0  0  0  0
  150.7278  138.2611  154.8047 O   0  0  0  0  0  0  0  0  0  0  0  0
  151.3741  141.4325  156.8050 H   0  0  0  0  0  0  0  0  0  0  0  0
  151.7691  141.2001  155.1070 H   0  0  0  0  0  0  0  0  0  0  0  0
  151.5008  139.8062  156.1679 H   0  0  0  0  0  0  0  0  0  0  0  0
  149.1102  140.4214  156.4184 H   0  0  0  0  0  0  0  0  0  0  0  0
  149.3917  141.9039  155.5530 H   0  0  0  0  0  0  0  0  0  0  0  0
  149.8972  140.5356  153.4644 H   0  0  0  0  0  0  0  0  0  0  0  0
  147.5713  140.2035  152.8858 H   0  0  0  0  0  0  0  0  0  0  0  0
  147.0956  140.0814  154.5590 H   0  0  0  0  0  0  0  0  0  0  0  0
  146.5452  142.2842  153.4505 H   0  0  0  0  0  0  0  0  0  0  0  0
  148.2635  142.6034  153.2466 H   0  0  0  0  0  0  0  0  0  0  0  0
  147.5543  142.5155  154.8624 H   0  0  0  0  0  0  0  0  0  0  0  0
  149.3223  138.2139  153.3223 H   0  0  0  0  0  0  0  0  0  0  0  0
  148.5600  138.3198  156.2945 H   0  0  0  0  0  0  0  0  0  0  0  0
  147.3853  138.1677  155.0292 H   0  0  0  0  0  0  0  0  0  0  0  0
  148.0001  135.9788  156.1227 H   0  0  0  0  0  0  0  0  0  0  0  0
  148.6824  136.1220  153.2290 H   0  0  0  0  0  0  0  0  0  0  0  0
  147.7905  134.8443  151.8881 H   0  0  0  0  0  0  0  0  0  0  0  0
  144.0234  135.6761  150.4159 H   0  0  0  0  0  0  0  0  0  0  0  0
  145.7755  135.8520  150.3366 H   0  0  0  0  0  0  0  0  0  0  0  0
  144.9252  136.0963  151.8707 H   0  0  0  0  0  0  0  0  0  0  0  0
  143.3483  133.4005  150.1466 H   0  0  0  0  0  0  0  0  0  0  0  0
  143.6629  131.0087  150.6478 H   0  0  0  0  0  0  0  0  0  0  0  0
  146.4687  129.4745  151.7886 H   0  0  0  0  0  0  0  0  0  0  0  0
  144.7558  129.2905  151.4564 H   0  0  0  0  0  0  0  0  0  0  0  0
  145.2915  129.6365  153.0967 H   0  0  0  0  0  0  0  0  0  0  0  0
  150.2863  136.3319  156.6563 H   0  0  0  0  0  0  0  0  0  0  0  0
  150.2584  135.0044  155.5226 H   0  0  0  0  0  0  0  0  0  0  0  0
  152.0529  136.7068  155.0112 H   0  0  0  0  0  0  0  0  0  0  0  0
  150.9398  136.5401  153.6704 H   0  0  0  0  0  0  0  0  0  0  0  0
  1  2  1  0  0  0  0
  1 25  1  0  0  0  0
  1 26  1  0  0  0  0
  1 27  1  0  0  0  0
  2  3  1  0  0  0  0
  2 28  1  0  0  0  0
  2 29  1  0  0  0  0
  3  4  1  0  0  0  0
  3  6  1  0  0  0  0
  3 30  1  0  0  0  0
  4  5  1  0  0  0  0
  4 31  1  0  0  0  0
  4 32  1  0  0  0  0
  5 33  1  0  0  0  0
  5 34  1  0  0  0  0
  5 35  1  0  0  0  0
  6 24  1  0  0  0  0
  6  7  1  0  0  0  0
  6 36  1  0  0  0  0
  7  8  1  0  0  0  0
  7 37  1  0  0  0  0
  7 38  1  0  0  0  0
  8  9  1  0  0  0  0
  8 22  1  0  0  0  0
  8 39  1  0  0  0  0
  9 10  1  0  0  0  0
  9 40  1  0  0  0  0
 10 11  2  0  0  0  0
 10 12  1  0  0  0  0
 12 13  1  0  0  0  0
 12 41  1  0  0  0  0
 13 20  1  0  0  0  0
 13 14  2  0  0  0  0
 14 15  1  0  0  0  0
 14 16  1  0  0  0  0
 15 42  1  0  0  0  0
 15 43  1  0  0  0  0
 15 44  1  0  0  0  0
 16 17  2  0  0  0  0
 16 45  1  0  0  0  0
 17 18  1  0  0  0  0
 17 46  1  0  0  0  0
 18 19  1  0  0  0  0
 18 20  1  0  0  0  0
 19 47  1  0  0  0  0
 19 48  1  0  0  0  0
 19 49  1  0  0  0  0
 20 21  2  0  0  0  0
 22 23  1  0  0  0  0
 22 50  1  0  0  0  0
 22 51  1  0  0  0  0
 23 24  1  0  0  0  0
 23 52  1  0  0  0  0
 23 53  1  0  0  0  0
M  END
> <s_m_source_file>
AV-unprocessed.smi

> <i_m_source_file_index>
2273

> <i_lp_mmshare_version>
43012

> <i_f3d_flags>
0

> <s_epik_input>
W0NIM11bQ0gyXVtDSF0oW0NIMl1bQ0gzXSlbQ0BASF0xW0NIMl1bQ0BIXShbQ0gyXVtDSDJdTzEpW05IXUMoPU8pW05IXWMyYyhbQ0gzXSlbY0hdW2NIXW4oW0NIM10pYzI9Tw==

> <s_epik_cmdline>
J2VwaWtfcHl0aG9uJywgJy1waCcsICc3LjAnLCAnLXRuJywgJzgnLCAnLW1hJywgJzIwMCcsICctbWV0YWxfYmluZGluZycsICctaW1hZScsICc8aW5maWxlLm1hZT4nLCAnLW9tYWUnLCAnPG91dGZpbGUubWFlPic=

> <r_lp_tautomer_probability>
1

> <r_epik_Ionization_Penalty>
2.66245e-05

> <r_epik_Ionization_Penalty_Charging>
6.91055e-06

> <r_epik_Ionization_Penalty_Neutral>
1.97139e-05

> <r_epik_State_Penalty>
-0

> <r_epik_Charging_Adjusted_Penalty>
6.91055e-06

> <i_epik_Tot_Q>
0

> <i_epik_Tot_abs_Q>
0

> <r_epik_Metal_State_Penalty>
-0

> <b_epik_Metal_Only>
0

> <s_lp_Force_Field>
OPLS_2005

> <r_lp_Energy>
42.8548

> <b_lp_Chiralities_Consistent>
1

> <s_lp_Variant>
AV-unprocessed.smi:2273-1

> <Gold.Version>
5.8.1

> <Gold.Id.Protein>
6NUR|6NUR_protein|mol2

> <Gold.PLP.Fitness>
44.7718

> <Gold.PLP.PLP>
-41.1425

> <Gold.PLP.part.hbond>
-1.5245

> <Gold.PLP.part.metal>
0.0000

> <Gold.PLP.part.buried>
-6.3413

> <Gold.PLP.part.nonpolar>
-34.5490

> <Gold.PLP.part.repulsive>
0.2897

> <Gold.PLP.ligand.clash>
0.0000

> <Gold.PLP.ligand.torsion>
0.8058

> <Gold.PLP.Chemscore.Hbond>
1.5478

> <Gold.PLP.Chemscore.CHOScore>
0.0000

> <Gold.PLP.Chemscore.Metal>
0.0000

> <Gold.Chemscore.Hbonds>
donor molecule, donor type, donor heavy atom, donor atom, acceptor molecule, acceptor atom, score
      L1  H     9    40       P1  7948  0.65
      L1  H    12    41       P1  7948  0.74

> <Gold.PLP.Chemscore.Internal.Correction>
0.5977

> <Gold.Rescore>
     Score         DG    S(hbond)    S(metal)    S(lipo)     H(rot)  DE(clash)    DE(int)     intcor
     15.66     -17.83       1.80        0.00      85.21       1.42       0.08       2.09       ----

> <Gold.Chemscore.Fitness>
15.6620

> <Gold.Chemscore.DG>
-17.8320

> <Gold.Chemscore.ZeroCoef>
-5.4800

> <Gold.Chemscore.Hbond>
1.8045

> <Gold.Chemscore.Metal>
0.0000

> <Gold.Chemscore.Lipo>
85.2100

> <Gold.Chemscore.Internal_Hbond>
0.0000

> <Gold.Chemscore.DEClash>
0.0821

> <Gold.Chemscore.DEInternal>
2.0878

> <Gold.Chemscore.Rot>
1.4236

> <Gold.Chemscore.Internal.Correction>
   9.000000E+99

> <Gold.Chemscore.Hbonds>
donor molecule, donor type, donor heavy atom, donor atom, acceptor molecule, acceptor atom, score
      L1  H     9    40       P1  7948  0.64
      L1  H    12    41       P1  7948  0.37

> <Gold.Chemscore.Hbond.Weighted>
-6.0269

> <Gold.Chemscore.Metal.Weighted>
-0.0000

> <Gold.Chemscore.Lipo.Weighted>
-9.9696

> <Gold.Chemscore.Internal_Hbond.Weighted>
0.0000

> <Gold.Chemscore.DEClash.Weighted>
0.0821

> <Gold.Chemscore.DEInternal.Weighted>
2.0878

> <Gold.Chemscore.Rot.Weighted>
3.6445

> <Gold.Chemscore.Internal.Correction.Weighted>
   9.000000E+99

> <Gold.Protein.RotatedTorsions>
[ 6907 6896 6895 6894 ] final    9.83 input  -60.11 | X-H torsion
[ 7974 7965 7964 7962 ] final  -93.48 input  175.53 | X-H torsion
[ 8008 7997 7996 7995 ] final -134.51 input   59.86 | X-H torsion
[ 10167 10162 10161 10158 ] final -145.58 input  -65.29 | X-H torsion
[ 10718 10713 10712 10709 ] final -115.45 input   66.30 | X-H torsion
[ 10763 10752 10751 10750 ] final   63.16 input  -60.55 | X-H torsion
[ 11005 11000 10999 10996 ] final -166.98 input  -57.11 | X-H torsion

> <Gold.Protein.ActiveResidues>
 VAL166  LYS551  ARG553  GLY616  TRP617  ASP618  TYR619  PRO620  LYS621  CYS622 
 ASP623  PHE694  ASN695  SER759  ASP760  ASP761  ALA762  ILE779  LEU786  VAL792 
 PHE793  MET794  SER795  GLU796  ALA797  LYS798  CYS799  TRP800  GLU811  SER814 

> <Gold.Protein.RotatedAtoms>
  151.7284  135.0880  160.0295 H   0  0  0  0  0  0  0  0  0  0  0  0  # atno 6907 bound_to 6896
  152.3557  133.6230  159.5986 H   0  0  0  0  0  0  0  0  0  0  0  0  # atno 6908 bound_to 6896
  150.7569  133.9420  159.3500 H   0  0  0  0  0  0  0  0  0  0  0  0  # atno 6909 bound_to 6896
  145.3860  140.9523  143.2367 H   0  0  0  0  0  0  0  0  0  0  0  0  # atno 7974 bound_to 7965
  155.3633  140.0484  157.3046 H   0  0  0  0  0  0  0  0  0  0  0  0  # atno 8008 bound_to 7997
  154.5167  140.2210  155.9016 H   0  0  0  0  0  0  0  0  0  0  0  0  # atno 8009 bound_to 7997
  156.1644  140.3109  155.8869 H   0  0  0  0  0  0  0  0  0  0  0  0  # atno 8010 bound_to 7997
  139.7792  143.8125  152.2636 H   0  0  0  0  0  0  0  0  0  0  0  0  # atno 10167 bound_to 10162
  156.0896  130.6081  150.8907 H   0  0  0  0  0  0  0  0  0  0  0  0  # atno 10718 bound_to 10713
  153.0008  135.5439  154.6308 H   0  0  0  0  0  0  0  0  0  0  0  0  # atno 10763 bound_to 10752
  154.5586  135.2832  155.0943 H   0  0  0  0  0  0  0  0  0  0  0  0  # atno 10764 bound_to 10752
  154.2154  135.6460  153.5180 H   0  0  0  0  0  0  0  0  0  0  0  0  # atno 10765 bound_to 10752
  140.5584  134.5358  157.5138 H   0  0  0  0  0  0  0  0  0  0  0  0  # atno 11005 bound_to 11000
  144.8474  139.5376  143.6872 LP  0  0  0  0  0  0  0  0  0  0  0  0  # atno 17320 bound_to 7965
  146.2820  139.6902  142.9222 LP  0  0  0  0  0  0  0  0  0  0  0  0  # atno 17321 bound_to 7965
  139.8183  144.7307  150.9607 LP  0  0  0  0  0  0  0  0  0  0  0  0  # atno 17342 bound_to 10162
  140.7817  143.4184  151.0881 LP  0  0  0  0  0  0  0  0  0  0  0  0  # atno 17343 bound_to 10162
  157.6042  131.0940  150.8908 LP  0  0  0  0  0  0  0  0  0  0  0  0  # atno 17370 bound_to 10713
  156.9060  130.5263  149.5281 LP  0  0  0  0  0  0  0  0  0  0  0  0  # atno 17371 bound_to 10713
  139.9420  134.7770  156.0655 LP  0  0  0  0  0  0  0  0  0  0  0  0  # atno 17394 bound_to 11000
  141.1129  133.6637  156.3024 LP  0  0  0  0  0  0  0  0  0  0  0  0  # atno 17395 bound_to 11000

$$$$
