AV-unprocessed.smi:2949|AV-procd|sdf|11285|dock1
  -GOLD-   2272016173D 1   1.00000     0.00000
 Structure written by MMmdl.
 35 36  0  0  0  0  0  0  0  0  2 V2000
  149.6971  138.3052  153.3736 N   0  0  0  0  0  0  0  0  0  0  0  0
  149.0609  139.4003  153.7967 C   0  0  0  0  0  0  0  0  0  0  0  0
  149.7551  140.6033  154.8417 S   0  0  0  0  0  0  0  0  0  0  0  0
  148.2780  141.5171  154.7868 C   0  0  0  0  0  0  0  0  0  0  0  0
  147.3371  140.9027  154.0033 C   0  0  0  0  0  0  0  0  0  0  0  0
  147.7926  139.7068  153.4515 N   0  3  0  0  0  0  0  0  0  0  0  0
  146.9632  138.8682  152.5624 C   0  0  0  0  0  0  0  0  0  0  0  0
  146.0980  137.8512  153.3205 C   0  0  0  0  0  0  0  0  0  0  0  0
  146.6301  136.9045  153.9065 O   0  0  0  0  0  0  0  0  0  0  0  0
  144.7697  138.1029  153.2755 N   0  0  0  0  0  0  0  0  0  0  0  0
  143.7180  137.4360  153.8087 C   0  0  0  0  0  0  0  0  0  0  0  0
  143.8583  136.2954  154.2466 O   0  0  0  0  0  0  0  0  0  0  0  0
  142.5335  138.0754  153.8338 N   0  0  0  0  0  0  0  0  0  0  0  0
  141.4059  137.7351  154.6964 C   0  0  0  0  0  0  0  0  0  0  0  0
  140.8334  136.3401  154.3679 C   0  0  0  0  0  0  0  0  0  0  0  0
  139.3247  136.5290  154.1978 C   0  0  0  0  0  0  0  0  0  0  0  0
  139.1765  137.9674  153.7127 C   0  0  0  0  0  0  0  0  0  0  0  0
  140.2513  138.7310  154.4860 C   0  0  0  0  0  0  0  0  0  0  0  0
  149.2628  137.6298  152.7612 H   0  0  0  0  0  0  0  0  0  0  0  0
  148.1936  142.4475  155.3292 H   0  0  0  0  0  0  0  0  0  0  0  0
  146.3327  141.2293  153.7741 H   0  0  0  0  0  0  0  0  0  0  0  0
  146.3369  139.5128  151.9440 H   0  0  0  0  0  0  0  0  0  0  0  0
  147.6301  138.3353  151.8831 H   0  0  0  0  0  0  0  0  0  0  0  0
  144.5139  138.9283  152.7531 H   0  0  0  0  0  0  0  0  0  0  0  0
  142.4093  138.8630  153.2133 H   0  0  0  0  0  0  0  0  0  0  0  0
  141.7239  137.7787  155.7398 H   0  0  0  0  0  0  0  0  0  0  0  0
  141.2509  135.9613  153.4335 H   0  0  0  0  0  0  0  0  0  0  0  0
  141.0658  135.6089  155.1428 H   0  0  0  0  0  0  0  0  0  0  0  0
  138.8854  135.8054  153.5105 H   0  0  0  0  0  0  0  0  0  0  0  0
  138.8289  136.4157  155.1628 H   0  0  0  0  0  0  0  0  0  0  0  0
  139.3859  138.0182  152.6433 H   0  0  0  0  0  0  0  0  0  0  0  0
  138.1755  138.3671  153.8772 H   0  0  0  0  0  0  0  0  0  0  0  0
  139.8507  139.0253  155.4571 H   0  0  0  0  0  0  0  0  0  0  0  0
  140.5539  139.6462  153.9749 H   0  0  0  0  0  0  0  0  0  0  0  0
  150.6549  138.1059  153.6244 H   0  0  0  0  0  0  0  0  0  0  0  0
  1  2  1  0  0  0  0
  1 19  1  0  0  0  0
  1 35  1  0  0  0  0
  2  6  2  0  0  0  0
  2  3  1  0  0  0  0
  3  4  1  0  0  0  0
  4  5  2  0  0  0  0
  4 20  1  0  0  0  0
  5  6  1  0  0  0  0
  5 21  1  0  0  0  0
  6  7  1  0  0  0  0
  7  8  1  0  0  0  0
  7 22  1  0  0  0  0
  7 23  1  0  0  0  0
  8  9  2  0  0  0  0
  8 10  1  0  0  0  0
 10 11  1  0  0  0  0
 10 24  1  0  0  0  0
 11 12  2  0  0  0  0
 11 13  1  0  0  0  0
 13 14  1  0  0  0  0
 13 25  1  0  0  0  0
 14 18  1  0  0  0  0
 14 15  1  0  0  0  0
 14 26  1  0  0  0  0
 15 16  1  0  0  0  0
 15 27  1  0  0  0  0
 15 28  1  0  0  0  0
 16 17  1  0  0  0  0
 16 29  1  0  0  0  0
 16 30  1  0  0  0  0
 17 18  1  0  0  0  0
 17 31  1  0  0  0  0
 17 32  1  0  0  0  0
 18 33  1  0  0  0  0
 18 34  1  0  0  0  0
M  CHG  1   6   1
M  END
> <s_m_source_file>
AV-unprocessed.smi

> <i_m_source_file_index>
2949

> <i_lp_mmshare_version>
43012

> <i_f3d_flags>
0

> <s_epik_input>
W0hdL049YzFcc1tjSF1bY0hdbjFbQ0gyXUMoPU8pW05IXUMoPU8pW05IXVtDSF0yW0NIMl1bQ0gyXVtDSDJdW0NIMl0y

> <s_epik_cmdline>
J2VwaWtfcHl0aG9uJywgJy1waCcsICc3LjAnLCAnLXRuJywgJzgnLCAnLW1hJywgJzIwMCcsICctbWV0YWxfYmluZGluZycsICctaW1hZScsICc8aW5maWxlLm1hZT4nLCAnLW9tYWUnLCAnPG91dGZpbGUubWFlPic=

> <r_lp_tautomer_probability>
1

> <r_epik_Ionization_Penalty>
0.019454

> <r_epik_Ionization_Penalty_Charging>
0

> <r_epik_Ionization_Penalty_Neutral>
0.019454

> <r_epik_State_Penalty>
0.0306361

> <r_epik_Charging_Adjusted_Penalty>
0.0306361

> <i_epik_Tot_Q>
1

> <i_epik_Tot_abs_Q>
1

> <r_epik_Metal_State_Penalty>
0.0306361

> <b_epik_Metal_Only>
0

> <s_lp_Force_Field>
OPLS_2005

> <r_lp_Energy>
26.5716

> <b_lp_Chiralities_Consistent>
1

> <s_lp_Variant>
AV-unprocessed.smi:2949-1

> <Gold.Version>
5.8.1

> <Gold.Id.Protein>
6NUR|6NUR_protein|mol2

> <Gold.PLP.Fitness>
43.2284

> <Gold.PLP.PLP>
-30.7514

> <Gold.PLP.part.hbond>
-4.0000

> <Gold.PLP.part.metal>
0.0000

> <Gold.PLP.part.buried>
0.4054

> <Gold.PLP.part.nonpolar>
-27.8680

> <Gold.PLP.part.repulsive>
0.2119

> <Gold.PLP.ligand.clash>
0.0000

> <Gold.PLP.ligand.torsion>
0.5827

> <Gold.PLP.Chemscore.Hbond>
3.5360

> <Gold.PLP.Chemscore.CHOScore>
1.0000

> <Gold.PLP.Chemscore.Metal>
0.0000

> <Gold.Chemscore.Hbonds>
donor molecule, donor type, donor heavy atom, donor atom, acceptor molecule, acceptor atom, score
      L1  H     1    19       P1  7948  2.00
      L1  H    10    24       P1 10175  1.00
      L1  H    13    25       P1 10175  0.60
      L1  C     4    20       P1  8028  1.00

> <Gold.PLP.Chemscore.Internal.Correction>
0.0344

> <Gold.Rescore>
     Score         DG    S(hbond)    S(metal)    S(lipo)     H(rot)  DE(clash)    DE(int)     intcor
     15.00     -16.94       2.76        0.00      57.05       1.73       0.00       1.95       ----

> <Gold.Chemscore.Fitness>
14.9957

> <Gold.Chemscore.DG>
-16.9435

> <Gold.Chemscore.ZeroCoef>
-5.4800

> <Gold.Chemscore.Hbond>
2.7589

> <Gold.Chemscore.Metal>
0.0000

> <Gold.Chemscore.Lipo>
57.0523

> <Gold.Chemscore.Internal_Hbond>
0.0000

> <Gold.Chemscore.DEClash>
0.0004

> <Gold.Chemscore.DEInternal>
1.9473

> <Gold.Chemscore.Rot>
1.7291

> <Gold.Chemscore.Internal.Correction>
   9.000000E+99

> <Gold.Chemscore.Hbonds>
donor molecule, donor type, donor heavy atom, donor atom, acceptor molecule, acceptor atom, score
      L1  H     1    19       P1  7948  0.95
      L1  H    10    24       P1 10175  0.99
      L1  H    13    25       P1 10175  0.58

> <Gold.Chemscore.Hbond.Weighted>
-9.2148

> <Gold.Chemscore.Metal.Weighted>
-0.0000

> <Gold.Chemscore.Lipo.Weighted>
-6.6751

> <Gold.Chemscore.Internal_Hbond.Weighted>
0.0000

> <Gold.Chemscore.DEClash.Weighted>
0.0004

> <Gold.Chemscore.DEInternal.Weighted>
1.9473

> <Gold.Chemscore.Rot.Weighted>
4.4265

> <Gold.Chemscore.Internal.Correction.Weighted>
   9.000000E+99

> <Gold.Protein.RotatedTorsions>
[ 6907 6896 6895 6894 ] final  113.28 input  -60.11 | X-H torsion
[ 7974 7965 7964 7962 ] final  -95.79 input  175.53 | X-H torsion
[ 8008 7997 7996 7995 ] final  -28.24 input   59.86 | X-H torsion
[ 10167 10162 10161 10158 ] final -141.03 input  -65.29 | X-H torsion
[ 10718 10713 10712 10709 ] final -178.25 input   66.30 | X-H torsion
[ 10763 10752 10751 10750 ] final  124.06 input  -60.55 | X-H torsion
[ 11005 11000 10999 10996 ] final   61.86 input  -57.11 | X-H torsion

> <Gold.Protein.ActiveResidues>
 VAL166  LYS551  ARG553  GLY616  TRP617  ASP618  TYR619  PRO620  LYS621  CYS622 
 ASP623  PHE694  ASN695  SER759  ASP760  ASP761  ALA762  ILE779  LEU786  VAL792 
 PHE793  MET794  SER795  GLU796  ALA797  LYS798  CYS799  TRP800  GLU811  SER814 

> <Gold.Protein.RotatedAtoms>
  152.4870  133.8398  159.7146 H   0  0  0  0  0  0  0  0  0  0  0  0  # atno 6907 bound_to 6896
  150.8964  133.7165  159.2897 H   0  0  0  0  0  0  0  0  0  0  0  0  # atno 6908 bound_to 6896
  151.4621  135.1043  159.9780 H   0  0  0  0  0  0  0  0  0  0  0  0  # atno 6909 bound_to 6896
  145.3554  140.9483  143.2531 H   0  0  0  0  0  0  0  0  0  0  0  0  # atno 7974 bound_to 7965
  154.4341  140.1850  156.1059 H   0  0  0  0  0  0  0  0  0  0  0  0  # atno 8008 bound_to 7997
  156.0256  140.3336  155.7059 H   0  0  0  0  0  0  0  0  0  0  0  0  # atno 8009 bound_to 7997
  155.5913  140.0631  157.2748 H   0  0  0  0  0  0  0  0  0  0  0  0  # atno 8010 bound_to 7997
  139.8224  143.7556  152.2666 H   0  0  0  0  0  0  0  0  0  0  0  0  # atno 10167 bound_to 10162
  156.8416  130.9688  151.3099 H   0  0  0  0  0  0  0  0  0  0  0  0  # atno 10718 bound_to 10713
  153.6554  135.3355  155.3112 H   0  0  0  0  0  0  0  0  0  0  0  0  # atno 10763 bound_to 10752
  154.8527  135.4351  154.1860 H   0  0  0  0  0  0  0  0  0  0  0  0  # atno 10764 bound_to 10752
  153.2813  135.7009  153.7458 H   0  0  0  0  0  0  0  0  0  0  0  0  # atno 10765 bound_to 10752
  140.0132  134.6264  155.9749 H   0  0  0  0  0  0  0  0  0  0  0  0  # atno 11005 bound_to 11000
  144.8686  139.5071  143.6778 LP  0  0  0  0  0  0  0  0  0  0  0  0  # atno 17320 bound_to 7965
  146.2950  139.7251  142.9133 LP  0  0  0  0  0  0  0  0  0  0  0  0  # atno 17321 bound_to 7965
  139.7738  144.7467  151.0185 LP  0  0  0  0  0  0  0  0  0  0  0  0  # atno 17342 bound_to 10162
  140.7812  143.4615  151.0271 LP  0  0  0  0  0  0  0  0  0  0  0  0  # atno 17343 bound_to 10162
  157.6353  130.8761  149.9347 LP  0  0  0  0  0  0  0  0  0  0  0  0  # atno 17370 bound_to 10713
  156.0878  130.3666  150.0454 LP  0  0  0  0  0  0  0  0  0  0  0  0  # atno 17371 bound_to 10713
  141.1725  133.6538  156.4705 LP  0  0  0  0  0  0  0  0  0  0  0  0  # atno 17394 bound_to 11000
  140.4517  134.6922  157.5043 LP  0  0  0  0  0  0  0  0  0  0  0  0  # atno 17395 bound_to 11000

$$$$
