AV-unprocessed.smi:1936|AV-procd|sdf|7832|dock10
  -GOLD-   22720 9583D 1   1.00000     0.00000
 Structure written by MMmdl.
 39 40  0  0  0  0  0  0  0  0  2 V2000
  146.0584  135.2462  155.6659 C   0  0  0  0  0  0  0  0  0  0  0  0
  146.9277  136.0974  154.7307 C   0  0  1  0  0  0  0  0  0  0  0  0
  148.4009  136.1319  155.1985 C   0  0  0  0  0  0  0  0  0  0  0  0
  149.1821  137.2214  154.5590 N   0  3  0  0  0  0  0  0  0  0  0  0
  148.7097  138.5792  154.9201 C   0  0  0  0  0  0  0  0  0  0  0  0
  149.5069  139.6394  154.1436 C   0  0  0  0  0  0  0  0  0  0  0  0
  150.8940  139.4870  154.4211 O   0  0  0  0  0  0  0  0  0  0  0  0
  151.3828  138.2152  154.0131 C   0  0  0  0  0  0  0  0  0  0  0  0
  150.6422  137.1040  154.7768 C   0  0  0  0  0  0  0  0  0  0  0  0
  146.8364  135.5694  153.3701 N   0  0  0  0  0  0  0  0  0  0  0  0
  145.7086  135.2024  152.7404 C   0  0  0  0  0  0  0  0  0  0  0  0
  144.6030  135.1729  153.2800 O   0  0  0  0  0  0  0  0  0  0  0  0
  145.8416  134.8819  151.2531 C   0  0  0  0  0  0  0  0  0  0  0  0
  145.1945  133.6171  150.9500 N   0  0  0  0  0  0  0  0  0  0  0  0
  145.7782  132.3847  150.7436 C   0  0  0  0  0  0  0  0  0  0  0  0
  144.7721  131.4936  150.5021 C   0  0  0  0  0  0  0  0  0  0  0  0
  143.5922  132.2843  150.5826 C   0  0  0  0  0  0  0  0  0  0  0  0
  143.8473  133.5533  150.8571 N   0  0  0  0  0  0  0  0  0  0  0  0
  146.0869  135.6321  156.6853 H   0  0  0  0  0  0  0  0  0  0  0  0
  146.3974  134.2099  155.6930 H   0  0  0  0  0  0  0  0  0  0  0  0
  145.0165  135.2474  155.3433 H   0  0  0  0  0  0  0  0  0  0  0  0
  146.5235  137.1103  154.7566 H   0  0  0  0  0  0  0  0  0  0  0  0
  148.4644  136.2154  156.2844 H   0  0  0  0  0  0  0  0  0  0  0  0
  148.8573  135.1746  154.9411 H   0  0  0  0  0  0  0  0  0  0  0  0
  147.6487  138.6848  154.6955 H   0  0  0  0  0  0  0  0  0  0  0  0
  148.8262  138.7363  155.9936 H   0  0  0  0  0  0  0  0  0  0  0  0
  149.3247  139.5550  153.0707 H   0  0  0  0  0  0  0  0  0  0  0  0
  149.1936  140.6396  154.4432 H   0  0  0  0  0  0  0  0  0  0  0  0
  151.2578  138.0967  152.9360 H   0  0  0  0  0  0  0  0  0  0  0  0
  152.4524  138.1640  154.2171 H   0  0  0  0  0  0  0  0  0  0  0  0
  150.8616  137.1677  155.8438 H   0  0  0  0  0  0  0  0  0  0  0  0
  150.9921  136.1304  154.4314 H   0  0  0  0  0  0  0  0  0  0  0  0
  147.6936  135.5521  152.8357 H   0  0  0  0  0  0  0  0  0  0  0  0
  145.3971  135.6713  150.6445 H   0  0  0  0  0  0  0  0  0  0  0  0
  146.8958  134.8176  150.9801 H   0  0  0  0  0  0  0  0  0  0  0  0
  146.8486  132.2463  150.7859 H   0  0  0  0  0  0  0  0  0  0  0  0
  144.8646  130.4372  150.2974 H   0  0  0  0  0  0  0  0  0  0  0  0
  142.5652  131.9751  150.4562 H   0  0  0  0  0  0  0  0  0  0  0  0
  149.0417  137.1182  153.5637 H   0  0  0  0  0  0  0  0  0  0  0  0
  1  2  1  0  0  0  0
  1 19  1  0  0  0  0
  1 20  1  0  0  0  0
  1 21  1  0  0  0  0
  2  3  1  0  0  0  0
  2 10  1  0  0  0  0
  2 22  1  0  0  0  0
  3  4  1  0  0  0  0
  3 23  1  0  0  0  0
  3 24  1  0  0  0  0
  4  9  1  0  0  0  0
  4  5  1  0  0  0  0
  4 39  1  0  0  0  0
  5  6  1  0  0  0  0
  5 25  1  0  0  0  0
  5 26  1  0  0  0  0
  6  7  1  0  0  0  0
  6 27  1  0  0  0  0
  6 28  1  0  0  0  0
  7  8  1  0  0  0  0
  8  9  1  0  0  0  0
  8 29  1  0  0  0  0
  8 30  1  0  0  0  0
  9 31  1  0  0  0  0
  9 32  1  0  0  0  0
 10 11  1  0  0  0  0
 10 33  1  0  0  0  0
 11 12  2  0  0  0  0
 11 13  1  0  0  0  0
 13 14  1  0  0  0  0
 13 34  1  0  0  0  0
 13 35  1  0  0  0  0
 14 18  1  0  0  0  0
 14 15  1  0  0  0  0
 15 16  2  0  0  0  0
 15 36  1  0  0  0  0
 16 17  1  0  0  0  0
 16 37  1  0  0  0  0
 17 18  2  0  0  0  0
 17 38  1  0  0  0  0
M  CHG  1   4   1
M  END
> <s_m_source_file>
AV-unprocessed.smi

> <i_m_source_file_index>
1936

> <i_lp_mmshare_version>
43012

> <i_f3d_flags>
0

> <s_epik_input>
W0NIMl0xW0NIMl1PW0NIMl1bQ0gyXU4xW0NIMl1bQ0BASF0oW0NIM10pW05IXUMoPU8pW0NIMl1uMltjSF1bY0hdW2NIXW4y

> <s_epik_cmdline>
J2VwaWtfcHl0aG9uJywgJy1waCcsICc3LjAnLCAnLXRuJywgJzgnLCAnLW1hJywgJzIwMCcsICctbWV0YWxfYmluZGluZycsICctaW1hZScsICc8aW5maWxlLm1hZT4nLCAnLW9tYWUnLCAnPG91dGZpbGUubWFlPic=

> <r_lp_tautomer_probability>
1

> <r_epik_Ionization_Penalty>
0.748405

> <r_epik_Ionization_Penalty_Charging>
0.748396

> <r_epik_Ionization_Penalty_Neutral>
9.02181e-06

> <r_epik_State_Penalty>
0.775162

> <r_epik_Charging_Adjusted_Penalty>
1.52356

> <i_epik_Tot_Q>
1

> <i_epik_Tot_abs_Q>
1

> <r_epik_Metal_State_Penalty>
0.775167

> <b_epik_Metal_Only>
0

> <s_lp_Force_Field>
OPLS_2005

> <r_lp_Energy>
20.1582

> <b_lp_Chiralities_Consistent>
1

> <s_lp_Variant>
AV-unprocessed.smi:1936-4

> <Gold.Version>
5.8.1

> <Gold.Id.Protein>
6NUR|6NUR_protein|mol2

> <Gold.PLP.Fitness>
43.5774

> <Gold.PLP.PLP>
-27.1719

> <Gold.PLP.part.hbond>
-3.0000

> <Gold.PLP.part.metal>
0.0000

> <Gold.PLP.part.buried>
-5.6190

> <Gold.PLP.part.nonpolar>
-19.6863

> <Gold.PLP.part.repulsive>
0.3485

> <Gold.PLP.ligand.clash>
0.0000

> <Gold.PLP.ligand.torsion>
0.6230

> <Gold.PLP.Chemscore.Hbond>
4.0000

> <Gold.PLP.Chemscore.CHOScore>
1.8715

> <Gold.PLP.Chemscore.Metal>
0.0000

> <Gold.Chemscore.Hbonds>
donor molecule, donor type, donor heavy atom, donor atom, acceptor molecule, acceptor atom, score
      L1  H     4    39       P1  7948  2.00
      L1  H    10    33       P1  7948  1.00
      P1  H  7989  7998       L1     7  1.00
      L1  C    15    36       P1 10747  0.85
      L1  C    17    38       P1 10952  0.98

> <Gold.PLP.Chemscore.Internal.Correction>
0.0368

> <Gold.Rescore>
     Score         DG    S(hbond)    S(metal)    S(lipo)     H(rot)  DE(clash)    DE(int)     intcor
     12.61     -17.15       2.71        0.00      64.83       1.93       1.43       3.11       ----

> <Gold.Chemscore.Fitness>
12.6097

> <Gold.Chemscore.DG>
-17.1539

> <Gold.Chemscore.ZeroCoef>
-5.4800

> <Gold.Chemscore.Hbond>
2.7067

> <Gold.Chemscore.Metal>
0.0000

> <Gold.Chemscore.Lipo>
64.8268

> <Gold.Chemscore.Internal_Hbond>
0.0000

> <Gold.Chemscore.DEClash>
1.4342

> <Gold.Chemscore.DEInternal>
3.1100

> <Gold.Chemscore.Rot>
1.9340

> <Gold.Chemscore.Internal.Correction>
   9.000000E+99

> <Gold.Chemscore.Hbonds>
donor molecule, donor type, donor heavy atom, donor atom, acceptor molecule, acceptor atom, score
      L1  H     4    39       P1  7948  0.99
      L1  H    10    33       P1  7948  0.99
      P1  H  7989  7998       L1     7  0.34

> <Gold.Chemscore.Hbond.Weighted>
-9.0403

> <Gold.Chemscore.Metal.Weighted>
-0.0000

> <Gold.Chemscore.Lipo.Weighted>
-7.5847

> <Gold.Chemscore.Internal_Hbond.Weighted>
0.0000

> <Gold.Chemscore.DEClash.Weighted>
1.4342

> <Gold.Chemscore.DEInternal.Weighted>
3.1100

> <Gold.Chemscore.Rot.Weighted>
4.9510

> <Gold.Chemscore.Internal.Correction.Weighted>
   9.000000E+99

> <Gold.Protein.RotatedTorsions>
[ 6907 6896 6895 6894 ] final    5.17 input  -60.11 | X-H torsion
[ 7974 7965 7964 7962 ] final  103.95 input  175.53 | X-H torsion
[ 8008 7997 7996 7995 ] final  137.03 input   59.86 | X-H torsion
[ 10167 10162 10161 10158 ] final  -88.32 input  -65.29 | X-H torsion
[ 10718 10713 10712 10709 ] final   17.94 input   66.30 | X-H torsion
[ 10763 10752 10751 10750 ] final -128.96 input  -60.55 | X-H torsion
[ 11005 11000 10999 10996 ] final -158.64 input  -57.11 | X-H torsion

> <Gold.Protein.ActiveResidues>
 VAL166  LYS551  ARG553  GLY616  TRP617  ASP618  TYR619  PRO620  LYS621  CYS622 
 ASP623  PHE694  ASN695  SER759  ASP760  ASP761  ALA762  ILE779  LEU786  VAL792 
 PHE793  MET794  SER795  GLU796  ALA797  LYS798  CYS799  TRP800  GLU811  SER814 

> <Gold.Protein.RotatedAtoms>
  151.6532  135.0999  160.0164 H   0  0  0  0  0  0  0  0  0  0  0  0  # atno 6907 bound_to 6896
  152.3989  133.6783  159.6308 H   0  0  0  0  0  0  0  0  0  0  0  0  # atno 6908 bound_to 6896
  150.7892  133.8743  159.3308 H   0  0  0  0  0  0  0  0  0  0  0  0  # atno 6909 bound_to 6896
  145.3392  139.2466  143.3618 H   0  0  0  0  0  0  0  0  0  0  0  0  # atno 7974 bound_to 7965
  156.3003  140.2430  156.3843 H   0  0  0  0  0  0  0  0  0  0  0  0  # atno 8008 bound_to 7997
  154.8673  140.0417  157.1722 H   0  0  0  0  0  0  0  0  0  0  0  0  # atno 8009 bound_to 7997
  154.8833  140.2952  155.5416 H   0  0  0  0  0  0  0  0  0  0  0  0  # atno 8010 bound_to 7997
  140.3758  143.2772  151.9445 H   0  0  0  0  0  0  0  0  0  0  0  0  # atno 10167 bound_to 10162
  157.0893  130.6421  149.5845 H   0  0  0  0  0  0  0  0  0  0  0  0  # atno 10718 bound_to 10713
  154.8757  135.3911  154.3842 H   0  0  0  0  0  0  0  0  0  0  0  0  # atno 10763 bound_to 10752
  153.4586  135.7029  153.6069 H   0  0  0  0  0  0  0  0  0  0  0  0  # atno 10764 bound_to 10752
  153.4578  135.3819  155.2289 H   0  0  0  0  0  0  0  0  0  0  0  0  # atno 10765 bound_to 10752
  140.6513  134.4447  157.5235 H   0  0  0  0  0  0  0  0  0  0  0  0  # atno 11005 bound_to 11000
  146.3014  140.3986  142.8702 LP  0  0  0  0  0  0  0  0  0  0  0  0  # atno 17320 bound_to 7965
  144.8803  140.7392  143.5991 LP  0  0  0  0  0  0  0  0  0  0  0  0  # atno 17321 bound_to 7965
  139.4799  144.5865  151.7845 LP  0  0  0  0  0  0  0  0  0  0  0  0  # atno 17342 bound_to 10162
  140.4988  144.1201  150.5966 LP  0  0  0  0  0  0  0  0  0  0  0  0  # atno 17343 bound_to 10162
  155.9902  130.4952  150.7248 LP  0  0  0  0  0  0  0  0  0  0  0  0  # atno 17370 bound_to 10713
  157.4734  131.0895  151.0617 LP  0  0  0  0  0  0  0  0  0  0  0  0  # atno 17371 bound_to 10713
  139.9045  134.8481  156.1762 LP  0  0  0  0  0  0  0  0  0  0  0  0  # atno 17394 bound_to 11000
  141.0534  133.6877  156.1815 LP  0  0  0  0  0  0  0  0  0  0  0  0  # atno 17395 bound_to 11000

$$$$
