AV-unprocessed.smi:1452|AV-procd|sdf|5910|dock8
  -GOLD-   22720 5593D 1   1.00000     0.00000
 Structure written by MMmdl.
 40 42  0  0  0  0  0  0  0  0  2 V2000
  152.9542  139.5913  156.3446 O   0  0  0  0  0  0  0  0  0  0  0  0
  152.0390  140.1808  156.9169 C   0  0  0  0  0  0  0  0  0  0  0  0
  152.1889  140.6448  158.1760 N   0  0  0  0  0  0  0  0  0  0  0  0
  153.2890  140.5858  159.0824 C   0  0  0  0  0  0  0  0  0  0  0  0
  153.1307  141.3735  160.2451 C   0  0  0  0  0  0  0  0  0  0  0  0
  154.1509  141.3967  161.2156 C   0  0  0  0  0  0  0  0  0  0  0  0
  155.3102  140.6313  160.9984 C   0  0  0  0  0  0  0  0  0  0  0  0
  155.3921  139.8755  159.8152 C   0  0  0  0  0  0  0  0  0  0  0  0
  154.4140  139.8509  158.8850 N   0  0  0  0  0  0  0  0  0  0  0  0
  150.8505  140.4099  156.3355 N   0  0  0  0  0  0  0  0  0  0  0  0
  150.4797  140.0283  154.9771 C   0  0  1  0  0  0  0  0  0  0  0  0
  150.6136  138.5163  154.7236 C   0  0  0  0  0  0  0  0  0  0  0  0
  149.4142  138.1432  153.8300 C   0  0  0  0  0  0  0  0  0  0  0  0
  148.7359  139.4193  153.5332 N   0  3  1  0  0  0  0  0  0  0  0  0
  147.3014  139.3533  153.1780 C   0  0  0  0  0  0  0  0  0  0  0  0
  146.7990  140.7679  152.8259 C   0  0  0  0  0  0  0  0  0  0  0  0
  147.1113  141.7812  153.9457 C   0  0  0  0  0  0  0  0  0  0  0  0
  148.6014  141.7377  154.3360 C   0  0  0  0  0  0  0  0  0  0  0  0
  149.0006  140.2940  154.6854 C   0  0  2  0  0  0  0  0  0  0  0  0
  151.3681  141.0978  158.5512 H   0  0  0  0  0  0  0  0  0  0  0  0
  152.2342  141.9572  160.3981 H   0  0  0  0  0  0  0  0  0  0  0  0
  154.0450  141.9925  162.1101 H   0  0  0  0  0  0  0  0  0  0  0  0
  156.1145  140.6235  161.7192 H   0  0  0  0  0  0  0  0  0  0  0  0
  156.2653  139.2744  159.6091 H   0  0  0  0  0  0  0  0  0  0  0  0
  150.1531  140.8988  156.8798 H   0  0  0  0  0  0  0  0  0  0  0  0
  151.0974  140.5554  154.2467 H   0  0  0  0  0  0  0  0  0  0  0  0
  151.5649  138.2820  154.2443 H   0  0  0  0  0  0  0  0  0  0  0  0
  150.5690  137.9495  155.6551 H   0  0  0  0  0  0  0  0  0  0  0  0
  149.7195  137.6446  152.9097 H   0  0  0  0  0  0  0  0  0  0  0  0
  148.7402  137.4760  154.3695 H   0  0  0  0  0  0  0  0  0  0  0  0
  147.1645  138.6830  152.3287 H   0  0  0  0  0  0  0  0  0  0  0  0
  146.7304  138.9411  154.0117 H   0  0  0  0  0  0  0  0  0  0  0  0
  147.2726  141.0989  151.9007 H   0  0  0  0  0  0  0  0  0  0  0  0
  145.7263  140.7454  152.6309 H   0  0  0  0  0  0  0  0  0  0  0  0
  146.8347  142.7875  153.6300 H   0  0  0  0  0  0  0  0  0  0  0  0
  146.5009  141.5529  154.8203 H   0  0  0  0  0  0  0  0  0  0  0  0
  149.2136  142.1096  153.5133 H   0  0  0  0  0  0  0  0  0  0  0  0
  148.7814  142.3988  155.1841 H   0  0  0  0  0  0  0  0  0  0  0  0
  148.4014  139.9464  155.5304 H   0  0  0  0  0  0  0  0  0  0  0  0
  149.2229  139.8276  152.7482 H   0  0  0  0  0  0  0  0  0  0  0  0
  1  2  2  0  0  0  0
  2  3  1  0  0  0  0
  2 10  1  0  0  0  0
  3  4  1  0  0  0  0
  3 20  1  0  0  0  0
  4  9  1  0  0  0  0
  4  5  2  0  0  0  0
  5  6  1  0  0  0  0
  5 21  1  0  0  0  0
  6  7  2  0  0  0  0
  6 22  1  0  0  0  0
  7  8  1  0  0  0  0
  7 23  1  0  0  0  0
  8  9  2  0  0  0  0
  8 24  1  0  0  0  0
 10 11  1  0  0  0  0
 10 25  1  0  0  0  0
 11 19  1  0  0  0  0
 11 12  1  0  0  0  0
 11 26  1  0  0  0  0
 12 13  1  0  0  0  0
 12 27  1  0  0  0  0
 12 28  1  0  0  0  0
 13 14  1  0  0  0  0
 13 29  1  0  0  0  0
 13 30  1  0  0  0  0
 14 19  1  0  0  0  0
 14 15  1  0  0  0  0
 14 40  1  0  0  0  0
 15 16  1  0  0  0  0
 15 31  1  0  0  0  0
 15 32  1  0  0  0  0
 16 17  1  0  0  0  0
 16 33  1  0  0  0  0
 16 34  1  0  0  0  0
 17 18  1  0  0  0  0
 17 35  1  0  0  0  0
 17 36  1  0  0  0  0
 18 19  1  0  0  0  0
 18 37  1  0  0  0  0
 18 38  1  0  0  0  0
 19 39  1  0  0  0  0
M  CHG  1  14   1
M  END
> <s_m_source_file>
AV-unprocessed.smi

> <i_m_source_file_index>
1452

> <i_lp_mmshare_version>
43012

> <i_f3d_flags>
0

> <s_epik_input>
W0NIMl0xW0NIMl1bQ0gyXVtDSDJdW0NASF0oTjEyKVtDQEBIXShbQ0gyXVtDSDJdMilbTkhdQyg9TylbTkhdYzNbY0hdW2NIXVtjSF1bY0hdbjM=

> <s_epik_cmdline>
J2VwaWtfcHl0aG9uJywgJy1waCcsICc3LjAnLCAnLXRuJywgJzgnLCAnLW1hJywgJzIwMCcsICctbWV0YWxfYmluZGluZycsICctaW1hZScsICc8aW5maWxlLm1hZT4nLCAnLW9tYWUnLCAnPG91dGZpbGUubWFlPic=

> <r_epik_Ionization_Penalty>
0.00100813

> <r_epik_Ionization_Penalty_Charging>
0.000974069

> <r_epik_Ionization_Penalty_Neutral>
3.40643e-05

> <r_epik_State_Penalty>
0.000633842

> <r_epik_Charging_Adjusted_Penalty>
0.00160791

> <i_epik_Tot_Q>
1

> <i_epik_Tot_abs_Q>
1

> <r_epik_Metal_State_Penalty>
-0

> <b_epik_Metal_Only>
0

> <s_lp_Force_Field>
OPLS_2005

> <r_lp_Energy>
38.162

> <b_lp_Chiralities_Consistent>
1

> <s_lp_Variant>
AV-unprocessed.smi:1452-8

> <Gold.Version>
5.8.1

> <Gold.Id.Protein>
6NUR|6NUR_protein|mol2

> <Gold.PLP.Fitness>
40.5322

> <Gold.PLP.PLP>
-32.8576

> <Gold.PLP.part.hbond>
-3.0000

> <Gold.PLP.part.metal>
0.0000

> <Gold.PLP.part.buried>
2.0700

> <Gold.PLP.part.nonpolar>
-32.0544

> <Gold.PLP.part.repulsive>
0.2733

> <Gold.PLP.ligand.clash>
0.0000

> <Gold.PLP.ligand.torsion>
0.0434

> <Gold.PLP.Chemscore.Hbond>
2.5840

> <Gold.PLP.Chemscore.CHOScore>
0.0000

> <Gold.PLP.Chemscore.Metal>
0.0000

> <Gold.Chemscore.Hbonds>
donor molecule, donor type, donor heavy atom, donor atom, acceptor molecule, acceptor atom, score
      L1  H    14    40       P1  7957  1.00
      P1  H  7997  8008       L1     9  0.70
      P1  H  7997  8009       L1     1  0.85

> <Gold.PLP.Chemscore.Internal.Correction>
0.0096

> <Gold.Rescore>
     Score         DG    S(hbond)    S(metal)    S(lipo)     H(rot)  DE(clash)    DE(int)     intcor
     17.44     -20.20       2.05        0.00      89.29       1.00       1.54       1.22       ----

> <Gold.Chemscore.Fitness>
17.4446

> <Gold.Chemscore.DG>
-20.2017

> <Gold.Chemscore.ZeroCoef>
-5.4800

> <Gold.Chemscore.Hbond>
2.0465

> <Gold.Chemscore.Metal>
0.0000

> <Gold.Chemscore.Lipo>
89.2856

> <Gold.Chemscore.Internal_Hbond>
0.0000

> <Gold.Chemscore.DEClash>
1.5390

> <Gold.Chemscore.DEInternal>
1.2182

> <Gold.Chemscore.Rot>
1.0000

> <Gold.Chemscore.Internal.Correction>
   9.000000E+99

> <Gold.Chemscore.Hbonds>
donor molecule, donor type, donor heavy atom, donor atom, acceptor molecule, acceptor atom, score
      L1  H    14    40       P1  7957  0.98
      P1  H  7997  8008       L1     9  0.18
      P1  H  7997  8009       L1     1  0.82

> <Gold.Chemscore.Hbond.Weighted>
-6.8353

> <Gold.Chemscore.Metal.Weighted>
-0.0000

> <Gold.Chemscore.Lipo.Weighted>
-10.4464

> <Gold.Chemscore.Internal_Hbond.Weighted>
0.0000

> <Gold.Chemscore.DEClash.Weighted>
1.5390

> <Gold.Chemscore.DEInternal.Weighted>
1.2182

> <Gold.Chemscore.Rot.Weighted>
2.5600

> <Gold.Chemscore.Internal.Correction.Weighted>
   9.000000E+99

> <Gold.Protein.RotatedTorsions>
[ 6907 6896 6895 6894 ] final  -11.14 input  -60.11 | X-H torsion
[ 7974 7965 7964 7962 ] final   84.51 input  175.53 | X-H torsion
[ 8008 7997 7996 7995 ] final -139.98 input   59.86 | X-H torsion
[ 10167 10162 10161 10158 ] final  -95.07 input  -65.29 | X-H torsion
[ 10718 10713 10712 10709 ] final   45.05 input   66.30 | X-H torsion
[ 10763 10752 10751 10750 ] final  -10.92 input  -60.55 | X-H torsion
[ 11005 11000 10999 10996 ] final  -52.70 input  -57.11 | X-H torsion

> <Gold.Protein.ActiveResidues>
 VAL166  LYS551  ARG553  GLY616  TRP617  ASP618  TYR619  PRO620  LYS621  CYS622 
 ASP623  PHE694  ASN695  SER759  ASP760  ASP761  ALA762  ILE779  LEU786  VAL792 
 PHE793  MET794  SER795  GLU796  ALA797  LYS798  CYS799  TRP800  GLU811  SER814 

> <Gold.Protein.RotatedAtoms>
  151.3909  135.0956  159.9525 H   0  0  0  0  0  0  0  0  0  0  0  0  # atno 6907 bound_to 6896
  152.5080  133.8981  159.7437 H   0  0  0  0  0  0  0  0  0  0  0  0  # atno 6908 bound_to 6896
  150.9434  133.6575  159.2815 H   0  0  0  0  0  0  0  0  0  0  0  0  # atno 6909 bound_to 6896
  145.5978  139.2347  143.2263 H   0  0  0  0  0  0  0  0  0  0  0  0  # atno 7974 bound_to 7965
  155.4539  140.0540  157.2998 H   0  0  0  0  0  0  0  0  0  0  0  0  # atno 8008 bound_to 7997
  154.4766  140.2063  155.9820 H   0  0  0  0  0  0  0  0  0  0  0  0  # atno 8009 bound_to 7997
  156.1141  140.3199  155.8118 H   0  0  0  0  0  0  0  0  0  0  0  0  # atno 8010 bound_to 7997
  140.3079  143.3122  152.0179 H   0  0  0  0  0  0  0  0  0  0  0  0  # atno 10167 bound_to 10162
  157.4334  130.8038  149.7625 H   0  0  0  0  0  0  0  0  0  0  0  0  # atno 10718 bound_to 10713
  153.4762  135.7017  153.5964 H   0  0  0  0  0  0  0  0  0  0  0  0  # atno 10763 bound_to 10752
  153.4197  135.3828  155.2103 H   0  0  0  0  0  0  0  0  0  0  0  0  # atno 10764 bound_to 10752
  154.8723  135.3925  154.4206 H   0  0  0  0  0  0  0  0  0  0  0  0  # atno 10765 bound_to 10752
  141.0938  133.6628  156.4063 H   0  0  0  0  0  0  0  0  0  0  0  0  # atno 11005 bound_to 11000
  146.1599  140.6803  142.9282 LP  0  0  0  0  0  0  0  0  0  0  0  0  # atno 17320 bound_to 7965
  144.7323  140.4708  143.6929 LP  0  0  0  0  0  0  0  0  0  0  0  0  # atno 17321 bound_to 7965
  139.4900  144.6406  151.6884 LP  0  0  0  0  0  0  0  0  0  0  0  0  # atno 17342 bound_to 10162
  140.5594  144.0294  150.6162 LP  0  0  0  0  0  0  0  0  0  0  0  0  # atno 17343 bound_to 10162
  155.9922  130.3933  150.2954 LP  0  0  0  0  0  0  0  0  0  0  0  0  # atno 17370 bound_to 10713
  157.1112  131.0222  151.3047 LP  0  0  0  0  0  0  0  0  0  0  0  0  # atno 17371 bound_to 10713
  140.5189  134.6323  157.5311 LP  0  0  0  0  0  0  0  0  0  0  0  0  # atno 17394 bound_to 11000
  139.9770  134.7200  155.9932 LP  0  0  0  0  0  0  0  0  0  0  0  0  # atno 17395 bound_to 11000

$$$$
