AV-unprocessed.smi:1809|AV-procd|sdf|7318|dock4
  -GOLD-   22720 8573D 1   1.00000     0.00000
 Structure written by MMmdl.
 39 41  0  0  0  0  0  0  0  0  1 V2000
  143.4622  132.7160  150.9518 C   0  0  0  0  0  0  0  0  0  0  0  0
  144.1453  133.8384  151.6556 C   0  0  0  0  0  0  0  0  0  0  0  0
  143.5084  134.6627  152.4965 N   0  0  0  0  0  0  0  0  0  0  0  0
  144.3541  135.6235  153.0329 N   0  0  0  0  0  0  0  0  0  0  0  0
  145.6087  135.4941  152.5800 C   0  0  0  0  0  0  0  0  0  0  0  0
  146.6791  136.3437  152.9660 N   0  0  0  0  0  0  0  0  0  0  0  0
  146.6861  137.2973  153.9141 C   0  0  0  0  0  0  0  0  0  0  0  0
  145.7281  137.5992  154.6260 O   0  0  0  0  0  0  0  0  0  0  0  0
  147.8865  137.8885  153.9951 N   0  0  0  0  0  0  0  0  0  0  0  0
  148.2526  138.9340  154.9451 C   0  0  0  0  0  0  0  0  0  0  0  0
  149.3025  139.8936  154.3467 C   0  0  1  0  0  0  0  0  0  0  0  0
  149.3964  141.2363  155.1106 C   0  0  0  0  0  0  0  0  0  0  0  0
  150.1098  141.0692  156.3626 N   0  0  0  0  0  0  0  0  0  0  0  0
  150.3547  142.2647  157.1359 C   0  0  0  0  0  0  0  0  0  0  0  0
  151.4428  141.8503  158.1410 C   0  0  0  0  0  0  0  0  0  0  0  0
  152.0967  140.6027  157.5071 C   0  0  0  0  0  0  0  0  0  0  0  0
  151.4195  140.5213  156.1375 C   0  0  1  0  0  0  0  0  0  0  0  0
  151.3209  139.1394  155.4791 C   0  0  0  0  0  0  0  0  0  0  0  0
  150.5961  139.2751  154.2521 O   0  0  0  0  0  0  0  0  0  0  0  0
  145.8591  134.1773  151.4465 S   0  0  0  0  0  0  0  0  0  0  0  0
  142.3800  132.7942  151.0614 H   0  0  0  0  0  0  0  0  0  0  0  0
  143.7883  131.7630  151.3686 H   0  0  0  0  0  0  0  0  0  0  0  0
  143.7070  132.7366  149.8898 H   0  0  0  0  0  0  0  0  0  0  0  0
  147.5447  136.2025  152.4671 H   0  0  0  0  0  0  0  0  0  0  0  0
  148.6123  137.5756  153.3672 H   0  0  0  0  0  0  0  0  0  0  0  0
  147.3446  139.4911  155.1771 H   0  0  0  0  0  0  0  0  0  0  0  0
  148.5916  138.5104  155.8914 H   0  0  0  0  0  0  0  0  0  0  0  0
  148.9902  140.1197  153.3264 H   0  0  0  0  0  0  0  0  0  0  0  0
  149.9190  141.9642  154.4882 H   0  0  0  0  0  0  0  0  0  0  0  0
  148.4014  141.6427  155.2952 H   0  0  0  0  0  0  0  0  0  0  0  0
  150.7303  143.0607  156.4906 H   0  0  0  0  0  0  0  0  0  0  0  0
  149.4471  142.6229  157.6224 H   0  0  0  0  0  0  0  0  0  0  0  0
  152.1610  142.6555  158.2982 H   0  0  0  0  0  0  0  0  0  0  0  0
  151.0049  141.5978  159.1074 H   0  0  0  0  0  0  0  0  0  0  0  0
  153.1804  140.6916  157.4247 H   0  0  0  0  0  0  0  0  0  0  0  0
  151.8725  139.7172  158.1036 H   0  0  0  0  0  0  0  0  0  0  0  0
  151.9654  141.1803  155.4587 H   0  0  0  0  0  0  0  0  0  0  0  0
  152.3134  138.7426  155.2658 H   0  0  0  0  0  0  0  0  0  0  0  0
  150.8265  138.4270  156.1394 H   0  0  0  0  0  0  0  0  0  0  0  0
  1  2  1  0  0  0  0
  1 21  1  0  0  0  0
  1 22  1  0  0  0  0
  1 23  1  0  0  0  0
  2 20  1  0  0  0  0
  2  3  2  0  0  0  0
  3  4  1  0  0  0  0
  4  5  2  0  0  0  0
  5  6  1  0  0  0  0
  5 20  1  0  0  0  0
  6  7  1  0  0  0  0
  6 24  1  0  0  0  0
  7  8  2  0  0  0  0
  7  9  1  0  0  0  0
  9 10  1  0  0  0  0
  9 25  1  0  0  0  0
 10 11  1  0  0  0  0
 10 26  1  0  0  0  0
 10 27  1  0  0  0  0
 11 19  1  0  0  0  0
 11 12  1  0  0  0  0
 11 28  1  0  0  0  0
 12 13  1  0  0  0  0
 12 29  1  0  0  0  0
 12 30  1  0  0  0  0
 13 17  1  0  0  0  0
 13 14  1  0  0  0  0
 14 15  1  0  0  0  0
 14 31  1  0  0  0  0
 14 32  1  0  0  0  0
 15 16  1  0  0  0  0
 15 33  1  0  0  0  0
 15 34  1  0  0  0  0
 16 17  1  0  0  0  0
 16 35  1  0  0  0  0
 16 36  1  0  0  0  0
 17 18  1  0  0  0  0
 17 37  1  0  0  0  0
 18 19  1  0  0  0  0
 18 38  1  0  0  0  0
 18 39  1  0  0  0  0
M  END
> <s_m_source_file>
AV-unprocessed.smi

> <i_m_source_file_index>
1809

> <i_lp_mmshare_version>
43012

> <i_f3d_flags>
0

> <s_epik_input>
W0NIM11jMW5uYyhzMSlbTkhdQyg9TylbTkhdW0NIMl1bQ0BIXShbQ0gyXTIpT1tDSDJdW0NAQEhdKE4yMylbQ0gyXVtDSDJdW0NIMl0z

> <s_epik_cmdline>
J2VwaWtfcHl0aG9uJywgJy1waCcsICc3LjAnLCAnLXRuJywgJzgnLCAnLW1hJywgJzIwMCcsICctbWV0YWxfYmluZGluZycsICctaW1hZScsICc8aW5maWxlLm1hZT4nLCAnLW9tYWUnLCAnPG91dGZpbGUubWFlPic=

> <r_lp_tautomer_probability>
1

> <r_epik_Ionization_Penalty>
1.05954

> <r_epik_Ionization_Penalty_Charging>
0

> <r_epik_Ionization_Penalty_Neutral>
1.05954

> <r_epik_State_Penalty>
1.4238

> <r_epik_Charging_Adjusted_Penalty>
1.4238

> <i_epik_Tot_Q>
0

> <i_epik_Tot_abs_Q>
0

> <r_epik_Metal_State_Penalty>
1.7901

> <b_epik_Metal_Only>
0

> <s_lp_Force_Field>
OPLS_2005

> <r_lp_Energy>
48.8115

> <b_lp_Chiralities_Consistent>
1

> <s_lp_Variant>
AV-unprocessed.smi:1809-10

> <Gold.Version>
5.8.1

> <Gold.Id.Protein>
6NUR|6NUR_protein|mol2

> <Gold.PLP.Fitness>
36.0147

> <Gold.PLP.PLP>
-28.4395

> <Gold.PLP.part.hbond>
-2.9779

> <Gold.PLP.part.metal>
0.0000

> <Gold.PLP.part.buried>
-4.2112

> <Gold.PLP.part.nonpolar>
-22.7229

> <Gold.PLP.part.repulsive>
0.5155

> <Gold.PLP.ligand.clash>
0.0000

> <Gold.PLP.ligand.torsion>
0.3141

> <Gold.PLP.Chemscore.Hbond>
2.7318

> <Gold.PLP.Chemscore.CHOScore>
0.0000

> <Gold.PLP.Chemscore.Metal>
0.0000

> <Gold.Chemscore.Hbonds>
donor molecule, donor type, donor heavy atom, donor atom, acceptor molecule, acceptor atom, score
      L1  H     6    24       P1  7948  0.99
      L1  H     9    25       P1  7948  0.84
      P1  H  7989  7998       L1    19  0.83

> <Gold.PLP.Chemscore.Internal.Correction>
0.0079

> <Gold.Rescore>
     Score         DG    S(hbond)    S(metal)    S(lipo)     H(rot)  DE(clash)    DE(int)     intcor
     15.00     -16.95       1.96        0.00      71.03       1.32       0.36       1.60       ----

> <Gold.Chemscore.Fitness>
14.9961

> <Gold.Chemscore.DG>
-16.9533

> <Gold.Chemscore.ZeroCoef>
-5.4800

> <Gold.Chemscore.Hbond>
1.9585

> <Gold.Chemscore.Metal>
0.0000

> <Gold.Chemscore.Lipo>
71.0277

> <Gold.Chemscore.Internal_Hbond>
0.0000

> <Gold.Chemscore.DEClash>
0.3614

> <Gold.Chemscore.DEInternal>
1.5959

> <Gold.Chemscore.Rot>
1.3196

> <Gold.Chemscore.Internal.Correction>
   9.000000E+99

> <Gold.Chemscore.Hbonds>
donor molecule, donor type, donor heavy atom, donor atom, acceptor molecule, acceptor atom, score
      L1  H     6    24       P1  7948  0.92
      L1  H     9    25       P1  7948  0.77
      P1  H  7989  7998       L1    19  0.04

> <Gold.Chemscore.Hbond.Weighted>
-6.5414

> <Gold.Chemscore.Metal.Weighted>
-0.0000

> <Gold.Chemscore.Lipo.Weighted>
-8.3102

> <Gold.Chemscore.Internal_Hbond.Weighted>
0.0000

> <Gold.Chemscore.DEClash.Weighted>
0.3614

> <Gold.Chemscore.DEInternal.Weighted>
1.5959

> <Gold.Chemscore.Rot.Weighted>
3.3783

> <Gold.Chemscore.Internal.Correction.Weighted>
   9.000000E+99

> <Gold.Protein.RotatedTorsions>
[ 6907 6896 6895 6894 ] final -159.64 input  -60.11 | X-H torsion
[ 7974 7965 7964 7962 ] final  124.79 input  175.53 | X-H torsion
[ 8008 7997 7996 7995 ] final  -64.81 input   59.86 | X-H torsion
[ 10167 10162 10161 10158 ] final -121.47 input  -65.29 | X-H torsion
[ 10718 10713 10712 10709 ] final   14.66 input   66.30 | X-H torsion
[ 10763 10752 10751 10750 ] final -115.16 input  -60.55 | X-H torsion
[ 11005 11000 10999 10996 ] final   58.70 input  -57.11 | X-H torsion

> <Gold.Protein.ActiveResidues>
 VAL166  LYS551  ARG553  GLY616  TRP617  ASP618  TYR619  PRO620  LYS621  CYS622 
 ASP623  PHE694  ASN695  SER759  ASP760  ASP761  ALA762  ILE779  LEU786  VAL792 
 PHE793  MET794  SER795  GLU796  ALA797  LYS798  CYS799  TRP800  GLU811  SER814 

> <Gold.Protein.RotatedAtoms>
  151.3367  133.3979  159.2667 H   0  0  0  0  0  0  0  0  0  0  0  0  # atno 6907 bound_to 6896
  150.9911  134.9247  159.7910 H   0  0  0  0  0  0  0  0  0  0  0  0  # atno 6908 bound_to 6896
  152.5247  134.3331  159.9242 H   0  0  0  0  0  0  0  0  0  0  0  0  # atno 6909 bound_to 6896
  145.0804  139.3662  143.4912 H   0  0  0  0  0  0  0  0  0  0  0  0  # atno 7974 bound_to 7965
  154.4634  140.0946  156.6954 H   0  0  0  0  0  0  0  0  0  0  0  0  # atno 8008 bound_to 7997
  155.4929  140.3471  155.4339 H   0  0  0  0  0  0  0  0  0  0  0  0  # atno 8009 bound_to 7997
  156.0911  140.1397  156.9579 H   0  0  0  0  0  0  0  0  0  0  0  0  # atno 8010 bound_to 7997
  140.0247  143.5308  152.2204 H   0  0  0  0  0  0  0  0  0  0  0  0  # atno 10167 bound_to 10162
  157.0423  130.6236  149.5753 H   0  0  0  0  0  0  0  0  0  0  0  0  # atno 10718 bound_to 10713
  154.8470  135.4392  154.1619 H   0  0  0  0  0  0  0  0  0  0  0  0  # atno 10763 bound_to 10752
  153.2754  135.6949  153.7445 H   0  0  0  0  0  0  0  0  0  0  0  0  # atno 10764 bound_to 10752
  153.6669  135.3425  155.3118 H   0  0  0  0  0  0  0  0  0  0  0  0  # atno 10765 bound_to 10752
  140.0358  134.5945  155.9446 H   0  0  0  0  0  0  0  0  0  0  0  0  # atno 11005 bound_to 11000
  146.3531  140.0591  142.8630 LP  0  0  0  0  0  0  0  0  0  0  0  0  # atno 17320 bound_to 7965
  145.1185  140.9448  143.4614 LP  0  0  0  0  0  0  0  0  0  0  0  0  # atno 17321 bound_to 7965
  139.6116  144.7610  151.2940 LP  0  0  0  0  0  0  0  0  0  0  0  0  # atno 17342 bound_to 10162
  140.7327  143.6814  150.7997 LP  0  0  0  0  0  0  0  0  0  0  0  0  # atno 17343 bound_to 10162
  156.0034  130.5117  150.7745 LP  0  0  0  0  0  0  0  0  0  0  0  0  # atno 17370 bound_to 10713
  157.5095  131.0924  151.0216 LP  0  0  0  0  0  0  0  0  0  0  0  0  # atno 17371 bound_to 10713
  141.1856  133.6555  156.5207 LP  0  0  0  0  0  0  0  0  0  0  0  0  # atno 17394 bound_to 11000
  140.4150  134.7239  157.4857 LP  0  0  0  0  0  0  0  0  0  0  0  0  # atno 17395 bound_to 11000

$$$$
