AV-unprocessed.smi:1076|AV-procd|sdf|4700|dock10
  -GOLD-   22720 3223D 1   1.00000     0.00000
 Structure written by MMmdl.
 44 45  0  0  0  0  0  0  0  0  1 V2000
  143.5574  132.2654  150.2874 C   0  0  0  0  0  0  0  0  0  0  0  0
  143.8626  133.5306  151.0360 C   0  0  0  0  0  0  0  0  0  0  0  0
  143.3348  133.9503  152.2901 C   0  0  0  0  0  0  0  0  0  0  0  0
  143.8112  135.1201  152.6833 N   0  0  0  0  0  0  0  0  0  0  0  0
  144.6520  135.4914  151.6944 N   0  0  0  0  0  0  0  0  0  0  0  0
  145.3743  136.7482  151.7922 C   0  0  0  0  0  0  0  0  0  0  0  0
  145.8940  137.0305  153.2167 C   0  0  1  0  0  0  0  0  0  0  0  0
  146.2611  135.7201  153.9358 C   0  0  0  0  0  0  0  0  0  0  0  0
  147.0660  137.8954  153.1279 N   0  0  0  0  0  0  0  0  0  0  0  0
  146.7188  139.2393  152.6800 C   0  0  0  0  0  0  0  0  0  0  0  0
  147.9481  140.1718  152.6926 C   0  0  0  0  0  0  0  0  0  0  0  0
  148.2763  140.8079  154.0588 C   0  0  0  0  0  0  0  0  0  0  0  0
  147.7921  141.9056  154.3403 O   0  0  0  0  0  0  0  0  0  0  0  0
  149.0928  140.1447  154.9132 N   0  0  0  0  0  0  0  0  0  0  0  0
  149.4584  140.6630  156.2350 C   0  0  0  0  0  0  0  0  0  0  0  0
  150.9706  140.9466  156.2486 C   0  0  0  0  0  0  0  0  0  0  0  0
  151.6823  139.7511  155.9396 O   0  0  0  0  0  0  0  0  0  0  0  0
  151.3340  139.2089  154.6684 C   0  0  0  0  0  0  0  0  0  0  0  0
  149.8249  138.9062  154.6250 C   0  0  0  0  0  0  0  0  0  0  0  0
  144.7069  134.5478  150.6906 C   0  0  0  0  0  0  0  0  0  0  0  0
  142.4845  132.0854  150.2221 H   0  0  0  0  0  0  0  0  0  0  0  0
  144.0005  131.3960  150.7731 H   0  0  0  0  0  0  0  0  0  0  0  0
  143.9406  132.2942  149.2672 H   0  0  0  0  0  0  0  0  0  0  0  0
  142.6246  133.4400  152.9241 H   0  0  0  0  0  0  0  0  0  0  0  0
  146.2087  136.7080  151.0906 H   0  0  0  0  0  0  0  0  0  0  0  0
  144.7235  137.5553  151.4521 H   0  0  0  0  0  0  0  0  0  0  0  0
  145.1071  137.5386  153.7763 H   0  0  0  0  0  0  0  0  0  0  0  0
  145.4070  135.0433  153.9669 H   0  0  0  0  0  0  0  0  0  0  0  0
  146.5700  135.8896  154.9667 H   0  0  0  0  0  0  0  0  0  0  0  0
  147.0740  135.2020  153.4255 H   0  0  0  0  0  0  0  0  0  0  0  0
  147.7196  137.4967  152.4690 H   0  0  0  0  0  0  0  0  0  0  0  0
  146.3175  139.1819  151.6677 H   0  0  0  0  0  0  0  0  0  0  0  0
  145.9346  139.6633  153.3069 H   0  0  0  0  0  0  0  0  0  0  0  0
  148.8124  139.6050  152.3439 H   0  0  0  0  0  0  0  0  0  0  0  0
  147.7846  140.9767  151.9753 H   0  0  0  0  0  0  0  0  0  0  0  0
  148.9117  141.5671  156.5054 H   0  0  0  0  0  0  0  0  0  0  0  0
  149.2079  139.9214  156.9948 H   0  0  0  0  0  0  0  0  0  0  0  0
  151.2261  141.7300  155.5333 H   0  0  0  0  0  0  0  0  0  0  0  0
  151.2805  141.2980  157.2326 H   0  0  0  0  0  0  0  0  0  0  0  0
  151.6134  139.9060  153.8770 H   0  0  0  0  0  0  0  0  0  0  0  0
  151.9070  138.2957  154.5069 H   0  0  0  0  0  0  0  0  0  0  0  0
  149.5712  138.1577  155.3768 H   0  0  0  0  0  0  0  0  0  0  0  0
  149.5787  138.4595  153.6635 H   0  0  0  0  0  0  0  0  0  0  0  0
  145.3353  134.6776  149.8215 H   0  0  0  0  0  0  0  0  0  0  0  0
  1  2  1  0  0  0  0
  1 21  1  0  0  0  0
  1 22  1  0  0  0  0
  1 23  1  0  0  0  0
  2 20  2  0  0  0  0
  2  3  1  0  0  0  0
  3  4  2  0  0  0  0
  3 24  1  0  0  0  0
  4  5  1  0  0  0  0
  5  6  1  0  0  0  0
  5 20  1  0  0  0  0
  6  7  1  0  0  0  0
  6 25  1  0  0  0  0
  6 26  1  0  0  0  0
  7  8  1  0  0  0  0
  7  9  1  0  0  0  0
  7 27  1  0  0  0  0
  8 28  1  0  0  0  0
  8 29  1  0  0  0  0
  8 30  1  0  0  0  0
  9 10  1  0  0  0  0
  9 31  1  0  0  0  0
 10 11  1  0  0  0  0
 10 32  1  0  0  0  0
 10 33  1  0  0  0  0
 11 12  1  0  0  0  0
 11 34  1  0  0  0  0
 11 35  1  0  0  0  0
 12 13  2  0  0  0  0
 12 14  1  0  0  0  0
 14 19  1  0  0  0  0
 14 15  1  0  0  0  0
 15 16  1  0  0  0  0
 15 36  1  0  0  0  0
 15 37  1  0  0  0  0
 16 17  1  0  0  0  0
 16 38  1  0  0  0  0
 16 39  1  0  0  0  0
 17 18  1  0  0  0  0
 18 19  1  0  0  0  0
 18 40  1  0  0  0  0
 18 41  1  0  0  0  0
 19 42  1  0  0  0  0
 19 43  1  0  0  0  0
 20 44  1  0  0  0  0
M  END
> <s_m_source_file>
AV-unprocessed.smi

> <i_m_source_file_index>
1076

> <i_lp_mmshare_version>
43012

> <i_f3d_flags>
0

> <s_epik_input>
W0NIM11jMVtjSF1ubihbY0hdMSlbQ0gyXVtDQEhdKFtDSDNdKVtOSF1bQ0gyXVtDSDJdQyg9TylOMltDSDJdW0NIMl1PW0NIMl1bQ0gyXTI=

> <s_epik_cmdline>
J2VwaWtfcHl0aG9uJywgJy1waCcsICc3LjAnLCAnLXRuJywgJzgnLCAnLW1hJywgJzIwMCcsICctbWV0YWxfYmluZGluZycsICctaW1hZScsICc8aW5maWxlLm1hZT4nLCAnLW9tYWUnLCAnPG91dGZpbGUubWFlPic=

> <r_lp_tautomer_probability>
1

> <r_epik_Ionization_Penalty>
2.55707

> <r_epik_Ionization_Penalty_Charging>
0

> <r_epik_Ionization_Penalty_Neutral>
2.55707

> <r_epik_State_Penalty>
2.726

> <r_epik_Charging_Adjusted_Penalty>
2.726

> <i_epik_Tot_Q>
0

> <i_epik_Tot_abs_Q>
0

> <r_epik_Metal_State_Penalty>
2.72594

> <b_epik_Metal_Only>
0

> <s_lp_Force_Field>
OPLS_2005

> <r_lp_Energy>
22.7086

> <b_lp_Chiralities_Consistent>
1

> <s_lp_Variant>
AV-unprocessed.smi:1076-4

> <Gold.Version>
5.8.1

> <Gold.Id.Protein>
6NUR|6NUR_protein|mol2

> <Gold.PLP.Fitness>
39.3219

> <Gold.PLP.PLP>
-32.5178

> <Gold.PLP.part.hbond>
-1.0000

> <Gold.PLP.part.metal>
0.0000

> <Gold.PLP.part.buried>
2.7276

> <Gold.PLP.part.nonpolar>
-34.8156

> <Gold.PLP.part.repulsive>
0.2522

> <Gold.PLP.ligand.clash>
0.0000

> <Gold.PLP.ligand.torsion>
1.1372

> <Gold.PLP.Chemscore.Hbond>
1.0000

> <Gold.PLP.Chemscore.CHOScore>
2.0000

> <Gold.PLP.Chemscore.Metal>
0.0000

> <Gold.Chemscore.Hbonds>
donor molecule, donor type, donor heavy atom, donor atom, acceptor molecule, acceptor atom, score
      L1  H     9    31       P1  7948  1.00
      L1  C     3    24       P1 10957  1.00
      L1  C    20    44       P1  7921  1.00

> <Gold.PLP.Chemscore.Internal.Correction>
0.0785

> <Gold.Rescore>
     Score         DG    S(hbond)    S(metal)    S(lipo)     H(rot)  DE(clash)    DE(int)     intcor
     10.65     -13.21       0.99        0.00      79.57       1.91       1.77       0.80       ----

> <Gold.Chemscore.Fitness>
10.6451

> <Gold.Chemscore.DG>
-13.2123

> <Gold.Chemscore.ZeroCoef>
-5.4800

> <Gold.Chemscore.Hbond>
0.9915

> <Gold.Chemscore.Metal>
0.0000

> <Gold.Chemscore.Lipo>
79.5721

> <Gold.Chemscore.Internal_Hbond>
0.0000

> <Gold.Chemscore.DEClash>
1.7674

> <Gold.Chemscore.DEInternal>
0.7998

> <Gold.Chemscore.Rot>
1.9098

> <Gold.Chemscore.Internal.Correction>
   9.000000E+99

> <Gold.Chemscore.Hbonds>
donor molecule, donor type, donor heavy atom, donor atom, acceptor molecule, acceptor atom, score
      L1  H     9    31       P1  7948  0.98

> <Gold.Chemscore.Hbond.Weighted>
-3.3115

> <Gold.Chemscore.Metal.Weighted>
-0.0000

> <Gold.Chemscore.Lipo.Weighted>
-9.3099

> <Gold.Chemscore.Internal_Hbond.Weighted>
0.0000

> <Gold.Chemscore.DEClash.Weighted>
1.7674

> <Gold.Chemscore.DEInternal.Weighted>
0.7998

> <Gold.Chemscore.Rot.Weighted>
4.8891

> <Gold.Chemscore.Internal.Correction.Weighted>
   9.000000E+99

> <Gold.Protein.RotatedTorsions>
[ 6907 6896 6895 6894 ] final   15.45 input  -60.11 | X-H torsion
[ 7974 7965 7964 7962 ] final   98.21 input  175.53 | X-H torsion
[ 8008 7997 7996 7995 ] final   69.10 input   59.86 | X-H torsion
[ 10167 10162 10161 10158 ] final   10.13 input  -65.29 | X-H torsion
[ 10718 10713 10712 10709 ] final   12.85 input   66.30 | X-H torsion
[ 10763 10752 10751 10750 ] final -149.77 input  -60.55 | X-H torsion
[ 11005 11000 10999 10996 ] final  149.40 input  -57.11 | X-H torsion

> <Gold.Protein.ActiveResidues>
 VAL166  LYS551  ARG553  GLY616  TRP617  ASP618  TYR619  PRO620  LYS621  CYS622 
 ASP623  PHE694  ASN695  SER759  ASP760  ASP761  ALA762  ILE779  LEU786  VAL792 
 PHE793  MET794  SER795  GLU796  ALA797  LYS798  CYS799  TRP800  GLU811  SER814 

> <Gold.Protein.RotatedAtoms>
  151.8183  135.0659  160.0421 H   0  0  0  0  0  0  0  0  0  0  0  0  # atno 6907 bound_to 6896
  152.2970  133.5613  159.5602 H   0  0  0  0  0  0  0  0  0  0  0  0  # atno 6908 bound_to 6896
  150.7256  134.0263  159.3760 H   0  0  0  0  0  0  0  0  0  0  0  0  # atno 6909 bound_to 6896
  145.4152  139.2328  143.3226 H   0  0  0  0  0  0  0  0  0  0  0  0  # atno 7974 bound_to 7965
  155.7184  140.3493  155.5005 H   0  0  0  0  0  0  0  0  0  0  0  0  # atno 8008 bound_to 7997
  155.9292  140.1081  157.1167 H   0  0  0  0  0  0  0  0  0  0  0  0  # atno 8009 bound_to 7997
  154.4082  140.1234  156.4767 H   0  0  0  0  0  0  0  0  0  0  0  0  # atno 8010 bound_to 7997
  140.6213  143.8198  150.7178 H   0  0  0  0  0  0  0  0  0  0  0  0  # atno 10167 bound_to 10162
  157.0161  130.6136  149.5714 H   0  0  0  0  0  0  0  0  0  0  0  0  # atno 10718 bound_to 10713
  154.8158  135.3301  154.7179 H   0  0  0  0  0  0  0  0  0  0  0  0  # atno 10763 bound_to 10752
  153.7820  135.6917  153.4891 H   0  0  0  0  0  0  0  0  0  0  0  0  # atno 10764 bound_to 10752
  153.1974  135.4529  155.0171 H   0  0  0  0  0  0  0  0  0  0  0  0  # atno 10765 bound_to 10752
  140.1042  134.8965  157.1841 H   0  0  0  0  0  0  0  0  0  0  0  0  # atno 11005 bound_to 11000
  146.2684  140.4869  142.8824 LP  0  0  0  0  0  0  0  0  0  0  0  0  # atno 17320 bound_to 7965
  144.8282  140.6663  143.6308 LP  0  0  0  0  0  0  0  0  0  0  0  0  # atno 17321 bound_to 7965
  140.1789  143.4131  152.1947 LP  0  0  0  0  0  0  0  0  0  0  0  0  # atno 17342 bound_to 10162
  139.5441  144.7283  151.4640 LP  0  0  0  0  0  0  0  0  0  0  0  0  # atno 17343 bound_to 10162
  156.0119  130.5211  150.8014 LP  0  0  0  0  0  0  0  0  0  0  0  0  # atno 17370 bound_to 10713
  157.5284  131.0935  150.9987 LP  0  0  0  0  0  0  0  0  0  0  0  0  # atno 17371 bound_to 10713
  140.3179  134.2950  155.7252 LP  0  0  0  0  0  0  0  0  0  0  0  0  # atno 17394 bound_to 11000
  141.2114  133.7691  156.9869 LP  0  0  0  0  0  0  0  0  0  0  0  0  # atno 17395 bound_to 11000

$$$$
