AV-unprocessed.smi:1413|AV-procd|sdf|5757|dock6
  -GOLD-   22720 5393D 1   1.00000     0.00000
 Structure written by MMmdl.
 53 55  0  0  0  0  0  0  0  0  1 V2000
  153.6089  141.2653  160.3313 C   0  0  0  0  0  0  0  0  0  0  0  0
  152.8336  141.8609  159.1515 C   0  0  1  0  0  0  0  0  0  0  0  0
  151.9374  140.8148  158.4646 C   0  0  0  0  0  0  0  0  0  0  0  0
  151.1418  141.4485  157.4231 N   0  0  0  0  0  0  0  0  0  0  0  0
  150.4204  140.5387  156.6390 C   0  0  0  0  0  0  0  0  0  0  0  0
  149.3717  139.7616  157.1814 C   0  0  0  0  0  0  0  0  0  0  0  0
  148.6985  138.8556  156.3404 C   0  0  0  0  0  0  0  0  0  0  0  0
  149.0941  138.7436  154.9926 C   0  0  0  0  0  0  0  0  0  0  0  0
  148.3924  137.8261  154.1647 N   0  0  0  0  0  0  0  0  0  0  0  0
  147.1278  137.3882  154.2895 C   0  0  0  0  0  0  0  0  0  0  0  0
  146.3450  137.7240  155.1777 O   0  0  0  0  0  0  0  0  0  0  0  0
  146.8120  136.5404  153.2997 N   0  0  0  0  0  0  0  0  0  0  0  0
  145.5256  135.8687  153.1243 C   0  0  1  0  0  0  0  0  0  0  0  0
  144.4093  136.9250  153.1371 C   0  0  0  0  0  0  0  0  0  0  0  0
  145.5513  135.0497  151.8190 C   0  0  2  0  0  0  0  0  0  0  0  0
  144.2497  134.3089  151.5053 C   0  0  0  0  0  0  0  0  0  0  0  0
  144.7407  133.1798  150.6297 C   0  0  0  0  0  0  0  0  0  0  0  0
  146.0594  132.8180  151.3042 C   0  0  0  0  0  0  0  0  0  0  0  0
  146.5397  134.0226  151.8949 O   0  0  0  0  0  0  0  0  0  0  0  0
  150.1435  139.5815  154.5425 C   0  0  0  0  0  0  0  0  0  0  0  0
  150.7923  140.4536  155.3438 N   0  0  0  0  0  0  0  0  0  0  0  0
  150.3351  142.5504  157.9299 C   0  0  0  0  0  0  0  0  0  0  0  0
  151.2195  143.5812  158.6600 C   0  0  2  0  0  0  0  0  0  0  0  0
  152.0618  144.4505  157.7093 C   0  0  0  0  0  0  0  0  0  0  0  0
  152.0239  142.9282  159.6468 O   0  0  0  0  0  0  0  0  0  0  0  0
  154.2511  140.4465  160.0058 H   0  0  0  0  0  0  0  0  0  0  0  0
  152.9320  140.8780  161.0934 H   0  0  0  0  0  0  0  0  0  0  0  0
  154.2429  142.0185  160.8000 H   0  0  0  0  0  0  0  0  0  0  0  0
  153.5568  142.2505  158.4347 H   0  0  0  0  0  0  0  0  0  0  0  0
  152.5488  140.0231  158.0295 H   0  0  0  0  0  0  0  0  0  0  0  0
  151.2784  140.3487  159.1986 H   0  0  0  0  0  0  0  0  0  0  0  0
  149.0875  139.8521  158.2195 H   0  0  0  0  0  0  0  0  0  0  0  0
  147.8943  138.2496  156.7313 H   0  0  0  0  0  0  0  0  0  0  0  0
  148.8884  137.5195  153.3408 H   0  0  0  0  0  0  0  0  0  0  0  0
  147.5242  136.3296  152.6163 H   0  0  0  0  0  0  0  0  0  0  0  0
  145.3429  135.1808  153.9518 H   0  0  0  0  0  0  0  0  0  0  0  0
  143.4245  136.4644  153.0577 H   0  0  0  0  0  0  0  0  0  0  0  0
  144.5159  137.6277  152.3100 H   0  0  0  0  0  0  0  0  0  0  0  0
  144.4242  137.4982  154.0647 H   0  0  0  0  0  0  0  0  0  0  0  0
  145.8084  135.6910  150.9739 H   0  0  0  0  0  0  0  0  0  0  0  0
  143.8050  133.9057  152.4166 H   0  0  0  0  0  0  0  0  0  0  0  0
  143.5089  134.9383  151.0114 H   0  0  0  0  0  0  0  0  0  0  0  0
  144.0448  132.3424  150.5752 H   0  0  0  0  0  0  0  0  0  0  0  0
  144.9221  133.5425  149.6170 H   0  0  0  0  0  0  0  0  0  0  0  0
  145.8941  132.0875  152.0970 H   0  0  0  0  0  0  0  0  0  0  0  0
  146.7838  132.4008  150.6043 H   0  0  0  0  0  0  0  0  0  0  0  0
  150.4749  139.5826  153.5160 H   0  0  0  0  0  0  0  0  0  0  0  0
  149.7930  143.0260  157.1112 H   0  0  0  0  0  0  0  0  0  0  0  0
  149.5882  142.1598  158.6223 H   0  0  0  0  0  0  0  0  0  0  0  0
  150.5599  144.2577  159.2039 H   0  0  0  0  0  0  0  0  0  0  0  0
  151.4191  145.0312  157.0473 H   0  0  0  0  0  0  0  0  0  0  0  0
  152.7208  143.8552  157.0779 H   0  0  0  0  0  0  0  0  0  0  0  0
  152.6789  145.1531  158.2694 H   0  0  0  0  0  0  0  0  0  0  0  0
  1  2  1  0  0  0  0
  1 26  1  0  0  0  0
  1 27  1  0  0  0  0
  1 28  1  0  0  0  0
  2 25  1  0  0  0  0
  2  3  1  0  0  0  0
  2 29  1  0  0  0  0
  3  4  1  0  0  0  0
  3 30  1  0  0  0  0
  3 31  1  0  0  0  0
  4  5  1  0  0  0  0
  4 22  1  0  0  0  0
  5 21  1  0  0  0  0
  5  6  2  0  0  0  0
  6  7  1  0  0  0  0
  6 32  1  0  0  0  0
  7  8  2  0  0  0  0
  7 33  1  0  0  0  0
  8  9  1  0  0  0  0
  8 20  1  0  0  0  0
  9 10  1  0  0  0  0
  9 34  1  0  0  0  0
 10 11  2  0  0  0  0
 10 12  1  0  0  0  0
 12 13  1  0  0  0  0
 12 35  1  0  0  0  0
 13 14  1  0  0  0  0
 13 15  1  0  0  0  0
 13 36  1  0  0  0  0
 14 37  1  0  0  0  0
 14 38  1  0  0  0  0
 14 39  1  0  0  0  0
 15 19  1  0  0  0  0
 15 16  1  0  0  0  0
 15 40  1  0  0  0  0
 16 17  1  0  0  0  0
 16 41  1  0  0  0  0
 16 42  1  0  0  0  0
 17 18  1  0  0  0  0
 17 43  1  0  0  0  0
 17 44  1  0  0  0  0
 18 19  1  0  0  0  0
 18 45  1  0  0  0  0
 18 46  1  0  0  0  0
 20 21  2  0  0  0  0
 20 47  1  0  0  0  0
 22 23  1  0  0  0  0
 22 48  1  0  0  0  0
 22 49  1  0  0  0  0
 23 24  1  0  0  0  0
 23 25  1  0  0  0  0
 23 50  1  0  0  0  0
 24 51  1  0  0  0  0
 24 52  1  0  0  0  0
 24 53  1  0  0  0  0
M  END
> <s_m_source_file>
AV-unprocessed.smi

> <i_m_source_file_index>
1413

> <i_lp_mmshare_version>
43012

> <i_f3d_flags>
0

> <s_epik_input>
W0NIM11bQ0BASF0xW0NIMl1OKFtDSDJdW0NASF0oTzEpW0NIM10pYzJbY0hdW2NIXWMoW2NIXW4yKVtOSF1DKD1PKVtOSF1bQ0BIXShbQ0gzXSlbQ0BASF0zW0NIMl1bQ0gyXVtDSDJdTzM=

> <s_epik_cmdline>
J2VwaWtfcHl0aG9uJywgJy1waCcsICc3LjAnLCAnLXRuJywgJzgnLCAnLW1hJywgJzIwMCcsICctbWV0YWxfYmluZGluZycsICctaW1hZScsICc8aW5maWxlLm1hZT4nLCAnLW9tYWUnLCAnPG91dGZpbGUubWFlPic=

> <r_lp_tautomer_probability>
1

> <r_epik_Ionization_Penalty>
0.00271172

> <r_epik_Ionization_Penalty_Charging>
0

> <r_epik_Ionization_Penalty_Neutral>
0.00271172

> <r_epik_State_Penalty>
0.00186503

> <r_epik_Charging_Adjusted_Penalty>
0.00186503

> <i_epik_Tot_Q>
0

> <i_epik_Tot_abs_Q>
0

> <r_epik_Metal_State_Penalty>
-0

> <b_epik_Metal_Only>
0

> <s_lp_Force_Field>
OPLS_2005

> <r_lp_Energy>
38.2473

> <b_lp_Chiralities_Consistent>
1

> <s_lp_Variant>
AV-unprocessed.smi:1413-10

> <Gold.Version>
5.8.1

> <Gold.Id.Protein>
6NUR|6NUR_protein|mol2

> <Gold.PLP.Fitness>
48.4552

> <Gold.PLP.PLP>
-40.0503

> <Gold.PLP.part.hbond>
-3.0000

> <Gold.PLP.part.metal>
0.0000

> <Gold.PLP.part.buried>
-7.0364

> <Gold.PLP.part.nonpolar>
-31.0337

> <Gold.PLP.part.repulsive>
0.3186

> <Gold.PLP.ligand.clash>
0.0000

> <Gold.PLP.ligand.torsion>
0.2506

> <Gold.PLP.Chemscore.Hbond>
1.9280

> <Gold.PLP.Chemscore.CHOScore>
1.0000

> <Gold.PLP.Chemscore.Metal>
0.0000

> <Gold.Chemscore.Hbonds>
donor molecule, donor type, donor heavy atom, donor atom, acceptor molecule, acceptor atom, score
      L1  H     9    34       P1  7948  0.94
      L1  H    12    35       P1  7948  1.00
      L1  C    20    47       P1  7957  0.98

> <Gold.PLP.Chemscore.Internal.Correction>
0.1221

> <Gold.Rescore>
     Score         DG    S(hbond)    S(metal)    S(lipo)     H(rot)  DE(clash)    DE(int)     intcor
     18.63     -20.48       1.93        0.00     102.69       1.35       0.28       1.57       ----

> <Gold.Chemscore.Fitness>
18.6308

> <Gold.Chemscore.DG>
-20.4810

> <Gold.Chemscore.ZeroCoef>
-5.4800

> <Gold.Chemscore.Hbond>
1.9265

> <Gold.Chemscore.Metal>
0.0000

> <Gold.Chemscore.Lipo>
102.6933

> <Gold.Chemscore.Internal_Hbond>
0.0000

> <Gold.Chemscore.DEClash>
0.2769

> <Gold.Chemscore.DEInternal>
1.5733

> <Gold.Chemscore.Rot>
1.3471

> <Gold.Chemscore.Internal.Correction>
   9.000000E+99

> <Gold.Chemscore.Hbonds>
donor molecule, donor type, donor heavy atom, donor atom, acceptor molecule, acceptor atom, score
      L1  H     9    34       P1  7948  0.91
      L1  H    12    35       P1  7948  0.99

> <Gold.Chemscore.Hbond.Weighted>
-6.4344

> <Gold.Chemscore.Metal.Weighted>
-0.0000

> <Gold.Chemscore.Lipo.Weighted>
-12.0151

> <Gold.Chemscore.Internal_Hbond.Weighted>
0.0000

> <Gold.Chemscore.DEClash.Weighted>
0.2769

> <Gold.Chemscore.DEInternal.Weighted>
1.5733

> <Gold.Chemscore.Rot.Weighted>
3.4485

> <Gold.Chemscore.Internal.Correction.Weighted>
   9.000000E+99

> <Gold.Protein.RotatedTorsions>
[ 6907 6896 6895 6894 ] final   38.34 input  -60.11 | X-H torsion
[ 7974 7965 7964 7962 ] final   75.31 input  175.53 | X-H torsion
[ 8008 7997 7996 7995 ] final  -20.15 input   59.86 | X-H torsion
[ 10167 10162 10161 10158 ] final  167.20 input  -65.29 | X-H torsion
[ 10718 10713 10712 10709 ] final  161.03 input   66.30 | X-H torsion
[ 10763 10752 10751 10750 ] final -174.20 input  -60.55 | X-H torsion
[ 11005 11000 10999 10996 ] final -115.68 input  -57.11 | X-H torsion

> <Gold.Protein.ActiveResidues>
 VAL166  LYS551  ARG553  GLY616  TRP617  ASP618  TYR619  PRO620  LYS621  CYS622 
 ASP623  PHE694  ASN695  SER759  ASP760  ASP761  ALA762  ILE779  LEU786  VAL792 
 PHE793  MET794  SER795  GLU796  ALA797  LYS798  CYS799  TRP800  GLU811  SER814 

> <Gold.Protein.RotatedAtoms>
  152.1551  134.8957  160.0545 H   0  0  0  0  0  0  0  0  0  0  0  0  # atno 6907 bound_to 6896
  151.9974  133.3808  159.4176 H   0  0  0  0  0  0  0  0  0  0  0  0  # atno 6908 bound_to 6896
  150.6880  134.3793  159.5071 H   0  0  0  0  0  0  0  0  0  0  0  0  # atno 6909 bound_to 6896
  145.7172  139.2635  143.1617 H   0  0  0  0  0  0  0  0  0  0  0  0  # atno 7974 bound_to 7965
  154.4789  140.2070  155.9811 H   0  0  0  0  0  0  0  0  0  0  0  0  # atno 8008 bound_to 7997
  156.1134  140.3225  155.8074 H   0  0  0  0  0  0  0  0  0  0  0  0  # atno 8009 bound_to 7997
  155.4596  140.0523  157.2983 H   0  0  0  0  0  0  0  0  0  0  0  0  # atno 8010 bound_to 7997
  139.4940  144.3947  151.9477 H   0  0  0  0  0  0  0  0  0  0  0  0  # atno 10167 bound_to 10162
  157.1422  131.0543  151.2321 H   0  0  0  0  0  0  0  0  0  0  0  0  # atno 10718 bound_to 10713
  154.5990  135.2852  155.0555 H   0  0  0  0  0  0  0  0  0  0  0  0  # atno 10763 bound_to 10752
  154.1827  135.6454  153.5042 H   0  0  0  0  0  0  0  0  0  0  0  0  # atno 10764 bound_to 10752
  153.0150  135.5427  154.6703 H   0  0  0  0  0  0  0  0  0  0  0  0  # atno 10765 bound_to 10752
  141.0472  133.9745  157.2898 H   0  0  0  0  0  0  0  0  0  0  0  0  # atno 11005 bound_to 11000
  146.0659  140.7921  142.9712 LP  0  0  0  0  0  0  0  0  0  0  0  0  # atno 17320 bound_to 7965
  144.6926  140.3268  143.7223 LP  0  0  0  0  0  0  0  0  0  0  0  0  # atno 17321 bound_to 7965
  140.3385  144.3231  150.5972 LP  0  0  0  0  0  0  0  0  0  0  0  0  # atno 17342 bound_to 10162
  140.5586  143.2195  151.7805 LP  0  0  0  0  0  0  0  0  0  0  0  0  # atno 17343 bound_to 10162
  157.4297  130.7483  149.6980 LP  0  0  0  0  0  0  0  0  0  0  0  0  # atno 17370 bound_to 10713
  155.9786  130.4049  150.3637 LP  0  0  0  0  0  0  0  0  0  0  0  0  # atno 17371 bound_to 10713
  139.9321  135.0199  156.8434 LP  0  0  0  0  0  0  0  0  0  0  0  0  # atno 17394 bound_to 11000
  140.6125  134.0069  155.7583 LP  0  0  0  0  0  0  0  0  0  0  0  0  # atno 17395 bound_to 11000

$$$$
