AV-unprocessed.smi:2181|AV-procd|sdf|8862|dock6
  -GOLD-   2272012 53D 1   1.00000     0.00000
 Structure written by MMmdl.
 38 39  0  0  0  0  0  0  0  0  1 V2000
  150.3821  134.8393  156.7120 C   0  0  0  0  0  0  0  0  0  0  0  0
  150.5061  133.4023  156.2921 C   0  0  0  0  0  0  0  0  0  0  0  0
  150.8266  132.4913  157.1953 N   0  0  0  0  0  0  0  0  0  0  0  0
  150.8497  131.2692  156.5167 O   0  0  0  0  0  0  0  0  0  0  0  0
  150.5371  131.4948  155.2155 C   0  0  0  0  0  0  0  0  0  0  0  0
  150.4966  130.3036  154.3192 C   0  0  0  0  0  0  0  0  0  0  0  0
  150.3077  132.8264  155.0031 C   0  0  0  0  0  0  0  0  0  0  0  0
  149.9257  133.5168  153.7186 C   0  0  0  0  0  0  0  0  0  0  0  0
  148.5848  132.9762  153.2239 C   0  0  0  0  0  0  0  0  0  0  0  0
  148.2636  131.8121  153.4603 O   0  0  0  0  0  0  0  0  0  0  0  0
  147.8106  133.8370  152.5447 N   0  0  0  0  0  0  0  0  0  0  0  0
  146.4912  133.5489  151.9832 C   0  0  1  0  0  0  0  0  0  0  0  0
  146.6031  132.4480  150.9043 C   0  0  0  0  0  0  0  0  0  0  0  0
  145.4434  132.4428  149.8952 C   0  0  0  0  0  0  0  0  0  0  0  0
  144.0618  132.1520  150.5001 C   0  0  0  0  0  0  0  0  0  0  0  0
  143.5739  133.2360  151.4768 C   0  0  0  0  0  0  0  0  0  0  0  0
  144.1815  133.1151  152.7962 N   0  0  0  0  0  0  0  0  0  0  0  0
  145.4824  133.2319  153.1034 C   0  0  0  0  0  0  0  0  0  0  0  0
  145.8664  133.0792  154.2630 O   0  0  0  0  0  0  0  0  0  0  0  0
  149.4124  135.0266  157.1735 H   0  0  0  0  0  0  0  0  0  0  0  0
  150.4796  135.5140  155.8619 H   0  0  0  0  0  0  0  0  0  0  0  0
  151.1530  135.1101  157.4341 H   0  0  0  0  0  0  0  0  0  0  0  0
  149.4677  129.9864  154.1489 H   0  0  0  0  0  0  0  0  0  0  0  0
  151.0425  129.4660  154.7537 H   0  0  0  0  0  0  0  0  0  0  0  0
  150.9441  130.5310  153.3517 H   0  0  0  0  0  0  0  0  0  0  0  0
  149.8498  134.5967  153.8484 H   0  0  0  0  0  0  0  0  0  0  0  0
  150.6789  133.3610  152.9452 H   0  0  0  0  0  0  0  0  0  0  0  0
  148.1641  134.7711  152.3957 H   0  0  0  0  0  0  0  0  0  0  0  0
  146.1432  134.4675  151.5071 H   0  0  0  0  0  0  0  0  0  0  0  0
  147.5242  132.5854  150.3363 H   0  0  0  0  0  0  0  0  0  0  0  0
  146.6940  131.4685  151.3762 H   0  0  0  0  0  0  0  0  0  0  0  0
  145.4162  133.3977  149.3687 H   0  0  0  0  0  0  0  0  0  0  0  0
  145.6524  131.6911  149.1334 H   0  0  0  0  0  0  0  0  0  0  0  0
  143.3452  132.0830  149.6811 H   0  0  0  0  0  0  0  0  0  0  0  0
  144.0563  131.1743  150.9839 H   0  0  0  0  0  0  0  0  0  0  0  0
  143.7375  134.2356  151.0716 H   0  0  0  0  0  0  0  0  0  0  0  0
  142.4971  133.1341  151.6127 H   0  0  0  0  0  0  0  0  0  0  0  0
  143.5500  132.9105  153.5573 H   0  0  0  0  0  0  0  0  0  0  0  0
  1  2  1  0  0  0  0
  1 20  1  0  0  0  0
  1 21  1  0  0  0  0
  1 22  1  0  0  0  0
  2  7  1  0  0  0  0
  2  3  2  0  0  0  0
  3  4  1  0  0  0  0
  4  5  1  0  0  0  0
  5  6  1  0  0  0  0
  5  7  2  0  0  0  0
  6 23  1  0  0  0  0
  6 24  1  0  0  0  0
  6 25  1  0  0  0  0
  7  8  1  0  0  0  0
  8  9  1  0  0  0  0
  8 26  1  0  0  0  0
  8 27  1  0  0  0  0
  9 10  2  0  0  0  0
  9 11  1  0  0  0  0
 11 12  1  0  0  0  0
 11 28  1  0  0  0  0
 12 18  1  0  0  0  0
 12 13  1  0  0  0  0
 12 29  1  0  0  0  0
 13 14  1  0  0  0  0
 13 30  1  0  0  0  0
 13 31  1  0  0  0  0
 14 15  1  0  0  0  0
 14 32  1  0  0  0  0
 14 33  1  0  0  0  0
 15 16  1  0  0  0  0
 15 34  1  0  0  0  0
 15 35  1  0  0  0  0
 16 17  1  0  0  0  0
 16 36  1  0  0  0  0
 16 37  1  0  0  0  0
 17 18  1  0  0  0  0
 17 38  1  0  0  0  0
 18 19  2  0  0  0  0
M  END
> <s_m_source_file>
AV-unprocessed.smi

> <i_m_source_file_index>
2181

> <i_lp_mmshare_version>
43012

> <i_f3d_flags>
0

> <s_epik_input>
W0NIM11jMW5vYyhbQ0gzXSljMVtDSDJdQyg9TylbTkhdW0NAQEhdMltDSDJdW0NIMl1bQ0gyXVtDSDJdW05IXUMyPU8=

> <s_epik_cmdline>
J2VwaWtfcHl0aG9uJywgJy1waCcsICc3LjAnLCAnLXRuJywgJzgnLCAnLW1hJywgJzIwMCcsICctbWV0YWxfYmluZGluZycsICctaW1hZScsICc8aW5maWxlLm1hZT4nLCAnLW9tYWUnLCAnPG91dGZpbGUubWFlPic=

> <r_lp_tautomer_probability>
1

> <r_epik_Ionization_Penalty>
5.91376e-08

> <r_epik_Ionization_Penalty_Charging>
0

> <r_epik_Ionization_Penalty_Neutral>
5.91376e-08

> <r_epik_State_Penalty>
-0

> <r_epik_Charging_Adjusted_Penalty>
0

> <i_epik_Tot_Q>
0

> <i_epik_Tot_abs_Q>
0

> <r_epik_Metal_State_Penalty>
-0

> <b_epik_Metal_Only>
0

> <s_lp_Force_Field>
OPLS_2005

> <r_lp_Energy>
4.12188

> <b_lp_Chiralities_Consistent>
1

> <s_lp_Variant>
AV-unprocessed.smi:2181-2

> <Gold.Version>
5.8.1

> <Gold.Id.Protein>
6NUR|6NUR_protein|mol2

> <Gold.PLP.Fitness>
39.2902

> <Gold.PLP.PLP>
-31.2594

> <Gold.PLP.part.hbond>
-3.0000

> <Gold.PLP.part.metal>
0.0000

> <Gold.PLP.part.buried>
-2.8494

> <Gold.PLP.part.nonpolar>
-24.7604

> <Gold.PLP.part.repulsive>
0.2155

> <Gold.PLP.ligand.clash>
0.0000

> <Gold.PLP.ligand.torsion>
0.3896

> <Gold.PLP.Chemscore.Hbond>
2.9280

> <Gold.PLP.Chemscore.CHOScore>
0.0000

> <Gold.PLP.Chemscore.Metal>
0.0000

> <Gold.Chemscore.Hbonds>
donor molecule, donor type, donor heavy atom, donor atom, acceptor molecule, acceptor atom, score
      L1  H    11    28       P1  7948  1.00
      L1  H    17    38       P1 10957  1.00
      P1  H  6896  6907       L1     3  0.47

> <Gold.PLP.Chemscore.Internal.Correction>
0.0261

> <Gold.Rescore>
     Score         DG    S(hbond)    S(metal)    S(lipo)     H(rot)  DE(clash)    DE(int)     intcor
     14.08     -18.99       2.79        0.00      68.51       1.49       0.01       4.90       ----

> <Gold.Chemscore.Fitness>
14.0769

> <Gold.Chemscore.DG>
-18.9900

> <Gold.Chemscore.ZeroCoef>
-5.4800

> <Gold.Chemscore.Hbond>
2.7907

> <Gold.Chemscore.Metal>
0.0000

> <Gold.Chemscore.Lipo>
68.5137

> <Gold.Chemscore.Internal_Hbond>
0.0000

> <Gold.Chemscore.DEClash>
0.0089

> <Gold.Chemscore.DEInternal>
4.9042

> <Gold.Chemscore.Rot>
1.4949

> <Gold.Chemscore.Internal.Correction>
   9.000000E+99

> <Gold.Chemscore.Hbonds>
donor molecule, donor type, donor heavy atom, donor atom, acceptor molecule, acceptor atom, score
      L1  H    11    28       P1  7948  0.45
      L1  H    17    38       P1 10957  0.83
      P1  H  6896  6907       L1     3  0.37

> <Gold.Chemscore.Hbond.Weighted>
-9.3209

> <Gold.Chemscore.Metal.Weighted>
-0.0000

> <Gold.Chemscore.Lipo.Weighted>
-8.0161

> <Gold.Chemscore.Internal_Hbond.Weighted>
0.0000

> <Gold.Chemscore.DEClash.Weighted>
0.0089

> <Gold.Chemscore.DEInternal.Weighted>
4.9042

> <Gold.Chemscore.Rot.Weighted>
3.8269

> <Gold.Chemscore.Internal.Correction.Weighted>
   9.000000E+99

> <Gold.Protein.RotatedTorsions>
[ 6907 6896 6895 6894 ] final -150.51 input  -60.11 | X-H torsion
[ 7974 7965 7964 7962 ] final  -83.42 input  175.53 | X-H torsion
[ 8008 7997 7996 7995 ] final  -10.23 input   59.86 | X-H torsion
[ 10167 10162 10161 10158 ] final  -47.58 input  -65.29 | X-H torsion
[ 10718 10713 10712 10709 ] final   27.52 input   66.30 | X-H torsion
[ 10763 10752 10751 10750 ] final   12.80 input  -60.55 | X-H torsion
[ 11005 11000 10999 10996 ] final  166.47 input  -57.11 | X-H torsion

> <Gold.Protein.ActiveResidues>
 VAL166  LYS551  ARG553  GLY616  TRP617  ASP618  TYR619  PRO620  LYS621  CYS622 
 ASP623  PHE694  ASN695  SER759  ASP760  ASP761  ALA762  ILE779  LEU786  VAL792 
 PHE793  MET794  SER795  GLU796  ALA797  LYS798  CYS799  TRP800  GLU811  SER814 

> <Gold.Protein.RotatedAtoms>
  151.1996  133.4619  159.2595 H   0  0  0  0  0  0  0  0  0  0  0  0  # atno 6907 bound_to 6896
  151.1083  135.0012  159.8491 H   0  0  0  0  0  0  0  0  0  0  0  0  # atno 6908 bound_to 6896
  152.5448  134.1917  159.8729 H   0  0  0  0  0  0  0  0  0  0  0  0  # atno 6909 bound_to 6896
  145.5201  140.9532  143.1659 H   0  0  0  0  0  0  0  0  0  0  0  0  # atno 7974 bound_to 7965
  154.5573  140.2334  155.8389 H   0  0  0  0  0  0  0  0  0  0  0  0  # atno 8008 bound_to 7997
  156.1999  140.3055  155.9466 H   0  0  0  0  0  0  0  0  0  0  0  0  # atno 8009 bound_to 7997
  155.2955  140.0428  157.3016 H   0  0  0  0  0  0  0  0  0  0  0  0  # atno 8010 bound_to 7997
  140.6769  143.2778  151.3946 H   0  0  0  0  0  0  0  0  0  0  0  0  # atno 10167 bound_to 10162
  157.2213  130.6980  149.6271 H   0  0  0  0  0  0  0  0  0  0  0  0  # atno 10718 bound_to 10713
  153.1786  135.6824  153.8509 H   0  0  0  0  0  0  0  0  0  0  0  0  # atno 10763 bound_to 10752
  153.7849  135.3177  155.3372 H   0  0  0  0  0  0  0  0  0  0  0  0  # atno 10764 bound_to 10752
  154.8045  135.4757  154.0451 H   0  0  0  0  0  0  0  0  0  0  0  0  # atno 10765 bound_to 10752
  140.2668  134.7858  157.3640 H   0  0  0  0  0  0  0  0  0  0  0  0  # atno 11005 bound_to 11000
  144.7680  139.6799  143.7206 LP  0  0  0  0  0  0  0  0  0  0  0  0  # atno 17320 bound_to 7965
  146.2111  139.5468  142.9680 LP  0  0  0  0  0  0  0  0  0  0  0  0  # atno 17321 bound_to 7965
  139.6067  144.1183  152.2256 LP  0  0  0  0  0  0  0  0  0  0  0  0  # atno 17342 bound_to 10162
  140.0584  144.5876  150.7282 LP  0  0  0  0  0  0  0  0  0  0  0  0  # atno 17343 bound_to 10162
  155.9682  130.4519  150.5752 LP  0  0  0  0  0  0  0  0  0  0  0  0  # atno 17370 bound_to 10713
  157.3572  131.0743  151.1665 LP  0  0  0  0  0  0  0  0  0  0  0  0  # atno 17371 bound_to 10713
  140.1411  134.4970  155.8030 LP  0  0  0  0  0  0  0  0  0  0  0  0  # atno 17394 bound_to 11000
  141.2183  133.6826  156.7212 LP  0  0  0  0  0  0  0  0  0  0  0  0  # atno 17395 bound_to 11000

$$$$
