AV-unprocessed.smi:1128|AV-procd|sdf|4842|dock7
  -GOLD-   22720 3413D 1   1.00000     0.00000
 Structure written by MMmdl.
 38 39  0  0  0  0  0  0  0  0  1 V2000
  149.7876  142.0313  157.9935 O   0  0  0  0  0  0  0  0  0  0  0  0
  150.7911  142.3921  157.3798 C   0  0  0  0  0  0  0  0  0  0  0  0
  151.6100  143.3611  157.8140 N   0  0  0  0  0  0  0  0  0  0  0  0
  151.4450  144.1288  159.0453 C   0  0  0  0  0  0  0  0  0  0  0  0
  152.4521  143.7078  160.1348 C   0  0  2  0  0  0  0  0  0  0  0  0
  152.9909  142.2718  159.9283 C   0  0  0  0  0  0  0  0  0  0  0  0
  153.7522  141.7514  161.1344 C   0  0  0  0  0  0  0  0  0  0  0  0
  153.6997  142.3258  162.3476 C   0  0  0  0  0  0  0  0  0  0  0  0
  152.8655  143.5560  162.6512 C   0  0  0  0  0  0  0  0  0  0  0  0
  151.8400  143.8535  161.5413 C   0  0  0  0  0  0  0  0  0  0  0  0
  151.2216  141.8981  156.2039 N   0  0  0  0  0  0  0  0  0  0  0  0
  150.6741  140.8886  155.3924 C   0  0  0  0  0  0  0  0  0  0  0  0
  149.3669  140.7910  155.0325 C   0  0  0  0  0  0  0  0  0  0  0  0
  148.8781  139.7165  154.1844 C   0  0  0  0  0  0  0  0  0  0  0  0
  147.4033  139.5889  153.8350 C   0  0  0  0  0  0  0  0  0  0  0  0
  146.8500  138.5364  154.4391 F   0  0  0  0  0  0  0  0  0  0  0  0
  146.7313  140.6813  154.1986 F   0  0  0  0  0  0  0  0  0  0  0  0
  147.2617  139.4346  152.5195 F   0  0  0  0  0  0  0  0  0  0  0  0
  149.7833  138.8017  153.7916 C   0  0  0  0  0  0  0  0  0  0  0  0
  151.1286  138.8960  154.1532 N   0  0  0  0  0  0  0  0  0  0  0  0
  151.6400  139.8779  154.9287 C   0  0  0  0  0  0  0  0  0  0  0  0
  152.8392  139.8881  155.2046 O   0  0  0  0  0  0  0  0  0  0  0  0
  151.7479  138.1764  153.8092 H   0  0  0  0  0  0  0  0  0  0  0  0
  152.4103  143.5922  157.2436 H   0  0  0  0  0  0  0  0  0  0  0  0
  151.5970  145.1786  158.7928 H   0  0  0  0  0  0  0  0  0  0  0  0
  150.4237  144.0562  159.4233 H   0  0  0  0  0  0  0  0  0  0  0  0
  153.3005  144.3925  160.0818 H   0  0  0  0  0  0  0  0  0  0  0  0
  152.1712  141.5814  159.7265 H   0  0  0  0  0  0  0  0  0  0  0  0
  153.6522  142.2401  159.0620 H   0  0  0  0  0  0  0  0  0  0  0  0
  154.3534  140.8665  160.9855 H   0  0  0  0  0  0  0  0  0  0  0  0
  154.2791  141.9162  163.1620 H   0  0  0  0  0  0  0  0  0  0  0  0
  152.3518  143.4178  163.6029 H   0  0  0  0  0  0  0  0  0  0  0  0
  153.5429  144.4013  162.7755 H   0  0  0  0  0  0  0  0  0  0  0  0
  151.4378  144.8574  161.6810 H   0  0  0  0  0  0  0  0  0  0  0  0
  150.9951  143.1699  161.6361 H   0  0  0  0  0  0  0  0  0  0  0  0
  152.0555  142.3235  155.8256 H   0  0  0  0  0  0  0  0  0  0  0  0
  148.6382  141.5105  155.3650 H   0  0  0  0  0  0  0  0  0  0  0  0
  149.5535  137.9396  153.1828 H   0  0  0  0  0  0  0  0  0  0  0  0
  1  2  2  0  0  0  0
  2  3  1  0  0  0  0
  2 11  1  0  0  0  0
  3  4  1  0  0  0  0
  3 24  1  0  0  0  0
  4  5  1  0  0  0  0
  4 25  1  0  0  0  0
  4 26  1  0  0  0  0
  5 10  1  0  0  0  0
  5  6  1  0  0  0  0
  5 27  1  0  0  0  0
  6  7  1  0  0  0  0
  6 28  1  0  0  0  0
  6 29  1  0  0  0  0
  7  8  2  0  0  0  0
  7 30  1  0  0  0  0
  8  9  1  0  0  0  0
  8 31  1  0  0  0  0
  9 10  1  0  0  0  0
  9 32  1  0  0  0  0
  9 33  1  0  0  0  0
 10 34  1  0  0  0  0
 10 35  1  0  0  0  0
 11 12  1  0  0  0  0
 11 36  1  0  0  0  0
 12 21  1  0  0  0  0
 12 13  2  0  0  0  0
 13 14  1  0  0  0  0
 13 37  1  0  0  0  0
 14 15  1  0  0  0  0
 14 19  2  0  0  0  0
 15 16  1  0  0  0  0
 15 17  1  0  0  0  0
 15 18  1  0  0  0  0
 19 20  1  0  0  0  0
 19 38  1  0  0  0  0
 20 23  1  0  0  0  0
 20 21  1  0  0  0  0
 21 22  2  0  0  0  0
M  END
> <s_m_source_file>
AV-unprocessed.smi

> <i_m_source_file_index>
1128

> <i_lp_mmshare_version>
43012

> <i_f3d_flags>
0

> <s_epik_input>
Tz1jMVtuSF1bY0hdYyhDKEYpKEYpRilbY0hdYzFbTkhdQyg9TylbTkhdW0NIMl1bQ0BASF0yW0NIMl1bQ0hdPVtDSF1bQ0gyXVtDSDJdMg==

> <s_epik_cmdline>
J2VwaWtfcHl0aG9uJywgJy1waCcsICc3LjAnLCAnLXRuJywgJzgnLCAnLW1hJywgJzIwMCcsICctbWV0YWxfYmluZGluZycsICctaW1hZScsICc8aW5maWxlLm1hZT4nLCAnLW9tYWUnLCAnPG91dGZpbGUubWFlPic=

> <r_lp_tautomer_probability>
1

> <r_epik_Ionization_Penalty>
0.00381734

> <r_epik_Ionization_Penalty_Charging>
0.00379608

> <r_epik_Ionization_Penalty_Neutral>
2.12611e-05

> <r_epik_State_Penalty>
-0

> <r_epik_Charging_Adjusted_Penalty>
0.00379608

> <i_epik_Tot_Q>
0

> <i_epik_Tot_abs_Q>
0

> <r_epik_Metal_State_Penalty>
0.371155

> <b_epik_Metal_Only>
0

> <s_lp_Force_Field>
OPLS_2005

> <r_lp_Energy>
20.2087

> <b_lp_Chiralities_Consistent>
1

> <s_lp_Variant>
AV-unprocessed.smi:1128-1

> <Gold.Version>
5.8.1

> <Gold.Id.Protein>
6NUR|6NUR_protein|mol2

> <Gold.PLP.Fitness>
50.8157

> <Gold.PLP.PLP>
-47.1335

> <Gold.PLP.part.hbond>
-1.0000

> <Gold.PLP.part.metal>
0.0000

> <Gold.PLP.part.buried>
-0.3753

> <Gold.PLP.part.nonpolar>
-46.2251

> <Gold.PLP.part.repulsive>
0.3654

> <Gold.PLP.ligand.clash>
0.0000

> <Gold.PLP.ligand.torsion>
1.1766

> <Gold.PLP.Chemscore.Hbond>
1.0000

> <Gold.PLP.Chemscore.CHOScore>
1.0000

> <Gold.PLP.Chemscore.Metal>
0.0000

> <Gold.Chemscore.Hbonds>
donor molecule, donor type, donor heavy atom, donor atom, acceptor molecule, acceptor atom, score
      P1  H  7997  8009       L1    22  1.00
      L1  C    19    38       P1  7948  1.00

> <Gold.PLP.Chemscore.Internal.Correction>
0.0354

> <Gold.Rescore>
     Score         DG    S(hbond)    S(metal)    S(lipo)     H(rot)  DE(clash)    DE(int)     intcor
     17.04     -18.19       1.00        0.00     108.72       1.30       0.29       0.86       ----

> <Gold.Chemscore.Fitness>
17.0403

> <Gold.Chemscore.DG>
-18.1908

> <Gold.Chemscore.ZeroCoef>
-5.4800

> <Gold.Chemscore.Hbond>
0.9966

> <Gold.Chemscore.Metal>
0.0000

> <Gold.Chemscore.Lipo>
108.7174

> <Gold.Chemscore.Internal_Hbond>
0.0000

> <Gold.Chemscore.DEClash>
0.2941

> <Gold.Chemscore.DEInternal>
0.8563

> <Gold.Chemscore.Rot>
1.3038

> <Gold.Chemscore.Internal.Correction>
   9.000000E+99

> <Gold.Chemscore.Hbonds>
donor molecule, donor type, donor heavy atom, donor atom, acceptor molecule, acceptor atom, score
      P1  H  7997  8009       L1    22  1.00

> <Gold.Chemscore.Hbond.Weighted>
-3.3286

> <Gold.Chemscore.Metal.Weighted>
-0.0000

> <Gold.Chemscore.Lipo.Weighted>
-12.7199

> <Gold.Chemscore.Internal_Hbond.Weighted>
0.0000

> <Gold.Chemscore.DEClash.Weighted>
0.2941

> <Gold.Chemscore.DEInternal.Weighted>
0.8563

> <Gold.Chemscore.Rot.Weighted>
3.3377

> <Gold.Chemscore.Internal.Correction.Weighted>
   9.000000E+99

> <Gold.Protein.RotatedTorsions>
[ 6907 6896 6895 6894 ] final  118.53 input  -60.11 | X-H torsion
[ 7974 7965 7964 7962 ] final  -64.07 input  175.53 | X-H torsion
[ 8008 7997 7996 7995 ] final -133.98 input   59.86 | X-H torsion
[ 10167 10162 10161 10158 ] final  102.55 input  -65.29 | X-H torsion
[ 10718 10713 10712 10709 ] final  178.05 input   66.30 | X-H torsion
[ 10763 10752 10751 10750 ] final   68.09 input  -60.55 | X-H torsion
[ 11005 11000 10999 10996 ] final  104.46 input  -57.11 | X-H torsion

> <Gold.Protein.ActiveResidues>
 VAL166  LYS551  ARG553  GLY616  TRP617  ASP618  TYR619  PRO620  LYS621  CYS622 
 ASP623  PHE694  ASN695  SER759  ASP760  ASP761  ALA762  ILE779  LEU786  VAL792 
 PHE793  MET794  SER795  GLU796  ALA797  LYS798  CYS799  TRP800  GLU811  SER814 

> <Gold.Protein.RotatedAtoms>
  152.4537  133.7679  159.6782 H   0  0  0  0  0  0  0  0  0  0  0  0  # atno 6907 bound_to 6896
  150.8456  133.7857  159.3050 H   0  0  0  0  0  0  0  0  0  0  0  0  # atno 6908 bound_to 6896
  151.5468  135.1070  159.9992 H   0  0  0  0  0  0  0  0  0  0  0  0  # atno 6909 bound_to 6896
  145.7713  140.8811  143.0378 H   0  0  0  0  0  0  0  0  0  0  0  0  # atno 7974 bound_to 7965
  155.3545  140.0479  157.3046 H   0  0  0  0  0  0  0  0  0  0  0  0  # atno 8008 bound_to 7997
  154.5210  140.2225  155.8940 H   0  0  0  0  0  0  0  0  0  0  0  0  # atno 8009 bound_to 7997
  156.1689  140.3100  155.8944 H   0  0  0  0  0  0  0  0  0  0  0  0  # atno 8010 bound_to 7997
  139.7340  144.7028  151.0677 H   0  0  0  0  0  0  0  0  0  0  0  0  # atno 10167 bound_to 10162
  156.8963  130.9864  151.3042 H   0  0  0  0  0  0  0  0  0  0  0  0  # atno 10718 bound_to 10713
  153.0218  135.5260  154.7080 H   0  0  0  0  0  0  0  0  0  0  0  0  # atno 10763 bound_to 10752
  154.6170  135.2884  155.0371 H   0  0  0  0  0  0  0  0  0  0  0  0  # atno 10764 bound_to 10752
  154.1371  135.6584  153.4987 H   0  0  0  0  0  0  0  0  0  0  0  0  # atno 10765 bound_to 10752
  139.8792  134.9301  156.5366 H   0  0  0  0  0  0  0  0  0  0  0  0  # atno 11005 bound_to 11000
  144.6812  139.9859  143.7484 LP  0  0  0  0  0  0  0  0  0  0  0  0  # atno 17320 bound_to 7965
  146.0167  139.3216  143.0837 LP  0  0  0  0  0  0  0  0  0  0  0  0  # atno 17321 bound_to 7965
  140.7776  143.5007  150.9775 LP  0  0  0  0  0  0  0  0  0  0  0  0  # atno 17342 bound_to 10162
  139.8695  143.7211  152.3167 LP  0  0  0  0  0  0  0  0  0  0  0  0  # atno 17343 bound_to 10162
  157.6053  130.8543  149.8866 LP  0  0  0  0  0  0  0  0  0  0  0  0  # atno 17370 bound_to 10713
  156.0604  130.3701  150.0995 LP  0  0  0  0  0  0  0  0  0  0  0  0  # atno 17371 bound_to 10713
  140.8342  133.8255  155.9012 LP  0  0  0  0  0  0  0  0  0  0  0  0  # atno 17394 bound_to 11000
  140.9300  134.2034  157.4870 LP  0  0  0  0  0  0  0  0  0  0  0  0  # atno 17395 bound_to 11000

$$$$
