AV-unprocessed.smi:2024|AV-procd|sdf|8195|dock6
  -GOLD-   2272010453D 1   1.00000     0.00000
 Structure written by MMmdl.
 43 44  0  0  0  0  0  0  0  0  3 V2000
  151.8688  139.8105  155.3408 C   0  0  0  0  0  0  0  0  0  0  0  0
  150.7915  139.2151  154.5576 N   0  0  0  0  0  0  0  0  0  0  0  0
  150.8572  139.5543  153.1364 C   0  0  0  0  0  0  0  0  0  0  0  0
  152.0227  138.8435  152.4168 C   0  0  0  0  0  0  0  0  0  0  0  0
  151.9127  137.3642  152.5681 N   0  3  0  0  0  0  0  0  0  0  0  0
  152.8617  136.5455  151.7307 C   0  0  0  0  0  0  0  0  0  0  0  0
  152.6760  136.8926  150.2319 C   0  0  0  0  0  0  0  0  0  0  0  0
  154.3204  136.9351  152.0800 C   0  0  0  0  0  0  0  0  0  0  0  0
  152.6325  135.0192  151.9475 C   0  0  0  0  0  0  0  0  0  0  0  0
  151.3974  134.5267  151.3394 N   0  0  0  0  0  0  0  0  0  0  0  0
  151.2931  133.5561  150.4203 C   0  0  0  0  0  0  0  0  0  0  0  0
  152.3046  132.9793  150.0142 O   0  0  0  0  0  0  0  0  0  0  0  0
  150.0228  133.3235  150.0220 N   0  5  0  0  0  0  0  0  0  0  0  0
  149.6049  132.0646  149.8129 C   0  0  0  0  0  0  0  0  0  0  0  0
  148.5766  131.7600  149.0134 N   0  0  0  0  0  0  0  0  0  0  0  0
  148.3175  130.3901  148.9404 C   0  0  0  0  0  0  0  0  0  0  0  0
  149.1747  129.6336  149.6945 C   0  0  0  0  0  0  0  0  0  0  0  0
  150.3413  130.6247  150.5226 S   0  0  0  0  0  0  0  0  0  0  0  0
  151.8645  137.0253  154.0189 C   0  0  0  0  0  0  0  0  0  0  0  0
  150.7007  137.7638  154.7127 C   0  0  0  0  0  0  0  0  0  0  0  0
  151.8517  140.8962  155.2408 H   0  0  0  0  0  0  0  0  0  0  0  0
  152.8539  139.4601  155.0352 H   0  0  0  0  0  0  0  0  0  0  0  0
  151.7406  139.5753  156.3978 H   0  0  0  0  0  0  0  0  0  0  0  0
  149.9137  139.2707  152.6680 H   0  0  0  0  0  0  0  0  0  0  0  0
  150.9437  140.6356  153.0231 H   0  0  0  0  0  0  0  0  0  0  0  0
  151.9774  139.1363  151.3701 H   0  0  0  0  0  0  0  0  0  0  0  0
  152.9787  139.2024  152.7970 H   0  0  0  0  0  0  0  0  0  0  0  0
  153.4762  136.4754  149.6192 H   0  0  0  0  0  0  0  0  0  0  0  0
  152.6791  137.9711  150.0695 H   0  0  0  0  0  0  0  0  0  0  0  0
  151.7480  136.4920  149.8247 H   0  0  0  0  0  0  0  0  0  0  0  0
  155.0310  136.5328  151.3575 H   0  0  0  0  0  0  0  0  0  0  0  0
  154.6310  136.5526  153.0521 H   0  0  0  0  0  0  0  0  0  0  0  0
  154.4532  138.0176  152.0852 H   0  0  0  0  0  0  0  0  0  0  0  0
  153.4784  134.4368  151.5824 H   0  0  0  0  0  0  0  0  0  0  0  0
  152.5560  134.7935  153.0106 H   0  0  0  0  0  0  0  0  0  0  0  0
  150.5382  134.9634  151.6399 H   0  0  0  0  0  0  0  0  0  0  0  0
  147.5014  130.0405  148.3256 H   0  0  0  0  0  0  0  0  0  0  0  0
  149.1928  128.5607  149.8118 H   0  0  0  0  0  0  0  0  0  0  0  0
  151.6982  135.9609  154.1689 H   0  0  0  0  0  0  0  0  0  0  0  0
  152.8114  137.2631  154.5029 H   0  0  0  0  0  0  0  0  0  0  0  0
  150.6692  137.5113  155.7732 H   0  0  0  0  0  0  0  0  0  0  0  0
  149.7531  137.4289  154.2885 H   0  0  0  0  0  0  0  0  0  0  0  0
  150.9966  137.1312  152.2130 H   0  0  0  0  0  0  0  0  0  0  0  0
  1  2  1  0  0  0  0
  1 21  1  0  0  0  0
  1 22  1  0  0  0  0
  1 23  1  0  0  0  0
  2 20  1  0  0  0  0
  2  3  1  0  0  0  0
  3  4  1  0  0  0  0
  3 24  1  0  0  0  0
  3 25  1  0  0  0  0
  4  5  1  0  0  0  0
  4 26  1  0  0  0  0
  4 27  1  0  0  0  0
  5  6  1  0  0  0  0
  5 19  1  0  0  0  0
  5 43  1  0  0  0  0
  6  7  1  0  0  0  0
  6  8  1  0  0  0  0
  6  9  1  0  0  0  0
  7 28  1  0  0  0  0
  7 29  1  0  0  0  0
  7 30  1  0  0  0  0
  8 31  1  0  0  0  0
  8 32  1  0  0  0  0
  8 33  1  0  0  0  0
  9 10  1  0  0  0  0
  9 34  1  0  0  0  0
  9 35  1  0  0  0  0
 10 11  1  0  0  0  0
 10 36  1  0  0  0  0
 11 12  2  0  0  0  0
 11 13  1  0  0  0  0
 13 14  1  0  0  0  0
 14 18  1  0  0  0  0
 14 15  2  0  0  0  0
 15 16  1  0  0  0  0
 16 17  2  0  0  0  0
 16 37  1  0  0  0  0
 17 18  1  0  0  0  0
 17 38  1  0  0  0  0
 19 20  1  0  0  0  0
 19 39  1  0  0  0  0
 19 40  1  0  0  0  0
 20 41  1  0  0  0  0
 20 42  1  0  0  0  0
M  CHG  1   5   1
M  CHG  1  13  -1
M  END
> <s_m_source_file>
AV-unprocessed.smi

> <i_m_source_file_index>
2024

> <i_lp_mmshare_version>
43012

> <i_f3d_flags>
0

> <s_epik_input>
W0NIM11OMVtDSDJdW0NIMl1OKFtDSDJdW0NIMl0xKUMoW0NIM10pKFtDSDNdKVtDSDJdW05IXUMoPU8pW05IXWMybltjSF1bY0hdczI=

> <s_epik_cmdline>
J2VwaWtfcHl0aG9uJywgJy1waCcsICc3LjAnLCAnLXRuJywgJzgnLCAnLW1hJywgJzIwMCcsICctbWV0YWxfYmluZGluZycsICctaW1hZScsICc8aW5maWxlLm1hZT4nLCAnLW9tYWUnLCAnPG91dGZpbGUubWFlPic=

> <r_epik_Ionization_Penalty>
6.29536

> <r_epik_Ionization_Penalty_Charging>
5.46232

> <r_epik_Ionization_Penalty_Neutral>
0.833035

> <r_epik_State_Penalty>
6.42136

> <r_epik_Charging_Adjusted_Penalty>
11.8837

> <i_epik_Tot_Q>
0

> <i_epik_Tot_abs_Q>
2

> <r_epik_Metal_State_Penalty>
2.42657

> <b_epik_Metal_Only>
1

> <s_lp_Force_Field>
OPLS_2005

> <r_lp_Energy>
16.4996

> <b_lp_Chiralities_Consistent>
1

> <s_lp_Variant>
AV-unprocessed.smi:2024-5

> <Gold.Version>
5.8.1

> <Gold.Id.Protein>
6NUR|6NUR_protein|mol2

> <Gold.PLP.Fitness>
44.5439

> <Gold.PLP.PLP>
-30.4359

> <Gold.PLP.part.hbond>
-3.0000

> <Gold.PLP.part.metal>
0.0000

> <Gold.PLP.part.buried>
-5.2538

> <Gold.PLP.part.nonpolar>
-23.8632

> <Gold.PLP.part.repulsive>
0.9567

> <Gold.PLP.ligand.clash>
0.0000

> <Gold.PLP.ligand.torsion>
0.6005

> <Gold.PLP.Chemscore.Hbond>
3.7000

> <Gold.PLP.Chemscore.CHOScore>
1.3646

> <Gold.PLP.Chemscore.Metal>
0.0000

> <Gold.Chemscore.Hbonds>
donor molecule, donor type, donor heavy atom, donor atom, acceptor molecule, acceptor atom, score
      L1  H     5    43       P1  7949  0.11

> <Gold.PLP.Chemscore.Internal.Correction>
0.1154

> <Gold.Rescore>
     Score         DG    S(hbond)    S(metal)    S(lipo)     H(rot)  DE(clash)    DE(int)     intcor
     15.46     -16.13       1.92        0.00      70.59       1.57       0.05       0.62       ----

> <Gold.Chemscore.Fitness>
15.4588

> <Gold.Chemscore.DG>
-16.1304

> <Gold.Chemscore.ZeroCoef>
-5.4800

> <Gold.Chemscore.Hbond>
1.9178

> <Gold.Chemscore.Metal>
0.0000

> <Gold.Chemscore.Lipo>
70.5863

> <Gold.Chemscore.Internal_Hbond>
0.0000

> <Gold.Chemscore.DEClash>
0.0518

> <Gold.Chemscore.DEInternal>
0.6197

> <Gold.Chemscore.Rot>
1.5678

> <Gold.Chemscore.Internal.Correction>
   9.000000E+99

> <Gold.Chemscore.Hbonds>
donor molecule, donor type, donor heavy atom, donor atom, acceptor molecule, acceptor atom, score
      L1  H     5    43       P1  7949  0.01

> <Gold.Chemscore.Hbond.Weighted>
-6.4054

> <Gold.Chemscore.Metal.Weighted>
-0.0000

> <Gold.Chemscore.Lipo.Weighted>
-8.2586

> <Gold.Chemscore.Internal_Hbond.Weighted>
0.0000

> <Gold.Chemscore.DEClash.Weighted>
0.0518

> <Gold.Chemscore.DEInternal.Weighted>
0.6197

> <Gold.Chemscore.Rot.Weighted>
4.0136

> <Gold.Chemscore.Internal.Correction.Weighted>
   9.000000E+99

> <Gold.Protein.RotatedTorsions>
[ 6907 6896 6895 6894 ] final    8.91 input  -60.11 | X-H torsion
[ 7974 7965 7964 7962 ] final   16.85 input  175.53 | X-H torsion
[ 8008 7997 7996 7995 ] final  -52.68 input   59.86 | X-H torsion
[ 10167 10162 10161 10158 ] final -135.29 input  -65.29 | X-H torsion
[ 10718 10713 10712 10709 ] final -115.05 input   66.30 | X-H torsion
[ 10763 10752 10751 10750 ] final  123.70 input  -60.55 | X-H torsion
[ 11005 11000 10999 10996 ] final  115.87 input  -57.11 | X-H torsion

> <Gold.Protein.ActiveResidues>
 VAL166  LYS551  ARG553  GLY616  TRP617  ASP618  TYR619  PRO620  LYS621  CYS622 
 ASP623  PHE694  ASN695  SER759  ASP760  ASP761  ALA762  ILE779  LEU786  VAL792 
 PHE793  MET794  SER795  GLU796  ALA797  LYS798  CYS799  TRP800  GLU811  SER814 

> <Gold.Protein.RotatedAtoms>
  151.7136  135.0908  160.0271 H   0  0  0  0  0  0  0  0  0  0  0  0  # atno 6907 bound_to 6896
  152.3646  133.6336  159.6049 H   0  0  0  0  0  0  0  0  0  0  0  0  # atno 6908 bound_to 6896
  150.7628  133.9285  159.3461 H   0  0  0  0  0  0  0  0  0  0  0  0  # atno 6909 bound_to 6896
  146.2237  139.8687  142.8591 H   0  0  0  0  0  0  0  0  0  0  0  0  # atno 7974 bound_to 7965
  154.4113  140.1218  156.5030 H   0  0  0  0  0  0  0  0  0  0  0  0  # atno 8008 bound_to 7997
  155.6875  140.3495  155.4861 H   0  0  0  0  0  0  0  0  0  0  0  0  # atno 8009 bound_to 7997
  155.9498  140.1102  157.0976 H   0  0  0  0  0  0  0  0  0  0  0  0  # atno 8010 bound_to 7997
  139.8794  143.6858  152.2629 H   0  0  0  0  0  0  0  0  0  0  0  0  # atno 10167 bound_to 10162
  156.0870  130.6060  150.8856 H   0  0  0  0  0  0  0  0  0  0  0  0  # atno 10718 bound_to 10713
  153.6496  135.3365  155.3096 H   0  0  0  0  0  0  0  0  0  0  0  0  # atno 10763 bound_to 10752
  154.8540  135.4338  154.1918 H   0  0  0  0  0  0  0  0  0  0  0  0  # atno 10764 bound_to 10752
  153.2857  135.7013  153.7416 H   0  0  0  0  0  0  0  0  0  0  0  0  # atno 10765 bound_to 10752
  139.9023  134.9590  156.7112 H   0  0  0  0  0  0  0  0  0  0  0  0  # atno 11005 bound_to 11000
  145.2630  141.0083  143.3815 LP  0  0  0  0  0  0  0  0  0  0  0  0  # atno 17320 bound_to 7965
  144.9283  139.4328  143.6507 LP  0  0  0  0  0  0  0  0  0  0  0  0  # atno 17321 bound_to 7965
  139.7210  144.7602  151.0955 LP  0  0  0  0  0  0  0  0  0  0  0  0  # atno 17342 bound_to 10162
  140.7747  143.5207  150.9539 LP  0  0  0  0  0  0  0  0  0  0  0  0  # atno 17343 bound_to 10162
  157.6008  131.0941  150.8964 LP  0  0  0  0  0  0  0  0  0  0  0  0  # atno 17370 bound_to 10713
  156.9121  130.5284  149.5280 LP  0  0  0  0  0  0  0  0  0  0  0  0  # atno 17371 bound_to 10713
  140.7074  133.9253  155.8062 LP  0  0  0  0  0  0  0  0  0  0  0  0  # atno 17394 bound_to 11000
  141.0326  134.0735  157.3996 LP  0  0  0  0  0  0  0  0  0  0  0  0  # atno 17395 bound_to 11000

$$$$
