AV-unprocessed.smi:1803|AV-procd|sdf|7293|dock10
  -GOLD-   22720 8553D 1   1.00000     0.00000
 Structure written by MMmdl.
 35 37  0  0  0  0  0  0  0  0  3 V2000
  150.2589  140.2644  154.4647 O   0  0  0  0  0  0  0  0  0  0  0  0
  149.5008  141.1827  154.7740 C   0  0  0  0  0  0  0  0  0  0  0  0
  148.3223  141.4227  154.1431 N   0  5  0  0  0  0  0  0  0  0  0  0
  147.2961  142.0578  154.7392 C   0  0  0  0  0  0  0  0  0  0  0  0
  147.1325  142.0693  156.0721 N   0  0  0  0  0  0  0  0  0  0  0  0
  146.0078  142.7743  156.4776 N   0  0  0  0  0  0  0  0  0  0  0  0
  145.3564  143.2911  155.4360 C   0  0  0  0  0  0  0  0  0  0  0  0
  146.0529  142.9553  153.8650 S   0  0  0  0  0  0  0  0  0  0  0  0
  149.8540  142.0050  155.7806 N   0  0  0  0  0  0  0  0  0  0  0  0
  151.1042  141.9445  156.5306 C   0  0  2  0  0  0  0  0  0  0  0  0
  151.2750  140.6512  157.3164 C   0  0  0  0  0  0  0  0  0  0  0  0
  152.3421  141.0171  158.3534 C   0  0  0  0  0  0  0  0  0  0  0  0
  152.2468  142.4819  158.5704 N   0  3  2  0  0  0  0  0  0  0  0  0
  152.0514  142.8727  159.9924 C   0  0  0  0  0  0  0  0  0  0  0  0
  151.5560  144.3224  160.1014 C   0  0  0  0  0  0  0  0  0  0  0  0
  150.1859  144.5007  159.4203 C   0  0  0  0  0  0  0  0  0  0  0  0
  149.9337  143.4513  158.3208 C   0  0  0  0  0  0  0  0  0  0  0  0
  151.2461  143.0313  157.6124 C   0  0  2  0  0  0  0  0  0  0  0  0
  144.4602  143.8725  155.5935 H   0  0  0  0  0  0  0  0  0  0  0  0
  149.2149  142.7500  156.0174 H   0  0  0  0  0  0  0  0  0  0  0  0
  151.9430  142.0234  155.8355 H   0  0  0  0  0  0  0  0  0  0  0  0
  150.3437  140.3885  157.8206 H   0  0  0  0  0  0  0  0  0  0  0  0
  151.5669  139.8080  156.6894 H   0  0  0  0  0  0  0  0  0  0  0  0
  152.2250  140.4372  159.2698 H   0  0  0  0  0  0  0  0  0  0  0  0
  153.3356  140.8024  157.9588 H   0  0  0  0  0  0  0  0  0  0  0  0
  151.3256  142.2113  160.4688 H   0  0  0  0  0  0  0  0  0  0  0  0
  152.9931  142.7462  160.5275 H   0  0  0  0  0  0  0  0  0  0  0  0
  151.4961  144.6296  161.1459 H   0  0  0  0  0  0  0  0  0  0  0  0
  152.2856  144.9830  159.6309 H   0  0  0  0  0  0  0  0  0  0  0  0
  149.3874  144.4349  160.1603 H   0  0  0  0  0  0  0  0  0  0  0  0
  150.1265  145.5050  158.9994 H   0  0  0  0  0  0  0  0  0  0  0  0
  149.4652  142.5706  158.7622 H   0  0  0  0  0  0  0  0  0  0  0  0
  149.2107  143.8520  157.6097 H   0  0  0  0  0  0  0  0  0  0  0  0
  151.6724  143.9260  157.1561 H   0  0  0  0  0  0  0  0  0  0  0  0
  153.1351  142.8674  158.2836 H   0  0  0  0  0  0  0  0  0  0  0  0
  1  2  2  0  0  0  0
  2  3  1  0  0  0  0
  2  9  1  0  0  0  0
  3  4  1  0  0  0  0
  4  8  1  0  0  0  0
  4  5  2  0  0  0  0
  5  6  1  0  0  0  0
  6  7  2  0  0  0  0
  7  8  1  0  0  0  0
  7 19  1  0  0  0  0
  9 10  1  0  0  0  0
  9 20  1  0  0  0  0
 10 18  1  0  0  0  0
 10 11  1  0  0  0  0
 10 21  1  0  0  0  0
 11 12  1  0  0  0  0
 11 22  1  0  0  0  0
 11 23  1  0  0  0  0
 12 13  1  0  0  0  0
 12 24  1  0  0  0  0
 12 25  1  0  0  0  0
 13 18  1  0  0  0  0
 13 14  1  0  0  0  0
 13 35  1  0  0  0  0
 14 15  1  0  0  0  0
 14 26  1  0  0  0  0
 14 27  1  0  0  0  0
 15 16  1  0  0  0  0
 15 28  1  0  0  0  0
 15 29  1  0  0  0  0
 16 17  1  0  0  0  0
 16 30  1  0  0  0  0
 16 31  1  0  0  0  0
 17 18  1  0  0  0  0
 17 32  1  0  0  0  0
 17 33  1  0  0  0  0
 18 34  1  0  0  0  0
M  CHG  1   3  -1
M  CHG  1  13   1
M  END
> <s_m_source_file>
AV-unprocessed.smi

> <i_m_source_file_index>
1803

> <i_lp_mmshare_version>
43012

> <i_f3d_flags>
0

> <s_epik_input>
czFbY0hdbm5jMVtOSF1DKD1PKVtOSF1bQ0BIXShbQ0gyXVtDSDJdMilbQ0BASF0oTjIzKVtDSDJdW0NIMl1bQ0gyXVtDSDJdMw==

> <s_epik_cmdline>
J2VwaWtfcHl0aG9uJywgJy1waCcsICc3LjAnLCAnLXRuJywgJzgnLCAnLW1hJywgJzIwMCcsICctbWV0YWxfYmluZGluZycsICctaW1hZScsICc8aW5maWxlLm1hZT4nLCAnLW9tYWUnLCAnPG91dGZpbGUubWFlPic=

> <r_lp_tautomer_probability>
1

> <r_epik_Ionization_Penalty>
3.78828

> <r_epik_Ionization_Penalty_Charging>
3.7591

> <r_epik_Ionization_Penalty_Neutral>
0.0291838

> <r_epik_State_Penalty>
3.757

> <r_epik_Charging_Adjusted_Penalty>
7.51609

> <i_epik_Tot_Q>
0

> <i_epik_Tot_abs_Q>
2

> <r_epik_Metal_State_Penalty>
0.558016

> <b_epik_Metal_Only>
1

> <s_lp_Force_Field>
OPLS_2005

> <r_lp_Energy>
34.1757

> <b_lp_Chiralities_Consistent>
1

> <s_lp_Variant>
AV-unprocessed.smi:1803-15

> <Gold.Version>
5.8.1

> <Gold.Id.Protein>
6NUR|6NUR_protein|mol2

> <Gold.PLP.Fitness>
38.8039

> <Gold.PLP.PLP>
-33.8698

> <Gold.PLP.part.hbond>
-2.1290

> <Gold.PLP.part.metal>
0.0000

> <Gold.PLP.part.buried>
-5.3627

> <Gold.PLP.part.nonpolar>
-27.0425

> <Gold.PLP.part.repulsive>
0.7428

> <Gold.PLP.ligand.clash>
0.0000

> <Gold.PLP.ligand.torsion>
0.2832

> <Gold.PLP.Chemscore.Hbond>
1.8320

> <Gold.PLP.Chemscore.CHOScore>
0.0000

> <Gold.PLP.Chemscore.Metal>
0.0000

> <Gold.Chemscore.Hbonds>
donor molecule, donor type, donor heavy atom, donor atom, acceptor molecule, acceptor atom, score
      L1  H     9    20       P1  8028  0.83
      P1  H  7989  7998       L1     1  1.00

> <Gold.PLP.Chemscore.Internal.Correction>
0.0046

> <Gold.Rescore>
     Score         DG    S(hbond)    S(metal)    S(lipo)     H(rot)  DE(clash)    DE(int)     intcor
     16.44     -16.78       1.52        0.00      74.97       1.00       0.04       0.31       ----

> <Gold.Chemscore.Fitness>
16.4376

> <Gold.Chemscore.DG>
-16.7828

> <Gold.Chemscore.ZeroCoef>
-5.4800

> <Gold.Chemscore.Hbond>
1.5243

> <Gold.Chemscore.Metal>
0.0000

> <Gold.Chemscore.Lipo>
74.9709

> <Gold.Chemscore.Internal_Hbond>
0.0000

> <Gold.Chemscore.DEClash>
0.0363

> <Gold.Chemscore.DEInternal>
0.3090

> <Gold.Chemscore.Rot>
1.0000

> <Gold.Chemscore.Internal.Correction>
   9.000000E+99

> <Gold.Chemscore.Hbonds>
donor molecule, donor type, donor heavy atom, donor atom, acceptor molecule, acceptor atom, score
      L1  H     9    20       P1  8028  0.76
      P1  H  7989  7998       L1     1  0.72

> <Gold.Chemscore.Hbond.Weighted>
-5.0913

> <Gold.Chemscore.Metal.Weighted>
-0.0000

> <Gold.Chemscore.Lipo.Weighted>
-8.7716

> <Gold.Chemscore.Internal_Hbond.Weighted>
0.0000

> <Gold.Chemscore.DEClash.Weighted>
0.0363

> <Gold.Chemscore.DEInternal.Weighted>
0.3090

> <Gold.Chemscore.Rot.Weighted>
2.5600

> <Gold.Chemscore.Internal.Correction.Weighted>
   9.000000E+99

> <Gold.Protein.RotatedTorsions>
[ 6907 6896 6895 6894 ] final  -97.42 input  -60.11 | X-H torsion
[ 7974 7965 7964 7962 ] final -104.74 input  175.53 | X-H torsion
[ 8008 7997 7996 7995 ] final  101.64 input   59.86 | X-H torsion
[ 10167 10162 10161 10158 ] final  -77.01 input  -65.29 | X-H torsion
[ 10718 10713 10712 10709 ] final -148.17 input   66.30 | X-H torsion
[ 10763 10752 10751 10750 ] final -120.60 input  -60.55 | X-H torsion
[ 11005 11000 10999 10996 ] final -142.49 input  -57.11 | X-H torsion

> <Gold.Protein.ActiveResidues>
 VAL166  LYS551  ARG553  GLY616  TRP617  ASP618  TYR619  PRO620  LYS621  CYS622 
 ASP623  PHE694  ASN695  SER759  ASP760  ASP761  ALA762  ILE779  LEU786  VAL792 
 PHE793  MET794  SER795  GLU796  ALA797  LYS798  CYS799  TRP800  GLU811  SER814 

> <Gold.Protein.RotatedAtoms>
  150.7016  134.1352  159.4084 H   0  0  0  0  0  0  0  0  0  0  0  0  # atno 6907 bound_to 6896
  151.9337  135.0242  160.0540 H   0  0  0  0  0  0  0  0  0  0  0  0  # atno 6908 bound_to 6896
  152.2154  133.4907  159.5169 H   0  0  0  0  0  0  0  0  0  0  0  0  # atno 6909 bound_to 6896
  145.2393  140.9199  143.3159 H   0  0  0  0  0  0  0  0  0  0  0  0  # atno 7974 bound_to 7965
  156.1318  140.3194  155.8360 H   0  0  0  0  0  0  0  0  0  0  0  0  # atno 8008 bound_to 7997
  155.4318  140.0519  157.3035 H   0  0  0  0  0  0  0  0  0  0  0  0  # atno 8009 bound_to 7997
  154.4905  140.2090  155.9571 H   0  0  0  0  0  0  0  0  0  0  0  0  # atno 8010 bound_to 7997
  140.4807  143.2403  151.8062 H   0  0  0  0  0  0  0  0  0  0  0  0  # atno 10167 bound_to 10162
  156.4168  130.8009  151.2229 H   0  0  0  0  0  0  0  0  0  0  0  0  # atno 10718 bound_to 10713
  154.8648  135.4197  154.2485 H   0  0  0  0  0  0  0  0  0  0  0  0  # atno 10763 bound_to 10752
  153.3436  135.6995  153.6852 H   0  0  0  0  0  0  0  0  0  0  0  0  # atno 10764 bound_to 10752
  153.5820  135.3571  155.2851 H   0  0  0  0  0  0  0  0  0  0  0  0  # atno 10765 bound_to 10752
  140.8220  134.2620  157.4896 H   0  0  0  0  0  0  0  0  0  0  0  0  # atno 11005 bound_to 11000
  144.9604  139.3986  143.6359 LP  0  0  0  0  0  0  0  0  0  0  0  0  # atno 17320 bound_to 7965
  146.3332  139.8654  142.8849 LP  0  0  0  0  0  0  0  0  0  0  0  0  # atno 17321 bound_to 7965
  139.4833  144.4776  151.9347 LP  0  0  0  0  0  0  0  0  0  0  0  0  # atno 17342 bound_to 10162
  140.3861  144.2675  150.5904 LP  0  0  0  0  0  0  0  0  0  0  0  0  # atno 17343 bound_to 10162
  157.7508  131.0240  150.3860 LP  0  0  0  0  0  0  0  0  0  0  0  0  # atno 17370 bound_to 10713
  156.4169  130.3945  149.6852 LP  0  0  0  0  0  0  0  0  0  0  0  0  # atno 17371 bound_to 10713
  139.8708  134.9540  156.4163 LP  0  0  0  0  0  0  0  0  0  0  0  0  # atno 17394 bound_to 11000
  140.9089  133.7726  155.9768 LP  0  0  0  0  0  0  0  0  0  0  0  0  # atno 17395 bound_to 11000

$$$$
