AV-unprocessed.smi:1261|AV-procd|sdf|5306|dock4
  -GOLD-   22720 4423D 1   1.00000     0.00000
 Structure written by MMmdl.
 50 51  0  0  0  0  0  0  0  0  2 V2000
  153.3875  141.2292  161.5559 C   0  0  0  0  0  0  0  0  0  0  0  0
  152.3025  141.8023  160.6330 C   0  0  1  0  0  0  0  0  0  0  0  0
  152.3584  143.3384  160.5869 C   0  0  0  0  0  0  0  0  0  0  0  0
  151.2800  143.8918  159.6405 C   0  0  1  0  0  0  0  0  0  0  0  0
  151.3322  145.4243  159.5649 C   0  0  0  0  0  0  0  0  0  0  0  0
  151.4178  143.2522  158.2454 C   0  0  0  0  0  0  0  0  0  0  0  0
  151.3511  141.7698  158.3199 N   0  3  1  0  0  0  0  0  0  0  0  0
  151.3329  141.1406  156.9747 C   0  0  0  0  0  0  0  0  0  0  0  0
  150.4816  141.9318  155.9674 C   0  0  0  0  0  0  0  0  0  0  0  0
  149.0916  141.3085  155.7603 C   0  0  0  0  0  0  0  0  0  0  0  0
  148.2176  142.1987  155.0070 N   0  0  0  0  0  0  0  0  0  0  0  0
  147.4129  141.8244  153.9974 C   0  0  0  0  0  0  0  0  0  0  0  0
  147.3520  140.6639  153.5925 O   0  0  0  0  0  0  0  0  0  0  0  0
  146.5262  142.8944  153.3357 C   0  0  0  0  0  0  0  0  0  0  0  0
  145.4085  143.3779  154.1633 N   0  0  0  0  0  0  0  0  0  0  0  0
  145.3102  142.7585  155.4003 N   0  0  0  0  0  0  0  0  0  0  0  0
  144.3733  143.0989  156.2196 C   0  0  0  0  0  0  0  0  0  0  0  0
  144.3114  142.4594  157.4333 O   0  0  0  0  0  0  0  0  0  0  0  0
  143.4128  144.1240  155.8740 C   0  0  0  0  0  0  0  0  0  0  0  0
  143.5156  144.7207  154.6662 C   0  0  0  0  0  0  0  0  0  0  0  0
  144.5636  144.3555  153.7114 C   0  0  0  0  0  0  0  0  0  0  0  0
  144.6714  144.8708  152.5990 O   0  0  0  0  0  0  0  0  0  0  0  0
  152.4090  141.2211  159.2098 C   0  0  0  0  0  0  0  0  0  0  0  0
  144.2828  143.1477  158.0798 H   0  0  0  0  0  0  0  0  0  0  0  0
  154.3866  141.4826  161.1999 H   0  0  0  0  0  0  0  0  0  0  0  0
  153.3210  140.1423  161.6138 H   0  0  0  0  0  0  0  0  0  0  0  0
  153.2866  141.6188  162.5693 H   0  0  0  0  0  0  0  0  0  0  0  0
  151.3348  141.5108  161.0448 H   0  0  0  0  0  0  0  0  0  0  0  0
  152.2183  143.7462  161.5888 H   0  0  0  0  0  0  0  0  0  0  0  0
  153.3455  143.6635  160.2541 H   0  0  0  0  0  0  0  0  0  0  0  0
  150.3034  143.6171  160.0429 H   0  0  0  0  0  0  0  0  0  0  0  0
  152.2877  145.7704  159.1695 H   0  0  0  0  0  0  0  0  0  0  0  0
  151.1992  145.8706  160.5509 H   0  0  0  0  0  0  0  0  0  0  0  0
  150.5442  145.8134  158.9197 H   0  0  0  0  0  0  0  0  0  0  0  0
  150.6159  143.6206  157.6038 H   0  0  0  0  0  0  0  0  0  0  0  0
  152.3589  143.5506  157.7799 H   0  0  0  0  0  0  0  0  0  0  0  0
  152.3514  141.0949  156.5866 H   0  0  0  0  0  0  0  0  0  0  0  0
  150.9865  140.1086  157.0511 H   0  0  0  0  0  0  0  0  0  0  0  0
  150.3615  142.9615  156.3028 H   0  0  0  0  0  0  0  0  0  0  0  0
  151.0021  141.9786  155.0098 H   0  0  0  0  0  0  0  0  0  0  0  0
  149.1805  140.3742  155.2052 H   0  0  0  0  0  0  0  0  0  0  0  0
  148.6353  141.0585  156.7198 H   0  0  0  0  0  0  0  0  0  0  0  0
  148.2132  143.1722  155.2762 H   0  0  0  0  0  0  0  0  0  0  0  0
  147.1684  143.7315  153.0562 H   0  0  0  0  0  0  0  0  0  0  0  0
  146.1472  142.4975  152.3922 H   0  0  0  0  0  0  0  0  0  0  0  0
  142.6356  144.4005  156.5712 H   0  0  0  0  0  0  0  0  0  0  0  0
  142.8057  145.4885  154.3956 H   0  0  0  0  0  0  0  0  0  0  0  0
  153.3903  141.4388  158.7846 H   0  0  0  0  0  0  0  0  0  0  0  0
  152.3263  140.1363  159.2666 H   0  0  0  0  0  0  0  0  0  0  0  0
  150.4628  141.5517  158.7483 H   0  0  0  0  0  0  0  0  0  0  0  0
  1  2  1  0  0  0  0
  1 25  1  0  0  0  0
  1 26  1  0  0  0  0
  1 27  1  0  0  0  0
  2 23  1  0  0  0  0
  2  3  1  0  0  0  0
  2 28  1  0  0  0  0
  3  4  1  0  0  0  0
  3 29  1  0  0  0  0
  3 30  1  0  0  0  0
  4  5  1  0  0  0  0
  4  6  1  0  0  0  0
  4 31  1  0  0  0  0
  5 32  1  0  0  0  0
  5 33  1  0  0  0  0
  5 34  1  0  0  0  0
  6  7  1  0  0  0  0
  6 35  1  0  0  0  0
  6 36  1  0  0  0  0
  7  8  1  0  0  0  0
  7 23  1  0  0  0  0
  7 50  1  0  0  0  0
  8  9  1  0  0  0  0
  8 37  1  0  0  0  0
  8 38  1  0  0  0  0
  9 10  1  0  0  0  0
  9 39  1  0  0  0  0
  9 40  1  0  0  0  0
 10 11  1  0  0  0  0
 10 41  1  0  0  0  0
 10 42  1  0  0  0  0
 11 12  1  0  0  0  0
 11 43  1  0  0  0  0
 12 13  2  0  0  0  0
 12 14  1  0  0  0  0
 14 44  1  0  0  0  0
 14 45  1  0  0  0  0
 14 15  1  0  0  0  0
 15 16  1  0  0  0  0
 15 21  1  0  0  0  0
 16 17  2  0  0  0  0
 17 18  1  0  0  0  0
 17 19  1  0  0  0  0
 18 24  1  0  0  0  0
 19 46  1  0  0  0  0
 19 20  2  0  0  0  0
 20 47  1  0  0  0  0
 20 21  1  0  0  0  0
 21 22  2  0  0  0  0
 23 48  1  0  0  0  0
 23 49  1  0  0  0  0
M  CHG  1   7   1
M  END
> <s_m_source_file>
AV-unprocessed.smi

> <i_m_source_file_index>
1261

> <i_lp_mmshare_version>
43012

> <i_f3d_flags>
0

> <s_epik_input>
W0NIM11bQ0BASF0xW0NIMl1bQ0BASF0oW0NIM10pW0NIMl1OKFtDSDJdMSlbQ0gyXVtDSDJdW0NIMl1bTkhdQyg9TylbQ0gyXW4yW25IXWMoPU8pW2NIXVtjSF1jMj1P

> <s_epik_cmdline>
J2VwaWtfcHl0aG9uJywgJy1waCcsICc3LjAnLCAnLXRuJywgJzgnLCAnLW1hJywgJzIwMCcsICctbWV0YWxfYmluZGluZycsICctaW1hZScsICc8aW5maWxlLm1hZT4nLCAnLW9tYWUnLCAnPG91dGZpbGUubWFlPic=

> <r_lp_tautomer_probability>
0.9996

> <r_epik_Ionization_Penalty>
2.1425

> <r_epik_Ionization_Penalty_Charging>
0.000312112

> <r_epik_Ionization_Penalty_Neutral>
2.14218

> <r_epik_State_Penalty>
1.71978

> <r_epik_Charging_Adjusted_Penalty>
1.72009

> <i_epik_Tot_Q>
1

> <i_epik_Tot_abs_Q>
1

> <r_epik_Metal_State_Penalty>
1.71978

> <b_epik_Metal_Only>
0

> <s_lp_Force_Field>
OPLS_2005

> <r_lp_Energy>
26.9224

> <b_lp_Chiralities_Consistent>
1

> <s_lp_Variant>
AV-unprocessed.smi:1261-6

> <Gold.Version>
5.8.1

> <Gold.Id.Protein>
6NUR|6NUR_protein|mol2

> <Gold.PLP.Fitness>
50.2391

> <Gold.PLP.PLP>
-48.5528

> <Gold.PLP.part.hbond>
-1.7870

> <Gold.PLP.part.metal>
0.0000

> <Gold.PLP.part.buried>
-8.1339

> <Gold.PLP.part.nonpolar>
-38.7156

> <Gold.PLP.part.repulsive>
0.7263

> <Gold.PLP.ligand.clash>
0.0000

> <Gold.PLP.ligand.torsion>
0.6877

> <Gold.PLP.Chemscore.Hbond>
1.0000

> <Gold.PLP.Chemscore.CHOScore>
0.0000

> <Gold.PLP.Chemscore.Metal>
0.0000

> <Gold.Chemscore.Hbonds>
donor molecule, donor type, donor heavy atom, donor atom, acceptor molecule, acceptor atom, score
      L1  H    11    43       P1  8028  1.00

> <Gold.PLP.Chemscore.Internal.Correction>
0.0616

> <Gold.Rescore>
     Score         DG    S(hbond)    S(metal)    S(lipo)     H(rot)  DE(clash)    DE(int)     intcor
     13.22     -14.18       1.00        0.00     114.42       3.14       0.16       0.80       ----

> <Gold.Chemscore.Fitness>
13.2216

> <Gold.Chemscore.DG>
-14.1788

> <Gold.Chemscore.ZeroCoef>
-5.4800

> <Gold.Chemscore.Hbond>
0.9994

> <Gold.Chemscore.Metal>
0.0000

> <Gold.Chemscore.Lipo>
114.4164

> <Gold.Chemscore.Internal_Hbond>
0.0000

> <Gold.Chemscore.DEClash>
0.1605

> <Gold.Chemscore.DEInternal>
0.7968

> <Gold.Chemscore.Rot>
3.1352

> <Gold.Chemscore.Internal.Correction>
   9.000000E+99

> <Gold.Chemscore.Hbonds>
donor molecule, donor type, donor heavy atom, donor atom, acceptor molecule, acceptor atom, score
      L1  H    11    43       P1  8028  0.95

> <Gold.Chemscore.Hbond.Weighted>
-3.3381

> <Gold.Chemscore.Metal.Weighted>
-0.0000

> <Gold.Chemscore.Lipo.Weighted>
-13.3867

> <Gold.Chemscore.Internal_Hbond.Weighted>
0.0000

> <Gold.Chemscore.DEClash.Weighted>
0.1605

> <Gold.Chemscore.DEInternal.Weighted>
0.7968

> <Gold.Chemscore.Rot.Weighted>
8.0260

> <Gold.Chemscore.Internal.Correction.Weighted>
   9.000000E+99

> <Gold.Protein.RotatedTorsions>
[ 6907 6896 6895 6894 ] final  -11.38 input  -60.11 | X-H torsion
[ 7974 7965 7964 7962 ] final  -46.05 input  175.53 | X-H torsion
[ 8008 7997 7996 7995 ] final  152.48 input   59.86 | X-H torsion
[ 10167 10162 10161 10158 ] final -104.86 input  -65.29 | X-H torsion
[ 10718 10713 10712 10709 ] final   67.45 input   66.30 | X-H torsion
[ 10763 10752 10751 10750 ] final  145.68 input  -60.55 | X-H torsion
[ 11005 11000 10999 10996 ] final  116.26 input  -57.11 | X-H torsion

> <Gold.Protein.ActiveResidues>
 VAL166  LYS551  ARG553  GLY616  TRP617  ASP618  TYR619  PRO620  LYS621  CYS622 
 ASP623  PHE694  ASN695  SER759  ASP760  ASP761  ALA762  ILE779  LEU786  VAL792 
 PHE793  MET794  SER795  GLU796  ALA797  LYS798  CYS799  TRP800  GLU811  SER814 

> <Gold.Protein.RotatedAtoms>
  151.3871  135.0949  159.9514 H   0  0  0  0  0  0  0  0  0  0  0  0  # atno 6907 bound_to 6896
  152.5091  133.9016  159.7454 H   0  0  0  0  0  0  0  0  0  0  0  0  # atno 6908 bound_to 6896
  150.9462  133.6545  159.2809 H   0  0  0  0  0  0  0  0  0  0  0  0  # atno 6909 bound_to 6896
  145.9758  140.7335  142.9388 H   0  0  0  0  0  0  0  0  0  0  0  0  # atno 7974 bound_to 7965
  156.2627  140.2019  156.6340 H   0  0  0  0  0  0  0  0  0  0  0  0  # atno 8008 bound_to 7997
  154.6660  140.0555  157.0139 H   0  0  0  0  0  0  0  0  0  0  0  0  # atno 8009 bound_to 7997
  155.1206  140.3224  155.4501 H   0  0  0  0  0  0  0  0  0  0  0  0  # atno 8010 bound_to 7997
  140.2048  143.3791  152.1100 H   0  0  0  0  0  0  0  0  0  0  0  0  # atno 10167 bound_to 10162
  157.6231  130.9321  150.0244 H   0  0  0  0  0  0  0  0  0  0  0  0  # atno 10718 bound_to 10713
  154.0094  135.2916  155.3394 H   0  0  0  0  0  0  0  0  0  0  0  0  # atno 10763 bound_to 10752
  154.7112  135.5148  153.8672 H   0  0  0  0  0  0  0  0  0  0  0  0  # atno 10764 bound_to 10752
  153.0730  135.6654  154.0327 H   0  0  0  0  0  0  0  0  0  0  0  0  # atno 10765 bound_to 10752
  139.9035  134.9595  156.7170 H   0  0  0  0  0  0  0  0  0  0  0  0  # atno 11005 bound_to 11000
  144.6848  140.2825  143.7290 LP  0  0  0  0  0  0  0  0  0  0  0  0  # atno 17320 bound_to 7965
  145.7840  139.1902  143.2141 LP  0  0  0  0  0  0  0  0  0  0  0  0  # atno 17321 bound_to 7965
  139.5203  144.7031  151.5435 LP  0  0  0  0  0  0  0  0  0  0  0  0  # atno 17342 bound_to 10162
  140.6365  143.8973  150.6652 LP  0  0  0  0  0  0  0  0  0  0  0  0  # atno 17343 bound_to 10162
  156.1387  130.3642  149.9616 LP  0  0  0  0  0  0  0  0  0  0  0  0  # atno 17370 bound_to 10713
  156.7662  130.9169  151.3643 LP  0  0  0  0  0  0  0  0  0  0  0  0  # atno 17371 bound_to 10713
  140.7030  133.9289  155.8036 LP  0  0  0  0  0  0  0  0  0  0  0  0  # atno 17394 bound_to 11000
  141.0357  134.0693  157.3962 LP  0  0  0  0  0  0  0  0  0  0  0  0  # atno 17395 bound_to 11000

$$$$
