AV-unprocessed.smi:2342|AV-procd|sdf|9354|dock3
  -GOLD-   2272012573D 1   1.00000     0.00000
 Structure written by MMmdl.
 38 38  0  0  0  0  0  0  0  0  2 V2000
  148.8545  134.6226  154.7202 C   0  0  0  0  0  0  0  0  0  0  0  0
  149.4734  135.5573  155.7723 C   0  0  2  0  0  0  0  0  0  0  0  0
  150.0795  136.8279  155.1236 C   0  0  0  0  0  0  0  0  0  0  0  0
  150.9509  137.5682  156.0313 N   0  0  0  0  0  0  0  0  0  0  0  0
  151.4680  138.7821  155.7882 C   0  0  0  0  0  0  0  0  0  0  0  0
  151.3911  139.3500  154.6988 O   0  0  0  0  0  0  0  0  0  0  0  0
  152.1469  139.4757  156.9696 C   0  0  0  0  0  0  0  0  0  0  0  0
  151.3573  140.6940  157.3537 C   0  0  0  0  0  0  0  0  0  0  0  0
  150.0280  140.9258  157.1056 C   0  0  0  0  0  0  0  0  0  0  0  0
  149.4983  142.4408  157.7789 S   0  0  0  0  0  0  0  0  0  0  0  0
  151.1365  142.7260  158.3775 C   0  0  0  0  0  0  0  0  0  0  0  0
  151.5713  143.9377  159.1661 C   0  0  0  0  0  0  0  0  0  0  0  0
  152.6361  144.7224  158.3755 C   0  0  0  0  0  0  0  0  0  0  0  0
  152.1994  143.5321  160.5170 C   0  0  0  0  0  0  0  0  0  0  0  0
  150.3514  144.8291  159.4698 C   0  0  0  0  0  0  0  0  0  0  0  0
  151.9731  141.7309  158.0614 N   0  0  0  0  0  0  0  0  0  0  0  0
  150.5052  134.7860  156.6154 C   0  0  0  0  0  0  0  0  0  0  0  0
  150.1053  133.7732  157.2316 O   0  0  0  0  0  0  0  0  0  0  0  0
  151.6778  135.2211  156.6236 O   0  5  0  0  0  0  0  0  0  0  0  0
  148.4304  133.7298  155.1814 H   0  0  0  0  0  0  0  0  0  0  0  0
  149.5942  134.2999  153.9864 H   0  0  0  0  0  0  0  0  0  0  0  0
  148.0513  135.1247  154.1807 H   0  0  0  0  0  0  0  0  0  0  0  0
  148.6755  135.8744  156.4459 H   0  0  0  0  0  0  0  0  0  0  0  0
  150.6718  136.5523  154.2505 H   0  0  0  0  0  0  0  0  0  0  0  0
  149.2845  137.4780  154.7548 H   0  0  0  0  0  0  0  0  0  0  0  0
  151.0635  137.1857  156.9594 H   0  0  0  0  0  0  0  0  0  0  0  0
  152.2244  138.7770  157.8037 H   0  0  0  0  0  0  0  0  0  0  0  0
  153.1666  139.7490  156.6956 H   0  0  0  0  0  0  0  0  0  0  0  0
  149.3263  140.2889  156.5883 H   0  0  0  0  0  0  0  0  0  0  0  0
  152.9696  145.6046  158.9228 H   0  0  0  0  0  0  0  0  0  0  0  0
  152.2525  145.0627  157.4131 H   0  0  0  0  0  0  0  0  0  0  0  0
  153.5147  144.1071  158.1781 H   0  0  0  0  0  0  0  0  0  0  0  0
  153.0837  142.9087  160.3779 H   0  0  0  0  0  0  0  0  0  0  0  0
  151.4948  142.9781  161.1386 H   0  0  0  0  0  0  0  0  0  0  0  0
  152.5117  144.4077  161.0869 H   0  0  0  0  0  0  0  0  0  0  0  0
  150.6340  145.7054  160.0538 H   0  0  0  0  0  0  0  0  0  0  0  0
  149.5945  144.2851  160.0360 H   0  0  0  0  0  0  0  0  0  0  0  0
  149.8814  145.1886  158.5536 H   0  0  0  0  0  0  0  0  0  0  0  0
  1  2  1  0  0  0  0
  1 20  1  0  0  0  0
  1 21  1  0  0  0  0
  1 22  1  0  0  0  0
  2  3  1  0  0  0  0
  2 17  1  0  0  0  0
  2 23  1  0  0  0  0
  3  4  1  0  0  0  0
  3 24  1  0  0  0  0
  3 25  1  0  0  0  0
  4  5  1  0  0  0  0
  4 26  1  0  0  0  0
  5  6  2  0  0  0  0
  5  7  1  0  0  0  0
  7  8  1  0  0  0  0
  7 27  1  0  0  0  0
  7 28  1  0  0  0  0
  8 16  1  0  0  0  0
  8  9  2  0  0  0  0
  9 10  1  0  0  0  0
  9 29  1  0  0  0  0
 10 11  1  0  0  0  0
 11 12  1  0  0  0  0
 11 16  2  0  0  0  0
 12 13  1  0  0  0  0
 12 14  1  0  0  0  0
 12 15  1  0  0  0  0
 13 30  1  0  0  0  0
 13 31  1  0  0  0  0
 13 32  1  0  0  0  0
 14 33  1  0  0  0  0
 14 34  1  0  0  0  0
 14 35  1  0  0  0  0
 15 36  1  0  0  0  0
 15 37  1  0  0  0  0
 15 38  1  0  0  0  0
 17 18  2  0  0  0  0
 17 19  1  0  0  0  0
M  CHG  1  19  -1
M  END
> <s_m_source_file>
AV-unprocessed.smi

> <i_m_source_file_index>
2342

> <i_lp_mmshare_version>
43012

> <i_f3d_flags>
0

> <s_epik_input>
Tz1DKFtPSF0pW0NASF0oW0NIM10pW0NIMl1bTkhdQyg9TylbQ0gyXWMxW2NIXXNjKG4xKUMoW0NIM10pKFtDSDNdKVtDSDNd

> <s_epik_cmdline>
J2VwaWtfcHl0aG9uJywgJy1waCcsICc3LjAnLCAnLXRuJywgJzgnLCAnLW1hJywgJzIwMCcsICctbWV0YWxfYmluZGluZycsICctaW1hZScsICc8aW5maWxlLm1hZT4nLCAnLW9tYWUnLCAnPG91dGZpbGUubWFlPic=

> <r_epik_Ionization_Penalty>
0.00120065

> <r_epik_Ionization_Penalty_Charging>
0.00115909

> <r_epik_Ionization_Penalty_Neutral>
4.15663e-05

> <r_epik_State_Penalty>
0.00076313

> <r_epik_Charging_Adjusted_Penalty>
0.00192222

> <i_epik_Tot_Q>
-1

> <i_epik_Tot_abs_Q>
1

> <r_epik_Metal_State_Penalty>
-0

> <b_epik_Metal_Only>
0

> <s_lp_Force_Field>
OPLS_2005

> <r_lp_Energy>
-10.4991

> <b_lp_Chiralities_Consistent>
1

> <s_lp_Variant>
AV-unprocessed.smi:2342-1

> <Gold.Version>
5.8.1

> <Gold.Id.Protein>
6NUR|6NUR_protein|mol2

> <Gold.PLP.Fitness>
46.4527

> <Gold.PLP.PLP>
-33.3809

> <Gold.PLP.part.hbond>
-3.0000

> <Gold.PLP.part.metal>
0.0000

> <Gold.PLP.part.buried>
-4.8919

> <Gold.PLP.part.nonpolar>
-27.1326

> <Gold.PLP.part.repulsive>
0.1383

> <Gold.PLP.ligand.clash>
0.0000

> <Gold.PLP.ligand.torsion>
0.5770

> <Gold.PLP.Chemscore.Hbond>
4.6960

> <Gold.PLP.Chemscore.CHOScore>
0.0000

> <Gold.PLP.Chemscore.Metal>
0.0000

> <Gold.Chemscore.Hbonds>
donor molecule, donor type, donor heavy atom, donor atom, acceptor molecule, acceptor atom, score
      P1  H  6896  6909       L1    18  1.38
      P1  H  7989  7998       L1     6  1.00
      P1  H 10752 10765       L1    19  1.40

> <Gold.PLP.Chemscore.Internal.Correction>
0.1378

> <Gold.Rescore>
     Score         DG    S(hbond)    S(metal)    S(lipo)     H(rot)  DE(clash)    DE(int)     intcor
     16.86     -19.00       2.79        0.00      88.11       2.38       0.03       2.11       ----

> <Gold.Chemscore.Fitness>
16.8625

> <Gold.Chemscore.DG>
-19.0005

> <Gold.Chemscore.ZeroCoef>
-5.4800

> <Gold.Chemscore.Hbond>
2.7867

> <Gold.Chemscore.Metal>
0.0000

> <Gold.Chemscore.Lipo>
88.1103

> <Gold.Chemscore.Internal_Hbond>
0.0000

> <Gold.Chemscore.DEClash>
0.0319

> <Gold.Chemscore.DEInternal>
2.1061

> <Gold.Chemscore.Rot>
2.3812

> <Gold.Chemscore.Internal.Correction>
   9.000000E+99

> <Gold.Chemscore.Hbonds>
donor molecule, donor type, donor heavy atom, donor atom, acceptor molecule, acceptor atom, score
      P1  H  6896  6909       L1    18  0.54
      P1  H  7989  7998       L1     6  0.99
      P1  H 10752 10765       L1    19  0.70

> <Gold.Chemscore.Hbond.Weighted>
-9.3076

> <Gold.Chemscore.Metal.Weighted>
-0.0000

> <Gold.Chemscore.Lipo.Weighted>
-10.3089

> <Gold.Chemscore.Internal_Hbond.Weighted>
0.0000

> <Gold.Chemscore.DEClash.Weighted>
0.0319

> <Gold.Chemscore.DEInternal.Weighted>
2.1061

> <Gold.Chemscore.Rot.Weighted>
6.0959

> <Gold.Chemscore.Internal.Correction.Weighted>
   9.000000E+99

> <Gold.Protein.RotatedTorsions>
[ 6907 6896 6895 6894 ] final   -8.37 input  -60.11 | X-H torsion
[ 7974 7965 7964 7962 ] final  109.62 input  175.53 | X-H torsion
[ 8008 7997 7996 7995 ] final -133.76 input   59.86 | X-H torsion
[ 10167 10162 10161 10158 ] final  160.50 input  -65.29 | X-H torsion
[ 10718 10713 10712 10709 ] final  116.33 input   66.30 | X-H torsion
[ 10763 10752 10751 10750 ] final -146.73 input  -60.55 | X-H torsion
[ 11005 11000 10999 10996 ] final  -54.97 input  -57.11 | X-H torsion

> <Gold.Protein.ActiveResidues>
 VAL166  LYS551  ARG553  GLY616  TRP617  ASP618  TYR619  PRO620  LYS621  CYS622 
 ASP623  PHE694  ASN695  SER759  ASP760  ASP761  ALA762  ILE779  LEU786  VAL792 
 PHE793  MET794  SER795  GLU796  ALA797  LYS798  CYS799  TRP800  GLU811  SER814 

> <Gold.Protein.RotatedAtoms>
  151.4347  135.1013  159.9652 H   0  0  0  0  0  0  0  0  0  0  0  0  # atno 6907 bound_to 6896
  152.4944  133.8585  159.7248 H   0  0  0  0  0  0  0  0  0  0  0  0  # atno 6908 bound_to 6896
  150.9130  133.6915  159.2877 H   0  0  0  0  0  0  0  0  0  0  0  0  # atno 6909 bound_to 6896
  145.2655  139.2686  143.3994 H   0  0  0  0  0  0  0  0  0  0  0  0  # atno 7974 bound_to 7965
  155.3509  140.0477  157.3046 H   0  0  0  0  0  0  0  0  0  0  0  0  # atno 8008 bound_to 7997
  154.5228  140.2230  155.8909 H   0  0  0  0  0  0  0  0  0  0  0  0  # atno 8009 bound_to 7997
  156.1707  140.3096  155.8975 H   0  0  0  0  0  0  0  0  0  0  0  0  # atno 8010 bound_to 7997
  139.4840  144.4628  151.8682 H   0  0  0  0  0  0  0  0  0  0  0  0  # atno 10167 bound_to 10162
  157.6167  131.1024  150.7458 H   0  0  0  0  0  0  0  0  0  0  0  0  # atno 10718 bound_to 10713
  154.8321  135.3379  154.6707 H   0  0  0  0  0  0  0  0  0  0  0  0  # atno 10763 bound_to 10752
  153.7326  135.6951  153.4990 H   0  0  0  0  0  0  0  0  0  0  0  0  # atno 10764 bound_to 10752
  153.2301  135.4419  155.0538 H   0  0  0  0  0  0  0  0  0  0  0  0  # atno 10765 bound_to 10752
  141.1051  133.6614  156.4400 H   0  0  0  0  0  0  0  0  0  0  0  0  # atno 11005 bound_to 11000
  146.3262  140.3084  142.8625 LP  0  0  0  0  0  0  0  0  0  0  0  0  # atno 17320 bound_to 7965
  144.9381  140.8048  143.5648 LP  0  0  0  0  0  0  0  0  0  0  0  0  # atno 17321 bound_to 7965
  140.4091  144.2392  150.5889 LP  0  0  0  0  0  0  0  0  0  0  0  0  # atno 17342 bound_to 10162
  140.4983  143.2325  151.8716 LP  0  0  0  0  0  0  0  0  0  0  0  0  # atno 17343 bound_to 10162
  156.7824  130.4863  149.5399 LP  0  0  0  0  0  0  0  0  0  0  0  0  # atno 17370 bound_to 10713
  156.1292  130.6166  151.0308 LP  0  0  0  0  0  0  0  0  0  0  0  0  # atno 17371 bound_to 10713
  140.4922  134.6565  157.5215 LP  0  0  0  0  0  0  0  0  0  0  0  0  # atno 17394 bound_to 11000
  139.9918  134.6973  155.9676 LP  0  0  0  0  0  0  0  0  0  0  0  0  # atno 17395 bound_to 11000

$$$$
