AV-unprocessed.smi:3137|AV-procd|sdf|11952|dock6
  -GOLD-   2272017353D 1   1.00000     0.00000
 Structure written by MMmdl.
 40 40  0  0  0  0  0  0  0  0  2 V2000
  150.6123  135.7817  155.1799 C   0  0  0  0  0  0  0  0  0  0  0  0
  150.7487  137.2358  154.7091 C   0  0  0  0  0  0  0  0  0  0  0  0
  149.4474  137.8470  154.4637 N   0  0  0  0  0  0  0  0  0  0  0  0
  149.2275  139.1627  154.3182 C   0  0  0  0  0  0  0  0  0  0  0  0
  150.1196  140.0082  154.3883 O   0  0  0  0  0  0  0  0  0  0  0  0
  147.7778  139.5839  154.0570 C   0  0  0  0  0  0  0  0  0  0  0  0
  147.1057  138.7548  152.9491 C   0  0  0  0  0  0  0  0  0  0  0  0
  145.6626  138.5835  153.2200 N   0  3  0  0  0  0  0  0  0  0  0  0
  145.0759  137.3048  152.7589 C   0  0  2  0  0  0  0  0  0  0  0  0
  145.1188  136.2845  153.9096 C   0  0  0  0  0  0  0  0  0  0  0  0
  145.7878  136.7911  151.4848 C   0  0  0  0  0  0  0  0  0  0  0  0
  145.4048  135.4388  151.1206 N   0  0  0  0  0  0  0  0  0  0  0  0
  146.1910  134.3071  151.0722 C   0  0  0  0  0  0  0  0  0  0  0  0
  145.3980  133.2734  150.6617 C   0  0  0  0  0  0  0  0  0  0  0  0
  145.7678  131.8333  150.4517 C   0  0  0  0  0  0  0  0  0  0  0  0
  144.1259  133.8855  150.4758 C   0  0  0  0  0  0  0  0  0  0  0  0
  144.1342  135.1808  150.7459 N   0  0  0  0  0  0  0  0  0  0  0  0
  151.5935  135.3290  155.3236 H   0  0  0  0  0  0  0  0  0  0  0  0
  150.0725  135.1789  154.4492 H   0  0  0  0  0  0  0  0  0  0  0  0
  150.0777  135.7181  156.1280 H   0  0  0  0  0  0  0  0  0  0  0  0
  151.3107  137.8208  155.4389 H   0  0  0  0  0  0  0  0  0  0  0  0
  151.3192  137.2682  153.7807 H   0  0  0  0  0  0  0  0  0  0  0  0
  148.6581  137.2209  154.3931 H   0  0  0  0  0  0  0  0  0  0  0  0
  147.2077  139.4852  154.9824 H   0  0  0  0  0  0  0  0  0  0  0  0
  147.7676  140.6418  153.7923 H   0  0  0  0  0  0  0  0  0  0  0  0
  147.2294  139.2464  151.9829 H   0  0  0  0  0  0  0  0  0  0  0  0
  147.5856  137.7784  152.8798 H   0  0  0  0  0  0  0  0  0  0  0  0
  145.4957  138.6802  154.2113 H   0  0  0  0  0  0  0  0  0  0  0  0
  144.0250  137.4861  152.5280 H   0  0  0  0  0  0  0  0  0  0  0  0
  144.6021  135.3609  153.6482 H   0  0  0  0  0  0  0  0  0  0  0  0
  144.6335  136.6800  154.8024 H   0  0  0  0  0  0  0  0  0  0  0  0
  146.1451  136.0281  154.1745 H   0  0  0  0  0  0  0  0  0  0  0  0
  145.5743  137.4340  150.6309 H   0  0  0  0  0  0  0  0  0  0  0  0
  146.8691  136.8121  151.6268 H   0  0  0  0  0  0  0  0  0  0  0  0
  147.2392  134.3292  151.3322 H   0  0  0  0  0  0  0  0  0  0  0  0
  145.1219  131.3527  149.7167 H   0  0  0  0  0  0  0  0  0  0  0  0
  145.6871  131.2599  151.3753 H   0  0  0  0  0  0  0  0  0  0  0  0
  146.7926  131.7270  150.0953 H   0  0  0  0  0  0  0  0  0  0  0  0
  143.2019  133.4290  150.1517 H   0  0  0  0  0  0  0  0  0  0  0  0
  145.1790  139.3295  152.7407 H   0  0  0  0  0  0  0  0  0  0  0  0
  1  2  1  0  0  0  0
  1 18  1  0  0  0  0
  1 19  1  0  0  0  0
  1 20  1  0  0  0  0
  2  3  1  0  0  0  0
  2 21  1  0  0  0  0
  2 22  1  0  0  0  0
  3  4  1  0  0  0  0
  3 23  1  0  0  0  0
  4  5  2  0  0  0  0
  4  6  1  0  0  0  0
  6  7  1  0  0  0  0
  6 24  1  0  0  0  0
  6 25  1  0  0  0  0
  7  8  1  0  0  0  0
  7 26  1  0  0  0  0
  7 27  1  0  0  0  0
  8  9  1  0  0  0  0
  8 28  1  0  0  0  0
  8 40  1  0  0  0  0
  9 10  1  0  0  0  0
  9 11  1  0  0  0  0
  9 29  1  0  0  0  0
 10 30  1  0  0  0  0
 10 31  1  0  0  0  0
 10 32  1  0  0  0  0
 11 12  1  0  0  0  0
 11 33  1  0  0  0  0
 11 34  1  0  0  0  0
 12 17  1  0  0  0  0
 12 13  1  0  0  0  0
 13 14  2  0  0  0  0
 13 35  1  0  0  0  0
 14 15  1  0  0  0  0
 14 16  1  0  0  0  0
 15 36  1  0  0  0  0
 15 37  1  0  0  0  0
 15 38  1  0  0  0  0
 16 17  2  0  0  0  0
 16 39  1  0  0  0  0
M  CHG  1   8   1
M  END
> <s_m_source_file>
AV-unprocessed.smi

> <i_m_source_file_index>
3137

> <i_lp_mmshare_version>
43012

> <i_f3d_flags>
0

> <s_epik_input>
W0NIM11bQ0gyXVtOSF1DKD1PKVtDSDJdW0NIMl1bTkhdW0NASF0oW0NIM10pW0NIMl1uMVtjSF1jKFtDSDNdKVtjSF1uMQ==

> <s_epik_cmdline>
J2VwaWtfcHl0aG9uJywgJy1waCcsICc3LjAnLCAnLXRuJywgJzgnLCAnLW1hJywgJzIwMCcsICctbWV0YWxfYmluZGluZycsICctaW1hZScsICc8aW5maWxlLm1hZT4nLCAnLW9tYWUnLCAnPG91dGZpbGUubWFlPic=

> <r_lp_tautomer_probability>
1

> <r_epik_Ionization_Penalty>
0.00598586

> <r_epik_Ionization_Penalty_Charging>
0.00597743

> <r_epik_Ionization_Penalty_Neutral>
8.43172e-06

> <r_epik_State_Penalty>
0.00439883

> <r_epik_Charging_Adjusted_Penalty>
0.0103763

> <i_epik_Tot_Q>
1

> <i_epik_Tot_abs_Q>
1

> <r_epik_Metal_State_Penalty>
-0

> <b_epik_Metal_Only>
0

> <s_lp_Force_Field>
OPLS_2005

> <r_lp_Energy>
5.54244

> <b_lp_Chiralities_Consistent>
1

> <s_lp_Variant>
AV-unprocessed.smi:3137-1

> <Gold.Version>
5.8.1

> <Gold.Id.Protein>
6NUR|6NUR_protein|mol2

> <Gold.PLP.Fitness>
41.7320

> <Gold.PLP.PLP>
-28.8446

> <Gold.PLP.part.hbond>
-2.8841

> <Gold.PLP.part.metal>
0.0000

> <Gold.PLP.part.buried>
-3.7340

> <Gold.PLP.part.nonpolar>
-24.4571

> <Gold.PLP.part.repulsive>
0.3674

> <Gold.PLP.ligand.clash>
0.0000

> <Gold.PLP.ligand.torsion>
1.1204

> <Gold.PLP.Chemscore.Hbond>
3.0000

> <Gold.PLP.Chemscore.CHOScore>
1.9796

> <Gold.PLP.Chemscore.Metal>
0.0000

> <Gold.Chemscore.Hbonds>
donor molecule, donor type, donor heavy atom, donor atom, acceptor molecule, acceptor atom, score
      L1  H     8    40       P1 10175  2.00
      P1  H  7989  7998       L1     5  1.00
      L1  C    13    35       P1  7948  0.91
      L1  C    16    39       P1 10186  1.00

> <Gold.PLP.Chemscore.Internal.Correction>
0.1893

> <Gold.Rescore>
     Score         DG    S(hbond)    S(metal)    S(lipo)     H(rot)  DE(clash)    DE(int)     intcor
     12.85     -14.04       1.96        0.00      67.40       2.30       0.03       1.16       ----

> <Gold.Chemscore.Fitness>
12.8527

> <Gold.Chemscore.DG>
-14.0355

> <Gold.Chemscore.ZeroCoef>
-5.4800

> <Gold.Chemscore.Hbond>
1.9607

> <Gold.Chemscore.Metal>
0.0000

> <Gold.Chemscore.Lipo>
67.3963

> <Gold.Chemscore.Internal_Hbond>
0.0000

> <Gold.Chemscore.DEClash>
0.0255

> <Gold.Chemscore.DEInternal>
1.1573

> <Gold.Chemscore.Rot>
2.2963

> <Gold.Chemscore.Internal.Correction>
   9.000000E+99

> <Gold.Chemscore.Hbonds>
donor molecule, donor type, donor heavy atom, donor atom, acceptor molecule, acceptor atom, score
      L1  H     8    40       P1 10175  0.97
      P1  H  7989  7998       L1     5  0.97

> <Gold.Chemscore.Hbond.Weighted>
-6.5488

> <Gold.Chemscore.Metal.Weighted>
-0.0000

> <Gold.Chemscore.Lipo.Weighted>
-7.8854

> <Gold.Chemscore.Internal_Hbond.Weighted>
0.0000

> <Gold.Chemscore.DEClash.Weighted>
0.0255

> <Gold.Chemscore.DEInternal.Weighted>
1.1573

> <Gold.Chemscore.Rot.Weighted>
5.8786

> <Gold.Chemscore.Internal.Correction.Weighted>
   9.000000E+99

> <Gold.Protein.RotatedTorsions>
[ 6907 6896 6895 6894 ] final  -34.04 input  -60.11 | X-H torsion
[ 7974 7965 7964 7962 ] final  -94.93 input  175.53 | X-H torsion
[ 8008 7997 7996 7995 ] final  175.62 input   59.86 | X-H torsion
[ 10167 10162 10161 10158 ] final  -55.06 input  -65.29 | X-H torsion
[ 10718 10713 10712 10709 ] final -171.87 input   66.30 | X-H torsion
[ 10763 10752 10751 10750 ] final  -79.82 input  -60.55 | X-H torsion
[ 11005 11000 10999 10996 ] final -103.14 input  -57.11 | X-H torsion

> <Gold.Protein.ActiveResidues>
 VAL166  LYS551  ARG553  GLY616  TRP617  ASP618  TYR619  PRO620  LYS621  CYS622 
 ASP623  PHE694  ASN695  SER759  ASP760  ASP761  ALA762  ILE779  LEU786  VAL792 
 PHE793  MET794  SER795  GLU796  ALA797  LYS798  CYS799  TRP800  GLU811  SER814 

> <Gold.Protein.RotatedAtoms>
  151.0578  134.9716  159.8244 H   0  0  0  0  0  0  0  0  0  0  0  0  # atno 6907 bound_to 6896
  152.5391  134.2456  159.8889 H   0  0  0  0  0  0  0  0  0  0  0  0  # atno 6908 bound_to 6896
  151.2475  133.4324  159.2643 H   0  0  0  0  0  0  0  0  0  0  0  0  # atno 6909 bound_to 6896
  145.3668  140.9500  143.2470 H   0  0  0  0  0  0  0  0  0  0  0  0  # atno 7974 bound_to 7965
  156.0851  140.1404  156.9663 H   0  0  0  0  0  0  0  0  0  0  0  0  # atno 8008 bound_to 7997
  154.4608  140.0944  156.6936 H   0  0  0  0  0  0  0  0  0  0  0  0  # atno 8009 bound_to 7997
  155.5011  140.3451  155.4373 H   0  0  0  0  0  0  0  0  0  0  0  0  # atno 8010 bound_to 7997
  140.6396  143.2500  151.5026 H   0  0  0  0  0  0  0  0  0  0  0  0  # atno 10167 bound_to 10162
  156.7472  130.9364  151.3113 H   0  0  0  0  0  0  0  0  0  0  0  0  # atno 10718 bound_to 10713
  154.5434  135.5682  153.6859 H   0  0  0  0  0  0  0  0  0  0  0  0  # atno 10763 bound_to 10752
  152.9970  135.6233  154.2471 H   0  0  0  0  0  0  0  0  0  0  0  0  # atno 10764 bound_to 10752
  154.2403  135.2862  155.2836 H   0  0  0  0  0  0  0  0  0  0  0  0  # atno 10765 bound_to 10752
  141.1159  133.8616  157.1449 H   0  0  0  0  0  0  0  0  0  0  0  0  # atno 11005 bound_to 11000
  144.8606  139.5183  143.6814 LP  0  0  0  0  0  0  0  0  0  0  0  0  # atno 17320 bound_to 7965
  146.2903  139.7120  142.9166 LP  0  0  0  0  0  0  0  0  0  0  0  0  # atno 17321 bound_to 7965
  139.5605  144.2168  152.1683 LP  0  0  0  0  0  0  0  0  0  0  0  0  # atno 17342 bound_to 10162
  140.1435  144.5181  150.6730 LP  0  0  0  0  0  0  0  0  0  0  0  0  # atno 17343 bound_to 10162
  157.6793  130.9124  150.0227 LP  0  0  0  0  0  0  0  0  0  0  0  0  # atno 17370 bound_to 10713
  156.1425  130.3642  149.9560 LP  0  0  0  0  0  0  0  0  0  0  0  0  # atno 17371 bound_to 10713
  140.0081  135.0000  157.0335 LP  0  0  0  0  0  0  0  0  0  0  0  0  # atno 17394 bound_to 11000
  140.4648  134.1447  155.7195 LP  0  0  0  0  0  0  0  0  0  0  0  0  # atno 17395 bound_to 11000

$$$$
