AV-unprocessed.smi:784|AV-procd|sdf|3719|dock3
  -GOLD-   22720 1143D 1   1.00000     0.00000
 Structure written by MMmdl.
 37 38  0  0  0  0  0  0  0  0  2 V2000
  155.3154  136.6897  161.5429 C   0  0  0  0  0  0  0  0  0  0  0  0
  154.1711  136.8545  160.5870 C   0  0  0  0  0  0  0  0  0  0  0  0
  153.3116  137.9745  160.4238 C   0  0  0  0  0  0  0  0  0  0  0  0
  152.4536  137.5826  159.4353 C   0  0  0  0  0  0  0  0  0  0  0  0
  151.3001  138.2524  158.7633 C   0  0  0  0  0  0  0  0  0  0  0  0
  151.8475  139.8131  157.9440 S   0  0  0  0  0  0  0  0  0  0  0  0
  152.9400  139.4265  157.0366 O   0  0  0  0  0  0  0  0  0  0  0  0
  150.6469  140.4087  157.3338 O   0  0  0  0  0  0  0  0  0  0  0  0
  152.3893  140.6531  159.2230 N   0  5  0  0  0  0  0  0  0  0  0  0
  151.9488  142.0267  159.4235 C   0  0  0  0  0  0  0  0  0  0  0  0
  152.1825  142.8089  158.1083 C   0  0  0  0  0  0  0  0  0  0  0  0
  151.6353  144.2528  158.0522 C   0  0  0  0  0  0  0  0  0  0  0  0
  152.2156  145.2404  159.0863 C   0  0  0  0  0  0  0  0  0  0  0  0
  151.5940  145.0637  160.4815 C   0  0  0  0  0  0  0  0  0  0  0  0
  152.1165  143.8704  161.3164 C   0  0  0  0  0  0  0  0  0  0  0  0
  152.7496  142.6569  160.5905 C   0  0  0  0  0  0  0  0  0  0  0  0
  152.7637  136.3274  159.0182 O   0  0  0  0  0  0  0  0  0  0  0  0
  153.8602  135.8714  159.7586 N   0  0  0  0  0  0  0  0  0  0  0  0
  155.6404  137.6530  161.9361 H   0  0  0  0  0  0  0  0  0  0  0  0
  156.1739  136.2243  161.0578 H   0  0  0  0  0  0  0  0  0  0  0  0
  155.0294  136.0648  162.3891 H   0  0  0  0  0  0  0  0  0  0  0  0
  153.3144  138.9154  160.9537 H   0  0  0  0  0  0  0  0  0  0  0  0
  150.8375  137.6036  158.0204 H   0  0  0  0  0  0  0  0  0  0  0  0
  150.5385  138.5131  159.4982 H   0  0  0  0  0  0  0  0  0  0  0  0
  150.8853  142.0660  159.6633 H   0  0  0  0  0  0  0  0  0  0  0  0
  153.2495  142.8290  157.8817 H   0  0  0  0  0  0  0  0  0  0  0  0
  151.7220  142.2569  157.2875 H   0  0  0  0  0  0  0  0  0  0  0  0
  151.8612  144.6437  157.0596 H   0  0  0  0  0  0  0  0  0  0  0  0
  150.5453  144.2489  158.1117 H   0  0  0  0  0  0  0  0  0  0  0  0
  153.3035  145.1756  159.1282 H   0  0  0  0  0  0  0  0  0  0  0  0
  151.9894  146.2511  158.7453 H   0  0  0  0  0  0  0  0  0  0  0  0
  151.7485  145.9765  161.0578 H   0  0  0  0  0  0  0  0  0  0  0  0
  150.5119  144.9771  160.3745 H   0  0  0  0  0  0  0  0  0  0  0  0
  152.8707  144.2524  162.0053 H   0  0  0  0  0  0  0  0  0  0  0  0
  151.3056  143.5229  161.9588 H   0  0  0  0  0  0  0  0  0  0  0  0
  152.9265  141.9023  161.3584 H   0  0  0  0  0  0  0  0  0  0  0  0
  153.7450  142.9289  160.2367 H   0  0  0  0  0  0  0  0  0  0  0  0
  1  2  1  0  0  0  0
  1 19  1  0  0  0  0
  1 20  1  0  0  0  0
  1 21  1  0  0  0  0
  2 18  2  0  0  0  0
  2  3  1  0  0  0  0
  3  4  2  0  0  0  0
  3 22  1  0  0  0  0
  4  5  1  0  0  0  0
  4 17  1  0  0  0  0
  5  6  1  0  0  0  0
  5 23  1  0  0  0  0
  5 24  1  0  0  0  0
  6  7  2  0  0  0  0
  6  8  2  0  0  0  0
  6  9  1  0  0  0  0
  9 10  1  0  0  0  0
 10 16  1  0  0  0  0
 10 11  1  0  0  0  0
 10 25  1  0  0  0  0
 11 12  1  0  0  0  0
 11 26  1  0  0  0  0
 11 27  1  0  0  0  0
 12 13  1  0  0  0  0
 12 28  1  0  0  0  0
 12 29  1  0  0  0  0
 13 14  1  0  0  0  0
 13 30  1  0  0  0  0
 13 31  1  0  0  0  0
 14 15  1  0  0  0  0
 14 32  1  0  0  0  0
 14 33  1  0  0  0  0
 15 16  1  0  0  0  0
 15 34  1  0  0  0  0
 15 35  1  0  0  0  0
 16 36  1  0  0  0  0
 16 37  1  0  0  0  0
 17 18  1  0  0  0  0
M  CHG  1   9  -1
M  END
> <s_m_source_file>
AV-unprocessed.smi

> <i_m_source_file_index>
784

> <i_lp_mmshare_version>
43012

> <i_f3d_flags>
0

> <s_epik_input>
W0NIM11jMVtjSF1jKG9uMSlbQ0gyXVMoPU8pKD1PKVtOSF1bQ0hdMltDSDJdW0NIMl1bQ0gyXVtDSDJdW0NIMl1bQ0gyXTI=

> <s_epik_cmdline>
J2VwaWtfcHl0aG9uJywgJy1waCcsICc3LjAnLCAnLXRuJywgJzgnLCAnLW1hJywgJzIwMCcsICctbWV0YWxfYmluZGluZycsICctaW1hZScsICc8aW5maWxlLm1hZT4nLCAnLW9tYWUnLCAnPG91dGZpbGUubWFlPic=

> <r_lp_tautomer_probability>
1

> <r_epik_Ionization_Penalty>
5.56674

> <r_epik_Ionization_Penalty_Charging>
5.56674

> <r_epik_Ionization_Penalty_Neutral>
9.19761e-10

> <r_epik_State_Penalty>
5.56669

> <r_epik_Charging_Adjusted_Penalty>
11.1334

> <i_epik_Tot_Q>
-1

> <i_epik_Tot_abs_Q>
1

> <r_epik_Metal_State_Penalty>
1.56499

> <b_epik_Metal_Only>
1

> <s_lp_Force_Field>
OPLS_2005

> <r_lp_Energy>
11.8728

> <b_lp_Chiralities_Consistent>
1

> <s_lp_Variant>
AV-unprocessed.smi:784-2

> <Gold.Version>
5.8.1

> <Gold.Id.Protein>
6NUR|6NUR_protein|mol2

> <Gold.PLP.Fitness>
43.8900

> <Gold.PLP.PLP>
-38.1174

> <Gold.PLP.part.hbond>
-2.4845

> <Gold.PLP.part.metal>
0.0000

> <Gold.PLP.part.buried>
-5.6399

> <Gold.PLP.part.nonpolar>
-29.9980

> <Gold.PLP.part.repulsive>
0.0000

> <Gold.PLP.ligand.clash>
0.0000

> <Gold.PLP.ligand.torsion>
0.6164

> <Gold.PLP.Chemscore.Hbond>
2.0000

> <Gold.PLP.Chemscore.CHOScore>
0.0000

> <Gold.PLP.Chemscore.Metal>
0.0000

> <Gold.Chemscore.Hbonds>
donor molecule, donor type, donor heavy atom, donor atom, acceptor molecule, acceptor atom, score
      P1  H  7997  8010       L1     7  1.00

> <Gold.PLP.Chemscore.Internal.Correction>
1.0054

> <Gold.Rescore>
     Score         DG    S(hbond)    S(metal)    S(lipo)     H(rot)  DE(clash)    DE(int)     intcor
     20.16     -21.52       1.93        0.00     111.24       1.34       0.09       1.27       ----

> <Gold.Chemscore.Fitness>
20.1636

> <Gold.Chemscore.DG>
-21.5222

> <Gold.Chemscore.ZeroCoef>
-5.4800

> <Gold.Chemscore.Hbond>
1.9338

> <Gold.Chemscore.Metal>
0.0000

> <Gold.Chemscore.Lipo>
111.2401

> <Gold.Chemscore.Internal_Hbond>
0.0000

> <Gold.Chemscore.DEClash>
0.0901

> <Gold.Chemscore.DEInternal>
1.2684

> <Gold.Chemscore.Rot>
1.3405

> <Gold.Chemscore.Internal.Correction>
   9.000000E+99

> <Gold.Chemscore.Hbonds>
donor molecule, donor type, donor heavy atom, donor atom, acceptor molecule, acceptor atom, score
      P1  H  7997  8010       L1     7  0.99

> <Gold.Chemscore.Hbond.Weighted>
-6.4589

> <Gold.Chemscore.Metal.Weighted>
-0.0000

> <Gold.Chemscore.Lipo.Weighted>
-13.0151

> <Gold.Chemscore.Internal_Hbond.Weighted>
0.0000

> <Gold.Chemscore.DEClash.Weighted>
0.0901

> <Gold.Chemscore.DEInternal.Weighted>
1.2684

> <Gold.Chemscore.Rot.Weighted>
3.4318

> <Gold.Chemscore.Internal.Correction.Weighted>
   9.000000E+99

> <Gold.Protein.RotatedTorsions>
[ 6907 6896 6895 6894 ] final   24.90 input  -60.11 | X-H torsion
[ 7974 7965 7964 7962 ] final  -24.10 input  175.53 | X-H torsion
[ 8008 7997 7996 7995 ] final   60.64 input   59.86 | X-H torsion
[ 10167 10162 10161 10158 ] final   11.80 input  -65.29 | X-H torsion
[ 10718 10713 10712 10709 ] final   13.41 input   66.30 | X-H torsion
[ 10763 10752 10751 10750 ] final  172.64 input  -60.55 | X-H torsion
[ 11005 11000 10999 10996 ] final  -43.05 input  -57.11 | X-H torsion

> <Gold.Protein.ActiveResidues>
 VAL166  LYS551  ARG553  GLY616  TRP617  ASP618  TYR619  PRO620  LYS621  CYS622 
 ASP623  PHE694  ASN695  SER759  ASP760  ASP761  ALA762  ILE779  LEU786  VAL792 
 PHE793  MET794  SER795  GLU796  ALA797  LYS798  CYS799  TRP800  GLU811  SER814 

> <Gold.Protein.RotatedAtoms>
  151.9644  135.0108  160.0549 H   0  0  0  0  0  0  0  0  0  0  0  0  # atno 6907 bound_to 6896
  152.1840  133.4722  159.4981 H   0  0  0  0  0  0  0  0  0  0  0  0  # atno 6908 bound_to 6896
  150.6922  134.1715  159.4257 H   0  0  0  0  0  0  0  0  0  0  0  0  # atno 6909 bound_to 6896
  146.1575  140.4706  142.8585 H   0  0  0  0  0  0  0  0  0  0  0  0  # atno 7974 bound_to 7965
  155.5856  140.3492  155.4552 H   0  0  0  0  0  0  0  0  0  0  0  0  # atno 8008 bound_to 7997
  156.0340  140.1281  157.0252 H   0  0  0  0  0  0  0  0  0  0  0  0  # atno 8009 bound_to 7997
  154.4364  140.1037  156.6126 H   0  0  0  0  0  0  0  0  0  0  0  0  # atno 8010 bound_to 7997
  140.6108  143.8411  150.7064 H   0  0  0  0  0  0  0  0  0  0  0  0  # atno 10167 bound_to 10162
  157.0243  130.6167  149.5725 H   0  0  0  0  0  0  0  0  0  0  0  0  # atno 10718 bound_to 10713
  154.4289  135.2759  155.1925 H   0  0  0  0  0  0  0  0  0  0  0  0  # atno 10763 bound_to 10752
  154.3840  135.6081  153.5810 H   0  0  0  0  0  0  0  0  0  0  0  0  # atno 10764 bound_to 10752
  152.9835  135.5887  154.4597 H   0  0  0  0  0  0  0  0  0  0  0  0  # atno 10765 bound_to 10752
  141.0357  133.6801  156.2679 H   0  0  0  0  0  0  0  0  0  0  0  0  # atno 11005 bound_to 11000
  144.7983  140.6165  143.6495 LP  0  0  0  0  0  0  0  0  0  0  0  0  # atno 17320 bound_to 7965
  145.4671  139.1507  143.3834 LP  0  0  0  0  0  0  0  0  0  0  0  0  # atno 17321 bound_to 7965
  140.1979  143.3983  152.1814 LP  0  0  0  0  0  0  0  0  0  0  0  0  # atno 17342 bound_to 10162
  139.5360  144.7210  151.4892 LP  0  0  0  0  0  0  0  0  0  0  0  0  # atno 17343 bound_to 10162
  156.0091  130.5181  150.7930 LP  0  0  0  0  0  0  0  0  0  0  0  0  # atno 17370 bound_to 10713
  157.5226  131.0932  151.0059 LP  0  0  0  0  0  0  0  0  0  0  0  0  # atno 17371 bound_to 10713
  140.6326  134.5248  157.5561 LP  0  0  0  0  0  0  0  0  0  0  0  0  # atno 17394 bound_to 11000
  139.9239  134.8094  156.1127 LP  0  0  0  0  0  0  0  0  0  0  0  0  # atno 17395 bound_to 11000

$$$$
