AV-unprocessed.smi:2045|AV-procd|sdf|8308|dock7
  -GOLD-   2272010573D 1   1.00000     0.00000
 Structure written by MMmdl.
 39 40  0  0  0  0  0  0  0  0  2 V2000
  151.8962  140.3541  158.2734 C   0  0  0  0  0  0  0  0  0  0  0  0
  151.4859  140.0418  156.8752 C   0  0  0  0  0  0  0  0  0  0  0  0
  150.2674  139.9052  156.2717 C   0  0  0  0  0  0  0  0  0  0  0  0
  150.6089  139.6059  154.9262 C   0  0  0  0  0  0  0  0  0  0  0  0
  149.6028  139.3880  153.9504 N   0  0  0  0  0  0  0  0  0  0  0  0
  148.3407  138.9745  154.1557 C   0  0  0  0  0  0  0  0  0  0  0  0
  147.8446  138.7237  155.2545 O   0  0  0  0  0  0  0  0  0  0  0  0
  147.6679  138.8588  153.0014 N   0  0  0  0  0  0  0  0  0  0  0  0
  146.2783  138.4302  152.8896 C   0  0  0  0  0  0  0  0  0  0  0  0
  146.0446  137.5907  151.6180 C   0  0  0  0  0  0  0  0  0  0  0  0
  146.2730  136.1417  151.8458 N   0  3  0  0  0  0  0  0  0  0  0  0
  145.8686  135.7194  153.2127 C   0  0  0  0  0  0  0  0  0  0  0  0
  146.2361  134.2489  153.4752 C   0  0  0  0  0  0  0  0  0  0  0  0
  145.6150  133.3294  152.4161 C   0  0  0  0  0  0  0  0  0  0  0  0
  146.0176  133.8013  151.0134 C   0  0  0  0  0  0  0  0  0  0  0  0
  145.6515  135.2803  150.8033 C   0  0  0  0  0  0  0  0  0  0  0  0
  151.9171  139.5645  154.7258 N   0  0  0  0  0  0  0  0  0  0  0  0
  152.4859  139.8428  155.9743 O   0  0  0  0  0  0  0  0  0  0  0  0
  151.0495  140.7166  158.8565 H   0  0  0  0  0  0  0  0  0  0  0  0
  152.6693  141.1225  158.2880 H   0  0  0  0  0  0  0  0  0  0  0  0
  152.2915  139.4660  158.7667 H   0  0  0  0  0  0  0  0  0  0  0  0
  149.2916  140.0043  156.7237 H   0  0  0  0  0  0  0  0  0  0  0  0
  149.8762  139.5614  152.9944 H   0  0  0  0  0  0  0  0  0  0  0  0
  148.1472  139.0892  152.1429 H   0  0  0  0  0  0  0  0  0  0  0  0
  146.0039  137.8807  153.7905 H   0  0  0  0  0  0  0  0  0  0  0  0
  145.6499  139.3210  152.8671 H   0  0  0  0  0  0  0  0  0  0  0  0
  145.0131  137.7476  151.2985 H   0  0  0  0  0  0  0  0  0  0  0  0
  146.6749  137.9326  150.7957 H   0  0  0  0  0  0  0  0  0  0  0  0
  146.3630  136.3468  153.9554 H   0  0  0  0  0  0  0  0  0  0  0  0
  144.7946  135.8673  153.3372 H   0  0  0  0  0  0  0  0  0  0  0  0
  147.3209  134.1350  153.4697 H   0  0  0  0  0  0  0  0  0  0  0  0
  145.8988  133.9525  154.4689 H   0  0  0  0  0  0  0  0  0  0  0  0
  145.9351  132.2994  152.5754 H   0  0  0  0  0  0  0  0  0  0  0  0
  144.5284  133.3380  152.5110 H   0  0  0  0  0  0  0  0  0  0  0  0
  147.0910  133.6655  150.8737 H   0  0  0  0  0  0  0  0  0  0  0  0
  145.5275  133.1850  150.2593 H   0  0  0  0  0  0  0  0  0  0  0  0
  144.5675  135.4037  150.8274 H   0  0  0  0  0  0  0  0  0  0  0  0
  145.9790  135.5848  149.8099 H   0  0  0  0  0  0  0  0  0  0  0  0
  147.2711  135.9977  151.7918 H   0  0  0  0  0  0  0  0  0  0  0  0
  1  2  1  0  0  0  0
  1 19  1  0  0  0  0
  1 20  1  0  0  0  0
  1 21  1  0  0  0  0
  2 18  1  0  0  0  0
  2  3  2  0  0  0  0
  3  4  1  0  0  0  0
  3 22  1  0  0  0  0
  4  5  1  0  0  0  0
  4 17  2  0  0  0  0
  5  6  1  0  0  0  0
  5 23  1  0  0  0  0
  6  7  2  0  0  0  0
  6  8  1  0  0  0  0
  8  9  1  0  0  0  0
  8 24  1  0  0  0  0
  9 10  1  0  0  0  0
  9 25  1  0  0  0  0
  9 26  1  0  0  0  0
 10 11  1  0  0  0  0
 10 27  1  0  0  0  0
 10 28  1  0  0  0  0
 11 16  1  0  0  0  0
 11 12  1  0  0  0  0
 11 39  1  0  0  0  0
 12 13  1  0  0  0  0
 12 29  1  0  0  0  0
 12 30  1  0  0  0  0
 13 14  1  0  0  0  0
 13 31  1  0  0  0  0
 13 32  1  0  0  0  0
 14 15  1  0  0  0  0
 14 33  1  0  0  0  0
 14 34  1  0  0  0  0
 15 16  1  0  0  0  0
 15 35  1  0  0  0  0
 15 36  1  0  0  0  0
 16 37  1  0  0  0  0
 16 38  1  0  0  0  0
 17 18  1  0  0  0  0
M  CHG  1  11   1
M  END
> <s_m_source_file>
AV-unprocessed.smi

> <i_m_source_file_index>
2045

> <i_lp_mmshare_version>
43012

> <i_f3d_flags>
0

> <s_epik_input>
W0NIM11jMVtjSF1jKG5vMSlbTkhdQyg9TylbTkhdW0NIMl1bQ0gyXU4yW0NIMl1bQ0gyXVtDSDJdW0NIMl1bQ0gyXTI=

> <s_epik_cmdline>
J2VwaWtfcHl0aG9uJywgJy1waCcsICc3LjAnLCAnLXRuJywgJzgnLCAnLW1hJywgJzIwMCcsICctbWV0YWxfYmluZGluZycsICctaW1hZScsICc8aW5maWxlLm1hZT4nLCAnLW9tYWUnLCAnPG91dGZpbGUubWFlPic=

> <r_epik_Ionization_Penalty>
0.00265971

> <r_epik_Ionization_Penalty_Charging>
0.00262393

> <r_epik_Ionization_Penalty_Neutral>
3.57846e-05

> <r_epik_State_Penalty>
0.00182566

> <r_epik_Charging_Adjusted_Penalty>
0.00444959

> <i_epik_Tot_Q>
1

> <i_epik_Tot_abs_Q>
1

> <r_epik_Metal_State_Penalty>
0.0216344

> <b_epik_Metal_Only>
0

> <s_lp_Force_Field>
OPLS_2005

> <r_lp_Energy>
12.4185

> <b_lp_Chiralities_Consistent>
1

> <s_lp_Variant>
AV-unprocessed.smi:2045-1

> <Gold.Version>
5.8.1

> <Gold.Id.Protein>
6NUR|6NUR_protein|mol2

> <Gold.PLP.Fitness>
41.8007

> <Gold.PLP.PLP>
-27.0509

> <Gold.PLP.part.hbond>
-5.7266

> <Gold.PLP.part.metal>
0.0000

> <Gold.PLP.part.buried>
-1.2957

> <Gold.PLP.part.nonpolar>
-20.5388

> <Gold.PLP.part.repulsive>
0.3264

> <Gold.PLP.ligand.clash>
0.0000

> <Gold.PLP.ligand.torsion>
0.7086

> <Gold.PLP.Chemscore.Hbond>
5.3840

> <Gold.PLP.Chemscore.CHOScore>
0.0000

> <Gold.PLP.Chemscore.Metal>
0.0000

> <Gold.Chemscore.Hbonds>
donor molecule, donor type, donor heavy atom, donor atom, acceptor molecule, acceptor atom, score
      L1  H     5    23       P1  7957  1.00
      L1  H     8    24       P1  7957  1.00
      L1  H    11    39       P1  7948  2.00
      P1  H  7989  7998       L1    17  0.34
      P1  H  7997  8009       L1    18  1.00

> <Gold.PLP.Chemscore.Internal.Correction>
0.0151

> <Gold.Rescore>
     Score         DG    S(hbond)    S(metal)    S(lipo)     H(rot)  DE(clash)    DE(int)     intcor
     18.83     -20.61       3.82        0.00      54.99       1.58       0.75       1.03       ----

> <Gold.Chemscore.Fitness>
18.8268

> <Gold.Chemscore.DG>
-20.6070

> <Gold.Chemscore.ZeroCoef>
-5.4800

> <Gold.Chemscore.Hbond>
3.8163

> <Gold.Chemscore.Metal>
0.0000

> <Gold.Chemscore.Lipo>
54.9890

> <Gold.Chemscore.Internal_Hbond>
0.0000

> <Gold.Chemscore.DEClash>
0.7477

> <Gold.Chemscore.DEInternal>
1.0324

> <Gold.Chemscore.Rot>
1.5833

> <Gold.Chemscore.Internal.Correction>
   9.000000E+99

> <Gold.Chemscore.Hbonds>
donor molecule, donor type, donor heavy atom, donor atom, acceptor molecule, acceptor atom, score
      L1  H     5    23       P1  7957  0.98
      L1  H     8    24       P1  7957  0.94
      L1  H    11    39       P1  7948  1.00
      P1  H  7989  7998       L1    17  0.01
      P1  H  7997  8009       L1    18  0.98

> <Gold.Chemscore.Hbond.Weighted>
-12.7465

> <Gold.Chemscore.Metal.Weighted>
-0.0000

> <Gold.Chemscore.Lipo.Weighted>
-6.4337

> <Gold.Chemscore.Internal_Hbond.Weighted>
0.0000

> <Gold.Chemscore.DEClash.Weighted>
0.7477

> <Gold.Chemscore.DEInternal.Weighted>
1.0324

> <Gold.Chemscore.Rot.Weighted>
4.0532

> <Gold.Chemscore.Internal.Correction.Weighted>
   9.000000E+99

> <Gold.Protein.RotatedTorsions>
[ 6907 6896 6895 6894 ] final   -5.87 input  -60.11 | X-H torsion
[ 7974 7965 7964 7962 ] final  -78.60 input  175.53 | X-H torsion
[ 8008 7997 7996 7995 ] final -151.51 input   59.86 | X-H torsion
[ 10167 10162 10161 10158 ] final  -67.46 input  -65.29 | X-H torsion
[ 10718 10713 10712 10709 ] final   33.20 input   66.30 | X-H torsion
[ 10763 10752 10751 10750 ] final  -48.03 input  -60.55 | X-H torsion
[ 11005 11000 10999 10996 ] final   60.66 input  -57.11 | X-H torsion

> <Gold.Protein.ActiveResidues>
 VAL166  LYS551  ARG553  GLY616  TRP617  ASP618  TYR619  PRO620  LYS621  CYS622 
 ASP623  PHE694  ASN695  SER759  ASP760  ASP761  ALA762  ILE779  LEU786  VAL792 
 PHE793  MET794  SER795  GLU796  ALA797  LYS798  CYS799  TRP800  GLU811  SER814 

> <Gold.Protein.RotatedAtoms>
  151.4746  135.1048  159.9760 H   0  0  0  0  0  0  0  0  0  0  0  0  # atno 6907 bound_to 6896
  152.4803  133.8234  159.7076 H   0  0  0  0  0  0  0  0  0  0  0  0  # atno 6908 bound_to 6896
  150.8870  133.7233  159.2942 H   0  0  0  0  0  0  0  0  0  0  0  0  # atno 6909 bound_to 6896
  145.5843  140.9442  143.1327 H   0  0  0  0  0  0  0  0  0  0  0  0  # atno 7974 bound_to 7965
  155.6406  140.0701  157.2620 H   0  0  0  0  0  0  0  0  0  0  0  0  # atno 8008 bound_to 7997
  154.4184  140.1751  156.1618 H   0  0  0  0  0  0  0  0  0  0  0  0  # atno 8009 bound_to 7997
  155.9859  140.3349  155.6710 H   0  0  0  0  0  0  0  0  0  0  0  0  # atno 8010 bound_to 7997
  140.5581  143.2312  151.6782 H   0  0  0  0  0  0  0  0  0  0  0  0  # atno 10167 bound_to 10162
  157.2949  130.7321  149.6632 H   0  0  0  0  0  0  0  0  0  0  0  0  # atno 10718 bound_to 10713
  154.0711  135.6604  153.4824 H   0  0  0  0  0  0  0  0  0  0  0  0  # atno 10763 bound_to 10752
  153.0390  135.5157  154.7566 H   0  0  0  0  0  0  0  0  0  0  0  0  # atno 10764 bound_to 10752
  154.6632  135.3018  154.9807 H   0  0  0  0  0  0  0  0  0  0  0  0  # atno 10765 bound_to 10752
  140.0216  134.6145  155.9632 H   0  0  0  0  0  0  0  0  0  0  0  0  # atno 11005 bound_to 11000
  144.7380  139.7530  143.7322 LP  0  0  0  0  0  0  0  0  0  0  0  0  # atno 17320 bound_to 7965
  146.1693  139.4838  142.9937 LP  0  0  0  0  0  0  0  0  0  0  0  0  # atno 17321 bound_to 7965
  139.5057  144.3708  152.0472 LP  0  0  0  0  0  0  0  0  0  0  0  0  # atno 17342 bound_to 10162
  140.2831  144.3837  150.6112 LP  0  0  0  0  0  0  0  0  0  0  0  0  # atno 17343 bound_to 10162
  155.9668  130.4297  150.4846 LP  0  0  0  0  0  0  0  0  0  0  0  0  # atno 17370 bound_to 10713
  157.2816  131.0608  151.2194 LP  0  0  0  0  0  0  0  0  0  0  0  0  # atno 17371 bound_to 10713
  141.1777  133.6542  156.4894 LP  0  0  0  0  0  0  0  0  0  0  0  0  # atno 17394 bound_to 11000
  140.4378  134.7043  157.4976 LP  0  0  0  0  0  0  0  0  0  0  0  0  # atno 17395 bound_to 11000

$$$$
