AV-unprocessed.smi:2083|AV-procd|sdf|8509|dock9
  -GOLD-   2272011223D 1   1.00000     0.00000
 Structure written by MMmdl.
 44 45  0  0  0  0  0  0  0  0  3 V2000
  152.4953  143.5224  161.0065 C   0  0  0  0  0  0  0  0  0  0  0  0
  152.0567  143.5798  159.5834 C   0  0  0  0  0  0  0  0  0  0  0  0
  151.5059  142.6541  158.7428 C   0  0  0  0  0  0  0  0  0  0  0  0
  151.3326  143.3802  157.5344 C   0  0  0  0  0  0  0  0  0  0  0  0
  150.7701  142.7563  156.3898 N   0  0  0  0  0  0  0  0  0  0  0  0
  150.8589  141.4711  156.0014 C   0  0  0  0  0  0  0  0  0  0  0  0
  151.4863  140.6530  156.6849 O   0  0  0  0  0  0  0  0  0  0  0  0
  150.1951  141.2374  154.8354 N   0  5  0  0  0  0  0  0  0  0  0  0
  148.9972  140.4056  154.7086 C   0  0  0  0  0  0  0  0  0  0  0  0
  149.2733  139.1560  153.8271 C   0  0  1  0  0  0  0  0  0  0  0  0
  150.4522  138.2784  154.3181 C   0  0  0  0  0  0  0  0  0  0  0  0
  148.0149  138.3741  153.6166 N   0  3  2  0  0  0  0  0  0  0  0  0
  146.9939  138.9962  152.7225 C   0  0  0  0  0  0  0  0  0  0  0  0
  145.8850  137.9903  152.3797 C   0  0  0  0  0  0  0  0  0  0  0  0
  145.2307  137.4423  153.6561 C   0  0  0  0  0  0  0  0  0  0  0  0
  146.2825  136.8647  154.6218 C   0  0  1  0  0  0  0  0  0  0  0  0
  146.8390  135.5086  154.1531 C   0  0  0  0  0  0  0  0  0  0  0  0
  147.4037  137.8917  154.8854 C   0  0  0  0  0  0  0  0  0  0  0  0
  151.7433  144.6364  157.6296 N   0  0  0  0  0  0  0  0  0  0  0  0
  152.2085  144.7706  158.9430 O   0  0  0  0  0  0  0  0  0  0  0  0
  152.7080  142.4960  161.3061 H   0  0  0  0  0  0  0  0  0  0  0  0
  151.7193  143.9134  161.6643 H   0  0  0  0  0  0  0  0  0  0  0  0
  153.3990  144.1125  161.1598 H   0  0  0  0  0  0  0  0  0  0  0  0
  151.2637  141.6243  158.9596 H   0  0  0  0  0  0  0  0  0  0  0  0
  150.2394  143.3611  155.7807 H   0  0  0  0  0  0  0  0  0  0  0  0
  148.6377  140.0784  155.6842 H   0  0  0  0  0  0  0  0  0  0  0  0
  148.1669  140.9659  154.2756 H   0  0  0  0  0  0  0  0  0  0  0  0
  149.5640  139.5427  152.8492 H   0  0  0  0  0  0  0  0  0  0  0  0
  151.3952  138.8282  154.3141 H   0  0  0  0  0  0  0  0  0  0  0  0
  150.5942  137.4184  153.6635 H   0  0  0  0  0  0  0  0  0  0  0  0
  150.3043  137.8984  155.3304 H   0  0  0  0  0  0  0  0  0  0  0  0
  146.5550  139.8695  153.2066 H   0  0  0  0  0  0  0  0  0  0  0  0
  147.4522  139.3451  151.7969 H   0  0  0  0  0  0  0  0  0  0  0  0
  145.1311  138.4687  151.7539 H   0  0  0  0  0  0  0  0  0  0  0  0
  146.2985  137.1726  151.7887 H   0  0  0  0  0  0  0  0  0  0  0  0
  144.6922  138.2501  154.1535 H   0  0  0  0  0  0  0  0  0  0  0  0
  144.4843  136.6875  153.4059 H   0  0  0  0  0  0  0  0  0  0  0  0
  145.7814  136.6779  155.5725 H   0  0  0  0  0  0  0  0  0  0  0  0
  147.3877  135.5946  153.2150 H   0  0  0  0  0  0  0  0  0  0  0  0
  146.0362  134.7863  154.0030 H   0  0  0  0  0  0  0  0  0  0  0  0
  147.5207  135.0893  154.8936 H   0  0  0  0  0  0  0  0  0  0  0  0
  148.1609  137.4341  155.5233 H   0  0  0  0  0  0  0  0  0  0  0  0
  147.0066  138.7453  155.4367 H   0  0  0  0  0  0  0  0  0  0  0  0
  148.3226  137.5360  153.1438 H   0  0  0  0  0  0  0  0  0  0  0  0
  1  2  1  0  0  0  0
  1 21  1  0  0  0  0
  1 22  1  0  0  0  0
  1 23  1  0  0  0  0
  2 20  1  0  0  0  0
  2  3  2  0  0  0  0
  3  4  1  0  0  0  0
  3 24  1  0  0  0  0
  4  5  1  0  0  0  0
  4 19  2  0  0  0  0
  5  6  1  0  0  0  0
  5 25  1  0  0  0  0
  6  7  2  0  0  0  0
  6  8  1  0  0  0  0
  8  9  1  0  0  0  0
  9 10  1  0  0  0  0
  9 26  1  0  0  0  0
  9 27  1  0  0  0  0
 10 11  1  0  0  0  0
 10 12  1  0  0  0  0
 10 28  1  0  0  0  0
 11 29  1  0  0  0  0
 11 30  1  0  0  0  0
 11 31  1  0  0  0  0
 12 18  1  0  0  0  0
 12 13  1  0  0  0  0
 12 44  1  0  0  0  0
 13 14  1  0  0  0  0
 13 32  1  0  0  0  0
 13 33  1  0  0  0  0
 14 15  1  0  0  0  0
 14 34  1  0  0  0  0
 14 35  1  0  0  0  0
 15 16  1  0  0  0  0
 15 36  1  0  0  0  0
 15 37  1  0  0  0  0
 16 17  1  0  0  0  0
 16 18  1  0  0  0  0
 16 38  1  0  0  0  0
 17 39  1  0  0  0  0
 17 40  1  0  0  0  0
 17 41  1  0  0  0  0
 18 42  1  0  0  0  0
 18 43  1  0  0  0  0
 19 20  1  0  0  0  0
M  CHG  1   8  -1
M  CHG  1  12   1
M  END
> <s_m_source_file>
AV-unprocessed.smi

> <i_m_source_file_index>
2083

> <i_lp_mmshare_version>
43012

> <i_f3d_flags>
0

> <s_epik_input>
W0NIM11jMVtjSF1jKG5vMSlbTkhdQyg9TylbTkhdW0NIMl1bQ0BIXShbQ0gzXSlOMltDSDJdW0NIMl1bQ0gyXVtDQEBIXShbQ0gzXSlbQ0gyXTI=

> <s_epik_cmdline>
J2VwaWtfcHl0aG9uJywgJy1waCcsICc3LjAnLCAnLXRuJywgJzgnLCAnLW1hJywgJzIwMCcsICctbWV0YWxfYmluZGluZycsICctaW1hZScsICc8aW5maWxlLm1hZT4nLCAnLW9tYWUnLCAnPG91dGZpbGUubWFlPic=

> <r_epik_Ionization_Penalty>
6.76934

> <r_epik_Ionization_Penalty_Charging>
6.76934

> <r_epik_Ionization_Penalty_Neutral>
5.77849e-06

> <r_epik_State_Penalty>
6.79457

> <r_epik_Charging_Adjusted_Penalty>
13.5639

> <i_epik_Tot_Q>
0

> <i_epik_Tot_abs_Q>
2

> <r_epik_Metal_State_Penalty>
2.72837

> <b_epik_Metal_Only>
1

> <s_lp_Force_Field>
OPLS_2005

> <r_lp_Energy>
19.7061

> <b_lp_Chiralities_Consistent>
1

> <s_lp_Variant>
AV-unprocessed.smi:2083-20

> <Gold.Version>
5.8.1

> <Gold.Id.Protein>
6NUR|6NUR_protein|mol2

> <Gold.PLP.Fitness>
41.6808

> <Gold.PLP.PLP>
-32.6467

> <Gold.PLP.part.hbond>
-3.0000

> <Gold.PLP.part.metal>
0.0000

> <Gold.PLP.part.buried>
-3.4259

> <Gold.PLP.part.nonpolar>
-26.8382

> <Gold.PLP.part.repulsive>
0.3429

> <Gold.PLP.ligand.clash>
0.0000

> <Gold.PLP.ligand.torsion>
1.0118

> <Gold.PLP.Chemscore.Hbond>
3.6344

> <Gold.PLP.Chemscore.CHOScore>
0.0000

> <Gold.PLP.Chemscore.Metal>
0.0000

> <Gold.Chemscore.Hbonds>
donor molecule, donor type, donor heavy atom, donor atom, acceptor molecule, acceptor atom, score
      L1  H     5    25       P1  8028  0.93
      L1  H    12    44       P1  7948  2.00
      P1  H  7989  7998       L1     8  0.56

> <Gold.PLP.Chemscore.Internal.Correction>
0.1544

> <Gold.Rescore>
     Score         DG    S(hbond)    S(metal)    S(lipo)     H(rot)  DE(clash)    DE(int)     intcor
     14.93     -17.79       2.30        0.00      72.74       1.52       0.63       2.23       ----

> <Gold.Chemscore.Fitness>
14.9336

> <Gold.Chemscore.DG>
-17.7946

> <Gold.Chemscore.ZeroCoef>
-5.4800

> <Gold.Chemscore.Hbond>
2.3031

> <Gold.Chemscore.Metal>
0.0000

> <Gold.Chemscore.Lipo>
72.7429

> <Gold.Chemscore.Internal_Hbond>
0.0000

> <Gold.Chemscore.DEClash>
0.6309

> <Gold.Chemscore.DEInternal>
2.2301

> <Gold.Chemscore.Rot>
1.5190

> <Gold.Chemscore.Internal.Correction>
   9.000000E+99

> <Gold.Chemscore.Hbonds>
donor molecule, donor type, donor heavy atom, donor atom, acceptor molecule, acceptor atom, score
      L1  H     5    25       P1  8028  0.91
      L1  H    12    44       P1  7948  0.99
      P1  H  7989  7998       L1     8  0.25

> <Gold.Chemscore.Hbond.Weighted>
-7.6923

> <Gold.Chemscore.Metal.Weighted>
-0.0000

> <Gold.Chemscore.Lipo.Weighted>
-8.5109

> <Gold.Chemscore.Internal_Hbond.Weighted>
0.0000

> <Gold.Chemscore.DEClash.Weighted>
0.6309

> <Gold.Chemscore.DEInternal.Weighted>
2.2301

> <Gold.Chemscore.Rot.Weighted>
3.8886

> <Gold.Chemscore.Internal.Correction.Weighted>
   9.000000E+99

> <Gold.Protein.RotatedTorsions>
[ 6907 6896 6895 6894 ] final  -28.56 input  -60.11 | X-H torsion
[ 7974 7965 7964 7962 ] final   80.57 input  175.53 | X-H torsion
[ 8008 7997 7996 7995 ] final -170.85 input   59.86 | X-H torsion
[ 10167 10162 10161 10158 ] final  168.61 input  -65.29 | X-H torsion
[ 10718 10713 10712 10709 ] final  118.94 input   66.30 | X-H torsion
[ 10763 10752 10751 10750 ] final   -1.80 input  -60.55 | X-H torsion
[ 11005 11000 10999 10996 ] final   43.50 input  -57.11 | X-H torsion

> <Gold.Protein.ActiveResidues>
 VAL166  LYS551  ARG553  GLY616  TRP617  ASP618  TYR619  PRO620  LYS621  CYS622 
 ASP623  PHE694  ASN695  SER759  ASP760  ASP761  ALA762  ILE779  LEU786  VAL792 
 PHE793  MET794  SER795  GLU796  ALA797  LYS798  CYS799  TRP800  GLU811  SER814 

> <Gold.Protein.RotatedAtoms>
  151.1312  135.0131  159.8583 H   0  0  0  0  0  0  0  0  0  0  0  0  # atno 6907 bound_to 6896
  152.5451  134.1608  159.8567 H   0  0  0  0  0  0  0  0  0  0  0  0  # atno 6908 bound_to 6896
  151.1675  133.4760  159.2627 H   0  0  0  0  0  0  0  0  0  0  0  0  # atno 6909 bound_to 6896
  145.6494  139.2444  143.1985 H   0  0  0  0  0  0  0  0  0  0  0  0  # atno 7974 bound_to 7965
  155.9238  140.1079  157.1186 H   0  0  0  0  0  0  0  0  0  0  0  0  # atno 8008 bound_to 7997
  154.4059  140.1250  156.4780 H   0  0  0  0  0  0  0  0  0  0  0  0  # atno 8009 bound_to 7997
  155.7163  140.3470  155.4998 H   0  0  0  0  0  0  0  0  0  0  0  0  # atno 8010 bound_to 7997
  139.4972  144.3796  151.9637 H   0  0  0  0  0  0  0  0  0  0  0  0  # atno 10167 bound_to 10162
  157.5996  131.1053  150.7827 H   0  0  0  0  0  0  0  0  0  0  0  0  # atno 10718 bound_to 10713
  153.3496  135.6985  153.6799 H   0  0  0  0  0  0  0  0  0  0  0  0  # atno 10763 bound_to 10752
  153.5531  135.3550  155.2768 H   0  0  0  0  0  0  0  0  0  0  0  0  # atno 10764 bound_to 10752
  154.8651  135.4231  154.2729 H   0  0  0  0  0  0  0  0  0  0  0  0  # atno 10765 bound_to 10752
  140.1639  134.4307  155.8300 H   0  0  0  0  0  0  0  0  0  0  0  0  # atno 11005 bound_to 11000
  146.1216  140.7302  142.9455 LP  0  0  0  0  0  0  0  0  0  0  0  0  # atno 17320 bound_to 7965
  144.7128  140.4101  143.7067 LP  0  0  0  0  0  0  0  0  0  0  0  0  # atno 17321 bound_to 7965
  140.3232  144.3403  150.6004 LP  0  0  0  0  0  0  0  0  0  0  0  0  # atno 17342 bound_to 10162
  140.5705  143.2181  151.7607 LP  0  0  0  0  0  0  0  0  0  0  0  0  # atno 17343 bound_to 10162
  156.8229  130.4990  149.5341 LP  0  0  0  0  0  0  0  0  0  0  0  0  # atno 17370 bound_to 10713
  156.1066  130.6009  150.9980 LP  0  0  0  0  0  0  0  0  0  0  0  0  # atno 17371 bound_to 10713
  141.2212  133.6925  156.7643 LP  0  0  0  0  0  0  0  0  0  0  0  0  # atno 17394 bound_to 11000
  140.2457  134.8579  157.3618 LP  0  0  0  0  0  0  0  0  0  0  0  0  # atno 17395 bound_to 11000

$$$$
