AV-unprocessed.smi:263|AV-procd|sdf|2004|dock10
  -GOLD-   2262021203D 1   1.00000     0.00000
 Structure written by MMmdl.
 57 61  0  0  0  0  0  0  0  0  1 V2000
  144.6113  135.1459  149.5208 O   0  0  0  0  0  0  0  0  0  0  0  0
  144.5419  134.5578  150.8081 C   0  0  0  0  0  0  0  0  0  0  0  0
  143.9187  135.5964  151.7739 C   0  0  0  0  0  0  0  0  0  0  0  0
  144.8858  136.4960  152.3835 N   0  0  0  0  0  0  0  0  0  0  0  0
  145.8006  137.2882  151.7271 C   0  0  0  0  0  0  0  0  0  0  0  0
  146.5640  138.0127  152.4983 N   0  0  0  0  0  0  0  0  0  0  0  0
  146.1554  137.6847  153.7859 C   0  0  0  0  0  0  0  0  0  0  0  0
  146.5572  138.0962  155.0880 C   0  0  0  0  0  0  0  0  0  0  0  0
  147.5614  138.9847  155.2977 N   0  0  0  0  0  0  0  0  0  0  0  0
  147.2118  140.0982  156.1770 C   0  0  0  0  0  0  0  0  0  0  0  0
  148.4746  140.8036  156.7007 C   0  0  0  0  0  0  0  0  0  0  0  0
  149.4268  141.2241  155.5558 C   0  0  1  0  0  0  0  0  0  0  0  0
  148.7776  142.2438  154.8173 O   0  0  0  0  0  0  0  0  0  0  0  0
  150.7412  141.8506  156.0780 C   0  0  0  0  0  0  0  0  0  0  0  0
  151.6963  140.8155  156.6942 C   0  0  0  0  0  0  0  0  0  0  0  0
  151.9883  139.6800  155.7044 C   0  0  0  0  0  0  0  0  0  0  0  0
  150.6893  139.0095  155.2349 C   0  0  0  0  0  0  0  0  0  0  0  0
  149.7119  140.0273  154.6054 C   0  0  1  0  0  0  0  0  0  0  0  0
  148.4048  139.3398  154.1548 C   0  0  0  0  0  0  0  0  0  0  0  0
  145.8944  137.5566  156.1462 N   0  0  0  0  0  0  0  0  0  0  0  0
  144.9170  136.6670  155.9488 C   0  0  0  0  0  0  0  0  0  0  0  0
  144.4471  136.1856  154.7965 N   0  0  0  0  0  0  0  0  0  0  0  0
  145.0981  136.7329  153.7305 C   0  0  0  0  0  0  0  0  0  0  0  0
  143.6492  133.3033  150.7243 C   0  0  0  0  0  0  0  0  0  0  0  0
  144.3079  132.1748  149.9114 C   0  0  0  0  0  0  0  0  0  0  0  0
  145.5833  131.8645  150.4587 O   0  0  0  0  0  0  0  0  0  0  0  0
  146.4909  132.9570  150.3847 C   0  0  0  0  0  0  0  0  0  0  0  0
  145.9688  134.1377  151.2230 C   0  0  0  0  0  0  0  0  0  0  0  0
  145.3230  134.7461  149.0447 H   0  0  0  0  0  0  0  0  0  0  0  0
  143.1702  136.1973  151.2556 H   0  0  0  0  0  0  0  0  0  0  0  0
  143.3888  135.0838  152.5779 H   0  0  0  0  0  0  0  0  0  0  0  0
  145.8800  137.3168  150.6499 H   0  0  0  0  0  0  0  0  0  0  0  0
  146.5942  140.8028  155.6185 H   0  0  0  0  0  0  0  0  0  0  0  0
  146.6110  139.7666  157.0231 H   0  0  0  0  0  0  0  0  0  0  0  0
  148.1909  141.6711  157.2981 H   0  0  0  0  0  0  0  0  0  0  0  0
  148.9852  140.1252  157.3835 H   0  0  0  0  0  0  0  0  0  0  0  0
  148.8954  143.0642  155.2712 H   0  0  0  0  0  0  0  0  0  0  0  0
  151.2610  142.3416  155.2536 H   0  0  0  0  0  0  0  0  0  0  0  0
  150.5249  142.6339  156.8057 H   0  0  0  0  0  0  0  0  0  0  0  0
  152.6287  141.3015  156.9830 H   0  0  0  0  0  0  0  0  0  0  0  0
  151.2701  140.4070  157.6106 H   0  0  0  0  0  0  0  0  0  0  0  0
  152.5291  140.0743  154.8431 H   0  0  0  0  0  0  0  0  0  0  0  0
  152.6411  138.9406  156.1690 H   0  0  0  0  0  0  0  0  0  0  0  0
  150.9260  138.2290  154.5113 H   0  0  0  0  0  0  0  0  0  0  0  0
  150.2190  138.5047  156.0795 H   0  0  0  0  0  0  0  0  0  0  0  0
  150.2025  140.4134  153.7102 H   0  0  0  0  0  0  0  0  0  0  0  0
  148.6432  138.4500  153.5703 H   0  0  0  0  0  0  0  0  0  0  0  0
  147.8437  140.0070  153.4990 H   0  0  0  0  0  0  0  0  0  0  0  0
  144.4465  136.2840  156.8423 H   0  0  0  0  0  0  0  0  0  0  0  0
  143.4562  132.9315  151.7315 H   0  0  0  0  0  0  0  0  0  0  0  0
  142.6761  133.5524  150.2991 H   0  0  0  0  0  0  0  0  0  0  0  0
  143.6859  131.2802  149.9455 H   0  0  0  0  0  0  0  0  0  0  0  0
  144.4056  132.4505  148.8602 H   0  0  0  0  0  0  0  0  0  0  0  0
  147.4606  132.6334  150.7627 H   0  0  0  0  0  0  0  0  0  0  0  0
  146.6411  133.2489  149.3442 H   0  0  0  0  0  0  0  0  0  0  0  0
  146.6612  134.9765  151.1405 H   0  0  0  0  0  0  0  0  0  0  0  0
  145.9661  133.8440  152.2733 H   0  0  0  0  0  0  0  0  0  0  0  0
  1  2  1  0  0  0  0
  1 29  1  0  0  0  0
  2 28  1  0  0  0  0
  2  3  1  0  0  0  0
  2 24  1  0  0  0  0
  3  4  1  0  0  0  0
  3 30  1  0  0  0  0
  3 31  1  0  0  0  0
  4 23  1  0  0  0  0
  4  5  1  0  0  0  0
  5  6  2  0  0  0  0
  5 32  1  0  0  0  0
  6  7  1  0  0  0  0
  7 23  2  0  0  0  0
  7  8  1  0  0  0  0
  8  9  1  0  0  0  0
  8 20  2  0  0  0  0
  9 19  1  0  0  0  0
  9 10  1  0  0  0  0
 10 11  1  0  0  0  0
 10 33  1  0  0  0  0
 10 34  1  0  0  0  0
 11 12  1  0  0  0  0
 11 35  1  0  0  0  0
 11 36  1  0  0  0  0
 12 18  1  0  0  0  0
 12 13  1  0  0  0  0
 12 14  1  0  0  0  0
 13 37  1  0  0  0  0
 14 15  1  0  0  0  0
 14 38  1  0  0  0  0
 14 39  1  0  0  0  0
 15 16  1  0  0  0  0
 15 40  1  0  0  0  0
 15 41  1  0  0  0  0
 16 17  1  0  0  0  0
 16 42  1  0  0  0  0
 16 43  1  0  0  0  0
 17 18  1  0  0  0  0
 17 44  1  0  0  0  0
 17 45  1  0  0  0  0
 18 19  1  0  0  0  0
 18 46  1  0  0  0  0
 19 47  1  0  0  0  0
 19 48  1  0  0  0  0
 20 21  1  0  0  0  0
 21 22  2  0  0  0  0
 21 49  1  0  0  0  0
 22 23  1  0  0  0  0
 24 25  1  0  0  0  0
 24 50  1  0  0  0  0
 24 51  1  0  0  0  0
 25 26  1  0  0  0  0
 25 52  1  0  0  0  0
 25 53  1  0  0  0  0
 26 27  1  0  0  0  0
 27 28  1  0  0  0  0
 27 54  1  0  0  0  0
 27 55  1  0  0  0  0
 28 56  1  0  0  0  0
 28 57  1  0  0  0  0
M  END
> <s_m_source_file>
AV-unprocessed.smi

> <i_m_source_file_index>
263

> <i_lp_mmshare_version>
43012

> <i_f3d_flags>
0

> <s_epik_input>
W0NIMl0xW0NIMl1PW0NIMl1bQ0gyXUMxKFtPSF0pW0NIMl1uKFtjSF1uMiljKGMyMyluW2NIXW5jM04oW0NIMl1bQ0gyXTQpW0NIMl1bQ0BASF0oW0NAXTQ1W09IXSlbQ0gyXVtDSDJdW0NIMl1bQ0gyXTU=

> <s_epik_cmdline>
J2VwaWtfcHl0aG9uJywgJy1waCcsICc3LjAnLCAnLXRuJywgJzgnLCAnLW1hJywgJzIwMCcsICctbWV0YWxfYmluZGluZycsICctaW1hZScsICc8aW5maWxlLm1hZT4nLCAnLW9tYWUnLCAnPG91dGZpbGUubWFlPic=

> <r_lp_tautomer_probability>
1

> <r_epik_Ionization_Penalty>
0.00747493

> <r_epik_Ionization_Penalty_Charging>
0

> <r_epik_Ionization_Penalty_Neutral>
0.00747493

> <r_epik_State_Penalty>
0.00549307

> <r_epik_Charging_Adjusted_Penalty>
0.00549307

> <i_epik_Tot_Q>
0

> <i_epik_Tot_abs_Q>
0

> <r_epik_Metal_State_Penalty>
-0

> <b_epik_Metal_Only>
0

> <s_lp_Force_Field>
OPLS_2005

> <r_lp_Energy>
40.0531

> <b_lp_Chiralities_Consistent>
1

> <s_lp_Variant>
AV-unprocessed.smi:263-2

> <Gold.Version>
5.8.1

> <Gold.Id.Protein>
6NUR|6NUR_protein|mol2

> <Gold.PLP.Fitness>
45.8870

> <Gold.PLP.PLP>
-39.0191

> <Gold.PLP.part.hbond>
-2.0456

> <Gold.PLP.part.metal>
0.0000

> <Gold.PLP.part.buried>
-5.6396

> <Gold.PLP.part.nonpolar>
-32.3087

> <Gold.PLP.part.repulsive>
0.7562

> <Gold.PLP.ligand.clash>
0.0000

> <Gold.PLP.ligand.torsion>
0.6938

> <Gold.PLP.Chemscore.Hbond>
1.9600

> <Gold.PLP.Chemscore.CHOScore>
0.6682

> <Gold.PLP.Chemscore.Metal>
0.0000

> <Gold.Chemscore.Hbonds>
donor molecule, donor type, donor heavy atom, donor atom, acceptor molecule, acceptor atom, score
      L1  H     1    29       P1  7921  0.85
      L1  H    13    37       P1  8028  1.00
      L1  C     5    32       P1 10171  0.55

> <Gold.PLP.Chemscore.Internal.Correction>
0.3709

> <Gold.Rescore>
     Score         DG    S(hbond)    S(metal)    S(lipo)     H(rot)  DE(clash)    DE(int)     intcor
     14.38     -16.69       1.95        0.00      97.42       2.62       0.34       1.97       ----

> <Gold.Chemscore.Fitness>
14.3794

> <Gold.Chemscore.DG>
-16.6883

> <Gold.Chemscore.ZeroCoef>
-5.4800

> <Gold.Chemscore.Hbond>
1.9538

> <Gold.Chemscore.Metal>
0.0000

> <Gold.Chemscore.Lipo>
97.4183

> <Gold.Chemscore.Internal_Hbond>
0.0000

> <Gold.Chemscore.DEClash>
0.3368

> <Gold.Chemscore.DEInternal>
1.9720

> <Gold.Chemscore.Rot>
2.6232

> <Gold.Chemscore.Internal.Correction>
   9.000000E+99

> <Gold.Chemscore.Hbonds>
donor molecule, donor type, donor heavy atom, donor atom, acceptor molecule, acceptor atom, score
      L1  H     1    29       P1  7921  0.83
      L1  H    13    37       P1  8028  1.00

> <Gold.Chemscore.Hbond.Weighted>
-6.5258

> <Gold.Chemscore.Metal.Weighted>
-0.0000

> <Gold.Chemscore.Lipo.Weighted>
-11.3979

> <Gold.Chemscore.Internal_Hbond.Weighted>
0.0000

> <Gold.Chemscore.DEClash.Weighted>
0.3368

> <Gold.Chemscore.DEInternal.Weighted>
1.9720

> <Gold.Chemscore.Rot.Weighted>
6.7155

> <Gold.Chemscore.Internal.Correction.Weighted>
   9.000000E+99

> <Gold.Protein.RotatedTorsions>
[ 6907 6896 6895 6894 ] final  -30.54 input  -60.11 | X-H torsion
[ 7974 7965 7964 7962 ] final  107.61 input  175.53 | X-H torsion
[ 8008 7997 7996 7995 ] final  153.48 input   59.86 | X-H torsion
[ 10167 10162 10161 10158 ] final  128.04 input  -65.29 | X-H torsion
[ 10718 10713 10712 10709 ] final  -59.87 input   66.30 | X-H torsion
[ 10763 10752 10751 10750 ] final   93.75 input  -60.55 | X-H torsion
[ 11005 11000 10999 10996 ] final   52.01 input  -57.11 | X-H torsion

> <Gold.Protein.ActiveResidues>
 VAL166  LYS551  ARG553  GLY616  TRP617  ASP618  TYR619  PRO620  LYS621  CYS622 
 ASP623  PHE694  ASN695  SER759  ASP760  ASP761  ALA762  ILE779  LEU786  VAL792 
 PHE793  MET794  SER795  GLU796  ALA797  LYS798  CYS799  TRP800  GLU811  SER814 

> <Gold.Protein.RotatedAtoms>
  151.1042  134.9990  159.8462 H   0  0  0  0  0  0  0  0  0  0  0  0  # atno 6907 bound_to 6896
  152.5439  134.1913  159.8685 H   0  0  0  0  0  0  0  0  0  0  0  0  # atno 6908 bound_to 6896
  151.1959  133.4595  159.2629 H   0  0  0  0  0  0  0  0  0  0  0  0  # atno 6909 bound_to 6896
  145.2913  139.2599  143.3863 H   0  0  0  0  0  0  0  0  0  0  0  0  # atno 7974 bound_to 7965
  156.2579  140.1992  156.6497 H   0  0  0  0  0  0  0  0  0  0  0  0  # atno 8008 bound_to 7997
  154.6546  140.0568  157.0019 H   0  0  0  0  0  0  0  0  0  0  0  0  # atno 8009 bound_to 7997
  155.1367  140.3239  155.4464 H   0  0  0  0  0  0  0  0  0  0  0  0  # atno 8010 bound_to 7997
  139.5547  144.6840  151.4218 H   0  0  0  0  0  0  0  0  0  0  0  0  # atno 10167 bound_to 10162
  156.1031  130.4184  150.0775 H   0  0  0  0  0  0  0  0  0  0  0  0  # atno 10718 bound_to 10713
  153.2338  135.4314  155.0624 H   0  0  0  0  0  0  0  0  0  0  0  0  # atno 10763 bound_to 10752
  154.8309  135.3386  154.6748 H   0  0  0  0  0  0  0  0  0  0  0  0  # atno 10764 bound_to 10752
  153.7174  135.7019  153.5078 H   0  0  0  0  0  0  0  0  0  0  0  0  # atno 10765 bound_to 10752
  140.0885  134.5241  155.8875 H   0  0  0  0  0  0  0  0  0  0  0  0  # atno 11005 bound_to 11000
  146.3184  140.3405  142.8647 LP  0  0  0  0  0  0  0  0  0  0  0  0  # atno 17320 bound_to 7965
  144.9170  140.7824  143.5772 LP  0  0  0  0  0  0  0  0  0  0  0  0  # atno 17321 bound_to 7965
  140.6817  143.8065  150.7131 LP  0  0  0  0  0  0  0  0  0  0  0  0  # atno 17342 bound_to 10162
  140.1521  143.4349  152.2124 LP  0  0  0  0  0  0  0  0  0  0  0  0  # atno 17343 bound_to 10162
  156.8757  130.9539  151.3605 LP  0  0  0  0  0  0  0  0  0  0  0  0  # atno 17370 bound_to 10713
  157.6204  130.8650  149.9099 LP  0  0  0  0  0  0  0  0  0  0  0  0  # atno 17371 bound_to 10713
  141.2070  133.6660  156.6279 LP  0  0  0  0  0  0  0  0  0  0  0  0  # atno 17394 bound_to 11000
  140.3386  134.7868  157.4380 LP  0  0  0  0  0  0  0  0  0  0  0  0  # atno 17395 bound_to 11000

$$$$
