AV-unprocessed.smi:114|AV-procd|sdf|1115|dock6
  -GOLD-   2262018233D 1   1.00000     0.00000
 Structure written by MMmdl.
 32 34  0  0  0  0  0  0  0  0  1 V2000
  152.8841  140.6884  159.2253 N   0  0  0  0  0  0  0  0  0  0  0  0
  152.4963  140.3183  157.9967 C   0  0  0  0  0  0  0  0  0  0  0  0
  153.2165  139.3715  157.3512 N   0  0  0  0  0  0  0  0  0  0  0  0
  152.8636  138.9744  156.1224 C   0  0  0  0  0  0  0  0  0  0  0  0
  153.6379  138.0219  155.5518 F   0  0  0  0  0  0  0  0  0  0  0  0
  151.8318  139.4135  155.3938 N   0  0  0  0  0  0  0  0  0  0  0  0
  151.1028  140.3686  156.0406 C   0  0  0  0  0  0  0  0  0  0  0  0
  151.3691  140.8723  157.3419 C   0  0  0  0  0  0  0  0  0  0  0  0
  150.4238  141.8300  157.6822 N   0  0  0  0  0  0  0  0  0  0  0  0
  149.6434  141.8858  156.6362 C   0  0  0  0  0  0  0  0  0  0  0  0
  149.9824  141.0439  155.5997 N   0  0  0  0  0  0  0  0  0  0  0  0
  149.2868  140.8905  154.2862 C   0  0  2  0  0  0  0  0  0  0  0  0
  148.5069  142.0267  154.0743 O   0  0  0  0  0  0  0  0  0  0  0  0
  147.2451  141.6495  153.5362 C   0  0  2  0  0  0  0  0  0  0  0  0
  146.2020  142.7335  153.8481 C   0  0  0  0  0  0  0  0  0  0  0  0
  146.2975  143.1234  155.2014 O   0  0  0  0  0  0  0  0  0  0  0  0
  146.9711  140.3184  154.2387 C   0  0  1  0  0  0  0  0  0  0  0  0
  146.0073  139.5302  153.5648 O   0  0  0  0  0  0  0  0  0  0  0  0
  148.3525  139.6690  154.2988 C   0  0  1  0  0  0  0  0  0  0  0  0
  148.6019  138.8334  153.1831 O   0  0  0  0  0  0  0  0  0  0  0  0
  150.0894  140.8250  153.5500 H   0  0  0  0  0  0  0  0  0  0  0  0
  147.3438  141.4857  152.4609 H   0  0  0  0  0  0  0  0  0  0  0  0
  146.6169  140.5048  155.2528 H   0  0  0  0  0  0  0  0  0  0  0  0
  148.4823  139.0818  155.2092 H   0  0  0  0  0  0  0  0  0  0  0  0
  152.3624  141.3938  159.7257 H   0  0  0  0  0  0  0  0  0  0  0  0
  153.6955  140.2618  159.6484 H   0  0  0  0  0  0  0  0  0  0  0  0
  148.7939  142.5518  156.5905 H   0  0  0  0  0  0  0  0  0  0  0  0
  146.3876  143.6193  153.2401 H   0  0  0  0  0  0  0  0  0  0  0  0
  145.1926  142.3901  153.6193 H   0  0  0  0  0  0  0  0  0  0  0  0
  147.1884  143.3861  155.3762 H   0  0  0  0  0  0  0  0  0  0  0  0
  145.3665  140.1078  153.1790 H   0  0  0  0  0  0  0  0  0  0  0  0
  149.1939  139.2838  152.5999 H   0  0  0  0  0  0  0  0  0  0  0  0
  1  2  1  0  0  0  0
  1 25  1  0  0  0  0
  1 26  1  0  0  0  0
  2  8  1  0  0  0  0
  2  3  2  0  0  0  0
  3  4  1  0  0  0  0
  4  5  1  0  0  0  0
  4  6  2  0  0  0  0
  6  7  1  0  0  0  0
  7 11  1  0  0  0  0
  7  8  2  0  0  0  0
  8  9  1  0  0  0  0
  9 10  2  0  0  0  0
 10 11  1  0  0  0  0
 10 27  1  0  0  0  0
 11 12  1  0  0  0  0
 12 21  1  0  0  0  0
 12 19  1  0  0  0  0
 12 13  1  0  0  0  0
 13 14  1  0  0  0  0
 14 22  1  0  0  0  0
 14 15  1  0  0  0  0
 14 17  1  0  0  0  0
 15 16  1  0  0  0  0
 15 28  1  0  0  0  0
 15 29  1  0  0  0  0
 16 30  1  0  0  0  0
 17 23  1  0  0  0  0
 17 18  1  0  0  0  0
 17 19  1  0  0  0  0
 18 31  1  0  0  0  0
 19 24  1  0  0  0  0
 19 20  1  0  0  0  0
 20 32  1  0  0  0  0
M  END
> <s_m_source_file>
AV-unprocessed.smi

> <i_m_source_file_index>
114

> <i_lp_mmshare_version>
43012

> <i_f3d_flags>
0

> <s_epik_input>
RmMobjEpbmMoW05IMl0pYyhjMTIpbltjSF1uMltDQEBIXTNPW0NASF0oW0NIMl1bT0hdKVtDQEBIXShbT0hdKVtDQEBIXTNbT0hd

> <s_epik_cmdline>
J2VwaWtfcHl0aG9uJywgJy1waCcsICc3LjAnLCAnLXRuJywgJzgnLCAnLW1hJywgJzIwMCcsICctbWV0YWxfYmluZGluZycsICctaW1hZScsICc8aW5maWxlLm1hZT4nLCAnLW9tYWUnLCAnPG91dGZpbGUubWFlPic=

> <r_lp_tautomer_probability>
1

> <r_epik_Ionization_Penalty>
1.13199e-05

> <r_epik_Ionization_Penalty_Charging>
0

> <r_epik_Ionization_Penalty_Neutral>
1.13199e-05

> <r_epik_State_Penalty>
-0

> <r_epik_Charging_Adjusted_Penalty>
0

> <i_epik_Tot_Q>
0

> <i_epik_Tot_abs_Q>
0

> <r_epik_Metal_State_Penalty>
-0

> <b_epik_Metal_Only>
0

> <s_epik_Chemistry_Notes>
This compound contains an acetal/aminal-like group ( X-CH(R)-Y where X, Y are N, S, or O) that may be acid/base labile, releasing an aldehyde.

> <s_lp_Force_Field>
OPLS_2005

> <r_lp_Energy>
39.1628

> <b_lp_Chiralities_Consistent>
1

> <s_lp_Variant>
AV-unprocessed.smi:114-9

> <Gold.Version>
5.8.1

> <Gold.Id.Protein>
6NUR|6NUR_protein|mol2

> <Gold.PLP.Fitness>
41.6050

> <Gold.PLP.PLP>
-28.8839

> <Gold.PLP.part.hbond>
-6.0000

> <Gold.PLP.part.metal>
0.0000

> <Gold.PLP.part.buried>
1.7705

> <Gold.PLP.part.nonpolar>
-23.4695

> <Gold.PLP.part.repulsive>
0.3591

> <Gold.PLP.ligand.clash>
0.0000

> <Gold.PLP.ligand.torsion>
0.6363

> <Gold.PLP.Chemscore.Hbond>
3.7082

> <Gold.PLP.Chemscore.CHOScore>
0.9521

> <Gold.PLP.Chemscore.Metal>
0.0000

> <Gold.Chemscore.Hbonds>
donor molecule, donor type, donor heavy atom, donor atom, acceptor molecule, acceptor atom, score
      L1  H    16    30       P1  8028  0.38
      L1  H    18    31       P1 10175  1.00
      L1  H    20    32       P1  7957  1.00
      P1  H  7989  7998       L1     6  0.03
      P1  H  7997  8008       L1     3  0.90
      P1  H  8011  8017       L1    13  0.08
      L1  C    10    27       P1  8028  0.88

> <Gold.PLP.Chemscore.Internal.Correction>
0.0128

> <Gold.Rescore>
     Score         DG    S(hbond)    S(metal)    S(lipo)     H(rot)  DE(clash)    DE(int)     intcor
      4.35      -5.19       1.98        0.00      29.02       4.03       0.62       0.22       ----

> <Gold.Chemscore.Fitness>
4.3542

> <Gold.Chemscore.DG>
-5.1907

> <Gold.Chemscore.ZeroCoef>
-5.4800

> <Gold.Chemscore.Hbond>
1.9839

> <Gold.Chemscore.Metal>
0.0000

> <Gold.Chemscore.Lipo>
29.0216

> <Gold.Chemscore.Internal_Hbond>
0.0000

> <Gold.Chemscore.DEClash>
0.6199

> <Gold.Chemscore.DEInternal>
0.2165

> <Gold.Chemscore.Rot>
4.0277

> <Gold.Chemscore.Internal.Correction>
   9.000000E+99

> <Gold.Chemscore.Hbonds>
donor molecule, donor type, donor heavy atom, donor atom, acceptor molecule, acceptor atom, score
      L1  H    16    30       P1  8028  0.02
      L1  H    18    31       P1 10175  0.97
      L1  H    20    32       P1  7957  0.97
      P1  H  7997  8008       L1     3  0.09

> <Gold.Chemscore.Hbond.Weighted>
-6.6261

> <Gold.Chemscore.Metal.Weighted>
-0.0000

> <Gold.Chemscore.Lipo.Weighted>
-3.3955

> <Gold.Chemscore.Internal_Hbond.Weighted>
0.0000

> <Gold.Chemscore.DEClash.Weighted>
0.6199

> <Gold.Chemscore.DEInternal.Weighted>
0.2165

> <Gold.Chemscore.Rot.Weighted>
10.3110

> <Gold.Chemscore.Internal.Correction.Weighted>
   9.000000E+99

> <Gold.Protein.RotatedTorsions>
[ 6907 6896 6895 6894 ] final  157.46 input  -60.11 | X-H torsion
[ 7974 7965 7964 7962 ] final  159.72 input  175.53 | X-H torsion
[ 8008 7997 7996 7995 ] final  -85.01 input   59.86 | X-H torsion
[ 10167 10162 10161 10158 ] final   67.80 input  -65.29 | X-H torsion
[ 10718 10713 10712 10709 ] final  155.81 input   66.30 | X-H torsion
[ 10763 10752 10751 10750 ] final  130.95 input  -60.55 | X-H torsion
[ 11005 11000 10999 10996 ] final   79.14 input  -57.11 | X-H torsion

> <Gold.Protein.ActiveResidues>
 VAL166  LYS551  ARG553  GLY616  TRP617  ASP618  TYR619  PRO620  LYS621  CYS622 
 ASP623  PHE694  ASN695  SER759  ASP760  ASP761  ALA762  ILE779  LEU786  VAL792 
 PHE793  MET794  SER795  GLU796  ALA797  LYS798  CYS799  TRP800  GLU811  SER814 

> <Gold.Protein.RotatedAtoms>
  152.0148  133.3875  159.4233 H   0  0  0  0  0  0  0  0  0  0  0  0  # atno 6907 bound_to 6896
  150.6896  134.3691  159.4993 H   0  0  0  0  0  0  0  0  0  0  0  0  # atno 6908 bound_to 6896
  152.1456  134.9028  160.0602 H   0  0  0  0  0  0  0  0  0  0  0  0  # atno 6909 bound_to 6896
  144.7775  139.7657  143.6273 H   0  0  0  0  0  0  0  0  0  0  0  0  # atno 7974 bound_to 7965
  154.6360  140.0597  156.9789 H   0  0  0  0  0  0  0  0  0  0  0  0  # atno 8008 bound_to 7997
  155.1591  140.3281  155.4396 H   0  0  0  0  0  0  0  0  0  0  0  0  # atno 8009 bound_to 7997
  156.2507  140.1934  156.6699 H   0  0  0  0  0  0  0  0  0  0  0  0  # atno 8010 bound_to 7997
  140.0856  144.5033  150.7133 H   0  0  0  0  0  0  0  0  0  0  0  0  # atno 10167 bound_to 10162
  157.2134  131.0702  151.1956 H   0  0  0  0  0  0  0  0  0  0  0  0  # atno 10718 bound_to 10713
  153.7663  135.3188  155.3345 H   0  0  0  0  0  0  0  0  0  0  0  0  # atno 10763 bound_to 10752
  154.8212  135.4602  154.0788 H   0  0  0  0  0  0  0  0  0  0  0  0  # atno 10764 bound_to 10752
  153.2034  135.6925  153.8287 H   0  0  0  0  0  0  0  0  0  0  0  0  # atno 10765 bound_to 10752
  139.9184  134.7819  156.1740 H   0  0  0  0  0  0  0  0  0  0  0  0  # atno 11005 bound_to 11000
  146.1963  139.5232  142.9772 LP  0  0  0  0  0  0  0  0  0  0  0  0  # atno 17320 bound_to 7965
  145.6144  141.0334  143.1949 LP  0  0  0  0  0  0  0  0  0  0  0  0  # atno 17321 bound_to 7965
  140.7055  143.2465  151.4739 LP  0  0  0  0  0  0  0  0  0  0  0  0  # atno 17342 bound_to 10162
  139.5754  144.1831  152.1896 LP  0  0  0  0  0  0  0  0  0  0  0  0  # atno 17343 bound_to 10162
  157.3649  130.7151  149.6526 LP  0  0  0  0  0  0  0  0  0  0  0  0  # atno 17370 bound_to 10713
  155.9688  130.4215  150.4472 LP  0  0  0  0  0  0  0  0  0  0  0  0  # atno 17371 bound_to 10713
  141.0683  133.6809  156.2089 LP  0  0  0  0  0  0  0  0  0  0  0  0  # atno 17394 bound_to 11000
  140.6549  134.5028  157.5580 LP  0  0  0  0  0  0  0  0  0  0  0  0  # atno 17395 bound_to 11000

$$$$
