AV-unprocessed.smi:1268|AV-procd|sdf|5323|dock3
  -GOLD-   22720 4443D 1   1.00000     0.00000
 Structure written by MMmdl.
 40 41  0  0  0  0  0  0  0  0  2 V2000
  144.2726  136.1687  151.8822 O   0  0  0  0  0  0  0  0  0  0  0  0
  145.5020  136.1559  151.8184 C   0  0  0  0  0  0  0  0  0  0  0  0
  146.2745  137.1442  152.2917 N   0  0  0  0  0  0  0  0  0  0  0  0
  145.7822  138.3696  152.9126 C   0  0  0  0  0  0  0  0  0  0  0  0
  146.9212  139.3626  153.2275 C   0  0  2  0  0  0  0  0  0  0  0  0
  147.2338  140.0736  152.0455 O   0  0  0  0  0  0  0  0  0  0  0  0
  148.2063  138.6284  153.6641 C   0  0  0  0  0  0  0  0  0  0  0  0
  149.2568  139.5531  154.1641 N   0  3  0  0  0  0  0  0  0  0  0  0
  150.3698  138.8289  154.8321 C   0  0  0  0  0  0  0  0  0  0  0  0
  151.5094  139.7873  155.2170 C   0  0  0  0  0  0  0  0  0  0  0  0
  150.9927  140.9269  156.1041 C   0  0  0  0  0  0  0  0  0  0  0  0
  149.8290  141.6425  155.4069 C   0  0  0  0  0  0  0  0  0  0  0  0
  148.7224  140.6469  155.0196 C   0  0  0  0  0  0  0  0  0  0  0  0
  146.2432  135.1734  151.2773 N   0  0  0  0  0  0  0  0  0  0  0  0
  145.7959  133.9710  150.6690 C   0  0  0  0  0  0  0  0  0  0  0  0
  146.6038  132.9835  150.2655 N   0  0  0  0  0  0  0  0  0  0  0  0
  145.8920  131.9198  149.7051 C   0  0  0  0  0  0  0  0  0  0  0  0
  144.5338  132.1171  149.6870 C   0  0  0  0  0  0  0  0  0  0  0  0
  144.0918  133.6556  150.3780 S   0  0  0  0  0  0  0  0  0  0  0  0
  147.2754  137.0520  152.1968 H   0  0  0  0  0  0  0  0  0  0  0  0
  145.1025  138.8147  152.1854 H   0  0  0  0  0  0  0  0  0  0  0  0
  145.1763  138.1541  153.7951 H   0  0  0  0  0  0  0  0  0  0  0  0
  146.5966  140.0611  153.9985 H   0  0  0  0  0  0  0  0  0  0  0  0
  148.0517  139.7429  151.7030 H   0  0  0  0  0  0  0  0  0  0  0  0
  147.9846  137.8901  154.4363 H   0  0  0  0  0  0  0  0  0  0  0  0
  148.5869  138.0656  152.8099 H   0  0  0  0  0  0  0  0  0  0  0  0
  149.9919  138.3170  155.7185 H   0  0  0  0  0  0  0  0  0  0  0  0
  150.7628  138.0607  154.1647 H   0  0  0  0  0  0  0  0  0  0  0  0
  152.2978  139.2407  155.7349 H   0  0  0  0  0  0  0  0  0  0  0  0
  151.9613  140.2009  154.3143 H   0  0  0  0  0  0  0  0  0  0  0  0
  150.6596  140.5274  157.0629 H   0  0  0  0  0  0  0  0  0  0  0  0
  151.7958  141.6319  156.3204 H   0  0  0  0  0  0  0  0  0  0  0  0
  149.4235  142.4160  156.0597 H   0  0  0  0  0  0  0  0  0  0  0  0
  150.1936  142.1515  154.5134 H   0  0  0  0  0  0  0  0  0  0  0  0
  147.9323  141.1865  154.4992 H   0  0  0  0  0  0  0  0  0  0  0  0
  148.2731  140.2208  155.9181 H   0  0  0  0  0  0  0  0  0  0  0  0
  147.2437  135.3044  151.2913 H   0  0  0  0  0  0  0  0  0  0  0  0
  146.4339  131.0585  149.3431 H   0  0  0  0  0  0  0  0  0  0  0  0
  143.7699  131.4531  149.3110 H   0  0  0  0  0  0  0  0  0  0  0  0
  149.6575  139.9869  153.3441 H   0  0  0  0  0  0  0  0  0  0  0  0
  1  2  2  0  0  0  0
  2  3  1  0  0  0  0
  2 14  1  0  0  0  0
  3  4  1  0  0  0  0
  3 20  1  0  0  0  0
  4  5  1  0  0  0  0
  4 21  1  0  0  0  0
  4 22  1  0  0  0  0
  5  6  1  0  0  0  0
  5  7  1  0  0  0  0
  5 23  1  0  0  0  0
  6 24  1  0  0  0  0
  7  8  1  0  0  0  0
  7 25  1  0  0  0  0
  7 26  1  0  0  0  0
  8 13  1  0  0  0  0
  8  9  1  0  0  0  0
  8 40  1  0  0  0  0
  9 10  1  0  0  0  0
  9 27  1  0  0  0  0
  9 28  1  0  0  0  0
 10 11  1  0  0  0  0
 10 29  1  0  0  0  0
 10 30  1  0  0  0  0
 11 12  1  0  0  0  0
 11 31  1  0  0  0  0
 11 32  1  0  0  0  0
 12 13  1  0  0  0  0
 12 33  1  0  0  0  0
 12 34  1  0  0  0  0
 13 35  1  0  0  0  0
 13 36  1  0  0  0  0
 14 15  1  0  0  0  0
 14 37  1  0  0  0  0
 15 19  1  0  0  0  0
 15 16  2  0  0  0  0
 16 17  1  0  0  0  0
 17 18  2  0  0  0  0
 17 38  1  0  0  0  0
 18 19  1  0  0  0  0
 18 39  1  0  0  0  0
M  CHG  1   8   1
M  END
> <s_m_source_file>
AV-unprocessed.smi

> <i_m_source_file_index>
1268

> <i_lp_mmshare_version>
43012

> <i_f3d_flags>
0

> <s_epik_input>
czFbY0hdW2NIXW5jMVtOSF1DKD1PKVtOSF1bQ0gyXVtDQEhdKFtPSF0pW0NIMl1OMltDSDJdW0NIMl1bQ0gyXVtDSDJdW0NIMl0y

> <s_epik_cmdline>
J2VwaWtfcHl0aG9uJywgJy1waCcsICc3LjAnLCAnLXRuJywgJzgnLCAnLW1hJywgJzIwMCcsICctbWV0YWxfYmluZGluZycsICctaW1hZScsICc8aW5maWxlLm1hZT4nLCAnLW9tYWUnLCAnPG91dGZpbGUubWFlPic=

> <r_lp_tautomer_probability>
0.999

> <r_epik_Ionization_Penalty>
0.00539631

> <r_epik_Ionization_Penalty_Charging>
0.00525788

> <r_epik_Ionization_Penalty_Neutral>
0.000138432

> <r_epik_State_Penalty>
0.0038355

> <r_epik_Charging_Adjusted_Penalty>
0.00909338

> <i_epik_Tot_Q>
1

> <i_epik_Tot_abs_Q>
1

> <r_epik_Metal_State_Penalty>
0.0500806

> <b_epik_Metal_Only>
0

> <s_lp_Force_Field>
OPLS_2005

> <r_lp_Energy>
16.7111

> <b_lp_Chiralities_Consistent>
1

> <s_lp_Variant>
AV-unprocessed.smi:1268-1

> <Gold.Version>
5.8.1

> <Gold.Id.Protein>
6NUR|6NUR_protein|mol2

> <Gold.PLP.Fitness>
45.1238

> <Gold.PLP.PLP>
-32.9325

> <Gold.PLP.part.hbond>
-3.9999

> <Gold.PLP.part.metal>
0.0000

> <Gold.PLP.part.buried>
1.0680

> <Gold.PLP.part.nonpolar>
-30.7278

> <Gold.PLP.part.repulsive>
0.6303

> <Gold.PLP.ligand.clash>
0.0000

> <Gold.PLP.ligand.torsion>
0.4289

> <Gold.PLP.Chemscore.Hbond>
3.7626

> <Gold.PLP.Chemscore.CHOScore>
0.5779

> <Gold.PLP.Chemscore.Metal>
0.0000

> <Gold.Chemscore.Hbonds>
donor molecule, donor type, donor heavy atom, donor atom, acceptor molecule, acceptor atom, score
      L1  H     3    20       P1  7948  1.00
      L1  H     6    24       P1  7957  0.99
      L1  H     8    40       P1  7957  0.55
      L1  H    14    37       P1  7948  1.00
      L1  C    17    38       P1 10747  0.43

> <Gold.PLP.Chemscore.Internal.Correction>
0.0274

> <Gold.Rescore>
     Score         DG    S(hbond)    S(metal)    S(lipo)     H(rot)  DE(clash)    DE(int)     intcor
     15.97     -19.22       3.19        0.00      81.90       2.54       1.62       1.62       ----

> <Gold.Chemscore.Fitness>
15.9737

> <Gold.Chemscore.DG>
-19.2164

> <Gold.Chemscore.ZeroCoef>
-5.4800

> <Gold.Chemscore.Hbond>
3.1892

> <Gold.Chemscore.Metal>
0.0000

> <Gold.Chemscore.Lipo>
81.9019

> <Gold.Chemscore.Internal_Hbond>
0.0000

> <Gold.Chemscore.DEClash>
1.6210

> <Gold.Chemscore.DEInternal>
1.6217

> <Gold.Chemscore.Rot>
2.5383

> <Gold.Chemscore.Internal.Correction>
   9.000000E+99

> <Gold.Chemscore.Hbonds>
donor molecule, donor type, donor heavy atom, donor atom, acceptor molecule, acceptor atom, score
      L1  H     3    20       P1  7948  0.99
      L1  H     6    24       P1  7957  0.93
      L1  H     8    40       P1  7957  0.55
      L1  H    14    37       P1  7948  0.79

> <Gold.Chemscore.Hbond.Weighted>
-10.6520

> <Gold.Chemscore.Metal.Weighted>
-0.0000

> <Gold.Chemscore.Lipo.Weighted>
-9.5825

> <Gold.Chemscore.Internal_Hbond.Weighted>
0.0000

> <Gold.Chemscore.DEClash.Weighted>
1.6210

> <Gold.Chemscore.DEInternal.Weighted>
1.6217

> <Gold.Chemscore.Rot.Weighted>
6.4981

> <Gold.Chemscore.Internal.Correction.Weighted>
   9.000000E+99

> <Gold.Protein.RotatedTorsions>
[ 6907 6896 6895 6894 ] final -126.36 input  -60.11 | X-H torsion
[ 7974 7965 7964 7962 ] final  -14.09 input  175.53 | X-H torsion
[ 8008 7997 7996 7995 ] final   63.04 input   59.86 | X-H torsion
[ 10167 10162 10161 10158 ] final    2.02 input  -65.29 | X-H torsion
[ 10718 10713 10712 10709 ] final -179.22 input   66.30 | X-H torsion
[ 10763 10752 10751 10750 ] final -100.97 input  -60.55 | X-H torsion
[ 11005 11000 10999 10996 ] final  -73.77 input  -57.11 | X-H torsion

> <Gold.Protein.ActiveResidues>
 VAL166  LYS551  ARG553  GLY616  TRP617  ASP618  TYR619  PRO620  LYS621  CYS622 
 ASP623  PHE694  ASN695  SER759  ASP760  ASP761  ALA762  ILE779  LEU786  VAL792 
 PHE793  MET794  SER795  GLU796  ALA797  LYS798  CYS799  TRP800  GLU811  SER814 

> <Gold.Protein.RotatedAtoms>
  150.8961  133.7179  159.2891 H   0  0  0  0  0  0  0  0  0  0  0  0  # atno 6907 bound_to 6896
  151.4712  135.1044  159.9761 H   0  0  0  0  0  0  0  0  0  0  0  0  # atno 6908 bound_to 6896
  152.4849  133.8301  159.7154 H   0  0  0  0  0  0  0  0  0  0  0  0  # atno 6909 bound_to 6896
  146.2088  140.3298  142.8398 H   0  0  0  0  0  0  0  0  0  0  0  0  # atno 7974 bound_to 7965
  155.6240  140.3496  155.4661 H   0  0  0  0  0  0  0  0  0  0  0  0  # atno 8008 bound_to 7997
  156.0057  140.1222  157.0528 H   0  0  0  0  0  0  0  0  0  0  0  0  # atno 8009 bound_to 7997
  154.4263  140.1091  156.5745 H   0  0  0  0  0  0  0  0  0  0  0  0  # atno 8010 bound_to 7997
  140.6655  143.7191  150.7819 H   0  0  0  0  0  0  0  0  0  0  0  0  # atno 10167 bound_to 10162
  156.8559  130.9735  151.3088 H   0  0  0  0  0  0  0  0  0  0  0  0  # atno 10718 bound_to 10713
  154.7621  135.4915  153.9484 H   0  0  0  0  0  0  0  0  0  0  0  0  # atno 10763 bound_to 10752
  153.1264  135.6743  153.9258 H   0  0  0  0  0  0  0  0  0  0  0  0  # atno 10764 bound_to 10752
  153.8975  135.3113  155.3427 H   0  0  0  0  0  0  0  0  0  0  0  0  # atno 10765 bound_to 10752
  141.1627  133.6889  156.7262 H   0  0  0  0  0  0  0  0  0  0  0  0  # atno 11005 bound_to 11000
  144.8861  140.7463  143.5956 LP  0  0  0  0  0  0  0  0  0  0  0  0  # atno 17320 bound_to 7965
  145.3219  139.1786  143.4583 LP  0  0  0  0  0  0  0  0  0  0  0  0  # atno 17321 bound_to 7965
  140.0867  143.4916  152.2501 LP  0  0  0  0  0  0  0  0  0  0  0  0  # atno 17342 bound_to 10162
  139.5902  144.7547  151.3419 LP  0  0  0  0  0  0  0  0  0  0  0  0  # atno 17343 bound_to 10162
  157.6277  130.8705  149.9219 LP  0  0  0  0  0  0  0  0  0  0  0  0  # atno 17370 bound_to 10713
  156.0803  130.3674  150.0594 LP  0  0  0  0  0  0  0  0  0  0  0  0  # atno 17371 bound_to 10713
  140.2779  134.8340  157.3907 LP  0  0  0  0  0  0  0  0  0  0  0  0  # atno 17394 bound_to 11000
  140.1460  134.4910  155.7996 LP  0  0  0  0  0  0  0  0  0  0  0  0  # atno 17395 bound_to 11000

$$$$
