AV-unprocessed.smi:1672|AV-procd|sdf|6706|dock6
  -GOLD-   22720 7443D 1   1.00000     0.00000
 Structure written by MMmdl.
 49 51  0  0  0  0  0  0  0  0  3 V2000
  155.1470  138.8450  162.0798 C   0  0  0  0  0  0  0  0  0  0  0  0
  154.6988  139.5956  160.8177 C   0  0  2  0  0  0  0  0  0  0  0  0
  154.1359  140.9871  161.1525 C   0  0  0  0  0  0  0  0  0  0  0  0
  153.6573  141.7168  159.8859 C   0  0  0  0  0  0  0  0  0  0  0  0
  152.6455  140.9123  159.1540 N   0  3  1  0  0  0  0  0  0  0  0  0
  152.0555  141.6521  158.0085 C   0  0  0  0  0  0  0  0  0  0  0  0
  151.0341  140.8083  157.2203 C   0  0  1  0  0  0  0  0  0  0  0  0
  149.7730  140.9264  157.8478 O   0  0  0  0  0  0  0  0  0  0  0  0
  150.9185  141.2750  155.7553 C   0  0  0  0  0  0  0  0  0  0  0  0
  150.2035  140.3146  154.8980 N   0  0  0  0  0  0  0  0  0  0  0  0
  150.5640  139.0746  154.4516 C   0  0  0  0  0  0  0  0  0  0  0  0
  151.8391  138.3463  154.7261 C   0  0  0  0  0  0  0  0  0  0  0  0
  151.9242  137.1290  154.0196 O   0  0  0  0  0  0  0  0  0  0  0  0
  149.5385  138.6089  153.6840 N   0  3  0  0  0  0  0  0  0  0  0  0
  148.5101  139.5505  153.6446 C   0  0  0  0  0  0  0  0  0  0  0  0
  147.2760  139.5261  153.0026 C   0  0  0  0  0  0  0  0  0  0  0  0
  146.4528  140.6588  153.1708 C   0  0  0  0  0  0  0  0  0  0  0  0
  146.8664  141.7577  153.9517 C   0  0  0  0  0  0  0  0  0  0  0  0
  148.1207  141.7713  154.5970 C   0  0  0  0  0  0  0  0  0  0  0  0
  148.9287  140.6475  154.4251 C   0  0  0  0  0  0  0  0  0  0  0  0
  153.1801  139.5755  158.7814 C   0  0  0  0  0  0  0  0  0  0  0  0
  153.6471  138.8006  160.0251 C   0  0  0  0  0  0  0  0  0  0  0  0
  154.3127  138.6804  162.7627 H   0  0  0  0  0  0  0  0  0  0  0  0
  155.9116  139.4056  162.6185 H   0  0  0  0  0  0  0  0  0  0  0  0
  155.5684  137.8709  161.8293 H   0  0  0  0  0  0  0  0  0  0  0  0
  155.5754  139.7278  160.1815 H   0  0  0  0  0  0  0  0  0  0  0  0
  153.3049  140.8924  161.8532 H   0  0  0  0  0  0  0  0  0  0  0  0
  154.8959  141.5866  161.6551 H   0  0  0  0  0  0  0  0  0  0  0  0
  153.2286  142.6783  160.1715 H   0  0  0  0  0  0  0  0  0  0  0  0
  154.5023  141.9283  159.2286 H   0  0  0  0  0  0  0  0  0  0  0  0
  151.5513  142.5501  158.3696 H   0  0  0  0  0  0  0  0  0  0  0  0
  152.8560  141.9977  157.3526 H   0  0  0  0  0  0  0  0  0  0  0  0
  151.3193  139.7572  157.2316 H   0  0  0  0  0  0  0  0  0  0  0  0
  149.5530  141.8437  157.9148 H   0  0  0  0  0  0  0  0  0  0  0  0
  150.3953  142.2299  155.7022 H   0  0  0  0  0  0  0  0  0  0  0  0
  151.9056  141.4468  155.3244 H   0  0  0  0  0  0  0  0  0  0  0  0
  152.6898  138.9756  154.4660 H   0  0  0  0  0  0  0  0  0  0  0  0
  151.9130  138.1394  155.7940 H   0  0  0  0  0  0  0  0  0  0  0  0
  151.3510  137.1756  153.2691 H   0  0  0  0  0  0  0  0  0  0  0  0
  146.9561  138.6850  152.4048 H   0  0  0  0  0  0  0  0  0  0  0  0
  145.4843  140.6844  152.6924 H   0  0  0  0  0  0  0  0  0  0  0  0
  146.2075  142.6076  154.0580 H   0  0  0  0  0  0  0  0  0  0  0  0
  148.4263  142.6179  155.1935 H   0  0  0  0  0  0  0  0  0  0  0  0
  152.4191  138.9894  158.2679 H   0  0  0  0  0  0  0  0  0  0  0  0
  154.0090  139.6954  158.0819 H   0  0  0  0  0  0  0  0  0  0  0  0
  154.0577  137.8365  159.7232 H   0  0  0  0  0  0  0  0  0  0  0  0
  152.7878  138.5842  160.6618 H   0  0  0  0  0  0  0  0  0  0  0  0
  151.8886  140.7583  159.8056 H   0  0  0  0  0  0  0  0  0  0  0  0
  149.5453  137.7088  153.2210 H   0  0  0  0  0  0  0  0  0  0  0  0
  1  2  1  0  0  0  0
  1 23  1  0  0  0  0
  1 24  1  0  0  0  0
  1 25  1  0  0  0  0
  2 22  1  0  0  0  0
  2  3  1  0  0  0  0
  2 26  1  0  0  0  0
  3  4  1  0  0  0  0
  3 27  1  0  0  0  0
  3 28  1  0  0  0  0
  4  5  1  0  0  0  0
  4 29  1  0  0  0  0
  4 30  1  0  0  0  0
  5  6  1  0  0  0  0
  5 21  1  0  0  0  0
  5 48  1  0  0  0  0
  6  7  1  0  0  0  0
  6 31  1  0  0  0  0
  6 32  1  0  0  0  0
  7  8  1  0  0  0  0
  7  9  1  0  0  0  0
  7 33  1  0  0  0  0
  8 34  1  0  0  0  0
  9 10  1  0  0  0  0
  9 35  1  0  0  0  0
  9 36  1  0  0  0  0
 10 20  1  0  0  0  0
 10 11  1  0  0  0  0
 11 12  1  0  0  0  0
 11 14  2  0  0  0  0
 12 13  1  0  0  0  0
 12 37  1  0  0  0  0
 12 38  1  0  0  0  0
 13 39  1  0  0  0  0
 14 15  1  0  0  0  0
 14 49  1  0  0  0  0
 15 20  2  0  0  0  0
 15 16  1  0  0  0  0
 16 17  2  0  0  0  0
 16 40  1  0  0  0  0
 17 18  1  0  0  0  0
 17 41  1  0  0  0  0
 18 19  2  0  0  0  0
 18 42  1  0  0  0  0
 19 20  1  0  0  0  0
 19 43  1  0  0  0  0
 21 22  1  0  0  0  0
 21 44  1  0  0  0  0
 21 45  1  0  0  0  0
 22 46  1  0  0  0  0
 22 47  1  0  0  0  0
M  CHG  1   5   1
M  CHG  1  14   1
M  END
> <s_m_source_file>
AV-unprocessed.smi

> <i_m_source_file_index>
1672

> <i_lp_mmshare_version>
43012

> <i_f3d_flags>
0

> <s_epik_input>
W0NIM11bQ0hdMVtDSDJdW0NIMl1OKFtDSDJdW0NIMl0xKVtDSDJdW0NASF0oW09IXSlbQ0gyXW4oYyhuMilbQ0gyXVtPSF0pYyhjMjMpW2NIXVtjSF1bY0hdW2NIXTM=

> <s_epik_cmdline>
J2VwaWtfcHl0aG9uJywgJy1waCcsICc3LjAnLCAnLXRuJywgJzgnLCAnLW1hJywgJzIwMCcsICctbWV0YWxfYmluZGluZycsICctaW1hZScsICc8aW5maWxlLm1hZT4nLCAnLW9tYWUnLCAnPG91dGZpbGUubWFlPic=

> <r_epik_Ionization_Penalty>
1.51642

> <r_epik_Ionization_Penalty_Charging>
1.51557

> <r_epik_Ionization_Penalty_Neutral>
0.000856474

> <r_epik_State_Penalty>
1.6048

> <r_epik_Charging_Adjusted_Penalty>
3.12037

> <i_epik_Tot_Q>
2

> <i_epik_Tot_abs_Q>
2

> <r_epik_Metal_State_Penalty>
5.65673

> <b_epik_Metal_Only>
0

> <s_lp_Force_Field>
OPLS_2005

> <r_lp_Energy>
28.534

> <b_lp_Chiralities_Consistent>
1

> <s_lp_Variant>
AV-unprocessed.smi:1672-6

> <Gold.Version>
5.8.1

> <Gold.Id.Protein>
6NUR|6NUR_protein|mol2

> <Gold.PLP.Fitness>
52.4716

> <Gold.PLP.PLP>
-42.9291

> <Gold.PLP.part.hbond>
-4.0000

> <Gold.PLP.part.metal>
0.0000

> <Gold.PLP.part.buried>
2.5934

> <Gold.PLP.part.nonpolar>
-41.8840

> <Gold.PLP.part.repulsive>
0.1944

> <Gold.PLP.ligand.clash>
0.0000

> <Gold.PLP.ligand.torsion>
0.5177

> <Gold.PLP.Chemscore.Hbond>
3.5148

> <Gold.PLP.Chemscore.CHOScore>
0.0000

> <Gold.PLP.Chemscore.Metal>
0.0000

> <Gold.Chemscore.Hbonds>
donor molecule, donor type, donor heavy atom, donor atom, acceptor molecule, acceptor atom, score
      L1  H    13    39       P1  7949  0.47
      L1  H    14    49       P1  7948  1.85
      P1  H 10752 10765       L1    13  1.00

> <Gold.PLP.Chemscore.Internal.Correction>
0.0336

> <Gold.Rescore>
     Score         DG    S(hbond)    S(metal)    S(lipo)     H(rot)  DE(clash)    DE(int)     intcor
     16.76     -18.72       2.29        0.00     112.55       2.96       1.49       0.47       ----

> <Gold.Chemscore.Fitness>
16.7650

> <Gold.Chemscore.DG>
-18.7206

> <Gold.Chemscore.ZeroCoef>
-5.4800

> <Gold.Chemscore.Hbond>
2.2870

> <Gold.Chemscore.Metal>
0.0000

> <Gold.Chemscore.Lipo>
112.5479

> <Gold.Chemscore.Internal_Hbond>
0.0000

> <Gold.Chemscore.DEClash>
1.4872

> <Gold.Chemscore.DEInternal>
0.4684

> <Gold.Chemscore.Rot>
2.9555

> <Gold.Chemscore.Internal.Correction>
   9.000000E+99

> <Gold.Chemscore.Hbonds>
donor molecule, donor type, donor heavy atom, donor atom, acceptor molecule, acceptor atom, score
      L1  H    13    39       P1  7949  0.35
      L1  H    14    49       P1  7948  0.77
      P1  H 10752 10765       L1    13  0.85

> <Gold.Chemscore.Hbond.Weighted>
-7.6385

> <Gold.Chemscore.Metal.Weighted>
-0.0000

> <Gold.Chemscore.Lipo.Weighted>
-13.1681

> <Gold.Chemscore.Internal_Hbond.Weighted>
0.0000

> <Gold.Chemscore.DEClash.Weighted>
1.4872

> <Gold.Chemscore.DEInternal.Weighted>
0.4684

> <Gold.Chemscore.Rot.Weighted>
7.5660

> <Gold.Chemscore.Internal.Correction.Weighted>
   9.000000E+99

> <Gold.Protein.RotatedTorsions>
[ 6907 6896 6895 6894 ] final -162.24 input  -60.11 | X-H torsion
[ 7974 7965 7964 7962 ] final  160.20 input  175.53 | X-H torsion
[ 8008 7997 7996 7995 ] final  -21.21 input   59.86 | X-H torsion
[ 10167 10162 10161 10158 ] final  -50.87 input  -65.29 | X-H torsion
[ 10718 10713 10712 10709 ] final -176.87 input   66.30 | X-H torsion
[ 10763 10752 10751 10750 ] final  144.29 input  -60.55 | X-H torsion
[ 11005 11000 10999 10996 ] final  -52.39 input  -57.11 | X-H torsion

> <Gold.Protein.ActiveResidues>
 VAL166  LYS551  ARG553  GLY616  TRP617  ASP618  TYR619  PRO620  LYS621  CYS622 
 ASP623  PHE694  ASN695  SER759  ASP760  ASP761  ALA762  ILE779  LEU786  VAL792 
 PHE793  MET794  SER795  GLU796  ALA797  LYS798  CYS799  TRP800  GLU811  SER814 

> <Gold.Protein.RotatedAtoms>
  151.3772  133.3834  159.2705 H   0  0  0  0  0  0  0  0  0  0  0  0  # atno 6907 bound_to 6896
  150.9605  134.8995  159.7738 H   0  0  0  0  0  0  0  0  0  0  0  0  # atno 6908 bound_to 6896
  152.5147  134.3731  159.9377 H   0  0  0  0  0  0  0  0  0  0  0  0  # atno 6909 bound_to 6896
  144.7749  139.7724  143.6282 H   0  0  0  0  0  0  0  0  0  0  0  0  # atno 7974 bound_to 7965
  154.4720  140.2041  155.9971 H   0  0  0  0  0  0  0  0  0  0  0  0  # atno 8008 bound_to 7997
  156.1027  140.3241  155.7934 H   0  0  0  0  0  0  0  0  0  0  0  0  # atno 8009 bound_to 7997
  155.4770  140.0535  157.2963 H   0  0  0  0  0  0  0  0  0  0  0  0  # atno 8010 bound_to 7997
  140.6616  143.2641  151.4421 H   0  0  0  0  0  0  0  0  0  0  0  0  # atno 10167 bound_to 10162
  156.8210  130.9620  151.3111 H   0  0  0  0  0  0  0  0  0  0  0  0  # atno 10718 bound_to 10713
  153.9864  135.2936  155.3416 H   0  0  0  0  0  0  0  0  0  0  0  0  # atno 10763 bound_to 10752
  154.7239  135.5097  153.8859 H   0  0  0  0  0  0  0  0  0  0  0  0  # atno 10764 bound_to 10752
  153.0830  135.6685  154.0122 H   0  0  0  0  0  0  0  0  0  0  0  0  # atno 10765 bound_to 10752
  141.0922  133.6631  156.4017 H   0  0  0  0  0  0  0  0  0  0  0  0  # atno 11005 bound_to 11000
  146.1922  139.5169  142.9798 LP  0  0  0  0  0  0  0  0  0  0  0  0  # atno 17320 bound_to 7965
  145.6214  141.0322  143.1912 LP  0  0  0  0  0  0  0  0  0  0  0  0  # atno 17321 bound_to 7965
  139.5852  144.1620  152.2020 LP  0  0  0  0  0  0  0  0  0  0  0  0  # atno 17342 bound_to 10162
  140.0957  144.5582  150.7023 LP  0  0  0  0  0  0  0  0  0  0  0  0  # atno 17343 bound_to 10162
  157.6456  130.8842  149.9533 LP  0  0  0  0  0  0  0  0  0  0  0  0  # atno 17370 bound_to 10713
  156.0988  130.3657  150.0256 LP  0  0  0  0  0  0  0  0  0  0  0  0  # atno 17371 bound_to 10713
  140.5226  134.6290  157.5323 LP  0  0  0  0  0  0  0  0  0  0  0  0  # atno 17394 bound_to 11000
  139.9750  134.7230  155.9967 LP  0  0  0  0  0  0  0  0  0  0  0  0  # atno 17395 bound_to 11000

$$$$
