AV-unprocessed.smi:3029|AV-procd|sdf|11532|dock7
  -GOLD-   2272016473D 1   1.00000     0.00000
 Structure written by MMmdl.
 41 42  0  0  0  0  0  0  0  0  3 V2000
  146.9426  140.8975  155.1078 O   0  0  0  0  0  0  0  0  0  0  0  0
  148.0394  140.3454  155.0200 C   0  0  0  0  0  0  0  0  0  0  0  0
  149.2455  140.9185  155.6266 C   0  0  0  0  0  0  0  0  0  0  0  0
  150.4461  140.3161  155.5221 C   0  0  0  0  0  0  0  0  0  0  0  0
  150.5816  139.0675  154.7976 C   0  0  0  0  0  0  0  0  0  0  0  0
  151.8665  138.4153  154.6727 N   0  3  0  0  0  0  0  0  0  0  0  0
  151.9256  137.3151  154.1317 O   0  0  0  0  0  0  0  0  0  0  0  0
  152.8603  138.9840  155.1128 O   0  5  0  0  0  0  0  0  0  0  0  0
  149.4717  138.5418  154.2436 C   0  0  0  0  0  0  0  0  0  0  0  0
  148.2138  139.1660  154.3491 N   0  0  0  0  0  0  0  0  0  0  0  0
  147.0890  138.4953  153.6785 C   0  0  0  0  0  0  0  0  0  0  0  0
  146.5486  137.3126  154.5030 C   0  0  0  0  0  0  0  0  0  0  0  0
  146.9862  136.0502  153.9248 N   0  0  0  0  0  0  0  0  0  0  0  0
  145.8782  135.1481  153.6353 C   0  0  1  0  0  0  0  0  0  0  0  0
  144.8789  135.8957  152.7219 C   0  0  0  0  0  0  0  0  0  0  0  0
  143.7379  134.9873  152.2497 C   0  0  0  0  0  0  0  0  0  0  0  0
  144.2939  133.7517  151.5358 C   0  0  0  0  0  0  0  0  0  0  0  0
  145.2517  132.9816  152.4538 C   0  0  0  0  0  0  0  0  0  0  0  0
  146.4238  133.8554  152.9608 C   0  0  2  0  0  0  0  0  0  0  0  0
  147.3417  133.0180  153.8905 C   0  0  0  0  0  0  0  0  0  0  0  0
  147.8982  132.0108  153.2167 F   0  0  0  0  0  0  0  0  0  0  0  0
  148.3125  133.7886  154.3817 F   0  0  0  0  0  0  0  0  0  0  0  0
  146.6704  132.5179  154.9277 F   0  0  0  0  0  0  0  0  0  0  0  0
  149.1671  141.8489  156.1696 H   0  0  0  0  0  0  0  0  0  0  0  0
  151.3060  140.7775  155.9855 H   0  0  0  0  0  0  0  0  0  0  0  0
  149.4647  137.6199  153.6796 H   0  0  0  0  0  0  0  0  0  0  0  0
  146.2875  139.2220  153.5380 H   0  0  0  0  0  0  0  0  0  0  0  0
  147.3441  138.1679  152.6691 H   0  0  0  0  0  0  0  0  0  0  0  0
  146.8855  137.3891  155.5377 H   0  0  0  0  0  0  0  0  0  0  0  0
  145.4596  137.3486  154.5159 H   0  0  0  0  0  0  0  0  0  0  0  0
  147.5468  136.2051  153.0987 H   0  0  0  0  0  0  0  0  0  0  0  0
  145.3809  134.8639  154.5638 H   0  0  0  0  0  0  0  0  0  0  0  0
  144.4528  136.7545  153.2404 H   0  0  0  0  0  0  0  0  0  0  0  0
  145.4000  136.2922  151.8489 H   0  0  0  0  0  0  0  0  0  0  0  0
  143.1328  134.6806  153.1037 H   0  0  0  0  0  0  0  0  0  0  0  0
  143.0759  135.5380  151.5809 H   0  0  0  0  0  0  0  0  0  0  0  0
  143.4748  133.1026  151.2244 H   0  0  0  0  0  0  0  0  0  0  0  0
  144.8155  134.0521  150.6261 H   0  0  0  0  0  0  0  0  0  0  0  0
  144.6925  132.5881  153.3036 H   0  0  0  0  0  0  0  0  0  0  0  0
  145.6353  132.1154  151.9145 H   0  0  0  0  0  0  0  0  0  0  0  0
  147.0108  134.1482  152.0884 H   0  0  0  0  0  0  0  0  0  0  0  0
  1  2  2  0  0  0  0
  2 10  1  0  0  0  0
  2  3  1  0  0  0  0
  3  4  2  0  0  0  0
  3 24  1  0  0  0  0
  4  5  1  0  0  0  0
  4 25  1  0  0  0  0
  5  6  1  0  0  0  0
  5  9  2  0  0  0  0
  6  7  2  0  0  0  0
  6  8  1  0  0  0  0
  9 10  1  0  0  0  0
  9 26  1  0  0  0  0
 10 11  1  0  0  0  0
 11 12  1  0  0  0  0
 11 27  1  0  0  0  0
 11 28  1  0  0  0  0
 12 13  1  0  0  0  0
 12 29  1  0  0  0  0
 12 30  1  0  0  0  0
 13 14  1  0  0  0  0
 13 31  1  0  0  0  0
 14 19  1  0  0  0  0
 14 15  1  0  0  0  0
 14 32  1  0  0  0  0
 15 16  1  0  0  0  0
 15 33  1  0  0  0  0
 15 34  1  0  0  0  0
 16 17  1  0  0  0  0
 16 35  1  0  0  0  0
 16 36  1  0  0  0  0
 17 18  1  0  0  0  0
 17 37  1  0  0  0  0
 17 38  1  0  0  0  0
 18 19  1  0  0  0  0
 18 39  1  0  0  0  0
 18 40  1  0  0  0  0
 19 20  1  0  0  0  0
 19 41  1  0  0  0  0
 20 21  1  0  0  0  0
 20 22  1  0  0  0  0
 20 23  1  0  0  0  0
M  CHG  1   6   1
M  CHG  1   8  -1
M  END
> <s_m_source_file>
AV-unprocessed.smi

> <i_m_source_file_index>
3029

> <i_lp_mmshare_version>
43012

> <i_f3d_flags>
0

> <s_epik_input>
Tz1jMVtjSF1bY0hdYyhbTitdKD1PKVtPLV0pW2NIXW4xW0NIMl1bQ0gyXVtOSF1bQ0BASF0yW0NIMl1bQ0gyXVtDSDJdW0NIMl1bQ0BIXTJDKEYpKEYpRg==

> <s_epik_cmdline>
J2VwaWtfcHl0aG9uJywgJy1waCcsICc3LjAnLCAnLXRuJywgJzgnLCAnLW1hJywgJzIwMCcsICctbWV0YWxfYmluZGluZycsICctaW1hZScsICc8aW5maWxlLm1hZT4nLCAnLW9tYWUnLCAnPG91dGZpbGUubWFlPic=

> <r_lp_tautomer_probability>
1

> <r_epik_Ionization_Penalty>
1.65565

> <r_epik_Ionization_Penalty_Charging>
3.32684e-10

> <r_epik_Ionization_Penalty_Neutral>
1.65565

> <r_epik_State_Penalty>
1.75811

> <r_epik_Charging_Adjusted_Penalty>
1.75811

> <i_epik_Tot_Q>
0

> <i_epik_Tot_abs_Q>
2

> <r_epik_Metal_State_Penalty>
1.75811

> <b_epik_Metal_Only>
0

> <s_lp_Force_Field>
OPLS_2005

> <r_lp_Energy>
36.7279

> <b_lp_Chiralities_Consistent>
1

> <s_lp_Variant>
AV-unprocessed.smi:3029-8

> <Gold.Version>
5.8.1

> <Gold.Id.Protein>
6NUR|6NUR_protein|mol2

> <Gold.PLP.Fitness>
48.3924

> <Gold.PLP.PLP>
-38.6486

> <Gold.PLP.part.hbond>
-2.8995

> <Gold.PLP.part.metal>
0.0000

> <Gold.PLP.part.buried>
-1.5661

> <Gold.PLP.part.nonpolar>
-34.1259

> <Gold.PLP.part.repulsive>
0.2754

> <Gold.PLP.ligand.clash>
0.0000

> <Gold.PLP.ligand.torsion>
1.0043

> <Gold.PLP.Chemscore.Hbond>
2.8960

> <Gold.PLP.Chemscore.CHOScore>
1.0000

> <Gold.PLP.Chemscore.Metal>
0.0000

> <Gold.Chemscore.Hbonds>
donor molecule, donor type, donor heavy atom, donor atom, acceptor molecule, acceptor atom, score
      L1  H    13    31       P1  7948  1.00
      P1  H  7997  8008       L1     8  0.73
      P1  H 10752 10764       L1     7  1.00
      L1  C     9    26       P1  7948  1.00

> <Gold.PLP.Chemscore.Internal.Correction>
0.0643

> <Gold.Rescore>
     Score         DG    S(hbond)    S(metal)    S(lipo)     H(rot)  DE(clash)    DE(int)     intcor
     14.83     -17.57       2.72        0.00      66.32       1.86       0.14       2.60       ----

> <Gold.Chemscore.Fitness>
14.8278

> <Gold.Chemscore.DG>
-17.5678

> <Gold.Chemscore.ZeroCoef>
-5.4800

> <Gold.Chemscore.Hbond>
2.7203

> <Gold.Chemscore.Metal>
0.0000

> <Gold.Chemscore.Lipo>
66.3196

> <Gold.Chemscore.Internal_Hbond>
0.0000

> <Gold.Chemscore.DEClash>
0.1358

> <Gold.Chemscore.DEInternal>
2.6042

> <Gold.Chemscore.Rot>
1.8584

> <Gold.Chemscore.Internal.Correction>
   9.000000E+99

> <Gold.Chemscore.Hbonds>
donor molecule, donor type, donor heavy atom, donor atom, acceptor molecule, acceptor atom, score
      L1  H    13    31       P1  7948  1.00
      P1  H  7997  8008       L1     8  0.73
      P1  H 10752 10764       L1     7  0.94

> <Gold.Chemscore.Hbond.Weighted>
-9.0860

> <Gold.Chemscore.Metal.Weighted>
-0.0000

> <Gold.Chemscore.Lipo.Weighted>
-7.7594

> <Gold.Chemscore.Internal_Hbond.Weighted>
0.0000

> <Gold.Chemscore.DEClash.Weighted>
0.1358

> <Gold.Chemscore.DEInternal.Weighted>
2.6042

> <Gold.Chemscore.Rot.Weighted>
4.7576

> <Gold.Chemscore.Internal.Correction.Weighted>
   9.000000E+99

> <Gold.Protein.RotatedTorsions>
[ 6907 6896 6895 6894 ] final   84.95 input  -60.11 | X-H torsion
[ 7974 7965 7964 7962 ] final  129.03 input  175.53 | X-H torsion
[ 8008 7997 7996 7995 ] final  -16.90 input   59.86 | X-H torsion
[ 10167 10162 10161 10158 ] final -154.90 input  -65.29 | X-H torsion
[ 10718 10713 10712 10709 ] final  -39.57 input   66.30 | X-H torsion
[ 10763 10752 10751 10750 ] final  -83.41 input  -60.55 | X-H torsion
[ 11005 11000 10999 10996 ] final -142.92 input  -57.11 | X-H torsion

> <Gold.Protein.ActiveResidues>
 VAL166  LYS551  ARG553  GLY616  TRP617  ASP618  TYR619  PRO620  LYS621  CYS622 
 ASP623  PHE694  ASN695  SER759  ASP760  ASP761  ALA762  ILE779  LEU786  VAL792 
 PHE793  MET794  SER795  GLU796  ALA797  LYS798  CYS799  TRP800  GLU811  SER814 

> <Gold.Protein.RotatedAtoms>
  152.5364  134.2662  159.8953 H   0  0  0  0  0  0  0  0  0  0  0  0  # atno 6907 bound_to 6896
  151.2620  133.4290  159.2624 H   0  0  0  0  0  0  0  0  0  0  0  0  # atno 6908 bound_to 6896
  151.0444  134.9644  159.8235 H   0  0  0  0  0  0  0  0  0  0  0  0  # atno 6909 bound_to 6896
  145.0331  139.4029  143.5140 H   0  0  0  0  0  0  0  0  0  0  0  0  # atno 7974 bound_to 7965
  154.5018  140.2157  155.9331 H   0  0  0  0  0  0  0  0  0  0  0  0  # atno 8008 bound_to 7997
  156.1444  140.3173  155.8513 H   0  0  0  0  0  0  0  0  0  0  0  0  # atno 8009 bound_to 7997
  155.4060  140.0487  157.3025 H   0  0  0  0  0  0  0  0  0  0  0  0  # atno 8010 bound_to 7997
  139.6975  143.9318  152.2414 H   0  0  0  0  0  0  0  0  0  0  0  0  # atno 10167 bound_to 10162
  156.2910  130.4228  149.8239 H   0  0  0  0  0  0  0  0  0  0  0  0  # atno 10718 bound_to 10713
  154.5873  135.5557  153.7244 H   0  0  0  0  0  0  0  0  0  0  0  0  # atno 10763 bound_to 10752
  153.0103  135.6335  154.1898 H   0  0  0  0  0  0  0  0  0  0  0  0  # atno 10764 bound_to 10752
  154.1839  135.2886  155.3023 H   0  0  0  0  0  0  0  0  0  0  0  0  # atno 10765 bound_to 10752
  140.8177  134.2668  157.4914 H   0  0  0  0  0  0  0  0  0  0  0  0  # atno 11005 bound_to 11000
  146.3501  139.9891  142.8687 LP  0  0  0  0  0  0  0  0  0  0  0  0  # atno 17320 bound_to 7965
  145.1745  140.9737  143.4302 LP  0  0  0  0  0  0  0  0  0  0  0  0  # atno 17321 bound_to 7965
  139.9151  144.6833  150.8521 LP  0  0  0  0  0  0  0  0  0  0  0  0  # atno 17342 bound_to 10162
  140.7700  143.3415  151.2198 LP  0  0  0  0  0  0  0  0  0  0  0  0  # atno 17343 bound_to 10162
  156.5652  130.8400  151.3340 LP  0  0  0  0  0  0  0  0  0  0  0  0  # atno 17370 bound_to 10713
  157.7342  130.9743  150.2018 LP  0  0  0  0  0  0  0  0  0  0  0  0  # atno 17371 bound_to 10713
  139.8710  134.9518  156.4096 LP  0  0  0  0  0  0  0  0  0  0  0  0  # atno 17394 bound_to 11000
  140.9132  133.7697  155.9816 LP  0  0  0  0  0  0  0  0  0  0  0  0  # atno 17395 bound_to 11000

$$$$
