AV-unprocessed.smi:3051|AV-procd|sdf|11633|dock9
  -GOLD-   2272017 23D 1   1.00000     0.00000
 Structure written by MMmdl.
 37 37  0  0  0  0  0  0  0  0  1 V2000
  150.9273  134.2877  156.2481 C   0  0  0  0  0  0  0  0  0  0  0  0
  150.2196  134.6448  154.9345 C   0  0  0  0  0  0  0  0  0  0  0  0
  150.6927  135.9161  154.4004 N   0  0  0  0  0  0  0  0  0  0  0  0
  150.5916  137.1014  155.0225 C   0  0  0  0  0  0  0  0  0  0  0  0
  150.0800  137.2440  156.1331 O   0  0  0  0  0  0  0  0  0  0  0  0
  151.1630  138.3128  154.2835 C   0  0  0  0  0  0  0  0  0  0  0  0
  150.6552  139.5572  154.8338 N   0  0  0  0  0  0  0  0  0  0  0  0
  149.5895  140.3181  154.3938 C   0  0  0  0  0  0  0  0  0  0  0  0
  149.4885  141.4008  155.2208 C   0  0  0  0  0  0  0  0  0  0  0  0
  150.5499  141.2040  156.1456 C   0  0  0  0  0  0  0  0  0  0  0  0
  150.8026  142.1058  157.1861 N   0  0  0  0  0  0  0  0  0  0  0  0
  151.8983  141.8806  158.1218 C   0  0  2  0  0  0  0  0  0  0  0  0
  151.8046  140.4780  158.7463 C   0  0  0  0  0  0  0  0  0  0  0  0
  151.8971  142.9657  159.2095 C   0  0  0  0  0  0  0  0  0  0  0  0
  151.7754  144.2403  158.5992 O   0  0  0  0  0  0  0  0  0  0  0  0
  151.9053  145.3022  159.5281 C   0  0  0  0  0  0  0  0  0  0  0  0
  151.2510  140.1041  155.9164 N   0  0  0  0  0  0  0  0  0  0  0  0
  150.5898  133.3195  156.6181 H   0  0  0  0  0  0  0  0  0  0  0  0
  150.7235  135.0270  157.0233 H   0  0  0  0  0  0  0  0  0  0  0  0
  152.0078  134.2331  156.1111 H   0  0  0  0  0  0  0  0  0  0  0  0
  150.4128  133.8708  154.1913 H   0  0  0  0  0  0  0  0  0  0  0  0
  149.1385  134.6723  155.0800 H   0  0  0  0  0  0  0  0  0  0  0  0
  151.1245  135.8962  153.4876 H   0  0  0  0  0  0  0  0  0  0  0  0
  152.2512  138.3179  154.3581 H   0  0  0  0  0  0  0  0  0  0  0  0
  150.9145  138.2508  153.2225 H   0  0  0  0  0  0  0  0  0  0  0  0
  149.0000  140.0285  153.5365 H   0  0  0  0  0  0  0  0  0  0  0  0
  148.7686  142.2041  155.1709 H   0  0  0  0  0  0  0  0  0  0  0  0
  150.2467  142.9442  157.2753 H   0  0  0  0  0  0  0  0  0  0  0  0
  152.8428  141.9517  157.5805 H   0  0  0  0  0  0  0  0  0  0  0  0
  152.6296  140.3009  159.4366 H   0  0  0  0  0  0  0  0  0  0  0  0
  151.8457  139.6968  157.9870 H   0  0  0  0  0  0  0  0  0  0  0  0
  150.8745  140.3525  159.3016 H   0  0  0  0  0  0  0  0  0  0  0  0
  151.0865  142.7974  159.9211 H   0  0  0  0  0  0  0  0  0  0  0  0
  152.8334  142.9305  159.7692 H   0  0  0  0  0  0  0  0  0  0  0  0
  151.8066  146.2559  159.0101 H   0  0  0  0  0  0  0  0  0  0  0  0
  152.8809  145.2836  160.0153 H   0  0  0  0  0  0  0  0  0  0  0  0
  151.1298  145.2529  160.2935 H   0  0  0  0  0  0  0  0  0  0  0  0
  1  2  1  0  0  0  0
  1 18  1  0  0  0  0
  1 19  1  0  0  0  0
  1 20  1  0  0  0  0
  2  3  1  0  0  0  0
  2 21  1  0  0  0  0
  2 22  1  0  0  0  0
  3  4  1  0  0  0  0
  3 23  1  0  0  0  0
  4  5  2  0  0  0  0
  4  6  1  0  0  0  0
  6  7  1  0  0  0  0
  6 24  1  0  0  0  0
  6 25  1  0  0  0  0
  7 17  1  0  0  0  0
  7  8  1  0  0  0  0
  8  9  2  0  0  0  0
  8 26  1  0  0  0  0
  9 10  1  0  0  0  0
  9 27  1  0  0  0  0
 10 11  1  0  0  0  0
 10 17  2  0  0  0  0
 11 12  1  0  0  0  0
 11 28  1  0  0  0  0
 12 13  1  0  0  0  0
 12 14  1  0  0  0  0
 12 29  1  0  0  0  0
 13 30  1  0  0  0  0
 13 31  1  0  0  0  0
 13 32  1  0  0  0  0
 14 15  1  0  0  0  0
 14 33  1  0  0  0  0
 14 34  1  0  0  0  0
 15 16  1  0  0  0  0
 16 35  1  0  0  0  0
 16 36  1  0  0  0  0
 16 37  1  0  0  0  0
M  END
> <s_m_source_file>
AV-unprocessed.smi

> <i_m_source_file_index>
3051

> <i_lp_mmshare_version>
43012

> <i_f3d_flags>
0

> <s_epik_input>
W0NIM11bQ0gyXVtOSF1DKD1PKVtDSDJdbjFbY0hdW2NIXWMobjEpW05IXVtDQEhdKFtDSDNdKVtDSDJdT1tDSDNd

> <s_epik_cmdline>
J2VwaWtfcHl0aG9uJywgJy1waCcsICc3LjAnLCAnLXRuJywgJzgnLCAnLW1hJywgJzIwMCcsICctbWV0YWxfYmluZGluZycsICctaW1hZScsICc8aW5maWxlLm1hZT4nLCAnLW9tYWUnLCAnPG91dGZpbGUubWFlPic=

> <r_lp_tautomer_probability>
1

> <r_epik_Ionization_Penalty>
0.00023157

> <r_epik_Ionization_Penalty_Charging>
0

> <r_epik_Ionization_Penalty_Neutral>
0.00023157

> <r_epik_State_Penalty>
-0

> <r_epik_Charging_Adjusted_Penalty>
0

> <i_epik_Tot_Q>
0

> <i_epik_Tot_abs_Q>
0

> <r_epik_Metal_State_Penalty>
-0

> <b_epik_Metal_Only>
0

> <s_lp_Force_Field>
OPLS_2005

> <r_lp_Energy>
4.00538

> <b_lp_Chiralities_Consistent>
1

> <s_lp_Variant>
AV-unprocessed.smi:3051-1

> <Gold.Version>
5.8.1

> <Gold.Id.Protein>
6NUR|6NUR_protein|mol2

> <Gold.PLP.Fitness>
39.0575

> <Gold.PLP.PLP>
-34.4117

> <Gold.PLP.part.hbond>
-1.9602

> <Gold.PLP.part.metal>
0.0000

> <Gold.PLP.part.buried>
-3.8928

> <Gold.PLP.part.nonpolar>
-28.2379

> <Gold.PLP.part.repulsive>
0.2264

> <Gold.PLP.ligand.clash>
0.0000

> <Gold.PLP.ligand.torsion>
0.6678

> <Gold.PLP.Chemscore.Hbond>
1.0000

> <Gold.PLP.Chemscore.CHOScore>
0.9855

> <Gold.PLP.Chemscore.Metal>
0.0000

> <Gold.Chemscore.Hbonds>
donor molecule, donor type, donor heavy atom, donor atom, acceptor molecule, acceptor atom, score
      L1  H     3    23       P1  7949  1.00
      L1  C     8    26       P1  7957  0.99

> <Gold.PLP.Chemscore.Internal.Correction>
0.0250

> <Gold.Rescore>
     Score         DG    S(hbond)    S(metal)    S(lipo)     H(rot)  DE(clash)    DE(int)     intcor
      8.26     -10.38       0.60        0.00      72.55       2.19       0.23       1.88       ----

> <Gold.Chemscore.Fitness>
8.2641

> <Gold.Chemscore.DG>
-10.3790

> <Gold.Chemscore.ZeroCoef>
-5.4800

> <Gold.Chemscore.Hbond>
0.6033

> <Gold.Chemscore.Metal>
0.0000

> <Gold.Chemscore.Lipo>
72.5459

> <Gold.Chemscore.Internal_Hbond>
0.0000

> <Gold.Chemscore.DEClash>
0.2320

> <Gold.Chemscore.DEInternal>
1.8830

> <Gold.Chemscore.Rot>
2.1890

> <Gold.Chemscore.Internal.Correction>
   9.000000E+99

> <Gold.Chemscore.Hbonds>
donor molecule, donor type, donor heavy atom, donor atom, acceptor molecule, acceptor atom, score
      L1  H     3    23       P1  7949  0.29

> <Gold.Chemscore.Hbond.Weighted>
-2.0150

> <Gold.Chemscore.Metal.Weighted>
-0.0000

> <Gold.Chemscore.Lipo.Weighted>
-8.4879

> <Gold.Chemscore.Internal_Hbond.Weighted>
0.0000

> <Gold.Chemscore.DEClash.Weighted>
0.2320

> <Gold.Chemscore.DEInternal.Weighted>
1.8830

> <Gold.Chemscore.Rot.Weighted>
5.6039

> <Gold.Chemscore.Internal.Correction.Weighted>
   9.000000E+99

> <Gold.Protein.RotatedTorsions>
[ 6907 6896 6895 6894 ] final   -6.78 input  -60.11 | X-H torsion
[ 7974 7965 7964 7962 ] final  -39.10 input  175.53 | X-H torsion
[ 8008 7997 7996 7995 ] final   15.55 input   59.86 | X-H torsion
[ 10167 10162 10161 10158 ] final  -64.98 input  -65.29 | X-H torsion
[ 10718 10713 10712 10709 ] final   55.81 input   66.30 | X-H torsion
[ 10763 10752 10751 10750 ] final    7.72 input  -60.55 | X-H torsion
[ 11005 11000 10999 10996 ] final  128.29 input  -57.11 | X-H torsion

> <Gold.Protein.ActiveResidues>
 VAL166  LYS551  ARG553  GLY616  TRP617  ASP618  TYR619  PRO620  LYS621  CYS622 
 ASP623  PHE694  ASN695  SER759  ASP760  ASP761  ALA762  ILE779  LEU786  VAL792 
 PHE793  MET794  SER795  GLU796  ALA797  LYS798  CYS799  TRP800  GLU811  SER814 

> <Gold.Protein.RotatedAtoms>
  151.4602  135.1037  159.9722 H   0  0  0  0  0  0  0  0  0  0  0  0  # atno 6907 bound_to 6896
  152.4856  133.8360  159.7138 H   0  0  0  0  0  0  0  0  0  0  0  0  # atno 6908 bound_to 6896
  150.8962  133.7117  159.2918 H   0  0  0  0  0  0  0  0  0  0  0  0  # atno 6909 bound_to 6896
  146.0427  140.6587  142.9079 H   0  0  0  0  0  0  0  0  0  0  0  0  # atno 7974 bound_to 7965
  154.8642  140.2949  155.5520 H   0  0  0  0  0  0  0  0  0  0  0  0  # atno 8008 bound_to 7997
  156.3020  140.2472  156.3554 H   0  0  0  0  0  0  0  0  0  0  0  0  # atno 8009 bound_to 7997
  154.8886  140.0395  157.1814 H   0  0  0  0  0  0  0  0  0  0  0  0  # atno 8010 bound_to 7997
  140.5762  143.2322  151.6437 H   0  0  0  0  0  0  0  0  0  0  0  0  # atno 10167 bound_to 10162
  157.5377  130.8675  149.8777 H   0  0  0  0  0  0  0  0  0  0  0  0  # atno 10718 bound_to 10713
  153.2331  135.6895  153.7867 H   0  0  0  0  0  0  0  0  0  0  0  0  # atno 10763 bound_to 10752
  153.7024  135.3295  155.3229 H   0  0  0  0  0  0  0  0  0  0  0  0  # atno 10764 bound_to 10752
  154.8323  135.4571  154.1224 H   0  0  0  0  0  0  0  0  0  0  0  0  # atno 10765 bound_to 10752
  139.9553  134.9614  156.8980 H   0  0  0  0  0  0  0  0  0  0  0  0  # atno 11005 bound_to 11000
  144.7082  140.3937  143.7101 LP  0  0  0  0  0  0  0  0  0  0  0  0  # atno 17320 bound_to 7965
  145.6857  139.1628  143.2675 LP  0  0  0  0  0  0  0  0  0  0  0  0  # atno 17321 bound_to 7965
  139.5144  144.3411  152.0739 LP  0  0  0  0  0  0  0  0  0  0  0  0  # atno 17342 bound_to 10162
  140.2555  144.4123  150.6205 LP  0  0  0  0  0  0  0  0  0  0  0  0  # atno 17343 bound_to 10162
  156.0471  130.3725  150.1290 LP  0  0  0  0  0  0  0  0  0  0  0  0  # atno 17370 bound_to 10713
  156.9471  130.9763  151.3505 LP  0  0  0  0  0  0  0  0  0  0  0  0  # atno 17371 bound_to 10713
  140.5624  134.0522  155.7403 LP  0  0  0  0  0  0  0  0  0  0  0  0  # atno 17394 bound_to 11000
  141.1223  133.9441  157.2705 LP  0  0  0  0  0  0  0  0  0  0  0  0  # atno 17395 bound_to 11000

$$$$
