AV-unprocessed.smi:3173|AV-procd|sdf|12120|dock2
  -GOLD-   2272017563D 1   1.00000     0.00000
 Structure written by MMmdl.
 36 37  0  0  0  0  0  0  0  0  2 V2000
  152.7794  139.3779  155.9216 O   0  0  0  0  0  0  0  0  0  0  0  0
  151.6958  139.1585  155.3796 C   0  0  0  0  0  0  0  0  0  0  0  0
  151.4097  137.7979  154.7342 C   0  0  0  0  0  0  0  0  0  0  0  0
  150.6237  136.8347  155.6483 C   0  0  1  0  0  0  0  0  0  0  0  0
  149.9597  135.7270  154.8716 C   0  0  0  0  0  0  0  0  0  0  0  0
  150.2305  134.5193  155.3620 C   0  0  0  0  0  0  0  0  0  0  0  0
  151.1314  134.5752  156.5642 C   0  0  0  0  0  0  0  0  0  0  0  0
  151.4953  136.0719  156.6823 C   0  0  0  0  0  0  0  0  0  0  0  0
  150.7087  140.0656  155.3190 N   0  0  0  0  0  0  0  0  0  0  0  0
  150.7830  141.4179  155.8600 C   0  0  0  0  0  0  0  0  0  0  0  0
  150.4859  141.4439  157.3690 C   0  0  0  0  0  0  0  0  0  0  0  0
  151.0923  142.6542  158.0519 C   0  0  0  0  0  0  0  0  0  0  0  0
  152.1484  142.5386  158.9817 C   0  0  0  0  0  0  0  0  0  0  0  0
  152.6738  143.7048  159.5763 C   0  0  0  0  0  0  0  0  0  0  0  0
  152.1333  144.9601  159.2291 C   0  0  0  0  0  0  0  0  0  0  0  0
  151.0802  145.0177  158.2933 C   0  0  0  0  0  0  0  0  0  0  0  0
  150.6045  143.8781  157.7448 N   0  3  0  0  0  0  0  0  0  0  0  0
  150.8463  137.9757  153.8176 H   0  0  0  0  0  0  0  0  0  0  0  0
  152.3495  137.3320  154.4330 H   0  0  0  0  0  0  0  0  0  0  0  0
  149.8299  137.3775  156.1642 H   0  0  0  0  0  0  0  0  0  0  0  0
  149.3227  135.9222  154.0212 H   0  0  0  0  0  0  0  0  0  0  0  0
  149.8488  133.5879  154.9705 H   0  0  0  0  0  0  0  0  0  0  0  0
  150.5957  134.2189  157.4448 H   0  0  0  0  0  0  0  0  0  0  0  0
  152.0143  133.9527  156.4153 H   0  0  0  0  0  0  0  0  0  0  0  0
  152.5565  136.2006  156.4646 H   0  0  0  0  0  0  0  0  0  0  0  0
  151.3303  136.4452  157.6935 H   0  0  0  0  0  0  0  0  0  0  0  0
  149.8504  139.8024  154.8561 H   0  0  0  0  0  0  0  0  0  0  0  0
  151.7672  141.8445  155.6574 H   0  0  0  0  0  0  0  0  0  0  0  0
  150.0610  142.0362  155.3260 H   0  0  0  0  0  0  0  0  0  0  0  0
  149.4082  141.4434  157.5385 H   0  0  0  0  0  0  0  0  0  0  0  0
  150.8718  140.5423  157.8469 H   0  0  0  0  0  0  0  0  0  0  0  0
  152.5533  141.5695  159.2355 H   0  0  0  0  0  0  0  0  0  0  0  0
  153.4821  143.6370  160.2898 H   0  0  0  0  0  0  0  0  0  0  0  0
  152.5217  145.8651  159.6733 H   0  0  0  0  0  0  0  0  0  0  0  0
  150.6084  145.9337  157.9692 H   0  0  0  0  0  0  0  0  0  0  0  0
  149.8427  143.9443  157.0694 H   0  0  0  0  0  0  0  0  0  0  0  0
  1  2  2  0  0  0  0
  2  3  1  0  0  0  0
  2  9  1  0  0  0  0
  3  4  1  0  0  0  0
  3 18  1  0  0  0  0
  3 19  1  0  0  0  0
  4  8  1  0  0  0  0
  4  5  1  0  0  0  0
  4 20  1  0  0  0  0
  5  6  2  0  0  0  0
  5 21  1  0  0  0  0
  6  7  1  0  0  0  0
  6 22  1  0  0  0  0
  7  8  1  0  0  0  0
  7 23  1  0  0  0  0
  7 24  1  0  0  0  0
  8 25  1  0  0  0  0
  8 26  1  0  0  0  0
  9 10  1  0  0  0  0
  9 27  1  0  0  0  0
 10 11  1  0  0  0  0
 10 28  1  0  0  0  0
 10 29  1  0  0  0  0
 11 12  1  0  0  0  0
 11 30  1  0  0  0  0
 11 31  1  0  0  0  0
 12 17  1  0  0  0  0
 12 13  2  0  0  0  0
 13 14  1  0  0  0  0
 13 32  1  0  0  0  0
 14 15  2  0  0  0  0
 14 33  1  0  0  0  0
 15 16  1  0  0  0  0
 15 34  1  0  0  0  0
 16 17  2  0  0  0  0
 16 35  1  0  0  0  0
 17 36  1  0  0  0  0
M  CHG  1  17   1
M  END
> <s_m_source_file>
AV-unprocessed.smi

> <i_m_source_file_index>
3173

> <i_lp_mmshare_version>
43012

> <i_f3d_flags>
0

> <s_epik_input>
W0NIMl0xW0NIMl1bQ0hdPVtDSF1bQ0BIXTFbQ0gyXUMoPU8pW05IXVtDSDJdW0NIMl1jMltjSF1bY0hdW2NIXVtjSF1uMg==

> <s_epik_cmdline>
J2VwaWtfcHl0aG9uJywgJy1waCcsICc3LjAnLCAnLXRuJywgJzgnLCAnLW1hJywgJzIwMCcsICctbWV0YWxfYmluZGluZycsICctaW1hZScsICc8aW5maWxlLm1hZT4nLCAnLW9tYWUnLCAnPG91dGZpbGUubWFlPic=

> <r_epik_Ionization_Penalty>
1.86798

> <r_epik_Ionization_Penalty_Charging>
1.86798

> <r_epik_Ionization_Penalty_Neutral>
1.53848e-08

> <r_epik_State_Penalty>
1.98677

> <r_epik_Charging_Adjusted_Penalty>
3.85475

> <i_epik_Tot_Q>
1

> <i_epik_Tot_abs_Q>
1

> <r_epik_Metal_State_Penalty>
2.01174

> <b_epik_Metal_Only>
0

> <s_lp_Force_Field>
OPLS_2005

> <r_lp_Energy>
20.3145

> <b_lp_Chiralities_Consistent>
1

> <s_lp_Variant>
AV-unprocessed.smi:3173-4

> <Gold.Version>
5.8.1

> <Gold.Id.Protein>
6NUR|6NUR_protein|mol2

> <Gold.PLP.Fitness>
45.8766

> <Gold.PLP.PLP>
-38.5245

> <Gold.PLP.part.hbond>
-2.0000

> <Gold.PLP.part.metal>
0.0000

> <Gold.PLP.part.buried>
-5.3099

> <Gold.PLP.part.nonpolar>
-31.1113

> <Gold.PLP.part.repulsive>
0.1418

> <Gold.PLP.ligand.clash>
0.0000

> <Gold.PLP.ligand.torsion>
0.8637

> <Gold.PLP.Chemscore.Hbond>
3.0000

> <Gold.PLP.Chemscore.CHOScore>
0.0000

> <Gold.PLP.Chemscore.Metal>
0.0000

> <Gold.Chemscore.Hbonds>
donor molecule, donor type, donor heavy atom, donor atom, acceptor molecule, acceptor atom, score
      L1  H    17    36       P1  8028  2.00
      P1  H  7997  8010       L1     1  1.00

> <Gold.PLP.Chemscore.Internal.Correction>
0.0796

> <Gold.Rescore>
     Score         DG    S(hbond)    S(metal)    S(lipo)     H(rot)  DE(clash)    DE(int)     intcor
     18.25     -19.30       1.88        0.00      99.81       1.61       0.30       0.75       ----

> <Gold.Chemscore.Fitness>
18.2513

> <Gold.Chemscore.DG>
-19.3035

> <Gold.Chemscore.ZeroCoef>
-5.4800

> <Gold.Chemscore.Hbond>
1.8782

> <Gold.Chemscore.Metal>
0.0000

> <Gold.Chemscore.Lipo>
99.8066

> <Gold.Chemscore.Internal_Hbond>
0.0000

> <Gold.Chemscore.DEClash>
0.2988

> <Gold.Chemscore.DEInternal>
0.7534

> <Gold.Chemscore.Rot>
1.6122

> <Gold.Chemscore.Internal.Correction>
   9.000000E+99

> <Gold.Chemscore.Hbonds>
donor molecule, donor type, donor heavy atom, donor atom, acceptor molecule, acceptor atom, score
      L1  H    17    36       P1  8028  0.86
      P1  H  7997  8010       L1     1  1.00

> <Gold.Chemscore.Hbond.Weighted>
-6.2732

> <Gold.Chemscore.Metal.Weighted>
-0.0000

> <Gold.Chemscore.Lipo.Weighted>
-11.6774

> <Gold.Chemscore.Internal_Hbond.Weighted>
0.0000

> <Gold.Chemscore.DEClash.Weighted>
0.2988

> <Gold.Chemscore.DEInternal.Weighted>
0.7534

> <Gold.Chemscore.Rot.Weighted>
4.1271

> <Gold.Chemscore.Internal.Correction.Weighted>
   9.000000E+99

> <Gold.Protein.RotatedTorsions>
[ 6907 6896 6895 6894 ] final -158.15 input  -60.11 | X-H torsion
[ 7974 7965 7964 7962 ] final  152.61 input  175.53 | X-H torsion
[ 8008 7997 7996 7995 ] final   82.62 input   59.86 | X-H torsion
[ 10167 10162 10161 10158 ] final -145.14 input  -65.29 | X-H torsion
[ 10718 10713 10712 10709 ] final  -14.75 input   66.30 | X-H torsion
[ 10763 10752 10751 10750 ] final -178.32 input  -60.55 | X-H torsion
[ 11005 11000 10999 10996 ] final  150.18 input  -57.11 | X-H torsion

> <Gold.Protein.ActiveResidues>
 VAL166  LYS551  ARG553  GLY616  TRP617  ASP618  TYR619  PRO620  LYS621  CYS622 
 ASP623  PHE694  ASN695  SER759  ASP760  ASP761  ALA762  ILE779  LEU786  VAL792 
 PHE793  MET794  SER795  GLU796  ALA797  LYS798  CYS799  TRP800  GLU811  SER814 

> <Gold.Protein.RotatedAtoms>
  151.3138  133.4069  159.2648 H   0  0  0  0  0  0  0  0  0  0  0  0  # atno 6907 bound_to 6896
  151.0092  134.9384  159.8008 H   0  0  0  0  0  0  0  0  0  0  0  0  # atno 6908 bound_to 6896
  152.5296  134.3103  159.9163 H   0  0  0  0  0  0  0  0  0  0  0  0  # atno 6909 bound_to 6896
  144.8211  139.6691  143.6100 H   0  0  0  0  0  0  0  0  0  0  0  0  # atno 7974 bound_to 7965
  155.9131  140.3426  155.6114 H   0  0  0  0  0  0  0  0  0  0  0  0  # atno 8008 bound_to 7997
  155.7364  140.0802  157.2284 H   0  0  0  0  0  0  0  0  0  0  0  0  # atno 8009 bound_to 7997
  154.4058  140.1579  156.2554 H   0  0  0  0  0  0  0  0  0  0  0  0  # atno 8010 bound_to 7997
  139.7834  143.8069  152.2641 H   0  0  0  0  0  0  0  0  0  0  0  0  # atno 10167 bound_to 10162
  156.6116  130.4851  149.6199 H   0  0  0  0  0  0  0  0  0  0  0  0  # atno 10718 bound_to 10713
  154.5491  135.2811  155.1025 H   0  0  0  0  0  0  0  0  0  0  0  0  # atno 10763 bound_to 10752
  154.2477  135.6345  153.5233 H   0  0  0  0  0  0  0  0  0  0  0  0  # atno 10764 bound_to 10752
  152.9998  135.5575  154.6052 H   0  0  0  0  0  0  0  0  0  0  0  0  # atno 10765 bound_to 10752
  140.1109  134.8924  157.1935 H   0  0  0  0  0  0  0  0  0  0  0  0  # atno 11005 bound_to 11000
  146.2516  139.6212  142.9423 LP  0  0  0  0  0  0  0  0  0  0  0  0  # atno 17320 bound_to 7965
  145.5104  141.0435  143.2491 LP  0  0  0  0  0  0  0  0  0  0  0  0  # atno 17321 bound_to 7965
  139.8138  144.7324  150.9662 LP  0  0  0  0  0  0  0  0  0  0  0  0  # atno 17342 bound_to 10162
  140.7819  143.4224  151.0820 LP  0  0  0  0  0  0  0  0  0  0  0  0  # atno 17343 bound_to 10162
  156.2385  130.6837  151.1533 LP  0  0  0  0  0  0  0  0  0  0  0  0  # atno 17370 bound_to 10713
  157.7253  131.0654  150.5960 LP  0  0  0  0  0  0  0  0  0  0  0  0  # atno 17371 bound_to 10713
  140.3092  134.3043  155.7271 LP  0  0  0  0  0  0  0  0  0  0  0  0  # atno 17394 bound_to 11000
  141.2130  133.7640  156.9752 LP  0  0  0  0  0  0  0  0  0  0  0  0  # atno 17395 bound_to 11000

$$$$
