AV-unprocessed.smi:1961|AV-procd|sdf|7918|dock2
  -GOLD-   2272010 83D 1   1.00000     0.00000
 Structure written by MMmdl.
 36 37  0  0  0  0  0  0  0  0  1 V2000
  151.9809  141.1416  157.9468 C   0  0  0  0  0  0  0  0  0  0  0  0
  150.9183  141.7236  157.0032 C   0  0  0  0  0  0  0  0  0  0  0  0
  149.6998  142.2927  157.7455 C   0  0  0  0  0  0  0  0  0  0  0  0
  150.5244  140.7564  155.9302 C   0  0  0  0  0  0  0  0  0  0  0  0
  151.4065  140.2027  155.0870 N   0  0  0  0  0  0  0  0  0  0  0  0
  150.8039  139.3379  154.1843 N   0  0  0  0  0  0  0  0  0  0  0  0
  149.4794  139.2623  154.3726 C   0  0  0  0  0  0  0  0  0  0  0  0
  148.6161  138.4490  153.5918 N   0  0  0  0  0  0  0  0  0  0  0  0
  147.2735  138.3833  153.6286 C   0  0  0  0  0  0  0  0  0  0  0  0
  146.5485  139.0322  154.3832 O   0  0  0  0  0  0  0  0  0  0  0  0
  146.8058  137.5084  152.7268 N   0  0  0  0  0  0  0  0  0  0  0  0
  145.3951  137.2073  152.5069 C   0  0  0  0  0  0  0  0  0  0  0  0
  145.1988  135.9797  151.6003 C   0  0  2  0  0  0  0  0  0  0  0  0
  143.8035  135.3535  151.6595 C   0  0  0  0  0  0  0  0  0  0  0  0
  144.0487  133.8813  151.3583 C   0  0  0  0  0  0  0  0  0  0  0  0
  145.5730  133.7440  151.3634 C   0  0  0  0  0  0  0  0  0  0  0  0
  146.0369  134.9147  152.0183 O   0  0  0  0  0  0  0  0  0  0  0  0
  148.8553  140.2551  155.6786 S   0  0  0  0  0  0  0  0  0  0  0  0
  152.8652  140.8238  157.3935 H   0  0  0  0  0  0  0  0  0  0  0  0
  151.5987  140.2767  158.4901 H   0  0  0  0  0  0  0  0  0  0  0  0
  152.2996  141.8809  158.6821 H   0  0  0  0  0  0  0  0  0  0  0  0
  151.3892  142.5676  156.4974 H   0  0  0  0  0  0  0  0  0  0  0  0
  149.0080  142.7733  157.0530 H   0  0  0  0  0  0  0  0  0  0  0  0
  150.0009  143.0385  158.4817 H   0  0  0  0  0  0  0  0  0  0  0  0
  149.1543  141.5086  158.2719 H   0  0  0  0  0  0  0  0  0  0  0  0
  149.0748  137.8542  152.9177 H   0  0  0  0  0  0  0  0  0  0  0  0
  147.4708  137.0170  152.1478 H   0  0  0  0  0  0  0  0  0  0  0  0
  144.8925  137.0537  153.4633 H   0  0  0  0  0  0  0  0  0  0  0  0
  144.9297  138.0827  152.0531 H   0  0  0  0  0  0  0  0  0  0  0  0
  145.4495  136.2274  150.5669 H   0  0  0  0  0  0  0  0  0  0  0  0
  143.3818  135.4544  152.6605 H   0  0  0  0  0  0  0  0  0  0  0  0
  143.1123  135.8197  150.9567 H   0  0  0  0  0  0  0  0  0  0  0  0
  143.5956  133.2560  152.1283 H   0  0  0  0  0  0  0  0  0  0  0  0
  143.6307  133.5842  150.3958 H   0  0  0  0  0  0  0  0  0  0  0  0
  145.9129  132.8411  151.8713 H   0  0  0  0  0  0  0  0  0  0  0  0
  145.9605  133.7277  150.3434 H   0  0  0  0  0  0  0  0  0  0  0  0
  1  2  1  0  0  0  0
  1 19  1  0  0  0  0
  1 20  1  0  0  0  0
  1 21  1  0  0  0  0
  2  3  1  0  0  0  0
  2  4  1  0  0  0  0
  2 22  1  0  0  0  0
  3 23  1  0  0  0  0
  3 24  1  0  0  0  0
  3 25  1  0  0  0  0
  4 18  1  0  0  0  0
  4  5  2  0  0  0  0
  5  6  1  0  0  0  0
  6  7  2  0  0  0  0
  7  8  1  0  0  0  0
  7 18  1  0  0  0  0
  8  9  1  0  0  0  0
  8 26  1  0  0  0  0
  9 10  2  0  0  0  0
  9 11  1  0  0  0  0
 11 12  1  0  0  0  0
 11 27  1  0  0  0  0
 12 13  1  0  0  0  0
 12 28  1  0  0  0  0
 12 29  1  0  0  0  0
 13 17  1  0  0  0  0
 13 14  1  0  0  0  0
 13 30  1  0  0  0  0
 14 15  1  0  0  0  0
 14 31  1  0  0  0  0
 14 32  1  0  0  0  0
 15 16  1  0  0  0  0
 15 33  1  0  0  0  0
 15 34  1  0  0  0  0
 16 17  1  0  0  0  0
 16 35  1  0  0  0  0
 16 36  1  0  0  0  0
M  END
> <s_m_source_file>
AV-unprocessed.smi

> <i_m_source_file_index>
1961

> <i_lp_mmshare_version>
43012

> <i_f3d_flags>
0

> <s_epik_input>
W0NIM11bQ0hdKFtDSDNdKWMxbm5jKHMxKVtOSF1DKD1PKVtOSF1bQ0gyXVtDQEBIXTJbQ0gyXVtDSDJdW0NIMl1PMg==

> <s_epik_cmdline>
J2VwaWtfcHl0aG9uJywgJy1waCcsICc3LjAnLCAnLXRuJywgJzgnLCAnLW1hJywgJzIwMCcsICctbWV0YWxfYmluZGluZycsICctaW1hZScsICc8aW5maWxlLm1hZT4nLCAnLW9tYWUnLCAnPG91dGZpbGUubWFlPic=

> <r_lp_tautomer_probability>
1

> <r_epik_Ionization_Penalty>
0.000505257

> <r_epik_Ionization_Penalty_Charging>
0

> <r_epik_Ionization_Penalty_Neutral>
0.000505257

> <r_epik_State_Penalty>
-0

> <r_epik_Charging_Adjusted_Penalty>
0

> <i_epik_Tot_Q>
0

> <i_epik_Tot_abs_Q>
0

> <r_epik_Metal_State_Penalty>
0.219912

> <b_epik_Metal_Only>
0

> <s_lp_Force_Field>
OPLS_2005

> <r_lp_Energy>
10.186

> <b_lp_Chiralities_Consistent>
1

> <s_lp_Variant>
AV-unprocessed.smi:1961-1

> <Gold.Version>
5.8.1

> <Gold.Id.Protein>
6NUR|6NUR_protein|mol2

> <Gold.PLP.Fitness>
33.6236

> <Gold.PLP.PLP>
-28.0915

> <Gold.PLP.part.hbond>
-4.9422

> <Gold.PLP.part.metal>
0.0000

> <Gold.PLP.part.buried>
-5.2986

> <Gold.PLP.part.nonpolar>
-19.5883

> <Gold.PLP.part.repulsive>
0.5535

> <Gold.PLP.ligand.clash>
0.0000

> <Gold.PLP.ligand.torsion>
0.2145

> <Gold.PLP.Chemscore.Hbond>
1.9600

> <Gold.PLP.Chemscore.CHOScore>
0.0000

> <Gold.PLP.Chemscore.Metal>
0.0000

> <Gold.Chemscore.Hbonds>
donor molecule, donor type, donor heavy atom, donor atom, acceptor molecule, acceptor atom, score
      L1  H     8    26       P1  7948  0.94
      L1  H    11    27       P1  7948  1.00

> <Gold.PLP.Chemscore.Internal.Correction>
0.0810

> <Gold.Rescore>
     Score         DG    S(hbond)    S(metal)    S(lipo)     H(rot)  DE(clash)    DE(int)     intcor
     13.51     -14.96       1.96        0.00      56.64       1.45       0.08       1.37       ----

> <Gold.Chemscore.Fitness>
13.5117

> <Gold.Chemscore.DG>
-14.9599

> <Gold.Chemscore.ZeroCoef>
-5.4800

> <Gold.Chemscore.Hbond>
1.9626

> <Gold.Chemscore.Metal>
0.0000

> <Gold.Chemscore.Lipo>
56.6401

> <Gold.Chemscore.Internal_Hbond>
0.0000

> <Gold.Chemscore.DEClash>
0.0819

> <Gold.Chemscore.DEInternal>
1.3663

> <Gold.Chemscore.Rot>
1.4461

> <Gold.Chemscore.Internal.Correction>
   9.000000E+99

> <Gold.Chemscore.Hbonds>
donor molecule, donor type, donor heavy atom, donor atom, acceptor molecule, acceptor atom, score
      L1  H     8    26       P1  7948  0.92
      L1  H    11    27       P1  7948  0.98

> <Gold.Chemscore.Hbond.Weighted>
-6.5550

> <Gold.Chemscore.Metal.Weighted>
-0.0000

> <Gold.Chemscore.Lipo.Weighted>
-6.6269

> <Gold.Chemscore.Internal_Hbond.Weighted>
0.0000

> <Gold.Chemscore.DEClash.Weighted>
0.0819

> <Gold.Chemscore.DEInternal.Weighted>
1.3663

> <Gold.Chemscore.Rot.Weighted>
3.7019

> <Gold.Chemscore.Internal.Correction.Weighted>
   9.000000E+99

> <Gold.Protein.RotatedTorsions>
[ 6907 6896 6895 6894 ] final -134.30 input  -60.11 | X-H torsion
[ 7974 7965 7964 7962 ] final  162.66 input  175.53 | X-H torsion
[ 8008 7997 7996 7995 ] final   62.85 input   59.86 | X-H torsion
[ 10167 10162 10161 10158 ] final  -28.82 input  -65.29 | X-H torsion
[ 10718 10713 10712 10709 ] final  -85.68 input   66.30 | X-H torsion
[ 10763 10752 10751 10750 ] final  123.29 input  -60.55 | X-H torsion
[ 11005 11000 10999 10996 ] final   53.55 input  -57.11 | X-H torsion

> <Gold.Protein.ActiveResidues>
 VAL166  LYS551  ARG553  GLY616  TRP617  ASP618  TYR619  PRO620  LYS621  CYS622 
 ASP623  PHE694  ASN695  SER759  ASP760  ASP761  ALA762  ILE779  LEU786  VAL792 
 PHE793  MET794  SER795  GLU796  ALA797  LYS798  CYS799  TRP800  GLU811  SER814 

> <Gold.Protein.RotatedAtoms>
  150.9842  133.6215  159.2717 H   0  0  0  0  0  0  0  0  0  0  0  0  # atno 6907 bound_to 6896
  151.3459  135.0873  159.9396 H   0  0  0  0  0  0  0  0  0  0  0  0  # atno 6908 bound_to 6896
  152.5225  133.9444  159.7696 H   0  0  0  0  0  0  0  0  0  0  0  0  # atno 6909 bound_to 6896
  144.7626  139.8071  143.6327 H   0  0  0  0  0  0  0  0  0  0  0  0  # atno 7974 bound_to 7965
  155.6209  140.3495  155.4652 H   0  0  0  0  0  0  0  0  0  0  0  0  # atno 8008 bound_to 7997
  156.0080  140.1227  157.0506 H   0  0  0  0  0  0  0  0  0  0  0  0  # atno 8009 bound_to 7997
  154.4271  140.1087  156.5775 H   0  0  0  0  0  0  0  0  0  0  0  0  # atno 8010 bound_to 7997
  140.7266  143.3978  151.1317 H   0  0  0  0  0  0  0  0  0  0  0  0  # atno 10167 bound_to 10162
  155.9995  130.4739  150.4599 H   0  0  0  0  0  0  0  0  0  0  0  0  # atno 10718 bound_to 10713
  153.6432  135.3375  155.3078 H   0  0  0  0  0  0  0  0  0  0  0  0  # atno 10763 bound_to 10752
  154.8554  135.4323  154.1982 H   0  0  0  0  0  0  0  0  0  0  0  0  # atno 10764 bound_to 10752
  153.2906  135.7016  153.7371 H   0  0  0  0  0  0  0  0  0  0  0  0  # atno 10765 bound_to 10752
  140.0758  134.5407  155.8998 H   0  0  0  0  0  0  0  0  0  0  0  0  # atno 11005 bound_to 11000
  146.1704  139.4852  142.9931 LP  0  0  0  0  0  0  0  0  0  0  0  0  # atno 17320 bound_to 7965
  145.6571  141.0249  143.1729 LP  0  0  0  0  0  0  0  0  0  0  0  0  # atno 17321 bound_to 7965
  139.7594  143.8659  152.3096 LP  0  0  0  0  0  0  0  0  0  0  0  0  # atno 17342 bound_to 10162
  139.8539  144.7151  150.9180 LP  0  0  0  0  0  0  0  0  0  0  0  0  # atno 17343 bound_to 10162
  157.2624  131.0570  151.2312 LP  0  0  0  0  0  0  0  0  0  0  0  0  # atno 17370 bound_to 10713
  157.3421  130.7039  149.6388 LP  0  0  0  0  0  0  0  0  0  0  0  0  # atno 17371 bound_to 10713
  141.2029  133.6628  156.6031 LP  0  0  0  0  0  0  0  0  0  0  0  0  # atno 17394 bound_to 11000
  140.3560  134.7728  157.4500 LP  0  0  0  0  0  0  0  0  0  0  0  0  # atno 17395 bound_to 11000

$$$$
