AV-unprocessed.smi:113|AV-procd|sdf|1100|dock4
  -GOLD-   2262018213D 1   1.00000     0.00000
 Structure written by MMmdl.
 53 56  0  0  0  0  0  0  0  0  2 V2000
  147.8416  141.1063  155.3927 C   0  0  0  0  0  0  0  0  0  0  0  0
  148.9317  141.0221  156.4400 C   0  0  0  0  0  0  0  0  0  0  0  0
  149.3037  139.8021  157.0369 C   0  0  0  0  0  0  0  0  0  0  0  0
  150.3311  139.7758  158.0125 C   0  0  0  0  0  0  0  0  0  0  0  0
  150.7546  138.4638  158.6817 C   0  0  0  0  0  0  0  0  0  0  0  0
  149.9973  137.2709  158.3298 N   0  0  0  0  0  0  0  0  0  0  0  0
  148.9266  136.8963  159.1757 C   0  0  0  0  0  0  0  0  0  0  0  0
  148.6309  137.5595  160.1723 O   0  0  0  0  0  0  0  0  0  0  0  0
  148.2035  135.6909  158.7660 C   0  0  0  0  0  0  0  0  0  0  0  0
  147.0664  135.2051  159.6519 C   0  0  0  0  0  0  0  0  0  0  0  0
  148.5604  135.0425  157.6303 C   0  0  0  0  0  0  0  0  0  0  0  0
  149.5930  135.4513  156.7976 N   0  0  0  0  0  0  0  0  0  0  0  0
  149.9559  134.7427  155.5049 C   0  0  1  0  0  0  0  0  0  0  0  0
  150.0734  133.2230  155.5839 C   0  0  0  0  0  0  0  0  0  0  0  0
  149.9729  132.8787  154.1121 C   0  0  1  0  0  0  0  0  0  0  0  0
  149.5687  131.5355  153.9322 O   0  0  0  0  0  0  0  0  0  0  0  0
  148.9918  133.9460  153.5718 C   0  0  1  0  0  0  0  0  0  0  0  0
  147.5478  133.4803  153.3033 C   0  0  0  0  0  0  0  0  0  0  0  0
  146.7867  134.5185  152.7219 O   0  0  0  0  0  0  0  0  0  0  0  0
  148.9286  134.9482  154.5883 O   0  0  0  0  0  0  0  0  0  0  0  0
  150.3494  136.5916  157.1425 C   0  0  0  0  0  0  0  0  0  0  0  0
  151.2722  136.9812  156.4220 O   0  0  0  0  0  0  0  0  0  0  0  0
  150.9638  141.0017  158.3580 C   0  0  0  0  0  0  0  0  0  0  0  0
  152.0004  141.0706  159.3195 C   0  0  0  0  0  0  0  0  0  0  0  0
  152.6026  142.3046  159.6348 C   0  0  0  0  0  0  0  0  0  0  0  0
  152.1797  143.4852  158.9958 C   0  0  0  0  0  0  0  0  0  0  0  0
  151.1508  143.4348  158.0373 C   0  0  0  0  0  0  0  0  0  0  0  0
  150.5469  142.2015  157.7203 C   0  0  0  0  0  0  0  0  0  0  0  0
  149.5607  142.1595  156.7997 N   0  3  0  0  0  0  0  0  0  0  0  0
  147.1520  140.2664  155.4825 H   0  0  0  0  0  0  0  0  0  0  0  0
  148.2766  141.0872  154.3933 H   0  0  0  0  0  0  0  0  0  0  0  0
  147.2683  142.0274  155.5025 H   0  0  0  0  0  0  0  0  0  0  0  0
  148.7932  138.8992  156.7368 H   0  0  0  0  0  0  0  0  0  0  0  0
  151.8055  138.2579  158.4727 H   0  0  0  0  0  0  0  0  0  0  0  0
  150.7121  138.5640  159.7675 H   0  0  0  0  0  0  0  0  0  0  0  0
  146.5957  134.3051  159.2553 H   0  0  0  0  0  0  0  0  0  0  0  0
  146.2959  135.9722  159.7383 H   0  0  0  0  0  0  0  0  0  0  0  0
  147.4344  134.9746  160.6522 H   0  0  0  0  0  0  0  0  0  0  0  0
  148.0009  134.1523  157.3943 H   0  0  0  0  0  0  0  0  0  0  0  0
  150.8832  135.2098  155.1652 H   0  0  0  0  0  0  0  0  0  0  0  0
  151.0026  132.9076  156.0595 H   0  0  0  0  0  0  0  0  0  0  0  0
  149.2142  132.8020  156.1072 H   0  0  0  0  0  0  0  0  0  0  0  0
  150.9483  133.0163  153.6430 H   0  0  0  0  0  0  0  0  0  0  0  0
  150.2625  130.9694  154.2359 H   0  0  0  0  0  0  0  0  0  0  0  0
  149.4052  134.4049  152.6725 H   0  0  0  0  0  0  0  0  0  0  0  0
  147.5275  132.5946  152.6675 H   0  0  0  0  0  0  0  0  0  0  0  0
  147.0649  133.2077  154.2420 H   0  0  0  0  0  0  0  0  0  0  0  0
  147.3419  135.2759  152.6158 H   0  0  0  0  0  0  0  0  0  0  0  0
  152.3517  140.1866  159.8299 H   0  0  0  0  0  0  0  0  0  0  0  0
  153.3927  142.3448  160.3705 H   0  0  0  0  0  0  0  0  0  0  0  0
  152.6448  144.4290  159.2410 H   0  0  0  0  0  0  0  0  0  0  0  0
  150.8308  144.3444  157.5496 H   0  0  0  0  0  0  0  0  0  0  0  0
  149.2772  143.0320  156.3541 H   0  0  0  0  0  0  0  0  0  0  0  0
  1  2  1  0  0  0  0
  1 30  1  0  0  0  0
  1 31  1  0  0  0  0
  1 32  1  0  0  0  0
  2 29  1  0  0  0  0
  2  3  2  0  0  0  0
  3  4  1  0  0  0  0
  3 33  1  0  0  0  0
  4  5  1  0  0  0  0
  4 23  2  0  0  0  0
  5  6  1  0  0  0  0
  5 34  1  0  0  0  0
  5 35  1  0  0  0  0
  6 21  1  0  0  0  0
  6  7  1  0  0  0  0
  7  8  2  0  0  0  0
  7  9  1  0  0  0  0
  9 10  1  0  0  0  0
  9 11  2  0  0  0  0
 10 36  1  0  0  0  0
 10 37  1  0  0  0  0
 10 38  1  0  0  0  0
 11 12  1  0  0  0  0
 11 39  1  0  0  0  0
 12 13  1  0  0  0  0
 12 21  1  0  0  0  0
 13 20  1  0  0  0  0
 13 14  1  0  0  0  0
 13 40  1  0  0  0  0
 14 15  1  0  0  0  0
 14 41  1  0  0  0  0
 14 42  1  0  0  0  0
 15 16  1  0  0  0  0
 15 17  1  0  0  0  0
 15 43  1  0  0  0  0
 16 44  1  0  0  0  0
 17 18  1  0  0  0  0
 17 20  1  0  0  0  0
 17 45  1  0  0  0  0
 18 19  1  0  0  0  0
 18 46  1  0  0  0  0
 18 47  1  0  0  0  0
 19 48  1  0  0  0  0
 21 22  2  0  0  0  0
 23 28  1  0  0  0  0
 23 24  1  0  0  0  0
 24 25  2  0  0  0  0
 24 49  1  0  0  0  0
 25 26  1  0  0  0  0
 25 50  1  0  0  0  0
 26 27  2  0  0  0  0
 26 51  1  0  0  0  0
 27 28  1  0  0  0  0
 27 52  1  0  0  0  0
 28 29  2  0  0  0  0
 29 53  1  0  0  0  0
M  CHG  1  29   1
M  END
> <s_m_source_file>
AV-unprocessed.smi

> <i_m_source_file_index>
113

> <i_lp_mmshare_version>
43012

> <i_f3d_flags>
0

> <s_epik_input>
W2NIXTFbY0hdW2NIXVtjSF1jKGMxMiluYyhbQ0gzXSlbY0hdYzJbQ0gyXW4zYyg9TyljKFtDSDNdKVtjSF1uKGMzPU8pW0NAQEhdNFtDSDJdW0NAQEhdKFtPSF0pW0NASF0oTzQpW0NIMl1bT0hd

> <s_epik_cmdline>
J2VwaWtfcHl0aG9uJywgJy1waCcsICc3LjAnLCAnLXRuJywgJzgnLCAnLW1hJywgJzIwMCcsICctbWV0YWxfYmluZGluZycsICctaW1hZScsICc8aW5maWxlLm1hZT4nLCAnLW9tYWUnLCAnPG91dGZpbGUubWFlPic=

> <r_lp_tautomer_probability>
1

> <r_epik_Ionization_Penalty>
0.705471

> <r_epik_Ionization_Penalty_Charging>
0.70547

> <r_epik_Ionization_Penalty_Neutral>
1.19947e-07

> <r_epik_State_Penalty>
0.728574

> <r_epik_Charging_Adjusted_Penalty>
1.43404

> <i_epik_Tot_Q>
1

> <i_epik_Tot_abs_Q>
1

> <r_epik_Metal_State_Penalty>
4.61665

> <b_epik_Metal_Only>
0

> <s_epik_Chemistry_Notes>
This compound contains an acetal/aminal-like group ( X-CH(R)-Y where X, Y are N, S, or O) that may be acid/base labile, releasing an aldehyde.

> <s_lp_Force_Field>
OPLS_2005

> <r_lp_Energy>
46.487

> <b_lp_Chiralities_Consistent>
1

> <s_lp_Variant>
AV-unprocessed.smi:113-10

> <Gold.Version>
5.8.1

> <Gold.Id.Protein>
6NUR|6NUR_protein|mol2

> <Gold.PLP.Fitness>
51.1829

> <Gold.PLP.PLP>
-41.3384

> <Gold.PLP.part.hbond>
-4.0000

> <Gold.PLP.part.metal>
0.0000

> <Gold.PLP.part.buried>
-5.6447

> <Gold.PLP.part.nonpolar>
-31.8818

> <Gold.PLP.part.repulsive>
0.2117

> <Gold.PLP.ligand.clash>
0.0000

> <Gold.PLP.ligand.torsion>
0.5999

> <Gold.PLP.Chemscore.Hbond>
3.6720

> <Gold.PLP.Chemscore.CHOScore>
0.0000

> <Gold.PLP.Chemscore.Metal>
0.0000

> <Gold.Chemscore.Hbonds>
donor molecule, donor type, donor heavy atom, donor atom, acceptor molecule, acceptor atom, score
      L1  H    19    48       P1  7948  1.00
      L1  H    29    53       P1  8028  2.00
      P1  H  6931  6943       L1     8  0.43
      P1  H  6934  6947       L1     8  0.24

> <Gold.PLP.Chemscore.Internal.Correction>
0.0283

> <Gold.Rescore>
     Score         DG    S(hbond)    S(metal)    S(lipo)     H(rot)  DE(clash)    DE(int)     intcor
     17.22     -18.11       2.60        0.00      99.61       3.01       0.26       0.63       ----

> <Gold.Chemscore.Fitness>
17.2241

> <Gold.Chemscore.DG>
-18.1100

> <Gold.Chemscore.ZeroCoef>
-5.4800

> <Gold.Chemscore.Hbond>
2.6007

> <Gold.Chemscore.Metal>
0.0000

> <Gold.Chemscore.Lipo>
99.6122

> <Gold.Chemscore.Internal_Hbond>
0.0000

> <Gold.Chemscore.DEClash>
0.2575

> <Gold.Chemscore.DEInternal>
0.6284

> <Gold.Chemscore.Rot>
3.0120

> <Gold.Chemscore.Internal.Correction>
   9.000000E+99

> <Gold.Chemscore.Hbonds>
donor molecule, donor type, donor heavy atom, donor atom, acceptor molecule, acceptor atom, score
      L1  H    19    48       P1  7948  0.92
      L1  H    29    53       P1  8028  1.00
      P1  H  6931  6943       L1     8  0.42
      P1  H  6934  6947       L1     8  0.23

> <Gold.Chemscore.Hbond.Weighted>
-8.6862

> <Gold.Chemscore.Metal.Weighted>
-0.0000

> <Gold.Chemscore.Lipo.Weighted>
-11.6546

> <Gold.Chemscore.Internal_Hbond.Weighted>
0.0000

> <Gold.Chemscore.DEClash.Weighted>
0.2575

> <Gold.Chemscore.DEInternal.Weighted>
0.6284

> <Gold.Chemscore.Rot.Weighted>
7.7108

> <Gold.Chemscore.Internal.Correction.Weighted>
   9.000000E+99

> <Gold.Protein.RotatedTorsions>
[ 6907 6896 6895 6894 ] final   18.48 input  -60.11 | X-H torsion
[ 7974 7965 7964 7962 ] final    7.22 input  175.53 | X-H torsion
[ 8008 7997 7996 7995 ] final  135.50 input   59.86 | X-H torsion
[ 10167 10162 10161 10158 ] final -178.43 input  -65.29 | X-H torsion
[ 10718 10713 10712 10709 ] final   -2.74 input   66.30 | X-H torsion
[ 10763 10752 10751 10750 ] final  -53.29 input  -60.55 | X-H torsion
[ 11005 11000 10999 10996 ] final   -9.82 input  -57.11 | X-H torsion

> <Gold.Protein.ActiveResidues>
 VAL166  LYS551  ARG553  GLY616  TRP617  ASP618  TYR619  PRO620  LYS621  CYS622 
 ASP623  PHE694  ASN695  SER759  ASP760  ASP761  ALA762  ILE779  LEU786  VAL792 
 PHE793  MET794  SER795  GLU796  ALA797  LYS798  CYS799  TRP800  GLU811  SER814 

> <Gold.Protein.RotatedAtoms>
  151.8660  135.0507  160.0474 H   0  0  0  0  0  0  0  0  0  0  0  0  # atno 6907 bound_to 6896
  152.2626  133.5306  159.5399 H   0  0  0  0  0  0  0  0  0  0  0  0  # atno 6908 bound_to 6896
  150.7122  134.0725  159.3912 H   0  0  0  0  0  0  0  0  0  0  0  0  # atno 6909 bound_to 6896
  146.2428  140.0116  142.8406 H   0  0  0  0  0  0  0  0  0  0  0  0  # atno 7974 bound_to 7965
  156.3003  140.2469  156.3591 H   0  0  0  0  0  0  0  0  0  0  0  0  # atno 8008 bound_to 7997
  154.8894  140.0410  157.1849 H   0  0  0  0  0  0  0  0  0  0  0  0  # atno 8009 bound_to 7997
  154.8614  140.2921  155.5541 H   0  0  0  0  0  0  0  0  0  0  0  0  # atno 8010 bound_to 7997
  139.5432  144.2305  152.0938 H   0  0  0  0  0  0  0  0  0  0  0  0  # atno 10167 bound_to 10162
  156.7864  130.5347  149.5742 H   0  0  0  0  0  0  0  0  0  0  0  0  # atno 10718 bound_to 10713
  154.1565  135.6481  153.4976 H   0  0  0  0  0  0  0  0  0  0  0  0  # atno 10763 bound_to 10752
  153.0122  135.5350  154.6754 H   0  0  0  0  0  0  0  0  0  0  0  0  # atno 10764 bound_to 10752
  154.6056  135.2948  155.0459 H   0  0  0  0  0  0  0  0  0  0  0  0  # atno 10765 bound_to 10752
  140.7382  133.8692  155.8946 H   0  0  0  0  0  0  0  0  0  0  0  0  # atno 11005 bound_to 11000
  145.1322  140.9524  143.4537 LP  0  0  0  0  0  0  0  0  0  0  0  0  # atno 17320 bound_to 7965
  145.0376  139.3287  143.5993 LP  0  0  0  0  0  0  0  0  0  0  0  0  # atno 17321 bound_to 7965
  140.1787  144.4865  150.6540 LP  0  0  0  0  0  0  0  0  0  0  0  0  # atno 17342 bound_to 10162
  140.6671  143.2272  151.5716 LP  0  0  0  0  0  0  0  0  0  0  0  0  # atno 17343 bound_to 10162
  156.1186  130.6093  151.0159 LP  0  0  0  0  0  0  0  0  0  0  0  0  # atno 17370 bound_to 10713
  157.6622  131.0878  150.7813 LP  0  0  0  0  0  0  0  0  0  0  0  0  # atno 17371 bound_to 10713
  140.9860  134.1341  157.4451 LP  0  0  0  0  0  0  0  0  0  0  0  0  # atno 17394 bound_to 11000
  139.8811  135.0026  156.6134 LP  0  0  0  0  0  0  0  0  0  0  0  0  # atno 17395 bound_to 11000

$$$$
