AV-unprocessed.smi:1173|AV-procd|sdf|4945|dock2
  -GOLD-   22720 3533D 1   1.00000     0.00000
 Structure written by MMmdl.
 37 38  0  0  0  0  0  0  0  0  1 V2000
  150.1791  138.4553  157.5407 C   0  0  0  0  0  0  0  0  0  0  0  0
  151.2353  138.3956  156.5231 N   0  0  0  0  0  0  0  0  0  0  0  0
  150.8574  137.8331  155.2159 C   0  0  0  0  0  0  0  0  0  0  0  0
  150.4596  138.9048  154.1912 C   0  0  0  0  0  0  0  0  0  0  0  0
  149.8508  138.4752  153.0834 N   0  0  0  0  0  0  0  0  0  0  0  0
  150.7088  140.0947  154.3795 O   0  0  0  0  0  0  0  0  0  0  0  0
  152.4951  138.8485  156.7467 C   0  0  0  0  0  0  0  0  0  0  0  0
  153.3703  138.8756  155.8804 O   0  0  0  0  0  0  0  0  0  0  0  0
  152.8285  139.3364  158.1261 C   0  0  0  0  0  0  0  0  0  0  0  0
  152.6008  140.6438  158.3843 N   0  0  0  0  0  0  0  0  0  0  0  0
  152.8958  141.1113  159.6042 C   0  0  0  0  0  0  0  0  0  0  0  0
  152.6498  142.4679  159.8549 N   0  0  0  0  0  0  0  0  0  0  0  0
  152.7980  143.4831  158.8085 C   0  0  0  0  0  0  0  0  0  0  0  0
  151.8471  144.6670  159.0527 C   0  0  0  0  0  0  0  0  0  0  0  0
  152.0607  145.1961  160.3551 O   0  0  0  0  0  0  0  0  0  0  0  0
  151.7839  144.2306  161.3616 C   0  0  0  0  0  0  0  0  0  0  0  0
  152.7310  143.0286  161.2063 C   0  0  0  0  0  0  0  0  0  0  0  0
  153.4083  140.3772  160.6006 N   0  0  0  0  0  0  0  0  0  0  0  0
  153.6548  139.0721  160.3600 C   0  0  0  0  0  0  0  0  0  0  0  0
  153.3824  138.4836  159.1107 C   0  0  0  0  0  0  0  0  0  0  0  0
  153.7370  136.8146  158.8266 Cl  0  0  0  0  0  0  0  0  0  0  0  0
  150.4014  137.7843  158.3704 H   0  0  0  0  0  0  0  0  0  0  0  0
  149.2065  138.1589  157.1476 H   0  0  0  0  0  0  0  0  0  0  0  0
  150.0705  139.4671  157.9340 H   0  0  0  0  0  0  0  0  0  0  0  0
  151.6773  137.2494  154.7965 H   0  0  0  0  0  0  0  0  0  0  0  0
  150.0365  137.1229  155.3327 H   0  0  0  0  0  0  0  0  0  0  0  0
  149.5692  139.1350  152.3729 H   0  0  0  0  0  0  0  0  0  0  0  0
  149.6765  137.4884  152.9582 H   0  0  0  0  0  0  0  0  0  0  0  0
  153.8322  143.8289  158.8031 H   0  0  0  0  0  0  0  0  0  0  0  0
  152.5932  143.0827  157.8160 H   0  0  0  0  0  0  0  0  0  0  0  0
  152.0304  145.4514  158.3182 H   0  0  0  0  0  0  0  0  0  0  0  0
  150.8062  144.3603  158.9372 H   0  0  0  0  0  0  0  0  0  0  0  0
  151.9210  144.6906  162.3403 H   0  0  0  0  0  0  0  0  0  0  0  0
  150.7412  143.9141  161.3029 H   0  0  0  0  0  0  0  0  0  0  0  0
  152.4744  142.2944  161.9697 H   0  0  0  0  0  0  0  0  0  0  0  0
  153.7603  143.3358  161.3945 H   0  0  0  0  0  0  0  0  0  0  0  0
  154.0783  138.4963  161.1695 H   0  0  0  0  0  0  0  0  0  0  0  0
  1  2  1  0  0  0  0
  1 22  1  0  0  0  0
  1 23  1  0  0  0  0
  1 24  1  0  0  0  0
  2  3  1  0  0  0  0
  2  7  1  0  0  0  0
  3  4  1  0  0  0  0
  3 25  1  0  0  0  0
  3 26  1  0  0  0  0
  4  5  1  0  0  0  0
  4  6  2  0  0  0  0
  5 27  1  0  0  0  0
  5 28  1  0  0  0  0
  7  8  2  0  0  0  0
  7  9  1  0  0  0  0
  9 20  1  0  0  0  0
  9 10  2  0  0  0  0
 10 11  1  0  0  0  0
 11 12  1  0  0  0  0
 11 18  2  0  0  0  0
 12 17  1  0  0  0  0
 12 13  1  0  0  0  0
 13 14  1  0  0  0  0
 13 29  1  0  0  0  0
 13 30  1  0  0  0  0
 14 15  1  0  0  0  0
 14 31  1  0  0  0  0
 14 32  1  0  0  0  0
 15 16  1  0  0  0  0
 16 17  1  0  0  0  0
 16 33  1  0  0  0  0
 16 34  1  0  0  0  0
 17 35  1  0  0  0  0
 17 36  1  0  0  0  0
 18 19  1  0  0  0  0
 19 20  2  0  0  0  0
 19 37  1  0  0  0  0
 20 21  1  0  0  0  0
M  END
> <s_m_source_file>
AV-unprocessed.smi

> <i_m_source_file_index>
1173

> <i_lp_mmshare_version>
43012

> <i_f3d_flags>
0

> <s_epik_input>
W05IMl1DKD1PKVtDSDJdTihbQ0gzXSlDKD1PKWMxbmMobltjSF1jMUNsKU4yW0NIMl1bQ0gyXU9bQ0gyXVtDSDJdMg==

> <s_epik_cmdline>
J2VwaWtfcHl0aG9uJywgJy1waCcsICc3LjAnLCAnLXRuJywgJzgnLCAnLW1hJywgJzIwMCcsICctbWV0YWxfYmluZGluZycsICctaW1hZScsICc8aW5maWxlLm1hZT4nLCAnLW9tYWUnLCAnPG91dGZpbGUubWFlPic=

> <r_lp_tautomer_probability>
1

> <r_epik_Ionization_Penalty>
9.52456e-08

> <r_epik_Ionization_Penalty_Charging>
0

> <r_epik_Ionization_Penalty_Neutral>
9.52456e-08

> <r_epik_State_Penalty>
-0

> <r_epik_Charging_Adjusted_Penalty>
0

> <i_epik_Tot_Q>
0

> <i_epik_Tot_abs_Q>
0

> <r_epik_Metal_State_Penalty>
-0

> <b_epik_Metal_Only>
0

> <s_lp_Force_Field>
OPLS_2005

> <r_lp_Energy>
19.8888

> <b_lp_Chiralities_Consistent>
1

> <s_lp_Variant>
AV-unprocessed.smi:1173-1

> <Gold.Version>
5.8.1

> <Gold.Id.Protein>
6NUR|6NUR_protein|mol2

> <Gold.PLP.Fitness>
47.9962

> <Gold.PLP.PLP>
-39.3309

> <Gold.PLP.part.hbond>
-4.2826

> <Gold.PLP.part.metal>
0.0000

> <Gold.PLP.part.buried>
-4.4087

> <Gold.PLP.part.nonpolar>
-30.4007

> <Gold.PLP.part.repulsive>
0.3491

> <Gold.PLP.ligand.clash>
0.0000

> <Gold.PLP.ligand.torsion>
2.2627

> <Gold.PLP.Chemscore.Hbond>
3.8000

> <Gold.PLP.Chemscore.CHOScore>
0.0000

> <Gold.PLP.Chemscore.Metal>
0.0000

> <Gold.Chemscore.Hbonds>
donor molecule, donor type, donor heavy atom, donor atom, acceptor molecule, acceptor atom, score
      L1  H     5    27       P1  7957  0.93
      L1  H     5    28       P1  7948  0.90
      P1  H  7989  7998       L1     6  0.91
      P1  H  7997  8010       L1     8  1.00

> <Gold.PLP.Chemscore.Internal.Correction>
1.7907

> <Gold.Rescore>
     Score         DG    S(hbond)    S(metal)    S(lipo)     H(rot)  DE(clash)    DE(int)     intcor
     19.75     -21.81       3.42        0.00      75.64       1.54       0.04       2.02       ----

> <Gold.Chemscore.Fitness>
19.7465

> <Gold.Chemscore.DG>
-21.8109

> <Gold.Chemscore.ZeroCoef>
-5.4800

> <Gold.Chemscore.Hbond>
3.4183

> <Gold.Chemscore.Metal>
0.0000

> <Gold.Chemscore.Lipo>
75.6438

> <Gold.Chemscore.Internal_Hbond>
0.0000

> <Gold.Chemscore.DEClash>
0.0402

> <Gold.Chemscore.DEInternal>
2.0242

> <Gold.Chemscore.Rot>
1.5377

> <Gold.Chemscore.Internal.Correction>
   9.000000E+99

> <Gold.Chemscore.Hbonds>
donor molecule, donor type, donor heavy atom, donor atom, acceptor molecule, acceptor atom, score
      L1  H     5    27       P1  7957  0.80
      L1  H     5    28       P1  7948  0.53
      P1  H  7989  7998       L1     6  0.86
      P1  H  7997  8010       L1     8  0.66

> <Gold.Chemscore.Hbond.Weighted>
-11.4171

> <Gold.Chemscore.Metal.Weighted>
-0.0000

> <Gold.Chemscore.Lipo.Weighted>
-8.8503

> <Gold.Chemscore.Internal_Hbond.Weighted>
0.0000

> <Gold.Chemscore.DEClash.Weighted>
0.0402

> <Gold.Chemscore.DEInternal.Weighted>
2.0242

> <Gold.Chemscore.Rot.Weighted>
3.9366

> <Gold.Chemscore.Internal.Correction.Weighted>
   9.000000E+99

> <Gold.Protein.RotatedTorsions>
[ 6907 6896 6895 6894 ] final -142.59 input  -60.11 | X-H torsion
[ 7974 7965 7964 7962 ] final  101.28 input  175.53 | X-H torsion
[ 8008 7997 7996 7995 ] final   87.12 input   59.86 | X-H torsion
[ 10167 10162 10161 10158 ] final -117.00 input  -65.29 | X-H torsion
[ 10718 10713 10712 10709 ] final  176.07 input   66.30 | X-H torsion
[ 10763 10752 10751 10750 ] final  -25.49 input  -60.55 | X-H torsion
[ 11005 11000 10999 10996 ] final   45.09 input  -57.11 | X-H torsion

> <Gold.Protein.ActiveResidues>
 VAL166  LYS551  ARG553  GLY616  TRP617  ASP618  TYR619  PRO620  LYS621  CYS622 
 ASP623  PHE694  ASN695  SER759  ASP760  ASP761  ALA762  ILE779  LEU786  VAL792 
 PHE793  MET794  SER795  GLU796  ALA797  LYS798  CYS799  TRP800  GLU811  SER814 

> <Gold.Protein.RotatedAtoms>
  151.0891  133.5330  159.2615 H   0  0  0  0  0  0  0  0  0  0  0  0  # atno 6907 bound_to 6896
  151.2204  135.0515  159.8957 H   0  0  0  0  0  0  0  0  0  0  0  0  # atno 6908 bound_to 6896
  152.5432  134.0694  159.8241 H   0  0  0  0  0  0  0  0  0  0  0  0  # atno 6909 bound_to 6896
  145.3744  139.2391  143.3437 H   0  0  0  0  0  0  0  0  0  0  0  0  # atno 7974 bound_to 7965
  155.9714  140.3385  155.6579 H   0  0  0  0  0  0  0  0  0  0  0  0  # atno 8008 bound_to 7997
  155.6669  140.0722  157.2552 H   0  0  0  0  0  0  0  0  0  0  0  0  # atno 8009 bound_to 7997
  154.4167  140.1698  156.1824 H   0  0  0  0  0  0  0  0  0  0  0  0  # atno 8010 bound_to 7997
  140.0731  143.4858  152.1968 H   0  0  0  0  0  0  0  0  0  0  0  0  # atno 10167 bound_to 10162
  156.9256  130.9954  151.2997 H   0  0  0  0  0  0  0  0  0  0  0  0  # atno 10718 bound_to 10713
  153.7007  135.6956  153.5064 H   0  0  0  0  0  0  0  0  0  0  0  0  # atno 10763 bound_to 10752
  153.2344  135.4326  155.0630 H   0  0  0  0  0  0  0  0  0  0  0  0  # atno 10764 bound_to 10752
  154.8345  135.3492  154.6546 H   0  0  0  0  0  0  0  0  0  0  0  0  # atno 10765 bound_to 10752
  140.1491  134.4484  155.8394 H   0  0  0  0  0  0  0  0  0  0  0  0  # atno 11005 bound_to 11000
  146.2870  140.4401  142.8754 LP  0  0  0  0  0  0  0  0  0  0  0  0  # atno 17320 bound_to 7965
  144.8553  140.7061  143.6142 LP  0  0  0  0  0  0  0  0  0  0  0  0  # atno 17321 bound_to 7965
  139.5824  144.7516  151.3607 LP  0  0  0  0  0  0  0  0  0  0  0  0  # atno 17342 bound_to 10162
  140.7115  143.7377  150.7576 LP  0  0  0  0  0  0  0  0  0  0  0  0  # atno 17343 bound_to 10162
  157.5880  130.8423  149.8618 LP  0  0  0  0  0  0  0  0  0  0  0  0  # atno 17370 bound_to 10713
  156.0471  130.3725  150.1291 LP  0  0  0  0  0  0  0  0  0  0  0  0  # atno 17371 bound_to 10713
  141.2196  133.6865  156.7389 LP  0  0  0  0  0  0  0  0  0  0  0  0  # atno 17394 bound_to 11000
  140.2627  134.8454  157.3773 LP  0  0  0  0  0  0  0  0  0  0  0  0  # atno 17395 bound_to 11000

$$$$
