AV-unprocessed.smi:265|AV-procd|sdf|2019|dock5
  -GOLD-   2262021223D 1   1.00000     0.00000
 Structure written by MMmdl.
 52 56  0  0  0  0  0  0  0  0  1 V2000
  148.3349  135.3067  159.1004 C   0  0  0  0  0  0  0  0  0  0  0  0
  147.3350  135.1464  160.2566 C   0  0  2  0  0  0  0  0  0  0  0  0
  147.7293  136.0350  161.2988 O   0  0  0  0  0  0  0  0  0  0  0  0
  147.3309  135.4860  162.5419 C   0  0  0  0  0  0  0  0  0  0  0  0
  147.6503  134.0101  162.3613 C   0  0  0  0  0  0  0  0  0  0  0  0
  147.2403  133.7405  160.9154 C   0  0  1  0  0  0  0  0  0  0  0  0
  145.8759  133.3556  160.9166 O   0  0  0  0  0  0  0  0  0  0  0  0
  148.0583  132.6079  160.2406 C   0  0  0  0  0  0  0  0  0  0  0  0
  147.8301  132.5013  158.8070 N   0  0  0  0  0  0  0  0  0  0  0  0
  146.6140  132.4076  158.1666 C   0  0  0  0  0  0  0  0  0  0  0  0
  146.6727  132.3215  156.8653 N   0  0  0  0  0  0  0  0  0  0  0  0
  148.0336  132.3458  156.5901 C   0  0  0  0  0  0  0  0  0  0  0  0
  148.7992  132.2795  155.3973 C   0  0  0  0  0  0  0  0  0  0  0  0
  148.2202  132.1804  154.1816 N   0  0  0  0  0  0  0  0  0  0  0  0
  147.2589  131.0861  154.0977 C   0  0  0  0  0  0  0  0  0  0  0  0
  146.8369  130.8480  152.6394 C   0  0  0  0  0  0  0  0  0  0  0  0
  146.3301  132.1379  151.9711 C   0  0  1  0  0  0  0  0  0  0  0  0
  145.0885  132.5335  152.5399 O   0  0  0  0  0  0  0  0  0  0  0  0
  144.4589  133.6168  151.8526 C   0  0  0  0  0  0  0  0  0  0  0  0
  145.4236  134.7905  151.5999 C   0  0  0  0  0  0  0  0  0  0  0  0
  144.9794  135.8919  151.2844 O   0  0  0  0  0  0  0  0  0  0  0  0
  146.7425  134.5570  151.6932 N   0  0  0  0  0  0  0  0  0  0  0  0
  147.3240  133.3046  152.1652 C   0  0  1  0  0  0  0  0  0  0  0  0
  147.7392  133.4494  153.6435 C   0  0  0  0  0  0  0  0  0  0  0  0
  150.1533  132.3281  155.5043 N   0  0  0  0  0  0  0  0  0  0  0  0
  150.7223  132.4331  156.7095 C   0  0  0  0  0  0  0  0  0  0  0  0
  150.1357  132.5025  157.9071 N   0  0  0  0  0  0  0  0  0  0  0  0
  148.7766  132.4560  157.7982 C   0  0  0  0  0  0  0  0  0  0  0  0
  146.1811  131.9415  150.9075 H   0  0  0  0  0  0  0  0  0  0  0  0
  148.2167  133.1061  151.5708 H   0  0  0  0  0  0  0  0  0  0  0  0
  148.0772  134.6641  158.2584 H   0  0  0  0  0  0  0  0  0  0  0  0
  149.3519  135.0701  159.4134 H   0  0  0  0  0  0  0  0  0  0  0  0
  148.3377  136.3339  158.7357 H   0  0  0  0  0  0  0  0  0  0  0  0
  146.3525  135.4692  159.9068 H   0  0  0  0  0  0  0  0  0  0  0  0
  147.8716  135.9377  163.3738 H   0  0  0  0  0  0  0  0  0  0  0  0
  146.2620  135.6442  162.6931 H   0  0  0  0  0  0  0  0  0  0  0  0
  148.7259  133.8714  162.4777 H   0  0  0  0  0  0  0  0  0  0  0  0
  147.1519  133.3695  163.0905 H   0  0  0  0  0  0  0  0  0  0  0  0
  145.6784  132.9538  161.7488 H   0  0  0  0  0  0  0  0  0  0  0  0
  149.1257  132.7617  160.4044 H   0  0  0  0  0  0  0  0  0  0  0  0
  147.8142  131.6427  160.6848 H   0  0  0  0  0  0  0  0  0  0  0  0
  145.6737  132.4078  158.6983 H   0  0  0  0  0  0  0  0  0  0  0  0
  147.6941  130.1745  154.5097 H   0  0  0  0  0  0  0  0  0  0  0  0
  146.3836  131.3246  154.7039 H   0  0  0  0  0  0  0  0  0  0  0  0
  147.6936  130.4704  152.0798 H   0  0  0  0  0  0  0  0  0  0  0  0
  146.0717  130.0728  152.5912 H   0  0  0  0  0  0  0  0  0  0  0  0
  144.0746  133.2645  150.8947 H   0  0  0  0  0  0  0  0  0  0  0  0
  143.6048  133.9604  152.4366 H   0  0  0  0  0  0  0  0  0  0  0  0
  147.3775  135.3158  151.4928 H   0  0  0  0  0  0  0  0  0  0  0  0
  146.8896  133.7918  154.2367 H   0  0  0  0  0  0  0  0  0  0  0  0
  148.5191  134.2065  153.7379 H   0  0  0  0  0  0  0  0  0  0  0  0
  151.8018  132.4673  156.7155 H   0  0  0  0  0  0  0  0  0  0  0  0
  1  2  1  0  0  0  0
  1 31  1  0  0  0  0
  1 32  1  0  0  0  0
  1 33  1  0  0  0  0
  2  6  1  0  0  0  0
  2  3  1  0  0  0  0
  2 34  1  0  0  0  0
  3  4  1  0  0  0  0
  4  5  1  0  0  0  0
  4 35  1  0  0  0  0
  4 36  1  0  0  0  0
  5  6  1  0  0  0  0
  5 37  1  0  0  0  0
  5 38  1  0  0  0  0
  6  7  1  0  0  0  0
  6  8  1  0  0  0  0
  7 39  1  0  0  0  0
  8  9  1  0  0  0  0
  8 40  1  0  0  0  0
  8 41  1  0  0  0  0
  9 28  1  0  0  0  0
  9 10  1  0  0  0  0
 10 11  2  0  0  0  0
 10 42  1  0  0  0  0
 11 12  1  0  0  0  0
 12 28  2  0  0  0  0
 12 13  1  0  0  0  0
 13 14  1  0  0  0  0
 13 25  2  0  0  0  0
 14 24  1  0  0  0  0
 14 15  1  0  0  0  0
 15 16  1  0  0  0  0
 15 43  1  0  0  0  0
 15 44  1  0  0  0  0
 16 17  1  0  0  0  0
 16 45  1  0  0  0  0
 16 46  1  0  0  0  0
 17 29  1  0  0  0  0
 17 23  1  0  0  0  0
 17 18  1  0  0  0  0
 18 19  1  0  0  0  0
 19 20  1  0  0  0  0
 19 47  1  0  0  0  0
 19 48  1  0  0  0  0
 20 21  2  0  0  0  0
 20 22  1  0  0  0  0
 22 23  1  0  0  0  0
 22 49  1  0  0  0  0
 23 30  1  0  0  0  0
 23 24  1  0  0  0  0
 24 50  1  0  0  0  0
 24 51  1  0  0  0  0
 25 26  1  0  0  0  0
 26 27  2  0  0  0  0
 26 52  1  0  0  0  0
 27 28  1  0  0  0  0
M  END
> <s_m_source_file>
AV-unprocessed.smi

> <i_m_source_file_index>
265

> <i_lp_mmshare_version>
43012

> <i_f3d_flags>
0

> <s_epik_input>
W0NIMl0xW0NIMl1PW0NAQEhdKFtDSDNdKVtDQEBdMShbT0hdKVtDSDJdbihbY0hdbjIpYyhjMjMpbltjSF1uYzNOKFtDSDJdW0NIMl00KVtDSDJdW0NAQEhdKFtDQEhdNDUpW05IXUMoPU8pW0NIMl1PNQ==

> <s_epik_cmdline>
J2VwaWtfcHl0aG9uJywgJy1waCcsICc3LjAnLCAnLXRuJywgJzgnLCAnLW1hJywgJzIwMCcsICctbWV0YWxfYmluZGluZycsICctaW1hZScsICc8aW5maWxlLm1hZT4nLCAnLW9tYWUnLCAnPG91dGZpbGUubWFlPic=

> <r_lp_tautomer_probability>
1

> <r_epik_Ionization_Penalty>
0.00221504

> <r_epik_Ionization_Penalty_Charging>
0

> <r_epik_Ionization_Penalty_Neutral>
0.00221504

> <r_epik_State_Penalty>
-0

> <r_epik_Charging_Adjusted_Penalty>
0

> <i_epik_Tot_Q>
0

> <i_epik_Tot_abs_Q>
0

> <r_epik_Metal_State_Penalty>
-0

> <b_epik_Metal_Only>
0

> <s_lp_Force_Field>
OPLS_2005

> <r_lp_Energy>
45.6992

> <b_lp_Chiralities_Consistent>
1

> <s_lp_Variant>
AV-unprocessed.smi:265-5

> <Gold.Version>
5.8.1

> <Gold.Id.Protein>
6NUR|6NUR_protein|mol2

> <Gold.PLP.Fitness>
38.8015

> <Gold.PLP.PLP>
-33.6311

> <Gold.PLP.part.hbond>
-2.0000

> <Gold.PLP.part.metal>
0.0000

> <Gold.PLP.part.buried>
-5.6783

> <Gold.PLP.part.nonpolar>
-26.3897

> <Gold.PLP.part.repulsive>
0.5140

> <Gold.PLP.ligand.clash>
0.0000

> <Gold.PLP.ligand.torsion>
0.5015

> <Gold.PLP.Chemscore.Hbond>
2.0000

> <Gold.PLP.Chemscore.CHOScore>
0.0000

> <Gold.PLP.Chemscore.Metal>
0.0000

> <Gold.Chemscore.Hbonds>
donor molecule, donor type, donor heavy atom, donor atom, acceptor molecule, acceptor atom, score
      L1  H    22    49       P1  7948  1.00
      P1  H  6896  6909       L1    27  1.00

> <Gold.PLP.Chemscore.Internal.Correction>
0.1734

> <Gold.Rescore>
     Score         DG    S(hbond)    S(metal)    S(lipo)     H(rot)  DE(clash)    DE(int)     intcor
     14.57     -17.10       2.65        0.00      72.84       2.25       0.02       2.51       ----

> <Gold.Chemscore.Fitness>
14.5689

> <Gold.Chemscore.DG>
-17.0962

> <Gold.Chemscore.ZeroCoef>
-5.4800

> <Gold.Chemscore.Hbond>
2.6472

> <Gold.Chemscore.Metal>
0.0000

> <Gold.Chemscore.Lipo>
72.8416

> <Gold.Chemscore.Internal_Hbond>
0.0000

> <Gold.Chemscore.DEClash>
0.0172

> <Gold.Chemscore.DEInternal>
2.5100

> <Gold.Chemscore.Rot>
2.2453

> <Gold.Chemscore.Internal.Correction>
   9.000000E+99

> <Gold.Chemscore.Hbonds>
donor molecule, donor type, donor heavy atom, donor atom, acceptor molecule, acceptor atom, score
      L1  H    22    49       P1  7948  0.83
      P1  H  6896  6909       L1    27  0.81

> <Gold.Chemscore.Hbond.Weighted>
-8.8416

> <Gold.Chemscore.Metal.Weighted>
-0.0000

> <Gold.Chemscore.Lipo.Weighted>
-8.5225

> <Gold.Chemscore.Internal_Hbond.Weighted>
0.0000

> <Gold.Chemscore.DEClash.Weighted>
0.0172

> <Gold.Chemscore.DEInternal.Weighted>
2.5100

> <Gold.Chemscore.Rot.Weighted>
5.7479

> <Gold.Chemscore.Internal.Correction.Weighted>
   9.000000E+99

> <Gold.Protein.RotatedTorsions>
[ 6907 6896 6895 6894 ] final  -36.78 input  -60.11 | X-H torsion
[ 7974 7965 7964 7962 ] final  -33.38 input  175.53 | X-H torsion
[ 8008 7997 7996 7995 ] final -174.49 input   59.86 | X-H torsion
[ 10167 10162 10161 10158 ] final  -58.74 input  -65.29 | X-H torsion
[ 10718 10713 10712 10709 ] final  -26.32 input   66.30 | X-H torsion
[ 10763 10752 10751 10750 ] final  141.80 input  -60.55 | X-H torsion
[ 11005 11000 10999 10996 ] final  101.19 input  -57.11 | X-H torsion

> <Gold.Protein.ActiveResidues>
 VAL166  LYS551  ARG553  GLY616  TRP617  ASP618  TYR619  PRO620  LYS621  CYS622 
 ASP623  PHE694  ASN695  SER759  ASP760  ASP761  ALA762  ILE779  LEU786  VAL792 
 PHE793  MET794  SER795  GLU796  ALA797  LYS798  CYS799  TRP800  GLU811  SER814 

> <Gold.Protein.RotatedAtoms>
  151.0229  134.9483  159.8069 H   0  0  0  0  0  0  0  0  0  0  0  0  # atno 6907 bound_to 6896
  152.5329  134.2879  159.9042 H   0  0  0  0  0  0  0  0  0  0  0  0  # atno 6908 bound_to 6896
  151.2887  133.4133  159.2666 H   0  0  0  0  0  0  0  0  0  0  0  0  # atno 6909 bound_to 6896
  146.0915  140.5909  142.8862 H   0  0  0  0  0  0  0  0  0  0  0  0  # atno 7974 bound_to 7965
  155.9708  140.1162  157.0814 H   0  0  0  0  0  0  0  0  0  0  0  0  # atno 8008 bound_to 7997
  154.4156  140.1163  156.5371 H   0  0  0  0  0  0  0  0  0  0  0  0  # atno 8009 bound_to 7997
  155.6600  140.3473  155.4781 H   0  0  0  0  0  0  0  0  0  0  0  0  # atno 8010 bound_to 7997
  140.6178  143.2408  151.5554 H   0  0  0  0  0  0  0  0  0  0  0  0  # atno 10167 bound_to 10162
  156.4527  130.4487  149.6979 H   0  0  0  0  0  0  0  0  0  0  0  0  # atno 10718 bound_to 10713
  153.9453  135.2975  155.3441 H   0  0  0  0  0  0  0  0  0  0  0  0  # atno 10763 bound_to 10752
  154.7455  135.5005  153.9200 H   0  0  0  0  0  0  0  0  0  0  0  0  # atno 10764 bound_to 10752
  153.1021  135.6737  153.9760 H   0  0  0  0  0  0  0  0  0  0  0  0  # atno 10765 bound_to 10752
  139.8772  134.9172  156.4870 H   0  0  0  0  0  0  0  0  0  0  0  0  # atno 11005 bound_to 11000
  144.7364  140.4819  143.6901 LP  0  0  0  0  0  0  0  0  0  0  0  0  # atno 17320 bound_to 7965
  145.6030  139.1505  143.3118 LP  0  0  0  0  0  0  0  0  0  0  0  0  # atno 17321 bound_to 7965
  139.5413  144.2639  152.1357 LP  0  0  0  0  0  0  0  0  0  0  0  0  # atno 17342 bound_to 10162
  140.1852  144.4805  150.6507 LP  0  0  0  0  0  0  0  0  0  0  0  0  # atno 17343 bound_to 10162
  156.3799  130.7573  151.2565 LP  0  0  0  0  0  0  0  0  0  0  0  0  # atno 17370 bound_to 10713
  157.7502  131.0299  150.4112 LP  0  0  0  0  0  0  0  0  0  0  0  0  # atno 17371 bound_to 10713
  140.8686  133.8005  155.9340 LP  0  0  0  0  0  0  0  0  0  0  0  0  # atno 17394 bound_to 11000
  140.8976  134.2418  157.5060 LP  0  0  0  0  0  0  0  0  0  0  0  0  # atno 17395 bound_to 11000

$$$$
