AV-unprocessed.smi:2339|AV-procd|sdf|9342|dock6
  -GOLD-   2272012563D 1   1.00000     0.00000
 Structure written by MMmdl.
 49 52  0  0  0  0  0  0  0  0  1 V2000
  147.0694  128.3157  151.5855 C   0  0  0  0  0  0  0  0  0  0  0  0
  146.5992  129.1828  152.7586 C   0  0  0  0  0  0  0  0  0  0  0  0
  146.4598  130.5802  152.3753 N   0  0  0  0  0  0  0  0  0  0  0  0
  145.5711  130.9695  151.3785 C   0  0  0  0  0  0  0  0  0  0  0  0
  145.4454  132.2335  150.9302 C   0  0  0  0  0  0  0  0  0  0  0  0
  146.2943  133.2940  151.5095 C   0  0  0  0  0  0  0  0  0  0  0  0
  146.2074  134.4599  151.1236 O   0  0  0  0  0  0  0  0  0  0  0  0
  147.2485  132.8767  152.5703 C   0  0  0  0  0  0  0  0  0  0  0  0
  148.0472  133.8935  153.1157 N   0  0  0  0  0  0  0  0  0  0  0  0
  148.8276  133.8787  154.2155 C   0  0  0  0  0  0  0  0  0  0  0  0
  148.9815  132.9192  154.9677 O   0  0  0  0  0  0  0  0  0  0  0  0
  149.4961  135.0283  154.4132 N   0  0  0  0  0  0  0  0  0  0  0  0
  150.4245  135.3471  155.5061 C   0  0  2  0  0  0  0  0  0  0  0  0
  149.7642  135.3752  156.9071 C   0  0  2  0  0  0  0  0  0  0  0  0
  148.3758  134.8505  157.1857 C   0  0  0  0  0  0  0  0  0  0  0  0
  147.5116  136.1127  157.1144 C   0  0  0  0  0  0  0  0  0  0  0  0
  148.2900  137.0472  156.3703 O   0  0  0  0  0  0  0  0  0  0  0  0
  149.6516  136.8840  156.7581 C   0  0  2  0  0  0  0  0  0  0  0  0
  150.6920  136.8671  155.6201 C   0  0  0  0  0  0  0  0  0  0  0  0
  150.4527  137.7902  154.4248 C   0  0  0  0  0  0  0  0  0  0  0  0
  151.1254  139.1246  154.7532 C   0  0  0  0  0  0  0  0  0  0  0  0
  152.2263  138.7907  155.7642 C   0  0  0  0  0  0  0  0  0  0  0  0
  152.1028  137.2871  156.0312 C   0  0  0  0  0  0  0  0  0  0  0  0
  147.2697  131.5685  152.9314 C   0  0  0  0  0  0  0  0  0  0  0  0
  147.1771  127.2754  151.8926 H   0  0  0  0  0  0  0  0  0  0  0  0
  148.0350  128.6530  151.2082 H   0  0  0  0  0  0  0  0  0  0  0  0
  146.3562  128.3482  150.7614 H   0  0  0  0  0  0  0  0  0  0  0  0
  145.6454  128.8115  153.1354 H   0  0  0  0  0  0  0  0  0  0  0  0
  147.3060  129.1016  153.5855 H   0  0  0  0  0  0  0  0  0  0  0  0
  144.9671  130.1662  150.9819 H   0  0  0  0  0  0  0  0  0  0  0  0
  144.7381  132.4895  150.1551 H   0  0  0  0  0  0  0  0  0  0  0  0
  148.0602  134.7473  152.5768 H   0  0  0  0  0  0  0  0  0  0  0  0
  149.4024  135.7352  153.6979 H   0  0  0  0  0  0  0  0  0  0  0  0
  151.3494  134.7682  155.4828 H   0  0  0  0  0  0  0  0  0  0  0  0
  150.4917  135.1135  157.6773 H   0  0  0  0  0  0  0  0  0  0  0  0
  148.0547  134.1113  156.4538 H   0  0  0  0  0  0  0  0  0  0  0  0
  148.3031  134.3826  158.1678 H   0  0  0  0  0  0  0  0  0  0  0  0
  146.5445  135.9341  156.6442 H   0  0  0  0  0  0  0  0  0  0  0  0
  147.3369  136.5134  158.1140 H   0  0  0  0  0  0  0  0  0  0  0  0
  149.9216  137.4438  157.6548 H   0  0  0  0  0  0  0  0  0  0  0  0
  150.9135  137.3663  153.5313 H   0  0  0  0  0  0  0  0  0  0  0  0
  149.3948  137.9260  154.1984 H   0  0  0  0  0  0  0  0  0  0  0  0
  151.5180  139.6097  153.8591 H   0  0  0  0  0  0  0  0  0  0  0  0
  150.4035  139.8048  155.2068 H   0  0  0  0  0  0  0  0  0  0  0  0
  153.2174  139.0457  155.3875 H   0  0  0  0  0  0  0  0  0  0  0  0
  152.0692  139.3552  156.6841 H   0  0  0  0  0  0  0  0  0  0  0  0
  152.3231  137.0502  157.0729 H   0  0  0  0  0  0  0  0  0  0  0  0
  152.8389  136.7540  155.4277 H   0  0  0  0  0  0  0  0  0  0  0  0
  147.9158  131.1823  153.7035 H   0  0  0  0  0  0  0  0  0  0  0  0
  1  2  1  0  0  0  0
  1 25  1  0  0  0  0
  1 26  1  0  0  0  0
  1 27  1  0  0  0  0
  2  3  1  0  0  0  0
  2 28  1  0  0  0  0
  2 29  1  0  0  0  0
  3 24  1  0  0  0  0
  3  4  1  0  0  0  0
  4  5  2  0  0  0  0
  4 30  1  0  0  0  0
  5  6  1  0  0  0  0
  5 31  1  0  0  0  0
  6  7  2  0  0  0  0
  6  8  1  0  0  0  0
  8  9  1  0  0  0  0
  8 24  2  0  0  0  0
  9 10  1  0  0  0  0
  9 32  1  0  0  0  0
 10 11  2  0  0  0  0
 10 12  1  0  0  0  0
 12 13  1  0  0  0  0
 12 33  1  0  0  0  0
 13 19  1  0  0  0  0
 13 14  1  0  0  0  0
 13 34  1  0  0  0  0
 14 18  1  0  0  0  0
 14 15  1  0  0  0  0
 14 35  1  0  0  0  0
 15 16  1  0  0  0  0
 15 36  1  0  0  0  0
 15 37  1  0  0  0  0
 16 17  1  0  0  0  0
 16 38  1  0  0  0  0
 16 39  1  0  0  0  0
 17 18  1  0  0  0  0
 18 19  1  0  0  0  0
 18 40  1  0  0  0  0
 19 23  1  0  0  0  0
 19 20  1  0  0  0  0
 20 21  1  0  0  0  0
 20 41  1  0  0  0  0
 20 42  1  0  0  0  0
 21 22  1  0  0  0  0
 21 43  1  0  0  0  0
 21 44  1  0  0  0  0
 22 23  1  0  0  0  0
 22 45  1  0  0  0  0
 22 46  1  0  0  0  0
 23 47  1  0  0  0  0
 23 48  1  0  0  0  0
 24 49  1  0  0  0  0
M  END
> <s_m_source_file>
AV-unprocessed.smi

> <i_m_source_file_index>
2339

> <i_lp_mmshare_version>
43012

> <i_f3d_flags>
0

> <s_epik_input>
W0NIM11bQ0gyXW4xW2NIXVtjSF1jKD1PKWMoW2NIXTEpW05IXUMoPU8pW05IXVtDQEBIXTJbQ0BASF0oW0NIMl1bQ0gyXU8zKVtDQEBIXTNDMjRbQ0gyXVtDSDJdW0NIMl1bQ0gyXTQ=

> <s_epik_cmdline>
J2VwaWtfcHl0aG9uJywgJy1waCcsICc3LjAnLCAnLXRuJywgJzgnLCAnLW1hJywgJzIwMCcsICctbWV0YWxfYmluZGluZycsICctaW1hZScsICc8aW5maWxlLm1hZT4nLCAnLW9tYWUnLCAnPG91dGZpbGUubWFlPic=

> <r_lp_tautomer_probability>
1

> <r_epik_Ionization_Penalty>
0.00145966

> <r_epik_Ionization_Penalty_Charging>
0.00143969

> <r_epik_Ionization_Penalty_Neutral>
1.99697e-05

> <r_epik_State_Penalty>
0.000961843

> <r_epik_Charging_Adjusted_Penalty>
0.00240153

> <i_epik_Tot_Q>
0

> <i_epik_Tot_abs_Q>
0

> <r_epik_Metal_State_Penalty>
-0

> <b_epik_Metal_Only>
0

> <s_lp_Force_Field>
OPLS_2005

> <r_lp_Energy>
59.2385

> <b_lp_Chiralities_Consistent>
1

> <s_lp_Variant>
AV-unprocessed.smi:2339-7

> <Gold.Version>
5.8.1

> <Gold.Id.Protein>
6NUR|6NUR_protein|mol2

> <Gold.PLP.Fitness>
43.1174

> <Gold.PLP.PLP>
-37.2522

> <Gold.PLP.part.hbond>
-2.0000

> <Gold.PLP.part.metal>
0.0000

> <Gold.PLP.part.buried>
-3.2044

> <Gold.PLP.part.nonpolar>
-31.6836

> <Gold.PLP.part.repulsive>
0.2639

> <Gold.PLP.ligand.clash>
0.0000

> <Gold.PLP.ligand.torsion>
0.1565

> <Gold.PLP.Chemscore.Hbond>
1.9920

> <Gold.PLP.Chemscore.CHOScore>
0.0000

> <Gold.PLP.Chemscore.Metal>
0.0000

> <Gold.Chemscore.Hbonds>
donor molecule, donor type, donor heavy atom, donor atom, acceptor molecule, acceptor atom, score
      L1  H     9    32       P1  7948  1.00
      L1  H    12    33       P1  7948  0.99

> <Gold.PLP.Chemscore.Internal.Correction>
0.2022

> <Gold.Rescore>
     Score         DG    S(hbond)    S(metal)    S(lipo)     H(rot)  DE(clash)    DE(int)     intcor
     16.72     -18.02       1.42        0.00      92.27       1.17       0.05       1.25       ----

> <Gold.Chemscore.Fitness>
16.7163

> <Gold.Chemscore.DG>
-18.0157

> <Gold.Chemscore.ZeroCoef>
-5.4800

> <Gold.Chemscore.Hbond>
1.4156

> <Gold.Chemscore.Metal>
0.0000

> <Gold.Chemscore.Lipo>
92.2660

> <Gold.Chemscore.Internal_Hbond>
0.0000

> <Gold.Chemscore.DEClash>
0.0489

> <Gold.Chemscore.DEInternal>
1.2504

> <Gold.Chemscore.Rot>
1.1670

> <Gold.Chemscore.Internal.Correction>
   9.000000E+99

> <Gold.Chemscore.Hbonds>
donor molecule, donor type, donor heavy atom, donor atom, acceptor molecule, acceptor atom, score
      L1  H     9    32       P1  7948  0.62
      L1  H    12    33       P1  7948  0.42

> <Gold.Chemscore.Hbond.Weighted>
-4.7280

> <Gold.Chemscore.Metal.Weighted>
-0.0000

> <Gold.Chemscore.Lipo.Weighted>
-10.7951

> <Gold.Chemscore.Internal_Hbond.Weighted>
0.0000

> <Gold.Chemscore.DEClash.Weighted>
0.0489

> <Gold.Chemscore.DEInternal.Weighted>
1.2504

> <Gold.Chemscore.Rot.Weighted>
2.9874

> <Gold.Chemscore.Internal.Correction.Weighted>
   9.000000E+99

> <Gold.Protein.RotatedTorsions>
[ 6907 6896 6895 6894 ] final -109.13 input  -60.11 | X-H torsion
[ 7974 7965 7964 7962 ] final  -42.41 input  175.53 | X-H torsion
[ 8008 7997 7996 7995 ] final -120.86 input   59.86 | X-H torsion
[ 10167 10162 10161 10158 ] final  142.24 input  -65.29 | X-H torsion
[ 10718 10713 10712 10709 ] final  -82.44 input   66.30 | X-H torsion
[ 10763 10752 10751 10750 ] final   18.05 input  -60.55 | X-H torsion
[ 11005 11000 10999 10996 ] final -172.11 input  -57.11 | X-H torsion

> <Gold.Protein.ActiveResidues>
 VAL166  LYS551  ARG553  GLY616  TRP617  ASP618  TYR619  PRO620  LYS621  CYS622 
 ASP623  PHE694  ASN695  SER759  ASP760  ASP761  ALA762  ILE779  LEU786  VAL792 
 PHE793  MET794  SER795  GLU796  ALA797  LYS798  CYS799  TRP800  GLU811  SER814 

> <Gold.Protein.RotatedAtoms>
  150.7543  133.9575  159.3504 H   0  0  0  0  0  0  0  0  0  0  0  0  # atno 6907 bound_to 6896
  151.7498  135.0833  160.0338 H   0  0  0  0  0  0  0  0  0  0  0  0  # atno 6908 bound_to 6896
  152.3474  133.6101  159.5956 H   0  0  0  0  0  0  0  0  0  0  0  0  # atno 6909 bound_to 6896
  146.0118  140.6955  142.9220 H   0  0  0  0  0  0  0  0  0  0  0  0  # atno 7974 bound_to 7965
  155.1387  140.0401  157.2793 H   0  0  0  0  0  0  0  0  0  0  0  0  # atno 8008 bound_to 7997
  154.6489  140.2564  155.7210 H   0  0  0  0  0  0  0  0  0  0  0  0  # atno 8009 bound_to 7997
  156.2568  140.2840  156.0914 H   0  0  0  0  0  0  0  0  0  0  0  0  # atno 8010 bound_to 7997
  139.4999  144.6120  151.6250 H   0  0  0  0  0  0  0  0  0  0  0  0  # atno 10167 bound_to 10162
  156.0033  130.4634  150.4105 H   0  0  0  0  0  0  0  0  0  0  0  0  # atno 10718 bound_to 10713
  153.1284  135.6735  153.9219 H   0  0  0  0  0  0  0  0  0  0  0  0  # atno 10763 bound_to 10752
  153.8713  135.3069  155.3443 H   0  0  0  0  0  0  0  0  0  0  0  0  # atno 10764 bound_to 10752
  154.7685  135.4951  153.9683 H   0  0  0  0  0  0  0  0  0  0  0  0  # atno 10765 bound_to 10752
  140.5006  134.5897  157.4986 H   0  0  0  0  0  0  0  0  0  0  0  0  # atno 11005 bound_to 11000
  144.6956  140.3412  143.7199 LP  0  0  0  0  0  0  0  0  0  0  0  0  # atno 17320 bound_to 7965
  145.7330  139.1741  143.2419 LP  0  0  0  0  0  0  0  0  0  0  0  0  # atno 17321 bound_to 7965
  140.5797  143.9967  150.6261 LP  0  0  0  0  0  0  0  0  0  0  0  0  # atno 17342 bound_to 10162
  140.3112  143.3197  152.0877 LP  0  0  0  0  0  0  0  0  0  0  0  0  # atno 17343 bound_to 10162
  157.2168  131.0473  151.2569 LP  0  0  0  0  0  0  0  0  0  0  0  0  # atno 17370 bound_to 10713
  157.3838  130.7245  149.6648 LP  0  0  0  0  0  0  0  0  0  0  0  0  # atno 17371 bound_to 10713
  139.9715  134.7285  156.0032 LP  0  0  0  0  0  0  0  0  0  0  0  0  # atno 17394 bound_to 11000
  141.1437  133.6560  156.3805 LP  0  0  0  0  0  0  0  0  0  0  0  0  # atno 17395 bound_to 11000

$$$$
