AV-unprocessed.smi:3047|AV-procd|sdf|11623|dock9
  -GOLD-   2272017 13D 1   1.00000     0.00000
 Structure written by MMmdl.
 37 38  0  0  0  0  0  0  0  0  1 V2000
  152.5200  136.6484  157.9561 C   0  0  0  0  0  0  0  0  0  0  0  0
  154.2241  136.1389  158.4215 S   0  0  0  0  0  0  0  0  0  0  0  0
  154.1740  135.5406  159.7644 O   0  0  0  0  0  0  0  0  0  0  0  0
  154.8275  135.3917  157.3074 O   0  0  0  0  0  0  0  0  0  0  0  0
  155.0530  137.6517  158.5552 N   0  0  0  0  0  0  0  0  0  0  0  0
  156.4636  137.7267  158.1497 C   0  0  0  0  0  0  0  0  0  0  0  0
  157.0530  138.9044  158.9222 C   0  0  0  0  0  0  0  0  0  0  0  0
  156.2262  138.9266  160.2006 C   0  0  0  0  0  0  0  0  0  0  0  0
  154.8247  138.4806  159.7494 C   0  0  1  0  0  0  0  0  0  0  0  0
  153.8721  139.6529  159.4759 C   0  0  0  0  0  0  0  0  0  0  0  0
  153.2686  139.7358  158.4054 O   0  0  0  0  0  0  0  0  0  0  0  0
  153.7335  140.5478  160.4661 N   0  0  0  0  0  0  0  0  0  0  0  0
  152.8563  141.7113  160.4262 C   0  0  0  0  0  0  0  0  0  0  0  0
  153.0837  142.5536  159.1599 C   0  0  0  0  0  0  0  0  0  0  0  0
  152.4419  143.8481  159.2635 N   0  0  0  0  0  0  0  0  0  0  0  0
  151.8792  144.4130  160.4004 C   0  0  0  0  0  0  0  0  0  0  0  0
  151.3938  145.6458  160.0271 C   0  0  0  0  0  0  0  0  0  0  0  0
  151.6450  145.8584  158.6733 N   0  0  0  0  0  0  0  0  0  0  0  0
  152.2680  144.7517  158.2892 C   0  0  0  0  0  0  0  0  0  0  0  0
  151.8889  135.7642  157.8718 H   0  0  0  0  0  0  0  0  0  0  0  0
  152.5392  137.1697  156.9993 H   0  0  0  0  0  0  0  0  0  0  0  0
  152.1162  137.3095  158.7228 H   0  0  0  0  0  0  0  0  0  0  0  0
  156.9726  136.8038  158.4301 H   0  0  0  0  0  0  0  0  0  0  0  0
  156.5515  137.8519  157.0704 H   0  0  0  0  0  0  0  0  0  0  0  0
  158.1212  138.7944  159.1109 H   0  0  0  0  0  0  0  0  0  0  0  0
  156.9032  139.8291  158.3634 H   0  0  0  0  0  0  0  0  0  0  0  0
  156.6277  138.2036  160.9120 H   0  0  0  0  0  0  0  0  0  0  0  0
  156.2431  139.9029  160.6875 H   0  0  0  0  0  0  0  0  0  0  0  0
  154.3917  137.8647  160.5399 H   0  0  0  0  0  0  0  0  0  0  0  0
  154.2552  140.3972  161.3178 H   0  0  0  0  0  0  0  0  0  0  0  0
  151.8147  141.3921  160.4940 H   0  0  0  0  0  0  0  0  0  0  0  0
  153.0538  142.3131  161.3137 H   0  0  0  0  0  0  0  0  0  0  0  0
  154.1502  142.7036  158.9862 H   0  0  0  0  0  0  0  0  0  0  0  0
  152.6863  142.0461  158.2798 H   0  0  0  0  0  0  0  0  0  0  0  0
  151.8723  143.9056  161.3541 H   0  0  0  0  0  0  0  0  0  0  0  0
  150.8875  146.3905  160.6235 H   0  0  0  0  0  0  0  0  0  0  0  0
  152.6061  144.5956  157.2751 H   0  0  0  0  0  0  0  0  0  0  0  0
  1  2  1  0  0  0  0
  1 20  1  0  0  0  0
  1 21  1  0  0  0  0
  1 22  1  0  0  0  0
  2  3  2  0  0  0  0
  2  4  2  0  0  0  0
  2  5  1  0  0  0  0
  5  9  1  0  0  0  0
  5  6  1  0  0  0  0
  6  7  1  0  0  0  0
  6 23  1  0  0  0  0
  6 24  1  0  0  0  0
  7  8  1  0  0  0  0
  7 25  1  0  0  0  0
  7 26  1  0  0  0  0
  8  9  1  0  0  0  0
  8 27  1  0  0  0  0
  8 28  1  0  0  0  0
  9 10  1  0  0  0  0
  9 29  1  0  0  0  0
 10 11  2  0  0  0  0
 10 12  1  0  0  0  0
 12 13  1  0  0  0  0
 12 30  1  0  0  0  0
 13 14  1  0  0  0  0
 13 31  1  0  0  0  0
 13 32  1  0  0  0  0
 14 15  1  0  0  0  0
 14 33  1  0  0  0  0
 14 34  1  0  0  0  0
 15 19  1  0  0  0  0
 15 16  1  0  0  0  0
 16 17  2  0  0  0  0
 16 35  1  0  0  0  0
 17 18  1  0  0  0  0
 17 36  1  0  0  0  0
 18 19  2  0  0  0  0
 19 37  1  0  0  0  0
M  END
> <s_m_source_file>
AV-unprocessed.smi

> <i_m_source_file_index>
3047

> <i_lp_mmshare_version>
43012

> <i_f3d_flags>
0

> <s_epik_input>
W0NIM11TKD1PKSg9TylOMVtDSDJdW0NIMl1bQ0gyXVtDQEhdMUMoPU8pW05IXVtDSDJdW0NIMl1uMltjSF1bY0hdbltjSF0y

> <s_epik_cmdline>
J2VwaWtfcHl0aG9uJywgJy1waCcsICc3LjAnLCAnLXRuJywgJzgnLCAnLW1hJywgJzIwMCcsICctbWV0YWxfYmluZGluZycsICctaW1hZScsICc8aW5maWxlLm1hZT4nLCAnLW9tYWUnLCAnPG91dGZpbGUubWFlPic=

> <r_lp_tautomer_probability>
1

> <r_epik_Ionization_Penalty>
0.575721

> <r_epik_Ionization_Penalty_Charging>
0.575721

> <r_epik_Ionization_Penalty_Neutral>
1.33078e-07

> <r_epik_State_Penalty>
0.588056

> <r_epik_Charging_Adjusted_Penalty>
1.16378

> <i_epik_Tot_Q>
0

> <i_epik_Tot_abs_Q>
0

> <r_epik_Metal_State_Penalty>
0.294357

> <b_epik_Metal_Only>
0

> <s_lp_Force_Field>
OPLS_2005

> <r_lp_Energy>
8.50144

> <b_lp_Chiralities_Consistent>
1

> <s_lp_Variant>
AV-unprocessed.smi:3047-3

> <Gold.Version>
5.8.1

> <Gold.Id.Protein>
6NUR|6NUR_protein|mol2

> <Gold.PLP.Fitness>
41.6521

> <Gold.PLP.PLP>
-34.2979

> <Gold.PLP.part.hbond>
-4.0000

> <Gold.PLP.part.metal>
0.0000

> <Gold.PLP.part.buried>
-2.6908

> <Gold.PLP.part.nonpolar>
-26.9593

> <Gold.PLP.part.repulsive>
0.1658

> <Gold.PLP.ligand.clash>
0.0000

> <Gold.PLP.ligand.torsion>
1.1084

> <Gold.PLP.Chemscore.Hbond>
3.0000

> <Gold.PLP.Chemscore.CHOScore>
0.0000

> <Gold.PLP.Chemscore.Metal>
0.0000

> <Gold.Chemscore.Hbonds>
donor molecule, donor type, donor heavy atom, donor atom, acceptor molecule, acceptor atom, score
      P1  H  6896  6909       L1     3  1.00
      P1  H  7997  8010       L1    11  1.00
      P1  H 10752 10764       L1     4  0.98

> <Gold.PLP.Chemscore.Internal.Correction>
0.5711

> <Gold.Rescore>
     Score         DG    S(hbond)    S(metal)    S(lipo)     H(rot)  DE(clash)    DE(int)     intcor
     13.92     -16.24       2.96        0.00      59.53       2.39       0.01       2.31       ----

> <Gold.Chemscore.Fitness>
13.9174

> <Gold.Chemscore.DG>
-16.2387

> <Gold.Chemscore.ZeroCoef>
-5.4800

> <Gold.Chemscore.Hbond>
2.9642

> <Gold.Chemscore.Metal>
0.0000

> <Gold.Chemscore.Lipo>
59.5348

> <Gold.Chemscore.Internal_Hbond>
0.0000

> <Gold.Chemscore.DEClash>
0.0089

> <Gold.Chemscore.DEInternal>
2.3125

> <Gold.Chemscore.Rot>
2.3857

> <Gold.Chemscore.Internal.Correction>
   9.000000E+99

> <Gold.Chemscore.Hbonds>
donor molecule, donor type, donor heavy atom, donor atom, acceptor molecule, acceptor atom, score
      P1  H  6896  6909       L1     3  0.73
      P1  H  7997  8010       L1    11  0.34
      P1  H 10752 10764       L1     4  0.91

> <Gold.Chemscore.Hbond.Weighted>
-9.9005

> <Gold.Chemscore.Metal.Weighted>
-0.0000

> <Gold.Chemscore.Lipo.Weighted>
-6.9656

> <Gold.Chemscore.Internal_Hbond.Weighted>
0.0000

> <Gold.Chemscore.DEClash.Weighted>
0.0089

> <Gold.Chemscore.DEInternal.Weighted>
2.3125

> <Gold.Chemscore.Rot.Weighted>
6.1074

> <Gold.Chemscore.Internal.Correction.Weighted>
   9.000000E+99

> <Gold.Protein.RotatedTorsions>
[ 6907 6896 6895 6894 ] final -162.66 input  -60.11 | X-H torsion
[ 7974 7965 7964 7962 ] final   31.67 input  175.53 | X-H torsion
[ 8008 7997 7996 7995 ] final   23.39 input   59.86 | X-H torsion
[ 10167 10162 10161 10158 ] final   46.31 input  -65.29 | X-H torsion
[ 10718 10713 10712 10709 ] final  159.37 input   66.30 | X-H torsion
[ 10763 10752 10751 10750 ] final   42.44 input  -60.55 | X-H torsion
[ 11005 11000 10999 10996 ] final  -96.37 input  -57.11 | X-H torsion

> <Gold.Protein.ActiveResidues>
 VAL166  LYS551  ARG553  GLY616  TRP617  ASP618  TYR619  PRO620  LYS621  CYS622 
 ASP623  PHE694  ASN695  SER759  ASP760  ASP761  ALA762  ILE779  LEU786  VAL792 
 PHE793  MET794  SER795  GLU796  ALA797  LYS798  CYS799  TRP800  GLU811  SER814 

> <Gold.Protein.RotatedAtoms>
  151.3838  133.3812  159.2712 H   0  0  0  0  0  0  0  0  0  0  0  0  # atno 6907 bound_to 6896
  150.9557  134.8953  159.7710 H   0  0  0  0  0  0  0  0  0  0  0  0  # atno 6908 bound_to 6896
  152.5130  134.3795  159.9398 H   0  0  0  0  0  0  0  0  0  0  0  0  # atno 6909 bound_to 6896
  146.1535  139.6626  142.9082 H   0  0  0  0  0  0  0  0  0  0  0  0  # atno 7974 bound_to 7965
  154.9803  140.3101  155.4949 H   0  0  0  0  0  0  0  0  0  0  0  0  # atno 8008 bound_to 7997
  156.2954  140.2268  156.4841 H   0  0  0  0  0  0  0  0  0  0  0  0  # atno 8009 bound_to 7997
  154.7796  140.0447  157.1104 H   0  0  0  0  0  0  0  0  0  0  0  0  # atno 8010 bound_to 7997
  140.3152  144.2772  150.6192 H   0  0  0  0  0  0  0  0  0  0  0  0  # atno 10167 bound_to 10162
  157.1651  131.0596  151.2212 H   0  0  0  0  0  0  0  0  0  0  0  0  # atno 10718 bound_to 10713
  152.9883  135.6132  154.2949 H   0  0  0  0  0  0  0  0  0  0  0  0  # atno 10763 bound_to 10752
  154.2673  135.2780  155.2755 H   0  0  0  0  0  0  0  0  0  0  0  0  # atno 10764 bound_to 10752
  154.5153  135.5829  153.6694 H   0  0  0  0  0  0  0  0  0  0  0  0  # atno 10765 bound_to 10752
  141.1413  133.8093  157.0563 H   0  0  0  0  0  0  0  0  0  0  0  0  # atno 11005 bound_to 11000
  145.4765  141.0437  143.2670 LP  0  0  0  0  0  0  0  0  0  0  0  0  # atno 17320 bound_to 7965
  144.7934  139.6282  143.7103 LP  0  0  0  0  0  0  0  0  0  0  0  0  # atno 17321 bound_to 7965
  140.5532  143.2203  151.7891 LP  0  0  0  0  0  0  0  0  0  0  0  0  # atno 17342 bound_to 10162
  139.4885  144.4448  151.9723 LP  0  0  0  0  0  0  0  0  0  0  0  0  # atno 17343 bound_to 10162
  157.4096  130.7378  149.6829 LP  0  0  0  0  0  0  0  0  0  0  0  0  # atno 17370 bound_to 10713
  155.9747  130.4099  150.3902 LP  0  0  0  0  0  0  0  0  0  0  0  0  # atno 17371 bound_to 10713
  140.0600  134.9760  157.1288 LP  0  0  0  0  0  0  0  0  0  0  0  0  # atno 17394 bound_to 11000
  140.3863  134.2233  155.7168 LP  0  0  0  0  0  0  0  0  0  0  0  0  # atno 17395 bound_to 11000

$$$$
