AV-unprocessed.smi:1638|AV-procd|sdf|6547|dock5
  -GOLD-   22720 7233D 1   1.00000     0.00000
 Structure written by MMmdl.
 40 41  0  0  0  0  0  0  0  0  3 V2000
  152.3951  141.0654  159.3403 C   0  0  0  0  0  0  0  0  0  0  0  0
  152.0494  140.7153  157.9336 C   0  0  0  0  0  0  0  0  0  0  0  0
  152.7921  139.8922  157.1889 N   0  0  0  0  0  0  0  0  0  0  0  0
  152.2653  139.7201  155.9179 N   0  0  0  0  0  0  0  0  0  0  0  0
  151.1258  140.4005  155.7246 C   0  0  0  0  0  0  0  0  0  0  0  0
  150.4497  140.3510  154.5652 N   0  5  0  0  0  0  0  0  0  0  0  0
  149.1221  140.1039  154.5794 C   0  0  0  0  0  0  0  0  0  0  0  0
  148.3677  140.2317  155.5459 O   0  0  0  0  0  0  0  0  0  0  0  0
  148.6490  139.6286  153.4185 N   0  0  0  0  0  0  0  0  0  0  0  0
  147.3224  139.0521  153.2036 C   0  0  0  0  0  0  0  0  0  0  0  0
  147.1104  137.8043  154.0860 C   0  0  0  0  0  0  0  0  0  0  0  0
  146.6228  136.6361  153.3026 N   0  3  0  0  0  0  0  0  0  0  0  0
  145.4798  136.9264  152.4011 C   0  0  0  0  0  0  0  0  0  0  0  0
  145.7593  136.3413  151.0062 C   0  0  0  0  0  0  0  0  0  0  0  0
  145.5999  134.8157  150.9092 C   0  0  0  0  0  0  0  0  0  0  0  0
  146.4297  134.0149  151.9281 C   0  0  0  0  0  0  0  0  0  0  0  0
  145.9179  134.1832  153.3699 C   0  0  0  0  0  0  0  0  0  0  0  0
  146.4676  135.4092  154.1283 C   0  0  0  0  0  0  0  0  0  0  0  0
  150.6253  141.3474  157.1240 S   0  0  0  0  0  0  0  0  0  0  0  0
  151.9426  140.3468  160.0240 H   0  0  0  0  0  0  0  0  0  0  0  0
  152.0244  142.0616  159.5823 H   0  0  0  0  0  0  0  0  0  0  0  0
  153.4764  141.0528  159.4812 H   0  0  0  0  0  0  0  0  0  0  0  0
  149.3004  139.5671  152.6491 H   0  0  0  0  0  0  0  0  0  0  0  0
  146.5395  139.7908  153.3810 H   0  0  0  0  0  0  0  0  0  0  0  0
  147.2390  138.7747  152.1527 H   0  0  0  0  0  0  0  0  0  0  0  0
  148.0225  137.5482  154.6264 H   0  0  0  0  0  0  0  0  0  0  0  0
  146.3791  138.0815  154.8457 H   0  0  0  0  0  0  0  0  0  0  0  0
  144.5387  136.5628  152.8158 H   0  0  0  0  0  0  0  0  0  0  0  0
  145.3496  138.0015  152.2790 H   0  0  0  0  0  0  0  0  0  0  0  0
  145.0774  136.7996  150.2892 H   0  0  0  0  0  0  0  0  0  0  0  0
  146.7623  136.6271  150.6846 H   0  0  0  0  0  0  0  0  0  0  0  0
  144.5465  134.5529  151.0115 H   0  0  0  0  0  0  0  0  0  0  0  0
  145.8857  134.5043  149.9038 H   0  0  0  0  0  0  0  0  0  0  0  0
  146.3548  132.9604  151.6605 H   0  0  0  0  0  0  0  0  0  0  0  0
  147.4883  134.2645  151.8542 H   0  0  0  0  0  0  0  0  0  0  0  0
  144.8276  134.2068  153.3670 H   0  0  0  0  0  0  0  0  0  0  0  0
  146.1801  133.2933  153.9430 H   0  0  0  0  0  0  0  0  0  0  0  0
  147.4413  135.1541  154.5458 H   0  0  0  0  0  0  0  0  0  0  0  0
  145.8175  135.6191  154.9785 H   0  0  0  0  0  0  0  0  0  0  0  0
  147.3818  136.4371  152.6649 H   0  0  0  0  0  0  0  0  0  0  0  0
  1  2  1  0  0  0  0
  1 20  1  0  0  0  0
  1 21  1  0  0  0  0
  1 22  1  0  0  0  0
  2 19  1  0  0  0  0
  2  3  2  0  0  0  0
  3  4  1  0  0  0  0
  4  5  2  0  0  0  0
  5  6  1  0  0  0  0
  5 19  1  0  0  0  0
  6  7  1  0  0  0  0
  7  8  2  0  0  0  0
  7  9  1  0  0  0  0
  9 10  1  0  0  0  0
  9 23  1  0  0  0  0
 10 11  1  0  0  0  0
 10 24  1  0  0  0  0
 10 25  1  0  0  0  0
 11 12  1  0  0  0  0
 11 26  1  0  0  0  0
 11 27  1  0  0  0  0
 12 18  1  0  0  0  0
 12 13  1  0  0  0  0
 12 40  1  0  0  0  0
 13 14  1  0  0  0  0
 13 28  1  0  0  0  0
 13 29  1  0  0  0  0
 14 15  1  0  0  0  0
 14 30  1  0  0  0  0
 14 31  1  0  0  0  0
 15 16  1  0  0  0  0
 15 32  1  0  0  0  0
 15 33  1  0  0  0  0
 16 17  1  0  0  0  0
 16 34  1  0  0  0  0
 16 35  1  0  0  0  0
 17 18  1  0  0  0  0
 17 36  1  0  0  0  0
 17 37  1  0  0  0  0
 18 38  1  0  0  0  0
 18 39  1  0  0  0  0
M  CHG  1   6  -1
M  CHG  1  12   1
M  END
> <s_m_source_file>
AV-unprocessed.smi

> <i_m_source_file_index>
1638

> <i_lp_mmshare_version>
43012

> <i_f3d_flags>
0

> <s_epik_input>
W0NIM11jMW5uYyhzMSlbTkhdQyg9TylbTkhdW0NIMl1bQ0gyXU4yW0NIMl1bQ0gyXVtDSDJdW0NIMl1bQ0gyXVtDSDJdMg==

> <s_epik_cmdline>
J2VwaWtfcHl0aG9uJywgJy1waCcsICc3LjAnLCAnLXRuJywgJzgnLCAnLW1hJywgJzIwMCcsICctbWV0YWxfYmluZGluZycsICctaW1hZScsICc8aW5maWxlLm1hZT4nLCAnLW9tYWUnLCAnPG91dGZpbGUubWFlPic=

> <r_lp_tautomer_probability>
1

> <r_epik_Ionization_Penalty>
3.03755

> <r_epik_Ionization_Penalty_Charging>
2.92994

> <r_epik_Ionization_Penalty_Neutral>
0.107609

> <r_epik_State_Penalty>
2.92594

> <r_epik_Charging_Adjusted_Penalty>
5.85589

> <i_epik_Tot_Q>
0

> <i_epik_Tot_abs_Q>
2

> <r_epik_Metal_State_Penalty>
0.448256

> <b_epik_Metal_Only>
1

> <s_lp_Force_Field>
OPLS_2005

> <r_lp_Energy>
18.025

> <b_lp_Chiralities_Consistent>
1

> <s_lp_Variant>
AV-unprocessed.smi:1638-2

> <Gold.Version>
5.8.1

> <Gold.Id.Protein>
6NUR|6NUR_protein|mol2

> <Gold.PLP.Fitness>
42.6921

> <Gold.PLP.PLP>
-29.4176

> <Gold.PLP.part.hbond>
-4.4511

> <Gold.PLP.part.metal>
0.0000

> <Gold.PLP.part.buried>
-1.7555

> <Gold.PLP.part.nonpolar>
-22.8737

> <Gold.PLP.part.repulsive>
0.2611

> <Gold.PLP.ligand.clash>
0.0000

> <Gold.PLP.ligand.torsion>
0.9137

> <Gold.PLP.Chemscore.Hbond>
4.9920

> <Gold.PLP.Chemscore.CHOScore>
0.0000

> <Gold.PLP.Chemscore.Metal>
0.0000

> <Gold.Chemscore.Hbonds>
donor molecule, donor type, donor heavy atom, donor atom, acceptor molecule, acceptor atom, score
      L1  H     9    23       P1  7957  0.91
      L1  H    12    40       P1  7948  2.00
      P1  H  7989  7998       L1     6  1.00
      P1  H  7997  8009       L1     3  1.00

> <Gold.PLP.Chemscore.Internal.Correction>
0.1260

> <Gold.Rescore>
     Score         DG    S(hbond)    S(metal)    S(lipo)     H(rot)  DE(clash)    DE(int)     intcor
     16.37     -17.48       2.81        0.00      56.74       1.57       0.05       1.06       ----

> <Gold.Chemscore.Fitness>
16.3722

> <Gold.Chemscore.DG>
-17.4803

> <Gold.Chemscore.ZeroCoef>
-5.4800

> <Gold.Chemscore.Hbond>
2.8076

> <Gold.Chemscore.Metal>
0.0000

> <Gold.Chemscore.Lipo>
56.7408

> <Gold.Chemscore.Internal_Hbond>
0.0000

> <Gold.Chemscore.DEClash>
0.0524

> <Gold.Chemscore.DEInternal>
1.0557

> <Gold.Chemscore.Rot>
1.5686

> <Gold.Chemscore.Internal.Correction>
   9.000000E+99

> <Gold.Chemscore.Hbonds>
donor molecule, donor type, donor heavy atom, donor atom, acceptor molecule, acceptor atom, score
      L1  H     9    23       P1  7957  0.87
      L1  H    12    40       P1  7948  1.00
      P1  H  7989  7998       L1     6  0.29
      P1  H  7997  8009       L1     3  0.38

> <Gold.Chemscore.Hbond.Weighted>
-9.3773

> <Gold.Chemscore.Metal.Weighted>
-0.0000

> <Gold.Chemscore.Lipo.Weighted>
-6.6387

> <Gold.Chemscore.Internal_Hbond.Weighted>
0.0000

> <Gold.Chemscore.DEClash.Weighted>
0.0524

> <Gold.Chemscore.DEInternal.Weighted>
1.0557

> <Gold.Chemscore.Rot.Weighted>
4.0157

> <Gold.Chemscore.Internal.Correction.Weighted>
   9.000000E+99

> <Gold.Protein.RotatedTorsions>
[ 6907 6896 6895 6894 ] final  -42.49 input  -60.11 | X-H torsion
[ 7974 7965 7964 7962 ] final  -61.91 input  175.53 | X-H torsion
[ 8008 7997 7996 7995 ] final  163.45 input   59.86 | X-H torsion
[ 10167 10162 10161 10158 ] final  -18.46 input  -65.29 | X-H torsion
[ 10718 10713 10712 10709 ] final  106.37 input   66.30 | X-H torsion
[ 10763 10752 10751 10750 ] final  148.98 input  -60.55 | X-H torsion
[ 11005 11000 10999 10996 ] final  -28.42 input  -57.11 | X-H torsion

> <Gold.Protein.ActiveResidues>
 VAL166  LYS551  ARG553  GLY616  TRP617  ASP618  TYR619  PRO620  LYS621  CYS622 
 ASP623  PHE694  ASN695  SER759  ASP760  ASP761  ALA762  ILE779  LEU786  VAL792 
 PHE793  MET794  SER795  GLU796  ALA797  LYS798  CYS799  TRP800  GLU811  SER814 

> <Gold.Protein.RotatedAtoms>
  150.9546  134.8942  159.7692 H   0  0  0  0  0  0  0  0  0  0  0  0  # atno 6907 bound_to 6896
  152.5133  134.3758  159.9344 H   0  0  0  0  0  0  0  0  0  0  0  0  # atno 6908 bound_to 6896
  151.3772  133.3793  159.2741 H   0  0  0  0  0  0  0  0  0  0  0  0  # atno 6909 bound_to 6896
  145.7977  140.8673  143.0247 H   0  0  0  0  0  0  0  0  0  0  0  0  # atno 7974 bound_to 7965
  156.1956  140.1723  156.8004 H   0  0  0  0  0  0  0  0  0  0  0  0  # atno 8008 bound_to 7997
  154.5525  140.0715  156.8723 H   0  0  0  0  0  0  0  0  0  0  0  0  # atno 8009 bound_to 7997
  155.3000  140.3361  155.4250 H   0  0  0  0  0  0  0  0  0  0  0  0  # atno 8010 bound_to 7997
  140.7259  143.4914  150.9987 H   0  0  0  0  0  0  0  0  0  0  0  0  # atno 10167 bound_to 10162
  157.6670  131.0849  150.5997 H   0  0  0  0  0  0  0  0  0  0  0  0  # atno 10718 bound_to 10713
  154.0637  135.2872  155.3320 H   0  0  0  0  0  0  0  0  0  0  0  0  # atno 10763 bound_to 10752
  154.6791  135.5270  153.8243 H   0  0  0  0  0  0  0  0  0  0  0  0  # atno 10764 bound_to 10752
  153.0512  135.6577  154.0824 H   0  0  0  0  0  0  0  0  0  0  0  0  # atno 10765 bound_to 10752
  140.9207  133.7401  156.0797 H   0  0  0  0  0  0  0  0  0  0  0  0  # atno 11005 bound_to 11000
  144.6773  140.0215  143.7483 LP  0  0  0  0  0  0  0  0  0  0  0  0  # atno 17320 bound_to 7965
  145.9910  139.3015  143.0985 LP  0  0  0  0  0  0  0  0  0  0  0  0  # atno 17321 bound_to 7965
  139.8618  143.7304  152.3173 LP  0  0  0  0  0  0  0  0  0  0  0  0  # atno 17342 bound_to 10162
  139.7523  144.7531  151.0488 LP  0  0  0  0  0  0  0  0  0  0  0  0  # atno 17343 bound_to 10162
  156.6297  130.4428  149.5791 LP  0  0  0  0  0  0  0  0  0  0  0  0  # atno 17370 bound_to 10713
  156.2291  130.6784  151.1446 LP  0  0  0  0  0  0  0  0  0  0  0  0  # atno 17371 bound_to 10713
  140.7992  134.3529  157.5444 LP  0  0  0  0  0  0  0  0  0  0  0  0  # atno 17394 bound_to 11000
  139.8775  134.9187  156.3209 LP  0  0  0  0  0  0  0  0  0  0  0  0  # atno 17395 bound_to 11000

$$$$
