AV-unprocessed.smi:3330|AV-procd|sdf|12807|dock10
  -GOLD-   2272019173D 1   1.00000     0.00000
 Structure written by MMmdl.
 38 39  0  0  0  0  0  0  0  0  1 V2000
  153.3829  141.4558  160.1828 C   0  0  0  0  0  0  0  0  0  0  0  0
  152.1142  141.0001  159.4283 C   0  0  2  0  0  0  0  0  0  0  0  0
  152.3117  139.6448  158.9222 N   0  0  0  0  0  0  0  0  0  0  0  0
  152.0916  138.6205  159.9322 C   0  0  0  0  0  0  0  0  0  0  0  0
  153.3534  138.4871  160.7985 C   0  0  0  0  0  0  0  0  0  0  0  0
  154.4457  137.8561  160.0534 N   0  0  0  0  0  0  0  0  0  0  0  0
  154.6333  136.5328  159.9646 C   0  0  0  0  0  0  0  0  0  0  0  0
  153.9543  135.6428  160.4757 O   0  0  0  0  0  0  0  0  0  0  0  0
  155.8505  136.2785  159.1024 C   0  0  0  0  0  0  0  0  0  0  0  0
  156.2040  137.6457  158.7866 N   0  0  0  0  0  0  0  0  0  0  0  0
  155.3719  138.5317  159.3492 C   0  0  0  0  0  0  0  0  0  0  0  0
  155.4513  139.7533  159.2291 O   0  0  0  0  0  0  0  0  0  0  0  0
  151.7548  141.9173  158.2278 C   0  0  1  0  0  0  0  0  0  0  0  0
  150.5543  141.3915  157.4187 C   0  0  0  0  0  0  0  0  0  0  0  0
  151.4949  143.2888  158.6487 N   0  0  0  0  0  0  0  0  0  0  0  0
  152.3222  144.1493  159.3429 C   0  0  0  0  0  0  0  0  0  0  0  0
  151.6490  145.3267  159.4995 C   0  0  0  0  0  0  0  0  0  0  0  0
  150.4003  145.0888  158.8609 C   0  0  0  0  0  0  0  0  0  0  0  0
  150.3102  143.8698  158.3551 N   0  0  0  0  0  0  0  0  0  0  0  0
  153.2649  142.4546  160.6028 H   0  0  0  0  0  0  0  0  0  0  0  0
  154.2491  141.4781  159.5207 H   0  0  0  0  0  0  0  0  0  0  0  0
  153.6212  140.8004  161.0196 H   0  0  0  0  0  0  0  0  0  0  0  0
  151.2715  141.0027  160.1213 H   0  0  0  0  0  0  0  0  0  0  0  0
  153.2322  139.5528  158.5166 H   0  0  0  0  0  0  0  0  0  0  0  0
  151.2397  138.8808  160.5597 H   0  0  0  0  0  0  0  0  0  0  0  0
  151.8662  137.6690  159.4484 H   0  0  0  0  0  0  0  0  0  0  0  0
  153.6703  139.4698  161.1532 H   0  0  0  0  0  0  0  0  0  0  0  0
  153.1308  137.9066  161.6959 H   0  0  0  0  0  0  0  0  0  0  0  0
  156.6416  135.7764  159.6601 H   0  0  0  0  0  0  0  0  0  0  0  0
  155.5992  135.7096  158.2067 H   0  0  0  0  0  0  0  0  0  0  0  0
  156.9907  137.8904  158.2028 H   0  0  0  0  0  0  0  0  0  0  0  0
  152.6152  141.9449  157.5556 H   0  0  0  0  0  0  0  0  0  0  0  0
  150.7610  140.4128  156.9860 H   0  0  0  0  0  0  0  0  0  0  0  0
  150.3141  142.0641  156.5947 H   0  0  0  0  0  0  0  0  0  0  0  0
  149.6639  141.2959  158.0409 H   0  0  0  0  0  0  0  0  0  0  0  0
  153.3113  143.8554  159.6620 H   0  0  0  0  0  0  0  0  0  0  0  0
  151.9963  146.2216  159.9940 H   0  0  0  0  0  0  0  0  0  0  0  0
  149.5622  145.7608  158.7499 H   0  0  0  0  0  0  0  0  0  0  0  0
  1  2  1  0  0  0  0
  1 20  1  0  0  0  0
  1 21  1  0  0  0  0
  1 22  1  0  0  0  0
  2  3  1  0  0  0  0
  2 13  1  0  0  0  0
  2 23  1  0  0  0  0
  3  4  1  0  0  0  0
  3 24  1  0  0  0  0
  4  5  1  0  0  0  0
  4 25  1  0  0  0  0
  4 26  1  0  0  0  0
  5  6  1  0  0  0  0
  5 27  1  0  0  0  0
  5 28  1  0  0  0  0
  6 11  1  0  0  0  0
  6  7  1  0  0  0  0
  7  8  2  0  0  0  0
  7  9  1  0  0  0  0
  9 10  1  0  0  0  0
  9 29  1  0  0  0  0
  9 30  1  0  0  0  0
 10 11  1  0  0  0  0
 10 31  1  0  0  0  0
 11 12  2  0  0  0  0
 13 14  1  0  0  0  0
 13 15  1  0  0  0  0
 13 32  1  0  0  0  0
 14 33  1  0  0  0  0
 14 34  1  0  0  0  0
 14 35  1  0  0  0  0
 15 19  1  0  0  0  0
 15 16  1  0  0  0  0
 16 17  2  0  0  0  0
 16 36  1  0  0  0  0
 17 18  1  0  0  0  0
 17 37  1  0  0  0  0
 18 19  2  0  0  0  0
 18 38  1  0  0  0  0
M  END
> <s_m_source_file>
AV-unprocessed.smi

> <i_m_source_file_index>
3330

> <i_lp_mmshare_version>
43012

> <i_f3d_flags>
0

> <s_epik_input>
bjFbY0hdW2NIXVtjSF1uMVtDQEBIXShbQ0gzXSlbQ0BIXShbQ0gzXSlbTkhdW0NIMl1bQ0gyXU4yQyg9TylbQ0gyXVtOSF1DMj1P

> <s_epik_cmdline>
J2VwaWtfcHl0aG9uJywgJy1waCcsICc3LjAnLCAnLXRuJywgJzgnLCAnLW1hJywgJzIwMCcsICctbWV0YWxfYmluZGluZycsICctaW1hZScsICc8aW5maWxlLm1hZT4nLCAnLW9tYWUnLCAnPG91dGZpbGUubWFlPic=

> <r_lp_tautomer_probability>
1

> <r_epik_Ionization_Penalty>
2.2997

> <r_epik_Ionization_Penalty_Charging>
0

> <r_epik_Ionization_Penalty_Neutral>
2.2997

> <r_epik_State_Penalty>
2.44917

> <r_epik_Charging_Adjusted_Penalty>
2.44917

> <i_epik_Tot_Q>
0

> <i_epik_Tot_abs_Q>
0

> <r_epik_Metal_State_Penalty>
2.52438

> <b_epik_Metal_Only>
0

> <s_lp_Force_Field>
OPLS_2005

> <r_lp_Energy>
27.6633

> <b_lp_Chiralities_Consistent>
1

> <s_lp_Variant>
AV-unprocessed.smi:3330-7

> <Gold.Version>
5.8.1

> <Gold.Id.Protein>
6NUR|6NUR_protein|mol2

> <Gold.PLP.Fitness>
39.3214

> <Gold.PLP.PLP>
-31.7326

> <Gold.PLP.part.hbond>
-2.0000

> <Gold.PLP.part.metal>
0.0000

> <Gold.PLP.part.buried>
-5.7078

> <Gold.PLP.part.nonpolar>
-24.4226

> <Gold.PLP.part.repulsive>
0.2371

> <Gold.PLP.ligand.clash>
0.0000

> <Gold.PLP.ligand.torsion>
0.7744

> <Gold.PLP.Chemscore.Hbond>
2.0000

> <Gold.PLP.Chemscore.CHOScore>
1.0000

> <Gold.PLP.Chemscore.Metal>
0.0000

> <Gold.Chemscore.Hbonds>
donor molecule, donor type, donor heavy atom, donor atom, acceptor molecule, acceptor atom, score
      P1  H  6896  6909       L1     8  1.00
      P1  H  7997  8008       L1    12  1.00
      L1  C    18    38       P1  8029  1.00

> <Gold.PLP.Chemscore.Internal.Correction>
0.1375

> <Gold.Rescore>
     Score         DG    S(hbond)    S(metal)    S(lipo)     H(rot)  DE(clash)    DE(int)     intcor
     13.69     -14.73       2.00        0.00      78.81       2.60       0.00       1.04       ----

> <Gold.Chemscore.Fitness>
13.6886

> <Gold.Chemscore.DG>
-14.7269

> <Gold.Chemscore.ZeroCoef>
-5.4800

> <Gold.Chemscore.Hbond>
1.9969

> <Gold.Chemscore.Metal>
0.0000

> <Gold.Chemscore.Lipo>
78.8130

> <Gold.Chemscore.Internal_Hbond>
0.0000

> <Gold.Chemscore.DEClash>
0.0000

> <Gold.Chemscore.DEInternal>
1.0383

> <Gold.Chemscore.Rot>
2.5952

> <Gold.Chemscore.Internal.Correction>
   9.000000E+99

> <Gold.Chemscore.Hbonds>
donor molecule, donor type, donor heavy atom, donor atom, acceptor molecule, acceptor atom, score
      P1  H  6896  6909       L1     8  1.00
      P1  H  7997  8008       L1    12  0.44

> <Gold.Chemscore.Hbond.Weighted>
-6.6695

> <Gold.Chemscore.Metal.Weighted>
-0.0000

> <Gold.Chemscore.Lipo.Weighted>
-9.2211

> <Gold.Chemscore.Internal_Hbond.Weighted>
0.0000

> <Gold.Chemscore.DEClash.Weighted>
0.0000

> <Gold.Chemscore.DEInternal.Weighted>
1.0383

> <Gold.Chemscore.Rot.Weighted>
6.6437

> <Gold.Chemscore.Internal.Correction.Weighted>
   9.000000E+99

> <Gold.Protein.RotatedTorsions>
[ 6907 6896 6895 6894 ] final  179.33 input  -60.11 | X-H torsion
[ 7974 7965 7964 7962 ] final   68.37 input  175.53 | X-H torsion
[ 8008 7997 7996 7995 ] final -127.70 input   59.86 | X-H torsion
[ 10167 10162 10161 10158 ] final -123.62 input  -65.29 | X-H torsion
[ 10718 10713 10712 10709 ] final  147.48 input   66.30 | X-H torsion
[ 10763 10752 10751 10750 ] final  174.36 input  -60.55 | X-H torsion
[ 11005 11000 10999 10996 ] final   76.95 input  -57.11 | X-H torsion

> <Gold.Protein.ActiveResidues>
 VAL166  LYS551  ARG553  GLY616  TRP617  ASP618  TYR619  PRO620  LYS621  CYS622 
 ASP623  PHE694  ASN695  SER759  ASP760  ASP761  ALA762  ILE779  LEU786  VAL792 
 PHE793  MET794  SER795  GLU796  ALA797  LYS798  CYS799  TRP800  GLU811  SER814 

> <Gold.Protein.RotatedAtoms>
  151.6734  133.3313  159.3201 H   0  0  0  0  0  0  0  0  0  0  0  0  # atno 6907 bound_to 6896
  150.7857  134.6842  159.6470 H   0  0  0  0  0  0  0  0  0  0  0  0  # atno 6908 bound_to 6896
  152.3925  134.6421  160.0154 H   0  0  0  0  0  0  0  0  0  0  0  0  # atno 6909 bound_to 6896
  145.8034  139.2994  143.1142 H   0  0  0  0  0  0  0  0  0  0  0  0  # atno 7974 bound_to 7965
  155.2505  140.0432  157.2986 H   0  0  0  0  0  0  0  0  0  0  0  0  # atno 8008 bound_to 7997
  154.5772  140.2390  155.8075 H   0  0  0  0  0  0  0  0  0  0  0  0  # atno 8009 bound_to 7997
  156.2167  140.2982  155.9863 H   0  0  0  0  0  0  0  0  0  0  0  0  # atno 8010 bound_to 7997
  140.0015  143.5535  152.2301 H   0  0  0  0  0  0  0  0  0  0  0  0  # atno 10167 bound_to 10162
  157.3204  131.0903  151.1245 H   0  0  0  0  0  0  0  0  0  0  0  0  # atno 10718 bound_to 10713
  154.4528  135.2765  155.1769 H   0  0  0  0  0  0  0  0  0  0  0  0  # atno 10763 bound_to 10752
  154.3589  135.6134  153.5684 H   0  0  0  0  0  0  0  0  0  0  0  0  # atno 10764 bound_to 10752
  152.9848  135.5829  154.4876 H   0  0  0  0  0  0  0  0  0  0  0  0  # atno 10765 bound_to 10752
  139.9276  134.7643  156.1460 H   0  0  0  0  0  0  0  0  0  0  0  0  # atno 11005 bound_to 11000
  145.9854  140.8647  143.0093 LP  0  0  0  0  0  0  0  0  0  0  0  0  # atno 17320 bound_to 7965
  144.6766  140.2140  143.7374 LP  0  0  0  0  0  0  0  0  0  0  0  0  # atno 17321 bound_to 7965
  139.6268  144.7638  151.2621 LP  0  0  0  0  0  0  0  0  0  0  0  0  # atno 17342 bound_to 10162
  140.7417  143.6549  150.8215 LP  0  0  0  0  0  0  0  0  0  0  0  0  # atno 17343 bound_to 10162
  157.2532  130.6624  149.5941 LP  0  0  0  0  0  0  0  0  0  0  0  0  # atno 17370 bound_to 10713
  155.9685  130.4532  150.5801 LP  0  0  0  0  0  0  0  0  0  0  0  0  # atno 17371 bound_to 10713
  141.0843  133.6741  156.2403 LP  0  0  0  0  0  0  0  0  0  0  0  0  # atno 17394 bound_to 11000
  140.6293  134.5280  157.5557 LP  0  0  0  0  0  0  0  0  0  0  0  0  # atno 17395 bound_to 11000

$$$$
