AV-unprocessed.smi:3132|AV-procd|sdf|11930|dock6
  -GOLD-   2272017313D 1   1.00000     0.00000
 Structure written by MMmdl.
 34 35  0  0  0  0  0  0  0  0  2 V2000
  149.0380  140.7838  157.1103 C   0  0  0  0  0  0  0  0  0  0  0  0
  149.9021  141.4506  156.0319 C   0  0  1  0  0  0  0  0  0  0  0  0
  149.0803  141.7320  154.7547 C   0  0  0  0  0  0  0  0  0  0  0  0
  148.5345  140.5173  154.1401 N   0  0  0  0  0  0  0  0  0  0  0  0
  147.2319  140.2762  153.7848 C   0  0  0  0  0  0  0  0  0  0  0  0
  147.2022  139.0181  153.2405 C   0  0  0  0  0  0  0  0  0  0  0  0
  148.4851  138.5427  153.2926 N   0  3  0  0  0  0  0  0  0  0  0  0
  149.2928  139.4536  153.8450 C   0  0  0  0  0  0  0  0  0  0  0  0
  150.4695  142.6823  156.5791 N   0  0  0  0  0  0  0  0  0  0  0  0
  151.3943  142.7598  157.5494 C   0  0  0  0  0  0  0  0  0  0  0  0
  151.8942  141.7697  158.0854 O   0  0  0  0  0  0  0  0  0  0  0  0
  151.8124  144.1747  157.9761 C   0  0  2  0  0  0  0  0  0  0  0  0
  152.7904  144.1970  159.1681 C   0  0  0  0  0  0  0  0  0  0  0  0
  152.0735  145.0190  160.2253 C   0  0  0  0  0  0  0  0  0  0  0  0
  150.6101  144.8657  159.8382 C   0  0  0  0  0  0  0  0  0  0  0  0
  150.6556  144.8828  158.4189 O   0  0  0  0  0  0  0  0  0  0  0  0
  148.6262  139.8391  156.7544 H   0  0  0  0  0  0  0  0  0  0  0  0
  148.2029  141.4219  157.4018 H   0  0  0  0  0  0  0  0  0  0  0  0
  149.6226  140.5692  158.0058 H   0  0  0  0  0  0  0  0  0  0  0  0
  150.7067  140.7533  155.7909 H   0  0  0  0  0  0  0  0  0  0  0  0
  148.2364  142.3848  154.9823 H   0  0  0  0  0  0  0  0  0  0  0  0
  149.6862  142.2489  154.0090 H   0  0  0  0  0  0  0  0  0  0  0  0
  146.4453  141.0013  153.9350 H   0  0  0  0  0  0  0  0  0  0  0  0
  146.3862  138.4407  152.8306 H   0  0  0  0  0  0  0  0  0  0  0  0
  150.3508  139.3540  154.0100 H   0  0  0  0  0  0  0  0  0  0  0  0
  150.1126  143.5497  156.2043 H   0  0  0  0  0  0  0  0  0  0  0  0
  152.2363  144.7113  157.1259 H   0  0  0  0  0  0  0  0  0  0  0  0
  152.9992  143.1962  159.5492 H   0  0  0  0  0  0  0  0  0  0  0  0
  153.7477  144.6450  158.8998 H   0  0  0  0  0  0  0  0  0  0  0  0
  152.2823  144.6856  161.2420 H   0  0  0  0  0  0  0  0  0  0  0  0
  152.3673  146.0663  160.1434 H   0  0  0  0  0  0  0  0  0  0  0  0
  150.2108  143.9125  160.1877 H   0  0  0  0  0  0  0  0  0  0  0  0
  149.9827  145.6663  160.2300 H   0  0  0  0  0  0  0  0  0  0  0  0
  148.7833  137.6344  152.9596 H   0  0  0  0  0  0  0  0  0  0  0  0
  1  2  1  0  0  0  0
  1 17  1  0  0  0  0
  1 18  1  0  0  0  0
  1 19  1  0  0  0  0
  2  3  1  0  0  0  0
  2  9  1  0  0  0  0
  2 20  1  0  0  0  0
  3  4  1  0  0  0  0
  3 21  1  0  0  0  0
  3 22  1  0  0  0  0
  4  8  1  0  0  0  0
  4  5  1  0  0  0  0
  5  6  2  0  0  0  0
  5 23  1  0  0  0  0
  6  7  1  0  0  0  0
  6 24  1  0  0  0  0
  7  8  2  0  0  0  0
  7 34  1  0  0  0  0
  8 25  1  0  0  0  0
  9 10  1  0  0  0  0
  9 26  1  0  0  0  0
 10 11  2  0  0  0  0
 10 12  1  0  0  0  0
 12 16  1  0  0  0  0
 12 13  1  0  0  0  0
 12 27  1  0  0  0  0
 13 14  1  0  0  0  0
 13 28  1  0  0  0  0
 13 29  1  0  0  0  0
 14 15  1  0  0  0  0
 14 30  1  0  0  0  0
 14 31  1  0  0  0  0
 15 16  1  0  0  0  0
 15 32  1  0  0  0  0
 15 33  1  0  0  0  0
M  CHG  1   7   1
M  END
> <s_m_source_file>
AV-unprocessed.smi

> <i_m_source_file_index>
3132

> <i_lp_mmshare_version>
43012

> <i_f3d_flags>
0

> <s_epik_input>
W2NIXTFuW2NIXVtjSF1uMVtDSDJdW0NAQEhdKFtDSDNdKVtOSF1DKD1PKVtDQEBIXTJbQ0gyXVtDSDJdW0NIMl1PMg==

> <s_epik_cmdline>
J2VwaWtfcHl0aG9uJywgJy1waCcsICc3LjAnLCAnLXRuJywgJzgnLCAnLW1hJywgJzIwMCcsICctbWV0YWxfYmluZGluZycsICctaW1hZScsICc8aW5maWxlLm1hZT4nLCAnLW9tYWUnLCAnPG91dGZpbGUubWFlPic=

> <r_lp_tautomer_probability>
1

> <r_epik_Ionization_Penalty>
0.250802

> <r_epik_Ionization_Penalty_Charging>
0

> <r_epik_Ionization_Penalty_Neutral>
0.250802

> <r_epik_State_Penalty>
0.242139

> <r_epik_Charging_Adjusted_Penalty>
0.242139

> <i_epik_Tot_Q>
1

> <i_epik_Tot_abs_Q>
1

> <r_epik_Metal_State_Penalty>
0.533361

> <b_epik_Metal_Only>
0

> <s_lp_Force_Field>
OPLS_2005

> <r_lp_Energy>
21.4246

> <b_lp_Chiralities_Consistent>
1

> <s_lp_Variant>
AV-unprocessed.smi:3132-2

> <Gold.Version>
5.8.1

> <Gold.Id.Protein>
6NUR|6NUR_protein|mol2

> <Gold.PLP.Fitness>
44.8487

> <Gold.PLP.PLP>
-36.3084

> <Gold.PLP.part.hbond>
-3.0000

> <Gold.PLP.part.metal>
0.0000

> <Gold.PLP.part.buried>
-1.2897

> <Gold.PLP.part.nonpolar>
-32.0692

> <Gold.PLP.part.repulsive>
0.3114

> <Gold.PLP.ligand.clash>
0.0000

> <Gold.PLP.ligand.torsion>
0.1765

> <Gold.PLP.Chemscore.Hbond>
2.9600

> <Gold.PLP.Chemscore.CHOScore>
0.0000

> <Gold.PLP.Chemscore.Metal>
0.0000

> <Gold.Chemscore.Hbonds>
donor molecule, donor type, donor heavy atom, donor atom, acceptor molecule, acceptor atom, score
      L1  H     7    34       P1  7948  2.00
      L1  H     9    26       P1  8028  1.00

> <Gold.PLP.Chemscore.Internal.Correction>
0.0134

> <Gold.Rescore>
     Score         DG    S(hbond)    S(metal)    S(lipo)     H(rot)  DE(clash)    DE(int)     intcor
     15.30     -15.45       1.75        0.00      77.58       1.93       0.02       0.12       ----

> <Gold.Chemscore.Fitness>
15.3024

> <Gold.Chemscore.DG>
-15.4461

> <Gold.Chemscore.ZeroCoef>
-5.4800

> <Gold.Chemscore.Hbond>
1.7462

> <Gold.Chemscore.Metal>
0.0000

> <Gold.Chemscore.Lipo>
77.5795

> <Gold.Chemscore.Internal_Hbond>
0.0000

> <Gold.Chemscore.DEClash>
0.0217

> <Gold.Chemscore.DEInternal>
0.1219

> <Gold.Chemscore.Rot>
1.9308

> <Gold.Chemscore.Internal.Correction>
   9.000000E+99

> <Gold.Chemscore.Hbonds>
donor molecule, donor type, donor heavy atom, donor atom, acceptor molecule, acceptor atom, score
      L1  H     7    34       P1  7948  0.99
      L1  H     9    26       P1  8028  0.99

> <Gold.Chemscore.Hbond.Weighted>
-5.8322

> <Gold.Chemscore.Metal.Weighted>
-0.0000

> <Gold.Chemscore.Lipo.Weighted>
-9.0768

> <Gold.Chemscore.Internal_Hbond.Weighted>
0.0000

> <Gold.Chemscore.DEClash.Weighted>
0.0217

> <Gold.Chemscore.DEInternal.Weighted>
0.1219

> <Gold.Chemscore.Rot.Weighted>
4.9429

> <Gold.Chemscore.Internal.Correction.Weighted>
   9.000000E+99

> <Gold.Protein.RotatedTorsions>
[ 6907 6896 6895 6894 ] final -170.53 input  -60.11 | X-H torsion
[ 7974 7965 7964 7962 ] final   46.40 input  175.53 | X-H torsion
[ 8008 7997 7996 7995 ] final  -29.46 input   59.86 | X-H torsion
[ 10167 10162 10161 10158 ] final  -28.25 input  -65.29 | X-H torsion
[ 10718 10713 10712 10709 ] final  -29.21 input   66.30 | X-H torsion
[ 10763 10752 10751 10750 ] final  128.14 input  -60.55 | X-H torsion
[ 11005 11000 10999 10996 ] final   26.99 input  -57.11 | X-H torsion

> <Gold.Protein.ActiveResidues>
 VAL166  LYS551  ARG553  GLY616  TRP617  ASP618  TYR619  PRO620  LYS621  CYS622 
 ASP623  PHE694  ASN695  SER759  ASP760  ASP761  ALA762  ILE779  LEU786  VAL792 
 PHE793  MET794  SER795  GLU796  ALA797  LYS798  CYS799  TRP800  GLU811  SER814 

> <Gold.Protein.RotatedAtoms>
  151.5092  133.3488  159.2881 H   0  0  0  0  0  0  0  0  0  0  0  0  # atno 6907 bound_to 6896
  150.8723  134.8102  159.7175 H   0  0  0  0  0  0  0  0  0  0  0  0  # atno 6908 bound_to 6896
  152.4707  134.4978  159.9767 H   0  0  0  0  0  0  0  0  0  0  0  0  # atno 6909 bound_to 6896
  146.0393  139.4860  142.9788 H   0  0  0  0  0  0  0  0  0  0  0  0  # atno 7974 bound_to 7965
  154.4289  140.1817  156.1251 H   0  0  0  0  0  0  0  0  0  0  0  0  # atno 8008 bound_to 7997
  156.0112  140.3350  155.6917 H   0  0  0  0  0  0  0  0  0  0  0  0  # atno 8009 bound_to 7997
  155.6108  140.0650  157.2697 H   0  0  0  0  0  0  0  0  0  0  0  0  # atno 8010 bound_to 7997
  140.7271  143.4025  151.1240 H   0  0  0  0  0  0  0  0  0  0  0  0  # atno 10167 bound_to 10162
  156.4153  130.4416  149.7222 H   0  0  0  0  0  0  0  0  0  0  0  0  # atno 10718 bound_to 10713
  153.7208  135.3253  155.3266 H   0  0  0  0  0  0  0  0  0  0  0  0  # atno 10763 bound_to 10752
  154.8356  135.4499  154.1220 H   0  0  0  0  0  0  0  0  0  0  0  0  # atno 10764 bound_to 10752
  153.2339  135.6963  153.7938 H   0  0  0  0  0  0  0  0  0  0  0  0  # atno 10765 bound_to 10752
  140.3311  134.2436  155.7702 H   0  0  0  0  0  0  0  0  0  0  0  0  # atno 11005 bound_to 11000
  145.6911  141.0164  143.1555 LP  0  0  0  0  0  0  0  0  0  0  0  0  # atno 17320 bound_to 7965
  144.7067  139.8533  143.7428 LP  0  0  0  0  0  0  0  0  0  0  0  0  # atno 17321 bound_to 7965
  139.7647  143.8582  152.3108 LP  0  0  0  0  0  0  0  0  0  0  0  0  # atno 17342 bound_to 10162
  139.8480  144.7178  150.9248 LP  0  0  0  0  0  0  0  0  0  0  0  0  # atno 17343 bound_to 10162
  156.4185  130.7757  151.2773 LP  0  0  0  0  0  0  0  0  0  0  0  0  # atno 17370 bound_to 10713
  157.7508  131.0190  150.3649 LP  0  0  0  0  0  0  0  0  0  0  0  0  # atno 17371 bound_to 10713
  141.2063  133.7837  157.0185 LP  0  0  0  0  0  0  0  0  0  0  0  0  # atno 17394 bound_to 11000
  140.0860  134.9621  157.1700 LP  0  0  0  0  0  0  0  0  0  0  0  0  # atno 17395 bound_to 11000

$$$$
