AV-unprocessed.smi:1968|AV-procd|sdf|7956|dock1
  -GOLD-   2272010123D 1   1.00000     0.00000
 Structure written by MMmdl.
 42 43  0  0  0  0  0  0  0  0  1 V2000
  143.6560  146.4665  156.4782 C   0  0  0  0  0  0  0  0  0  0  0  0
  144.0858  145.3745  157.4607 C   0  0  0  0  0  0  0  0  0  0  0  0
  144.2896  145.6974  158.6311 O   0  0  0  0  0  0  0  0  0  0  0  0
  144.2300  144.1027  157.0162 N   0  0  0  0  0  0  0  0  0  0  0  0
  144.0849  143.6684  155.6214 C   0  0  0  0  0  0  0  0  0  0  0  0
  145.4762  143.3185  155.0648 C   0  0  0  0  0  0  0  0  0  0  0  0
  146.1786  142.2499  155.9355 C   0  0  0  0  0  0  0  0  0  0  0  0
  147.5674  142.0776  155.5204 N   0  0  0  0  0  0  0  0  0  0  0  0
  148.0828  140.9663  154.9736 C   0  0  0  0  0  0  0  0  0  0  0  0
  147.4174  139.9542  154.7492 O   0  0  0  0  0  0  0  0  0  0  0  0
  149.5742  141.0277  154.6124 C   0  0  0  0  0  0  0  0  0  0  0  0
  150.4656  140.8544  155.7718 N   0  0  0  0  0  0  0  0  0  0  0  0
  150.4770  141.8856  156.7318 C   0  0  0  0  0  0  0  0  0  0  0  0
  151.2406  141.8464  157.8407 C   0  0  0  0  0  0  0  0  0  0  0  0
  151.2794  143.0018  158.8290 C   0  0  0  0  0  0  0  0  0  0  0  0
  150.0657  143.2517  159.3209 F   0  0  0  0  0  0  0  0  0  0  0  0
  152.0987  142.7398  159.8482 F   0  0  0  0  0  0  0  0  0  0  0  0
  151.7147  144.1037  158.2198 F   0  0  0  0  0  0  0  0  0  0  0  0
  152.0953  140.6856  157.9944 C   0  0  0  0  0  0  0  0  0  0  0  0
  152.1057  139.6963  157.0796 C   0  0  0  0  0  0  0  0  0  0  0  0
  151.2557  139.7450  155.8878 C   0  0  0  0  0  0  0  0  0  0  0  0
  151.2548  138.8461  155.0463 O   0  0  0  0  0  0  0  0  0  0  0  0
  146.1310  142.6221  157.4335 C   0  0  0  0  0  0  0  0  0  0  0  0
  144.7078  143.0113  157.8726 C   0  0  0  0  0  0  0  0  0  0  0  0
  144.3641  146.5466  155.6529 H   0  0  0  0  0  0  0  0  0  0  0  0
  143.6149  147.4364  156.9751 H   0  0  0  0  0  0  0  0  0  0  0  0
  142.6644  146.2558  156.0772 H   0  0  0  0  0  0  0  0  0  0  0  0
  143.4393  142.7896  155.5850 H   0  0  0  0  0  0  0  0  0  0  0  0
  143.6036  144.4067  154.9815 H   0  0  0  0  0  0  0  0  0  0  0  0
  145.3835  142.9668  154.0366 H   0  0  0  0  0  0  0  0  0  0  0  0
  146.0839  144.2242  155.0277 H   0  0  0  0  0  0  0  0  0  0  0  0
  145.6498  141.3024  155.8128 H   0  0  0  0  0  0  0  0  0  0  0  0
  148.1849  142.8632  155.6658 H   0  0  0  0  0  0  0  0  0  0  0  0
  149.7735  140.2625  153.8606 H   0  0  0  0  0  0  0  0  0  0  0  0
  149.7853  141.9763  154.1146 H   0  0  0  0  0  0  0  0  0  0  0  0
  149.8293  142.7194  156.5018 H   0  0  0  0  0  0  0  0  0  0  0  0
  152.7367  140.6064  158.8598 H   0  0  0  0  0  0  0  0  0  0  0  0
  152.7549  138.8456  157.2274 H   0  0  0  0  0  0  0  0  0  0  0  0
  146.4917  141.7893  158.0384 H   0  0  0  0  0  0  0  0  0  0  0  0
  146.8033  143.4595  157.6290 H   0  0  0  0  0  0  0  0  0  0  0  0
  144.7039  143.2724  158.9318 H   0  0  0  0  0  0  0  0  0  0  0  0
  144.0380  142.1555  157.7766 H   0  0  0  0  0  0  0  0  0  0  0  0
  1  2  1  0  0  0  0
  1 25  1  0  0  0  0
  1 26  1  0  0  0  0
  1 27  1  0  0  0  0
  2  3  2  0  0  0  0
  2  4  1  0  0  0  0
  4 24  1  0  0  0  0
  4  5  1  0  0  0  0
  5  6  1  0  0  0  0
  5 28  1  0  0  0  0
  5 29  1  0  0  0  0
  6  7  1  0  0  0  0
  6 30  1  0  0  0  0
  6 31  1  0  0  0  0
  7  8  1  0  0  0  0
  7 23  1  0  0  0  0
  7 32  1  0  0  0  0
  8  9  1  0  0  0  0
  8 33  1  0  0  0  0
  9 10  2  0  0  0  0
  9 11  1  0  0  0  0
 11 12  1  0  0  0  0
 11 34  1  0  0  0  0
 11 35  1  0  0  0  0
 12 21  1  0  0  0  0
 12 13  1  0  0  0  0
 13 14  2  0  0  0  0
 13 36  1  0  0  0  0
 14 15  1  0  0  0  0
 14 19  1  0  0  0  0
 15 16  1  0  0  0  0
 15 17  1  0  0  0  0
 15 18  1  0  0  0  0
 19 20  2  0  0  0  0
 19 37  1  0  0  0  0
 20 21  1  0  0  0  0
 20 38  1  0  0  0  0
 21 22  2  0  0  0  0
 23 24  1  0  0  0  0
 23 39  1  0  0  0  0
 23 40  1  0  0  0  0
 24 41  1  0  0  0  0
 24 42  1  0  0  0  0
M  END
> <s_m_source_file>
AV-unprocessed.smi

> <i_m_source_file_index>
1968

> <i_lp_mmshare_version>
43012

> <i_f3d_flags>
0

> <s_epik_input>
W0NIM11DKD1PKU4xW0NIMl1bQ0gyXVtDSF0oW0NIMl1bQ0gyXTEpW05IXUMoPU8pW0NIMl1uMltjSF1jKEMoRikoRilGKVtjSF1bY0hdYzI9Tw==

> <s_epik_cmdline>
J2VwaWtfcHl0aG9uJywgJy1waCcsICc3LjAnLCAnLXRuJywgJzgnLCAnLW1hJywgJzIwMCcsICctbWV0YWxfYmluZGluZycsICctaW1hZScsICc8aW5maWxlLm1hZT4nLCAnLW9tYWUnLCAnPG91dGZpbGUubWFlPic=

> <r_lp_tautomer_probability>
1

> <r_epik_Ionization_Penalty>
1.143e-06

> <r_epik_Ionization_Penalty_Charging>
1.89481e-08

> <r_epik_Ionization_Penalty_Neutral>
1.12405e-06

> <r_epik_State_Penalty>
-0

> <r_epik_Charging_Adjusted_Penalty>
1.89481e-08

> <i_epik_Tot_Q>
0

> <i_epik_Tot_abs_Q>
0

> <r_epik_Metal_State_Penalty>
-0

> <b_epik_Metal_Only>
0

> <s_lp_Force_Field>
OPLS_2005

> <r_lp_Energy>
33.7668

> <b_lp_Chiralities_Consistent>
1

> <s_lp_Variant>
AV-unprocessed.smi:1968-1

> <Gold.Version>
5.8.1

> <Gold.Id.Protein>
6NUR|6NUR_protein|mol2

> <Gold.PLP.Fitness>
50.1962

> <Gold.PLP.PLP>
-44.8771

> <Gold.PLP.part.hbond>
-1.0000

> <Gold.PLP.part.metal>
0.0000

> <Gold.PLP.part.buried>
-4.5830

> <Gold.PLP.part.nonpolar>
-39.6081

> <Gold.PLP.part.repulsive>
0.3132

> <Gold.PLP.ligand.clash>
0.0000

> <Gold.PLP.ligand.torsion>
0.3695

> <Gold.PLP.Chemscore.Hbond>
1.0000

> <Gold.PLP.Chemscore.CHOScore>
1.0000

> <Gold.PLP.Chemscore.Metal>
0.0000

> <Gold.Chemscore.Hbonds>
donor molecule, donor type, donor heavy atom, donor atom, acceptor molecule, acceptor atom, score
      L1  H     8    33       P1  8028  1.00
      L1  C    13    36       P1  8028  1.00

> <Gold.PLP.Chemscore.Internal.Correction>
0.0582

> <Gold.Rescore>
     Score         DG    S(hbond)    S(metal)    S(lipo)     H(rot)  DE(clash)    DE(int)     intcor
     12.73     -13.10       0.99        0.00      72.86       1.64       0.02       0.36       ----

> <Gold.Chemscore.Fitness>
12.7271

> <Gold.Chemscore.DG>
-13.1025

> <Gold.Chemscore.ZeroCoef>
-5.4800

> <Gold.Chemscore.Hbond>
0.9895

> <Gold.Chemscore.Metal>
0.0000

> <Gold.Chemscore.Lipo>
72.8623

> <Gold.Chemscore.Internal_Hbond>
0.0000

> <Gold.Chemscore.DEClash>
0.0186

> <Gold.Chemscore.DEInternal>
0.3567

> <Gold.Chemscore.Rot>
1.6435

> <Gold.Chemscore.Internal.Correction>
   9.000000E+99

> <Gold.Chemscore.Hbonds>
donor molecule, donor type, donor heavy atom, donor atom, acceptor molecule, acceptor atom, score
      L1  H     8    33       P1  8028  0.91

> <Gold.Chemscore.Hbond.Weighted>
-3.3050

> <Gold.Chemscore.Metal.Weighted>
-0.0000

> <Gold.Chemscore.Lipo.Weighted>
-8.5249

> <Gold.Chemscore.Internal_Hbond.Weighted>
0.0000

> <Gold.Chemscore.DEClash.Weighted>
0.0186

> <Gold.Chemscore.DEInternal.Weighted>
0.3567

> <Gold.Chemscore.Rot.Weighted>
4.2074

> <Gold.Chemscore.Internal.Correction.Weighted>
   9.000000E+99

> <Gold.Protein.RotatedTorsions>
[ 6907 6896 6895 6894 ] final  -54.48 input  -60.11 | X-H torsion
[ 7974 7965 7964 7962 ] final  168.58 input  175.53 | X-H torsion
[ 8008 7997 7996 7995 ] final -125.54 input   59.86 | X-H torsion
[ 10167 10162 10161 10158 ] final -140.58 input  -65.29 | X-H torsion
[ 10718 10713 10712 10709 ] final -109.62 input   66.30 | X-H torsion
[ 10763 10752 10751 10750 ] final   62.75 input  -60.55 | X-H torsion
[ 11005 11000 10999 10996 ] final   31.82 input  -57.11 | X-H torsion

> <Gold.Protein.ActiveResidues>
 VAL166  LYS551  ARG553  GLY616  TRP617  ASP618  TYR619  PRO620  LYS621  CYS622 
 ASP623  PHE694  ASN695  SER759  ASP760  ASP761  ALA762  ILE779  LEU786  VAL792 
 PHE793  MET794  SER795  GLU796  ALA797  LYS798  CYS799  TRP800  GLU811  SER814 

> <Gold.Protein.RotatedAtoms>
  150.8335  134.7598  159.6872 H   0  0  0  0  0  0  0  0  0  0  0  0  # atno 6907 bound_to 6896
  152.4435  134.5538  159.9884 H   0  0  0  0  0  0  0  0  0  0  0  0  # atno 6908 bound_to 6896
  151.5694  133.3354  159.3022 H   0  0  0  0  0  0  0  0  0  0  0  0  # atno 6909 bound_to 6896
  144.7384  139.8928  143.6404 H   0  0  0  0  0  0  0  0  0  0  0  0  # atno 7974 bound_to 7965
  155.2150  140.0420  157.2939 H   0  0  0  0  0  0  0  0  0  0  0  0  # atno 8008 bound_to 7997
  154.5986  140.2446  155.7793 H   0  0  0  0  0  0  0  0  0  0  0  0  # atno 8009 bound_to 7997
  156.2307  140.2939  156.0189 H   0  0  0  0  0  0  0  0  0  0  0  0  # atno 8010 bound_to 7997
  139.8268  143.7501  152.2666 H   0  0  0  0  0  0  0  0  0  0  0  0  # atno 10167 bound_to 10162
  156.0547  130.5773  150.8125 H   0  0  0  0  0  0  0  0  0  0  0  0  # atno 10718 bound_to 10713
  152.9993  135.5453  154.6243 H   0  0  0  0  0  0  0  0  0  0  0  0  # atno 10763 bound_to 10752
  154.5535  135.2828  155.0988 H   0  0  0  0  0  0  0  0  0  0  0  0  # atno 10764 bound_to 10752
  154.2218  135.6449  153.5200 H   0  0  0  0  0  0  0  0  0  0  0  0  # atno 10765 bound_to 10752
  140.2799  134.2984  155.7803 H   0  0  0  0  0  0  0  0  0  0  0  0  # atno 11005 bound_to 11000
  146.1129  139.4136  143.0276 LP  0  0  0  0  0  0  0  0  0  0  0  0  # atno 17320 bound_to 7965
  145.7416  141.0006  143.1298 LP  0  0  0  0  0  0  0  0  0  0  0  0  # atno 17321 bound_to 7965
  139.7696  144.7481  151.0244 LP  0  0  0  0  0  0  0  0  0  0  0  0  # atno 17342 bound_to 10162
  140.7809  143.4660  151.0212 LP  0  0  0  0  0  0  0  0  0  0  0  0  # atno 17343 bound_to 10162
  157.5506  131.0943  150.9701 LP  0  0  0  0  0  0  0  0  0  0  0  0  # atno 17370 bound_to 10713
  156.9962  130.5582  149.5307 LP  0  0  0  0  0  0  0  0  0  0  0  0  # atno 17371 bound_to 10713
  141.2164  133.7519  156.9465 LP  0  0  0  0  0  0  0  0  0  0  0  0  # atno 17394 bound_to 11000
  140.1293  134.9366  157.2314 LP  0  0  0  0  0  0  0  0  0  0  0  0  # atno 17395 bound_to 11000

$$$$
