AV-unprocessed.smi:316|AV-procd|sdf|2325|dock2
  -GOLD-   2262022223D 1   1.00000     0.00000
 Structure written by MMmdl.
 43 44  0  0  0  0  0  0  0  0  2 V2000
  156.7790  133.5710  158.9466 C   0  0  0  0  0  0  0  0  0  0  0  0
  155.8742  134.6567  158.6010 N   0  0  0  0  0  0  0  0  0  0  0  0
  154.6972  134.8782  159.2031 C   0  0  0  0  0  0  0  0  0  0  0  0
  154.2669  134.1742  160.1173 O   0  0  0  0  0  0  0  0  0  0  0  0
  153.8959  136.0801  158.6921 C   0  0  0  0  0  0  0  0  0  0  0  0
  153.7664  137.2135  159.7295 C   0  0  0  0  0  0  0  0  0  0  0  0
  152.8068  138.2265  159.3040 N   0  0  0  0  0  0  0  0  0  0  0  0
  153.0997  139.5154  159.0827 C   0  0  0  0  0  0  0  0  0  0  0  0
  154.2289  139.9894  159.2068 O   0  0  0  0  0  0  0  0  0  0  0  0
  152.0138  140.2037  158.6925 N   0  0  0  0  0  0  0  0  0  0  0  0
  151.9438  141.5730  158.3104 C   0  0  0  0  0  0  0  0  0  0  0  0
  152.7673  142.5474  158.9308 C   0  0  0  0  0  0  0  0  0  0  0  0
  152.6318  143.9051  158.5860 C   0  0  0  0  0  0  0  0  0  0  0  0
  151.6621  144.2720  157.6377 C   0  0  0  0  0  0  0  0  0  0  0  0
  150.8850  143.3238  157.0750 N   0  3  0  0  0  0  0  0  0  0  0  0
  150.9775  141.9992  157.3532 C   0  0  0  0  0  0  0  0  0  0  0  0
  150.1029  141.1201  156.6743 N   0  0  0  0  0  0  0  0  0  0  0  0
  149.0081  141.6454  155.8668 C   0  0  0  0  0  0  0  0  0  0  0  0
  148.5295  140.4619  155.0307 C   0  0  0  0  0  0  0  0  0  0  0  0
  149.8266  139.7053  154.7603 C   0  0  0  0  0  0  0  0  0  0  0  0
  150.6498  139.9280  156.0334 C   0  0  0  0  0  0  0  0  0  0  0  0
  157.6530  133.5941  158.2958 H   0  0  0  0  0  0  0  0  0  0  0  0
  156.2900  132.6033  158.8268 H   0  0  0  0  0  0  0  0  0  0  0  0
  157.1195  133.6644  159.9787 H   0  0  0  0  0  0  0  0  0  0  0  0
  156.1625  135.2804  157.8609 H   0  0  0  0  0  0  0  0  0  0  0  0
  154.3797  136.4504  157.7874 H   0  0  0  0  0  0  0  0  0  0  0  0
  152.9017  135.7390  158.3990 H   0  0  0  0  0  0  0  0  0  0  0  0
  153.4233  136.8112  160.6835 H   0  0  0  0  0  0  0  0  0  0  0  0
  154.7350  137.6802  159.9186 H   0  0  0  0  0  0  0  0  0  0  0  0
  151.8528  137.9222  159.1756 H   0  0  0  0  0  0  0  0  0  0  0  0
  151.1730  139.6646  158.5452 H   0  0  0  0  0  0  0  0  0  0  0  0
  153.4894  142.2756  159.6862 H   0  0  0  0  0  0  0  0  0  0  0  0
  153.2544  144.6544  159.0526 H   0  0  0  0  0  0  0  0  0  0  0  0
  151.4818  145.2877  157.3169 H   0  0  0  0  0  0  0  0  0  0  0  0
  148.2100  142.0501  156.4900 H   0  0  0  0  0  0  0  0  0  0  0  0
  149.3661  142.4376  155.2077 H   0  0  0  0  0  0  0  0  0  0  0  0
  147.8506  139.8399  155.6158 H   0  0  0  0  0  0  0  0  0  0  0  0
  148.0128  140.7656  154.1199 H   0  0  0  0  0  0  0  0  0  0  0  0
  149.6668  138.6498  154.5378 H   0  0  0  0  0  0  0  0  0  0  0  0
  150.3399  140.1533  153.9084 H   0  0  0  0  0  0  0  0  0  0  0  0
  151.7116  140.0321  155.8059 H   0  0  0  0  0  0  0  0  0  0  0  0
  150.5278  139.0800  156.7079 H   0  0  0  0  0  0  0  0  0  0  0  0
  150.1893  143.6221  156.3912 H   0  0  0  0  0  0  0  0  0  0  0  0
  1  2  1  0  0  0  0
  1 22  1  0  0  0  0
  1 23  1  0  0  0  0
  1 24  1  0  0  0  0
  2  3  1  0  0  0  0
  2 25  1  0  0  0  0
  3  4  2  0  0  0  0
  3  5  1  0  0  0  0
  5  6  1  0  0  0  0
  5 26  1  0  0  0  0
  5 27  1  0  0  0  0
  6  7  1  0  0  0  0
  6 28  1  0  0  0  0
  6 29  1  0  0  0  0
  7  8  1  0  0  0  0
  7 30  1  0  0  0  0
  8  9  2  0  0  0  0
  8 10  1  0  0  0  0
 10 11  1  0  0  0  0
 10 31  1  0  0  0  0
 11 16  1  0  0  0  0
 11 12  2  0  0  0  0
 12 13  1  0  0  0  0
 12 32  1  0  0  0  0
 13 14  2  0  0  0  0
 13 33  1  0  0  0  0
 14 15  1  0  0  0  0
 14 34  1  0  0  0  0
 15 16  2  0  0  0  0
 15 43  1  0  0  0  0
 16 17  1  0  0  0  0
 17 21  1  0  0  0  0
 17 18  1  0  0  0  0
 18 19  1  0  0  0  0
 18 35  1  0  0  0  0
 18 36  1  0  0  0  0
 19 20  1  0  0  0  0
 19 37  1  0  0  0  0
 19 38  1  0  0  0  0
 20 21  1  0  0  0  0
 20 39  1  0  0  0  0
 20 40  1  0  0  0  0
 21 41  1  0  0  0  0
 21 42  1  0  0  0  0
M  CHG  1  15   1
M  END
> <s_m_source_file>
AV-unprocessed.smi

> <i_m_source_file_index>
316

> <i_lp_mmshare_version>
43012

> <i_f3d_flags>
0

> <s_epik_input>
W0NIM11bTkhdQyg9TylbQ0gyXVtDSDJdW05IXUMoPU8pW05IXWMxW2NIXVtjSF1bY0hdbmMxTjJbQ0gyXVtDSDJdW0NIMl1bQ0gyXTI=

> <s_epik_cmdline>
J2VwaWtfcHl0aG9uJywgJy1waCcsICc3LjAnLCAnLXRuJywgJzgnLCAnLW1hJywgJzIwMCcsICctbWV0YWxfYmluZGluZycsICctaW1hZScsICc8aW5maWxlLm1hZT4nLCAnLW9tYWUnLCAnPG91dGZpbGUubWFlPic=

> <r_lp_tautomer_probability>
0.999994

> <r_epik_Ionization_Penalty>
1.15434

> <r_epik_Ionization_Penalty_Charging>
1.15432

> <r_epik_Ionization_Penalty_Neutral>
1.92607e-05

> <r_epik_State_Penalty>
1.21599

> <r_epik_Charging_Adjusted_Penalty>
2.37031

> <i_epik_Tot_Q>
1

> <i_epik_Tot_abs_Q>
1

> <r_epik_Metal_State_Penalty>
1.29606

> <b_epik_Metal_Only>
0

> <s_lp_Force_Field>
OPLS_2005

> <r_lp_Energy>
36.337

> <b_lp_Chiralities_Consistent>
1

> <s_lp_Variant>
AV-unprocessed.smi:316-2

> <Gold.Version>
5.8.1

> <Gold.Id.Protein>
6NUR|6NUR_protein|mol2

> <Gold.PLP.Fitness>
44.6215

> <Gold.PLP.PLP>
-33.3215

> <Gold.PLP.part.hbond>
-3.0000

> <Gold.PLP.part.metal>
0.0000

> <Gold.PLP.part.buried>
-1.4825

> <Gold.PLP.part.nonpolar>
-28.5575

> <Gold.PLP.part.repulsive>
0.2839

> <Gold.PLP.ligand.clash>
0.0000

> <Gold.PLP.ligand.torsion>
0.4841

> <Gold.PLP.Chemscore.Hbond>
3.9440

> <Gold.PLP.Chemscore.CHOScore>
0.0000

> <Gold.PLP.Chemscore.Metal>
0.0000

> <Gold.Chemscore.Hbonds>
donor molecule, donor type, donor heavy atom, donor atom, acceptor molecule, acceptor atom, score
      L1  H    15    43       P1  8028  2.00
      P1  H  6896  6909       L1     4  1.00
      P1  H  7997  8009       L1     9  0.83

> <Gold.PLP.Chemscore.Internal.Correction>
0.4361

> <Gold.Rescore>
     Score         DG    S(hbond)    S(metal)    S(lipo)     H(rot)  DE(clash)    DE(int)     intcor
     16.41     -18.26       2.65        0.00      76.85       1.98       0.08       1.77       ----

> <Gold.Chemscore.Fitness>
16.4091

> <Gold.Chemscore.DG>
-18.2593

> <Gold.Chemscore.ZeroCoef>
-5.4800

> <Gold.Chemscore.Hbond>
2.6485

> <Gold.Chemscore.Metal>
0.0000

> <Gold.Chemscore.Lipo>
76.8535

> <Gold.Chemscore.Internal_Hbond>
0.0000

> <Gold.Chemscore.DEClash>
0.0786

> <Gold.Chemscore.DEInternal>
1.7717

> <Gold.Chemscore.Rot>
1.9760

> <Gold.Chemscore.Internal.Correction>
   9.000000E+99

> <Gold.Chemscore.Hbonds>
donor molecule, donor type, donor heavy atom, donor atom, acceptor molecule, acceptor atom, score
      L1  H    15    43       P1  8028  0.98
      P1  H  6896  6909       L1     4  0.45
      P1  H  7997  8009       L1     9  0.59

> <Gold.Chemscore.Hbond.Weighted>
-8.8460

> <Gold.Chemscore.Metal.Weighted>
-0.0000

> <Gold.Chemscore.Lipo.Weighted>
-8.9919

> <Gold.Chemscore.Internal_Hbond.Weighted>
0.0000

> <Gold.Chemscore.DEClash.Weighted>
0.0786

> <Gold.Chemscore.DEInternal.Weighted>
1.7717

> <Gold.Chemscore.Rot.Weighted>
5.0585

> <Gold.Chemscore.Internal.Correction.Weighted>
   9.000000E+99

> <Gold.Protein.RotatedTorsions>
[ 6907 6896 6895 6894 ] final -149.13 input  -60.11 | X-H torsion
[ 7974 7965 7964 7962 ] final   94.71 input  175.53 | X-H torsion
[ 8008 7997 7996 7995 ] final  115.62 input   59.86 | X-H torsion
[ 10167 10162 10161 10158 ] final  -26.86 input  -65.29 | X-H torsion
[ 10718 10713 10712 10709 ] final   76.15 input   66.30 | X-H torsion
[ 10763 10752 10751 10750 ] final   40.11 input  -60.55 | X-H torsion
[ 11005 11000 10999 10996 ] final   58.76 input  -57.11 | X-H torsion

> <Gold.Protein.ActiveResidues>
 VAL166  LYS551  ARG553  GLY616  TRP617  ASP618  TYR619  PRO620  LYS621  CYS622 
 ASP623  PHE694  ASN695  SER759  ASP760  ASP761  ALA762  ILE779  LEU786  VAL792 
 PHE793  MET794  SER795  GLU796  ALA797  LYS798  CYS799  TRP800  GLU811  SER814 

> <Gold.Protein.RotatedAtoms>
  151.1797  133.4732  159.2593 H   0  0  0  0  0  0  0  0  0  0  0  0  # atno 6907 bound_to 6896
  151.1271  135.0110  159.8575 H   0  0  0  0  0  0  0  0  0  0  0  0  # atno 6908 bound_to 6896
  152.5458  134.1703  159.8647 H   0  0  0  0  0  0  0  0  0  0  0  0  # atno 6909 bound_to 6896
  145.4620  139.2286  143.2982 H   0  0  0  0  0  0  0  0  0  0  0  0  # atno 7974 bound_to 7965
  156.2392  140.2935  156.0396 H   0  0  0  0  0  0  0  0  0  0  0  0  # atno 8008 bound_to 7997
  155.2002  140.0409  157.2933 H   0  0  0  0  0  0  0  0  0  0  0  0  # atno 8009 bound_to 7997
  154.6135  140.2458  155.7645 H   0  0  0  0  0  0  0  0  0  0  0  0  # atno 8010 bound_to 7997
  140.7280  143.4142  151.1055 H   0  0  0  0  0  0  0  0  0  0  0  0  # atno 10167 bound_to 10162
  157.6662  130.9760  150.1456 H   0  0  0  0  0  0  0  0  0  0  0  0  # atno 10718 bound_to 10713
  152.9946  135.6201  154.2574 H   0  0  0  0  0  0  0  0  0  0  0  0  # atno 10763 bound_to 10752
  154.2311  135.2792  155.2891 H   0  0  0  0  0  0  0  0  0  0  0  0  # atno 10764 bound_to 10752
  154.5449  135.5750  153.6929 H   0  0  0  0  0  0  0  0  0  0  0  0  # atno 10765 bound_to 10752
  140.0354  134.5951  155.9451 H   0  0  0  0  0  0  0  0  0  0  0  0  # atno 11005 bound_to 11000
  146.2446  140.5389  142.8919 LP  0  0  0  0  0  0  0  0  0  0  0  0  # atno 17320 bound_to 7965
  144.7997  140.6190  143.6486 LP  0  0  0  0  0  0  0  0  0  0  0  0  # atno 17321 bound_to 7965
  139.7780  143.8397  152.3132 LP  0  0  0  0  0  0  0  0  0  0  0  0  # atno 17342 bound_to 10162
  139.8338  144.7241  150.9417 LP  0  0  0  0  0  0  0  0  0  0  0  0  # atno 17343 bound_to 10162
  156.2268  130.3678  149.8492 LP  0  0  0  0  0  0  0  0  0  0  0  0  # atno 17370 bound_to 10713
  156.6329  130.8673  151.3499 LP  0  0  0  0  0  0  0  0  0  0  0  0  # atno 17371 bound_to 10713
  141.1854  133.6555  156.5197 LP  0  0  0  0  0  0  0  0  0  0  0  0  # atno 17394 bound_to 11000
  140.4157  134.7232  157.4861 LP  0  0  0  0  0  0  0  0  0  0  0  0  # atno 17395 bound_to 11000

$$$$
