AV-unprocessed.smi:101|AV-procd|sdf|920|dock2
  -GOLD-   2262017423D 1   1.00000     0.00000
 Structure written by MMmdl.
 44 46  0  0  0  0  0  0  0  0  1 V2000
  146.9120  142.7940  156.8136 C   0  0  0  0  0  0  0  0  0  0  0  0
  146.9415  141.7878  155.6746 C   0  0  0  0  0  0  0  0  0  0  0  0
  148.0662  141.1073  155.3348 C   0  0  0  0  0  0  0  0  0  0  0  0
  148.1257  140.1844  154.2967 N   0  0  0  0  0  0  0  0  0  0  0  0
  149.4021  139.4483  153.9253 C   0  0  1  0  0  0  0  0  0  0  0  0
  150.4783  139.9849  154.6362 O   0  0  0  0  0  0  0  0  0  0  0  0
  150.8589  139.0932  155.6779 C   0  0  2  0  0  0  0  0  0  0  0  0
  152.2783  139.3966  156.1738 C   0  0  0  0  0  0  0  0  0  0  0  0
  152.2032  140.5040  157.0557 O   0  0  0  0  0  0  0  0  0  0  0  0
  152.8705  140.4943  158.2237 C   0  0  0  0  0  0  0  0  0  0  0  0
  153.5656  139.5512  158.6065 O   0  0  0  0  0  0  0  0  0  0  0  0
  152.6804  141.7517  159.0036 C   0  0  0  0  0  0  0  0  0  0  0  0
  152.1504  142.8947  158.3606 C   0  0  0  0  0  0  0  0  0  0  0  0
  151.9591  144.0944  159.0736 C   0  0  0  0  0  0  0  0  0  0  0  0
  152.2967  144.1661  160.4378 C   0  0  0  0  0  0  0  0  0  0  0  0
  152.8249  143.0363  161.0890 C   0  0  0  0  0  0  0  0  0  0  0  0
  153.0157  141.8355  160.3782 C   0  0  0  0  0  0  0  0  0  0  0  0
  150.6388  137.7188  155.0437 C   0  0  2  0  0  0  0  0  0  0  0  0
  151.7171  137.3788  154.1913 O   0  0  0  0  0  0  0  0  0  0  0  0
  149.3574  137.9299  154.2443 C   0  0  1  0  0  0  0  0  0  0  0  0
  148.2446  137.5402  155.0314 O   0  0  0  0  0  0  0  0  0  0  0  0
  146.9669  139.9328  153.5337 C   0  0  0  0  0  0  0  0  0  0  0  0
  146.9479  139.1315  152.6000 O   0  0  0  0  0  0  0  0  0  0  0  0
  145.8116  140.6287  153.8835 N   0  0  0  0  0  0  0  0  0  0  0  0
  145.7054  141.5570  154.9217 C   0  0  0  0  0  0  0  0  0  0  0  0
  144.6266  142.1068  155.1368 O   0  0  0  0  0  0  0  0  0  0  0  0
  144.9802  140.4477  153.3401 H   0  0  0  0  0  0  0  0  0  0  0  0
  147.8889  142.9015  157.2866 H   0  0  0  0  0  0  0  0  0  0  0  0
  146.2020  142.4808  157.5797 H   0  0  0  0  0  0  0  0  0  0  0  0
  146.6100  143.7756  156.4471 H   0  0  0  0  0  0  0  0  0  0  0  0
  148.9545  141.3122  155.9120 H   0  0  0  0  0  0  0  0  0  0  0  0
  149.5676  139.6640  152.8680 H   0  0  0  0  0  0  0  0  0  0  0  0
  150.1582  139.1947  156.5086 H   0  0  0  0  0  0  0  0  0  0  0  0
  152.6813  138.5391  156.7140 H   0  0  0  0  0  0  0  0  0  0  0  0
  152.9441  139.6080  155.3357 H   0  0  0  0  0  0  0  0  0  0  0  0
  151.8834  142.8633  157.3139 H   0  0  0  0  0  0  0  0  0  0  0  0
  151.5527  144.9604  158.5725 H   0  0  0  0  0  0  0  0  0  0  0  0
  152.1508  145.0865  160.9839 H   0  0  0  0  0  0  0  0  0  0  0  0
  153.0850  143.0899  162.1359 H   0  0  0  0  0  0  0  0  0  0  0  0
  153.4232  140.9878  160.9096 H   0  0  0  0  0  0  0  0  0  0  0  0
  150.5432  136.9334  155.7951 H   0  0  0  0  0  0  0  0  0  0  0  0
  151.3755  137.2092  153.3265 H   0  0  0  0  0  0  0  0  0  0  0  0
  149.3433  137.3555  153.3169 H   0  0  0  0  0  0  0  0  0  0  0  0
  147.5395  138.1489  154.8709 H   0  0  0  0  0  0  0  0  0  0  0  0
  1  2  1  0  0  0  0
  1 28  1  0  0  0  0
  1 29  1  0  0  0  0
  1 30  1  0  0  0  0
  2 25  1  0  0  0  0
  2  3  2  0  0  0  0
  3  4  1  0  0  0  0
  3 31  1  0  0  0  0
  4  5  1  0  0  0  0
  4 22  1  0  0  0  0
  5 20  1  0  0  0  0
  5  6  1  0  0  0  0
  5 32  1  0  0  0  0
  6  7  1  0  0  0  0
  7  8  1  0  0  0  0
  7 18  1  0  0  0  0
  7 33  1  0  0  0  0
  8  9  1  0  0  0  0
  8 34  1  0  0  0  0
  8 35  1  0  0  0  0
  9 10  1  0  0  0  0
 10 11  2  0  0  0  0
 10 12  1  0  0  0  0
 12 17  1  0  0  0  0
 12 13  2  0  0  0  0
 13 14  1  0  0  0  0
 13 36  1  0  0  0  0
 14 15  2  0  0  0  0
 14 37  1  0  0  0  0
 15 16  1  0  0  0  0
 15 38  1  0  0  0  0
 16 17  2  0  0  0  0
 16 39  1  0  0  0  0
 17 40  1  0  0  0  0
 18 19  1  0  0  0  0
 18 20  1  0  0  0  0
 18 41  1  0  0  0  0
 19 42  1  0  0  0  0
 20 21  1  0  0  0  0
 20 43  1  0  0  0  0
 21 44  1  0  0  0  0
 22 23  2  0  0  0  0
 22 24  1  0  0  0  0
 24 27  1  0  0  0  0
 24 25  1  0  0  0  0
 25 26  2  0  0  0  0
M  END
> <s_m_source_file>
AV-unprocessed.smi

> <i_m_source_file_index>
101

> <i_lp_mmshare_version>
43012

> <i_f3d_flags>
0

> <s_epik_input>
Tz1jMVtuSF1jKD1PKW4oW2NIXWMxW0NIM10pW0NAQEhdMk9bQ0BIXShbQ0BASF0oW09IXSlbQ0BIXTJbT0hdKVtDSDJdT0MoPU8pYzNbY0hdW2NIXVtjSF1bY0hdW2NIXTM=

> <s_epik_cmdline>
J2VwaWtfcHl0aG9uJywgJy1waCcsICc3LjAnLCAnLXRuJywgJzgnLCAnLW1hJywgJzIwMCcsICctbWV0YWxfYmluZGluZycsICctaW1hZScsICc8aW5maWxlLm1hZT4nLCAnLW9tYWUnLCAnPG91dGZpbGUubWFlPic=

> <r_lp_tautomer_probability>
0.999537

> <r_epik_Ionization_Penalty>
0.00263537

> <r_epik_Ionization_Penalty_Charging>
0.00263428

> <r_epik_Ionization_Penalty_Neutral>
1.09111e-06

> <r_epik_State_Penalty>
0.00183335

> <r_epik_Charging_Adjusted_Penalty>
0.00446763

> <i_epik_Tot_Q>
0

> <i_epik_Tot_abs_Q>
0

> <r_epik_Metal_State_Penalty>
1.00528

> <b_epik_Metal_Only>
0

> <s_epik_Chemistry_Notes>
This compound has an ester and may undergo hydrolysis at high or low pH. This compound contains an acetal/aminal-like group ( X-CH(R)-Y where X, Y are N, S, or O) that may be acid/base labile, releasing an aldehyde.

> <s_lp_Force_Field>
OPLS_2005

> <r_lp_Energy>
36.6069

> <b_lp_Chiralities_Consistent>
1

> <s_lp_Variant>
AV-unprocessed.smi:101-8

> <Gold.Version>
5.8.1

> <Gold.Id.Protein>
6NUR|6NUR_protein|mol2

> <Gold.PLP.Fitness>
49.4849

> <Gold.PLP.PLP>
-39.0733

> <Gold.PLP.part.hbond>
-5.4472

> <Gold.PLP.part.metal>
0.0000

> <Gold.PLP.part.buried>
0.8059

> <Gold.PLP.part.nonpolar>
-34.9068

> <Gold.PLP.part.repulsive>
0.5323

> <Gold.PLP.ligand.clash>
0.0000

> <Gold.PLP.ligand.torsion>
0.7484

> <Gold.PLP.Chemscore.Hbond>
3.9480

> <Gold.PLP.Chemscore.CHOScore>
0.0000

> <Gold.PLP.Chemscore.Metal>
0.0000

> <Gold.Chemscore.Hbonds>
donor molecule, donor type, donor heavy atom, donor atom, acceptor molecule, acceptor atom, score
      L1  H    19    42       P1  7949  0.54
      L1  H    24    27       P1 10175  1.00
      P1  H  7989  7998       L1     6  1.00
      P1  H  7997  8009       L1    11  0.55
      P1  H 10752 10765       L1    19  0.69

> <Gold.PLP.Chemscore.Internal.Correction>
0.0643

> <Gold.Rescore>
     Score         DG    S(hbond)    S(metal)    S(lipo)     H(rot)  DE(clash)    DE(int)     intcor
     15.50     -18.95       3.16        0.00      97.58       3.32       2.64       0.81       ----

> <Gold.Chemscore.Fitness>
15.4955

> <Gold.Chemscore.DG>
-18.9474

> <Gold.Chemscore.ZeroCoef>
-5.4800

> <Gold.Chemscore.Hbond>
3.1566

> <Gold.Chemscore.Metal>
0.0000

> <Gold.Chemscore.Lipo>
97.5751

> <Gold.Chemscore.Internal_Hbond>
0.0000

> <Gold.Chemscore.DEClash>
2.6387

> <Gold.Chemscore.DEInternal>
0.8132

> <Gold.Chemscore.Rot>
3.3172

> <Gold.Chemscore.Internal.Correction>
   9.000000E+99

> <Gold.Chemscore.Hbonds>
donor molecule, donor type, donor heavy atom, donor atom, acceptor molecule, acceptor atom, score
      L1  H    19    42       P1  7949  0.41
      L1  H    24    27       P1 10175  0.95
      P1  H  7989  7998       L1     6  0.74
      P1  H  7997  8009       L1    11  0.03
      P1  H 10752 10765       L1    19  0.11

> <Gold.Chemscore.Hbond.Weighted>
-10.5432

> <Gold.Chemscore.Metal.Weighted>
-0.0000

> <Gold.Chemscore.Lipo.Weighted>
-11.4163

> <Gold.Chemscore.Internal_Hbond.Weighted>
0.0000

> <Gold.Chemscore.DEClash.Weighted>
2.6387

> <Gold.Chemscore.DEInternal.Weighted>
0.8132

> <Gold.Chemscore.Rot.Weighted>
8.4920

> <Gold.Chemscore.Internal.Correction.Weighted>
   9.000000E+99

> <Gold.Protein.RotatedTorsions>
[ 6907 6896 6895 6894 ] final  -44.86 input  -60.11 | X-H torsion
[ 7974 7965 7964 7962 ] final  147.60 input  175.53 | X-H torsion
[ 8008 7997 7996 7995 ] final  126.09 input   59.86 | X-H torsion
[ 10167 10162 10161 10158 ] final  146.63 input  -65.29 | X-H torsion
[ 10718 10713 10712 10709 ] final  -74.37 input   66.30 | X-H torsion
[ 10763 10752 10751 10750 ] final  162.98 input  -60.55 | X-H torsion
[ 11005 11000 10999 10996 ] final  142.26 input  -57.11 | X-H torsion

> <Gold.Protein.ActiveResidues>
 VAL166  LYS551  ARG553  GLY616  TRP617  ASP618  TYR619  PRO620  LYS621  CYS622 
 ASP623  PHE694  ASN695  SER759  ASP760  ASP761  ALA762  ILE779  LEU786  VAL792 
 PHE793  MET794  SER795  GLU796  ALA797  LYS798  CYS799  TRP800  GLU811  SER814 

> <Gold.Protein.RotatedAtoms>
  150.9282  134.8698  159.7533 H   0  0  0  0  0  0  0  0  0  0  0  0  # atno 6907 bound_to 6896
  152.5025  134.4118  159.9461 H   0  0  0  0  0  0  0  0  0  0  0  0  # atno 6908 bound_to 6896
  151.4146  133.3677  159.2783 H   0  0  0  0  0  0  0  0  0  0  0  0  # atno 6909 bound_to 6896
  144.8579  139.6049  143.5944 H   0  0  0  0  0  0  0  0  0  0  0  0  # atno 7974 bound_to 7965
  156.2854  140.2701  156.2055 H   0  0  0  0  0  0  0  0  0  0  0  0  # atno 8008 bound_to 7997
  155.0318  140.0386  157.2495 H   0  0  0  0  0  0  0  0  0  0  0  0  # atno 8009 bound_to 7997
  154.7348  140.2713  155.6429 H   0  0  0  0  0  0  0  0  0  0  0  0  # atno 8010 bound_to 7997
  139.4904  144.5815  151.6862 H   0  0  0  0  0  0  0  0  0  0  0  0  # atno 10167 bound_to 10162
  156.0245  130.4415  150.2882 H   0  0  0  0  0  0  0  0  0  0  0  0  # atno 10718 bound_to 10713
  154.2866  135.2762  155.2673 H   0  0  0  0  0  0  0  0  0  0  0  0  # atno 10763 bound_to 10752
  154.5171  135.5766  153.6654 H   0  0  0  0  0  0  0  0  0  0  0  0  # atno 10764 bound_to 10752
  152.9920  135.6195  154.3028 H   0  0  0  0  0  0  0  0  0  0  0  0  # atno 10765 bound_to 10752
  140.0463  134.9279  157.0936 H   0  0  0  0  0  0  0  0  0  0  0  0  # atno 11005 bound_to 11000
  146.2837  139.6946  142.9211 LP  0  0  0  0  0  0  0  0  0  0  0  0  # atno 17320 bound_to 7965
  145.4371  141.0419  143.2878 LP  0  0  0  0  0  0  0  0  0  0  0  0  # atno 17321 bound_to 7965
  140.5423  144.0560  150.6093 LP  0  0  0  0  0  0  0  0  0  0  0  0  # atno 17342 bound_to 10162
  140.3586  143.2921  152.0408 LP  0  0  0  0  0  0  0  0  0  0  0  0  # atno 17343 bound_to 10162
  157.0985  131.0189  151.3094 LP  0  0  0  0  0  0  0  0  0  0  0  0  # atno 17370 bound_to 10713
  157.4798  130.7758  149.7403 LP  0  0  0  0  0  0  0  0  0  0  0  0  # atno 17371 bound_to 10713
  140.3988  134.2105  155.7164 LP  0  0  0  0  0  0  0  0  0  0  0  0  # atno 17394 bound_to 11000
  141.1909  133.8208  157.0902 LP  0  0  0  0  0  0  0  0  0  0  0  0  # atno 17395 bound_to 11000

$$$$
