AV-unprocessed.smi:3112|AV-procd|sdf|11846|dock1
  -GOLD-   2272017223D 1   1.00000     0.00000
 Structure written by MMmdl.
 36 36  0  0  0  0  0  0  0  0  1 V2000
  146.8809  142.5944  154.2873 C   0  0  0  0  0  0  0  0  0  0  0  0
  147.7716  141.3719  154.0264 C   0  0  0  0  0  0  0  0  0  0  0  0
  149.2124  141.4951  154.5671 C   0  0  2  0  0  0  0  0  0  0  0  0
  149.9600  140.4519  153.9767 O   0  0  0  0  0  0  0  0  0  0  0  0
  149.3390  141.3373  156.0949 C   0  0  0  0  0  0  0  0  0  0  0  0
  150.7095  141.5683  156.5484 N   0  0  0  0  0  0  0  0  0  0  0  0
  151.1085  140.8756  157.7801 C   0  0  1  0  0  0  0  0  0  0  0  0
  151.4897  139.4058  157.5079 C   0  0  0  0  0  0  0  0  0  0  0  0
  152.2482  141.6421  158.5049 C   0  0  2  0  0  0  0  0  0  0  0  0
  152.7392  140.9356  159.7831 C   0  0  0  0  0  0  0  0  0  0  0  0
  151.9409  143.0500  158.7451 N   0  0  0  0  0  0  0  0  0  0  0  0
  152.7892  144.0362  159.2065 C   0  0  0  0  0  0  0  0  0  0  0  0
  152.0767  145.1995  159.2620 C   0  0  0  0  0  0  0  0  0  0  0  0
  150.7835  144.8247  158.8040 C   0  0  0  0  0  0  0  0  0  0  0  0
  150.7053  143.5412  158.4941 N   0  0  0  0  0  0  0  0  0  0  0  0
  145.9312  142.4978  153.7610 H   0  0  0  0  0  0  0  0  0  0  0  0
  147.3589  143.5126  153.9450 H   0  0  0  0  0  0  0  0  0  0  0  0
  146.6519  142.7051  155.3469 H   0  0  0  0  0  0  0  0  0  0  0  0
  147.2928  140.4812  154.4355 H   0  0  0  0  0  0  0  0  0  0  0  0
  147.8155  141.2197  152.9470 H   0  0  0  0  0  0  0  0  0  0  0  0
  149.6585  142.4369  154.2439 H   0  0  0  0  0  0  0  0  0  0  0  0
  149.5641  140.2312  153.1475 H   0  0  0  0  0  0  0  0  0  0  0  0
  148.6472  142.0117  156.6009 H   0  0  0  0  0  0  0  0  0  0  0  0
  149.0395  140.3240  156.3641 H   0  0  0  0  0  0  0  0  0  0  0  0
  151.3638  141.3496  155.8033 H   0  0  0  0  0  0  0  0  0  0  0  0
  150.2534  140.8673  158.4574 H   0  0  0  0  0  0  0  0  0  0  0  0
  151.8781  138.9314  158.4093 H   0  0  0  0  0  0  0  0  0  0  0  0
  152.2552  139.3232  156.7353 H   0  0  0  0  0  0  0  0  0  0  0  0
  150.6297  138.8173  157.1891 H   0  0  0  0  0  0  0  0  0  0  0  0
  153.0989  141.6362  157.8215 H   0  0  0  0  0  0  0  0  0  0  0  0
  153.0338  139.9074  159.5716 H   0  0  0  0  0  0  0  0  0  0  0  0
  151.9702  140.9059  160.5556 H   0  0  0  0  0  0  0  0  0  0  0  0
  153.6062  141.4469  160.2022 H   0  0  0  0  0  0  0  0  0  0  0  0
  153.8202  143.8304  159.4540 H   0  0  0  0  0  0  0  0  0  0  0  0
  152.4267  146.1705  159.5795 H   0  0  0  0  0  0  0  0  0  0  0  0
  149.9055  145.4425  158.6867 H   0  0  0  0  0  0  0  0  0  0  0  0
  1  2  1  0  0  0  0
  1 16  1  0  0  0  0
  1 17  1  0  0  0  0
  1 18  1  0  0  0  0
  2  3  1  0  0  0  0
  2 19  1  0  0  0  0
  2 20  1  0  0  0  0
  3  4  1  0  0  0  0
  3  5  1  0  0  0  0
  3 21  1  0  0  0  0
  4 22  1  0  0  0  0
  5  6  1  0  0  0  0
  5 23  1  0  0  0  0
  5 24  1  0  0  0  0
  6  7  1  0  0  0  0
  6 25  1  0  0  0  0
  7  8  1  0  0  0  0
  7  9  1  0  0  0  0
  7 26  1  0  0  0  0
  8 27  1  0  0  0  0
  8 28  1  0  0  0  0
  8 29  1  0  0  0  0
  9 10  1  0  0  0  0
  9 11  1  0  0  0  0
  9 30  1  0  0  0  0
 10 31  1  0  0  0  0
 10 32  1  0  0  0  0
 10 33  1  0  0  0  0
 11 15  1  0  0  0  0
 11 12  1  0  0  0  0
 12 13  2  0  0  0  0
 12 34  1  0  0  0  0
 13 14  1  0  0  0  0
 13 35  1  0  0  0  0
 14 15  2  0  0  0  0
 14 36  1  0  0  0  0
M  END
> <s_m_source_file>
AV-unprocessed.smi

> <i_m_source_file_index>
3112

> <i_lp_mmshare_version>
43012

> <i_f3d_flags>
0

> <s_epik_input>
W0NIM11bQ0gyXVtDQEhdKFtPSF0pW0NIMl1bTkhdW0NASF0oW0NIM10pW0NASF0oW0NIM10pbjFbY0hdW2NIXVtjSF1uMQ==

> <s_epik_cmdline>
J2VwaWtfcHl0aG9uJywgJy1waCcsICc3LjAnLCAnLXRuJywgJzgnLCAnLW1hJywgJzIwMCcsICctbWV0YWxfYmluZGluZycsICctaW1hZScsICc8aW5maWxlLm1hZT4nLCAnLW9tYWUnLCAnPG91dGZpbGUubWFlPic=

> <r_lp_tautomer_probability>
1

> <r_epik_Ionization_Penalty>
2.16876

> <r_epik_Ionization_Penalty_Charging>
0

> <r_epik_Ionization_Penalty_Neutral>
2.16876

> <r_epik_State_Penalty>
2.30854

> <r_epik_Charging_Adjusted_Penalty>
2.30854

> <i_epik_Tot_Q>
0

> <i_epik_Tot_abs_Q>
0

> <r_epik_Metal_State_Penalty>
2.3073

> <b_epik_Metal_Only>
0

> <s_lp_Force_Field>
OPLS_2005

> <r_lp_Energy>
15.2036

> <b_lp_Chiralities_Consistent>
1

> <s_lp_Variant>
AV-unprocessed.smi:3112-11

> <Gold.Version>
5.8.1

> <Gold.Id.Protein>
6NUR|6NUR_protein|mol2

> <Gold.PLP.Fitness>
44.4486

> <Gold.PLP.PLP>
-36.7519

> <Gold.PLP.part.hbond>
-2.0000

> <Gold.PLP.part.metal>
0.0000

> <Gold.PLP.part.buried>
-5.1702

> <Gold.PLP.part.nonpolar>
-30.4269

> <Gold.PLP.part.repulsive>
0.1422

> <Gold.PLP.ligand.clash>
0.0000

> <Gold.PLP.ligand.torsion>
0.6251

> <Gold.PLP.Chemscore.Hbond>
1.8640

> <Gold.PLP.Chemscore.CHOScore>
1.0000

> <Gold.PLP.Chemscore.Metal>
0.0000

> <Gold.Chemscore.Hbonds>
donor molecule, donor type, donor heavy atom, donor atom, acceptor molecule, acceptor atom, score
      L1  H     4    22       P1  7957  1.00
      P1  H  7989  7998       L1     4  0.72
      L1  C    14    36       P1  8029  1.00

> <Gold.PLP.Chemscore.Internal.Correction>
0.3551

> <Gold.Rescore>
     Score         DG    S(hbond)    S(metal)    S(lipo)     H(rot)  DE(clash)    DE(int)     intcor
     12.95     -15.23       1.42        0.00      93.41       2.31       0.07       2.21       ----

> <Gold.Chemscore.Fitness>
12.9508

> <Gold.Chemscore.DG>
-15.2346

> <Gold.Chemscore.ZeroCoef>
-5.4800

> <Gold.Chemscore.Hbond>
1.4196

> <Gold.Chemscore.Metal>
0.0000

> <Gold.Chemscore.Lipo>
93.4072

> <Gold.Chemscore.Internal_Hbond>
0.0000

> <Gold.Chemscore.DEClash>
0.0735

> <Gold.Chemscore.DEInternal>
2.2103

> <Gold.Chemscore.Rot>
2.3108

> <Gold.Chemscore.Internal.Correction>
   9.000000E+99

> <Gold.Chemscore.Hbonds>
donor molecule, donor type, donor heavy atom, donor atom, acceptor molecule, acceptor atom, score
      L1  H     4    22       P1  7957  0.93
      P1  H  7989  7998       L1     4  0.20

> <Gold.Chemscore.Hbond.Weighted>
-4.7416

> <Gold.Chemscore.Metal.Weighted>
-0.0000

> <Gold.Chemscore.Lipo.Weighted>
-10.9286

> <Gold.Chemscore.Internal_Hbond.Weighted>
0.0000

> <Gold.Chemscore.DEClash.Weighted>
0.0735

> <Gold.Chemscore.DEInternal.Weighted>
2.2103

> <Gold.Chemscore.Rot.Weighted>
5.9157

> <Gold.Chemscore.Internal.Correction.Weighted>
   9.000000E+99

> <Gold.Protein.RotatedTorsions>
[ 6907 6896 6895 6894 ] final   55.31 input  -60.11 | X-H torsion
[ 7974 7965 7964 7962 ] final  -85.32 input  175.53 | X-H torsion
[ 8008 7997 7996 7995 ] final   69.44 input   59.86 | X-H torsion
[ 10167 10162 10161 10158 ] final   46.27 input  -65.29 | X-H torsion
[ 10718 10713 10712 10709 ] final  139.74 input   66.30 | X-H torsion
[ 10763 10752 10751 10750 ] final  155.16 input  -60.55 | X-H torsion
[ 11005 11000 10999 10996 ] final -167.10 input  -57.11 | X-H torsion

> <Gold.Protein.ActiveResidues>
 VAL166  LYS551  ARG553  GLY616  TRP617  ASP618  TYR619  PRO620  LYS621  CYS622 
 ASP623  PHE694  ASN695  SER759  ASP760  ASP761  ALA762  ILE779  LEU786  VAL792 
 PHE793  MET794  SER795  GLU796  ALA797  LYS798  CYS799  TRP800  GLU811  SER814 

> <Gold.Protein.RotatedAtoms>
  152.3526  134.6984  160.0231 H   0  0  0  0  0  0  0  0  0  0  0  0  # atno 6907 bound_to 6896
  151.7333  133.3313  159.3354 H   0  0  0  0  0  0  0  0  0  0  0  0  # atno 6908 bound_to 6896
  150.7550  134.6277  159.6214 H   0  0  0  0  0  0  0  0  0  0  0  0  # atno 6909 bound_to 6896
  145.4948  140.9551  143.1792 H   0  0  0  0  0  0  0  0  0  0  0  0  # atno 7974 bound_to 7965
  155.7236  140.3493  155.5027 H   0  0  0  0  0  0  0  0  0  0  0  0  # atno 8008 bound_to 7997
  155.9247  140.1073  157.1201 H   0  0  0  0  0  0  0  0  0  0  0  0  # atno 8009 bound_to 7997
  154.4075  140.1243  156.4711 H   0  0  0  0  0  0  0  0  0  0  0  0  # atno 8010 bound_to 7997
  140.3156  144.2767  150.6191 H   0  0  0  0  0  0  0  0  0  0  0  0  # atno 10167 bound_to 10162
  157.4110  131.1028  151.0454 H   0  0  0  0  0  0  0  0  0  0  0  0  # atno 10718 bound_to 10713
  154.1640  135.2808  155.3100 H   0  0  0  0  0  0  0  0  0  0  0  0  # atno 10763 bound_to 10752
  154.6125  135.5494  153.7492 H   0  0  0  0  0  0  0  0  0  0  0  0  # atno 10764 bound_to 10752
  153.0184  135.6419  154.1781 H   0  0  0  0  0  0  0  0  0  0  0  0  # atno 10765 bound_to 10752
  140.5571  134.5370  157.5135 H   0  0  0  0  0  0  0  0  0  0  0  0  # atno 11005 bound_to 11000
  144.7813  139.6520  143.7153 LP  0  0  0  0  0  0  0  0  0  0  0  0  # atno 17320 bound_to 7965
  146.2262  139.5727  142.9585 LP  0  0  0  0  0  0  0  0  0  0  0  0  # atno 17321 bound_to 7965
  140.5529  143.2203  151.7896 LP  0  0  0  0  0  0  0  0  0  0  0  0  # atno 17342 bound_to 10162
  139.4884  144.4452  151.9718 LP  0  0  0  0  0  0  0  0  0  0  0  0  # atno 17343 bound_to 10162
  157.1418  130.6146  149.5557 LP  0  0  0  0  0  0  0  0  0  0  0  0  # atno 17370 bound_to 10713
  155.9851  130.4879  150.7013 LP  0  0  0  0  0  0  0  0  0  0  0  0  # atno 17371 bound_to 10713
  139.9426  134.7759  156.0640 LP  0  0  0  0  0  0  0  0  0  0  0  0  # atno 17394 bound_to 11000
  141.1137  133.6635  156.3041 LP  0  0  0  0  0  0  0  0  0  0  0  0  # atno 17395 bound_to 11000

$$$$
