AV-unprocessed.smi:112|AV-procd|sdf|1090|dock3
  -GOLD-   2262018193D 1   1.00000     0.00000
 Structure written by MMmdl.
 54 57  0  0  0  0  0  0  0  0  3 V2000
  149.4750  134.0756  156.1435 C   0  0  0  0  0  0  0  0  0  0  0  0
  149.2916  135.4528  155.5258 C   0  0  0  0  0  0  0  0  0  0  0  0
  148.1017  135.8695  155.0353 C   0  0  0  0  0  0  0  0  0  0  0  0
  147.8973  137.1138  154.4701 N   0  0  0  0  0  0  0  0  0  0  0  0
  146.5342  137.4545  153.9027 C   0  0  1  0  0  0  0  0  0  0  0  0
  146.5396  137.7076  152.3880 C   0  0  0  0  0  0  0  0  0  0  0  0
  145.1887  137.1543  151.9788 C   0  0  2  0  0  0  0  0  0  0  0  0
  144.1896  138.1492  152.1091 O   0  0  0  0  0  0  0  0  0  0  0  0
  144.9941  135.9946  152.9691 C   0  0  2  0  0  0  0  0  0  0  0  0
  143.5481  135.5566  153.2607 C   0  0  0  0  0  0  0  0  0  0  0  0
  143.5229  134.5959  154.2952 O   0  0  0  0  0  0  0  0  0  0  0  0
  145.6544  136.4011  154.1663 O   0  0  0  0  0  0  0  0  0  0  0  0
  148.9850  138.0070  154.3469 C   0  0  0  0  0  0  0  0  0  0  0  0
  148.8535  139.1004  153.7944 O   0  0  0  0  0  0  0  0  0  0  0  0
  150.2383  137.6089  154.8652 N   0  0  0  0  0  0  0  0  0  0  0  0
  151.3849  138.5382  154.7422 C   0  0  0  0  0  0  0  0  0  0  0  0
  151.1726  139.8877  155.4640 C   0  0  0  0  0  0  0  0  0  0  0  0
  150.5786  140.7908  154.8741 O   0  0  0  0  0  0  0  0  0  0  0  0
  151.6551  140.0149  156.7253 N   0  0  0  0  0  0  0  0  0  0  0  0
  152.3773  138.9423  157.4314 C   0  0  0  0  0  0  0  0  0  0  0  0
  152.7550  139.5121  158.8160 C   0  0  0  0  0  0  0  0  0  0  0  0
  152.1794  140.8970  158.7815 C   0  0  0  0  0  0  0  0  0  0  0  0
  152.2306  141.8526  159.8103 C   0  0  0  0  0  0  0  0  0  0  0  0
  151.6271  143.1175  159.6004 C   0  0  0  0  0  0  0  0  0  0  0  0
  151.6617  144.1466  160.6584 N   0  3  0  0  0  0  0  0  0  0  0  0
  152.0865  143.8293  161.7647 O   0  0  0  0  0  0  0  0  0  0  0  0
  151.2635  145.2743  160.3849 O   0  5  0  0  0  0  0  0  0  0  0  0
  150.9894  143.3806  158.3589 C   0  0  0  0  0  0  0  0  0  0  0  0
  150.9477  142.4085  157.3355 C   0  0  0  0  0  0  0  0  0  0  0  0
  151.5558  141.1552  157.5663 C   0  0  0  0  0  0  0  0  0  0  0  0
  150.4528  136.3424  155.4619 C   0  0  0  0  0  0  0  0  0  0  0  0
  151.5670  136.0277  155.8849 O   0  0  0  0  0  0  0  0  0  0  0  0
  148.5489  133.5001  156.1355 H   0  0  0  0  0  0  0  0  0  0  0  0
  149.8041  134.1633  157.1794 H   0  0  0  0  0  0  0  0  0  0  0  0
  150.2249  133.5076  155.5921 H   0  0  0  0  0  0  0  0  0  0  0  0
  147.2652  135.1876  155.0934 H   0  0  0  0  0  0  0  0  0  0  0  0
  146.1805  138.3270  154.4528 H   0  0  0  0  0  0  0  0  0  0  0  0
  146.6768  138.7664  152.1656 H   0  0  0  0  0  0  0  0  0  0  0  0
  147.3367  137.1507  151.8979 H   0  0  0  0  0  0  0  0  0  0  0  0
  145.1915  136.8055  150.9457 H   0  0  0  0  0  0  0  0  0  0  0  0
  144.0543  138.5541  151.2661 H   0  0  0  0  0  0  0  0  0  0  0  0
  145.5471  135.1323  152.5939 H   0  0  0  0  0  0  0  0  0  0  0  0
  142.9621  136.4167  153.5853 H   0  0  0  0  0  0  0  0  0  0  0  0
  143.0581  135.1598  152.3716 H   0  0  0  0  0  0  0  0  0  0  0  0
  143.1599  133.7928  153.9546 H   0  0  0  0  0  0  0  0  0  0  0  0
  152.2935  138.0726  155.1263 H   0  0  0  0  0  0  0  0  0  0  0  0
  151.6075  138.7272  153.6914 H   0  0  0  0  0  0  0  0  0  0  0  0
  151.7425  138.0624  157.5444 H   0  0  0  0  0  0  0  0  0  0  0  0
  153.2749  138.6502  156.8846 H   0  0  0  0  0  0  0  0  0  0  0  0
  152.3149  138.9337  159.6288 H   0  0  0  0  0  0  0  0  0  0  0  0
  153.8355  139.5540  158.9568 H   0  0  0  0  0  0  0  0  0  0  0  0
  152.7246  141.6122  160.7402 H   0  0  0  0  0  0  0  0  0  0  0  0
  150.5225  144.3374  158.1781 H   0  0  0  0  0  0  0  0  0  0  0  0
  150.4523  142.6493  156.4085 H   0  0  0  0  0  0  0  0  0  0  0  0
  1  2  1  0  0  0  0
  1 33  1  0  0  0  0
  1 34  1  0  0  0  0
  1 35  1  0  0  0  0
  2 31  1  0  0  0  0
  2  3  2  0  0  0  0
  3  4  1  0  0  0  0
  3 36  1  0  0  0  0
  4  5  1  0  0  0  0
  4 13  1  0  0  0  0
  5 12  1  0  0  0  0
  5  6  1  0  0  0  0
  5 37  1  0  0  0  0
  6  7  1  0  0  0  0
  6 38  1  0  0  0  0
  6 39  1  0  0  0  0
  7  8  1  0  0  0  0
  7  9  1  0  0  0  0
  7 40  1  0  0  0  0
  8 41  1  0  0  0  0
  9 10  1  0  0  0  0
  9 12  1  0  0  0  0
  9 42  1  0  0  0  0
 10 11  1  0  0  0  0
 10 43  1  0  0  0  0
 10 44  1  0  0  0  0
 11 45  1  0  0  0  0
 13 14  2  0  0  0  0
 13 15  1  0  0  0  0
 15 16  1  0  0  0  0
 15 31  1  0  0  0  0
 16 17  1  0  0  0  0
 16 46  1  0  0  0  0
 16 47  1  0  0  0  0
 17 18  2  0  0  0  0
 17 19  1  0  0  0  0
 19 30  1  0  0  0  0
 19 20  1  0  0  0  0
 20 21  1  0  0  0  0
 20 48  1  0  0  0  0
 20 49  1  0  0  0  0
 21 22  1  0  0  0  0
 21 50  1  0  0  0  0
 21 51  1  0  0  0  0
 22 30  2  0  0  0  0
 22 23  1  0  0  0  0
 23 24  2  0  0  0  0
 23 52  1  0  0  0  0
 24 25  1  0  0  0  0
 24 28  1  0  0  0  0
 25 26  2  0  0  0  0
 25 27  1  0  0  0  0
 28 29  2  0  0  0  0
 28 53  1  0  0  0  0
 29 30  1  0  0  0  0
 29 54  1  0  0  0  0
 31 32  2  0  0  0  0
M  CHG  1  25   1
M  CHG  1  27  -1
M  END
> <s_m_source_file>
AV-unprocessed.smi

> <i_m_source_file_index>
112

> <i_lp_mmshare_version>
43012

> <i_f3d_flags>
0

> <s_epik_input>
W09IXVtDSDJdW0NAQEhdKE8xKVtDQEhdKFtPSF0pW0NIMl1bQ0BIXTFuKFtjSF1jMltDSDNdKWMoPU8pbihjMj1PKVtDSDJdQyg9TylOKFtDSDJdW0NIMl0zKWMoYzM0KVtjSF1bY0hdYyhbY0hdNClbTitdKD1PKVtPLV0=

> <s_epik_cmdline>
J2VwaWtfcHl0aG9uJywgJy1waCcsICc3LjAnLCAnLXRuJywgJzgnLCAnLW1hJywgJzIwMCcsICctbWV0YWxfYmluZGluZycsICctaW1hZScsICc8aW5maWxlLm1hZT4nLCAnLW9tYWUnLCAnPG91dGZpbGUubWFlPic=

> <r_lp_tautomer_probability>
1

> <r_epik_Ionization_Penalty>
2.5696e-07

> <r_epik_Ionization_Penalty_Charging>
1.04886e-08

> <r_epik_Ionization_Penalty_Neutral>
2.46472e-07

> <r_epik_State_Penalty>
-0

> <r_epik_Charging_Adjusted_Penalty>
1.04886e-08

> <i_epik_Tot_Q>
0

> <i_epik_Tot_abs_Q>
2

> <r_epik_Metal_State_Penalty>
-0

> <b_epik_Metal_Only>
0

> <s_epik_Chemistry_Notes>
This compound contains an acetal/aminal-like group ( X-CH(R)-Y where X, Y are N, S, or O) that may be acid/base labile, releasing an aldehyde.

> <s_lp_Force_Field>
OPLS_2005

> <r_lp_Energy>
55.491

> <b_lp_Chiralities_Consistent>
1

> <s_lp_Variant>
AV-unprocessed.smi:112-8

> <Gold.Version>
5.8.1

> <Gold.Id.Protein>
6NUR|6NUR_protein|mol2

> <Gold.PLP.Fitness>
55.5429

> <Gold.PLP.PLP>
-45.5728

> <Gold.PLP.part.hbond>
-4.4457

> <Gold.PLP.part.metal>
0.0000

> <Gold.PLP.part.buried>
-5.0074

> <Gold.PLP.part.nonpolar>
-36.4401

> <Gold.PLP.part.repulsive>
0.7512

> <Gold.PLP.ligand.clash>
0.0000

> <Gold.PLP.ligand.torsion>
0.4267

> <Gold.PLP.Chemscore.Hbond>
3.5936

> <Gold.PLP.Chemscore.CHOScore>
0.0000

> <Gold.PLP.Chemscore.Metal>
0.0000

> <Gold.Chemscore.Hbonds>
donor molecule, donor type, donor heavy atom, donor atom, acceptor molecule, acceptor atom, score
      L1  H     8    41       P1 10171  0.81
      L1  H    11    45       P1 10957  0.34
      P1  H  7989  7998       L1    18  0.76
      P1  H 10752 10765       L1    32  1.00

> <Gold.PLP.Chemscore.Internal.Correction>
0.0427

> <Gold.Rescore>
     Score         DG    S(hbond)    S(metal)    S(lipo)     H(rot)  DE(clash)    DE(int)     intcor
     14.01     -17.59       2.94        0.00      91.59       3.29       0.56       3.02       ----

> <Gold.Chemscore.Fitness>
14.0118

> <Gold.Chemscore.DG>
-17.5911

> <Gold.Chemscore.ZeroCoef>
-5.4800

> <Gold.Chemscore.Hbond>
2.9405

> <Gold.Chemscore.Metal>
0.0000

> <Gold.Chemscore.Lipo>
91.5929

> <Gold.Chemscore.Internal_Hbond>
0.0000

> <Gold.Chemscore.DEClash>
0.5635

> <Gold.Chemscore.DEInternal>
3.0158

> <Gold.Chemscore.Rot>
3.2916

> <Gold.Chemscore.Internal.Correction>
   9.000000E+99

> <Gold.Chemscore.Hbonds>
donor molecule, donor type, donor heavy atom, donor atom, acceptor molecule, acceptor atom, score
      L1  H     8    41       P1 10171  0.77
      L1  H    11    45       P1 10957  0.33
      P1  H  7989  7998       L1    18  0.15
      P1  H 10752 10765       L1    32  1.00

> <Gold.Chemscore.Hbond.Weighted>
-9.8213

> <Gold.Chemscore.Metal.Weighted>
-0.0000

> <Gold.Chemscore.Lipo.Weighted>
-10.7164

> <Gold.Chemscore.Internal_Hbond.Weighted>
0.0000

> <Gold.Chemscore.DEClash.Weighted>
0.5635

> <Gold.Chemscore.DEInternal.Weighted>
3.0158

> <Gold.Chemscore.Rot.Weighted>
8.4265

> <Gold.Chemscore.Internal.Correction.Weighted>
   9.000000E+99

> <Gold.Protein.RotatedTorsions>
[ 6907 6896 6895 6894 ] final -165.61 input  -60.11 | X-H torsion
[ 7974 7965 7964 7962 ] final   62.19 input  175.53 | X-H torsion
[ 8008 7997 7996 7995 ] final -147.14 input   59.86 | X-H torsion
[ 10167 10162 10161 10158 ] final   18.94 input  -65.29 | X-H torsion
[ 10718 10713 10712 10709 ] final   29.22 input   66.30 | X-H torsion
[ 10763 10752 10751 10750 ] final -166.38 input  -60.55 | X-H torsion
[ 11005 11000 10999 10996 ] final   99.01 input  -57.11 | X-H torsion

> <Gold.Protein.ActiveResidues>
 VAL166  LYS551  ARG553  GLY616  TRP617  ASP618  TYR619  PRO620  LYS621  CYS622 
 ASP623  PHE694  ASN695  SER759  ASP760  ASP761  ALA762  ILE779  LEU786  VAL792 
 PHE793  MET794  SER795  GLU796  ALA797  LYS798  CYS799  TRP800  GLU811  SER814 

> <Gold.Protein.RotatedAtoms>
  151.4305  133.3672  159.2767 H   0  0  0  0  0  0  0  0  0  0  0  0  # atno 6907 bound_to 6896
  150.9229  134.8647  159.7511 H   0  0  0  0  0  0  0  0  0  0  0  0  # atno 6908 bound_to 6896
  152.4990  134.4244  159.9543 H   0  0  0  0  0  0  0  0  0  0  0  0  # atno 6909 bound_to 6896
  145.8762  139.3411  143.0733 H   0  0  0  0  0  0  0  0  0  0  0  0  # atno 7974 bound_to 7965
  155.5707  140.0634  157.2807 H   0  0  0  0  0  0  0  0  0  0  0  0  # atno 8008 bound_to 7997
  154.4362  140.1869  156.0922 H   0  0  0  0  0  0  0  0  0  0  0  0  # atno 8009 bound_to 7997
  156.0378  140.3299  155.7214 H   0  0  0  0  0  0  0  0  0  0  0  0  # atno 8010 bound_to 7997
  140.5616  143.9326  150.6647 H   0  0  0  0  0  0  0  0  0  0  0  0  # atno 10167 bound_to 10162
  157.2437  130.7082  149.6371 H   0  0  0  0  0  0  0  0  0  0  0  0  # atno 10718 bound_to 10713
  154.6838  135.2959  154.9575 H   0  0  0  0  0  0  0  0  0  0  0  0  # atno 10763 bound_to 10752
  154.0561  135.6638  153.4810 H   0  0  0  0  0  0  0  0  0  0  0  0  # atno 10764 bound_to 10752
  153.0565  135.5141  154.7895 H   0  0  0  0  0  0  0  0  0  0  0  0  # atno 10765 bound_to 10752
  139.8771  134.9076  156.4542 H   0  0  0  0  0  0  0  0  0  0  0  0  # atno 11005 bound_to 11000
  145.9078  140.9200  143.0469 LP  0  0  0  0  0  0  0  0  0  0  0  0  # atno 17320 bound_to 7965
  144.6726  140.1119  143.7455 LP  0  0  0  0  0  0  0  0  0  0  0  0  # atno 17321 bound_to 7965
  140.2779  143.3410  152.1178 LP  0  0  0  0  0  0  0  0  0  0  0  0  # atno 17342 bound_to 10162
  139.5073  144.6829  151.5962 LP  0  0  0  0  0  0  0  0  0  0  0  0  # atno 17343 bound_to 10162
  155.9669  130.4450  150.5482 LP  0  0  0  0  0  0  0  0  0  0  0  0  # atno 17370 bound_to 10713
  157.3351  131.0706  151.1831 LP  0  0  0  0  0  0  0  0  0  0  0  0  # atno 17371 bound_to 10713
  140.8910  133.7848  155.9572 LP  0  0  0  0  0  0  0  0  0  0  0  0  # atno 17394 bound_to 11000
  140.8753  134.2676  157.5171 LP  0  0  0  0  0  0  0  0  0  0  0  0  # atno 17395 bound_to 11000

$$$$
