AV-unprocessed.smi:16|AV-procd|sdf|92|dock7
  -GOLD-   2262015233D 1   1.00000     0.00000
 Structure written by MMmdl.
 60 64  0  0  0  0  0  0  0  0  2 V2000
  155.9988  140.1287  162.1055 C   0  0  0  0  0  0  0  0  0  0  0  0
  154.9235  139.5380  161.1815 C   0  0  0  0  0  0  0  0  0  0  0  0
  154.2748  140.5665  160.3290 N   0  3  2  0  0  0  0  0  0  0  0  0
  153.8512  141.7556  161.1144 C   0  0  0  0  0  0  0  0  0  0  0  0
  153.2848  142.8576  160.2040 C   0  0  0  0  0  0  0  0  0  0  0  0
  152.1253  142.3132  159.3630 C   0  0  1  0  0  0  0  0  0  0  0  0
  151.6481  143.3267  158.4862 O   0  0  0  0  0  0  0  0  0  0  0  0
  150.5207  142.8832  157.7379 C   0  0  0  0  0  0  0  0  0  0  0  0
  150.9180  141.6732  156.8764 C   0  0  0  0  0  0  0  0  0  0  0  0
  151.5036  140.6212  157.7020 N   0  0  0  0  0  0  0  0  0  0  0  0
  151.7414  139.5125  156.9644 C   0  0  0  0  0  0  0  0  0  0  0  0
  152.7355  139.5067  156.0368 N   0  0  0  0  0  0  0  0  0  0  0  0
  152.9627  138.4074  155.3110 C   0  0  0  0  0  0  0  0  0  0  0  0
  152.3271  137.2339  155.3515 N   0  0  0  0  0  0  0  0  0  0  0  0
  151.3243  137.2436  156.2764 C   0  0  0  0  0  0  0  0  0  0  0  0
  150.9691  138.3327  157.1193 C   0  0  0  0  0  0  0  0  0  0  0  0
  149.9133  137.9745  157.9465 N   0  0  0  0  0  0  0  0  0  0  0  0
  149.6608  136.7372  157.6150 C   0  0  0  0  0  0  0  0  0  0  0  0
  150.4439  136.2276  156.6026 N   0  0  0  0  0  0  0  0  0  0  0  0
  150.4099  134.8966  156.0724 C   0  0  0  0  0  0  0  0  0  0  0  0
  150.3443  134.6517  154.5636 C   0  0  0  0  0  0  0  0  0  0  0  0
  149.5177  133.3700  154.8157 C   0  0  0  0  0  0  0  0  0  0  0  0
  148.3386  133.1409  153.8561 C   0  0  0  0  0  0  0  0  0  0  0  0
  147.6371  134.3432  153.6127 O   0  0  0  0  0  0  0  0  0  0  0  0
  150.3393  132.0700  154.9295 C   0  0  0  0  0  0  0  0  0  0  0  0
  149.5127  130.9583  155.2093 O   0  0  0  0  0  0  0  0  0  0  0  0
  149.1486  134.0342  156.1604 C   0  0  0  0  0  0  0  0  0  0  0  0
  152.6074  141.1027  158.5381 C   0  0  2  0  0  0  0  0  0  0  0  0
  153.1626  140.0253  159.5009 C   0  0  0  0  0  0  0  0  0  0  0  0
  151.3171  142.0130  160.0335 H   0  0  0  0  0  0  0  0  0  0  0  0
  153.4133  141.4330  157.8801 H   0  0  0  0  0  0  0  0  0  0  0  0
  156.3808  139.3650  162.7835 H   0  0  0  0  0  0  0  0  0  0  0  0
  155.5937  140.9368  162.7152 H   0  0  0  0  0  0  0  0  0  0  0  0
  156.8507  140.5195  161.5502 H   0  0  0  0  0  0  0  0  0  0  0  0
  155.3415  138.7443  160.5606 H   0  0  0  0  0  0  0  0  0  0  0  0
  154.1685  139.0688  161.8136 H   0  0  0  0  0  0  0  0  0  0  0  0
  153.1041  141.4566  161.8515 H   0  0  0  0  0  0  0  0  0  0  0  0
  154.7020  142.1541  161.6686 H   0  0  0  0  0  0  0  0  0  0  0  0
  152.9453  143.7006  160.8065 H   0  0  0  0  0  0  0  0  0  0  0  0
  154.0712  143.2383  159.5506 H   0  0  0  0  0  0  0  0  0  0  0  0
  149.6988  142.6297  158.4094 H   0  0  0  0  0  0  0  0  0  0  0  0
  150.1729  143.6982  157.1029 H   0  0  0  0  0  0  0  0  0  0  0  0
  150.0410  141.2922  156.3509 H   0  0  0  0  0  0  0  0  0  0  0  0
  151.6376  141.9829  156.1168 H   0  0  0  0  0  0  0  0  0  0  0  0
  153.7678  138.4774  154.5943 H   0  0  0  0  0  0  0  0  0  0  0  0
  148.8873  136.1610  158.1023 H   0  0  0  0  0  0  0  0  0  0  0  0
  151.2640  134.3772  156.5101 H   0  0  0  0  0  0  0  0  0  0  0  0
  149.7820  135.4282  154.0414 H   0  0  0  0  0  0  0  0  0  0  0  0
  151.3150  134.4929  154.0928 H   0  0  0  0  0  0  0  0  0  0  0  0
  148.6894  132.7612  152.8961 H   0  0  0  0  0  0  0  0  0  0  0  0
  147.6434  132.3953  154.2426 H   0  0  0  0  0  0  0  0  0  0  0  0
  148.0319  134.7766  152.8716 H   0  0  0  0  0  0  0  0  0  0  0  0
  150.8754  131.8602  154.0038 H   0  0  0  0  0  0  0  0  0  0  0  0
  151.1002  132.1452  155.7067 H   0  0  0  0  0  0  0  0  0  0  0  0
  149.8923  130.1929  154.8052 H   0  0  0  0  0  0  0  0  0  0  0  0
  149.1230  133.3568  157.0145 H   0  0  0  0  0  0  0  0  0  0  0  0
  148.2320  134.6244  156.1024 H   0  0  0  0  0  0  0  0  0  0  0  0
  153.5256  139.1712  158.9316 H   0  0  0  0  0  0  0  0  0  0  0  0
  152.3682  139.6544  160.1508 H   0  0  0  0  0  0  0  0  0  0  0  0
  154.9840  140.8934  159.6883 H   0  0  0  0  0  0  0  0  0  0  0  0
  1  2  1  0  0  0  0
  1 32  1  0  0  0  0
  1 33  1  0  0  0  0
  1 34  1  0  0  0  0
  2  3  1  0  0  0  0
  2 35  1  0  0  0  0
  2 36  1  0  0  0  0
  3 29  1  0  0  0  0
  3  4  1  0  0  0  0
  3 60  1  0  0  0  0
  4  5  1  0  0  0  0
  4 37  1  0  0  0  0
  4 38  1  0  0  0  0
  5  6  1  0  0  0  0
  5 39  1  0  0  0  0
  5 40  1  0  0  0  0
  6 30  1  0  0  0  0
  6 28  1  0  0  0  0
  6  7  1  0  0  0  0
  7  8  1  0  0  0  0
  8  9  1  0  0  0  0
  8 41  1  0  0  0  0
  8 42  1  0  0  0  0
  9 10  1  0  0  0  0
  9 43  1  0  0  0  0
  9 44  1  0  0  0  0
 10 11  1  0  0  0  0
 10 28  1  0  0  0  0
 11 16  1  0  0  0  0
 11 12  2  0  0  0  0
 12 13  1  0  0  0  0
 13 14  2  0  0  0  0
 13 45  1  0  0  0  0
 14 15  1  0  0  0  0
 15 19  1  0  0  0  0
 15 16  2  0  0  0  0
 16 17  1  0  0  0  0
 17 18  2  0  0  0  0
 18 19  1  0  0  0  0
 18 46  1  0  0  0  0
 19 20  1  0  0  0  0
 20 27  1  0  0  0  0
 20 21  1  0  0  0  0
 20 47  1  0  0  0  0
 21 22  1  0  0  0  0
 21 48  1  0  0  0  0
 21 49  1  0  0  0  0
 22 23  1  0  0  0  0
 22 25  1  0  0  0  0
 22 27  1  0  0  0  0
 23 24  1  0  0  0  0
 23 50  1  0  0  0  0
 23 51  1  0  0  0  0
 24 52  1  0  0  0  0
 25 26  1  0  0  0  0
 25 53  1  0  0  0  0
 25 54  1  0  0  0  0
 26 55  1  0  0  0  0
 27 56  1  0  0  0  0
 27 57  1  0  0  0  0
 28 31  1  0  0  0  0
 28 29  1  0  0  0  0
 29 58  1  0  0  0  0
 29 59  1  0  0  0  0
M  CHG  1   3   1
M  END
> <s_m_source_file>
AV-unprocessed.smi

> <i_m_source_file_index>
16

> <i_lp_mmshare_version>
43012

> <i_f3d_flags>
0

> <s_epik_input>
W0NIM11bQ0gyXU4oW0NIMl1bQ0gyXTEpW0NIMl1bQ0BASF0oW0NAQEhdMTIpTihbQ0gyXVtDSDJdTzIpYyhuW2NIXW4zKWMoYzM0KW5bY0hdbjRbQ0hdKFtDSDJdNSlbQ0gyXUM1KFtDSDJdW09IXSlbQ0gyXVtPSF0=

> <s_epik_cmdline>
J2VwaWtfcHl0aG9uJywgJy1waCcsICc3LjAnLCAnLXRuJywgJzgnLCAnLW1hJywgJzIwMCcsICctbWV0YWxfYmluZGluZycsICctaW1hZScsICc8aW5maWxlLm1hZT4nLCAnLW9tYWUnLCAnPG91dGZpbGUubWFlPic=

> <r_lp_tautomer_probability>
1

> <r_epik_Ionization_Penalty>
0.0135603

> <r_epik_Ionization_Penalty_Charging>
0.0131385

> <r_epik_Ionization_Penalty_Neutral>
0.000421734

> <r_epik_State_Penalty>
0.0102091

> <r_epik_Charging_Adjusted_Penalty>
0.0233476

> <i_epik_Tot_Q>
1

> <i_epik_Tot_abs_Q>
1

> <r_epik_Metal_State_Penalty>
0.0103746

> <b_epik_Metal_Only>
0

> <s_lp_Force_Field>
OPLS_2005

> <r_lp_Energy>
53.4104

> <b_lp_Chiralities_Consistent>
1

> <s_lp_Variant>
AV-unprocessed.smi:16-6

> <Gold.Version>
5.8.1

> <Gold.Id.Protein>
6NUR|6NUR_protein|mol2

> <Gold.PLP.Fitness>
50.4338

> <Gold.PLP.PLP>
-42.9867

> <Gold.PLP.part.hbond>
-3.0000

> <Gold.PLP.part.metal>
0.0000

> <Gold.PLP.part.buried>
-6.0744

> <Gold.PLP.part.nonpolar>
-32.9544

> <Gold.PLP.part.repulsive>
0.1341

> <Gold.PLP.ligand.clash>
0.0000

> <Gold.PLP.ligand.torsion>
0.7638

> <Gold.PLP.Chemscore.Hbond>
2.7840

> <Gold.PLP.Chemscore.CHOScore>
0.0000

> <Gold.PLP.Chemscore.Metal>
0.0000

> <Gold.Chemscore.Hbonds>
donor molecule, donor type, donor heavy atom, donor atom, acceptor molecule, acceptor atom, score
      L1  H    24    52       P1  7948  1.00
      P1  H  7997  8010       L1    12  1.00
      P1  H 10752 10765       L1    14  0.75

> <Gold.PLP.Chemscore.Internal.Correction>
0.6226

> <Gold.Rescore>
     Score         DG    S(hbond)    S(metal)    S(lipo)     H(rot)  DE(clash)    DE(int)     intcor
     16.91     -17.61       2.53        0.00     104.30       3.33       0.05       0.66       ----

> <Gold.Chemscore.Fitness>
16.9108

> <Gold.Chemscore.DG>
-17.6119

> <Gold.Chemscore.ZeroCoef>
-5.4800

> <Gold.Chemscore.Hbond>
2.5271

> <Gold.Chemscore.Metal>
0.0000

> <Gold.Chemscore.Lipo>
104.3036

> <Gold.Chemscore.Internal_Hbond>
0.0000

> <Gold.Chemscore.DEClash>
0.0456

> <Gold.Chemscore.DEInternal>
0.6555

> <Gold.Chemscore.Rot>
3.3251

> <Gold.Chemscore.Internal.Correction>
   9.000000E+99

> <Gold.Chemscore.Hbonds>
donor molecule, donor type, donor heavy atom, donor atom, acceptor molecule, acceptor atom, score
      L1  H    24    52       P1  7948  0.80
      P1  H  7997  8010       L1    12  0.44
      P1  H 10752 10765       L1    14  0.74

> <Gold.Chemscore.Hbond.Weighted>
-8.4406

> <Gold.Chemscore.Metal.Weighted>
-0.0000

> <Gold.Chemscore.Lipo.Weighted>
-12.2035

> <Gold.Chemscore.Internal_Hbond.Weighted>
0.0000

> <Gold.Chemscore.DEClash.Weighted>
0.0456

> <Gold.Chemscore.DEInternal.Weighted>
0.6555

> <Gold.Chemscore.Rot.Weighted>
8.5122

> <Gold.Chemscore.Internal.Correction.Weighted>
   9.000000E+99

> <Gold.Protein.RotatedTorsions>
[ 6907 6896 6895 6894 ] final   23.16 input  -60.11 | X-H torsion
[ 7974 7965 7964 7962 ] final   81.85 input  175.53 | X-H torsion
[ 8008 7997 7996 7995 ] final   74.78 input   59.86 | X-H torsion
[ 10167 10162 10161 10158 ] final  114.11 input  -65.29 | X-H torsion
[ 10718 10713 10712 10709 ] final  -25.14 input   66.30 | X-H torsion
[ 10763 10752 10751 10750 ] final -176.68 input  -60.55 | X-H torsion
[ 11005 11000 10999 10996 ] final   74.89 input  -57.11 | X-H torsion

> <Gold.Protein.ActiveResidues>
 VAL166  LYS551  ARG553  GLY616  TRP617  ASP618  TYR619  PRO620  LYS621  CYS622 
 ASP623  PHE694  ASN695  SER759  ASP760  ASP761  ALA762  ILE779  LEU786  VAL792 
 PHE793  MET794  SER795  GLU796  ALA797  LYS798  CYS799  TRP800  GLU811  SER814 

> <Gold.Protein.RotatedAtoms>
  151.9381  135.0226  160.0533 H   0  0  0  0  0  0  0  0  0  0  0  0  # atno 6907 bound_to 6896
  152.2060  133.4871  159.5092 H   0  0  0  0  0  0  0  0  0  0  0  0  # atno 6908 bound_to 6896
  150.6965  134.1445  159.4160 H   0  0  0  0  0  0  0  0  0  0  0  0  # atno 6909 bound_to 6896
  145.6328  139.2408  143.2075 H   0  0  0  0  0  0  0  0  0  0  0  0  # atno 7974 bound_to 7965
  155.8033  140.3475  155.5415 H   0  0  0  0  0  0  0  0  0  0  0  0  # atno 8008 bound_to 7997
  155.8516  140.0957  157.1691 H   0  0  0  0  0  0  0  0  0  0  0  0  # atno 8009 bound_to 7997
  154.4008  140.1375  156.3838 H   0  0  0  0  0  0  0  0  0  0  0  0  # atno 8010 bound_to 7997
  139.6412  144.7124  151.2233 H   0  0  0  0  0  0  0  0  0  0  0  0  # atno 10167 bound_to 10162
  156.4684  130.4519  149.6885 H   0  0  0  0  0  0  0  0  0  0  0  0  # atno 10718 bound_to 10713
  154.5693  135.2826  155.0842 H   0  0  0  0  0  0  0  0  0  0  0  0  # atno 10763 bound_to 10752
  154.2221  135.6389  153.5152 H   0  0  0  0  0  0  0  0  0  0  0  0  # atno 10764 bound_to 10752
  153.0053  135.5517  154.6312 H   0  0  0  0  0  0  0  0  0  0  0  0  # atno 10765 bound_to 10752
  139.9369  134.7471  156.1204 H   0  0  0  0  0  0  0  0  0  0  0  0  # atno 11005 bound_to 11000
  146.1343  140.7144  142.9397 LP  0  0  0  0  0  0  0  0  0  0  0  0  # atno 17320 bound_to 7965
  144.7187  140.4299  143.7025 LP  0  0  0  0  0  0  0  0  0  0  0  0  # atno 17321 bound_to 7965
  140.7492  143.6308  150.8424 LP  0  0  0  0  0  0  0  0  0  0  0  0  # atno 17342 bound_to 10162
  139.9946  143.5810  152.2898 LP  0  0  0  0  0  0  0  0  0  0  0  0  # atno 17343 bound_to 10162
  156.3644  130.7498  151.2474 LP  0  0  0  0  0  0  0  0  0  0  0  0  # atno 17370 bound_to 10713
  157.7493  131.0341  150.4301 LP  0  0  0  0  0  0  0  0  0  0  0  0  # atno 17371 bound_to 10713
  141.0987  133.6685  156.2704 LP  0  0  0  0  0  0  0  0  0  0  0  0  # atno 17394 bound_to 11000
  140.6052  134.5514  157.5524 LP  0  0  0  0  0  0  0  0  0  0  0  0  # atno 17395 bound_to 11000

$$$$
