AV-unprocessed.smi:660|AV-procd|sdf|3239|dock2
  -GOLD-   22720 0183D 1   1.00000     0.00000
 Structure written by MMmdl.
 28 29  0  0  0  0  0  0  0  0  1 V2000
  149.8381  138.7590  153.2313 O   0  0  0  0  0  0  0  0  0  0  0  0
  150.9631  138.3860  153.9971 C   0  0  0  0  0  0  0  0  0  0  0  0
  151.2583  139.3677  155.1136 C   0  0  0  0  0  0  0  0  0  0  0  0
  150.5015  140.5465  155.2579 C   0  0  0  0  0  0  0  0  0  0  0  0
  150.8116  141.4316  156.3082 C   0  0  0  0  0  0  0  0  0  0  0  0
  151.8750  141.1151  157.1875 C   0  0  0  0  0  0  0  0  0  0  0  0
  152.2049  141.9886  158.2468 N   0  0  0  0  0  0  0  0  0  0  0  0
  151.5744  143.3074  158.2702 C   0  0  0  0  0  0  0  0  0  0  0  0
  152.2625  144.2123  159.3059 C   0  0  0  0  0  0  0  0  0  0  0  0
  152.2532  143.5763  160.5795 O   0  0  0  0  0  0  0  0  0  0  0  0
  152.9690  142.3458  160.5612 C   0  0  0  0  0  0  0  0  0  0  0  0
  152.3103  141.3733  159.5677 C   0  0  0  0  0  0  0  0  0  0  0  0
  152.5967  139.9749  157.0459 N   0  0  0  0  0  0  0  0  0  0  0  0
  152.2954  139.1300  156.0374 C   0  0  0  0  0  0  0  0  0  0  0  0
  149.6162  138.0435  152.6551 H   0  0  0  0  0  0  0  0  0  0  0  0
  150.7960  137.3894  154.4069 H   0  0  0  0  0  0  0  0  0  0  0  0
  151.8316  138.3191  153.3413 H   0  0  0  0  0  0  0  0  0  0  0  0
  149.6928  140.7686  154.5773 H   0  0  0  0  0  0  0  0  0  0  0  0
  150.2241  142.3285  156.4344 H   0  0  0  0  0  0  0  0  0  0  0  0
  151.6368  143.7736  157.2861 H   0  0  0  0  0  0  0  0  0  0  0  0
  150.5168  143.1984  158.5140 H   0  0  0  0  0  0  0  0  0  0  0  0
  153.2877  144.4370  159.0066 H   0  0  0  0  0  0  0  0  0  0  0  0
  151.7370  145.1644  159.3803 H   0  0  0  0  0  0  0  0  0  0  0  0
  154.0127  142.5235  160.2966 H   0  0  0  0  0  0  0  0  0  0  0  0
  152.9639  141.9179  161.5639 H   0  0  0  0  0  0  0  0  0  0  0  0
  151.3097  141.1097  159.9127 H   0  0  0  0  0  0  0  0  0  0  0  0
  152.8886  140.4510  159.5405 H   0  0  0  0  0  0  0  0  0  0  0  0
  152.9019  138.2390  155.9690 H   0  0  0  0  0  0  0  0  0  0  0  0
  1  2  1  0  0  0  0
  1 15  1  0  0  0  0
  2  3  1  0  0  0  0
  2 16  1  0  0  0  0
  2 17  1  0  0  0  0
  3 14  1  0  0  0  0
  3  4  2  0  0  0  0
  4  5  1  0  0  0  0
  4 18  1  0  0  0  0
  5  6  2  0  0  0  0
  5 19  1  0  0  0  0
  6  7  1  0  0  0  0
  6 13  1  0  0  0  0
  7 12  1  0  0  0  0
  7  8  1  0  0  0  0
  8  9  1  0  0  0  0
  8 20  1  0  0  0  0
  8 21  1  0  0  0  0
  9 10  1  0  0  0  0
  9 22  1  0  0  0  0
  9 23  1  0  0  0  0
 10 11  1  0  0  0  0
 11 12  1  0  0  0  0
 11 24  1  0  0  0  0
 11 25  1  0  0  0  0
 12 26  1  0  0  0  0
 12 27  1  0  0  0  0
 13 14  2  0  0  0  0
 14 28  1  0  0  0  0
M  END
> <s_m_source_file>
AV-unprocessed.smi

> <i_m_source_file_index>
660

> <i_lp_mmshare_version>
43012

> <i_f3d_flags>
0

> <s_epik_input>
W09IXVtDSDJdYzFbY0hdW2NIXWMobltjSF0xKU4yW0NIMl1bQ0gyXU9bQ0gyXVtDSDJdMg==

> <s_epik_cmdline>
J2VwaWtfcHl0aG9uJywgJy1waCcsICc3LjAnLCAnLXRuJywgJzgnLCAnLW1hJywgJzIwMCcsICctbWV0YWxfYmluZGluZycsICctaW1hZScsICc8aW5maWxlLm1hZT4nLCAnLW9tYWUnLCAnPG91dGZpbGUubWFlPic=

> <r_lp_tautomer_probability>
1

> <r_epik_Ionization_Penalty>
0.0032706

> <r_epik_Ionization_Penalty_Charging>
0

> <r_epik_Ionization_Penalty_Neutral>
0.0032706

> <r_epik_State_Penalty>
0.00230904

> <r_epik_Charging_Adjusted_Penalty>
0.00230904

> <i_epik_Tot_Q>
0

> <i_epik_Tot_abs_Q>
0

> <r_epik_Metal_State_Penalty>
-0

> <b_epik_Metal_Only>
0

> <s_lp_Force_Field>
OPLS_2005

> <r_lp_Energy>
16.6209

> <b_lp_Chiralities_Consistent>
1

> <s_lp_Variant>
AV-unprocessed.smi:660-1

> <Gold.Version>
5.8.1

> <Gold.Id.Protein>
6NUR|6NUR_protein|mol2

> <Gold.PLP.Fitness>
38.6814

> <Gold.PLP.PLP>
-32.7088

> <Gold.PLP.part.hbond>
-3.0000

> <Gold.PLP.part.metal>
0.0000

> <Gold.PLP.part.buried>
-3.6925

> <Gold.PLP.part.nonpolar>
-25.8307

> <Gold.PLP.part.repulsive>
0.0604

> <Gold.PLP.ligand.clash>
0.0000

> <Gold.PLP.ligand.torsion>
0.1850

> <Gold.PLP.Chemscore.Hbond>
2.0000

> <Gold.PLP.Chemscore.CHOScore>
0.0000

> <Gold.PLP.Chemscore.Metal>
0.0000

> <Gold.Chemscore.Hbonds>
donor molecule, donor type, donor heavy atom, donor atom, acceptor molecule, acceptor atom, score
      L1  H     1    15       P1  7948  0.98
      P1  H  7997  8008       L1    13  0.90

> <Gold.PLP.Chemscore.Internal.Correction>
0.3425

> <Gold.Rescore>
     Score         DG    S(hbond)    S(metal)    S(lipo)     H(rot)  DE(clash)    DE(int)     intcor
     15.87     -16.11       1.84        0.00      75.92       1.72       0.03       0.22       ----

> <Gold.Chemscore.Fitness>
15.8690

> <Gold.Chemscore.DG>
-16.1142

> <Gold.Chemscore.ZeroCoef>
-5.4800

> <Gold.Chemscore.Hbond>
1.8418

> <Gold.Chemscore.Metal>
0.0000

> <Gold.Chemscore.Lipo>
75.9197

> <Gold.Chemscore.Internal_Hbond>
0.0000

> <Gold.Chemscore.DEClash>
0.0282

> <Gold.Chemscore.DEInternal>
0.2170

> <Gold.Chemscore.Rot>
1.7188

> <Gold.Chemscore.Internal.Correction>
   9.000000E+99

> <Gold.Chemscore.Hbonds>
donor molecule, donor type, donor heavy atom, donor atom, acceptor molecule, acceptor atom, score
      L1  H     1    15       P1  7948  0.56
      P1  H  7997  8008       L1    13  0.17

> <Gold.Chemscore.Hbond.Weighted>
-6.1517

> <Gold.Chemscore.Metal.Weighted>
-0.0000

> <Gold.Chemscore.Lipo.Weighted>
-8.8826

> <Gold.Chemscore.Internal_Hbond.Weighted>
0.0000

> <Gold.Chemscore.DEClash.Weighted>
0.0282

> <Gold.Chemscore.DEInternal.Weighted>
0.2170

> <Gold.Chemscore.Rot.Weighted>
4.4001

> <Gold.Chemscore.Internal.Correction.Weighted>
   9.000000E+99

> <Gold.Protein.RotatedTorsions>
[ 6907 6896 6895 6894 ] final  -27.34 input  -60.11 | X-H torsion
[ 7974 7965 7964 7962 ] final   84.51 input  175.53 | X-H torsion
[ 8008 7997 7996 7995 ] final  -68.75 input   59.86 | X-H torsion
[ 10167 10162 10161 10158 ] final  177.01 input  -65.29 | X-H torsion
[ 10718 10713 10712 10709 ] final  -84.85 input   66.30 | X-H torsion
[ 10763 10752 10751 10750 ] final -167.43 input  -60.55 | X-H torsion
[ 11005 11000 10999 10996 ] final  161.12 input  -57.11 | X-H torsion

> <Gold.Protein.ActiveResidues>
 VAL166  LYS551  ARG553  GLY616  TRP617  ASP618  TYR619  PRO620  LYS621  CYS622 
 ASP623  PHE694  ASN695  SER759  ASP760  ASP761  ALA762  ILE779  LEU786  VAL792 
 PHE793  MET794  SER795  GLU796  ALA797  LYS798  CYS799  TRP800  GLU811  SER814 

> <Gold.Protein.RotatedAtoms>
  151.1483  135.0214  159.8656 H   0  0  0  0  0  0  0  0  0  0  0  0  # atno 6907 bound_to 6896
  152.5453  134.1418  159.8492 H   0  0  0  0  0  0  0  0  0  0  0  0  # atno 6908 bound_to 6896
  151.1501  133.4867  159.2628 H   0  0  0  0  0  0  0  0  0  0  0  0  # atno 6909 bound_to 6896
  145.5978  139.2348  143.2263 H   0  0  0  0  0  0  0  0  0  0  0  0  # atno 7974 bound_to 7965
  154.4890  140.0867  156.7551 H   0  0  0  0  0  0  0  0  0  0  0  0  # atno 8008 bound_to 7997
  155.4279  140.3448  155.4259 H   0  0  0  0  0  0  0  0  0  0  0  0  # atno 8009 bound_to 7997
  156.1302  140.1499  156.9064 H   0  0  0  0  0  0  0  0  0  0  0  0  # atno 8010 bound_to 7997
  139.5236  144.2848  152.0515 H   0  0  0  0  0  0  0  0  0  0  0  0  # atno 10167 bound_to 10162
  156.0002  130.4711  150.4472 H   0  0  0  0  0  0  0  0  0  0  0  0  # atno 10718 bound_to 10713
  154.6732  135.2942  154.9714 H   0  0  0  0  0  0  0  0  0  0  0  0  # atno 10763 bound_to 10752
  154.0734  135.6615  153.4831 H   0  0  0  0  0  0  0  0  0  0  0  0  # atno 10764 bound_to 10752
  153.0500  135.5180  154.7738 H   0  0  0  0  0  0  0  0  0  0  0  0  # atno 10765 bound_to 10752
  140.2126  134.8256  157.3137 H   0  0  0  0  0  0  0  0  0  0  0  0  # atno 11005 bound_to 11000
  146.1599  140.6804  142.9282 LP  0  0  0  0  0  0  0  0  0  0  0  0  # atno 17320 bound_to 7965
  144.7323  140.4707  143.6929 LP  0  0  0  0  0  0  0  0  0  0  0  0  # atno 17321 bound_to 7965
  140.2302  144.4376  150.6303 LP  0  0  0  0  0  0  0  0  0  0  0  0  # atno 17342 bound_to 10162
  140.6360  143.2195  151.6393 LP  0  0  0  0  0  0  0  0  0  0  0  0  # atno 17343 bound_to 10162
  157.2508  131.0546  151.2380 LP  0  0  0  0  0  0  0  0  0  0  0  0  # atno 17370 bound_to 10713
  157.3530  130.7091  149.6452 LP  0  0  0  0  0  0  0  0  0  0  0  0  # atno 17371 bound_to 10713
  140.1934  134.4343  155.7703 LP  0  0  0  0  0  0  0  0  0  0  0  0  # atno 17394 bound_to 11000
  141.2226  133.7038  156.8065 LP  0  0  0  0  0  0  0  0  0  0  0  0  # atno 17395 bound_to 11000

$$$$
