AV-unprocessed.smi:38|AV-procd|sdf|342|dock5
  -GOLD-   2262016183D 1   1.00000     0.00000
 Structure written by MMmdl.
 28 29  0  0  0  0  0  0  0  0  1 V2000
  152.2299  134.8558  157.2544 O   0  0  0  0  0  0  0  0  0  0  0  0
  152.0812  136.0392  156.9560 C   0  0  0  0  0  0  0  0  0  0  0  0
  152.7958  137.0305  157.6352 N   0  0  0  0  0  0  0  0  0  0  0  0
  152.7130  138.4031  157.3920 C   0  0  0  0  0  0  0  0  0  0  0  0
  153.3837  139.1839  158.0655 O   0  0  0  0  0  0  0  0  0  0  0  0
  151.8343  138.8233  156.3678 N   0  0  0  0  0  0  0  0  0  0  0  0
  151.6999  140.2927  156.0395 C   0  0  2  0  0  0  0  0  0  0  0  0
  151.1771  141.0791  157.2461 C   0  0  0  0  0  0  0  0  0  0  0  0
  149.7486  141.3912  156.8399 C   0  0  1  0  0  0  0  0  0  0  0  0
  149.3204  142.6119  157.4081 O   0  0  0  0  0  0  0  0  0  0  0  0
  149.8458  141.4592  155.3132 C   0  0  2  0  0  0  0  0  0  0  0  0
  148.5126  141.1869  154.6001 C   0  0  0  0  0  0  0  0  0  0  0  0
  148.6937  141.2324  153.2012 O   0  0  0  0  0  0  0  0  0  0  0  0
  150.7773  140.4279  155.0015 O   0  0  0  0  0  0  0  0  0  0  0  0
  151.1033  137.8729  155.6678 C   0  0  0  0  0  0  0  0  0  0  0  0
  151.1909  136.5449  155.9153 C   0  0  0  0  0  0  0  0  0  0  0  0
  150.4507  135.6855  155.1944 F   0  0  0  0  0  0  0  0  0  0  0  0
  153.4241  136.7281  158.3653 H   0  0  0  0  0  0  0  0  0  0  0  0
  152.6684  140.6509  155.6887 H   0  0  0  0  0  0  0  0  0  0  0  0
  149.0847  140.5833  157.1498 H   0  0  0  0  0  0  0  0  0  0  0  0
  150.2690  142.4208  155.0155 H   0  0  0  0  0  0  0  0  0  0  0  0
  151.2558  140.5146  158.1763 H   0  0  0  0  0  0  0  0  0  0  0  0
  151.7696  141.9907  157.3386 H   0  0  0  0  0  0  0  0  0  0  0  0
  149.4699  143.3052  156.7834 H   0  0  0  0  0  0  0  0  0  0  0  0
  148.0913  140.2265  154.8991 H   0  0  0  0  0  0  0  0  0  0  0  0
  147.7834  141.9551  154.8594 H   0  0  0  0  0  0  0  0  0  0  0  0
  148.9105  140.3644  152.8969 H   0  0  0  0  0  0  0  0  0  0  0  0
  150.4316  138.1953  154.8860 H   0  0  0  0  0  0  0  0  0  0  0  0
  1  2  2  0  0  0  0
  2 16  1  0  0  0  0
  2  3  1  0  0  0  0
  3 18  1  0  0  0  0
  3  4  1  0  0  0  0
  4  5  2  0  0  0  0
  4  6  1  0  0  0  0
  6  7  1  0  0  0  0
  6 15  1  0  0  0  0
  7 19  1  0  0  0  0
  7 14  1  0  0  0  0
  7  8  1  0  0  0  0
  8  9  1  0  0  0  0
  8 22  1  0  0  0  0
  8 23  1  0  0  0  0
  9 20  1  0  0  0  0
  9 10  1  0  0  0  0
  9 11  1  0  0  0  0
 10 24  1  0  0  0  0
 11 21  1  0  0  0  0
 11 12  1  0  0  0  0
 11 14  1  0  0  0  0
 12 13  1  0  0  0  0
 12 25  1  0  0  0  0
 12 26  1  0  0  0  0
 13 27  1  0  0  0  0
 15 16  2  0  0  0  0
 15 28  1  0  0  0  0
 16 17  1  0  0  0  0
M  END
> <s_m_source_file>
AV-unprocessed.smi

> <i_m_source_file_index>
38

> <i_lp_mmshare_version>
43012

> <i_f3d_flags>
0

> <s_epik_input>
Tz1jMVtuSF1jKD1PKW4oW2NIXWMxRilbQ0BIXTJbQ0gyXVtDQEhdKFtPSF0pW0NASF0oTzIpW0NIMl1bT0hd

> <s_epik_cmdline>
J2VwaWtfcHl0aG9uJywgJy1waCcsICc3LjAnLCAnLXRuJywgJzgnLCAnLW1hJywgJzIwMCcsICctbWV0YWxfYmluZGluZycsICctaW1hZScsICc8aW5maWxlLm1hZT4nLCAnLW9tYWUnLCAnPG91dGZpbGUubWFlPic=

> <r_lp_tautomer_probability>
0.999537

> <r_epik_Ionization_Penalty>
0.0357432

> <r_epik_Ionization_Penalty_Charging>
0.0357431

> <r_epik_Ionization_Penalty_Neutral>
1.19946e-07

> <r_epik_State_Penalty>
0.0298169

> <r_epik_Charging_Adjusted_Penalty>
0.06556

> <i_epik_Tot_Q>
0

> <i_epik_Tot_abs_Q>
0

> <r_epik_Metal_State_Penalty>
2.348

> <b_epik_Metal_Only>
0

> <s_epik_Chemistry_Notes>
This compound contains an acetal/aminal-like group ( X-CH(R)-Y where X, Y are N, S, or O) that may be acid/base labile, releasing an aldehyde.

> <s_lp_Force_Field>
OPLS_2005

> <r_lp_Energy>
27.0037

> <b_lp_Chiralities_Consistent>
1

> <s_lp_Variant>
AV-unprocessed.smi:38-8

> <Gold.Version>
5.8.1

> <Gold.Id.Protein>
6NUR|6NUR_protein|mol2

> <Gold.PLP.Fitness>
38.9158

> <Gold.PLP.PLP>
-25.6942

> <Gold.PLP.part.hbond>
-6.1549

> <Gold.PLP.part.metal>
0.0000

> <Gold.PLP.part.buried>
-2.8908

> <Gold.PLP.part.nonpolar>
-16.7256

> <Gold.PLP.part.repulsive>
0.2082

> <Gold.PLP.ligand.clash>
0.0000

> <Gold.PLP.ligand.torsion>
0.0058

> <Gold.PLP.Chemscore.Hbond>
4.4080

> <Gold.PLP.Chemscore.CHOScore>
0.0000

> <Gold.PLP.Chemscore.Metal>
0.0000

> <Gold.Chemscore.Hbonds>
donor molecule, donor type, donor heavy atom, donor atom, acceptor molecule, acceptor atom, score
      L1  H    10    24       P1  8028  1.00
      L1  H    13    27       P1  7957  0.43
      P1  H  7989  7998       L1    14  1.00
      P1  H  7997  8009       L1     5  1.00
      P1  H  8011  8017       L1    13  0.98

> <Gold.PLP.Chemscore.Internal.Correction>
0.0091

> <Gold.Rescore>
     Score         DG    S(hbond)    S(metal)    S(lipo)     H(rot)  DE(clash)    DE(int)     intcor
     13.99     -14.26       3.62        0.00      35.54       2.91       0.20       0.06       ----

> <Gold.Chemscore.Fitness>
13.9900

> <Gold.Chemscore.DG>
-14.2578

> <Gold.Chemscore.ZeroCoef>
-5.4800

> <Gold.Chemscore.Hbond>
3.6167

> <Gold.Chemscore.Metal>
0.0000

> <Gold.Chemscore.Lipo>
35.5401

> <Gold.Chemscore.Internal_Hbond>
0.0000

> <Gold.Chemscore.DEClash>
0.2047

> <Gold.Chemscore.DEInternal>
0.0630

> <Gold.Chemscore.Rot>
2.9141

> <Gold.Chemscore.Internal.Correction>
   9.000000E+99

> <Gold.Chemscore.Hbonds>
donor molecule, donor type, donor heavy atom, donor atom, acceptor molecule, acceptor atom, score
      L1  H    10    24       P1  8028  0.96
      L1  H    13    27       P1  7957  0.44
      P1  H  7989  7998       L1    14  0.45
      P1  H  7997  8009       L1     5  0.74
      P1  H  8011  8017       L1    13  0.61

> <Gold.Chemscore.Hbond.Weighted>
-12.0797

> <Gold.Chemscore.Metal.Weighted>
-0.0000

> <Gold.Chemscore.Lipo.Weighted>
-4.1582

> <Gold.Chemscore.Internal_Hbond.Weighted>
0.0000

> <Gold.Chemscore.DEClash.Weighted>
0.2047

> <Gold.Chemscore.DEInternal.Weighted>
0.0630

> <Gold.Chemscore.Rot.Weighted>
7.4601

> <Gold.Chemscore.Internal.Correction.Weighted>
   9.000000E+99

> <Gold.Protein.RotatedTorsions>
[ 6907 6896 6895 6894 ] final -136.68 input  -60.11 | X-H torsion
[ 7974 7965 7964 7962 ] final   17.18 input  175.53 | X-H torsion
[ 8008 7997 7996 7995 ] final  155.99 input   59.86 | X-H torsion
[ 10167 10162 10161 10158 ] final  -99.48 input  -65.29 | X-H torsion
[ 10718 10713 10712 10709 ] final   88.54 input   66.30 | X-H torsion
[ 10763 10752 10751 10750 ] final -100.38 input  -60.55 | X-H torsion
[ 11005 11000 10999 10996 ] final -169.85 input  -57.11 | X-H torsion

> <Gold.Protein.ActiveResidues>
 VAL166  LYS551  ARG553  GLY616  TRP617  ASP618  TYR619  PRO620  LYS621  CYS622 
 ASP623  PHE694  ASN695  SER759  ASP760  ASP761  ALA762  ILE779  LEU786  VAL792 
 PHE793  MET794  SER795  GLU796  ALA797  LYS798  CYS799  TRP800  GLU811  SER814 

> <Gold.Protein.RotatedAtoms>
  151.0131  133.5946  159.2680 H   0  0  0  0  0  0  0  0  0  0  0  0  # atno 6907 bound_to 6896
  151.3091  135.0788  159.9275 H   0  0  0  0  0  0  0  0  0  0  0  0  # atno 6908 bound_to 6896
  152.5304  133.9799  159.7856 H   0  0  0  0  0  0  0  0  0  0  0  0  # atno 6909 bound_to 6896
  146.2226  139.8639  142.8599 H   0  0  0  0  0  0  0  0  0  0  0  0  # atno 7974 bound_to 7965
  156.2447  140.1924  156.6887 H   0  0  0  0  0  0  0  0  0  0  0  0  # atno 8008 bound_to 7997
  154.6268  140.0601  156.9709 H   0  0  0  0  0  0  0  0  0  0  0  0  # atno 8009 bound_to 7997
  155.1774  140.3273  155.4384 H   0  0  0  0  0  0  0  0  0  0  0  0  # atno 8010 bound_to 7997
  140.2620  143.3401  152.0616 H   0  0  0  0  0  0  0  0  0  0  0  0  # atno 10167 bound_to 10162
  157.6949  131.0298  150.3290 H   0  0  0  0  0  0  0  0  0  0  0  0  # atno 10718 bound_to 10713
  154.7574  135.4937  153.9400 H   0  0  0  0  0  0  0  0  0  0  0  0  # atno 10763 bound_to 10752
  153.1212  135.6732  153.9341 H   0  0  0  0  0  0  0  0  0  0  0  0  # atno 10764 bound_to 10752
  153.9072  135.3103  155.3427 H   0  0  0  0  0  0  0  0  0  0  0  0  # atno 10765 bound_to 10752
  140.5261  134.5662  157.5062 H   0  0  0  0  0  0  0  0  0  0  0  0  # atno 11005 bound_to 11000
  145.2676  141.0098  143.3790 LP  0  0  0  0  0  0  0  0  0  0  0  0  # atno 17320 bound_to 7965
  144.9249  139.4367  143.6523 LP  0  0  0  0  0  0  0  0  0  0  0  0  # atno 17321 bound_to 7965
  139.5014  144.6712  151.6237 LP  0  0  0  0  0  0  0  0  0  0  0  0  # atno 17342 bound_to 10162
  140.5958  143.9698  150.6353 LP  0  0  0  0  0  0  0  0  0  0  0  0  # atno 17343 bound_to 10162
  156.3766  130.3873  149.7134 LP  0  0  0  0  0  0  0  0  0  0  0  0  # atno 17370 bound_to 10713
  156.4530  130.7916  151.2937 LP  0  0  0  0  0  0  0  0  0  0  0  0  # atno 17371 bound_to 10713
  139.9579  134.7503  156.0300 LP  0  0  0  0  0  0  0  0  0  0  0  0  # atno 17394 bound_to 11000
  141.1307  133.6587  156.3458 LP  0  0  0  0  0  0  0  0  0  0  0  0  # atno 17395 bound_to 11000

$$$$
