AV-unprocessed.smi:1383|AV-procd|sdf|5622|dock6
  -GOLD-   22720 5233D 1   1.00000     0.00000
 Structure written by MMmdl.
 31 31  0  0  0  0  0  0  0  0  1 V2000
  152.6376  143.0071  160.1245 C   0  0  0  0  0  0  0  0  0  0  0  0
  152.6040  143.9844  158.9388 C   0  0  0  0  0  0  0  0  0  0  0  0
  151.3373  143.8754  158.0615 C   0  0  2  0  0  0  0  0  0  0  0  0
  150.0768  144.2285  158.8698 C   0  0  0  0  0  0  0  0  0  0  0  0
  151.1914  142.4793  157.4361 C   0  0  0  0  0  0  0  0  0  0  0  0
  151.7635  141.5181  157.9517 O   0  0  0  0  0  0  0  0  0  0  0  0
  150.4255  142.4092  156.3310 N   0  0  0  0  0  0  0  0  0  0  0  0
  150.1162  141.2693  155.5445 C   0  0  0  0  0  0  0  0  0  0  0  0
  150.9665  140.2654  155.3031 N   0  0  0  0  0  0  0  0  0  0  0  0
  150.3967  139.2674  154.5049 C   0  0  0  0  0  0  0  0  0  0  0  0
  151.1999  138.0553  154.1286 C   0  0  0  0  0  0  0  0  0  0  0  0
  150.6554  136.8050  154.8247 C   0  0  0  0  0  0  0  0  0  0  0  0
  149.4924  136.3148  154.3857 N   0  0  0  0  0  0  0  0  0  0  0  0
  151.2829  136.2793  155.7414 O   0  0  0  0  0  0  0  0  0  0  0  0
  149.1015  139.5437  154.1370 C   0  0  0  0  0  0  0  0  0  0  0  0
  148.5438  141.0602  154.7909 S   0  0  0  0  0  0  0  0  0  0  0  0
  153.5809  143.0894  160.6646 H   0  0  0  0  0  0  0  0  0  0  0  0
  152.5382  141.9751  159.7870 H   0  0  0  0  0  0  0  0  0  0  0  0
  151.8362  143.2072  160.8360 H   0  0  0  0  0  0  0  0  0  0  0  0
  152.7165  145.0044  159.3093 H   0  0  0  0  0  0  0  0  0  0  0  0
  153.4805  143.7965  158.3177 H   0  0  0  0  0  0  0  0  0  0  0  0
  151.4220  144.6068  157.2558 H   0  0  0  0  0  0  0  0  0  0  0  0
  149.1746  144.1283  158.2650 H   0  0  0  0  0  0  0  0  0  0  0  0
  150.1172  145.2588  159.2243 H   0  0  0  0  0  0  0  0  0  0  0  0
  149.9656  143.5840  159.7428 H   0  0  0  0  0  0  0  0  0  0  0  0
  150.0179  143.2772  156.0157 H   0  0  0  0  0  0  0  0  0  0  0  0
  151.1806  137.8982  153.0494 H   0  0  0  0  0  0  0  0  0  0  0  0
  152.2479  138.1914  154.3995 H   0  0  0  0  0  0  0  0  0  0  0  0
  149.1006  135.4866  154.8094 H   0  0  0  0  0  0  0  0  0  0  0  0
  149.0136  136.7717  153.6231 H   0  0  0  0  0  0  0  0  0  0  0  0
  148.4427  138.9466  153.5242 H   0  0  0  0  0  0  0  0  0  0  0  0
  1  2  1  0  0  0  0
  1 17  1  0  0  0  0
  1 18  1  0  0  0  0
  1 19  1  0  0  0  0
  2  3  1  0  0  0  0
  2 20  1  0  0  0  0
  2 21  1  0  0  0  0
  3  4  1  0  0  0  0
  3  5  1  0  0  0  0
  3 22  1  0  0  0  0
  4 23  1  0  0  0  0
  4 24  1  0  0  0  0
  4 25  1  0  0  0  0
  5  6  2  0  0  0  0
  5  7  1  0  0  0  0
  7  8  1  0  0  0  0
  7 26  1  0  0  0  0
  8 16  1  0  0  0  0
  8  9  2  0  0  0  0
  9 10  1  0  0  0  0
 10 11  1  0  0  0  0
 10 15  2  0  0  0  0
 11 12  1  0  0  0  0
 11 27  1  0  0  0  0
 11 28  1  0  0  0  0
 12 13  1  0  0  0  0
 12 14  2  0  0  0  0
 13 29  1  0  0  0  0
 13 30  1  0  0  0  0
 15 16  1  0  0  0  0
 15 31  1  0  0  0  0
M  END
> <s_m_source_file>
AV-unprocessed.smi

> <i_m_source_file_index>
1383

> <i_lp_mmshare_version>
43012

> <i_f3d_flags>
0

> <s_epik_input>
W0NIM11bQ0gyXVtDQEhdKFtDSDNdKUMoPU8pW05IXWMxbmMoW2NIXXMxKVtDSDJdQyg9TylbTkgyXQ==

> <s_epik_cmdline>
J2VwaWtfcHl0aG9uJywgJy1waCcsICc3LjAnLCAnLXRuJywgJzgnLCAnLW1hJywgJzIwMCcsICctbWV0YWxfYmluZGluZycsICctaW1hZScsICc8aW5maWxlLm1hZT4nLCAnLW9tYWUnLCAnPG91dGZpbGUubWFlPic=

> <r_lp_tautomer_probability>
1

> <r_epik_Ionization_Penalty>
0.00017492

> <r_epik_Ionization_Penalty_Charging>
0

> <r_epik_Ionization_Penalty_Neutral>
0.00017492

> <r_epik_State_Penalty>
-0

> <r_epik_Charging_Adjusted_Penalty>
0

> <i_epik_Tot_Q>
0

> <i_epik_Tot_abs_Q>
0

> <r_epik_Metal_State_Penalty>
0.109333

> <b_epik_Metal_Only>
0

> <s_lp_Force_Field>
OPLS_2005

> <r_lp_Energy>
2.98053

> <b_lp_Chiralities_Consistent>
1

> <s_lp_Variant>
AV-unprocessed.smi:1383-1

> <Gold.Version>
5.8.1

> <Gold.Id.Protein>
6NUR|6NUR_protein|mol2

> <Gold.PLP.Fitness>
42.0512

> <Gold.PLP.PLP>
-36.0175

> <Gold.PLP.part.hbond>
-4.0000

> <Gold.PLP.part.metal>
0.0000

> <Gold.PLP.part.buried>
-4.1345

> <Gold.PLP.part.nonpolar>
-28.7324

> <Gold.PLP.part.repulsive>
0.2124

> <Gold.PLP.ligand.clash>
0.0000

> <Gold.PLP.ligand.torsion>
1.0360

> <Gold.PLP.Chemscore.Hbond>
2.6780

> <Gold.PLP.Chemscore.CHOScore>
0.0000

> <Gold.PLP.Chemscore.Metal>
0.0000

> <Gold.Chemscore.Hbonds>
donor molecule, donor type, donor heavy atom, donor atom, acceptor molecule, acceptor atom, score
      L1  H     7    26       P1  8028  1.00
      L1  H    13    30       P1  7948  0.53
      P1  H  7989  7998       L1     9  0.05
      P1  H 10752 10765       L1    14  0.83
      L1  C    15    31       P1  7957  0.05

> <Gold.PLP.Chemscore.Internal.Correction>
0.0717

> <Gold.Rescore>
     Score         DG    S(hbond)    S(metal)    S(lipo)     H(rot)  DE(clash)    DE(int)     intcor
     13.87     -16.11       2.31        0.00      72.96       2.19       0.08       2.17       ----

> <Gold.Chemscore.Fitness>
13.8680

> <Gold.Chemscore.DG>
-16.1136

> <Gold.Chemscore.ZeroCoef>
-5.4800

> <Gold.Chemscore.Hbond>
2.3103

> <Gold.Chemscore.Metal>
0.0000

> <Gold.Chemscore.Lipo>
72.9552

> <Gold.Chemscore.Internal_Hbond>
0.0000

> <Gold.Chemscore.DEClash>
0.0783

> <Gold.Chemscore.DEInternal>
2.1673

> <Gold.Chemscore.Rot>
2.1948

> <Gold.Chemscore.Internal.Correction>
   9.000000E+99

> <Gold.Chemscore.Hbonds>
donor molecule, donor type, donor heavy atom, donor atom, acceptor molecule, acceptor atom, score
      L1  H     7    26       P1  8028  1.00
      L1  H    13    30       P1  7948  0.52
      P1  H 10752 10765       L1    14  0.50

> <Gold.Chemscore.Hbond.Weighted>
-7.7165

> <Gold.Chemscore.Metal.Weighted>
-0.0000

> <Gold.Chemscore.Lipo.Weighted>
-8.5358

> <Gold.Chemscore.Internal_Hbond.Weighted>
0.0000

> <Gold.Chemscore.DEClash.Weighted>
0.0783

> <Gold.Chemscore.DEInternal.Weighted>
2.1673

> <Gold.Chemscore.Rot.Weighted>
5.6186

> <Gold.Chemscore.Internal.Correction.Weighted>
   9.000000E+99

> <Gold.Protein.RotatedTorsions>
[ 6907 6896 6895 6894 ] final  -14.61 input  -60.11 | X-H torsion
[ 7974 7965 7964 7962 ] final  140.03 input  175.53 | X-H torsion
[ 8008 7997 7996 7995 ] final  -30.32 input   59.86 | X-H torsion
[ 10167 10162 10161 10158 ] final  -77.95 input  -65.29 | X-H torsion
[ 10718 10713 10712 10709 ] final -109.45 input   66.30 | X-H torsion
[ 10763 10752 10751 10750 ] final -158.57 input  -60.55 | X-H torsion
[ 11005 11000 10999 10996 ] final  -29.76 input  -57.11 | X-H torsion

> <Gold.Protein.ActiveResidues>
 VAL166  LYS551  ARG553  GLY616  TRP617  ASP618  TYR619  PRO620  LYS621  CYS622 
 ASP623  PHE694  ASN695  SER759  ASP760  ASP761  ALA762  ILE779  LEU786  VAL792 
 PHE793  MET794  SER795  GLU796  ALA797  LYS798  CYS799  TRP800  GLU811  SER814 

> <Gold.Protein.RotatedAtoms>
  151.3367  135.0854  159.9356 H   0  0  0  0  0  0  0  0  0  0  0  0  # atno 6907 bound_to 6896
  152.5221  133.9488  159.7672 H   0  0  0  0  0  0  0  0  0  0  0  0  # atno 6908 bound_to 6896
  150.9837  133.6166  159.2748 H   0  0  0  0  0  0  0  0  0  0  0  0  # atno 6909 bound_to 6896
  144.9224  139.5150  143.5657 H   0  0  0  0  0  0  0  0  0  0  0  0  # atno 7974 bound_to 7965
  154.4255  140.1794  156.1388 H   0  0  0  0  0  0  0  0  0  0  0  0  # atno 8008 bound_to 7997
  156.0008  140.3360  155.6819 H   0  0  0  0  0  0  0  0  0  0  0  0  # atno 8009 bound_to 7997
  155.6245  140.0663  157.2658 H   0  0  0  0  0  0  0  0  0  0  0  0  # atno 8010 bound_to 7997
  140.4725  143.2423  151.8183 H   0  0  0  0  0  0  0  0  0  0  0  0  # atno 10167 bound_to 10162
  156.0538  130.5764  150.8102 H   0  0  0  0  0  0  0  0  0  0  0  0  # atno 10718 bound_to 10713
  154.7546  135.3101  154.8495 H   0  0  0  0  0  0  0  0  0  0  0  0  # atno 10763 bound_to 10752
  153.9272  135.6789  153.4750 H   0  0  0  0  0  0  0  0  0  0  0  0  # atno 10764 bound_to 10752
  153.1142  135.4852  154.9017 H   0  0  0  0  0  0  0  0  0  0  0  0  # atno 10765 bound_to 10752
  140.9324  133.7330  156.0955 H   0  0  0  0  0  0  0  0  0  0  0  0  # atno 11005 bound_to 11000
  146.3211  139.8114  142.8945 LP  0  0  0  0  0  0  0  0  0  0  0  0  # atno 17320 bound_to 7965
  145.3274  141.0258  143.3466 LP  0  0  0  0  0  0  0  0  0  0  0  0  # atno 17321 bound_to 7965
  139.4820  144.4874  151.9229 LP  0  0  0  0  0  0  0  0  0  0  0  0  # atno 17342 bound_to 10162
  140.3960  144.2555  150.5896 LP  0  0  0  0  0  0  0  0  0  0  0  0  # atno 17343 bound_to 10162
  157.5489  131.0943  150.9724 LP  0  0  0  0  0  0  0  0  0  0  0  0  # atno 17370 bound_to 10713
  156.9988  130.5592  149.5309 LP  0  0  0  0  0  0  0  0  0  0  0  0  # atno 17371 bound_to 10713
  140.7845  134.3688  157.5479 LP  0  0  0  0  0  0  0  0  0  0  0  0  # atno 17394 bound_to 11000
  139.8799  134.9102  156.3008 LP  0  0  0  0  0  0  0  0  0  0  0  0  # atno 17395 bound_to 11000

$$$$
