AV-unprocessed.smi:754|AV-procd|sdf|3607|dock1
  -GOLD-   22720 1 03D 1   1.00000     0.00000
 Structure written by MMmdl.
 37 38  0  0  0  0  0  0  0  0  1 V2000
  145.4696  130.6985  152.0488 C   0  0  0  0  0  0  0  0  0  0  0  0
  146.2492  132.0068  152.1984 C   0  0  0  0  0  0  0  0  0  0  0  0
  147.4055  131.7657  152.9825 O   0  0  0  0  0  0  0  0  0  0  0  0
  148.1021  132.9557  153.3184 C   0  0  2  0  0  0  0  0  0  0  0  0
  149.3076  132.7484  154.2396 C   0  0  0  0  0  0  0  0  0  0  0  0
  148.8510  133.9955  155.0037 C   0  0  1  0  0  0  0  0  0  0  0  0
  149.5169  135.1943  154.4934 N   0  0  0  0  0  0  0  0  0  0  0  0
  150.3564  135.9610  155.2057 C   0  0  0  0  0  0  0  0  0  0  0  0
  150.6382  135.7440  156.3836 O   0  0  0  0  0  0  0  0  0  0  0  0
  150.9690  137.1596  154.4811 C   0  0  0  0  0  0  0  0  0  0  0  0
  151.9241  137.8479  155.3287 N   0  0  0  0  0  0  0  0  0  0  0  0
  152.1502  139.1496  155.5182 C   0  0  0  0  0  0  0  0  0  0  0  0
  153.1335  139.3550  156.3810 N   0  0  0  0  0  0  0  0  0  0  0  0
  153.5195  138.0711  156.7289 N   0  0  0  0  0  0  0  0  0  0  0  0
  152.8061  137.1728  156.1070 N   0  0  0  0  0  0  0  0  0  0  0  0
  147.4176  133.7728  154.4405 C   0  0  0  0  0  0  0  0  0  0  0  0
  146.6182  134.9977  153.9810 C   0  0  0  0  0  0  0  0  0  0  0  0
  146.4979  132.9805  155.3797 C   0  0  0  0  0  0  0  0  0  0  0  0
  144.5708  130.8467  151.4501 H   0  0  0  0  0  0  0  0  0  0  0  0
  145.1642  130.3117  153.0213 H   0  0  0  0  0  0  0  0  0  0  0  0
  146.0756  129.9360  151.5589 H   0  0  0  0  0  0  0  0  0  0  0  0
  146.5289  132.3849  151.2143 H   0  0  0  0  0  0  0  0  0  0  0  0
  145.6227  132.7611  152.6765 H   0  0  0  0  0  0  0  0  0  0  0  0
  148.3408  133.5715  152.4484 H   0  0  0  0  0  0  0  0  0  0  0  0
  149.2367  131.8375  154.8361 H   0  0  0  0  0  0  0  0  0  0  0  0
  150.2769  132.8280  153.7461 H   0  0  0  0  0  0  0  0  0  0  0  0
  148.9243  133.8732  156.0860 H   0  0  0  0  0  0  0  0  0  0  0  0
  149.3337  135.4471  153.5331 H   0  0  0  0  0  0  0  0  0  0  0  0
  151.4743  136.8311  153.5719 H   0  0  0  0  0  0  0  0  0  0  0  0
  150.1854  137.8568  154.1806 H   0  0  0  0  0  0  0  0  0  0  0  0
  151.6020  139.9387  155.0251 H   0  0  0  0  0  0  0  0  0  0  0  0
  146.4018  135.6679  154.8135 H   0  0  0  0  0  0  0  0  0  0  0  0
  145.6663  134.7093  153.5340 H   0  0  0  0  0  0  0  0  0  0  0  0
  147.1538  135.5770  153.2286 H   0  0  0  0  0  0  0  0  0  0  0  0
  146.2069  133.5754  156.2460 H   0  0  0  0  0  0  0  0  0  0  0  0
  146.9810  132.0797  155.7590 H   0  0  0  0  0  0  0  0  0  0  0  0
  145.5835  132.6650  154.8764 H   0  0  0  0  0  0  0  0  0  0  0  0
  1  2  1  0  0  0  0
  1 19  1  0  0  0  0
  1 20  1  0  0  0  0
  1 21  1  0  0  0  0
  2  3  1  0  0  0  0
  2 22  1  0  0  0  0
  2 23  1  0  0  0  0
  3  4  1  0  0  0  0
  4 16  1  0  0  0  0
  4  5  1  0  0  0  0
  4 24  1  0  0  0  0
  5  6  1  0  0  0  0
  5 25  1  0  0  0  0
  5 26  1  0  0  0  0
  6  7  1  0  0  0  0
  6 16  1  0  0  0  0
  6 27  1  0  0  0  0
  7  8  1  0  0  0  0
  7 28  1  0  0  0  0
  8  9  2  0  0  0  0
  8 10  1  0  0  0  0
 10 11  1  0  0  0  0
 10 29  1  0  0  0  0
 10 30  1  0  0  0  0
 11 15  1  0  0  0  0
 11 12  1  0  0  0  0
 12 13  2  0  0  0  0
 12 31  1  0  0  0  0
 13 14  1  0  0  0  0
 14 15  2  0  0  0  0
 16 17  1  0  0  0  0
 16 18  1  0  0  0  0
 17 32  1  0  0  0  0
 17 33  1  0  0  0  0
 17 34  1  0  0  0  0
 18 35  1  0  0  0  0
 18 36  1  0  0  0  0
 18 37  1  0  0  0  0
M  END
> <s_m_source_file>
AV-unprocessed.smi

> <i_m_source_file_index>
754

> <i_lp_mmshare_version>
43012

> <i_f3d_flags>
0

> <s_epik_input>
W0NIM11bQ0gyXU9bQ0BASF0oQzEoW0NIM10pW0NIM10pW0NIMl1bQ0BIXTFbTkhdQyg9TylbQ0gyXW4yW2NIXW5ubjI=

> <s_epik_cmdline>
J2VwaWtfcHl0aG9uJywgJy1waCcsICc3LjAnLCAnLXRuJywgJzgnLCAnLW1hJywgJzIwMCcsICctbWV0YWxfYmluZGluZycsICctaW1hZScsICc8aW5maWxlLm1hZT4nLCAnLW9tYWUnLCAnPG91dGZpbGUubWFlPic=

> <r_lp_tautomer_probability>
1

> <r_epik_Ionization_Penalty>
8.28422e-07

> <r_epik_Ionization_Penalty_Charging>
0

> <r_epik_Ionization_Penalty_Neutral>
8.28422e-07

> <r_epik_State_Penalty>
-0

> <r_epik_Charging_Adjusted_Penalty>
0

> <i_epik_Tot_Q>
0

> <i_epik_Tot_abs_Q>
0

> <r_epik_Metal_State_Penalty>
-0

> <b_epik_Metal_Only>
0

> <s_lp_Force_Field>
OPLS_2005

> <r_lp_Energy>
23.2797

> <b_lp_Chiralities_Consistent>
1

> <s_lp_Variant>
AV-unprocessed.smi:754-1

> <Gold.Version>
5.8.1

> <Gold.Id.Protein>
6NUR|6NUR_protein|mol2

> <Gold.PLP.Fitness>
35.2562

> <Gold.PLP.PLP>
-27.9569

> <Gold.PLP.part.hbond>
-3.8382

> <Gold.PLP.part.metal>
0.0000

> <Gold.PLP.part.buried>
-3.9212

> <Gold.PLP.part.nonpolar>
-22.1884

> <Gold.PLP.part.repulsive>
0.8320

> <Gold.PLP.ligand.clash>
0.0000

> <Gold.PLP.ligand.torsion>
0.5360

> <Gold.PLP.Chemscore.Hbond>
2.6720

> <Gold.PLP.Chemscore.CHOScore>
0.0000

> <Gold.PLP.Chemscore.Metal>
0.0000

> <Gold.Chemscore.Hbonds>
donor molecule, donor type, donor heavy atom, donor atom, acceptor molecule, acceptor atom, score
      L1  H     7    28       P1  7948  1.00
      P1  H  7997  8010       L1    13  0.88
      P1  H 10752 10765       L1    15  0.69

> <Gold.PLP.Chemscore.Internal.Correction>
0.3553

> <Gold.Rescore>
     Score         DG    S(hbond)    S(metal)    S(lipo)     H(rot)  DE(clash)    DE(int)     intcor
     10.44     -12.46       2.49        0.00      42.27       2.46       0.00       2.01       ----

> <Gold.Chemscore.Fitness>
10.4415

> <Gold.Chemscore.DG>
-12.4554

> <Gold.Chemscore.ZeroCoef>
-5.4800

> <Gold.Chemscore.Hbond>
2.4946

> <Gold.Chemscore.Metal>
0.0000

> <Gold.Chemscore.Lipo>
42.2656

> <Gold.Chemscore.Internal_Hbond>
0.0000

> <Gold.Chemscore.DEClash>
0.0000

> <Gold.Chemscore.DEInternal>
2.0139

> <Gold.Chemscore.Rot>
2.4616

> <Gold.Chemscore.Internal.Correction>
   9.000000E+99

> <Gold.Chemscore.Hbonds>
donor molecule, donor type, donor heavy atom, donor atom, acceptor molecule, acceptor atom, score
      L1  H     7    28       P1  7948  0.30
      P1  H  7997  8010       L1    13  0.50
      P1  H 10752 10765       L1    15  0.19

> <Gold.Chemscore.Hbond.Weighted>
-8.3319

> <Gold.Chemscore.Metal.Weighted>
-0.0000

> <Gold.Chemscore.Lipo.Weighted>
-4.9451

> <Gold.Chemscore.Internal_Hbond.Weighted>
0.0000

> <Gold.Chemscore.DEClash.Weighted>
0.0000

> <Gold.Chemscore.DEInternal.Weighted>
2.0139

> <Gold.Chemscore.Rot.Weighted>
6.3016

> <Gold.Chemscore.Internal.Correction.Weighted>
   9.000000E+99

> <Gold.Protein.RotatedTorsions>
[ 6907 6896 6895 6894 ] final  -71.67 input  -60.11 | X-H torsion
[ 7974 7965 7964 7962 ] final  -37.55 input  175.53 | X-H torsion
[ 8008 7997 7996 7995 ] final   89.78 input   59.86 | X-H torsion
[ 10167 10162 10161 10158 ] final  -54.77 input  -65.29 | X-H torsion
[ 10718 10713 10712 10709 ] final   67.01 input   66.30 | X-H torsion
[ 10763 10752 10751 10750 ] final -155.91 input  -60.55 | X-H torsion
[ 11005 11000 10999 10996 ] final  -25.31 input  -57.11 | X-H torsion

> <Gold.Protein.ActiveResidues>
 VAL166  LYS551  ARG553  GLY616  TRP617  ASP618  TYR619  PRO620  LYS621  CYS622 
 ASP623  PHE694  ASN695  SER759  ASP760  ASP761  ALA762  ILE779  LEU786  VAL792 
 PHE793  MET794  SER795  GLU796  ALA797  LYS798  CYS799  TRP800  GLU811  SER814 

> <Gold.Protein.RotatedAtoms>
  150.7202  134.5274  159.5683 H   0  0  0  0  0  0  0  0  0  0  0  0  # atno 6907 bound_to 6896
  152.2815  134.7820  160.0404 H   0  0  0  0  0  0  0  0  0  0  0  0  # atno 6908 bound_to 6896
  151.8465  133.3397  159.3696 H   0  0  0  0  0  0  0  0  0  0  0  0  # atno 6909 bound_to 6896
  146.0565  140.6409  142.9017 H   0  0  0  0  0  0  0  0  0  0  0  0  # atno 7974 bound_to 7965
  156.0041  140.3357  155.6874 H   0  0  0  0  0  0  0  0  0  0  0  0  # atno 8008 bound_to 7997
  155.6250  140.0679  157.2684 H   0  0  0  0  0  0  0  0  0  0  0  0  # atno 8009 bound_to 7997
  154.4259  140.1770  156.1399 H   0  0  0  0  0  0  0  0  0  0  0  0  # atno 8010 bound_to 7997
  140.6412  143.2509  151.4984 H   0  0  0  0  0  0  0  0  0  0  0  0  # atno 10167 bound_to 10162
  157.6204  130.9298  150.0185 H   0  0  0  0  0  0  0  0  0  0  0  0  # atno 10718 bound_to 10713
  154.7752  135.3157  154.8107 H   0  0  0  0  0  0  0  0  0  0  0  0  # atno 10763 bound_to 10752
  153.8832  135.6833  153.4770 H   0  0  0  0  0  0  0  0  0  0  0  0  # atno 10764 bound_to 10752
  153.1374  135.4754  154.9379 H   0  0  0  0  0  0  0  0  0  0  0  0  # atno 10765 bound_to 10752
  140.8926  133.7578  156.0441 H   0  0  0  0  0  0  0  0  0  0  0  0  # atno 11005 bound_to 11000
  144.7151  140.4179  143.7051 LP  0  0  0  0  0  0  0  0  0  0  0  0  # atno 17320 bound_to 7965
  145.6635  139.1586  143.2795 LP  0  0  0  0  0  0  0  0  0  0  0  0  # atno 17321 bound_to 7965
  139.5621  144.2130  152.1708 LP  0  0  0  0  0  0  0  0  0  0  0  0  # atno 17342 bound_to 10162
  140.1401  144.5210  150.6749 LP  0  0  0  0  0  0  0  0  0  0  0  0  # atno 17343 bound_to 10162
  156.1347  130.3643  149.9676 LP  0  0  0  0  0  0  0  0  0  0  0  0  # atno 17370 bound_to 10713
  156.7729  130.9193  151.3644 LP  0  0  0  0  0  0  0  0  0  0  0  0  # atno 17371 bound_to 10713
  140.8328  134.3158  157.5342 LP  0  0  0  0  0  0  0  0  0  0  0  0  # atno 17394 bound_to 11000
  139.8731  134.9373  156.3683 LP  0  0  0  0  0  0  0  0  0  0  0  0  # atno 17395 bound_to 11000

$$$$
