AV-unprocessed.smi:662|AV-procd|sdf|3246|dock5
  -GOLD-   22720 0193D 1   1.00000     0.00000
 Structure written by MMmdl.
 33 34  0  0  0  0  0  0  0  0  1 V2000
  150.6300  140.3205  155.1819 O   0  0  0  0  0  0  0  0  0  0  0  0
  149.8879  141.3015  155.2439 C   0  0  0  0  0  0  0  0  0  0  0  0
  150.0363  142.2845  156.1461 N   0  0  0  0  0  0  0  0  0  0  0  0
  151.0846  142.3558  157.1608 C   0  0  0  0  0  0  0  0  0  0  0  0
  151.3239  141.0033  157.8597 C   0  0  0  0  0  0  0  0  0  0  0  0
  152.3691  141.0436  158.9279 C   0  0  0  0  0  0  0  0  0  0  0  0
  153.3668  140.1601  159.0104 N   0  0  0  0  0  0  0  0  0  0  0  0
  154.2476  140.4335  160.0626 C   0  0  0  0  0  0  0  0  0  0  0  0
  155.4323  139.5406  160.2945 C   0  0  0  0  0  0  0  0  0  0  0  0
  155.4333  139.0375  161.5292 F   0  0  0  0  0  0  0  0  0  0  0  0
  155.4357  138.5150  159.4436 F   0  0  0  0  0  0  0  0  0  0  0  0
  156.5749  140.2071  160.1323 F   0  0  0  0  0  0  0  0  0  0  0  0
  153.8935  141.5482  160.7833 C   0  0  0  0  0  0  0  0  0  0  0  0
  152.4473  142.2951  160.1634 S   0  0  0  0  0  0  0  0  0  0  0  0
  148.7269  141.4559  154.2553 C   0  0  1  0  0  0  0  0  0  0  0  0
  147.8248  140.2114  154.1959 C   0  0  0  0  0  0  0  0  0  0  0  0
  146.4160  140.7652  154.3698 C   0  0  0  0  0  0  0  0  0  0  0  0
  146.5629  142.2511  154.0506 C   0  0  0  0  0  0  0  0  0  0  0  0
  147.8620  142.5890  154.6071 N   0  0  0  0  0  0  0  0  0  0  0  0
  149.3773  143.0491  156.1207 H   0  0  0  0  0  0  0  0  0  0  0  0
  152.0036  142.6762  156.6699 H   0  0  0  0  0  0  0  0  0  0  0  0
  150.8545  143.1241  157.9010 H   0  0  0  0  0  0  0  0  0  0  0  0
  150.3928  140.6486  158.3030 H   0  0  0  0  0  0  0  0  0  0  0  0
  151.6135  140.2557  157.1205 H   0  0  0  0  0  0  0  0  0  0  0  0
  154.3974  141.9757  161.6371 H   0  0  0  0  0  0  0  0  0  0  0  0
  149.1239  141.6403  153.2552 H   0  0  0  0  0  0  0  0  0  0  0  0
  147.9287  139.7212  153.2273 H   0  0  0  0  0  0  0  0  0  0  0  0
  148.0488  139.4683  154.9633 H   0  0  0  0  0  0  0  0  0  0  0  0
  145.6864  140.2690  153.7293 H   0  0  0  0  0  0  0  0  0  0  0  0
  146.0932  140.6391  155.4042 H   0  0  0  0  0  0  0  0  0  0  0  0
  146.5739  142.4161  152.9720 H   0  0  0  0  0  0  0  0  0  0  0  0
  145.7681  142.8582  154.4846 H   0  0  0  0  0  0  0  0  0  0  0  0
  148.2037  143.4708  154.2527 H   0  0  0  0  0  0  0  0  0  0  0  0
  1  2  2  0  0  0  0
  2  3  1  0  0  0  0
  2 15  1  0  0  0  0
  3  4  1  0  0  0  0
  3 20  1  0  0  0  0
  4  5  1  0  0  0  0
  4 21  1  0  0  0  0
  4 22  1  0  0  0  0
  5  6  1  0  0  0  0
  5 23  1  0  0  0  0
  5 24  1  0  0  0  0
  6 14  1  0  0  0  0
  6  7  2  0  0  0  0
  7  8  1  0  0  0  0
  8  9  1  0  0  0  0
  8 13  2  0  0  0  0
  9 10  1  0  0  0  0
  9 11  1  0  0  0  0
  9 12  1  0  0  0  0
 13 14  1  0  0  0  0
 13 25  1  0  0  0  0
 15 19  1  0  0  0  0
 15 16  1  0  0  0  0
 15 26  1  0  0  0  0
 16 17  1  0  0  0  0
 16 27  1  0  0  0  0
 16 28  1  0  0  0  0
 17 18  1  0  0  0  0
 17 29  1  0  0  0  0
 17 30  1  0  0  0  0
 18 19  1  0  0  0  0
 18 31  1  0  0  0  0
 18 32  1  0  0  0  0
 19 33  1  0  0  0  0
M  END
> <s_m_source_file>
AV-unprocessed.smi

> <i_m_source_file_index>
662

> <i_lp_mmshare_version>
43012

> <i_f3d_flags>
0

> <s_epik_input>
W05IXTFbQ0gyXVtDSDJdW0NIMl1bQ0BIXTFDKD1PKVtOSF1bQ0gyXVtDSDJdYzJuYyhDKEYpKEYpRilbY0hdczI=

> <s_epik_cmdline>
J2VwaWtfcHl0aG9uJywgJy1waCcsICc3LjAnLCAnLXRuJywgJzgnLCAnLW1hJywgJzIwMCcsICctbWV0YWxfYmluZGluZycsICctaW1hZScsICc8aW5maWxlLm1hZT4nLCAnLW9tYWUnLCAnPG91dGZpbGUubWFlPic=

> <r_epik_Ionization_Penalty>
1.64272

> <r_epik_Ionization_Penalty_Charging>
0

> <r_epik_Ionization_Penalty_Neutral>
1.64272

> <r_epik_State_Penalty>
1.74416

> <r_epik_Charging_Adjusted_Penalty>
1.74416

> <i_epik_Tot_Q>
0

> <i_epik_Tot_abs_Q>
0

> <r_epik_Metal_State_Penalty>
1.74416

> <b_epik_Metal_Only>
0

> <s_lp_Force_Field>
OPLS_2005

> <r_lp_Energy>
17.8155

> <b_lp_Chiralities_Consistent>
1

> <s_lp_Variant>
AV-unprocessed.smi:662-4

> <Gold.Version>
5.8.1

> <Gold.Id.Protein>
6NUR|6NUR_protein|mol2

> <Gold.PLP.Fitness>
46.3969

> <Gold.PLP.PLP>
-37.0817

> <Gold.PLP.part.hbond>
-4.0000

> <Gold.PLP.part.metal>
0.0000

> <Gold.PLP.part.buried>
-4.0799

> <Gold.PLP.part.nonpolar>
-29.4982

> <Gold.PLP.part.repulsive>
0.1703

> <Gold.PLP.ligand.clash>
0.0000

> <Gold.PLP.ligand.torsion>
0.3923

> <Gold.PLP.Chemscore.Hbond>
3.3593

> <Gold.PLP.Chemscore.CHOScore>
0.0000

> <Gold.PLP.Chemscore.Metal>
0.0000

> <Gold.Chemscore.Hbonds>
donor molecule, donor type, donor heavy atom, donor atom, acceptor molecule, acceptor atom, score
      L1  H     3    20       P1  8028  1.00
      L1  H    19    33       P1  8028  0.32
      P1  H  7989  7998       L1     1  0.84
      P1  H  7997  8009       L1     7  0.32

> <Gold.PLP.Chemscore.Internal.Correction>
0.0217

> <Gold.Rescore>
     Score         DG    S(hbond)    S(metal)    S(lipo)     H(rot)  DE(clash)    DE(int)     intcor
     16.78     -18.67       2.69        0.00      77.86       1.91       0.32       1.58       ----

> <Gold.Chemscore.Fitness>
16.7799

> <Gold.Chemscore.DG>
-18.6724

> <Gold.Chemscore.ZeroCoef>
-5.4800

> <Gold.Chemscore.Hbond>
2.6860

> <Gold.Chemscore.Metal>
0.0000

> <Gold.Chemscore.Lipo>
77.8605

> <Gold.Chemscore.Internal_Hbond>
0.0000

> <Gold.Chemscore.DEClash>
0.3172

> <Gold.Chemscore.DEInternal>
1.5753

> <Gold.Chemscore.Rot>
1.9095

> <Gold.Chemscore.Internal.Correction>
   9.000000E+99

> <Gold.Chemscore.Hbonds>
donor molecule, donor type, donor heavy atom, donor atom, acceptor molecule, acceptor atom, score
      L1  H     3    20       P1  8028  0.97
      L1  H    19    33       P1  8028  0.30
      P1  H  7989  7998       L1     1  0.13
      P1  H  7997  8009       L1     7  0.11

> <Gold.Chemscore.Hbond.Weighted>
-8.9711

> <Gold.Chemscore.Metal.Weighted>
-0.0000

> <Gold.Chemscore.Lipo.Weighted>
-9.1097

> <Gold.Chemscore.Internal_Hbond.Weighted>
0.0000

> <Gold.Chemscore.DEClash.Weighted>
0.3172

> <Gold.Chemscore.DEInternal.Weighted>
1.5753

> <Gold.Chemscore.Rot.Weighted>
4.8883

> <Gold.Chemscore.Internal.Correction.Weighted>
   9.000000E+99

> <Gold.Protein.RotatedTorsions>
[ 6907 6896 6895 6894 ] final  167.17 input  -60.11 | X-H torsion
[ 7974 7965 7964 7962 ] final  -27.50 input  175.53 | X-H torsion
[ 8008 7997 7996 7995 ] final  142.64 input   59.86 | X-H torsion
[ 10167 10162 10161 10158 ] final -147.81 input  -65.29 | X-H torsion
[ 10718 10713 10712 10709 ] final   39.71 input   66.30 | X-H torsion
[ 10763 10752 10751 10750 ] final   73.35 input  -60.55 | X-H torsion
[ 11005 11000 10999 10996 ] final   24.66 input  -57.11 | X-H torsion

> <Gold.Protein.ActiveResidues>
 VAL166  LYS551  ARG553  GLY616  TRP617  ASP618  TYR619  PRO620  LYS621  CYS622 
 ASP623  PHE694  ASN695  SER759  ASP760  ASP761  ALA762  ILE779  LEU786  VAL792 
 PHE793  MET794  SER795  GLU796  ALA797  LYS798  CYS799  TRP800  GLU811  SER814 

> <Gold.Protein.RotatedAtoms>
  151.8675  133.3469  159.3723 H   0  0  0  0  0  0  0  0  0  0  0  0  # atno 6907 bound_to 6896
  150.7162  134.5146  159.5633 H   0  0  0  0  0  0  0  0  0  0  0  0  # atno 6908 bound_to 6896
  152.2672  134.7972  160.0471 H   0  0  0  0  0  0  0  0  0  0  0  0  # atno 6909 bound_to 6896
  146.1353  140.5160  142.8675 H   0  0  0  0  0  0  0  0  0  0  0  0  # atno 7974 bound_to 7965
  156.2945  140.2283  156.4761 H   0  0  0  0  0  0  0  0  0  0  0  0  # atno 8008 bound_to 7997
  154.7893  140.0455  157.1209 H   0  0  0  0  0  0  0  0  0  0  0  0  # atno 8009 bound_to 7997
  154.9665  140.3061  155.5010 H   0  0  0  0  0  0  0  0  0  0  0  0  # atno 8010 bound_to 7997
  139.7588  143.8408  152.2603 H   0  0  0  0  0  0  0  0  0  0  0  0  # atno 10167 bound_to 10162
  157.3737  130.7715  149.7139 H   0  0  0  0  0  0  0  0  0  0  0  0  # atno 10718 bound_to 10713
  153.0516  135.5066  154.7880 H   0  0  0  0  0  0  0  0  0  0  0  0  # atno 10763 bound_to 10752
  154.6738  135.2957  154.9708 H   0  0  0  0  0  0  0  0  0  0  0  0  # atno 10764 bound_to 10752
  154.0517  135.6703  153.4854 H   0  0  0  0  0  0  0  0  0  0  0  0  # atno 10765 bound_to 10752
  140.3563  134.2174  155.7675 H   0  0  0  0  0  0  0  0  0  0  0  0  # atno 11005 bound_to 11000
  144.7734  140.5686  143.6655 LP  0  0  0  0  0  0  0  0  0  0  0  0  # atno 17320 bound_to 7965
  145.5169  139.1477  143.3574 LP  0  0  0  0  0  0  0  0  0  0  0  0  # atno 17321 bound_to 7965
  139.8408  144.7211  150.9333 LP  0  0  0  0  0  0  0  0  0  0  0  0  # atno 17342 bound_to 10162
  140.7805  143.3985  151.1189 LP  0  0  0  0  0  0  0  0  0  0  0  0  # atno 17343 bound_to 10162
  155.9761  130.4080  150.3804 LP  0  0  0  0  0  0  0  0  0  0  0  0  # atno 17370 bound_to 10713
  157.1898  131.0412  151.2706 LP  0  0  0  0  0  0  0  0  0  0  0  0  # atno 17371 bound_to 10713
  141.1997  133.8004  157.0522 LP  0  0  0  0  0  0  0  0  0  0  0  0  # atno 17394 bound_to 11000
  140.0662  134.9727  157.1390 LP  0  0  0  0  0  0  0  0  0  0  0  0  # atno 17395 bound_to 11000

$$$$
