AV-unprocessed.smi:724|AV-procd|sdf|3507|dock6
  -GOLD-   22720 0503D 1   1.00000     0.00000
 Structure written by MMmdl.
 36 37  0  0  0  0  0  0  0  0  1 V2000
  150.7025  145.0781  159.5695 C   0  0  0  0  0  0  0  0  0  0  0  0
  151.7410  144.0836  159.0102 C   0  0  0  0  0  0  0  0  0  0  0  0
  152.4605  144.7288  157.8077 C   0  0  0  0  0  0  0  0  0  0  0  0
  152.7832  143.7733  160.1107 C   0  0  0  0  0  0  0  0  0  0  0  0
  150.9941  142.8184  158.5247 C   0  0  0  0  0  0  0  0  0  0  0  0
  151.2450  141.7298  159.0448 O   0  0  0  0  0  0  0  0  0  0  0  0
  150.1041  142.9463  157.5238 N   0  0  0  0  0  0  0  0  0  0  0  0
  149.3755  141.8508  156.8859 C   0  0  0  0  0  0  0  0  0  0  0  0
  150.0123  141.4131  155.5516 C   0  0  0  0  0  0  0  0  0  0  0  0
  151.1761  140.4892  155.7120 C   0  0  0  0  0  0  0  0  0  0  0  0
  151.6597  139.9988  156.8502 N   0  0  0  0  0  0  0  0  0  0  0  0
  152.7744  139.3585  156.4031 C   0  0  0  0  0  0  0  0  0  0  0  0
  153.7069  138.6266  157.3131 C   0  0  0  0  0  0  0  0  0  0  0  0
  153.2499  137.3780  158.0377 C   0  0  0  0  0  0  0  0  0  0  0  0
  153.4920  138.6441  158.8122 C   0  0  0  0  0  0  0  0  0  0  0  0
  152.9739  139.3841  155.0912 N   0  0  0  0  0  0  0  0  0  0  0  0
  151.9103  140.1659  154.6195 O   0  0  0  0  0  0  0  0  0  0  0  0
  151.1796  145.9983  159.9079 H   0  0  0  0  0  0  0  0  0  0  0  0
  150.1670  144.6575  160.4218 H   0  0  0  0  0  0  0  0  0  0  0  0
  149.9597  145.3567  158.8204 H   0  0  0  0  0  0  0  0  0  0  0  0
  151.7609  145.0173  157.0216 H   0  0  0  0  0  0  0  0  0  0  0  0
  153.1895  144.0475  157.3661 H   0  0  0  0  0  0  0  0  0  0  0  0
  152.9970  145.6301  158.1064 H   0  0  0  0  0  0  0  0  0  0  0  0
  153.2940  144.6815  160.4321 H   0  0  0  0  0  0  0  0  0  0  0  0
  153.5507  143.0830  159.7580 H   0  0  0  0  0  0  0  0  0  0  0  0
  152.3201  143.3375  160.9975 H   0  0  0  0  0  0  0  0  0  0  0  0
  149.9509  143.8718  157.1498 H   0  0  0  0  0  0  0  0  0  0  0  0
  149.3098  140.9952  157.5603 H   0  0  0  0  0  0  0  0  0  0  0  0
  148.3495  142.1755  156.7122 H   0  0  0  0  0  0  0  0  0  0  0  0
  149.2635  140.9259  154.9264 H   0  0  0  0  0  0  0  0  0  0  0  0
  150.3473  142.2925  155.0003 H   0  0  0  0  0  0  0  0  0  0  0  0
  154.7286  138.6580  156.9397 H   0  0  0  0  0  0  0  0  0  0  0  0
  152.2165  137.0634  157.9037 H   0  0  0  0  0  0  0  0  0  0  0  0
  153.9718  136.5719  158.1511 H   0  0  0  0  0  0  0  0  0  0  0  0
  154.3760  138.6854  159.4452 H   0  0  0  0  0  0  0  0  0  0  0  0
  152.6194  139.1710  159.1940 H   0  0  0  0  0  0  0  0  0  0  0  0
  1  2  1  0  0  0  0
  1 18  1  0  0  0  0
  1 19  1  0  0  0  0
  1 20  1  0  0  0  0
  2  3  1  0  0  0  0
  2  4  1  0  0  0  0
  2  5  1  0  0  0  0
  3 21  1  0  0  0  0
  3 22  1  0  0  0  0
  3 23  1  0  0  0  0
  4 24  1  0  0  0  0
  4 25  1  0  0  0  0
  4 26  1  0  0  0  0
  5  6  2  0  0  0  0
  5  7  1  0  0  0  0
  7  8  1  0  0  0  0
  7 27  1  0  0  0  0
  8  9  1  0  0  0  0
  8 28  1  0  0  0  0
  8 29  1  0  0  0  0
  9 10  1  0  0  0  0
  9 30  1  0  0  0  0
  9 31  1  0  0  0  0
 10 17  1  0  0  0  0
 10 11  2  0  0  0  0
 11 12  1  0  0  0  0
 12 13  1  0  0  0  0
 12 16  2  0  0  0  0
 13 15  1  0  0  0  0
 13 14  1  0  0  0  0
 13 32  1  0  0  0  0
 14 15  1  0  0  0  0
 14 33  1  0  0  0  0
 14 34  1  0  0  0  0
 15 35  1  0  0  0  0
 15 36  1  0  0  0  0
 16 17  1  0  0  0  0
M  END
> <s_m_source_file>
AV-unprocessed.smi

> <i_m_source_file_index>
724

> <i_lp_mmshare_version>
43012

> <i_f3d_flags>
0

> <s_epik_input>
W0NIM11DKFtDSDNdKShbQ0gzXSlDKD1PKVtOSF1bQ0gyXVtDSDJdYzFuYyhubzEpW0NIXTJbQ0gyXVtDSDJdMg==

> <s_epik_cmdline>
J2VwaWtfcHl0aG9uJywgJy1waCcsICc3LjAnLCAnLXRuJywgJzgnLCAnLW1hJywgJzIwMCcsICctbWV0YWxfYmluZGluZycsICctaW1hZScsICc8aW5maWxlLm1hZT4nLCAnLW9tYWUnLCAnPG91dGZpbGUubWFlPic=

> <r_lp_tautomer_probability>
1

> <r_epik_Ionization_Penalty>
2.89377e-08

> <r_epik_Ionization_Penalty_Charging>
0

> <r_epik_Ionization_Penalty_Neutral>
2.89377e-08

> <r_epik_State_Penalty>
-0

> <r_epik_Charging_Adjusted_Penalty>
0

> <i_epik_Tot_Q>
0

> <i_epik_Tot_abs_Q>
0

> <r_epik_Metal_State_Penalty>
-0

> <b_epik_Metal_Only>
0

> <s_lp_Force_Field>
OPLS_2005

> <r_lp_Energy>
6.75537

> <b_lp_Chiralities_Consistent>
1

> <s_lp_Variant>
AV-unprocessed.smi:724-1

> <Gold.Version>
5.8.1

> <Gold.Id.Protein>
6NUR|6NUR_protein|mol2

> <Gold.PLP.Fitness>
37.9908

> <Gold.PLP.PLP>
-33.8465

> <Gold.PLP.part.hbond>
-3.7697

> <Gold.PLP.part.metal>
0.0000

> <Gold.PLP.part.buried>
-3.5332

> <Gold.PLP.part.nonpolar>
-26.4176

> <Gold.PLP.part.repulsive>
0.0644

> <Gold.PLP.ligand.clash>
0.0000

> <Gold.PLP.ligand.torsion>
0.3699

> <Gold.PLP.Chemscore.Hbond>
1.5680

> <Gold.PLP.Chemscore.CHOScore>
0.0000

> <Gold.PLP.Chemscore.Metal>
0.0000

> <Gold.Chemscore.Hbonds>
donor molecule, donor type, donor heavy atom, donor atom, acceptor molecule, acceptor atom, score
      L1  H     7    27       P1  8028  0.78
      P1  H  7989  7998       L1    17  0.45

> <Gold.PLP.Chemscore.Internal.Correction>
0.1801

> <Gold.Rescore>
     Score         DG    S(hbond)    S(metal)    S(lipo)     H(rot)  DE(clash)    DE(int)     intcor
     13.30     -15.18       1.89        0.00      70.72       1.91       0.04       1.85       ----

> <Gold.Chemscore.Fitness>
13.2953

> <Gold.Chemscore.DG>
-15.1832

> <Gold.Chemscore.ZeroCoef>
-5.4800

> <Gold.Chemscore.Hbond>
1.8939

> <Gold.Chemscore.Metal>
0.0000

> <Gold.Chemscore.Lipo>
70.7234

> <Gold.Chemscore.Internal_Hbond>
0.0000

> <Gold.Chemscore.DEClash>
0.0389

> <Gold.Chemscore.DEInternal>
1.8491

> <Gold.Chemscore.Rot>
1.9129

> <Gold.Chemscore.Internal.Correction>
   9.000000E+99

> <Gold.Chemscore.Hbonds>
donor molecule, donor type, donor heavy atom, donor atom, acceptor molecule, acceptor atom, score
      L1  H     7    27       P1  8028  0.68
      P1  H  7989  7998       L1    17  0.42

> <Gold.Chemscore.Hbond.Weighted>
-6.3256

> <Gold.Chemscore.Metal.Weighted>
-0.0000

> <Gold.Chemscore.Lipo.Weighted>
-8.2746

> <Gold.Chemscore.Internal_Hbond.Weighted>
0.0000

> <Gold.Chemscore.DEClash.Weighted>
0.0389

> <Gold.Chemscore.DEInternal.Weighted>
1.8491

> <Gold.Chemscore.Rot.Weighted>
4.8970

> <Gold.Chemscore.Internal.Correction.Weighted>
   9.000000E+99

> <Gold.Protein.RotatedTorsions>
[ 6907 6896 6895 6894 ] final  156.69 input  -60.11 | X-H torsion
[ 7974 7965 7964 7962 ] final  -15.91 input  175.53 | X-H torsion
[ 8008 7997 7996 7995 ] final   50.67 input   59.86 | X-H torsion
[ 10167 10162 10161 10158 ] final -175.91 input  -65.29 | X-H torsion
[ 10718 10713 10712 10709 ] final -137.78 input   66.30 | X-H torsion
[ 10763 10752 10751 10750 ] final  154.59 input  -60.55 | X-H torsion
[ 11005 11000 10999 10996 ] final  163.76 input  -57.11 | X-H torsion

> <Gold.Protein.ActiveResidues>
 VAL166  LYS551  ARG553  GLY616  TRP617  ASP618  TYR619  PRO620  LYS621  CYS622 
 ASP623  PHE694  ASN695  SER759  ASP760  ASP761  ALA762  ILE779  LEU786  VAL792 
 PHE793  MET794  SER795  GLU796  ALA797  LYS798  CYS799  TRP800  GLU811  SER814 

> <Gold.Protein.RotatedAtoms>
  152.0260  133.3918  159.4277 H   0  0  0  0  0  0  0  0  0  0  0  0  # atno 6907 bound_to 6896
  150.6886  134.3573  159.4944 H   0  0  0  0  0  0  0  0  0  0  0  0  # atno 6908 bound_to 6896
  152.1353  134.9103  160.0607 H   0  0  0  0  0  0  0  0  0  0  0  0  # atno 6909 bound_to 6896
  146.2011  140.3560  142.8423 H   0  0  0  0  0  0  0  0  0  0  0  0  # atno 7974 bound_to 7965
  155.4226  140.3447  155.4273 H   0  0  0  0  0  0  0  0  0  0  0  0  # atno 8008 bound_to 7997
  156.1384  140.1534  156.8990 H   0  0  0  0  0  0  0  0  0  0  0  0  # atno 8009 bound_to 7997
  154.4950  140.0830  156.7658 H   0  0  0  0  0  0  0  0  0  0  0  0  # atno 8010 bound_to 7997
  139.5556  144.1997  152.1154 H   0  0  0  0  0  0  0  0  0  0  0  0  # atno 10167 bound_to 10162
  156.2919  130.7380  151.1408 H   0  0  0  0  0  0  0  0  0  0  0  0  # atno 10718 bound_to 10713
  154.1548  135.2813  155.3125 H   0  0  0  0  0  0  0  0  0  0  0  0  # atno 10763 bound_to 10752
  154.6191  135.5473  153.7558 H   0  0  0  0  0  0  0  0  0  0  0  0  # atno 10764 bound_to 10752
  153.0210  135.6434  154.1691 H   0  0  0  0  0  0  0  0  0  0  0  0  # atno 10765 bound_to 10752
  140.2390  134.8065  157.3392 H   0  0  0  0  0  0  0  0  0  0  0  0  # atno 11005 bound_to 11000
  144.8686  140.7241  143.6061 LP  0  0  0  0  0  0  0  0  0  0  0  0  # atno 17320 bound_to 7965
  145.3480  139.1714  143.4450 LP  0  0  0  0  0  0  0  0  0  0  0  0  # atno 17321 bound_to 7965
  140.1500  144.5123  150.6693 LP  0  0  0  0  0  0  0  0  0  0  0  0  # atno 17342 bound_to 10162
  140.6828  143.2335  151.5338 LP  0  0  0  0  0  0  0  0  0  0  0  0  # atno 17343 bound_to 10162
  157.7345  131.0581  150.5522 LP  0  0  0  0  0  0  0  0  0  0  0  0  # atno 17370 bound_to 10713
  156.5640  130.4263  149.6050 LP  0  0  0  0  0  0  0  0  0  0  0  0  # atno 17371 bound_to 10713
  140.1672  134.4654  155.7855 LP  0  0  0  0  0  0  0  0  0  0  0  0  # atno 17394 bound_to 11000
  141.2212  133.6926  156.7646 LP  0  0  0  0  0  0  0  0  0  0  0  0  # atno 17395 bound_to 11000

$$$$
