AV-unprocessed.smi:72|AV-procd|sdf|680|dock2
  -GOLD-   2262016593D 1   1.00000     0.00000
 Structure written by MMmdl.
 29 30  0  0  0  0  0  0  0  0  1 V2000
  150.6395  133.4190  155.3408 N   0  0  0  0  0  0  0  0  0  0  0  0
  150.3014  134.6575  155.3833 C   0  0  0  0  0  0  0  0  0  0  0  0
  151.1116  135.7340  154.9923 N   0  0  0  0  0  0  0  0  0  0  0  0
  150.6370  136.9376  155.0918 C   0  0  0  0  0  0  0  0  0  0  0  0
  149.2973  137.2040  155.5972 N   0  0  0  0  0  0  0  0  0  0  0  0
  148.7399  138.6108  155.7104 C   0  0  1  0  0  0  0  0  0  0  0  0
  149.6973  139.4529  156.2912 O   0  0  0  0  0  0  0  0  0  0  0  0
  150.1296  140.4168  155.3381 C   0  0  2  0  0  0  0  0  0  0  0  0
  150.7248  141.6510  156.0400 C   0  0  0  0  0  0  0  0  0  0  0  0
  149.7578  142.3549  156.7918 O   0  0  0  0  0  0  0  0  0  0  0  0
  148.8994  140.6363  154.4571 C   0  0  1  0  0  0  0  0  0  0  0  0
  149.2054  141.2303  153.2091 O   0  0  0  0  0  0  0  0  0  0  0  0
  148.3382  139.2218  154.3433 C   0  0  1  0  0  0  0  0  0  0  0  0
  148.8705  138.5186  153.2299 O   0  0  0  0  0  0  0  0  0  0  0  0
  148.4643  136.1263  155.9847 C   0  0  0  0  0  0  0  0  0  0  0  0
  147.3167  136.2959  156.3957 O   0  0  0  0  0  0  0  0  0  0  0  0
  149.0085  134.8961  155.8662 N   0  0  0  0  0  0  0  0  0  0  0  0
  147.9047  138.5435  156.4096 H   0  0  0  0  0  0  0  0  0  0  0  0
  150.9143  139.9468  154.7427 H   0  0  0  0  0  0  0  0  0  0  0  0
  148.1674  141.2580  154.9734 H   0  0  0  0  0  0  0  0  0  0  0  0
  147.2517  139.2310  154.2523 H   0  0  0  0  0  0  0  0  0  0  0  0
  149.8812  132.8414  155.6751 H   0  0  0  0  0  0  0  0  0  0  0  0
  151.2118  137.8168  154.8012 H   0  0  0  0  0  0  0  0  0  0  0  0
  151.5528  141.3612  156.6874 H   0  0  0  0  0  0  0  0  0  0  0  0
  151.1285  142.3366  155.2948 H   0  0  0  0  0  0  0  0  0  0  0  0
  149.5308  143.1451  156.3256 H   0  0  0  0  0  0  0  0  0  0  0  0
  149.1997  140.5560  152.5473 H   0  0  0  0  0  0  0  0  0  0  0  0
  148.8540  139.0920  152.4790 H   0  0  0  0  0  0  0  0  0  0  0  0
  148.4431  134.1048  156.1374 H   0  0  0  0  0  0  0  0  0  0  0  0
  1  2  2  0  0  0  0
  1 22  1  0  0  0  0
  2 17  1  0  0  0  0
  2  3  1  0  0  0  0
  3  4  2  0  0  0  0
  4  5  1  0  0  0  0
  4 23  1  0  0  0  0
  5  6  1  0  0  0  0
  5 15  1  0  0  0  0
  6 18  1  0  0  0  0
  6 13  1  0  0  0  0
  6  7  1  0  0  0  0
  7  8  1  0  0  0  0
  8 19  1  0  0  0  0
  8  9  1  0  0  0  0
  8 11  1  0  0  0  0
  9 10  1  0  0  0  0
  9 24  1  0  0  0  0
  9 25  1  0  0  0  0
 10 26  1  0  0  0  0
 11 20  1  0  0  0  0
 11 12  1  0  0  0  0
 11 13  1  0  0  0  0
 12 27  1  0  0  0  0
 13 21  1  0  0  0  0
 13 14  1  0  0  0  0
 14 28  1  0  0  0  0
 15 16  2  0  0  0  0
 15 17  1  0  0  0  0
 17 29  1  0  0  0  0
M  END
> <s_m_source_file>
AV-unprocessed.smi

> <i_m_source_file_index>
72

> <i_lp_mmshare_version>
43012

> <i_f3d_flags>
0

> <s_epik_input>
W05IMl1jMW5bY0hdbihjKD1PKW4xKVtDQEBIXTJPW0NASF0oW0NIMl1bT0hdKVtDQEBIXShbT0hdKVtDQEhdMltPSF0=

> <s_epik_cmdline>
J2VwaWtfcHl0aG9uJywgJy1waCcsICc3LjAnLCAnLXRuJywgJzgnLCAnLW1hJywgJzIwMCcsICctbWV0YWxfYmluZGluZycsICctaW1hZScsICc8aW5maWxlLm1hZT4nLCAnLW9tYWUnLCAnPG91dGZpbGUubWFlPic=

> <r_lp_tautomer_probability>
7.17554e-07

> <r_epik_Ionization_Penalty>
0.0066451

> <r_epik_Ionization_Penalty_Charging>
0.00663793

> <r_epik_Ionization_Penalty_Neutral>
7.17052e-06

> <r_epik_State_Penalty>
0.419231

> <r_epik_Charging_Adjusted_Penalty>
0.425868

> <i_epik_Tot_Q>
0

> <i_epik_Tot_abs_Q>
0

> <r_epik_Metal_State_Penalty>
1.44144

> <b_epik_Metal_Only>
0

> <s_epik_Chemistry_Notes>
This compound contains an acetal/aminal-like group ( X-CH(R)-Y where X, Y are N, S, or O) that may be acid/base labile, releasing an aldehyde.

> <s_lp_Force_Field>
OPLS_2005

> <r_lp_Energy>
48.597

> <b_lp_Chiralities_Consistent>
1

> <s_lp_Variant>
AV-unprocessed.smi:72-18

> <Gold.Version>
5.8.1

> <Gold.Id.Protein>
6NUR|6NUR_protein|mol2

> <Gold.PLP.Fitness>
36.6028

> <Gold.PLP.PLP>
-22.5228

> <Gold.PLP.part.hbond>
-6.5212

> <Gold.PLP.part.metal>
0.0000

> <Gold.PLP.part.buried>
-4.2869

> <Gold.PLP.part.nonpolar>
-12.1873

> <Gold.PLP.part.repulsive>
0.1590

> <Gold.PLP.ligand.clash>
0.0000

> <Gold.PLP.ligand.torsion>
0.3857

> <Gold.PLP.Chemscore.Hbond>
4.9344

> <Gold.PLP.Chemscore.CHOScore>
0.0000

> <Gold.PLP.Chemscore.Metal>
0.0000

> <Gold.Chemscore.Hbonds>
donor molecule, donor type, donor heavy atom, donor atom, acceptor molecule, acceptor atom, score
      L1  H    10    26       P1  8028  1.00
      L1  H    12    27       P1  7957  0.99
      L1  H    14    28       P1  7957  1.00
      P1  H  8011  8017       L1    12  0.90
      P1  H 10752 10763       L1     3  1.00

> <Gold.PLP.Chemscore.Internal.Correction>
0.0482

> <Gold.Rescore>
     Score         DG    S(hbond)    S(metal)    S(lipo)     H(rot)  DE(clash)    DE(int)     intcor
     11.21     -11.81       4.07        0.00      26.88       4.06       0.02       0.59       ----

> <Gold.Chemscore.Fitness>
11.2050

> <Gold.Chemscore.DG>
-11.8094

> <Gold.Chemscore.ZeroCoef>
-5.4800

> <Gold.Chemscore.Hbond>
4.0653

> <Gold.Chemscore.Metal>
0.0000

> <Gold.Chemscore.Lipo>
26.8802

> <Gold.Chemscore.Internal_Hbond>
0.0000

> <Gold.Chemscore.DEClash>
0.0153

> <Gold.Chemscore.DEInternal>
0.5891

> <Gold.Chemscore.Rot>
4.0600

> <Gold.Chemscore.Internal.Correction>
   9.000000E+99

> <Gold.Chemscore.Hbonds>
donor molecule, donor type, donor heavy atom, donor atom, acceptor molecule, acceptor atom, score
      L1  H    10    26       P1  8028  1.00
      L1  H    12    27       P1  7957  0.88
      L1  H    14    28       P1  7957  0.97
      P1  H  8011  8017       L1    12  0.17
      P1  H 10752 10763       L1     3  0.94

> <Gold.Chemscore.Hbond.Weighted>
-13.5780

> <Gold.Chemscore.Metal.Weighted>
-0.0000

> <Gold.Chemscore.Lipo.Weighted>
-3.1450

> <Gold.Chemscore.Internal_Hbond.Weighted>
0.0000

> <Gold.Chemscore.DEClash.Weighted>
0.0153

> <Gold.Chemscore.DEInternal.Weighted>
0.5891

> <Gold.Chemscore.Rot.Weighted>
10.3936

> <Gold.Chemscore.Internal.Correction.Weighted>
   9.000000E+99

> <Gold.Protein.RotatedTorsions>
[ 6907 6896 6895 6894 ] final  120.41 input  -60.11 | X-H torsion
[ 7974 7965 7964 7962 ] final -133.97 input  175.53 | X-H torsion
[ 8008 7997 7996 7995 ] final   98.15 input   59.86 | X-H torsion
[ 10167 10162 10161 10158 ] final  -57.30 input  -65.29 | X-H torsion
[ 10718 10713 10712 10709 ] final -102.54 input   66.30 | X-H torsion
[ 10763 10752 10751 10750 ] final   66.07 input  -60.55 | X-H torsion
[ 11005 11000 10999 10996 ] final  -50.80 input  -57.11 | X-H torsion

> <Gold.Protein.ActiveResidues>
 VAL166  LYS551  ARG553  GLY616  TRP617  ASP618  TYR619  PRO620  LYS621  CYS622 
 ASP623  PHE694  ASN695  SER759  ASP760  ASP761  ALA762  ILE779  LEU786  VAL792 
 PHE793  MET794  SER795  GLU796  ALA797  LYS798  CYS799  TRP800  GLU811  SER814 

> <Gold.Protein.RotatedAtoms>
  152.4400  133.7431  159.6651 H   0  0  0  0  0  0  0  0  0  0  0  0  # atno 6907 bound_to 6896
  150.8289  133.8113  159.3113 H   0  0  0  0  0  0  0  0  0  0  0  0  # atno 6908 bound_to 6896
  151.5773  135.1062  160.0061 H   0  0  0  0  0  0  0  0  0  0  0  0  # atno 6909 bound_to 6896
  144.9145  140.6937  143.5004 H   0  0  0  0  0  0  0  0  0  0  0  0  # atno 7974 bound_to 7965
  156.0975  140.3248  155.7897 H   0  0  0  0  0  0  0  0  0  0  0  0  # atno 8008 bound_to 7997
  155.4894  140.0560  157.2973 H   0  0  0  0  0  0  0  0  0  0  0  0  # atno 8009 bound_to 7997
  154.4675  140.1996  156.0095 H   0  0  0  0  0  0  0  0  0  0  0  0  # atno 8010 bound_to 7997
  140.6266  143.2441  151.5347 H   0  0  0  0  0  0  0  0  0  0  0  0  # atno 10167 bound_to 10162
  156.0232  130.5425  150.7124 H   0  0  0  0  0  0  0  0  0  0  0  0  # atno 10718 bound_to 10713
  153.0124  135.5334  154.6766 H   0  0  0  0  0  0  0  0  0  0  0  0  # atno 10763 bound_to 10752
  154.5937  135.2861  155.0611 H   0  0  0  0  0  0  0  0  0  0  0  0  # atno 10764 bound_to 10752
  154.1694  135.6534  153.5058 H   0  0  0  0  0  0  0  0  0  0  0  0  # atno 10765 bound_to 10752
  141.0836  133.6647  156.3783 H   0  0  0  0  0  0  0  0  0  0  0  0  # atno 11005 bound_to 11000
  145.3398  139.1735  143.4492 LP  0  0  0  0  0  0  0  0  0  0  0  0  # atno 17320 bound_to 7965
  146.3175  140.3438  142.8650 LP  0  0  0  0  0  0  0  0  0  0  0  0  # atno 17321 bound_to 7965
  139.5486  144.2455  152.1488 LP  0  0  0  0  0  0  0  0  0  0  0  0  # atno 17342 bound_to 10162
  140.1688  144.4955  150.6591 LP  0  0  0  0  0  0  0  0  0  0  0  0  # atno 17343 bound_to 10162
  157.4759  131.0897  151.0591 LP  0  0  0  0  0  0  0  0  0  0  0  0  # atno 17370 bound_to 10713
  157.1038  130.5993  149.5466 LP  0  0  0  0  0  0  0  0  0  0  0  0  # atno 17371 bound_to 10713
  140.5414  134.6117  157.5381 LP  0  0  0  0  0  0  0  0  0  0  0  0  # atno 17394 bound_to 11000
  139.9652  134.7386  156.0154 LP  0  0  0  0  0  0  0  0  0  0  0  0  # atno 17395 bound_to 11000

$$$$
