AV-unprocessed.smi:3039|AV-procd|sdf|11594|dock6
  -GOLD-   2272016573D 1   1.00000     0.00000
 Structure written by MMmdl.
 38 39  0  0  0  0  0  0  0  0  1 V2000
  150.8595  139.5219  157.9313 O   0  0  0  0  0  0  0  0  0  0  0  0
  152.0891  139.4703  157.9144 C   0  0  0  0  0  0  0  0  0  0  0  0
  152.7973  138.4018  157.0814 C   0  0  0  0  0  0  0  0  0  0  0  0
  151.9819  138.0755  155.8596 C   0  0  0  0  0  0  0  0  0  0  0  0
  151.4422  138.9702  154.8937 C   0  0  0  0  0  0  0  0  0  0  0  0
  150.7986  138.1444  154.0179 C   0  0  0  0  0  0  0  0  0  0  0  0
  150.9303  136.8496  154.4014 O   0  0  0  0  0  0  0  0  0  0  0  0
  151.6889  136.8151  155.5770 N   0  0  0  0  0  0  0  0  0  0  0  0
  152.8773  140.3130  158.6013 N   0  0  0  0  0  0  0  0  0  0  0  0
  152.4182  141.4142  159.4487 C   0  0  1  0  0  0  0  0  0  0  0  0
  153.5406  141.7916  160.4452 C   0  0  0  0  0  0  0  0  0  0  0  0
  153.0099  142.3745  161.7680 C   0  0  0  0  0  0  0  0  0  0  0  0
  152.4997  143.8192  161.6869 C   0  0  0  0  0  0  0  0  0  0  0  0
  151.3994  144.0472  160.6399 C   0  0  0  0  0  0  0  0  0  0  0  0
  151.9353  143.9734  159.2011 C   0  0  0  0  0  0  0  0  0  0  0  0
  151.9068  142.5743  158.5422 C   0  0  2  0  0  0  0  0  0  0  0  0
  150.4953  142.2876  157.9715 C   0  0  0  0  0  0  0  0  0  0  0  0
  150.3872  142.6407  156.6078 O   0  0  0  0  0  0  0  0  0  0  0  0
  153.7830  138.7673  156.7912 H   0  0  0  0  0  0  0  0  0  0  0  0
  152.9653  137.5131  157.6918 H   0  0  0  0  0  0  0  0  0  0  0  0
  151.5130  140.0470  154.8545 H   0  0  0  0  0  0  0  0  0  0  0  0
  150.2296  138.3174  153.1163 H   0  0  0  0  0  0  0  0  0  0  0  0
  153.8767  140.1901  158.5239 H   0  0  0  0  0  0  0  0  0  0  0  0
  151.5688  141.0541  160.0321 H   0  0  0  0  0  0  0  0  0  0  0  0
  154.0995  140.8922  160.7080 H   0  0  0  0  0  0  0  0  0  0  0  0
  154.2693  142.4587  159.9835 H   0  0  0  0  0  0  0  0  0  0  0  0
  152.2246  141.7296  162.1642 H   0  0  0  0  0  0  0  0  0  0  0  0
  153.8120  142.3429  162.5061 H   0  0  0  0  0  0  0  0  0  0  0  0
  152.1140  144.1016  162.6672 H   0  0  0  0  0  0  0  0  0  0  0  0
  153.3355  144.4931  161.4951 H   0  0  0  0  0  0  0  0  0  0  0  0
  150.5655  143.3605  160.7888 H   0  0  0  0  0  0  0  0  0  0  0  0
  150.9942  145.0470  160.7998 H   0  0  0  0  0  0  0  0  0  0  0  0
  151.3686  144.6687  158.5808 H   0  0  0  0  0  0  0  0  0  0  0  0
  152.9533  144.3642  159.1764 H   0  0  0  0  0  0  0  0  0  0  0  0
  152.5829  142.6565  157.6889 H   0  0  0  0  0  0  0  0  0  0  0  0
  150.2332  141.2363  158.0928 H   0  0  0  0  0  0  0  0  0  0  0  0
  149.7394  142.8633  158.5063 H   0  0  0  0  0  0  0  0  0  0  0  0
  150.0229  143.5110  156.5512 H   0  0  0  0  0  0  0  0  0  0  0  0
  1  2  2  0  0  0  0
  2  3  1  0  0  0  0
  2  9  1  0  0  0  0
  3  4  1  0  0  0  0
  3 19  1  0  0  0  0
  3 20  1  0  0  0  0
  4  8  2  0  0  0  0
  4  5  1  0  0  0  0
  5  6  2  0  0  0  0
  5 21  1  0  0  0  0
  6  7  1  0  0  0  0
  6 22  1  0  0  0  0
  7  8  1  0  0  0  0
  9 10  1  0  0  0  0
  9 23  1  0  0  0  0
 10 16  1  0  0  0  0
 10 11  1  0  0  0  0
 10 24  1  0  0  0  0
 11 12  1  0  0  0  0
 11 25  1  0  0  0  0
 11 26  1  0  0  0  0
 12 13  1  0  0  0  0
 12 27  1  0  0  0  0
 12 28  1  0  0  0  0
 13 14  1  0  0  0  0
 13 29  1  0  0  0  0
 13 30  1  0  0  0  0
 14 15  1  0  0  0  0
 14 31  1  0  0  0  0
 14 32  1  0  0  0  0
 15 16  1  0  0  0  0
 15 33  1  0  0  0  0
 15 34  1  0  0  0  0
 16 17  1  0  0  0  0
 16 35  1  0  0  0  0
 17 18  1  0  0  0  0
 17 36  1  0  0  0  0
 17 37  1  0  0  0  0
 18 38  1  0  0  0  0
M  END
> <s_m_source_file>
AV-unprocessed.smi

> <i_m_source_file_index>
3039

> <i_lp_mmshare_version>
43012

> <i_f3d_flags>
0

> <s_epik_input>
bjFvW2NIXVtjSF1jMVtDSDJdQyg9TylbTkhdW0NAQEhdMltDSDJdW0NIMl1bQ0gyXVtDSDJdW0NIMl1bQ0BIXTJbQ0gyXVtPSF0=

> <s_epik_cmdline>
J2VwaWtfcHl0aG9uJywgJy1waCcsICc3LjAnLCAnLXRuJywgJzgnLCAnLW1hJywgJzIwMCcsICctbWV0YWxfYmluZGluZycsICctaW1hZScsICc8aW5maWxlLm1hZT4nLCAnLW9tYWUnLCAnPG91dGZpbGUubWFlPic=

> <r_lp_tautomer_probability>
1

> <r_epik_Ionization_Penalty>
3.05817e-07

> <r_epik_Ionization_Penalty_Charging>
0

> <r_epik_Ionization_Penalty_Neutral>
3.05817e-07

> <r_epik_State_Penalty>
-0

> <r_epik_Charging_Adjusted_Penalty>
0

> <i_epik_Tot_Q>
0

> <i_epik_Tot_abs_Q>
0

> <r_epik_Metal_State_Penalty>
-0

> <b_epik_Metal_Only>
0

> <s_lp_Force_Field>
OPLS_2005

> <r_lp_Energy>
18.8226

> <b_lp_Chiralities_Consistent>
1

> <s_lp_Variant>
AV-unprocessed.smi:3039-4

> <Gold.Version>
5.8.1

> <Gold.Id.Protein>
6NUR|6NUR_protein|mol2

> <Gold.PLP.Fitness>
45.3259

> <Gold.PLP.PLP>
-38.2259

> <Gold.PLP.part.hbond>
-2.0000

> <Gold.PLP.part.metal>
0.0000

> <Gold.PLP.part.buried>
-6.6286

> <Gold.PLP.part.nonpolar>
-30.8222

> <Gold.PLP.part.repulsive>
0.9084

> <Gold.PLP.ligand.clash>
0.0000

> <Gold.PLP.ligand.torsion>
1.1998

> <Gold.PLP.Chemscore.Hbond>
1.9920

> <Gold.PLP.Chemscore.CHOScore>
1.1582

> <Gold.PLP.Chemscore.Metal>
0.0000

> <Gold.Chemscore.Hbonds>
donor molecule, donor type, donor heavy atom, donor atom, acceptor molecule, acceptor atom, score
      L1  H    18    38       P1  8028  0.99
      P1  H 10752 10763       L1     8  1.00
      L1  C     6    22       P1  7948  0.48
      L1  C     6    22       P1  7957  0.68

> <Gold.PLP.Chemscore.Internal.Correction>
0.0488

> <Gold.Rescore>
     Score         DG    S(hbond)    S(metal)    S(lipo)     H(rot)  DE(clash)    DE(int)     intcor
     13.21     -15.38       0.98        0.00     106.21       2.26       0.01       2.15       ----

> <Gold.Chemscore.Fitness>
13.2087

> <Gold.Chemscore.DG>
-15.3759

> <Gold.Chemscore.ZeroCoef>
-5.4800

> <Gold.Chemscore.Hbond>
0.9757

> <Gold.Chemscore.Metal>
0.0000

> <Gold.Chemscore.Lipo>
106.2099

> <Gold.Chemscore.Internal_Hbond>
0.0000

> <Gold.Chemscore.DEClash>
0.0126

> <Gold.Chemscore.DEInternal>
2.1545

> <Gold.Chemscore.Rot>
2.2616

> <Gold.Chemscore.Internal.Correction>
   9.000000E+99

> <Gold.Chemscore.Hbonds>
donor molecule, donor type, donor heavy atom, donor atom, acceptor molecule, acceptor atom, score
      L1  H    18    38       P1  8028  0.93
      P1  H 10752 10763       L1     8  0.22

> <Gold.Chemscore.Hbond.Weighted>
-3.2589

> <Gold.Chemscore.Metal.Weighted>
-0.0000

> <Gold.Chemscore.Lipo.Weighted>
-12.4266

> <Gold.Chemscore.Internal_Hbond.Weighted>
0.0000

> <Gold.Chemscore.DEClash.Weighted>
0.0126

> <Gold.Chemscore.DEInternal.Weighted>
2.1545

> <Gold.Chemscore.Rot.Weighted>
5.7896

> <Gold.Chemscore.Internal.Correction.Weighted>
   9.000000E+99

> <Gold.Protein.RotatedTorsions>
[ 6907 6896 6895 6894 ] final   70.34 input  -60.11 | X-H torsion
[ 7974 7965 7964 7962 ] final  -68.62 input  175.53 | X-H torsion
[ 8008 7997 7996 7995 ] final -128.06 input   59.86 | X-H torsion
[ 10167 10162 10161 10158 ] final  160.04 input  -65.29 | X-H torsion
[ 10718 10713 10712 10709 ] final -166.16 input   66.30 | X-H torsion
[ 10763 10752 10751 10750 ] final   88.20 input  -60.55 | X-H torsion
[ 11005 11000 10999 10996 ] final   20.10 input  -57.11 | X-H torsion

> <Gold.Protein.ActiveResidues>
 VAL166  LYS551  ARG553  GLY616  TRP617  ASP618  TYR619  PRO620  LYS621  CYS622 
 ASP623  PHE694  ASN695  SER759  ASP760  ASP761  ALA762  ILE779  LEU786  VAL792 
 PHE793  MET794  SER795  GLU796  ALA797  LYS798  CYS799  TRP800  GLU811  SER814 

> <Gold.Protein.RotatedAtoms>
  152.4743  134.4883  159.9687 H   0  0  0  0  0  0  0  0  0  0  0  0  # atno 6907 bound_to 6896
  151.4903  133.3520  159.2860 H   0  0  0  0  0  0  0  0  0  0  0  0  # atno 6908 bound_to 6896
  150.8771  134.8183  159.7259 H   0  0  0  0  0  0  0  0  0  0  0  0  # atno 6909 bound_to 6896
  145.7142  140.9066  143.0664 H   0  0  0  0  0  0  0  0  0  0  0  0  # atno 7974 bound_to 7965
  155.2565  140.0434  157.2992 H   0  0  0  0  0  0  0  0  0  0  0  0  # atno 8008 bound_to 7997
  154.5737  140.2381  155.8124 H   0  0  0  0  0  0  0  0  0  0  0  0  # atno 8009 bound_to 7997
  156.2142  140.2990  155.9808 H   0  0  0  0  0  0  0  0  0  0  0  0  # atno 8010 bound_to 7997
  139.4837  144.4672  151.8625 H   0  0  0  0  0  0  0  0  0  0  0  0  # atno 10167 bound_to 10162
  156.6638  130.9056  151.3033 H   0  0  0  0  0  0  0  0  0  0  0  0  # atno 10718 bound_to 10713
  153.1744  135.4516  154.9946 H   0  0  0  0  0  0  0  0  0  0  0  0  # atno 10763 bound_to 10752
  154.7988  135.3248  154.7604 H   0  0  0  0  0  0  0  0  0  0  0  0  # atno 10764 bound_to 10752
  153.8076  135.6957  153.4901 H   0  0  0  0  0  0  0  0  0  0  0  0  # atno 10765 bound_to 10752
  140.4064  134.1664  155.7665 H   0  0  0  0  0  0  0  0  0  0  0  0  # atno 11005 bound_to 11000
  144.6934  139.9115  143.7463 LP  0  0  0  0  0  0  0  0  0  0  0  0  # atno 17320 bound_to 7965
  146.0685  139.3675  143.0537 LP  0  0  0  0  0  0  0  0  0  0  0  0  # atno 17321 bound_to 7965
  140.4138  144.2334  150.5888 LP  0  0  0  0  0  0  0  0  0  0  0  0  # atno 17342 bound_to 10162
  140.4940  143.2338  151.8776 LP  0  0  0  0  0  0  0  0  0  0  0  0  # atno 17343 bound_to 10162
  157.7100  130.9430  150.1059 LP  0  0  0  0  0  0  0  0  0  0  0  0  # atno 17370 bound_to 10713
  156.1991  130.3659  149.8812 LP  0  0  0  0  0  0  0  0  0  0  0  0  # atno 17371 bound_to 10713
  141.1838  133.8358  157.1163 LP  0  0  0  0  0  0  0  0  0  0  0  0  # atno 17394 bound_to 11000
  140.0299  134.9906  157.0760 LP  0  0  0  0  0  0  0  0  0  0  0  0  # atno 17395 bound_to 11000

$$$$
