AV-unprocessed.smi:786|AV-procd|sdf|3722|dock10
  -GOLD-   22720 1153D 1   1.00000     0.00000
 Structure written by MMmdl.
 40 41  0  0  0  0  0  0  0  0  2 V2000
  150.9529  140.2762  155.0117 O   0  0  0  0  0  0  0  0  0  0  0  0
  149.9178  141.2439  155.4045 S   0  0  0  0  0  0  0  0  0  0  0  0
  148.9695  141.7594  154.4052 O   0  0  0  0  0  0  0  0  0  0  0  0
  148.9996  140.5750  156.8655 C   0  0  0  0  0  0  0  0  0  0  0  0
  149.4484  139.1567  157.2722 C   0  0  0  0  0  0  0  0  0  0  0  0
  148.3563  138.4331  158.0773 C   0  0  0  0  0  0  0  0  0  0  0  0
  148.8342  137.0412  158.5227 C   0  0  0  0  0  0  0  0  0  0  0  0
  150.0313  137.1580  159.2831 O   0  0  0  0  0  0  0  0  0  0  0  0
  151.1066  137.7216  158.5404 C   0  0  0  0  0  0  0  0  0  0  0  0
  150.7486  139.1500  158.0989 C   0  0  0  0  0  0  0  0  0  0  0  0
  150.7434  142.5987  156.0875 N   0  0  0  0  0  0  0  0  0  0  0  0
  151.5906  142.3843  157.2611 C   0  0  0  0  0  0  0  0  0  0  0  0
  151.8660  143.7091  157.9899 C   0  0  0  0  0  0  0  0  0  0  0  0
  152.1865  143.4997  159.4571 C   0  0  0  0  0  0  0  0  0  0  0  0
  152.6548  142.2633  159.9522 C   0  0  0  0  0  0  0  0  0  0  0  0
  152.9280  142.1314  161.3296 C   0  0  0  0  0  0  0  0  0  0  0  0
  152.7272  143.2369  162.1822 C   0  0  0  0  0  0  0  0  0  0  0  0
  152.2560  144.4477  161.6347 C   0  0  0  0  0  0  0  0  0  0  0  0
  152.0056  144.5344  160.3096 N   0  3  0  0  0  0  0  0  0  0  0  0
  149.1410  141.2651  157.6977 H   0  0  0  0  0  0  0  0  0  0  0  0
  147.9378  140.5982  156.6197 H   0  0  0  0  0  0  0  0  0  0  0  0
  149.6122  138.5796  156.3609 H   0  0  0  0  0  0  0  0  0  0  0  0
  148.0918  139.0225  158.9563 H   0  0  0  0  0  0  0  0  0  0  0  0
  147.4481  138.3365  157.4816 H   0  0  0  0  0  0  0  0  0  0  0  0
  148.0721  136.5633  159.1383 H   0  0  0  0  0  0  0  0  0  0  0  0
  149.0000  136.3925  157.6613 H   0  0  0  0  0  0  0  0  0  0  0  0
  151.9973  137.7363  159.1687 H   0  0  0  0  0  0  0  0  0  0  0  0
  151.3359  137.0936  157.6783 H   0  0  0  0  0  0  0  0  0  0  0  0
  151.5785  139.5733  157.5353 H   0  0  0  0  0  0  0  0  0  0  0  0
  150.6274  139.7775  158.9828 H   0  0  0  0  0  0  0  0  0  0  0  0
  150.0974  143.3727  156.2426 H   0  0  0  0  0  0  0  0  0  0  0  0
  151.0837  141.6894  157.9310 H   0  0  0  0  0  0  0  0  0  0  0  0
  152.5217  141.9065  156.9534 H   0  0  0  0  0  0  0  0  0  0  0  0
  152.6959  144.2402  157.5238 H   0  0  0  0  0  0  0  0  0  0  0  0
  150.9997  144.3671  157.9074 H   0  0  0  0  0  0  0  0  0  0  0  0
  152.8015  141.4248  159.2865 H   0  0  0  0  0  0  0  0  0  0  0  0
  153.2868  141.1931  161.7269 H   0  0  0  0  0  0  0  0  0  0  0  0
  152.9309  143.1567  163.2402 H   0  0  0  0  0  0  0  0  0  0  0  0
  152.0731  145.3421  162.2122 H   0  0  0  0  0  0  0  0  0  0  0  0
  151.6649  145.4204  159.9355 H   0  0  0  0  0  0  0  0  0  0  0  0
  1  2  2  0  0  0  0
  2  3  2  0  0  0  0
  2  4  1  0  0  0  0
  2 11  1  0  0  0  0
  4  5  1  0  0  0  0
  4 20  1  0  0  0  0
  4 21  1  0  0  0  0
  5 10  1  0  0  0  0
  5  6  1  0  0  0  0
  5 22  1  0  0  0  0
  6  7  1  0  0  0  0
  6 23  1  0  0  0  0
  6 24  1  0  0  0  0
  7  8  1  0  0  0  0
  7 25  1  0  0  0  0
  7 26  1  0  0  0  0
  8  9  1  0  0  0  0
  9 10  1  0  0  0  0
  9 27  1  0  0  0  0
  9 28  1  0  0  0  0
 10 29  1  0  0  0  0
 10 30  1  0  0  0  0
 11 12  1  0  0  0  0
 11 31  1  0  0  0  0
 12 13  1  0  0  0  0
 12 32  1  0  0  0  0
 12 33  1  0  0  0  0
 13 14  1  0  0  0  0
 13 34  1  0  0  0  0
 13 35  1  0  0  0  0
 14 19  1  0  0  0  0
 14 15  2  0  0  0  0
 15 16  1  0  0  0  0
 15 36  1  0  0  0  0
 16 17  2  0  0  0  0
 16 37  1  0  0  0  0
 17 18  1  0  0  0  0
 17 38  1  0  0  0  0
 18 19  2  0  0  0  0
 18 39  1  0  0  0  0
 19 40  1  0  0  0  0
M  CHG  1  19   1
M  END
> <s_m_source_file>
AV-unprocessed.smi

> <i_m_source_file_index>
786

> <i_lp_mmshare_version>
43012

> <i_f3d_flags>
0

> <s_epik_input>
W0NIMl0xW0NIMl1PW0NIMl1bQ0gyXVtDSF0xW0NIMl1TKD1PKSg9TylbTkhdW0NIMl1bQ0gyXWMyW2NIXVtjSF1bY0hdW2NIXW4y

> <s_epik_cmdline>
J2VwaWtfcHl0aG9uJywgJy1waCcsICc3LjAnLCAnLXRuJywgJzgnLCAnLW1hJywgJzIwMCcsICctbWV0YWxfYmluZGluZycsICctaW1hZScsICc8aW5maWxlLm1hZT4nLCAnLW9tYWUnLCAnPG91dGZpbGUubWFlPic=

> <r_epik_Ionization_Penalty>
1.99786

> <r_epik_Ionization_Penalty_Charging>
1.99784

> <r_epik_Ionization_Penalty_Neutral>
1.9654e-05

> <r_epik_State_Penalty>
2.12638

> <r_epik_Charging_Adjusted_Penalty>
4.12422

> <i_epik_Tot_Q>
1

> <i_epik_Tot_abs_Q>
1

> <r_epik_Metal_State_Penalty>
2.17464

> <b_epik_Metal_Only>
0

> <s_lp_Force_Field>
OPLS_2005

> <r_lp_Energy>
11.1046

> <b_lp_Chiralities_Consistent>
1

> <s_lp_Variant>
AV-unprocessed.smi:786-2

> <Gold.Version>
5.8.1

> <Gold.Id.Protein>
6NUR|6NUR_protein|mol2

> <Gold.PLP.Fitness>
45.5366

> <Gold.PLP.PLP>
-38.4275

> <Gold.PLP.part.hbond>
-3.1823

> <Gold.PLP.part.metal>
0.0000

> <Gold.PLP.part.buried>
-6.3805

> <Gold.PLP.part.nonpolar>
-28.4437

> <Gold.PLP.part.repulsive>
0.2824

> <Gold.PLP.ligand.clash>
0.0000

> <Gold.PLP.ligand.torsion>
0.8572

> <Gold.PLP.Chemscore.Hbond>
2.8800

> <Gold.PLP.Chemscore.CHOScore>
0.0000

> <Gold.PLP.Chemscore.Metal>
0.0000

> <Gold.Chemscore.Hbonds>
donor molecule, donor type, donor heavy atom, donor atom, acceptor molecule, acceptor atom, score
      L1  H    11    31       P1  8028  1.00
      P1  H  6896  6908       L1     8  0.06
      P1  H  7989  7998       L1     1  1.00
      P1  H  8011  8017       L1     3  0.13

> <Gold.PLP.Chemscore.Internal.Correction>
0.1834

> <Gold.Rescore>
     Score         DG    S(hbond)    S(metal)    S(lipo)     H(rot)  DE(clash)    DE(int)     intcor
     19.36     -20.10       2.62        0.00      92.81       1.94       0.05       0.70       ----

> <Gold.Chemscore.Fitness>
19.3571

> <Gold.Chemscore.DG>
-20.1010

> <Gold.Chemscore.ZeroCoef>
-5.4800

> <Gold.Chemscore.Hbond>
2.6154

> <Gold.Chemscore.Metal>
0.0000

> <Gold.Chemscore.Lipo>
92.8086

> <Gold.Chemscore.Internal_Hbond>
0.0000

> <Gold.Chemscore.DEClash>
0.0464

> <Gold.Chemscore.DEInternal>
0.6976

> <Gold.Chemscore.Rot>
1.9426

> <Gold.Chemscore.Internal.Correction>
   9.000000E+99

> <Gold.Chemscore.Hbonds>
donor molecule, donor type, donor heavy atom, donor atom, acceptor molecule, acceptor atom, score
      L1  H    11    31       P1  8028  0.97
      P1  H  6896  6908       L1     8  0.02
      P1  H  7989  7998       L1     1  0.55
      P1  H  8011  8017       L1     3  0.13

> <Gold.Chemscore.Hbond.Weighted>
-8.7355

> <Gold.Chemscore.Metal.Weighted>
-0.0000

> <Gold.Chemscore.Lipo.Weighted>
-10.8586

> <Gold.Chemscore.Internal_Hbond.Weighted>
0.0000

> <Gold.Chemscore.DEClash.Weighted>
0.0464

> <Gold.Chemscore.DEInternal.Weighted>
0.6976

> <Gold.Chemscore.Rot.Weighted>
4.9731

> <Gold.Chemscore.Internal.Correction.Weighted>
   9.000000E+99

> <Gold.Protein.RotatedTorsions>
[ 6907 6896 6895 6894 ] final -152.66 input  -60.11 | X-H torsion
[ 7974 7965 7964 7962 ] final  128.25 input  175.53 | X-H torsion
[ 8008 7997 7996 7995 ] final  -62.91 input   59.86 | X-H torsion
[ 10167 10162 10161 10158 ] final  158.74 input  -65.29 | X-H torsion
[ 10718 10713 10712 10709 ] final   33.51 input   66.30 | X-H torsion
[ 10763 10752 10751 10750 ] final  -27.95 input  -60.55 | X-H torsion
[ 11005 11000 10999 10996 ] final  -81.80 input  -57.11 | X-H torsion

> <Gold.Protein.ActiveResidues>
 VAL166  LYS551  ARG553  GLY616  TRP617  ASP618  TYR619  PRO620  LYS621  CYS622 
 ASP623  PHE694  ASN695  SER759  ASP760  ASP761  ALA762  ILE779  LEU786  VAL792 
 PHE793  MET794  SER795  GLU796  ALA797  LYS798  CYS799  TRP800  GLU811  SER814 

> <Gold.Protein.RotatedAtoms>
  151.2310  133.4450  159.2603 H   0  0  0  0  0  0  0  0  0  0  0  0  # atno 6907 bound_to 6896
  151.0794  134.9849  159.8358 H   0  0  0  0  0  0  0  0  0  0  0  0  # atno 6908 bound_to 6896
  152.5422  134.2251  159.8856 H   0  0  0  0  0  0  0  0  0  0  0  0  # atno 6909 bound_to 6896
  145.0416  139.3958  143.5099 H   0  0  0  0  0  0  0  0  0  0  0  0  # atno 7974 bound_to 7965
  154.4525  140.0986  156.6661 H   0  0  0  0  0  0  0  0  0  0  0  0  # atno 8008 bound_to 7997
  155.5240  140.3479  155.4394 H   0  0  0  0  0  0  0  0  0  0  0  0  # atno 8009 bound_to 7997
  156.0711  140.1349  156.9817 H   0  0  0  0  0  0  0  0  0  0  0  0  # atno 8010 bound_to 7997
  139.4828  144.4796  151.8462 H   0  0  0  0  0  0  0  0  0  0  0  0  # atno 10167 bound_to 10162
  157.2988  130.7340  149.6654 H   0  0  0  0  0  0  0  0  0  0  0  0  # atno 10718 bound_to 10713
  153.7404  135.6933  153.4968 H   0  0  0  0  0  0  0  0  0  0  0  0  # atno 10763 bound_to 10752
  153.2073  135.4415  155.0337 H   0  0  0  0  0  0  0  0  0  0  0  0  # atno 10764 bound_to 10752
  154.8222  135.3428  154.6930 H   0  0  0  0  0  0  0  0  0  0  0  0  # atno 10765 bound_to 10752
  141.1665  133.7214  156.8476 H   0  0  0  0  0  0  0  0  0  0  0  0  # atno 11005 bound_to 11000
  146.3510  140.0020  142.8675 LP  0  0  0  0  0  0  0  0  0  0  0  0  # atno 17320 bound_to 7965
  145.1640  140.9687  143.4360 LP  0  0  0  0  0  0  0  0  0  0  0  0  # atno 17321 bound_to 7965
  140.4271  144.2165  150.5887 LP  0  0  0  0  0  0  0  0  0  0  0  0  # atno 17342 bound_to 10162
  140.4816  143.2377  151.8947 LP  0  0  0  0  0  0  0  0  0  0  0  0  # atno 17343 bound_to 10162
  155.9670  130.4286  150.4797 LP  0  0  0  0  0  0  0  0  0  0  0  0  # atno 17370 bound_to 10713
  157.2773  131.0599  151.2220 LP  0  0  0  0  0  0  0  0  0  0  0  0  # atno 17371 bound_to 10713
  140.1938  134.8946  157.3091 LP  0  0  0  0  0  0  0  0  0  0  0  0  # atno 17394 bound_to 11000
  140.2261  134.3965  155.7543 LP  0  0  0  0  0  0  0  0  0  0  0  0  # atno 17395 bound_to 11000

$$$$
