AV-unprocessed.smi:3314|AV-procd|sdf|12739|dock1
  -GOLD-   2272019 83D 1   1.00000     0.00000
 Structure written by MMmdl.
 38 39  0  0  0  0  0  0  0  0  2 V2000
  154.2122  141.1661  161.0575 C   0  0  0  0  0  0  0  0  0  0  0  0
  153.1506  141.7637  160.1568 C   0  0  0  0  0  0  0  0  0  0  0  0
  152.9946  143.2050  160.0598 C   0  0  0  0  0  0  0  0  0  0  0  0
  152.0440  143.7153  159.2593 C   0  0  0  0  0  0  0  0  0  0  0  0
  151.8100  145.2025  159.0924 C   0  0  0  0  0  0  0  0  0  0  0  0
  151.2086  142.8832  158.5239 N   0  0  0  0  0  0  0  0  0  0  0  0
  151.3022  141.4807  158.5554 C   0  0  0  0  0  0  0  0  0  0  0  0
  150.5561  140.6575  157.8777 N   0  0  0  0  0  0  0  0  0  0  0  0
  149.5385  141.0850  157.0286 C   0  0  0  0  0  0  0  0  0  0  0  0
  148.3399  141.2502  157.2735 O   0  0  0  0  0  0  0  0  0  0  0  0
  150.0702  141.3817  155.6097 C   0  0  2  0  0  0  0  0  0  0  0  0
  148.9824  141.7275  154.5638 C   0  0  0  0  0  0  0  0  0  0  0  0
  148.1865  140.5312  154.1984 N   0  3  1  0  0  0  0  0  0  0  0  0
  147.1048  140.8374  153.2385 C   0  0  0  0  0  0  0  0  0  0  0  0
  149.0669  139.4349  153.7357 C   0  0  0  0  0  0  0  0  0  0  0  0
  150.1263  139.1140  154.8019 C   0  0  0  0  0  0  0  0  0  0  0  0
  150.8624  140.2952  155.1169 O   0  0  0  0  0  0  0  0  0  0  0  0
  152.3378  140.9578  159.4335 C   0  0  0  0  0  0  0  0  0  0  0  0
  154.7717  141.9433  161.5786 H   0  0  0  0  0  0  0  0  0  0  0  0
  154.9161  140.5737  160.4725 H   0  0  0  0  0  0  0  0  0  0  0  0
  153.7544  140.5177  161.8048 H   0  0  0  0  0  0  0  0  0  0  0  0
  153.6387  143.8630  160.6250 H   0  0  0  0  0  0  0  0  0  0  0  0
  152.7065  145.6828  158.6998 H   0  0  0  0  0  0  0  0  0  0  0  0
  151.5711  145.6570  160.0541 H   0  0  0  0  0  0  0  0  0  0  0  0
  150.9871  145.4053  158.4058 H   0  0  0  0  0  0  0  0  0  0  0  0
  150.7317  142.2437  155.7043 H   0  0  0  0  0  0  0  0  0  0  0  0
  148.3233  142.5118  154.9394 H   0  0  0  0  0  0  0  0  0  0  0  0
  149.4567  142.1290  153.6669 H   0  0  0  0  0  0  0  0  0  0  0  0
  147.5095  141.1979  152.2919 H   0  0  0  0  0  0  0  0  0  0  0  0
  146.4402  141.6027  153.6405 H   0  0  0  0  0  0  0  0  0  0  0  0
  146.5056  139.9486  153.0383 H   0  0  0  0  0  0  0  0  0  0  0  0
  148.4714  138.5455  153.5263 H   0  0  0  0  0  0  0  0  0  0  0  0
  149.5525  139.7241  152.8023 H   0  0  0  0  0  0  0  0  0  0  0  0
  149.6645  138.6890  155.6937 H   0  0  0  0  0  0  0  0  0  0  0  0
  150.8191  138.3619  154.4247 H   0  0  0  0  0  0  0  0  0  0  0  0
  152.4840  139.8913  159.5301 H   0  0  0  0  0  0  0  0  0  0  0  0
  150.5233  143.3458  157.9440 H   0  0  0  0  0  0  0  0  0  0  0  0
  147.7398  140.2090  155.0453 H   0  0  0  0  0  0  0  0  0  0  0  0
  1  2  1  0  0  0  0
  1 19  1  0  0  0  0
  1 20  1  0  0  0  0
  1 21  1  0  0  0  0
  2 18  2  0  0  0  0
  2  3  1  0  0  0  0
  3  4  2  0  0  0  0
  3 22  1  0  0  0  0
  4  5  1  0  0  0  0
  4  6  1  0  0  0  0
  5 23  1  0  0  0  0
  5 24  1  0  0  0  0
  5 25  1  0  0  0  0
  6  7  1  0  0  0  0
  6 37  1  0  0  0  0
  7  8  2  0  0  0  0
  7 18  1  0  0  0  0
  8  9  1  0  0  0  0
  9 10  2  0  0  0  0
  9 11  1  0  0  0  0
 11 17  1  0  0  0  0
 11 12  1  0  0  0  0
 11 26  1  0  0  0  0
 12 13  1  0  0  0  0
 12 27  1  0  0  0  0
 12 28  1  0  0  0  0
 13 14  1  0  0  0  0
 13 15  1  0  0  0  0
 13 38  1  0  0  0  0
 14 29  1  0  0  0  0
 14 30  1  0  0  0  0
 14 31  1  0  0  0  0
 15 16  1  0  0  0  0
 15 32  1  0  0  0  0
 15 33  1  0  0  0  0
 16 17  1  0  0  0  0
 16 34  1  0  0  0  0
 16 35  1  0  0  0  0
 18 36  1  0  0  0  0
M  CHG  1  13   1
M  END
> <s_m_source_file>
AV-unprocessed.smi

> <i_m_source_file_index>
3314

> <i_lp_mmshare_version>
43012

> <i_f3d_flags>
0

> <s_epik_input>
W0NIM11jMVtjSF1jKFtDSDNdKW5jKFtjSF0xKVtOSF1DKD1PKVtDQEBIXTJbQ0gyXU4oW0NIM10pW0NIMl1bQ0gyXU8y

> <s_epik_cmdline>
J2VwaWtfcHl0aG9uJywgJy1waCcsICc3LjAnLCAnLXRuJywgJzgnLCAnLW1hJywgJzIwMCcsICctbWV0YWxfYmluZGluZycsICctaW1hZScsICc8aW5maWxlLm1hZT4nLCAnLW9tYWUnLCAnPG91dGZpbGUubWFlPic=

> <r_epik_Ionization_Penalty>
0.519783

> <r_epik_Ionization_Penalty_Charging>
0.519783

> <r_epik_Ionization_Penalty_Neutral>
1.74183e-13

> <r_epik_State_Penalty>
2.39351

> <r_epik_Charging_Adjusted_Penalty>
2.91329

> <i_epik_Tot_Q>
1

> <i_epik_Tot_abs_Q>
1

> <r_epik_Metal_State_Penalty>
2.41924

> <b_epik_Metal_Only>
0

> <s_lp_Force_Field>
OPLS_2005

> <r_lp_Energy>
32.167

> <b_lp_Chiralities_Consistent>
1

> <s_lp_Variant>
AV-unprocessed.smi:3314-9

> <Gold.Version>
5.8.1

> <Gold.Id.Protein>
6NUR|6NUR_protein|mol2

> <Gold.PLP.Fitness>
40.0392

> <Gold.PLP.PLP>
-38.7912

> <Gold.PLP.part.hbond>
-1.0000

> <Gold.PLP.part.metal>
0.0000

> <Gold.PLP.part.buried>
-1.5800

> <Gold.PLP.part.nonpolar>
-36.5168

> <Gold.PLP.part.repulsive>
0.2580

> <Gold.PLP.ligand.clash>
0.0000

> <Gold.PLP.ligand.torsion>
0.8865

> <Gold.PLP.Chemscore.Hbond>
1.0000

> <Gold.PLP.Chemscore.CHOScore>
0.0000

> <Gold.PLP.Chemscore.Metal>
0.0000

> <Gold.Chemscore.Hbonds>
donor molecule, donor type, donor heavy atom, donor atom, acceptor molecule, acceptor atom, score
      P1  H  7989  7998       L1    17  1.00

> <Gold.PLP.Chemscore.Internal.Correction>
0.0210

> <Gold.Rescore>
     Score         DG    S(hbond)    S(metal)    S(lipo)     H(rot)  DE(clash)    DE(int)     intcor
     15.39     -16.54       0.55        0.00     100.62       1.00       0.30       0.85       ----

> <Gold.Chemscore.Fitness>
15.3870

> <Gold.Chemscore.DG>
-16.5380

> <Gold.Chemscore.ZeroCoef>
-5.4800

> <Gold.Chemscore.Hbond>
0.5524

> <Gold.Chemscore.Metal>
0.0000

> <Gold.Chemscore.Lipo>
100.6235

> <Gold.Chemscore.Internal_Hbond>
0.0000

> <Gold.Chemscore.DEClash>
0.3035

> <Gold.Chemscore.DEInternal>
0.8476

> <Gold.Chemscore.Rot>
1.0000

> <Gold.Chemscore.Internal.Correction>
   9.000000E+99

> <Gold.Chemscore.Hbonds>
donor molecule, donor type, donor heavy atom, donor atom, acceptor molecule, acceptor atom, score
      P1  H  7989  7998       L1    17  0.33

> <Gold.Chemscore.Hbond.Weighted>
-1.8451

> <Gold.Chemscore.Metal.Weighted>
-0.0000

> <Gold.Chemscore.Lipo.Weighted>
-11.7729

> <Gold.Chemscore.Internal_Hbond.Weighted>
0.0000

> <Gold.Chemscore.DEClash.Weighted>
0.3035

> <Gold.Chemscore.DEInternal.Weighted>
0.8476

> <Gold.Chemscore.Rot.Weighted>
2.5600

> <Gold.Chemscore.Internal.Correction.Weighted>
   9.000000E+99

> <Gold.Protein.RotatedTorsions>
[ 6907 6896 6895 6894 ] final  -14.36 input  -60.11 | X-H torsion
[ 7974 7965 7964 7962 ] final   26.87 input  175.53 | X-H torsion
[ 8008 7997 7996 7995 ] final -121.26 input   59.86 | X-H torsion
[ 10167 10162 10161 10158 ] final  139.40 input  -65.29 | X-H torsion
[ 10718 10713 10712 10709 ] final  108.31 input   66.30 | X-H torsion
[ 10763 10752 10751 10750 ] final  129.38 input  -60.55 | X-H torsion
[ 11005 11000 10999 10996 ] final -121.81 input  -57.11 | X-H torsion

> <Gold.Protein.ActiveResidues>
 VAL166  LYS551  ARG553  GLY616  TRP617  ASP618  TYR619  PRO620  LYS621  CYS622 
 ASP623  PHE694  ASN695  SER759  ASP760  ASP761  ALA762  ILE779  LEU786  VAL792 
 PHE793  MET794  SER795  GLU796  ALA797  LYS798  CYS799  TRP800  GLU811  SER814 

> <Gold.Protein.RotatedAtoms>
  151.3407  135.0863  159.9369 H   0  0  0  0  0  0  0  0  0  0  0  0  # atno 6907 bound_to 6896
  152.5212  133.9450  159.7655 H   0  0  0  0  0  0  0  0  0  0  0  0  # atno 6908 bound_to 6896
  150.9807  133.6195  159.2753 H   0  0  0  0  0  0  0  0  0  0  0  0  # atno 6909 bound_to 6896
  146.1815  139.7269  142.8897 H   0  0  0  0  0  0  0  0  0  0  0  0  # atno 7974 bound_to 7965
  155.1452  140.0402  157.2808 H   0  0  0  0  0  0  0  0  0  0  0  0  # atno 8008 bound_to 7997
  154.6444  140.2554  155.7258 H   0  0  0  0  0  0  0  0  0  0  0  0  # atno 8009 bound_to 7997
  156.2548  140.2849  156.0851 H   0  0  0  0  0  0  0  0  0  0  0  0  # atno 8010 bound_to 7997
  139.5080  144.6296  151.5850 H   0  0  0  0  0  0  0  0  0  0  0  0  # atno 10167 bound_to 10162
  157.6592  131.0891  150.6286 H   0  0  0  0  0  0  0  0  0  0  0  0  # atno 10718 bound_to 10713
  153.7408  135.3224  155.3303 H   0  0  0  0  0  0  0  0  0  0  0  0  # atno 10763 bound_to 10752
  154.8296  135.4544  154.1029 H   0  0  0  0  0  0  0  0  0  0  0  0  # atno 10764 bound_to 10752
  153.2203  135.6947  153.8090 H   0  0  0  0  0  0  0  0  0  0  0  0  # atno 10765 bound_to 10752
  141.0042  134.0358  157.3498 H   0  0  0  0  0  0  0  0  0  0  0  0  # atno 11005 bound_to 11000
  145.4063  141.0391  143.3042 LP  0  0  0  0  0  0  0  0  0  0  0  0  # atno 17320 bound_to 7965
  144.8323  139.5608  143.6938 LP  0  0  0  0  0  0  0  0  0  0  0  0  # atno 17321 bound_to 7965
  140.6025  143.9584  150.6396 LP  0  0  0  0  0  0  0  0  0  0  0  0  # atno 17342 bound_to 10162
  140.2800  143.3396  152.1159 LP  0  0  0  0  0  0  0  0  0  0  0  0  # atno 17343 bound_to 10162
  156.6590  130.4506  149.5694 LP  0  0  0  0  0  0  0  0  0  0  0  0  # atno 17370 bound_to 10713
  156.2081  130.6662  151.1240 LP  0  0  0  0  0  0  0  0  0  0  0  0  # atno 17371 bound_to 10713
  139.9055  135.0178  156.7464 LP  0  0  0  0  0  0  0  0  0  0  0  0  # atno 17394 bound_to 11000
  140.6839  133.9449  155.7926 LP  0  0  0  0  0  0  0  0  0  0  0  0  # atno 17395 bound_to 11000

$$$$
