AV-unprocessed.smi:1684|AV-procd|sdf|6755|dock1
  -GOLD-   22720 7513D 1   1.00000     0.00000
 Structure written by MMmdl.
 43 44  0  0  0  0  0  0  0  0  2 V2000
  145.2412  136.1944  151.6195 C   0  0  0  0  0  0  0  0  0  0  0  0
  143.9860  135.9410  152.4386 C   0  0  0  0  0  0  0  0  0  0  0  0
  143.2688  134.7405  152.2486 C   0  0  0  0  0  0  0  0  0  0  0  0
  142.1094  134.5070  153.0076 C   0  0  0  0  0  0  0  0  0  0  0  0
  141.7139  135.4899  153.9308 C   0  0  0  0  0  0  0  0  0  0  0  0
  142.3935  136.6394  154.1194 N   0  0  0  0  0  0  0  0  0  0  0  0
  143.5131  136.8819  153.3921 C   0  0  0  0  0  0  0  0  0  0  0  0
  144.2820  138.0710  153.5408 N   0  0  0  0  0  0  0  0  0  0  0  0
  145.4709  138.2248  154.1492 C   0  0  0  0  0  0  0  0  0  0  0  0
  146.0839  137.3419  154.7496 O   0  0  0  0  0  0  0  0  0  0  0  0
  145.9301  139.4782  154.0118 N   0  0  0  0  0  0  0  0  0  0  0  0
  147.1880  139.9975  154.5516 C   0  0  2  0  0  0  0  0  0  0  0  0
  147.2082  141.5235  154.3894 C   0  0  0  0  0  0  0  0  0  0  0  0
  148.4118  139.3455  153.8659 C   0  0  0  0  0  0  0  0  0  0  0  0
  149.6400  139.3938  154.6989 N   0  3  0  0  0  0  0  0  0  0  0  0
  150.7612  138.6056  154.1372 C   0  0  0  0  0  0  0  0  0  0  0  0
  151.9594  138.6294  155.1019 C   0  0  0  0  0  0  0  0  0  0  0  0
  152.3443  139.9751  155.3566 O   0  0  0  0  0  0  0  0  0  0  0  0
  151.2984  140.7242  155.9646 C   0  0  0  0  0  0  0  0  0  0  0  0
  150.0860  140.7708  155.0205 C   0  0  0  0  0  0  0  0  0  0  0  0
  145.4607  135.3552  150.9587 H   0  0  0  0  0  0  0  0  0  0  0  0
  146.1020  136.3394  152.2730 H   0  0  0  0  0  0  0  0  0  0  0  0
  145.1198  137.0848  151.0018 H   0  0  0  0  0  0  0  0  0  0  0  0
  143.6006  134.0048  151.5307 H   0  0  0  0  0  0  0  0  0  0  0  0
  141.5385  133.5984  152.8855 H   0  0  0  0  0  0  0  0  0  0  0  0
  140.8297  135.3500  154.5349 H   0  0  0  0  0  0  0  0  0  0  0  0
  143.8863  138.8952  153.1135 H   0  0  0  0  0  0  0  0  0  0  0  0
  145.3557  140.1349  153.5031 H   0  0  0  0  0  0  0  0  0  0  0  0
  147.2251  139.7949  155.6229 H   0  0  0  0  0  0  0  0  0  0  0  0
  148.1120  141.9517  154.8237 H   0  0  0  0  0  0  0  0  0  0  0  0
  146.3552  141.9839  154.8895 H   0  0  0  0  0  0  0  0  0  0  0  0
  147.1746  141.8139  153.3387 H   0  0  0  0  0  0  0  0  0  0  0  0
  148.1650  138.3040  153.6538 H   0  0  0  0  0  0  0  0  0  0  0  0
  148.6079  139.8118  152.8991 H   0  0  0  0  0  0  0  0  0  0  0  0
  150.4458  137.5746  153.9728 H   0  0  0  0  0  0  0  0  0  0  0  0
  151.0485  139.0146  153.1672 H   0  0  0  0  0  0  0  0  0  0  0  0
  151.7143  138.1261  156.0386 H   0  0  0  0  0  0  0  0  0  0  0  0
  152.8045  138.0967  154.6658 H   0  0  0  0  0  0  0  0  0  0  0  0
  151.0272  140.2829  156.9254 H   0  0  0  0  0  0  0  0  0  0  0  0
  151.6572  141.7334  156.1668 H   0  0  0  0  0  0  0  0  0  0  0  0
  150.3473  141.2984  154.1019 H   0  0  0  0  0  0  0  0  0  0  0  0
  149.2806  141.3327  155.4926 H   0  0  0  0  0  0  0  0  0  0  0  0
  149.4016  138.9541  155.5769 H   0  0  0  0  0  0  0  0  0  0  0  0
  1  2  1  0  0  0  0
  1 21  1  0  0  0  0
  1 22  1  0  0  0  0
  1 23  1  0  0  0  0
  2  7  1  0  0  0  0
  2  3  2  0  0  0  0
  3  4  1  0  0  0  0
  3 24  1  0  0  0  0
  4  5  2  0  0  0  0
  4 25  1  0  0  0  0
  5  6  1  0  0  0  0
  5 26  1  0  0  0  0
  6  7  2  0  0  0  0
  7  8  1  0  0  0  0
  8  9  1  0  0  0  0
  8 27  1  0  0  0  0
  9 10  2  0  0  0  0
  9 11  1  0  0  0  0
 11 12  1  0  0  0  0
 11 28  1  0  0  0  0
 12 13  1  0  0  0  0
 12 14  1  0  0  0  0
 12 29  1  0  0  0  0
 13 30  1  0  0  0  0
 13 31  1  0  0  0  0
 13 32  1  0  0  0  0
 14 15  1  0  0  0  0
 14 33  1  0  0  0  0
 14 34  1  0  0  0  0
 15 20  1  0  0  0  0
 15 16  1  0  0  0  0
 15 43  1  0  0  0  0
 16 17  1  0  0  0  0
 16 35  1  0  0  0  0
 16 36  1  0  0  0  0
 17 18  1  0  0  0  0
 17 37  1  0  0  0  0
 17 38  1  0  0  0  0
 18 19  1  0  0  0  0
 19 20  1  0  0  0  0
 19 39  1  0  0  0  0
 19 40  1  0  0  0  0
 20 41  1  0  0  0  0
 20 42  1  0  0  0  0
M  CHG  1  15   1
M  END
> <s_m_source_file>
AV-unprocessed.smi

> <i_m_source_file_index>
1684

> <i_lp_mmshare_version>
43012

> <i_f3d_flags>
0

> <s_epik_input>
W0NIM11jMVtjSF1bY0hdW2NIXW5jMVtOSF1DKD1PKVtOSF1bQ0BIXShbQ0gzXSlbQ0gyXU4yW0NIMl1bQ0gyXU9bQ0gyXVtDSDJdMg==

> <s_epik_cmdline>
J2VwaWtfcHl0aG9uJywgJy1waCcsICc3LjAnLCAnLXRuJywgJzgnLCAnLW1hJywgJzIwMCcsICctbWV0YWxfYmluZGluZycsICctaW1hZScsICc8aW5maWxlLm1hZT4nLCAnLW9tYWUnLCAnPG91dGZpbGUubWFlPic=

> <r_epik_Ionization_Penalty>
0.602571

> <r_epik_Ionization_Penalty_Charging>
0.602531

> <r_epik_Ionization_Penalty_Neutral>
4.09763e-05

> <r_epik_State_Penalty>
0.617039

> <r_epik_Charging_Adjusted_Penalty>
1.21957

> <i_epik_Tot_Q>
1

> <i_epik_Tot_abs_Q>
1

> <r_epik_Metal_State_Penalty>
0.617043

> <b_epik_Metal_Only>
0

> <s_lp_Force_Field>
OPLS_2005

> <r_lp_Energy>
24.8117

> <b_lp_Chiralities_Consistent>
1

> <s_lp_Variant>
AV-unprocessed.smi:1684-3

> <Gold.Version>
5.8.1

> <Gold.Id.Protein>
6NUR|6NUR_protein|mol2

> <Gold.PLP.Fitness>
42.3311

> <Gold.PLP.PLP>
-32.9257

> <Gold.PLP.part.hbond>
-3.5930

> <Gold.PLP.part.metal>
0.0000

> <Gold.PLP.part.buried>
-1.9466

> <Gold.PLP.part.nonpolar>
-27.1357

> <Gold.PLP.part.repulsive>
0.1929

> <Gold.PLP.ligand.clash>
0.0000

> <Gold.PLP.ligand.torsion>
1.0182

> <Gold.PLP.Chemscore.Hbond>
2.7914

> <Gold.PLP.Chemscore.CHOScore>
0.9946

> <Gold.PLP.Chemscore.Metal>
0.0000

> <Gold.Chemscore.Hbonds>
donor molecule, donor type, donor heavy atom, donor atom, acceptor molecule, acceptor atom, score
      L1  H     8    27       P1 10175  1.00
      L1  H    11    28       P1 10175  0.96
      P1  H  7989  7998       L1    18  0.13
      P1  H  7997  8008       L1    18  0.68
      L1  C     5    26       P1 11000  1.00

> <Gold.PLP.Chemscore.Internal.Correction>
0.0839

> <Gold.Rescore>
     Score         DG    S(hbond)    S(metal)    S(lipo)     H(rot)  DE(clash)    DE(int)     intcor
     17.57     -18.74       2.59        0.00      72.18       1.51       0.05       1.11       ----

> <Gold.Chemscore.Fitness>
17.5732

> <Gold.Chemscore.DG>
-18.7355

> <Gold.Chemscore.ZeroCoef>
-5.4800

> <Gold.Chemscore.Hbond>
2.5948

> <Gold.Chemscore.Metal>
0.0000

> <Gold.Chemscore.Lipo>
72.1773

> <Gold.Chemscore.Internal_Hbond>
0.0000

> <Gold.Chemscore.DEClash>
0.0491

> <Gold.Chemscore.DEInternal>
1.1132

> <Gold.Chemscore.Rot>
1.5061

> <Gold.Chemscore.Internal.Correction>
   9.000000E+99

> <Gold.Chemscore.Hbonds>
donor molecule, donor type, donor heavy atom, donor atom, acceptor molecule, acceptor atom, score
      L1  H     8    27       P1 10175  1.00
      L1  H    11    28       P1 10175  0.89
      P1  H  7997  8008       L1    18  0.57

> <Gold.Chemscore.Hbond.Weighted>
-8.6665

> <Gold.Chemscore.Metal.Weighted>
-0.0000

> <Gold.Chemscore.Lipo.Weighted>
-8.4447

> <Gold.Chemscore.Internal_Hbond.Weighted>
0.0000

> <Gold.Chemscore.DEClash.Weighted>
0.0491

> <Gold.Chemscore.DEInternal.Weighted>
1.1132

> <Gold.Chemscore.Rot.Weighted>
3.8557

> <Gold.Chemscore.Internal.Correction.Weighted>
   9.000000E+99

> <Gold.Protein.RotatedTorsions>
[ 6907 6896 6895 6894 ] final  -55.56 input  -60.11 | X-H torsion
[ 7974 7965 7964 7962 ] final  -47.40 input  175.53 | X-H torsion
[ 8008 7997 7996 7995 ] final  -26.26 input   59.86 | X-H torsion
[ 10167 10162 10161 10158 ] final   49.18 input  -65.29 | X-H torsion
[ 10718 10713 10712 10709 ] final  145.16 input   66.30 | X-H torsion
[ 10763 10752 10751 10750 ] final  -65.04 input  -60.55 | X-H torsion
[ 11005 11000 10999 10996 ] final -117.76 input  -57.11 | X-H torsion

> <Gold.Protein.ActiveResidues>
 VAL166  LYS551  ARG553  GLY616  TRP617  ASP618  TYR619  PRO620  LYS621  CYS622 
 ASP623  PHE694  ASN695  SER759  ASP760  ASP761  ALA762  ILE779  LEU786  VAL792 
 PHE793  MET794  SER795  GLU796  ALA797  LYS798  CYS799  TRP800  GLU811  SER814 

> <Gold.Protein.RotatedAtoms>
  150.8241  134.7464  159.6797 H   0  0  0  0  0  0  0  0  0  0  0  0  # atno 6907 bound_to 6896
  152.4354  134.5694  159.9926 H   0  0  0  0  0  0  0  0  0  0  0  0  # atno 6908 bound_to 6896
  151.5870  133.3333  159.3056 H   0  0  0  0  0  0  0  0  0  0  0  0  # atno 6909 bound_to 6896
  145.9620  140.7469  142.9452 H   0  0  0  0  0  0  0  0  0  0  0  0  # atno 7974 bound_to 7965
  154.4434  140.1904  156.0748 H   0  0  0  0  0  0  0  0  0  0  0  0  # atno 8008 bound_to 7997
  156.0484  140.3311  155.7296 H   0  0  0  0  0  0  0  0  0  0  0  0  # atno 8009 bound_to 7997
  155.5595  140.0602  157.2823 H   0  0  0  0  0  0  0  0  0  0  0  0  # atno 8010 bound_to 7997
  140.2856  144.3106  150.6253 H   0  0  0  0  0  0  0  0  0  0  0  0  # atno 10167 bound_to 10162
  157.3486  131.0947  151.1020 H   0  0  0  0  0  0  0  0  0  0  0  0  # atno 10718 bound_to 10713
  154.3391  135.6160  153.5587 H   0  0  0  0  0  0  0  0  0  0  0  0  # atno 10763 bound_to 10752
  152.9805  135.5765  154.4874 H   0  0  0  0  0  0  0  0  0  0  0  0  # atno 10764 bound_to 10752
  154.4574  135.2855  155.1714 H   0  0  0  0  0  0  0  0  0  0  0  0  # atno 10765 bound_to 10752
  141.0332  133.9949  157.3111 H   0  0  0  0  0  0  0  0  0  0  0  0  # atno 11005 bound_to 11000
  144.6817  140.2607  143.7319 LP  0  0  0  0  0  0  0  0  0  0  0  0  # atno 17320 bound_to 7965
  145.8026  139.1970  143.2039 LP  0  0  0  0  0  0  0  0  0  0  0  0  # atno 17321 bound_to 7965
  140.5775  143.2175  151.7488 LP  0  0  0  0  0  0  0  0  0  0  0  0  # atno 17342 bound_to 10162
  139.4951  144.4128  152.0062 LP  0  0  0  0  0  0  0  0  0  0  0  0  # atno 17343 bound_to 10162
  157.2204  130.6479  149.5809 LP  0  0  0  0  0  0  0  0  0  0  0  0  # atno 17370 bound_to 10713
  155.9718  130.4631  150.6169 LP  0  0  0  0  0  0  0  0  0  0  0  0  # atno 17371 bound_to 10713
  139.9222  135.0201  156.8107 LP  0  0  0  0  0  0  0  0  0  0  0  0  # atno 17394 bound_to 11000
  140.6369  133.9854  155.7688 LP  0  0  0  0  0  0  0  0  0  0  0  0  # atno 17395 bound_to 11000

$$$$
