AV-unprocessed.smi:2753|AV-procd|sdf|10609|dock6
  -GOLD-   2272015 63D 1   1.00000     0.00000
 Structure written by MMmdl.
 28 29  0  0  0  0  0  0  0  0  2 V2000
  152.4031  143.1205  159.5110 F   0  0  0  0  0  0  0  0  0  0  0  0
  151.6366  143.4686  158.4784 C   0  0  0  0  0  0  0  0  0  0  0  0
  150.5325  144.0337  158.9682 F   0  0  0  0  0  0  0  0  0  0  0  0
  152.2911  144.3985  157.7840 F   0  0  0  0  0  0  0  0  0  0  0  0
  151.3215  142.2792  157.6188 C   0  0  0  0  0  0  0  0  0  0  0  0
  151.7668  140.9835  157.7574 C   0  0  0  0  0  0  0  0  0  0  0  0
  151.1887  140.2788  156.7165 N   0  0  0  0  0  0  0  0  0  0  0  0
  150.4407  141.1327  156.0071 C   0  0  0  0  0  0  0  0  0  0  0  0
  149.6664  140.7116  154.7963 C   0  0  2  0  0  0  0  0  0  0  0  0
  148.1742  141.0794  154.9087 C   0  0  0  0  0  0  0  0  0  0  0  0
  147.4089  140.6176  153.6591 C   0  0  0  0  0  0  0  0  0  0  0  0
  147.6306  139.1178  153.4013 C   0  0  0  0  0  0  0  0  0  0  0  0
  149.0741  138.8138  153.2935 N   0  3  0  0  0  0  0  0  0  0  0  0
  149.8399  139.2083  154.4966 C   0  0  0  0  0  0  0  0  0  0  0  0
  150.4790  142.3651  156.5062 N   0  0  0  0  0  0  0  0  0  0  0  0
  151.3120  139.2942  156.5268 H   0  0  0  0  0  0  0  0  0  0  0  0
  152.4224  140.5250  158.4828 H   0  0  0  0  0  0  0  0  0  0  0  0
  150.0742  141.2632  153.9470 H   0  0  0  0  0  0  0  0  0  0  0  0
  147.7404  140.6097  155.7928 H   0  0  0  0  0  0  0  0  0  0  0  0
  148.0584  142.1559  155.0394 H   0  0  0  0  0  0  0  0  0  0  0  0
  146.3444  140.8226  153.7766 H   0  0  0  0  0  0  0  0  0  0  0  0
  147.7409  141.1921  152.7933 H   0  0  0  0  0  0  0  0  0  0  0  0
  147.1975  138.5248  154.2081 H   0  0  0  0  0  0  0  0  0  0  0  0
  147.1330  138.8142  152.4800 H   0  0  0  0  0  0  0  0  0  0  0  0
  149.1900  137.8217  153.1424 H   0  0  0  0  0  0  0  0  0  0  0  0
  150.8923  138.9722  154.3357 H   0  0  0  0  0  0  0  0  0  0  0  0
  149.5045  138.6065  155.3425 H   0  0  0  0  0  0  0  0  0  0  0  0
  149.4482  139.3099  152.4973 H   0  0  0  0  0  0  0  0  0  0  0  0
  1  2  1  0  0  0  0
  2  3  1  0  0  0  0
  2  4  1  0  0  0  0
  2  5  1  0  0  0  0
  5 15  1  0  0  0  0
  5  6  2  0  0  0  0
  6  7  1  0  0  0  0
  6 17  1  0  0  0  0
  7 16  1  0  0  0  0
  7  8  1  0  0  0  0
  8  9  1  0  0  0  0
  8 15  2  0  0  0  0
  9 14  1  0  0  0  0
  9 10  1  0  0  0  0
  9 18  1  0  0  0  0
 10 11  1  0  0  0  0
 10 19  1  0  0  0  0
 10 20  1  0  0  0  0
 11 12  1  0  0  0  0
 11 21  1  0  0  0  0
 11 22  1  0  0  0  0
 12 13  1  0  0  0  0
 12 23  1  0  0  0  0
 12 24  1  0  0  0  0
 13 14  1  0  0  0  0
 13 25  1  0  0  0  0
 13 28  1  0  0  0  0
 14 26  1  0  0  0  0
 14 27  1  0  0  0  0
M  CHG  1  13   1
M  END
> <s_m_source_file>
AV-unprocessed.smi

> <i_m_source_file_index>
2753

> <i_lp_mmshare_version>
43012

> <i_f3d_flags>
0

> <s_epik_input>
RkMoRikoRiljMVtjSF1bbkhdYyhuMSlbQ0BASF0yW0NIMl1bQ0gyXVtDSDJdW05IXVtDSDJdMg==

> <s_epik_cmdline>
J2VwaWtfcHl0aG9uJywgJy1waCcsICc3LjAnLCAnLXRuJywgJzgnLCAnLW1hJywgJzIwMCcsICctbWV0YWxfYmluZGluZycsICctaW1hZScsICc8aW5maWxlLm1hZT4nLCAnLW9tYWUnLCAnPG91dGZpbGUubWFlPic=

> <r_lp_tautomer_probability>
0.5

> <r_epik_Ionization_Penalty>
0.00052307

> <r_epik_Ionization_Penalty_Charging>
0.000431517

> <r_epik_Ionization_Penalty_Neutral>
9.15529e-05

> <r_epik_State_Penalty>
0.103148

> <r_epik_Charging_Adjusted_Penalty>
0.103579

> <i_epik_Tot_Q>
1

> <i_epik_Tot_abs_Q>
1

> <r_epik_Metal_State_Penalty>
0.166025

> <b_epik_Metal_Only>
0

> <s_lp_Force_Field>
OPLS_2005

> <r_lp_Energy>
16.8068

> <b_lp_Chiralities_Consistent>
1

> <s_lp_Variant>
AV-unprocessed.smi:2753-1

> <Gold.Version>
5.8.1

> <Gold.Id.Protein>
6NUR|6NUR_protein|mol2

> <Gold.PLP.Fitness>
41.9334

> <Gold.PLP.PLP>
-33.3895

> <Gold.PLP.part.hbond>
-1.9317

> <Gold.PLP.part.metal>
0.0000

> <Gold.PLP.part.buried>
-4.2187

> <Gold.PLP.part.nonpolar>
-29.4192

> <Gold.PLP.part.repulsive>
1.3400

> <Gold.PLP.ligand.clash>
0.0000

> <Gold.PLP.ligand.torsion>
0.0607

> <Gold.PLP.Chemscore.Hbond>
2.8793

> <Gold.PLP.Chemscore.CHOScore>
0.0000

> <Gold.PLP.Chemscore.Metal>
0.0000

> <Gold.Chemscore.Hbonds>
donor molecule, donor type, donor heavy atom, donor atom, acceptor molecule, acceptor atom, score
      L1  H    13    25       P1  7948  1.89
      L1  H    13    28       P1  7957  0.99

> <Gold.PLP.Chemscore.Internal.Correction>
0.0276

> <Gold.Rescore>
     Score         DG    S(hbond)    S(metal)    S(lipo)     H(rot)  DE(clash)    DE(int)     intcor
     15.71     -15.90       1.89        0.00      56.92       1.00       0.09       0.11       ----

> <Gold.Chemscore.Fitness>
15.7117

> <Gold.Chemscore.DG>
-15.9033

> <Gold.Chemscore.ZeroCoef>
-5.4800

> <Gold.Chemscore.Hbond>
1.8934

> <Gold.Chemscore.Metal>
0.0000

> <Gold.Chemscore.Lipo>
56.9187

> <Gold.Chemscore.Internal_Hbond>
0.0000

> <Gold.Chemscore.DEClash>
0.0860

> <Gold.Chemscore.DEInternal>
0.1056

> <Gold.Chemscore.Rot>
1.0000

> <Gold.Chemscore.Internal.Correction>
   9.000000E+99

> <Gold.Chemscore.Hbonds>
donor molecule, donor type, donor heavy atom, donor atom, acceptor molecule, acceptor atom, score
      L1  H    13    25       P1  7948  0.84
      L1  H    13    28       P1  7957  0.92

> <Gold.Chemscore.Hbond.Weighted>
-6.3238

> <Gold.Chemscore.Metal.Weighted>
-0.0000

> <Gold.Chemscore.Lipo.Weighted>
-6.6595

> <Gold.Chemscore.Internal_Hbond.Weighted>
0.0000

> <Gold.Chemscore.DEClash.Weighted>
0.0860

> <Gold.Chemscore.DEInternal.Weighted>
0.1056

> <Gold.Chemscore.Rot.Weighted>
2.5600

> <Gold.Chemscore.Internal.Correction.Weighted>
   9.000000E+99

> <Gold.Protein.RotatedTorsions>
[ 6907 6896 6895 6894 ] final -126.93 input  -60.11 | X-H torsion
[ 7974 7965 7964 7962 ] final  -59.25 input  175.53 | X-H torsion
[ 8008 7997 7996 7995 ] final -135.45 input   59.86 | X-H torsion
[ 10167 10162 10161 10158 ] final  107.86 input  -65.29 | X-H torsion
[ 10718 10713 10712 10709 ] final  114.92 input   66.30 | X-H torsion
[ 10763 10752 10751 10750 ] final -148.37 input  -60.55 | X-H torsion
[ 11005 11000 10999 10996 ] final -160.48 input  -57.11 | X-H torsion

> <Gold.Protein.ActiveResidues>
 VAL166  LYS551  ARG553  GLY616  TRP617  ASP618  TYR619  PRO620  LYS621  CYS622 
 ASP623  PHE694  ASN695  SER759  ASP760  ASP761  ALA762  ILE779  LEU786  VAL792 
 PHE793  MET794  SER795  GLU796  ALA797  LYS798  CYS799  TRP800  GLU811  SER814 

> <Gold.Protein.RotatedAtoms>
  150.9020  133.7106  159.2876 H   0  0  0  0  0  0  0  0  0  0  0  0  # atno 6907 bound_to 6896
  151.4621  135.1038  159.9737 H   0  0  0  0  0  0  0  0  0  0  0  0  # atno 6908 bound_to 6896
  152.4882  133.8381  159.7193 H   0  0  0  0  0  0  0  0  0  0  0  0  # atno 6909 bound_to 6896
  145.8297  140.8487  143.0090 H   0  0  0  0  0  0  0  0  0  0  0  0  # atno 7974 bound_to 7965
  155.3788  140.0493  157.3044 H   0  0  0  0  0  0  0  0  0  0  0  0  # atno 8008 bound_to 7997
  154.5093  140.2185  155.9151 H   0  0  0  0  0  0  0  0  0  0  0  0  # atno 8009 bound_to 7997
  156.1563  140.3125  155.8737 H   0  0  0  0  0  0  0  0  0  0  0  0  # atno 8010 bound_to 7997
  139.6893  144.7110  151.1376 H   0  0  0  0  0  0  0  0  0  0  0  0  # atno 10167 bound_to 10162
  157.6253  131.1005  150.7255 H   0  0  0  0  0  0  0  0  0  0  0  0  # atno 10718 bound_to 10713
  154.8236  135.3336  154.6963 H   0  0  0  0  0  0  0  0  0  0  0  0  # atno 10763 bound_to 10752
  153.7593  135.6934  153.4933 H   0  0  0  0  0  0  0  0  0  0  0  0  # atno 10764 bound_to 10752
  153.2122  135.4478  155.0342 H   0  0  0  0  0  0  0  0  0  0  0  0  # atno 10765 bound_to 10752
  140.6311  134.4650  157.5229 H   0  0  0  0  0  0  0  0  0  0  0  0  # atno 11005 bound_to 11000
  144.6741  140.0654  143.7475 LP  0  0  0  0  0  0  0  0  0  0  0  0  # atno 17320 bound_to 7965
  145.9584  139.2783  143.1170 LP  0  0  0  0  0  0  0  0  0  0  0  0  # atno 17321 bound_to 7965
  140.7677  143.5583  150.9128 LP  0  0  0  0  0  0  0  0  0  0  0  0  # atno 17342 bound_to 10162
  139.9259  143.6550  152.3087 LP  0  0  0  0  0  0  0  0  0  0  0  0  # atno 17343 bound_to 10162
  156.7604  130.4797  149.5438 LP  0  0  0  0  0  0  0  0  0  0  0  0  # atno 17370 bound_to 10713
  156.1421  130.6252  151.0482 LP  0  0  0  0  0  0  0  0  0  0  0  0  # atno 17371 bound_to 10713
  139.9116  134.8333  156.1509 LP  0  0  0  0  0  0  0  0  0  0  0  0  # atno 17394 bound_to 11000
  141.0675  133.6812  156.2073 LP  0  0  0  0  0  0  0  0  0  0  0  0  # atno 17395 bound_to 11000

$$$$
