AV-unprocessed.smi:2906|AV-procd|sdf|11163|dock6
  -GOLD-   2272016 53D 1   1.00000     0.00000
 Structure written by MMmdl.
 40 41  0  0  0  0  0  0  0  0  1 V2000
  145.4661  130.0148  151.7058 C   0  0  0  0  0  0  0  0  0  0  0  0
  145.9197  131.2310  150.8824 C   0  0  0  0  0  0  0  0  0  0  0  0
  144.7734  132.1828  150.5003 C   0  0  0  0  0  0  0  0  0  0  0  0
  143.8751  131.7924  149.7530 O   0  0  0  0  0  0  0  0  0  0  0  0
  144.7904  133.4347  151.0036 N   0  0  0  0  0  0  0  0  0  0  0  0
  143.7705  134.4369  150.7066 C   0  0  0  0  0  0  0  0  0  0  0  0
  144.2988  135.7553  151.2722 C   0  0  0  0  0  0  0  0  0  0  0  0
  145.2740  135.3403  152.3704 C   0  0  2  0  0  0  0  0  0  0  0  0
  146.3415  136.3204  152.5429 N   0  0  0  0  0  0  0  0  0  0  0  0
  146.2010  137.5016  153.1610 C   0  0  0  0  0  0  0  0  0  0  0  0
  145.1411  137.8841  153.6578 O   0  0  0  0  0  0  0  0  0  0  0  0
  147.3551  138.1915  153.1626 N   0  0  0  0  0  0  0  0  0  0  0  0
  147.6108  139.4710  153.7215 C   0  0  0  0  0  0  0  0  0  0  0  0
  146.6749  140.4045  153.9267 N   0  0  0  0  0  0  0  0  0  0  0  0
  147.2036  141.5689  154.4923 C   0  0  0  0  0  0  0  0  0  0  0  0
  146.3016  142.7254  154.7991 C   0  0  0  0  0  0  0  0  0  0  0  0
  145.8568  143.4685  153.5344 C   0  0  0  0  0  0  0  0  0  0  0  0
  148.5582  141.4992  154.7103 C   0  0  0  0  0  0  0  0  0  0  0  0
  149.2229  139.9657  154.2144 S   0  0  0  0  0  0  0  0  0  0  0  0
  145.8042  133.9765  151.9061 C   0  0  0  0  0  0  0  0  0  0  0  0
  146.3137  129.3692  151.9362 H   0  0  0  0  0  0  0  0  0  0  0  0
  144.7348  129.4157  151.1619 H   0  0  0  0  0  0  0  0  0  0  0  0
  145.0185  130.3184  152.6529 H   0  0  0  0  0  0  0  0  0  0  0  0
  146.6656  131.7891  151.4492 H   0  0  0  0  0  0  0  0  0  0  0  0
  146.4080  130.8789  149.9731 H   0  0  0  0  0  0  0  0  0  0  0  0
  143.5713  134.5157  149.6367 H   0  0  0  0  0  0  0  0  0  0  0  0
  142.8417  134.1535  151.2039 H   0  0  0  0  0  0  0  0  0  0  0  0
  144.8268  136.2927  150.4829 H   0  0  0  0  0  0  0  0  0  0  0  0
  143.5031  136.4047  151.6385 H   0  0  0  0  0  0  0  0  0  0  0  0
  144.7188  135.2151  153.3021 H   0  0  0  0  0  0  0  0  0  0  0  0
  147.2461  136.0824  152.1635 H   0  0  0  0  0  0  0  0  0  0  0  0
  148.1432  137.7502  152.7125 H   0  0  0  0  0  0  0  0  0  0  0  0
  145.4199  142.3788  155.3391 H   0  0  0  0  0  0  0  0  0  0  0  0
  146.8057  143.4241  155.4676 H   0  0  0  0  0  0  0  0  0  0  0  0
  145.1998  144.3018  153.7842 H   0  0  0  0  0  0  0  0  0  0  0  0
  145.3139  142.8062  152.8598 H   0  0  0  0  0  0  0  0  0  0  0  0
  146.7127  143.8711  152.9920 H   0  0  0  0  0  0  0  0  0  0  0  0
  149.2033  142.2548  155.1337 H   0  0  0  0  0  0  0  0  0  0  0  0
  145.9888  133.3220  152.7591 H   0  0  0  0  0  0  0  0  0  0  0  0
  146.7395  134.0851  151.3539 H   0  0  0  0  0  0  0  0  0  0  0  0
  1  2  1  0  0  0  0
  1 21  1  0  0  0  0
  1 22  1  0  0  0  0
  1 23  1  0  0  0  0
  2  3  1  0  0  0  0
  2 24  1  0  0  0  0
  2 25  1  0  0  0  0
  3  4  2  0  0  0  0
  3  5  1  0  0  0  0
  5 20  1  0  0  0  0
  5  6  1  0  0  0  0
  6  7  1  0  0  0  0
  6 26  1  0  0  0  0
  6 27  1  0  0  0  0
  7  8  1  0  0  0  0
  7 28  1  0  0  0  0
  7 29  1  0  0  0  0
  8  9  1  0  0  0  0
  8 20  1  0  0  0  0
  8 30  1  0  0  0  0
  9 10  1  0  0  0  0
  9 31  1  0  0  0  0
 10 11  2  0  0  0  0
 10 12  1  0  0  0  0
 12 13  1  0  0  0  0
 12 32  1  0  0  0  0
 13 19  1  0  0  0  0
 13 14  2  0  0  0  0
 14 15  1  0  0  0  0
 15 16  1  0  0  0  0
 15 18  2  0  0  0  0
 16 17  1  0  0  0  0
 16 33  1  0  0  0  0
 16 34  1  0  0  0  0
 17 35  1  0  0  0  0
 17 36  1  0  0  0  0
 17 37  1  0  0  0  0
 18 19  1  0  0  0  0
 18 38  1  0  0  0  0
 20 39  1  0  0  0  0
 20 40  1  0  0  0  0
M  END
> <s_m_source_file>
AV-unprocessed.smi

> <i_m_source_file_index>
2906

> <i_lp_mmshare_version>
43012

> <i_f3d_flags>
0

> <s_epik_input>
W0NIM11bQ0gyXUMoPU8pTjFbQ0gyXVtDSDJdW0NASF0oW0NIMl0xKVtOSF1DKD1PKVtOSF1jMm5jKFtjSF1zMilbQ0gyXVtDSDNd

> <s_epik_cmdline>
J2VwaWtfcHl0aG9uJywgJy1waCcsICc3LjAnLCAnLXRuJywgJzgnLCAnLW1hJywgJzIwMCcsICctbWV0YWxfYmluZGluZycsICctaW1hZScsICc8aW5maWxlLm1hZT4nLCAnLW9tYWUnLCAnPG91dGZpbGUubWFlPic=

> <r_lp_tautomer_probability>
1

> <r_epik_Ionization_Penalty>
0.000174744

> <r_epik_Ionization_Penalty_Charging>
0

> <r_epik_Ionization_Penalty_Neutral>
0.000174744

> <r_epik_State_Penalty>
-0

> <r_epik_Charging_Adjusted_Penalty>
0

> <i_epik_Tot_Q>
0

> <i_epik_Tot_abs_Q>
0

> <r_epik_Metal_State_Penalty>
0.0273865

> <b_epik_Metal_Only>
0

> <s_lp_Force_Field>
OPLS_2005

> <r_lp_Energy>
21.1229

> <b_lp_Chiralities_Consistent>
1

> <s_lp_Variant>
AV-unprocessed.smi:2906-2

> <Gold.Version>
5.8.1

> <Gold.Id.Protein>
6NUR|6NUR_protein|mol2

> <Gold.PLP.Fitness>
46.1306

> <Gold.PLP.PLP>
-35.6932

> <Gold.PLP.part.hbond>
-3.0000

> <Gold.PLP.part.metal>
0.0000

> <Gold.PLP.part.buried>
-3.0109

> <Gold.PLP.part.nonpolar>
-30.5115

> <Gold.PLP.part.repulsive>
0.5519

> <Gold.PLP.ligand.clash>
0.0000

> <Gold.PLP.ligand.torsion>
0.4804

> <Gold.PLP.Chemscore.Hbond>
2.7956

> <Gold.PLP.Chemscore.CHOScore>
1.0000

> <Gold.PLP.Chemscore.Metal>
0.0000

> <Gold.Chemscore.Hbonds>
donor molecule, donor type, donor heavy atom, donor atom, acceptor molecule, acceptor atom, score
      L1  H     9    31       P1  7948  1.00
      L1  H    12    32       P1  7948  1.00
      P1  H 10785 10796       L1     4  0.78
      L1  C    18    38       P1  8028  0.99

> <Gold.PLP.Chemscore.Internal.Correction>
0.0115

> <Gold.Rescore>
     Score         DG    S(hbond)    S(metal)    S(lipo)     H(rot)  DE(clash)    DE(int)     intcor
     17.45     -19.35       2.79        0.00      69.63       1.41       0.31       1.58       ----

> <Gold.Chemscore.Fitness>
17.4522

> <Gold.Chemscore.DG>
-19.3456

> <Gold.Chemscore.ZeroCoef>
-5.4800

> <Gold.Chemscore.Hbond>
2.7932

> <Gold.Chemscore.Metal>
0.0000

> <Gold.Chemscore.Lipo>
69.6285

> <Gold.Chemscore.Internal_Hbond>
0.0000

> <Gold.Chemscore.DEClash>
0.3145

> <Gold.Chemscore.DEInternal>
1.5789

> <Gold.Chemscore.Rot>
1.4102

> <Gold.Chemscore.Internal.Correction>
   9.000000E+99

> <Gold.Chemscore.Hbonds>
donor molecule, donor type, donor heavy atom, donor atom, acceptor molecule, acceptor atom, score
      L1  H     9    31       P1  7948  0.99
      L1  H    12    32       P1  7948  0.96
      P1  H 10785 10796       L1     4  0.74

> <Gold.Chemscore.Hbond.Weighted>
-9.3291

> <Gold.Chemscore.Metal.Weighted>
-0.0000

> <Gold.Chemscore.Lipo.Weighted>
-8.1465

> <Gold.Chemscore.Internal_Hbond.Weighted>
0.0000

> <Gold.Chemscore.DEClash.Weighted>
0.3145

> <Gold.Chemscore.DEInternal.Weighted>
1.5789

> <Gold.Chemscore.Rot.Weighted>
3.6101

> <Gold.Chemscore.Internal.Correction.Weighted>
   9.000000E+99

> <Gold.Protein.RotatedTorsions>
[ 6907 6896 6895 6894 ] final  -10.95 input  -60.11 | X-H torsion
[ 7974 7965 7964 7962 ] final   77.90 input  175.53 | X-H torsion
[ 8008 7997 7996 7995 ] final  138.25 input   59.86 | X-H torsion
[ 10167 10162 10161 10158 ] final -164.08 input  -65.29 | X-H torsion
[ 10718 10713 10712 10709 ] final   49.20 input   66.30 | X-H torsion
[ 10763 10752 10751 10750 ] final   74.71 input  -60.55 | X-H torsion
[ 11005 11000 10999 10996 ] final   61.61 input  -57.11 | X-H torsion

> <Gold.Protein.ActiveResidues>
 VAL166  LYS551  ARG553  GLY616  TRP617  ASP618  TYR619  PRO620  LYS621  CYS622 
 ASP623  PHE694  ASN695  SER759  ASP760  ASP761  ALA762  ILE779  LEU786  VAL792 
 PHE793  MET794  SER795  GLU796  ALA797  LYS798  CYS799  TRP800  GLU811  SER814 

> <Gold.Protein.RotatedAtoms>
  151.3939  135.0960  159.9534 H   0  0  0  0  0  0  0  0  0  0  0  0  # atno 6907 bound_to 6896
  152.5071  133.8954  159.7425 H   0  0  0  0  0  0  0  0  0  0  0  0  # atno 6908 bound_to 6896
  150.9413  133.6597  159.2819 H   0  0  0  0  0  0  0  0  0  0  0  0  # atno 6909 bound_to 6896
  145.6841  139.2532  143.1797 H   0  0  0  0  0  0  0  0  0  0  0  0  # atno 7974 bound_to 7965
  156.2998  140.2398  156.4043 H   0  0  0  0  0  0  0  0  0  0  0  0  # atno 8008 bound_to 7997
  154.8499  140.0424  157.1617 H   0  0  0  0  0  0  0  0  0  0  0  0  # atno 8009 bound_to 7997
  154.9010  140.2977  155.5321 H   0  0  0  0  0  0  0  0  0  0  0  0  # atno 8010 bound_to 7997
  139.6275  144.0503  152.1988 H   0  0  0  0  0  0  0  0  0  0  0  0  # atno 10167 bound_to 10162
  157.4763  130.8287  149.8043 H   0  0  0  0  0  0  0  0  0  0  0  0  # atno 10718 bound_to 10713
  153.0605  135.5015  154.8083 H   0  0  0  0  0  0  0  0  0  0  0  0  # atno 10763 bound_to 10752
  154.6876  135.2979  154.9528 H   0  0  0  0  0  0  0  0  0  0  0  0  # atno 10764 bound_to 10752
  154.0294  135.6731  153.4832 H   0  0  0  0  0  0  0  0  0  0  0  0  # atno 10765 bound_to 10752
  140.0149  134.6240  155.9725 H   0  0  0  0  0  0  0  0  0  0  0  0  # atno 11005 bound_to 11000
  146.0939  140.7624  142.9582 LP  0  0  0  0  0  0  0  0  0  0  0  0  # atno 17320 bound_to 7965
  144.7017  140.3680  143.7151 LP  0  0  0  0  0  0  0  0  0  0  0  0  # atno 17321 bound_to 7965
  140.0160  144.6188  150.7606 LP  0  0  0  0  0  0  0  0  0  0  0  0  # atno 17342 bound_to 10162
  140.7420  143.2825  151.3556 LP  0  0  0  0  0  0  0  0  0  0  0  0  # atno 17343 bound_to 10162
  156.0098  130.3838  150.2302 LP  0  0  0  0  0  0  0  0  0  0  0  0  # atno 17370 bound_to 10713
  157.0487  131.0056  151.3261 LP  0  0  0  0  0  0  0  0  0  0  0  0  # atno 17371 bound_to 10713
  141.1736  133.6538  156.4743 LP  0  0  0  0  0  0  0  0  0  0  0  0  # atno 17394 bound_to 11000
  140.4489  134.6947  157.5029 LP  0  0  0  0  0  0  0  0  0  0  0  0  # atno 17395 bound_to 11000

$$$$
