AV-unprocessed.smi:2433|AV-procd|sdf|9589|dock7
  -GOLD-   2272013223D 1   1.00000     0.00000
 Structure written by MMmdl.
 38 40  0  0  0  0  0  0  0  0  1 V2000
  150.7993  140.4388  155.2605 O   0  0  0  0  0  0  0  0  0  0  0  0
  150.4604  141.1721  156.1899 C   0  0  0  0  0  0  0  0  0  0  0  0
  151.3017  142.2638  156.6800 C   0  0  0  0  0  0  0  0  0  0  0  0
  150.8902  143.0591  157.6955 C   0  0  0  0  0  0  0  0  0  0  0  0
  151.7831  144.1908  158.2021 C   0  0  0  0  0  0  0  0  0  0  0  0
  153.1146  143.8034  158.8775 C   0  0  0  0  0  0  0  0  0  0  0  0
  152.4047  143.8888  160.2325 C   0  0  0  0  0  0  0  0  0  0  0  0
  151.3386  144.7606  159.5596 C   0  0  0  0  0  0  0  0  0  0  0  0
  149.6484  142.8412  158.3060 N   0  0  0  0  0  0  0  0  0  0  0  0
  148.8842  141.8811  157.8927 C   0  0  0  0  0  0  0  0  0  0  0  0
  149.2689  141.0299  156.8398 N   0  0  0  0  0  0  0  0  0  0  0  0
  148.3128  139.9738  156.4689 C   0  0  0  0  0  0  0  0  0  0  0  0
  146.8472  140.3927  156.7188 C   0  0  2  0  0  0  0  0  0  0  0  0
  146.0215  139.2510  156.5974 O   0  0  0  0  0  0  0  0  0  0  0  0
  146.4251  141.4883  155.7516 C   0  0  0  0  0  0  0  0  0  0  0  0
  147.2577  141.8219  154.6617 C   0  0  0  0  0  0  0  0  0  0  0  0
  146.8693  142.8249  153.7524 C   0  0  0  0  0  0  0  0  0  0  0  0
  145.6444  143.4975  153.9252 C   0  0  0  0  0  0  0  0  0  0  0  0
  145.2704  144.4599  153.0491 F   0  0  0  0  0  0  0  0  0  0  0  0
  144.8079  143.1670  155.0084 C   0  0  0  0  0  0  0  0  0  0  0  0
  145.1960  142.1646  155.9187 C   0  0  0  0  0  0  0  0  0  0  0  0
  152.2637  142.4360  156.2192 H   0  0  0  0  0  0  0  0  0  0  0  0
  151.9085  144.9613  157.4404 H   0  0  0  0  0  0  0  0  0  0  0  0
  153.5268  142.8240  158.6356 H   0  0  0  0  0  0  0  0  0  0  0  0
  153.8735  144.5789  158.7637 H   0  0  0  0  0  0  0  0  0  0  0  0
  152.0130  142.9261  160.5650 H   0  0  0  0  0  0  0  0  0  0  0  0
  152.9750  144.3871  161.0167 H   0  0  0  0  0  0  0  0  0  0  0  0
  151.5491  145.8270  159.6552 H   0  0  0  0  0  0  0  0  0  0  0  0
  150.3139  144.5286  159.8531 H   0  0  0  0  0  0  0  0  0  0  0  0
  147.9047  141.6764  158.3284 H   0  0  0  0  0  0  0  0  0  0  0  0
  148.4474  139.7621  155.4060 H   0  0  0  0  0  0  0  0  0  0  0  0
  148.5295  139.0237  156.9620 H   0  0  0  0  0  0  0  0  0  0  0  0
  146.7307  140.7739  157.7343 H   0  0  0  0  0  0  0  0  0  0  0  0
  146.5479  138.4832  156.7607 H   0  0  0  0  0  0  0  0  0  0  0  0
  148.1967  141.3076  154.5172 H   0  0  0  0  0  0  0  0  0  0  0  0
  147.5106  143.0762  152.9204 H   0  0  0  0  0  0  0  0  0  0  0  0
  143.8667  143.6802  155.1400 H   0  0  0  0  0  0  0  0  0  0  0  0
  144.5447  141.9141  156.7432 H   0  0  0  0  0  0  0  0  0  0  0  0
  1  2  2  0  0  0  0
  2 11  1  0  0  0  0
  2  3  1  0  0  0  0
  3  4  2  0  0  0  0
  3 22  1  0  0  0  0
  4  5  1  0  0  0  0
  4  9  1  0  0  0  0
  5  8  1  0  0  0  0
  5  6  1  0  0  0  0
  5 23  1  0  0  0  0
  6  7  1  0  0  0  0
  6 24  1  0  0  0  0
  6 25  1  0  0  0  0
  7  8  1  0  0  0  0
  7 26  1  0  0  0  0
  7 27  1  0  0  0  0
  8 28  1  0  0  0  0
  8 29  1  0  0  0  0
  9 10  2  0  0  0  0
 10 11  1  0  0  0  0
 10 30  1  0  0  0  0
 11 12  1  0  0  0  0
 12 13  1  0  0  0  0
 12 31  1  0  0  0  0
 12 32  1  0  0  0  0
 13 14  1  0  0  0  0
 13 15  1  0  0  0  0
 13 33  1  0  0  0  0
 14 34  1  0  0  0  0
 15 21  1  0  0  0  0
 15 16  2  0  0  0  0
 16 17  1  0  0  0  0
 16 35  1  0  0  0  0
 17 18  2  0  0  0  0
 17 36  1  0  0  0  0
 18 19  1  0  0  0  0
 18 20  1  0  0  0  0
 20 21  2  0  0  0  0
 20 37  1  0  0  0  0
 21 38  1  0  0  0  0
M  END
> <s_m_source_file>
AV-unprocessed.smi

> <i_m_source_file_index>
2433

> <i_lp_mmshare_version>
43012

> <i_f3d_flags>
0

> <s_epik_input>
W0NIMl0xW0NIMl1bQ0gyXVtDSF0xYyhbY0hdYzI9TyluW2NIXW4yW0NIMl1bQ0BIXShbT0hdKWMzW2NIXVtjSF1jKEYpW2NIXVtjSF0z

> <s_epik_cmdline>
J2VwaWtfcHl0aG9uJywgJy1waCcsICc3LjAnLCAnLXRuJywgJzgnLCAnLW1hJywgJzIwMCcsICctbWV0YWxfYmluZGluZycsICctaW1hZScsICc8aW5maWxlLm1hZT4nLCAnLW9tYWUnLCAnPG91dGZpbGUubWFlPic=

> <r_lp_tautomer_probability>
1

> <r_epik_Ionization_Penalty>
2.57762e-05

> <r_epik_Ionization_Penalty_Charging>
5.39435e-08

> <r_epik_Ionization_Penalty_Neutral>
2.57223e-05

> <r_epik_State_Penalty>
-0

> <r_epik_Charging_Adjusted_Penalty>
5.39435e-08

> <i_epik_Tot_Q>
0

> <i_epik_Tot_abs_Q>
0

> <r_epik_Metal_State_Penalty>
-0

> <b_epik_Metal_Only>
0

> <s_lp_Force_Field>
OPLS_2005

> <r_lp_Energy>
28.7145

> <b_lp_Chiralities_Consistent>
1

> <s_lp_Variant>
AV-unprocessed.smi:2433-1

> <Gold.Version>
5.8.1

> <Gold.Id.Protein>
6NUR|6NUR_protein|mol2

> <Gold.PLP.Fitness>
44.6897

> <Gold.PLP.PLP>
-42.8840

> <Gold.PLP.part.hbond>
-1.0000

> <Gold.PLP.part.metal>
0.0000

> <Gold.PLP.part.buried>
-6.4749

> <Gold.PLP.part.nonpolar>
-35.6499

> <Gold.PLP.part.repulsive>
0.2074

> <Gold.PLP.ligand.clash>
0.0000

> <Gold.PLP.ligand.torsion>
0.7924

> <Gold.PLP.Chemscore.Hbond>
1.0000

> <Gold.PLP.Chemscore.CHOScore>
0.0000

> <Gold.PLP.Chemscore.Metal>
0.0000

> <Gold.Chemscore.Hbonds>
donor molecule, donor type, donor heavy atom, donor atom, acceptor molecule, acceptor atom, score
      P1  H  7989  7998       L1     1  1.00

> <Gold.PLP.Chemscore.Internal.Correction>
0.3904

> <Gold.Rescore>
     Score         DG    S(hbond)    S(metal)    S(lipo)     H(rot)  DE(clash)    DE(int)     intcor
     13.45     -14.69       0.95        0.00      98.21       2.14       0.34       0.90       ----

> <Gold.Chemscore.Fitness>
13.4503

> <Gold.Chemscore.DG>
-14.6862

> <Gold.Chemscore.ZeroCoef>
-5.4800

> <Gold.Chemscore.Hbond>
0.9541

> <Gold.Chemscore.Metal>
0.0000

> <Gold.Chemscore.Lipo>
98.2062

> <Gold.Chemscore.Internal_Hbond>
0.0000

> <Gold.Chemscore.DEClash>
0.3397

> <Gold.Chemscore.DEInternal>
0.8963

> <Gold.Chemscore.Rot>
2.1370

> <Gold.Chemscore.Internal.Correction>
   9.000000E+99

> <Gold.Chemscore.Hbonds>
donor molecule, donor type, donor heavy atom, donor atom, acceptor molecule, acceptor atom, score
      P1  H  7989  7998       L1     1  0.92

> <Gold.Chemscore.Hbond.Weighted>
-3.1868

> <Gold.Chemscore.Metal.Weighted>
-0.0000

> <Gold.Chemscore.Lipo.Weighted>
-11.4901

> <Gold.Chemscore.Internal_Hbond.Weighted>
0.0000

> <Gold.Chemscore.DEClash.Weighted>
0.3397

> <Gold.Chemscore.DEInternal.Weighted>
0.8963

> <Gold.Chemscore.Rot.Weighted>
5.4707

> <Gold.Chemscore.Internal.Correction.Weighted>
   9.000000E+99

> <Gold.Protein.RotatedTorsions>
[ 6907 6896 6895 6894 ] final   46.92 input  -60.11 | X-H torsion
[ 7974 7965 7964 7962 ] final -126.35 input  175.53 | X-H torsion
[ 8008 7997 7996 7995 ] final  -74.88 input   59.86 | X-H torsion
[ 10167 10162 10161 10158 ] final  159.40 input  -65.29 | X-H torsion
[ 10718 10713 10712 10709 ] final  -72.11 input   66.30 | X-H torsion
[ 10763 10752 10751 10750 ] final   95.99 input  -60.55 | X-H torsion
[ 11005 11000 10999 10996 ] final   30.73 input  -57.11 | X-H torsion

> <Gold.Protein.ActiveResidues>
 VAL166  LYS551  ARG553  GLY616  TRP617  ASP618  TYR619  PRO620  LYS621  CYS622 
 ASP623  PHE694  ASN695  SER759  ASP760  ASP761  ALA762  ILE779  LEU786  VAL792 
 PHE793  MET794  SER795  GLU796  ALA797  LYS798  CYS799  TRP800  GLU811  SER814 

> <Gold.Protein.RotatedAtoms>
  152.2621  134.8023  160.0428 H   0  0  0  0  0  0  0  0  0  0  0  0  # atno 6907 bound_to 6896
  151.8666  133.3462  159.3729 H   0  0  0  0  0  0  0  0  0  0  0  0  # atno 6908 bound_to 6896
  150.7120  134.5081  159.5638 H   0  0  0  0  0  0  0  0  0  0  0  0  # atno 6909 bound_to 6896
  144.9882  140.7706  143.4570 H   0  0  0  0  0  0  0  0  0  0  0  0  # atno 7974 bound_to 7965
  154.5369  140.0753  156.8442 H   0  0  0  0  0  0  0  0  0  0  0  0  # atno 8008 bound_to 7997
  155.3260  140.3399  155.4222 H   0  0  0  0  0  0  0  0  0  0  0  0  # atno 8009 bound_to 7997
  156.1836  140.1661  156.8213 H   0  0  0  0  0  0  0  0  0  0  0  0  # atno 8010 bound_to 7997
  139.4832  144.4734  151.8545 H   0  0  0  0  0  0  0  0  0  0  0  0  # atno 10167 bound_to 10162
  156.0334  130.4365  150.2545 H   0  0  0  0  0  0  0  0  0  0  0  0  # atno 10718 bound_to 10713
  153.2596  135.4234  155.0881 H   0  0  0  0  0  0  0  0  0  0  0  0  # atno 10763 bound_to 10752
  154.8415  135.3446  154.6396 H   0  0  0  0  0  0  0  0  0  0  0  0  # atno 10764 bound_to 10752
  153.6817  135.7038  153.5173 H   0  0  0  0  0  0  0  0  0  0  0  0  # atno 10765 bound_to 10752
  140.2914  134.2860  155.7775 H   0  0  0  0  0  0  0  0  0  0  0  0  # atno 11005 bound_to 11000
  145.2323  139.2109  143.5036 LP  0  0  0  0  0  0  0  0  0  0  0  0  # atno 17320 bound_to 7965
  146.3425  140.2203  142.8591 LP  0  0  0  0  0  0  0  0  0  0  0  0  # atno 17321 bound_to 7965
  140.4204  144.2251  150.5887 LP  0  0  0  0  0  0  0  0  0  0  0  0  # atno 17342 bound_to 10162
  140.4879  143.2357  151.8861 LP  0  0  0  0  0  0  0  0  0  0  0  0  # atno 17343 bound_to 10162
  157.0646  131.0099  151.3211 LP  0  0  0  0  0  0  0  0  0  0  0  0  # atno 17370 bound_to 10713
  157.5045  130.7900  149.7639 LP  0  0  0  0  0  0  0  0  0  0  0  0  # atno 17371 bound_to 10713
  141.2145  133.7587  156.9630 LP  0  0  0  0  0  0  0  0  0  0  0  0  # atno 17394 bound_to 11000
  140.1192  134.9427  157.2179 LP  0  0  0  0  0  0  0  0  0  0  0  0  # atno 17395 bound_to 11000

$$$$
