AV-unprocessed.smi:1047|AV-procd|sdf|4566|dock10
  -GOLD-   22720 3 13D 1   1.00000     0.00000
 Structure written by MMmdl.
 57 59  0  0  0  0  0  0  0  0  3 V2000
  143.5198  145.8598  158.5462 C   0  0  0  0  0  0  0  0  0  0  0  0
  144.4379  145.0330  157.6352 C   0  0  0  0  0  0  0  0  0  0  0  0
  143.6773  144.1488  156.7122 N   0  3  1  0  0  0  0  0  0  0  0  0
  142.8544  144.8913  155.7267 C   0  0  0  0  0  0  0  0  0  0  0  0
  143.7206  145.4358  154.5774 C   0  0  0  0  0  0  0  0  0  0  0  0
  144.4221  144.3609  153.9641 O   0  0  0  0  0  0  0  0  0  0  0  0
  145.3115  143.6990  154.8577 C   0  0  2  0  0  0  0  0  0  0  0  0
  146.0514  142.6221  154.0461 C   0  0  0  0  0  0  0  0  0  0  0  0
  147.3172  142.2125  154.6894 N   0  3  0  0  0  0  0  0  0  0  0  0
  148.1261  141.2794  153.8789 C   0  0  0  0  0  0  0  0  0  0  0  0
  149.2801  140.6778  154.6979 C   0  0  1  0  0  0  0  0  0  0  0  0
  150.1187  139.9456  153.8243 O   0  0  0  0  0  0  0  0  0  0  0  0
  150.1065  141.7677  155.4080 C   0  0  0  0  0  0  0  0  0  0  0  0
  150.9323  141.2348  156.4774 N   0  0  0  0  0  0  0  0  0  0  0  0
  151.4557  139.9961  156.5550 C   0  0  0  0  0  0  0  0  0  0  0  0
  152.1870  139.7099  157.6278 N   0  0  0  0  0  0  0  0  0  0  0  0
  152.1260  140.8996  158.3329 C   0  0  0  0  0  0  0  0  0  0  0  0
  152.6964  141.2598  159.5732 C   0  0  0  0  0  0  0  0  0  0  0  0
  152.5004  142.5505  160.1137 C   0  0  0  0  0  0  0  0  0  0  0  0
  153.1291  142.8931  161.4531 C   0  0  0  0  0  0  0  0  0  0  0  0
  151.7231  143.5049  159.4096 C   0  0  0  0  0  0  0  0  0  0  0  0
  151.4972  144.8973  159.9720 C   0  0  0  0  0  0  0  0  0  0  0  0
  151.1480  143.1625  158.1678 C   0  0  0  0  0  0  0  0  0  0  0  0
  151.3485  141.8741  157.6411 C   0  0  0  0  0  0  0  0  0  0  0  0
  144.4904  143.1088  156.0291 C   0  0  0  0  0  0  0  0  0  0  0  0
  144.1035  146.5657  159.1375 H   0  0  0  0  0  0  0  0  0  0  0  0
  142.9644  145.2367  159.2464 H   0  0  0  0  0  0  0  0  0  0  0  0
  142.8010  146.4360  157.9628 H   0  0  0  0  0  0  0  0  0  0  0  0
  145.0306  145.7330  157.0450 H   0  0  0  0  0  0  0  0  0  0  0  0
  145.1485  144.4600  158.2306 H   0  0  0  0  0  0  0  0  0  0  0  0
  142.1061  144.2092  155.3208 H   0  0  0  0  0  0  0  0  0  0  0  0
  142.3012  145.6964  156.2118 H   0  0  0  0  0  0  0  0  0  0  0  0
  143.0887  145.9137  153.8286 H   0  0  0  0  0  0  0  0  0  0  0  0
  144.4212  146.1940  154.9303 H   0  0  0  0  0  0  0  0  0  0  0  0
  146.0421  144.4214  155.2251 H   0  0  0  0  0  0  0  0  0  0  0  0
  145.4119  141.7501  153.9023 H   0  0  0  0  0  0  0  0  0  0  0  0
  146.2825  143.0132  153.0542 H   0  0  0  0  0  0  0  0  0  0  0  0
  147.8723  143.0352  154.8769 H   0  0  0  0  0  0  0  0  0  0  0  0
  147.4908  140.4867  153.4806 H   0  0  0  0  0  0  0  0  0  0  0  0
  148.5263  141.8263  153.0241 H   0  0  0  0  0  0  0  0  0  0  0  0
  148.8796  139.9918  155.4459 H   0  0  0  0  0  0  0  0  0  0  0  0
  149.7085  139.9108  152.9725 H   0  0  0  0  0  0  0  0  0  0  0  0
  150.7485  142.2864  154.6947 H   0  0  0  0  0  0  0  0  0  0  0  0
  149.4455  142.5230  155.8351 H   0  0  0  0  0  0  0  0  0  0  0  0
  151.2931  139.2638  155.7777 H   0  0  0  0  0  0  0  0  0  0  0  0
  153.2873  140.5321  160.1099 H   0  0  0  0  0  0  0  0  0  0  0  0
  152.3562  143.0740  162.2001 H   0  0  0  0  0  0  0  0  0  0  0  0
  153.7475  143.7870  161.3709 H   0  0  0  0  0  0  0  0  0  0  0  0
  153.7623  142.0826  161.8147 H   0  0  0  0  0  0  0  0  0  0  0  0
  150.8319  145.4808  159.3353 H   0  0  0  0  0  0  0  0  0  0  0  0
  152.4426  145.4343  160.0503 H   0  0  0  0  0  0  0  0  0  0  0  0
  151.0467  144.8421  160.9629 H   0  0  0  0  0  0  0  0  0  0  0  0
  150.5549  143.8817  157.6224 H   0  0  0  0  0  0  0  0  0  0  0  0
  145.1369  142.5939  156.7384 H   0  0  0  0  0  0  0  0  0  0  0  0
  143.8059  142.3519  155.6435 H   0  0  0  0  0  0  0  0  0  0  0  0
  147.1043  141.7580  155.5664 H   0  0  0  0  0  0  0  0  0  0  0  0
  143.0195  143.6599  157.3034 H   0  0  0  0  0  0  0  0  0  0  0  0
  1  2  1  0  0  0  0
  1 26  1  0  0  0  0
  1 27  1  0  0  0  0
  1 28  1  0  0  0  0
  2  3  1  0  0  0  0
  2 29  1  0  0  0  0
  2 30  1  0  0  0  0
  3 25  1  0  0  0  0
  3  4  1  0  0  0  0
  3 57  1  0  0  0  0
  4  5  1  0  0  0  0
  4 31  1  0  0  0  0
  4 32  1  0  0  0  0
  5  6  1  0  0  0  0
  5 33  1  0  0  0  0
  5 34  1  0  0  0  0
  6  7  1  0  0  0  0
  7  8  1  0  0  0  0
  7 25  1  0  0  0  0
  7 35  1  0  0  0  0
  8  9  1  0  0  0  0
  8 36  1  0  0  0  0
  8 37  1  0  0  0  0
  9 10  1  0  0  0  0
  9 38  1  0  0  0  0
  9 56  1  0  0  0  0
 10 11  1  0  0  0  0
 10 39  1  0  0  0  0
 10 40  1  0  0  0  0
 11 12  1  0  0  0  0
 11 13  1  0  0  0  0
 11 41  1  0  0  0  0
 12 42  1  0  0  0  0
 13 14  1  0  0  0  0
 13 43  1  0  0  0  0
 13 44  1  0  0  0  0
 14 24  1  0  0  0  0
 14 15  1  0  0  0  0
 15 16  2  0  0  0  0
 15 45  1  0  0  0  0
 16 17  1  0  0  0  0
 17 24  2  0  0  0  0
 17 18  1  0  0  0  0
 18 19  2  0  0  0  0
 18 46  1  0  0  0  0
 19 20  1  0  0  0  0
 19 21  1  0  0  0  0
 20 47  1  0  0  0  0
 20 48  1  0  0  0  0
 20 49  1  0  0  0  0
 21 22  1  0  0  0  0
 21 23  2  0  0  0  0
 22 50  1  0  0  0  0
 22 51  1  0  0  0  0
 22 52  1  0  0  0  0
 23 24  1  0  0  0  0
 23 53  1  0  0  0  0
 25 54  1  0  0  0  0
 25 55  1  0  0  0  0
M  CHG  1   3   1
M  CHG  1   9   1
M  END
> <s_m_source_file>
AV-unprocessed.smi

> <i_m_source_file_index>
1047

> <i_lp_mmshare_version>
43012

> <i_f3d_flags>
0

> <s_epik_input>
W0NIM11bQ0gyXU4xW0NIMl1bQ0gyXU9bQ0BIXShbQ0gyXTEpW0NIMl1bTkhdW0NIMl1bQ0BIXShbT0hdKVtDSDJdbihbY0hdbjIpYyhjMjMpW2NIXWMoW0NIM10pYyhbY0hdMylbQ0gzXQ==

> <s_epik_cmdline>
J2VwaWtfcHl0aG9uJywgJy1waCcsICc3LjAnLCAnLXRuJywgJzgnLCAnLW1hJywgJzIwMCcsICctbWV0YWxfYmluZGluZycsICctaW1hZScsICc8aW5maWxlLm1hZT4nLCAnLW9tYWUnLCAnPG91dGZpbGUubWFlPic=

> <r_epik_Ionization_Penalty>
0.528991

> <r_epik_Ionization_Penalty_Charging>
0.438567

> <r_epik_Ionization_Penalty_Neutral>
0.0904237

> <r_epik_State_Penalty>
0.533036

> <r_epik_Charging_Adjusted_Penalty>
0.971603

> <i_epik_Tot_Q>
2

> <i_epik_Tot_abs_Q>
2

> <r_epik_Metal_State_Penalty>
0.448985

> <b_epik_Metal_Only>
0

> <s_lp_Force_Field>
OPLS_2005

> <r_lp_Energy>
33.3507

> <b_lp_Chiralities_Consistent>
1

> <s_lp_Variant>
AV-unprocessed.smi:1047-7

> <Gold.Version>
5.8.1

> <Gold.Id.Protein>
6NUR|6NUR_protein|mol2

> <Gold.PLP.Fitness>
62.8327

> <Gold.PLP.PLP>
-52.6538

> <Gold.PLP.part.hbond>
-3.0000

> <Gold.PLP.part.metal>
0.0000

> <Gold.PLP.part.buried>
-7.7987

> <Gold.PLP.part.nonpolar>
-41.9555

> <Gold.PLP.part.repulsive>
0.2731

> <Gold.PLP.ligand.clash>
0.0000

> <Gold.PLP.ligand.torsion>
0.8448

> <Gold.PLP.Chemscore.Hbond>
3.8800

> <Gold.PLP.Chemscore.CHOScore>
0.0000

> <Gold.PLP.Chemscore.Metal>
0.0000

> <Gold.Chemscore.Hbonds>
donor molecule, donor type, donor heavy atom, donor atom, acceptor molecule, acceptor atom, score
      L1  H     9    38       P1  8028  1.76
      L1  H    12    42       P1  7957  1.00
      P1  H  7989  7998       L1    12  0.88

> <Gold.PLP.Chemscore.Internal.Correction>
0.2286

> <Gold.Rescore>
     Score         DG    S(hbond)    S(metal)    S(lipo)     H(rot)  DE(clash)    DE(int)     intcor
     18.48     -20.65       1.82        0.00     136.69       2.70       0.31       1.85       ----

> <Gold.Chemscore.Fitness>
18.4820

> <Gold.Chemscore.DG>
-20.6479

> <Gold.Chemscore.ZeroCoef>
-5.4800

> <Gold.Chemscore.Hbond>
1.8214

> <Gold.Chemscore.Metal>
0.0000

> <Gold.Chemscore.Lipo>
136.6882

> <Gold.Chemscore.Internal_Hbond>
0.0000

> <Gold.Chemscore.DEClash>
0.3137

> <Gold.Chemscore.DEInternal>
1.8523

> <Gold.Chemscore.Rot>
2.6985

> <Gold.Chemscore.Internal.Correction>
   9.000000E+99

> <Gold.Chemscore.Hbonds>
donor molecule, donor type, donor heavy atom, donor atom, acceptor molecule, acceptor atom, score
      L1  H     9    38       P1  8028  0.73
      L1  H    12    42       P1  7957  0.99
      P1  H  7989  7998       L1    12  0.20

> <Gold.Chemscore.Hbond.Weighted>
-6.0836

> <Gold.Chemscore.Metal.Weighted>
-0.0000

> <Gold.Chemscore.Lipo.Weighted>
-15.9925

> <Gold.Chemscore.Internal_Hbond.Weighted>
0.0000

> <Gold.Chemscore.DEClash.Weighted>
0.3137

> <Gold.Chemscore.DEInternal.Weighted>
1.8523

> <Gold.Chemscore.Rot.Weighted>
6.9081

> <Gold.Chemscore.Internal.Correction.Weighted>
   9.000000E+99

> <Gold.Protein.RotatedTorsions>
[ 6907 6896 6895 6894 ] final  122.23 input  -60.11 | X-H torsion
[ 7974 7965 7964 7962 ] final    5.99 input  175.53 | X-H torsion
[ 8008 7997 7996 7995 ] final  149.06 input   59.86 | X-H torsion
[ 10167 10162 10161 10158 ] final  -21.39 input  -65.29 | X-H torsion
[ 10718 10713 10712 10709 ] final -115.73 input   66.30 | X-H torsion
[ 10763 10752 10751 10750 ] final  103.16 input  -60.55 | X-H torsion
[ 11005 11000 10999 10996 ] final  -32.26 input  -57.11 | X-H torsion

> <Gold.Protein.ActiveResidues>
 VAL166  LYS551  ARG553  GLY616  TRP617  ASP618  TYR619  PRO620  LYS621  CYS622 
 ASP623  PHE694  ASN695  SER759  ASP760  ASP761  ALA762  ILE779  LEU786  VAL792 
 PHE793  MET794  SER795  GLU796  ALA797  LYS798  CYS799  TRP800  GLU811  SER814 

> <Gold.Protein.RotatedAtoms>
  152.4259  133.7194  159.6524 H   0  0  0  0  0  0  0  0  0  0  0  0  # atno 6907 bound_to 6896
  150.8136  133.8367  159.3177 H   0  0  0  0  0  0  0  0  0  0  0  0  # atno 6908 bound_to 6896
  151.6070  135.1045  160.0124 H   0  0  0  0  0  0  0  0  0  0  0  0  # atno 6909 bound_to 6896
  146.2437  140.0301  142.8390 H   0  0  0  0  0  0  0  0  0  0  0  0  # atno 7974 bound_to 7965
  156.2769  140.2112  156.5797 H   0  0  0  0  0  0  0  0  0  0  0  0  # atno 8008 bound_to 7997
  154.7068  140.0515  157.0535 H   0  0  0  0  0  0  0  0  0  0  0  0  # atno 8009 bound_to 7997
  155.0659  140.3171  155.4648 H   0  0  0  0  0  0  0  0  0  0  0  0  # atno 8010 bound_to 7997
  140.7281  143.4632  151.0350 H   0  0  0  0  0  0  0  0  0  0  0  0  # atno 10167 bound_to 10162
  156.0916  130.6097  150.8944 H   0  0  0  0  0  0  0  0  0  0  0  0  # atno 10718 bound_to 10713
  153.3491  135.3986  155.1632 H   0  0  0  0  0  0  0  0  0  0  0  0  # atno 10763 bound_to 10752
  154.8659  135.3652  154.5246 H   0  0  0  0  0  0  0  0  0  0  0  0  # atno 10764 bound_to 10752
  153.5696  135.7079  153.5570 H   0  0  0  0  0  0  0  0  0  0  0  0  # atno 10765 bound_to 10752
  140.9537  133.7205  156.1260 H   0  0  0  0  0  0  0  0  0  0  0  0  # atno 11005 bound_to 11000
  145.1163  140.9435  143.4627 LP  0  0  0  0  0  0  0  0  0  0  0  0  # atno 17320 bound_to 7965
  145.0526  139.3169  143.5921 LP  0  0  0  0  0  0  0  0  0  0  0  0  # atno 17321 bound_to 7965
  139.8319  143.7680  152.3180 LP  0  0  0  0  0  0  0  0  0  0  0  0  # atno 17342 bound_to 10162
  139.7798  144.7448  151.0104 LP  0  0  0  0  0  0  0  0  0  0  0  0  # atno 17343 bound_to 10162
  157.6066  131.0938  150.8868 LP  0  0  0  0  0  0  0  0  0  0  0  0  # atno 17370 bound_to 10713
  156.9016  130.5248  149.5282 LP  0  0  0  0  0  0  0  0  0  0  0  0  # atno 17371 bound_to 10713
  140.7566  134.3986  157.5533 LP  0  0  0  0  0  0  0  0  0  0  0  0  # atno 17394 bound_to 11000
  139.8855  134.8934  156.2637 LP  0  0  0  0  0  0  0  0  0  0  0  0  # atno 17395 bound_to 11000

$$$$
