AV-unprocessed.smi:1880|AV-procd|sdf|7638|dock2
  -GOLD-   22720 9363D 1   1.00000     0.00000
 Structure written by MMmdl.
 37 39  0  0  0  0  0  0  0  0  2 V2000
  153.0818  138.5453  154.6552 O   0  0  0  0  0  0  0  0  0  0  0  0
  151.7165  138.7956  154.9263 C   0  0  1  0  0  0  0  0  0  0  0  0
  150.9266  137.5009  154.6813 C   0  0  0  0  0  0  0  0  0  0  0  0
  151.5847  136.4359  155.3458 O   0  0  0  0  0  0  0  0  0  0  0  0
  150.7060  135.6500  156.1353 C   0  0  0  0  0  0  0  0  0  0  0  0
  150.4084  134.3972  155.3749 C   0  0  0  0  0  0  0  0  0  0  0  0
  150.7975  133.0956  155.5355 C   0  0  0  0  0  0  0  0  0  0  0  0
  150.1704  132.3555  154.4953 C   0  0  0  0  0  0  0  0  0  0  0  0
  149.4370  133.2587  153.7803 C   0  0  0  0  0  0  0  0  0  0  0  0
  149.5679  134.5073  154.3049 O   0  0  0  0  0  0  0  0  0  0  0  0
  151.5812  139.2902  156.3801 C   0  0  0  0  0  0  0  0  0  0  0  0
  151.1469  140.6909  156.4651 N   0  0  0  0  0  0  0  0  0  0  0  0
  150.4076  141.4315  155.5952 C   0  0  0  0  0  0  0  0  0  0  0  0
  150.2657  142.6752  156.1323 N   0  3  0  0  0  0  0  0  0  0  0  0
  150.9239  142.7294  157.3633 C   0  0  0  0  0  0  0  0  0  0  0  0
  151.0616  143.7667  158.2800 C   0  0  0  0  0  0  0  0  0  0  0  0
  151.8005  143.4878  159.4487 C   0  0  0  0  0  0  0  0  0  0  0  0
  151.9651  144.4623  160.3741 F   0  0  0  0  0  0  0  0  0  0  0  0
  152.3697  142.2159  159.6714 C   0  0  0  0  0  0  0  0  0  0  0  0
  153.0709  141.9903  160.8074 F   0  0  0  0  0  0  0  0  0  0  0  0
  152.2233  141.1715  158.7344 C   0  0  0  0  0  0  0  0  0  0  0  0
  151.4923  141.4573  157.5826 C   0  0  0  0  0  0  0  0  0  0  0  0
  153.1470  138.1483  153.7995 H   0  0  0  0  0  0  0  0  0  0  0  0
  151.3600  139.5727  154.2492 H   0  0  0  0  0  0  0  0  0  0  0  0
  149.8908  137.6012  155.0111 H   0  0  0  0  0  0  0  0  0  0  0  0
  150.9067  137.2768  153.6134 H   0  0  0  0  0  0  0  0  0  0  0  0
  151.1685  135.4074  157.0931 H   0  0  0  0  0  0  0  0  0  0  0  0
  149.7816  136.1931  156.3351 H   0  0  0  0  0  0  0  0  0  0  0  0
  151.4556  132.7223  156.3063 H   0  0  0  0  0  0  0  0  0  0  0  0
  150.2439  131.2964  154.2972 H   0  0  0  0  0  0  0  0  0  0  0  0
  148.7949  133.1873  152.9148 H   0  0  0  0  0  0  0  0  0  0  0  0
  150.8751  138.6758  156.9400 H   0  0  0  0  0  0  0  0  0  0  0  0
  152.5382  139.2120  156.8983 H   0  0  0  0  0  0  0  0  0  0  0  0
  150.0016  141.0912  154.6533 H   0  0  0  0  0  0  0  0  0  0  0  0
  150.6269  144.7413  158.1142 H   0  0  0  0  0  0  0  0  0  0  0  0
  152.6613  140.2010  158.9146 H   0  0  0  0  0  0  0  0  0  0  0  0
  149.7538  143.4277  155.6895 H   0  0  0  0  0  0  0  0  0  0  0  0
  1  2  1  0  0  0  0
  1 23  1  0  0  0  0
  2  3  1  0  0  0  0
  2 11  1  0  0  0  0
  2 24  1  0  0  0  0
  3  4  1  0  0  0  0
  3 25  1  0  0  0  0
  3 26  1  0  0  0  0
  4  5  1  0  0  0  0
  5  6  1  0  0  0  0
  5 27  1  0  0  0  0
  5 28  1  0  0  0  0
  6 10  1  0  0  0  0
  6  7  2  0  0  0  0
  7  8  1  0  0  0  0
  7 29  1  0  0  0  0
  8  9  2  0  0  0  0
  8 30  1  0  0  0  0
  9 10  1  0  0  0  0
  9 31  1  0  0  0  0
 11 12  1  0  0  0  0
 11 32  1  0  0  0  0
 11 33  1  0  0  0  0
 12 22  1  0  0  0  0
 12 13  1  0  0  0  0
 13 14  2  0  0  0  0
 13 34  1  0  0  0  0
 14 15  1  0  0  0  0
 14 37  1  0  0  0  0
 15 22  2  0  0  0  0
 15 16  1  0  0  0  0
 16 17  2  0  0  0  0
 16 35  1  0  0  0  0
 17 18  1  0  0  0  0
 17 19  1  0  0  0  0
 19 20  1  0  0  0  0
 19 21  2  0  0  0  0
 21 22  1  0  0  0  0
 21 36  1  0  0  0  0
M  CHG  1  14   1
M  END
> <s_m_source_file>
AV-unprocessed.smi

> <i_m_source_file_index>
1880

> <i_lp_mmshare_version>
43012

> <i_f3d_flags>
0

> <s_epik_input>
W2NIXTFjKEYpYyhGKVtjSF1jKGMxMiluKFtjSF1uMilbQ0gyXVtDQEhdKFtPSF0pW0NIMl1PW0NIMl1jM1tjSF1bY0hdW2NIXW8z

> <s_epik_cmdline>
J2VwaWtfcHl0aG9uJywgJy1waCcsICc3LjAnLCAnLXRuJywgJzgnLCAnLW1hJywgJzIwMCcsICctbWV0YWxfYmluZGluZycsICctaW1hZScsICc8aW5maWxlLm1hZT4nLCAnLW9tYWUnLCAnPG91dGZpbGUubWFlPic=

> <r_epik_Ionization_Penalty>
2.17656

> <r_epik_Ionization_Penalty_Charging>
2.17656

> <r_epik_Ionization_Penalty_Neutral>
9.34185e-07

> <r_epik_State_Penalty>
2.31826

> <r_epik_Charging_Adjusted_Penalty>
4.49482

> <i_epik_Tot_Q>
1

> <i_epik_Tot_abs_Q>
1

> <r_epik_Metal_State_Penalty>
6.39906

> <b_epik_Metal_Only>
0

> <s_lp_Force_Field>
OPLS_2005

> <r_lp_Energy>
11.8532

> <b_lp_Chiralities_Consistent>
1

> <s_lp_Variant>
AV-unprocessed.smi:1880-4

> <Gold.Version>
5.8.1

> <Gold.Id.Protein>
6NUR|6NUR_protein|mol2

> <Gold.PLP.Fitness>
55.8774

> <Gold.PLP.PLP>
-50.7156

> <Gold.PLP.part.hbond>
-1.9623

> <Gold.PLP.part.metal>
0.0000

> <Gold.PLP.part.buried>
-7.9348

> <Gold.PLP.part.nonpolar>
-41.5051

> <Gold.PLP.part.repulsive>
0.4009

> <Gold.PLP.ligand.clash>
0.0000

> <Gold.PLP.ligand.torsion>
1.9486

> <Gold.PLP.Chemscore.Hbond>
3.0000

> <Gold.PLP.Chemscore.CHOScore>
0.0000

> <Gold.PLP.Chemscore.Metal>
0.0000

> <Gold.Chemscore.Hbonds>
donor molecule, donor type, donor heavy atom, donor atom, acceptor molecule, acceptor atom, score
      L1  H    14    37       P1  8028  2.00
      P1  H 10752 10765       L1     4  1.00

> <Gold.PLP.Chemscore.Internal.Correction>
0.0591

> <Gold.Rescore>
     Score         DG    S(hbond)    S(metal)    S(lipo)     H(rot)  DE(clash)    DE(int)     intcor
     16.16     -18.15       2.40        0.00     104.05       2.94       0.00       1.99       ----

> <Gold.Chemscore.Fitness>
16.1589

> <Gold.Chemscore.DG>
-18.1514

> <Gold.Chemscore.ZeroCoef>
-5.4800

> <Gold.Chemscore.Hbond>
2.4000

> <Gold.Chemscore.Metal>
0.0000

> <Gold.Chemscore.Lipo>
104.0497

> <Gold.Chemscore.Internal_Hbond>
0.0000

> <Gold.Chemscore.DEClash>
0.0000

> <Gold.Chemscore.DEInternal>
1.9925

> <Gold.Chemscore.Rot>
2.9369

> <Gold.Chemscore.Internal.Correction>
   9.000000E+99

> <Gold.Chemscore.Hbonds>
donor molecule, donor type, donor heavy atom, donor atom, acceptor molecule, acceptor atom, score
      L1  H    14    37       P1  8028  0.94
      P1  H 10752 10765       L1     4  0.82

> <Gold.Chemscore.Hbond.Weighted>
-8.0161

> <Gold.Chemscore.Metal.Weighted>
-0.0000

> <Gold.Chemscore.Lipo.Weighted>
-12.1738

> <Gold.Chemscore.Internal_Hbond.Weighted>
0.0000

> <Gold.Chemscore.DEClash.Weighted>
0.0000

> <Gold.Chemscore.DEInternal.Weighted>
1.9925

> <Gold.Chemscore.Rot.Weighted>
7.5185

> <Gold.Chemscore.Internal.Correction.Weighted>
   9.000000E+99

> <Gold.Protein.RotatedTorsions>
[ 6907 6896 6895 6894 ] final  -59.05 input  -60.11 | X-H torsion
[ 7974 7965 7964 7962 ] final   66.11 input  175.53 | X-H torsion
[ 8008 7997 7996 7995 ] final  -94.48 input   59.86 | X-H torsion
[ 10167 10162 10161 10158 ] final   92.00 input  -65.29 | X-H torsion
[ 10718 10713 10712 10709 ] final -103.77 input   66.30 | X-H torsion
[ 10763 10752 10751 10750 ] final -161.80 input  -60.55 | X-H torsion
[ 11005 11000 10999 10996 ] final  -50.59 input  -57.11 | X-H torsion

> <Gold.Protein.ActiveResidues>
 VAL166  LYS551  ARG553  GLY616  TRP617  ASP618  TYR619  PRO620  LYS621  CYS622 
 ASP623  PHE694  ASN695  SER759  ASP760  ASP761  ALA762  ILE779  LEU786  VAL792 
 PHE793  MET794  SER795  GLU796  ALA797  LYS798  CYS799  TRP800  GLU811  SER814 

> <Gold.Protein.RotatedAtoms>
  150.7960  134.7020  159.6554 H   0  0  0  0  0  0  0  0  0  0  0  0  # atno 6907 bound_to 6896
  152.4072  134.6183  160.0054 H   0  0  0  0  0  0  0  0  0  0  0  0  # atno 6908 bound_to 6896
  151.6437  133.3287  159.3172 H   0  0  0  0  0  0  0  0  0  0  0  0  # atno 6909 bound_to 6896
  145.8305  139.3136  143.0990 H   0  0  0  0  0  0  0  0  0  0  0  0  # atno 7974 bound_to 7965
  154.7490  140.0489  157.0877 H   0  0  0  0  0  0  0  0  0  0  0  0  # atno 8008 bound_to 7997
  155.0081  140.3132  155.4821 H   0  0  0  0  0  0  0  0  0  0  0  0  # atno 8009 bound_to 7997
  156.2881  140.2189  156.5194 H   0  0  0  0  0  0  0  0  0  0  0  0  # atno 8010 bound_to 7997
  139.8320  144.6683  150.9389 H   0  0  0  0  0  0  0  0  0  0  0  0  # atno 10167 bound_to 10162
  156.0278  130.5483  150.7301 H   0  0  0  0  0  0  0  0  0  0  0  0  # atno 10718 bound_to 10713
  154.7271  135.3038  154.8953 H   0  0  0  0  0  0  0  0  0  0  0  0  # atno 10763 bound_to 10752
  153.9807  135.6730  153.4754 H   0  0  0  0  0  0  0  0  0  0  0  0  # atno 10764 bound_to 10752
  153.0885  135.4972  154.8563 H   0  0  0  0  0  0  0  0  0  0  0  0  # atno 10765 bound_to 10752
  141.0824  133.6650  156.3753 H   0  0  0  0  0  0  0  0  0  0  0  0  # atno 11005 bound_to 11000
  145.9576  140.8861  143.0227 LP  0  0  0  0  0  0  0  0  0  0  0  0  # atno 17320 bound_to 7965
  144.6740  140.1767  143.7409 LP  0  0  0  0  0  0  0  0  0  0  0  0  # atno 17321 bound_to 7965
  140.7806  143.3992  151.1177 LP  0  0  0  0  0  0  0  0  0  0  0  0  # atno 17342 bound_to 10162
  139.7645  143.8585  152.3107 LP  0  0  0  0  0  0  0  0  0  0  0  0  # atno 17343 bound_to 10162
  157.4896  131.0909  151.0442 LP  0  0  0  0  0  0  0  0  0  0  0  0  # atno 17370 bound_to 10713
  157.0853  130.5920  149.5428 LP  0  0  0  0  0  0  0  0  0  0  0  0  # atno 17371 bound_to 10713
  140.5439  134.6094  157.5388 LP  0  0  0  0  0  0  0  0  0  0  0  0  # atno 17394 bound_to 11000
  139.9639  134.7406  156.0179 LP  0  0  0  0  0  0  0  0  0  0  0  0  # atno 17395 bound_to 11000

$$$$
