AV-unprocessed.smi:3006|AV-procd|sdf|11444|dock6
  -GOLD-   2272016373D 1   1.00000     0.00000
 Structure written by MMmdl.
 45 46  0  0  0  0  0  0  0  0  2 V2000
  153.2423  142.0800  160.7337 C   0  0  0  0  0  0  0  0  0  0  0  0
  152.5238  142.6132  159.5419 C   0  0  0  0  0  0  0  0  0  0  0  0
  151.9667  141.8393  158.6068 N   0  0  0  0  0  0  0  0  0  0  0  0
  151.3460  142.5793  157.5953 C   0  0  0  0  0  0  0  0  0  0  0  0
  150.6586  141.8734  156.4663 C   0  0  0  0  0  0  0  0  0  0  0  0
  149.5980  140.8791  156.9660 C   0  0  0  0  0  0  0  0  0  0  0  0
  148.4788  140.7768  156.0366 N   0  0  0  0  0  0  0  0  0  0  0  0
  148.5872  140.5604  154.7148 C   0  0  0  0  0  0  0  0  0  0  0  0
  149.6774  140.4078  154.1628 O   0  0  0  0  0  0  0  0  0  0  0  0
  147.4057  140.4904  154.0515 N   0  0  0  0  0  0  0  0  0  0  0  0
  147.2227  140.3165  152.6068 C   0  0  0  0  0  0  0  0  0  0  0  0
  146.7741  138.8697  152.3303 C   0  0  0  0  0  0  0  0  0  0  0  0
  145.5498  138.4903  153.1010 N   0  3  0  0  0  0  0  0  0  0  0  0
  145.1312  137.0675  152.8827 C   0  0  0  0  0  0  0  0  0  0  0  0
  145.5046  136.5543  151.4765 C   0  0  0  0  0  0  0  0  0  0  0  0
  143.6175  136.8561  153.0970 C   0  0  0  0  0  0  0  0  0  0  0  0
  145.6525  138.8621  154.5453 C   0  0  0  0  0  0  0  0  0  0  0  0
  146.1316  140.3109  154.7457 C   0  0  0  0  0  0  0  0  0  0  0  0
  151.4471  143.9361  157.7776 C   0  0  0  0  0  0  0  0  0  0  0  0
  152.3233  144.3331  159.2303 S   0  0  0  0  0  0  0  0  0  0  0  0
  153.2918  140.9911  160.6981 H   0  0  0  0  0  0  0  0  0  0  0  0
  152.7226  142.3764  161.6447 H   0  0  0  0  0  0  0  0  0  0  0  0
  154.2578  142.4750  160.7641 H   0  0  0  0  0  0  0  0  0  0  0  0
  150.1925  142.6051  155.8051 H   0  0  0  0  0  0  0  0  0  0  0  0
  151.3939  141.3469  155.8565 H   0  0  0  0  0  0  0  0  0  0  0  0
  150.0384  139.8873  157.0728 H   0  0  0  0  0  0  0  0  0  0  0  0
  149.2410  141.1665  157.9566 H   0  0  0  0  0  0  0  0  0  0  0  0
  147.5532  140.8749  156.4280 H   0  0  0  0  0  0  0  0  0  0  0  0
  146.4604  141.0143  152.2568 H   0  0  0  0  0  0  0  0  0  0  0  0
  148.1114  140.5454  152.0186 H   0  0  0  0  0  0  0  0  0  0  0  0
  146.5939  138.7824  151.2600 H   0  0  0  0  0  0  0  0  0  0  0  0
  147.5838  138.1808  152.5770 H   0  0  0  0  0  0  0  0  0  0  0  0
  145.6575  136.4492  153.6117 H   0  0  0  0  0  0  0  0  0  0  0  0
  145.0956  135.5587  151.3008 H   0  0  0  0  0  0  0  0  0  0  0  0
  146.5820  136.4641  151.3410 H   0  0  0  0  0  0  0  0  0  0  0  0
  145.1156  137.2105  150.6972 H   0  0  0  0  0  0  0  0  0  0  0  0
  143.3212  135.8426  152.8253 H   0  0  0  0  0  0  0  0  0  0  0  0
  143.0287  137.5438  152.4891 H   0  0  0  0  0  0  0  0  0  0  0  0
  143.3255  136.9847  154.1390 H   0  0  0  0  0  0  0  0  0  0  0  0
  144.6848  138.7671  155.0356 H   0  0  0  0  0  0  0  0  0  0  0  0
  146.3366  138.1750  155.0465 H   0  0  0  0  0  0  0  0  0  0  0  0
  146.1965  140.5389  155.8107 H   0  0  0  0  0  0  0  0  0  0  0  0
  145.3965  141.0089  154.3418 H   0  0  0  0  0  0  0  0  0  0  0  0
  151.0583  144.7234  157.1488 H   0  0  0  0  0  0  0  0  0  0  0  0
  144.8060  139.0628  152.7277 H   0  0  0  0  0  0  0  0  0  0  0  0
  1  2  1  0  0  0  0
  1 21  1  0  0  0  0
  1 22  1  0  0  0  0
  1 23  1  0  0  0  0
  2 20  1  0  0  0  0
  2  3  2  0  0  0  0
  3  4  1  0  0  0  0
  4  5  1  0  0  0  0
  4 19  2  0  0  0  0
  5  6  1  0  0  0  0
  5 24  1  0  0  0  0
  5 25  1  0  0  0  0
  6  7  1  0  0  0  0
  6 26  1  0  0  0  0
  6 27  1  0  0  0  0
  7  8  1  0  0  0  0
  7 28  1  0  0  0  0
  8  9  2  0  0  0  0
  8 10  1  0  0  0  0
 10 18  1  0  0  0  0
 10 11  1  0  0  0  0
 11 12  1  0  0  0  0
 11 29  1  0  0  0  0
 11 30  1  0  0  0  0
 12 13  1  0  0  0  0
 12 31  1  0  0  0  0
 12 32  1  0  0  0  0
 13 14  1  0  0  0  0
 13 17  1  0  0  0  0
 13 45  1  0  0  0  0
 14 15  1  0  0  0  0
 14 16  1  0  0  0  0
 14 33  1  0  0  0  0
 15 34  1  0  0  0  0
 15 35  1  0  0  0  0
 15 36  1  0  0  0  0
 16 37  1  0  0  0  0
 16 38  1  0  0  0  0
 16 39  1  0  0  0  0
 17 18  1  0  0  0  0
 17 40  1  0  0  0  0
 17 41  1  0  0  0  0
 18 42  1  0  0  0  0
 18 43  1  0  0  0  0
 19 20  1  0  0  0  0
 19 44  1  0  0  0  0
M  CHG  1  13   1
M  END
> <s_m_source_file>
AV-unprocessed.smi

> <i_m_source_file_index>
3006

> <i_lp_mmshare_version>
43012

> <i_f3d_flags>
0

> <s_epik_input>
W0NIM11jMW5jKFtjSF1zMSlbQ0gyXVtDSDJdW05IXUMoPU8pTjJbQ0gyXVtDSDJdTihbQ0hdKFtDSDNdKVtDSDNdKVtDSDJdW0NIMl0y

> <s_epik_cmdline>
J2VwaWtfcHl0aG9uJywgJy1waCcsICc3LjAnLCAnLXRuJywgJzgnLCAnLW1hJywgJzIwMCcsICctbWV0YWxfYmluZGluZycsICctaW1hZScsICc8aW5maWxlLm1hZT4nLCAnLW9tYWUnLCAnPG91dGZpbGUubWFlPic=

> <r_epik_Ionization_Penalty>
0.155723

> <r_epik_Ionization_Penalty_Charging>
0.153999

> <r_epik_Ionization_Penalty_Neutral>
0.00172372

> <r_epik_State_Penalty>
0.139716

> <r_epik_Charging_Adjusted_Penalty>
0.293715

> <i_epik_Tot_Q>
1

> <i_epik_Tot_abs_Q>
1

> <r_epik_Metal_State_Penalty>
0.138566

> <b_epik_Metal_Only>
0

> <s_lp_Force_Field>
OPLS_2005

> <r_lp_Energy>
45.5874

> <b_lp_Chiralities_Consistent>
1

> <s_lp_Variant>
AV-unprocessed.smi:3006-1

> <Gold.Version>
5.8.1

> <Gold.Id.Protein>
6NUR|6NUR_protein|mol2

> <Gold.PLP.Fitness>
47.6701

> <Gold.PLP.PLP>
-39.4093

> <Gold.PLP.part.hbond>
-2.0000

> <Gold.PLP.part.metal>
0.0000

> <Gold.PLP.part.buried>
-1.7095

> <Gold.PLP.part.nonpolar>
-37.7227

> <Gold.PLP.part.repulsive>
1.0954

> <Gold.PLP.ligand.clash>
1.1217

> <Gold.PLP.ligand.torsion>
0.8424

> <Gold.PLP.Chemscore.Hbond>
2.7296

> <Gold.PLP.Chemscore.CHOScore>
0.9260

> <Gold.PLP.Chemscore.Metal>
0.0000

> <Gold.Chemscore.Hbonds>
donor molecule, donor type, donor heavy atom, donor atom, acceptor molecule, acceptor atom, score
      L1  H    13    45       P1 10175  2.00
      P1  H  7989  7998       L1     9  0.61
      L1  C    19    44       P1  8028  0.84

> <Gold.PLP.Chemscore.Internal.Correction>
0.1006

> <Gold.Rescore>
     Score         DG    S(hbond)    S(metal)    S(lipo)     H(rot)  DE(clash)    DE(int)     intcor
     16.56     -20.08       1.72        0.00     106.95       1.42       1.71       1.82       ----

> <Gold.Chemscore.Fitness>
16.5551

> <Gold.Chemscore.DG>
-20.0796

> <Gold.Chemscore.ZeroCoef>
-5.4800

> <Gold.Chemscore.Hbond>
1.7152

> <Gold.Chemscore.Metal>
0.0000

> <Gold.Chemscore.Lipo>
106.9547

> <Gold.Chemscore.Internal_Hbond>
0.0000

> <Gold.Chemscore.DEClash>
1.7077

> <Gold.Chemscore.DEInternal>
1.8168

> <Gold.Chemscore.Rot>
1.4230

> <Gold.Chemscore.Internal.Correction>
   9.000000E+99

> <Gold.Chemscore.Hbonds>
donor molecule, donor type, donor heavy atom, donor atom, acceptor molecule, acceptor atom, score
      L1  H    13    45       P1 10175  1.00
      P1  H  7989  7998       L1     9  0.59

> <Gold.Chemscore.Hbond.Weighted>
-5.7289

> <Gold.Chemscore.Metal.Weighted>
-0.0000

> <Gold.Chemscore.Lipo.Weighted>
-12.5137

> <Gold.Chemscore.Internal_Hbond.Weighted>
0.0000

> <Gold.Chemscore.DEClash.Weighted>
1.7077

> <Gold.Chemscore.DEInternal.Weighted>
1.8168

> <Gold.Chemscore.Rot.Weighted>
3.6430

> <Gold.Chemscore.Internal.Correction.Weighted>
   9.000000E+99

> <Gold.Protein.RotatedTorsions>
[ 6907 6896 6895 6894 ] final  155.63 input  -60.11 | X-H torsion
[ 7974 7965 7964 7962 ] final   15.18 input  175.53 | X-H torsion
[ 8008 7997 7996 7995 ] final  -75.78 input   59.86 | X-H torsion
[ 10167 10162 10161 10158 ] final   12.62 input  -65.29 | X-H torsion
[ 10718 10713 10712 10709 ] final   23.15 input   66.30 | X-H torsion
[ 10763 10752 10751 10750 ] final -152.35 input  -60.55 | X-H torsion
[ 11005 11000 10999 10996 ] final  120.23 input  -57.11 | X-H torsion

> <Gold.Protein.ActiveResidues>
 VAL166  LYS551  ARG553  GLY616  TRP617  ASP618  TYR619  PRO620  LYS621  CYS622 
 ASP623  PHE694  ASN695  SER759  ASP760  ASP761  ALA762  ILE779  LEU786  VAL792 
 PHE793  MET794  SER795  GLU796  ALA797  LYS798  CYS799  TRP800  GLU811  SER814 

> <Gold.Protein.RotatedAtoms>
  152.0414  133.3979  159.4338 H   0  0  0  0  0  0  0  0  0  0  0  0  # atno 6907 bound_to 6896
  150.6875  134.3411  159.4877 H   0  0  0  0  0  0  0  0  0  0  0  0  # atno 6908 bound_to 6896
  152.1209  134.9205  160.0613 H   0  0  0  0  0  0  0  0  0  0  0  0  # atno 6909 bound_to 6896
  146.2285  139.8931  142.8551 H   0  0  0  0  0  0  0  0  0  0  0  0  # atno 7974 bound_to 7965
  154.5447  140.0738  156.8568 H   0  0  0  0  0  0  0  0  0  0  0  0  # atno 8008 bound_to 7997
  155.3112  140.3390  155.4226 H   0  0  0  0  0  0  0  0  0  0  0  0  # atno 8009 bound_to 7997
  156.1907  140.1685  156.8084 H   0  0  0  0  0  0  0  0  0  0  0  0  # atno 8010 bound_to 7997
  140.6056  143.8515  150.7010 H   0  0  0  0  0  0  0  0  0  0  0  0  # atno 10167 bound_to 10162
  157.1622  130.6722  149.6048 H   0  0  0  0  0  0  0  0  0  0  0  0  # atno 10718 bound_to 10713
  154.7999  135.3238  154.7575 H   0  0  0  0  0  0  0  0  0  0  0  0  # atno 10763 bound_to 10752
  153.8245  135.6885  153.4827 H   0  0  0  0  0  0  0  0  0  0  0  0  # atno 10764 bound_to 10752
  153.1711  135.4623  154.9846 H   0  0  0  0  0  0  0  0  0  0  0  0  # atno 10765 bound_to 10752
  139.9177  134.9633  156.7776 H   0  0  0  0  0  0  0  0  0  0  0  0  # atno 11005 bound_to 11000
  145.2397  141.0004  143.3943 LP  0  0  0  0  0  0  0  0  0  0  0  0  # atno 17320 bound_to 7965
  144.9462  139.4134  143.6425 LP  0  0  0  0  0  0  0  0  0  0  0  0  # atno 17321 bound_to 7965
  140.2071  143.3913  152.1747 LP  0  0  0  0  0  0  0  0  0  0  0  0  # atno 17342 bound_to 10162
  139.5322  144.7172  151.5015 LP  0  0  0  0  0  0  0  0  0  0  0  0  # atno 17343 bound_to 10162
  155.9752  130.4708  150.6441 LP  0  0  0  0  0  0  0  0  0  0  0  0  # atno 17370 bound_to 10713
  157.4122  131.0825  151.1210 LP  0  0  0  0  0  0  0  0  0  0  0  0  # atno 17371 bound_to 10713
  140.6570  133.9679  155.7785 LP  0  0  0  0  0  0  0  0  0  0  0  0  # atno 17394 bound_to 11000
  141.0669  134.0263  157.3581 LP  0  0  0  0  0  0  0  0  0  0  0  0  # atno 17395 bound_to 11000

$$$$
