AV-unprocessed.smi:257|AV-procd|sdf|1963|dock10
  -GOLD-   2262021113D 1   1.00000     0.00000
 Structure written by MMmdl.
 50 53  0  0  0  0  0  0  0  0  1 V2000
  153.1210  143.2046  163.2447 C   0  0  0  0  0  0  0  0  0  0  0  0
  152.8234  143.4440  161.8412 N   0  0  0  0  0  0  0  0  0  0  0  0
  153.1977  142.6333  160.8413 C   0  0  0  0  0  0  0  0  0  0  0  0
  153.8278  141.5902  161.0227 O   0  0  0  0  0  0  0  0  0  0  0  0
  152.7847  143.0719  159.4243 C   0  0  2  0  0  0  0  0  0  0  0  0
  152.5051  144.5836  159.3581 C   0  0  0  0  0  0  0  0  0  0  0  0
  151.0118  144.7096  159.6544 C   0  0  0  0  0  0  0  0  0  0  0  0
  150.4265  143.4522  159.0132 C   0  0  0  0  0  0  0  0  0  0  0  0
  151.5132  142.4777  159.0098 N   0  0  0  0  0  0  0  0  0  0  0  0
  151.3516  141.2068  158.5463 C   0  0  0  0  0  0  0  0  0  0  0  0
  152.4157  140.3641  158.6288 N   0  0  0  0  0  0  0  0  0  0  0  0
  152.3296  139.1062  158.1907 C   0  0  0  0  0  0  0  0  0  0  0  0
  151.2861  138.4863  157.6413 N   0  0  0  0  0  0  0  0  0  0  0  0
  150.2088  139.3164  157.5547 C   0  0  0  0  0  0  0  0  0  0  0  0
  150.1520  140.6779  157.9767 C   0  0  0  0  0  0  0  0  0  0  0  0
  148.8815  141.1833  157.7184 N   0  0  0  0  0  0  0  0  0  0  0  0
  148.2336  140.1890  157.1786 C   0  0  0  0  0  0  0  0  0  0  0  0
  148.9528  139.0242  157.0514 N   0  0  0  0  0  0  0  0  0  0  0  0
  148.4804  137.7673  156.4885 C   0  0  0  0  0  0  0  0  0  0  0  0
  148.7750  137.5999  154.9724 C   0  0  0  0  0  0  0  0  0  0  0  0
  147.9685  136.5384  154.4951 O   0  0  0  0  0  0  0  0  0  0  0  0
  148.3894  138.8606  154.1729 C   0  0  0  0  0  0  0  0  0  0  0  0
  149.4080  139.9970  154.3771 C   0  0  0  0  0  0  0  0  0  0  0  0
  150.7140  139.5486  154.0313 O   0  0  0  0  0  0  0  0  0  0  0  0
  151.1653  138.4686  154.8411 C   0  0  0  0  0  0  0  0  0  0  0  0
  150.2442  137.2502  154.6512 C   0  0  0  0  0  0  0  0  0  0  0  0
  152.6940  143.9994  163.8558 H   0  0  0  0  0  0  0  0  0  0  0  0
  154.1985  143.1854  163.4139 H   0  0  0  0  0  0  0  0  0  0  0  0
  152.6993  142.2544  163.5751 H   0  0  0  0  0  0  0  0  0  0  0  0
  152.3080  144.2819  161.6133 H   0  0  0  0  0  0  0  0  0  0  0  0
  153.5759  142.8305  158.7139 H   0  0  0  0  0  0  0  0  0  0  0  0
  153.1168  145.1722  160.0434 H   0  0  0  0  0  0  0  0  0  0  0  0
  152.7076  144.9468  158.3495 H   0  0  0  0  0  0  0  0  0  0  0  0
  150.8469  144.6885  160.7326 H   0  0  0  0  0  0  0  0  0  0  0  0
  150.5737  145.6285  159.2643 H   0  0  0  0  0  0  0  0  0  0  0  0
  149.5582  143.0958  159.5687 H   0  0  0  0  0  0  0  0  0  0  0  0
  150.1208  143.6528  157.9854 H   0  0  0  0  0  0  0  0  0  0  0  0
  153.2254  138.5120  158.2952 H   0  0  0  0  0  0  0  0  0  0  0  0
  147.2047  140.2768  156.8611 H   0  0  0  0  0  0  0  0  0  0  0  0
  148.9426  136.9548  157.0510 H   0  0  0  0  0  0  0  0  0  0  0  0
  147.4115  137.6922  156.6862 H   0  0  0  0  0  0  0  0  0  0  0  0
  148.1986  136.3682  153.5943 H   0  0  0  0  0  0  0  0  0  0  0  0
  148.3542  138.6241  153.1082 H   0  0  0  0  0  0  0  0  0  0  0  0
  147.3879  139.1974  154.4437 H   0  0  0  0  0  0  0  0  0  0  0  0
  149.1511  140.8439  153.7408 H   0  0  0  0  0  0  0  0  0  0  0  0
  149.3957  140.3636  155.4039 H   0  0  0  0  0  0  0  0  0  0  0  0
  152.1837  138.2137  154.5483 H   0  0  0  0  0  0  0  0  0  0  0  0
  151.2072  138.7790  155.8851 H   0  0  0  0  0  0  0  0  0  0  0  0
  150.5952  136.4102  155.2506 H   0  0  0  0  0  0  0  0  0  0  0  0
  150.3230  136.9269  153.6120 H   0  0  0  0  0  0  0  0  0  0  0  0
  1  2  1  0  0  0  0
  1 27  1  0  0  0  0
  1 28  1  0  0  0  0
  1 29  1  0  0  0  0
  2  3  1  0  0  0  0
  2 30  1  0  0  0  0
  3  4  2  0  0  0  0
  3  5  1  0  0  0  0
  5  9  1  0  0  0  0
  5  6  1  0  0  0  0
  5 31  1  0  0  0  0
  6  7  1  0  0  0  0
  6 32  1  0  0  0  0
  6 33  1  0  0  0  0
  7  8  1  0  0  0  0
  7 34  1  0  0  0  0
  7 35  1  0  0  0  0
  8  9  1  0  0  0  0
  8 36  1  0  0  0  0
  8 37  1  0  0  0  0
  9 10  1  0  0  0  0
 10 15  1  0  0  0  0
 10 11  2  0  0  0  0
 11 12  1  0  0  0  0
 12 13  2  0  0  0  0
 12 38  1  0  0  0  0
 13 14  1  0  0  0  0
 14 18  1  0  0  0  0
 14 15  2  0  0  0  0
 15 16  1  0  0  0  0
 16 17  2  0  0  0  0
 17 18  1  0  0  0  0
 17 39  1  0  0  0  0
 18 19  1  0  0  0  0
 19 20  1  0  0  0  0
 19 40  1  0  0  0  0
 19 41  1  0  0  0  0
 20 26  1  0  0  0  0
 20 21  1  0  0  0  0
 20 22  1  0  0  0  0
 21 42  1  0  0  0  0
 22 23  1  0  0  0  0
 22 43  1  0  0  0  0
 22 44  1  0  0  0  0
 23 24  1  0  0  0  0
 23 45  1  0  0  0  0
 23 46  1  0  0  0  0
 24 25  1  0  0  0  0
 25 26  1  0  0  0  0
 25 47  1  0  0  0  0
 25 48  1  0  0  0  0
 26 49  1  0  0  0  0
 26 50  1  0  0  0  0
M  END
> <s_m_source_file>
AV-unprocessed.smi

> <i_m_source_file_index>
257

> <i_lp_mmshare_version>
43012

> <i_f3d_flags>
0

> <s_epik_input>
W0NIM11bTkhdQyg9TylbQ0BASF0xW0NIMl1bQ0gyXVtDSDJdTjFjKG5bY0hdbjIpYyhjMjMpbltjSF1uM1tDSDJdQzQoW09IXSlbQ0gyXVtDSDJdT1tDSDJdW0NIMl00

> <s_epik_cmdline>
J2VwaWtfcHl0aG9uJywgJy1waCcsICc3LjAnLCAnLXRuJywgJzgnLCAnLW1hJywgJzIwMCcsICctbWV0YWxfYmluZGluZycsICctaW1hZScsICc8aW5maWxlLm1hZT4nLCAnLW9tYWUnLCAnPG91dGZpbGUubWFlPic=

> <r_lp_tautomer_probability>
1

> <r_epik_Ionization_Penalty>
0.000951012

> <r_epik_Ionization_Penalty_Charging>
0

> <r_epik_Ionization_Penalty_Neutral>
0.000951012

> <r_epik_State_Penalty>
0.000495984

> <r_epik_Charging_Adjusted_Penalty>
0.000495984

> <i_epik_Tot_Q>
0

> <i_epik_Tot_abs_Q>
0

> <r_epik_Metal_State_Penalty>
-0

> <b_epik_Metal_Only>
0

> <s_lp_Force_Field>
OPLS_2005

> <r_lp_Energy>
35.0404

> <b_lp_Chiralities_Consistent>
1

> <s_lp_Variant>
AV-unprocessed.smi:257-1

> <Gold.Version>
5.8.1

> <Gold.Id.Protein>
6NUR|6NUR_protein|mol2

> <Gold.PLP.Fitness>
44.5038

> <Gold.PLP.PLP>
-40.8898

> <Gold.PLP.part.hbond>
-2.0000

> <Gold.PLP.part.metal>
0.0000

> <Gold.PLP.part.buried>
-4.5132

> <Gold.PLP.part.nonpolar>
-34.0468

> <Gold.PLP.part.repulsive>
0.2784

> <Gold.PLP.ligand.clash>
0.0137

> <Gold.PLP.ligand.torsion>
1.2147

> <Gold.PLP.Chemscore.Hbond>
2.0000

> <Gold.PLP.Chemscore.CHOScore>
0.0000

> <Gold.PLP.Chemscore.Metal>
0.0000

> <Gold.Chemscore.Hbonds>
donor molecule, donor type, donor heavy atom, donor atom, acceptor molecule, acceptor atom, score
      L1  H    21    42       P1  7948  1.00
      P1  H  7989  7998       L1    24  1.00

> <Gold.PLP.Chemscore.Internal.Correction>
0.0570

> <Gold.Rescore>
     Score         DG    S(hbond)    S(metal)    S(lipo)     H(rot)  DE(clash)    DE(int)     intcor
      9.84     -16.14       1.94        0.00      85.76       2.29       0.13       6.17       ----

> <Gold.Chemscore.Fitness>
9.8404

> <Gold.Chemscore.DG>
-16.1360

> <Gold.Chemscore.ZeroCoef>
-5.4800

> <Gold.Chemscore.Hbond>
1.9406

> <Gold.Chemscore.Metal>
0.0000

> <Gold.Chemscore.Lipo>
85.7616

> <Gold.Chemscore.Internal_Hbond>
0.0000

> <Gold.Chemscore.DEClash>
0.1284

> <Gold.Chemscore.DEInternal>
6.1673

> <Gold.Chemscore.Rot>
2.2889

> <Gold.Chemscore.Internal.Correction>
   9.000000E+99

> <Gold.Chemscore.Hbonds>
donor molecule, donor type, donor heavy atom, donor atom, acceptor molecule, acceptor atom, score
      L1  H    21    42       P1  7948  1.00
      P1  H  7989  7998       L1    24  0.74

> <Gold.Chemscore.Hbond.Weighted>
-6.4815

> <Gold.Chemscore.Metal.Weighted>
-0.0000

> <Gold.Chemscore.Lipo.Weighted>
-10.0341

> <Gold.Chemscore.Internal_Hbond.Weighted>
0.0000

> <Gold.Chemscore.DEClash.Weighted>
0.1284

> <Gold.Chemscore.DEInternal.Weighted>
6.1673

> <Gold.Chemscore.Rot.Weighted>
5.8596

> <Gold.Chemscore.Internal.Correction.Weighted>
   9.000000E+99

> <Gold.Protein.RotatedTorsions>
[ 6907 6896 6895 6894 ] final   34.96 input  -60.11 | X-H torsion
[ 7974 7965 7964 7962 ] final  -84.26 input  175.53 | X-H torsion
[ 8008 7997 7996 7995 ] final  118.55 input   59.86 | X-H torsion
[ 10167 10162 10161 10158 ] final   75.69 input  -65.29 | X-H torsion
[ 10718 10713 10712 10709 ] final  151.78 input   66.30 | X-H torsion
[ 10763 10752 10751 10750 ] final -133.49 input  -60.55 | X-H torsion
[ 11005 11000 10999 10996 ] final   33.31 input  -57.11 | X-H torsion

> <Gold.Protein.ActiveResidues>
 VAL166  LYS551  ARG553  GLY616  TRP617  ASP618  TYR619  PRO620  LYS621  CYS622 
 ASP623  PHE694  ASN695  SER759  ASP760  ASP761  ALA762  ILE779  LEU786  VAL792 
 PHE793  MET794  SER795  GLU796  ALA797  LYS798  CYS799  TRP800  GLU811  SER814 

> <Gold.Protein.RotatedAtoms>
  152.1096  134.9284  160.0566 H   0  0  0  0  0  0  0  0  0  0  0  0  # atno 6907 bound_to 6896
  152.0467  133.3996  159.4368 H   0  0  0  0  0  0  0  0  0  0  0  0  # atno 6908 bound_to 6896
  150.6843  134.3275  159.4856 H   0  0  0  0  0  0  0  0  0  0  0  0  # atno 6909 bound_to 6896
  145.5090  140.9541  143.1717 H   0  0  0  0  0  0  0  0  0  0  0  0  # atno 7974 bound_to 7965
  156.2552  140.2872  156.0852 H   0  0  0  0  0  0  0  0  0  0  0  0  # atno 8008 bound_to 7997
  155.1523  140.0397  157.2841 H   0  0  0  0  0  0  0  0  0  0  0  0  # atno 8009 bound_to 7997
  154.6452  140.2531  155.7283 H   0  0  0  0  0  0  0  0  0  0  0  0  # atno 8010 bound_to 7997
  140.0002  144.5692  150.7743 H   0  0  0  0  0  0  0  0  0  0  0  0  # atno 10167 bound_to 10162
  157.2663  131.0808  151.1631 H   0  0  0  0  0  0  0  0  0  0  0  0  # atno 10718 bound_to 10713
  154.8732  135.3764  154.4581 H   0  0  0  0  0  0  0  0  0  0  0  0  # atno 10763 bound_to 10752
  153.5252  135.7028  153.5716 H   0  0  0  0  0  0  0  0  0  0  0  0  # atno 10764 bound_to 10752
  153.3945  135.3964  155.1911 H   0  0  0  0  0  0  0  0  0  0  0  0  # atno 10765 bound_to 10752
  140.2645  134.3154  155.7847 H   0  0  0  0  0  0  0  0  0  0  0  0  # atno 11005 bound_to 11000
  144.7737  139.6676  143.7184 LP  0  0  0  0  0  0  0  0  0  0  0  0  # atno 17320 bound_to 7965
  146.2178  139.5581  142.9638 LP  0  0  0  0  0  0  0  0  0  0  0  0  # atno 17321 bound_to 7965
  140.7421  143.2828  151.3550 LP  0  0  0  0  0  0  0  0  0  0  0  0  # atno 17342 bound_to 10162
  139.6277  144.0782  152.2449 LP  0  0  0  0  0  0  0  0  0  0  0  0  # atno 17343 bound_to 10162
  157.3121  130.6895  149.6221 LP  0  0  0  0  0  0  0  0  0  0  0  0  # atno 17370 bound_to 10713
  155.9663  130.4360  150.5117 LP  0  0  0  0  0  0  0  0  0  0  0  0  # atno 17371 bound_to 10713
  141.2186  133.7429  156.9238 LP  0  0  0  0  0  0  0  0  0  0  0  0  # atno 17394 bound_to 11000
  140.1433  134.9279  157.2495 LP  0  0  0  0  0  0  0  0  0  0  0  0  # atno 17395 bound_to 11000

$$$$
