AV-unprocessed.smi:693|AV-procd|sdf|3375|dock8
  -GOLD-   22720 0353D 1   1.00000     0.00000
 Structure written by MMmdl.
 47 48  0  0  0  0  0  0  0  0  2 V2000
  144.4084  131.4470  151.1819 C   0  0  0  0  0  0  0  0  0  0  0  0
  144.4397  132.9400  151.4320 C   0  0  0  0  0  0  0  0  0  0  0  0
  145.0604  133.8336  150.5335 C   0  0  0  0  0  0  0  0  0  0  0  0
  145.0550  135.2147  150.8208 C   0  0  0  0  0  0  0  0  0  0  0  0
  144.4293  135.6736  152.0006 C   0  0  0  0  0  0  0  0  0  0  0  0
  144.3947  137.1516  152.3360 C   0  0  0  0  0  0  0  0  0  0  0  0
  145.0826  137.4539  153.6771 C   0  0  0  0  0  0  0  0  0  0  0  0
  145.8786  138.6739  153.6103 N   0  0  0  0  0  0  0  0  0  0  0  0
  147.2032  138.7440  153.8282 C   0  0  0  0  0  0  0  0  0  0  0  0
  147.8744  137.7435  154.0864 O   0  0  0  0  0  0  0  0  0  0  0  0
  147.7356  139.9873  153.7130 N   0  0  0  0  0  0  0  0  0  0  0  0
  147.0005  141.2241  153.4031 C   0  0  0  0  0  0  0  0  0  0  0  0
  146.8545  142.0400  154.6982 C   0  0  0  0  0  0  0  0  0  0  0  0
  148.2297  142.3247  155.3319 C   0  0  0  0  0  0  0  0  0  0  0  0
  149.0912  141.0439  155.4728 C   0  0  2  0  0  0  0  0  0  0  0  0
  150.5308  141.3195  155.9641 C   0  0  0  0  0  0  0  0  0  0  0  0
  151.4337  140.0812  155.9668 C   0  0  0  0  0  0  0  0  0  0  0  0
  151.0671  139.0638  156.7502 N   0  0  0  0  0  0  0  0  0  0  0  0
  152.4350  140.0317  155.2557 O   0  0  0  0  0  0  0  0  0  0  0  0
  149.1129  140.2820  154.1283 C   0  0  0  0  0  0  0  0  0  0  0  0
  143.8255  134.7335  152.8629 C   0  0  0  0  0  0  0  0  0  0  0  0
  143.8530  133.4191  152.5523 N   0  3  0  0  0  0  0  0  0  0  0  0
  144.0443  131.2390  150.1755 H   0  0  0  0  0  0  0  0  0  0  0  0
  143.7548  130.9381  151.8914 H   0  0  0  0  0  0  0  0  0  0  0  0
  145.4103  131.0279  151.2776 H   0  0  0  0  0  0  0  0  0  0  0  0
  145.5339  133.4665  149.6342 H   0  0  0  0  0  0  0  0  0  0  0  0
  145.5234  135.9114  150.1409 H   0  0  0  0  0  0  0  0  0  0  0  0
  144.8773  137.7040  151.5284 H   0  0  0  0  0  0  0  0  0  0  0  0
  143.3578  137.4897  152.3618 H   0  0  0  0  0  0  0  0  0  0  0  0
  144.3346  137.5762  154.4613 H   0  0  0  0  0  0  0  0  0  0  0  0
  145.7147  136.6172  153.9799 H   0  0  0  0  0  0  0  0  0  0  0  0
  145.3893  139.5304  153.3940 H   0  0  0  0  0  0  0  0  0  0  0  0
  147.5600  141.7987  152.6634 H   0  0  0  0  0  0  0  0  0  0  0  0
  146.0205  141.0583  152.9564 H   0  0  0  0  0  0  0  0  0  0  0  0
  146.3372  142.9780  154.4950 H   0  0  0  0  0  0  0  0  0  0  0  0
  146.2323  141.4908  155.4063 H   0  0  0  0  0  0  0  0  0  0  0  0
  148.7614  143.0481  154.7123 H   0  0  0  0  0  0  0  0  0  0  0  0
  148.0798  142.8012  156.3005 H   0  0  0  0  0  0  0  0  0  0  0  0
  148.6078  140.3957  156.2063 H   0  0  0  0  0  0  0  0  0  0  0  0
  150.9916  142.0841  155.3366 H   0  0  0  0  0  0  0  0  0  0  0  0
  150.5069  141.7350  156.9723 H   0  0  0  0  0  0  0  0  0  0  0  0
  151.6287  138.2253  156.7845 H   0  0  0  0  0  0  0  0  0  0  0  0
  150.2267  139.1365  157.3050 H   0  0  0  0  0  0  0  0  0  0  0  0
  149.7187  139.3785  154.2146 H   0  0  0  0  0  0  0  0  0  0  0  0
  149.6005  140.8857  153.3612 H   0  0  0  0  0  0  0  0  0  0  0  0
  143.3219  134.9913  153.7834 H   0  0  0  0  0  0  0  0  0  0  0  0
  143.4096  132.7589  153.1913 H   0  0  0  0  0  0  0  0  0  0  0  0
  1  2  1  0  0  0  0
  1 23  1  0  0  0  0
  1 24  1  0  0  0  0
  1 25  1  0  0  0  0
  2 22  1  0  0  0  0
  2  3  2  0  0  0  0
  3  4  1  0  0  0  0
  3 26  1  0  0  0  0
  4  5  2  0  0  0  0
  4 27  1  0  0  0  0
  5  6  1  0  0  0  0
  5 21  1  0  0  0  0
  6  7  1  0  0  0  0
  6 28  1  0  0  0  0
  6 29  1  0  0  0  0
  7  8  1  0  0  0  0
  7 30  1  0  0  0  0
  7 31  1  0  0  0  0
  8  9  1  0  0  0  0
  8 32  1  0  0  0  0
  9 10  2  0  0  0  0
  9 11  1  0  0  0  0
 11 20  1  0  0  0  0
 11 12  1  0  0  0  0
 12 13  1  0  0  0  0
 12 33  1  0  0  0  0
 12 34  1  0  0  0  0
 13 14  1  0  0  0  0
 13 35  1  0  0  0  0
 13 36  1  0  0  0  0
 14 15  1  0  0  0  0
 14 37  1  0  0  0  0
 14 38  1  0  0  0  0
 15 16  1  0  0  0  0
 15 20  1  0  0  0  0
 15 39  1  0  0  0  0
 16 17  1  0  0  0  0
 16 40  1  0  0  0  0
 16 41  1  0  0  0  0
 17 18  1  0  0  0  0
 17 19  2  0  0  0  0
 18 42  1  0  0  0  0
 18 43  1  0  0  0  0
 20 44  1  0  0  0  0
 20 45  1  0  0  0  0
 21 22  2  0  0  0  0
 21 46  1  0  0  0  0
 22 47  1  0  0  0  0
M  CHG  1  22   1
M  END
> <s_m_source_file>
AV-unprocessed.smi

> <i_m_source_file_index>
693

> <i_lp_mmshare_version>
43012

> <i_f3d_flags>
0

> <s_epik_input>
W0NIM11jMVtjSF1bY0hdYyhbY0hdbjEpW0NIMl1bQ0gyXVtOSF1DKD1PKU4yW0NIMl1bQ0gyXVtDSDJdW0NASF0oW0NIMl0yKVtDSDJdQyg9TylbTkgyXQ==

> <s_epik_cmdline>
J2VwaWtfcHl0aG9uJywgJy1waCcsICc3LjAnLCAnLXRuJywgJzgnLCAnLW1hJywgJzIwMCcsICctbWV0YWxfYmluZGluZycsICctaW1hZScsICc8aW5maWxlLm1hZT4nLCAnLW9tYWUnLCAnPG91dGZpbGUubWFlPic=

> <r_epik_Ionization_Penalty>
1.41666

> <r_epik_Ionization_Penalty_Charging>
1.4166

> <r_epik_Ionization_Penalty_Neutral>
5.77403e-05

> <r_epik_State_Penalty>
1.50002

> <r_epik_Charging_Adjusted_Penalty>
2.91662

> <i_epik_Tot_Q>
1

> <i_epik_Tot_abs_Q>
1

> <r_epik_Metal_State_Penalty>
1.55252

> <b_epik_Metal_Only>
0

> <s_lp_Force_Field>
OPLS_2005

> <r_lp_Energy>
32.8

> <b_lp_Chiralities_Consistent>
1

> <s_lp_Variant>
AV-unprocessed.smi:693-4

> <Gold.Version>
5.8.1

> <Gold.Id.Protein>
6NUR|6NUR_protein|mol2

> <Gold.PLP.Fitness>
45.1181

> <Gold.PLP.PLP>
-33.5715

> <Gold.PLP.part.hbond>
-3.6686

> <Gold.PLP.part.metal>
0.0000

> <Gold.PLP.part.buried>
3.2982

> <Gold.PLP.part.nonpolar>
-34.2584

> <Gold.PLP.part.repulsive>
1.9080

> <Gold.PLP.ligand.clash>
0.0000

> <Gold.PLP.ligand.torsion>
0.3502

> <Gold.PLP.Chemscore.Hbond>
4.0441

> <Gold.PLP.Chemscore.CHOScore>
0.0000

> <Gold.PLP.Chemscore.Metal>
0.0000

> <Gold.Chemscore.Hbonds>
donor molecule, donor type, donor heavy atom, donor atom, acceptor molecule, acceptor atom, score
      L1  H     8    32       P1 10175  0.66
      L1  H    22    47       P1 10957  2.00
      P1  H  7989  7998       L1    19  0.53
      P1  H  7997  8009       L1    19  0.81

> <Gold.PLP.Chemscore.Internal.Correction>
0.1145

> <Gold.Rescore>
     Score         DG    S(hbond)    S(metal)    S(lipo)     H(rot)  DE(clash)    DE(int)     intcor
     13.92     -15.93       2.30        0.00      74.71       2.34       1.65       0.36       ----

> <Gold.Chemscore.Fitness>
13.9197

> <Gold.Chemscore.DG>
-15.9347

> <Gold.Chemscore.ZeroCoef>
-5.4800

> <Gold.Chemscore.Hbond>
2.3030

> <Gold.Chemscore.Metal>
0.0000

> <Gold.Chemscore.Lipo>
74.7098

> <Gold.Chemscore.Internal_Hbond>
0.0000

> <Gold.Chemscore.DEClash>
1.6516

> <Gold.Chemscore.DEInternal>
0.3633

> <Gold.Chemscore.Rot>
2.3354

> <Gold.Chemscore.Internal.Correction>
   9.000000E+99

> <Gold.Chemscore.Hbonds>
donor molecule, donor type, donor heavy atom, donor atom, acceptor molecule, acceptor atom, score
      L1  H     8    32       P1 10175  0.63
      L1  H    22    47       P1 10957  0.38
      P1  H  7989  7998       L1    19  0.14
      P1  H  7997  8009       L1    19  0.80

> <Gold.Chemscore.Hbond.Weighted>
-7.6921

> <Gold.Chemscore.Metal.Weighted>
-0.0000

> <Gold.Chemscore.Lipo.Weighted>
-8.7410

> <Gold.Chemscore.Internal_Hbond.Weighted>
0.0000

> <Gold.Chemscore.DEClash.Weighted>
1.6516

> <Gold.Chemscore.DEInternal.Weighted>
0.3633

> <Gold.Chemscore.Rot.Weighted>
5.9785

> <Gold.Chemscore.Internal.Correction.Weighted>
   9.000000E+99

> <Gold.Protein.RotatedTorsions>
[ 6907 6896 6895 6894 ] final -126.85 input  -60.11 | X-H torsion
[ 7974 7965 7964 7962 ] final  169.44 input  175.53 | X-H torsion
[ 8008 7997 7996 7995 ] final -141.36 input   59.86 | X-H torsion
[ 10167 10162 10161 10158 ] final -126.01 input  -65.29 | X-H torsion
[ 10718 10713 10712 10709 ] final  -12.30 input   66.30 | X-H torsion
[ 10763 10752 10751 10750 ] final  -82.90 input  -60.55 | X-H torsion
[ 11005 11000 10999 10996 ] final  -73.07 input  -57.11 | X-H torsion

> <Gold.Protein.ActiveResidues>
 VAL166  LYS551  ARG553  GLY616  TRP617  ASP618  TYR619  PRO620  LYS621  CYS622 
 ASP623  PHE694  ASN695  SER759  ASP760  ASP761  ALA762  ILE779  LEU786  VAL792 
 PHE793  MET794  SER795  GLU796  ALA797  LYS798  CYS799  TRP800  GLU811  SER814 

> <Gold.Protein.RotatedAtoms>
  150.9012  133.7116  159.2878 H   0  0  0  0  0  0  0  0  0  0  0  0  # atno 6907 bound_to 6896
  151.4634  135.1039  159.9741 H   0  0  0  0  0  0  0  0  0  0  0  0  # atno 6908 bound_to 6896
  152.4877  133.8369  159.7188 H   0  0  0  0  0  0  0  0  0  0  0  0  # atno 6909 bound_to 6896
  144.7355  139.9055  143.6412 H   0  0  0  0  0  0  0  0  0  0  0  0  # atno 7974 bound_to 7965
  155.4764  140.0557  157.2973 H   0  0  0  0  0  0  0  0  0  0  0  0  # atno 8008 bound_to 7997
  154.4677  140.2026  156.0027 H   0  0  0  0  0  0  0  0  0  0  0  0  # atno 8009 bound_to 7997
  156.1003  140.3220  155.7938 H   0  0  0  0  0  0  0  0  0  0  0  0  # atno 8010 bound_to 7997
  139.9760  143.5794  152.2396 H   0  0  0  0  0  0  0  0  0  0  0  0  # atno 10167 bound_to 10162
  156.6466  130.4943  149.6076 H   0  0  0  0  0  0  0  0  0  0  0  0  # atno 10718 bound_to 10713
  154.5813  135.5575  153.7188 H   0  0  0  0  0  0  0  0  0  0  0  0  # atno 10763 bound_to 10752
  153.0082  135.6321  154.1978 H   0  0  0  0  0  0  0  0  0  0  0  0  # atno 10764 bound_to 10752
  154.1919  135.2882  155.2999 H   0  0  0  0  0  0  0  0  0  0  0  0  # atno 10765 bound_to 10752
  141.1617  133.6866  156.7156 H   0  0  0  0  0  0  0  0  0  0  0  0  # atno 11005 bound_to 11000
  146.1040  139.4038  143.0329 LP  0  0  0  0  0  0  0  0  0  0  0  0  # atno 17320 bound_to 7965
  145.7538  140.9962  143.1236 LP  0  0  0  0  0  0  0  0  0  0  0  0  # atno 17321 bound_to 7965
  139.6445  144.7657  151.2271 LP  0  0  0  0  0  0  0  0  0  0  0  0  # atno 17342 bound_to 10162
  140.7505  143.6262  150.8466 LP  0  0  0  0  0  0  0  0  0  0  0  0  # atno 17343 bound_to 10162
  156.2117  130.6683  151.1276 LP  0  0  0  0  0  0  0  0  0  0  0  0  # atno 17370 bound_to 10713
  157.7154  131.0712  150.6345 LP  0  0  0  0  0  0  0  0  0  0  0  0  # atno 17371 bound_to 10713
  140.2855  134.8283  157.3971 LP  0  0  0  0  0  0  0  0  0  0  0  0  # atno 17394 bound_to 11000
  140.1394  134.4991  155.8043 LP  0  0  0  0  0  0  0  0  0  0  0  0  # atno 17395 bound_to 11000

$$$$
