AV-unprocessed.smi:1343|AV-procd|sdf|5508|dock2
  -GOLD-   22720 5 93D 1   1.00000     0.00000
 Structure written by MMmdl.
 38 40  0  0  0  0  0  0  0  0  1 V2000
  152.7887  140.1228  158.3125 O   0  0  0  0  0  0  0  0  0  0  0  0
  152.5055  141.3214  158.3701 C   0  0  0  0  0  0  0  0  0  0  0  0
  151.4637  141.8982  157.3913 C   0  0  0  0  0  0  0  0  0  0  0  0
  151.1131  140.9379  156.2882 C   0  0  0  0  0  0  0  0  0  0  0  0
  151.9333  139.9895  155.7262 C   0  0  0  0  0  0  0  0  0  0  0  0
  151.1251  139.0850  154.4754 S   0  0  0  0  0  0  0  0  0  0  0  0
  149.6718  140.0365  154.7732 C   0  0  0  0  0  0  0  0  0  0  0  0
  148.4509  139.8483  154.0596 N   0  0  0  0  0  0  0  0  0  0  0  0
  148.1017  138.5532  153.4895 C   0  0  0  0  0  0  0  0  0  0  0  0
  146.7382  138.7907  152.8473 C   0  0  0  0  0  0  0  0  0  0  0  0
  146.5059  140.1865  153.1345 N   0  0  0  0  0  0  0  0  0  0  0  0
  147.4915  140.7672  153.8224 C   0  0  0  0  0  0  0  0  0  0  0  0
  147.4882  141.9483  154.1657 O   0  0  0  0  0  0  0  0  0  0  0  0
  149.8271  140.9493  155.7392 N   0  0  0  0  0  0  0  0  0  0  0  0
  153.0761  142.1506  159.2788 N   0  0  0  0  0  0  0  0  0  0  0  0
  152.7677  143.5782  159.4457 C   0  0  0  0  0  0  0  0  0  0  0  0
  151.9970  143.7691  160.7643 C   0  0  0  0  0  0  0  0  0  0  0  0
  152.8006  143.2113  161.9539 C   0  0  0  0  0  0  0  0  0  0  0  0
  153.2869  141.7737  161.6886 C   0  0  0  0  0  0  0  0  0  0  0  0
  153.9924  141.6724  160.3231 C   0  0  0  0  0  0  0  0  0  0  0  0
  150.5618  142.1574  157.9471 H   0  0  0  0  0  0  0  0  0  0  0  0
  151.8531  142.8249  156.9680 H   0  0  0  0  0  0  0  0  0  0  0  0
  152.9634  139.7743  155.9679 H   0  0  0  0  0  0  0  0  0  0  0  0
  148.8418  138.2469  152.7491 H   0  0  0  0  0  0  0  0  0  0  0  0
  148.0479  137.7898  154.2667 H   0  0  0  0  0  0  0  0  0  0  0  0
  146.7550  138.6157  151.7711 H   0  0  0  0  0  0  0  0  0  0  0  0
  145.9603  138.1729  153.2967 H   0  0  0  0  0  0  0  0  0  0  0  0
  145.6693  140.6685  152.8390 H   0  0  0  0  0  0  0  0  0  0  0  0
  153.7006  144.1427  159.4774 H   0  0  0  0  0  0  0  0  0  0  0  0
  152.2025  144.0070  158.6200 H   0  0  0  0  0  0  0  0  0  0  0  0
  151.7801  144.8255  160.9238 H   0  0  0  0  0  0  0  0  0  0  0  0
  151.0340  143.2606  160.7006 H   0  0  0  0  0  0  0  0  0  0  0  0
  153.6654  143.8521  162.1298 H   0  0  0  0  0  0  0  0  0  0  0  0
  152.2013  143.2459  162.8639 H   0  0  0  0  0  0  0  0  0  0  0  0
  153.9607  141.4551  162.4843 H   0  0  0  0  0  0  0  0  0  0  0  0
  152.4370  141.0901  161.7100 H   0  0  0  0  0  0  0  0  0  0  0  0
  154.3304  140.6486  160.1573 H   0  0  0  0  0  0  0  0  0  0  0  0
  154.8948  142.2853  160.3205 H   0  0  0  0  0  0  0  0  0  0  0  0
  1  2  2  0  0  0  0
  2  3  1  0  0  0  0
  2 15  1  0  0  0  0
  3  4  1  0  0  0  0
  3 21  1  0  0  0  0
  3 22  1  0  0  0  0
  4 14  1  0  0  0  0
  4  5  2  0  0  0  0
  5  6  1  0  0  0  0
  5 23  1  0  0  0  0
  6  7  1  0  0  0  0
  7  8  1  0  0  0  0
  7 14  2  0  0  0  0
  8 12  1  0  0  0  0
  8  9  1  0  0  0  0
  9 10  1  0  0  0  0
  9 24  1  0  0  0  0
  9 25  1  0  0  0  0
 10 11  1  0  0  0  0
 10 26  1  0  0  0  0
 10 27  1  0  0  0  0
 11 12  1  0  0  0  0
 11 28  1  0  0  0  0
 12 13  2  0  0  0  0
 15 20  1  0  0  0  0
 15 16  1  0  0  0  0
 16 17  1  0  0  0  0
 16 29  1  0  0  0  0
 16 30  1  0  0  0  0
 17 18  1  0  0  0  0
 17 31  1  0  0  0  0
 17 32  1  0  0  0  0
 18 19  1  0  0  0  0
 18 33  1  0  0  0  0
 18 34  1  0  0  0  0
 19 20  1  0  0  0  0
 19 35  1  0  0  0  0
 19 36  1  0  0  0  0
 20 37  1  0  0  0  0
 20 38  1  0  0  0  0
M  END
> <s_m_source_file>
AV-unprocessed.smi

> <i_m_source_file_index>
1343

> <i_lp_mmshare_version>
43012

> <i_f3d_flags>
0

> <s_epik_input>
W0NIMl0xW0NIMl1bQ0gyXVtDSDJdW0NIMl1OMUMoPU8pW0NIMl1jMltjSF1zYyhuMilOM1tDSDJdW0NIMl1bTkhdQzM9Tw==

> <s_epik_cmdline>
J2VwaWtfcHl0aG9uJywgJy1waCcsICc3LjAnLCAnLXRuJywgJzgnLCAnLW1hJywgJzIwMCcsICctbWV0YWxfYmluZGluZycsICctaW1hZScsICc8aW5maWxlLm1hZT4nLCAnLW9tYWUnLCAnPG91dGZpbGUubWFlPic=

> <r_lp_tautomer_probability>
1

> <r_epik_Ionization_Penalty>
0.0001265

> <r_epik_Ionization_Penalty_Charging>
0

> <r_epik_Ionization_Penalty_Neutral>
0.0001265

> <r_epik_State_Penalty>
-0

> <r_epik_Charging_Adjusted_Penalty>
0

> <i_epik_Tot_Q>
0

> <i_epik_Tot_abs_Q>
0

> <r_epik_Metal_State_Penalty>
-0

> <b_epik_Metal_Only>
0

> <s_lp_Force_Field>
OPLS_2005

> <r_lp_Energy>
52.3912

> <b_lp_Chiralities_Consistent>
1

> <s_lp_Variant>
AV-unprocessed.smi:1343-1

> <Gold.Version>
5.8.1

> <Gold.Id.Protein>
6NUR|6NUR_protein|mol2

> <Gold.PLP.Fitness>
46.8879

> <Gold.PLP.PLP>
-44.3117

> <Gold.PLP.part.hbond>
-1.8213

> <Gold.PLP.part.metal>
0.0000

> <Gold.PLP.part.buried>
-1.5216

> <Gold.PLP.part.nonpolar>
-38.8835

> <Gold.PLP.part.repulsive>
0.2253

> <Gold.PLP.ligand.clash>
0.8188

> <Gold.PLP.ligand.torsion>
0.8092

> <Gold.PLP.Chemscore.Hbond>
1.6663

> <Gold.PLP.Chemscore.CHOScore>
0.0000

> <Gold.PLP.Chemscore.Metal>
0.0000

> <Gold.Chemscore.Hbonds>
donor molecule, donor type, donor heavy atom, donor atom, acceptor molecule, acceptor atom, score
      L1  H    11    28       P1 10175  0.91
      P1  H  7997  8009       L1     1  0.55

> <Gold.PLP.Chemscore.Internal.Correction>
0.0146

> <Gold.Rescore>
     Score         DG    S(hbond)    S(metal)    S(lipo)     H(rot)  DE(clash)    DE(int)     intcor
     16.01     -19.79       1.83        0.00      97.92       1.27       0.47       3.31       ----

> <Gold.Chemscore.Fitness>
16.0132

> <Gold.Chemscore.DG>
-19.7946

> <Gold.Chemscore.ZeroCoef>
-5.4800

> <Gold.Chemscore.Hbond>
1.8272

> <Gold.Chemscore.Metal>
0.0000

> <Gold.Chemscore.Lipo>
97.9247

> <Gold.Chemscore.Internal_Hbond>
0.0000

> <Gold.Chemscore.DEClash>
0.4750

> <Gold.Chemscore.DEInternal>
3.3064

> <Gold.Chemscore.Rot>
1.2678

> <Gold.Chemscore.Internal.Correction>
   9.000000E+99

> <Gold.Chemscore.Hbonds>
donor molecule, donor type, donor heavy atom, donor atom, acceptor molecule, acceptor atom, score
      L1  H    11    28       P1 10175  0.47
      P1  H  7997  8009       L1     1  0.21

> <Gold.Chemscore.Hbond.Weighted>
-6.1030

> <Gold.Chemscore.Metal.Weighted>
-0.0000

> <Gold.Chemscore.Lipo.Weighted>
-11.4572

> <Gold.Chemscore.Internal_Hbond.Weighted>
0.0000

> <Gold.Chemscore.DEClash.Weighted>
0.4750

> <Gold.Chemscore.DEInternal.Weighted>
3.3064

> <Gold.Chemscore.Rot.Weighted>
3.2456

> <Gold.Chemscore.Internal.Correction.Weighted>
   9.000000E+99

> <Gold.Protein.RotatedTorsions>
[ 6907 6896 6895 6894 ] final  -55.40 input  -60.11 | X-H torsion
[ 7974 7965 7964 7962 ] final  -60.05 input  175.53 | X-H torsion
[ 8008 7997 7996 7995 ] final  163.04 input   59.86 | X-H torsion
[ 10167 10162 10161 10158 ] final    3.85 input  -65.29 | X-H torsion
[ 10718 10713 10712 10709 ] final   46.13 input   66.30 | X-H torsion
[ 10763 10752 10751 10750 ] final  169.45 input  -60.55 | X-H torsion
[ 11005 11000 10999 10996 ] final -174.27 input  -57.11 | X-H torsion

> <Gold.Protein.ActiveResidues>
 VAL166  LYS551  ARG553  GLY616  TRP617  ASP618  TYR619  PRO620  LYS621  CYS622 
 ASP623  PHE694  ASN695  SER759  ASP760  ASP761  ALA762  ILE779  LEU786  VAL792 
 PHE793  MET794  SER795  GLU796  ALA797  LYS798  CYS799  TRP800  GLU811  SER814 

> <Gold.Protein.RotatedAtoms>
  150.8255  134.7484  159.6808 H   0  0  0  0  0  0  0  0  0  0  0  0  # atno 6907 bound_to 6896
  152.4366  134.5670  159.9920 H   0  0  0  0  0  0  0  0  0  0  0  0  # atno 6908 bound_to 6896
  151.5844  133.3336  159.3051 H   0  0  0  0  0  0  0  0  0  0  0  0  # atno 6909 bound_to 6896
  145.8202  140.8545  143.0136 H   0  0  0  0  0  0  0  0  0  0  0  0  # atno 7974 bound_to 7965
  156.1987  140.1734  156.7945 H   0  0  0  0  0  0  0  0  0  0  0  0  # atno 8008 bound_to 7997
  154.5563  140.0708  156.8779 H   0  0  0  0  0  0  0  0  0  0  0  0  # atno 8009 bound_to 7997
  155.2933  140.3357  155.4253 H   0  0  0  0  0  0  0  0  0  0  0  0  # atno 8010 bound_to 7997
  140.6565  143.7414  150.7663 H   0  0  0  0  0  0  0  0  0  0  0  0  # atno 10167 bound_to 10162
  157.4449  130.8103  149.7731 H   0  0  0  0  0  0  0  0  0  0  0  0  # atno 10718 bound_to 10713
  154.3833  135.2753  155.2198 H   0  0  0  0  0  0  0  0  0  0  0  0  # atno 10763 bound_to 10752
  154.4296  135.5980  153.6064 H   0  0  0  0  0  0  0  0  0  0  0  0  # atno 10764 bound_to 10752
  152.9834  135.5992  154.4078 H   0  0  0  0  0  0  0  0  0  0  0  0  # atno 10765 bound_to 10752
  140.4764  134.6116  157.4902 H   0  0  0  0  0  0  0  0  0  0  0  0  # atno 11005 bound_to 11000
  144.6748  140.0522  143.7478 LP  0  0  0  0  0  0  0  0  0  0  0  0  # atno 17320 bound_to 7965
  145.9683  139.2851  143.1114 LP  0  0  0  0  0  0  0  0  0  0  0  0  # atno 17321 bound_to 7965
  140.1074  143.4731  152.2390 LP  0  0  0  0  0  0  0  0  0  0  0  0  # atno 17342 bound_to 10162
  139.5789  144.7501  151.3692 LP  0  0  0  0  0  0  0  0  0  0  0  0  # atno 17343 bound_to 10162
  155.9963  130.3906  150.2783 LP  0  0  0  0  0  0  0  0  0  0  0  0  # atno 17370 bound_to 10713
  157.0951  131.0180  151.3107 LP  0  0  0  0  0  0  0  0  0  0  0  0  # atno 17371 bound_to 10713
  139.9853  134.7071  155.9785 LP  0  0  0  0  0  0  0  0  0  0  0  0  # atno 17394 bound_to 11000
  141.1552  133.6543  156.4139 LP  0  0  0  0  0  0  0  0  0  0  0  0  # atno 17395 bound_to 11000

$$$$
