AV-unprocessed.smi:1718|AV-procd|sdf|6926|dock2
  -GOLD-   22720 8133D 1   1.00000     0.00000
 Structure written by MMmdl.
 39 40  0  0  0  0  0  0  0  0  2 V2000
  152.0958  140.2009  154.5315 C   0  0  0  0  0  0  0  0  0  0  0  0
  151.5143  140.2263  155.9533 C   0  0  2  0  0  0  0  0  0  0  0  0
  151.8520  141.4843  156.5319 O   0  0  0  0  0  0  0  0  0  0  0  0
  151.1705  141.8095  157.7399 C   0  0  0  0  0  0  0  0  0  0  0  0
  151.2593  143.3212  157.9885 C   0  0  2  0  0  0  0  0  0  0  0  0
  152.5912  143.8102  158.5783 C   0  0  0  0  0  0  0  0  0  0  0  0
  152.1761  144.6844  159.7517 C   0  0  0  0  0  0  0  0  0  0  0  0
  150.6963  144.9458  159.4959 C   0  0  0  0  0  0  0  0  0  0  0  0
  150.2556  143.7346  158.9066 O   0  0  0  0  0  0  0  0  0  0  0  0
  152.0657  139.0751  156.8110 C   0  0  0  0  0  0  0  0  0  0  0  0
  153.2687  138.8183  156.7772 O   0  0  0  0  0  0  0  0  0  0  0  0
  151.1533  138.4451  157.5772 N   0  0  0  0  0  0  0  0  0  0  0  0
  151.3136  137.3874  158.4888 C   0  0  0  0  0  0  0  0  0  0  0  0
  150.8776  137.3917  159.7793 C   0  0  0  0  0  0  0  0  0  0  0  0
  151.0806  136.2599  160.6751 C   0  0  0  0  0  0  0  0  0  0  0  0
  150.5194  136.1884  162.0843 C   0  0  0  0  0  0  0  0  0  0  0  0
  150.8399  135.0344  162.6702 F   0  0  0  0  0  0  0  0  0  0  0  0
  151.0170  137.1803  162.8213 F   0  0  0  0  0  0  0  0  0  0  0  0
  149.1911  136.3014  162.0769 F   0  0  0  0  0  0  0  0  0  0  0  0
  151.7436  135.2161  160.0597 C   0  0  0  0  0  0  0  0  0  0  0  0
  152.2322  135.1420  158.8024 N   0  5  0  0  0  0  0  0  0  0  0  0
  152.0350  136.2052  157.9728 C   0  0  0  0  0  0  0  0  0  0  0  0
  152.4447  136.1997  156.8112 O   0  0  0  0  0  0  0  0  0  0  0  0
  151.8900  139.2517  154.0353 H   0  0  0  0  0  0  0  0  0  0  0  0
  153.1762  140.3511  154.5361 H   0  0  0  0  0  0  0  0  0  0  0  0
  151.6578  140.9921  153.9228 H   0  0  0  0  0  0  0  0  0  0  0  0
  150.4282  140.1442  155.8771 H   0  0  0  0  0  0  0  0  0  0  0  0
  150.1236  141.5133  157.6630 H   0  0  0  0  0  0  0  0  0  0  0  0
  151.5978  141.2781  158.5908 H   0  0  0  0  0  0  0  0  0  0  0  0
  151.0754  143.8485  157.0508 H   0  0  0  0  0  0  0  0  0  0  0  0
  153.2338  142.9943  158.9108 H   0  0  0  0  0  0  0  0  0  0  0  0
  153.1460  144.3848  157.8357 H   0  0  0  0  0  0  0  0  0  0  0  0
  152.2945  144.1290  160.6830 H   0  0  0  0  0  0  0  0  0  0  0  0
  152.7604  145.6019  159.8282 H   0  0  0  0  0  0  0  0  0  0  0  0
  150.1442  145.1757  160.4076 H   0  0  0  0  0  0  0  0  0  0  0  0
  150.5598  145.7678  158.7913 H   0  0  0  0  0  0  0  0  0  0  0  0
  150.2115  138.8063  157.5298 H   0  0  0  0  0  0  0  0  0  0  0  0
  150.3738  138.2485  160.1937 H   0  0  0  0  0  0  0  0  0  0  0  0
  151.8999  134.2997  160.6678 H   0  0  0  0  0  0  0  0  0  0  0  0
  1  2  1  0  0  0  0
  1 24  1  0  0  0  0
  1 25  1  0  0  0  0
  1 26  1  0  0  0  0
  2  3  1  0  0  0  0
  2 10  1  0  0  0  0
  2 27  1  0  0  0  0
  3  4  1  0  0  0  0
  4  5  1  0  0  0  0
  4 28  1  0  0  0  0
  4 29  1  0  0  0  0
  5  9  1  0  0  0  0
  5  6  1  0  0  0  0
  5 30  1  0  0  0  0
  6  7  1  0  0  0  0
  6 31  1  0  0  0  0
  6 32  1  0  0  0  0
  7  8  1  0  0  0  0
  7 33  1  0  0  0  0
  7 34  1  0  0  0  0
  8  9  1  0  0  0  0
  8 35  1  0  0  0  0
  8 36  1  0  0  0  0
 10 11  2  0  0  0  0
 10 12  1  0  0  0  0
 12 13  1  0  0  0  0
 12 37  1  0  0  0  0
 13 22  1  0  0  0  0
 13 14  2  0  0  0  0
 14 15  1  0  0  0  0
 14 38  1  0  0  0  0
 15 16  1  0  0  0  0
 15 20  2  0  0  0  0
 16 17  1  0  0  0  0
 16 18  1  0  0  0  0
 16 19  1  0  0  0  0
 20 21  1  0  0  0  0
 20 39  1  0  0  0  0
 21 22  1  0  0  0  0
 22 23  2  0  0  0  0
M  CHG  1  21  -1
M  END
> <s_m_source_file>
AV-unprocessed.smi

> <i_m_source_file_index>
1718

> <i_lp_mmshare_version>
43012

> <i_f3d_flags>
0

> <s_epik_input>
TzFbQ0gyXVtDSDJdW0NIMl1bQ0BIXTFbQ0gyXU9bQ0BASF0oW0NIM10pQyg9TylbTkhdYzJbY0hdYyhDKEYpKEYpRilbY0hdW25IXWMyPU8=

> <s_epik_cmdline>
J2VwaWtfcHl0aG9uJywgJy1waCcsICc3LjAnLCAnLXRuJywgJzgnLCAnLW1hJywgJzIwMCcsICctbWV0YWxfYmluZGluZycsICctaW1hZScsICc8aW5maWxlLm1hZT4nLCAnLW9tYWUnLCAnPG91dGZpbGUubWFlPic=

> <r_epik_Ionization_Penalty>
2.5466

> <r_epik_Ionization_Penalty_Charging>
0.0575837

> <r_epik_Ionization_Penalty_Neutral>
2.48901

> <r_epik_State_Penalty>
2.6532

> <r_epik_Charging_Adjusted_Penalty>
2.71078

> <i_epik_Tot_Q>
-1

> <i_epik_Tot_abs_Q>
1

> <r_epik_Metal_State_Penalty>
0.516196

> <b_epik_Metal_Only>
0

> <s_lp_Force_Field>
OPLS_2005

> <r_lp_Energy>
37.3435

> <b_lp_Chiralities_Consistent>
1

> <s_lp_Variant>
AV-unprocessed.smi:1718-5

> <Gold.Version>
5.8.1

> <Gold.Id.Protein>
6NUR|6NUR_protein|mol2

> <Gold.PLP.Fitness>
44.1608

> <Gold.PLP.PLP>
-40.5153

> <Gold.PLP.part.hbond>
-2.2143

> <Gold.PLP.part.metal>
0.0000

> <Gold.PLP.part.buried>
-5.7648

> <Gold.PLP.part.nonpolar>
-32.6223

> <Gold.PLP.part.repulsive>
0.1986

> <Gold.PLP.ligand.clash>
0.0000

> <Gold.PLP.ligand.torsion>
1.2432

> <Gold.PLP.Chemscore.Hbond>
2.0000

> <Gold.PLP.Chemscore.CHOScore>
0.0000

> <Gold.PLP.Chemscore.Metal>
0.0000

> <Gold.Chemscore.Hbonds>
donor molecule, donor type, donor heavy atom, donor atom, acceptor molecule, acceptor atom, score
      P1  H  7997  8008       L1    11  1.00
      P1  H 10752 10765       L1    23  0.96

> <Gold.PLP.Chemscore.Internal.Correction>
0.1319

> <Gold.Rescore>
     Score         DG    S(hbond)    S(metal)    S(lipo)     H(rot)  DE(clash)    DE(int)     intcor
     16.70     -17.93       1.99        0.00      89.96       1.85       0.03       1.20       ----

> <Gold.Chemscore.Fitness>
16.7026

> <Gold.Chemscore.DG>
-17.9335

> <Gold.Chemscore.ZeroCoef>
-5.4800

> <Gold.Chemscore.Hbond>
1.9918

> <Gold.Chemscore.Metal>
0.0000

> <Gold.Chemscore.Lipo>
89.9596

> <Gold.Chemscore.Internal_Hbond>
0.0000

> <Gold.Chemscore.DEClash>
0.0292

> <Gold.Chemscore.DEInternal>
1.2018

> <Gold.Chemscore.Rot>
1.8455

> <Gold.Chemscore.Internal.Correction>
   9.000000E+99

> <Gold.Chemscore.Hbonds>
donor molecule, donor type, donor heavy atom, donor atom, acceptor molecule, acceptor atom, score
      P1  H  7997  8008       L1    11  0.96
      P1  H 10752 10765       L1    23  0.88

> <Gold.Chemscore.Hbond.Weighted>
-6.6527

> <Gold.Chemscore.Metal.Weighted>
-0.0000

> <Gold.Chemscore.Lipo.Weighted>
-10.5253

> <Gold.Chemscore.Internal_Hbond.Weighted>
0.0000

> <Gold.Chemscore.DEClash.Weighted>
0.0292

> <Gold.Chemscore.DEInternal.Weighted>
1.2018

> <Gold.Chemscore.Rot.Weighted>
4.7245

> <Gold.Chemscore.Internal.Correction.Weighted>
   9.000000E+99

> <Gold.Protein.RotatedTorsions>
[ 6907 6896 6895 6894 ] final   77.34 input  -60.11 | X-H torsion
[ 7974 7965 7964 7962 ] final    4.99 input  175.53 | X-H torsion
[ 8008 7997 7996 7995 ] final  -57.01 input   59.86 | X-H torsion
[ 10167 10162 10161 10158 ] final -114.53 input  -65.29 | X-H torsion
[ 10718 10713 10712 10709 ] final  179.31 input   66.30 | X-H torsion
[ 10763 10752 10751 10750 ] final -115.24 input  -60.55 | X-H torsion
[ 11005 11000 10999 10996 ] final   81.92 input  -57.11 | X-H torsion

> <Gold.Protein.ActiveResidues>
 VAL166  LYS551  ARG553  GLY616  TRP617  ASP618  TYR619  PRO620  LYS621  CYS622 
 ASP623  PHE694  ASN695  SER759  ASP760  ASP761  ALA762  ILE779  LEU786  VAL792 
 PHE793  MET794  SER795  GLU796  ALA797  LYS798  CYS799  TRP800  GLU811  SER814 

> <Gold.Protein.RotatedAtoms>
  152.5113  134.3832  159.9358 H   0  0  0  0  0  0  0  0  0  0  0  0  # atno 6907 bound_to 6896
  151.3790  133.3822  159.2715 H   0  0  0  0  0  0  0  0  0  0  0  0  # atno 6908 bound_to 6896
  150.9519  134.8938  159.7736 H   0  0  0  0  0  0  0  0  0  0  0  0  # atno 6909 bound_to 6896
  146.2442  140.0452  142.8379 H   0  0  0  0  0  0  0  0  0  0  0  0  # atno 7974 bound_to 7965
  154.4251  140.1116  156.5729 H   0  0  0  0  0  0  0  0  0  0  0  0  # atno 8008 bound_to 7997
  155.6193  140.3495  155.4628 H   0  0  0  0  0  0  0  0  0  0  0  0  # atno 8009 bound_to 7997
  156.0037  140.1204  157.0512 H   0  0  0  0  0  0  0  0  0  0  0  0  # atno 8010 bound_to 7997
  140.0999  143.4622  152.1818 H   0  0  0  0  0  0  0  0  0  0  0  0  # atno 10167 bound_to 10162
  156.8777  130.9805  151.3066 H   0  0  0  0  0  0  0  0  0  0  0  0  # atno 10718 bound_to 10713
  154.8473  135.4388  154.1633 H   0  0  0  0  0  0  0  0  0  0  0  0  # atno 10763 bound_to 10752
  153.2764  135.6950  153.7435 H   0  0  0  0  0  0  0  0  0  0  0  0  # atno 10764 bound_to 10752
  153.6656  135.3427  155.3114 H   0  0  0  0  0  0  0  0  0  0  0  0  # atno 10765 bound_to 10752
  139.9081  134.8032  156.2105 H   0  0  0  0  0  0  0  0  0  0  0  0  # atno 11005 bound_to 11000
  145.1034  140.9360  143.4699 LP  0  0  0  0  0  0  0  0  0  0  0  0  # atno 17320 bound_to 7965
  145.0650  139.3076  143.5861 LP  0  0  0  0  0  0  0  0  0  0  0  0  # atno 17321 bound_to 7965
  139.5677  144.7445  151.3977 LP  0  0  0  0  0  0  0  0  0  0  0  0  # atno 17342 bound_to 10162
  140.6983  143.7694  150.7362 LP  0  0  0  0  0  0  0  0  0  0  0  0  # atno 17343 bound_to 10162
  157.6159  130.8618  149.9027 LP  0  0  0  0  0  0  0  0  0  0  0  0  # atno 17370 bound_to 10713
  156.0693  130.3687  150.0809 LP  0  0  0  0  0  0  0  0  0  0  0  0  # atno 17371 bound_to 10713
  141.0468  133.6909  156.1699 LP  0  0  0  0  0  0  0  0  0  0  0  0  # atno 17394 bound_to 11000
  140.6871  134.4705  157.5589 LP  0  0  0  0  0  0  0  0  0  0  0  0  # atno 17395 bound_to 11000

$$$$
