AV-unprocessed.smi:919|AV-procd|sdf|4164|dock3
  -GOLD-   22720 2 73D 1   1.00000     0.00000
 Structure written by MMmdl.
 43 45  0  0  0  0  0  0  0  0  1 V2000
  150.4291  138.0708  154.9191 C   0  0  0  0  0  0  0  0  0  0  0  0
  149.7179  139.3516  154.5899 C   0  0  0  0  0  0  0  0  0  0  0  0
  150.4267  140.4510  154.3957 N   0  0  0  0  0  0  0  0  0  0  0  0
  149.5018  141.4577  154.1019 O   0  0  0  0  0  0  0  0  0  0  0  0
  148.2570  140.9176  154.1305 C   0  0  0  0  0  0  0  0  0  0  0  0
  147.1182  141.8343  153.8355 C   0  0  0  0  0  0  0  0  0  0  0  0
  148.3208  139.5866  154.4370 C   0  0  0  0  0  0  0  0  0  0  0  0
  147.1864  138.6069  154.5693 C   0  0  0  0  0  0  0  0  0  0  0  0
  146.3019  138.6033  153.3129 C   0  0  0  0  0  0  0  0  0  0  0  0
  146.5771  137.4491  152.4664 N   0  0  0  0  0  0  0  0  0  0  0  0
  145.6517  136.5791  152.0273 C   0  0  0  0  0  0  0  0  0  0  0  0
  144.4571  136.6612  152.3076 O   0  0  0  0  0  0  0  0  0  0  0  0
  146.1297  135.5998  151.2396 N   0  0  0  0  0  0  0  0  0  0  0  0
  145.3851  134.5080  150.6082 C   0  0  2  0  0  0  0  0  0  0  0  0
  144.1298  134.0833  151.4071 C   0  0  0  0  0  0  0  0  0  0  0  0
  144.3840  132.5889  151.6771 C   0  0  1  0  0  0  0  0  0  0  0  0
  144.2870  131.8011  150.3560 C   0  0  0  0  0  0  0  0  0  0  0  0
  145.5754  132.2127  149.6162 C   0  0  0  0  0  0  0  0  0  0  0  0
  146.2209  133.2091  150.5970 C   0  0  2  0  0  0  0  0  0  0  0  0
  145.8827  132.5745  151.9432 C   0  0  0  0  0  0  0  0  0  0  0  0
  149.7261  137.2622  155.1184 H   0  0  0  0  0  0  0  0  0  0  0  0
  151.0582  138.1865  155.8021 H   0  0  0  0  0  0  0  0  0  0  0  0
  151.0676  137.7557  154.0936 H   0  0  0  0  0  0  0  0  0  0  0  0
  146.4197  141.3699  153.1390 H   0  0  0  0  0  0  0  0  0  0  0  0
  147.4675  142.7665  153.3911 H   0  0  0  0  0  0  0  0  0  0  0  0
  146.5736  142.0770  154.7479 H   0  0  0  0  0  0  0  0  0  0  0  0
  147.5650  137.6002  154.7491 H   0  0  0  0  0  0  0  0  0  0  0  0
  146.5781  138.8491  155.4415 H   0  0  0  0  0  0  0  0  0  0  0  0
  145.2461  138.6184  153.5894 H   0  0  0  0  0  0  0  0  0  0  0  0
  146.4817  139.5053  152.7272 H   0  0  0  0  0  0  0  0  0  0  0  0
  147.5357  137.3062  152.1839 H   0  0  0  0  0  0  0  0  0  0  0  0
  147.1199  135.6250  151.0425 H   0  0  0  0  0  0  0  0  0  0  0  0
  145.1280  134.7969  149.5875 H   0  0  0  0  0  0  0  0  0  0  0  0
  144.0482  134.6289  152.3486 H   0  0  0  0  0  0  0  0  0  0  0  0
  143.2084  134.2508  150.8482 H   0  0  0  0  0  0  0  0  0  0  0  0
  143.7693  132.1788  152.4787 H   0  0  0  0  0  0  0  0  0  0  0  0
  144.2797  130.7264  150.5429 H   0  0  0  0  0  0  0  0  0  0  0  0
  143.3864  132.0493  149.7932 H   0  0  0  0  0  0  0  0  0  0  0  0
  146.2213  131.3470  149.4631 H   0  0  0  0  0  0  0  0  0  0  0  0
  145.3746  132.6554  148.6399 H   0  0  0  0  0  0  0  0  0  0  0  0
  147.2848  133.3650  150.4137 H   0  0  0  0  0  0  0  0  0  0  0  0
  146.1766  133.1854  152.7985 H   0  0  0  0  0  0  0  0  0  0  0  0
  146.2920  131.5699  152.0641 H   0  0  0  0  0  0  0  0  0  0  0  0
  1  2  1  0  0  0  0
  1 21  1  0  0  0  0
  1 22  1  0  0  0  0
  1 23  1  0  0  0  0
  2  7  1  0  0  0  0
  2  3  2  0  0  0  0
  3  4  1  0  0  0  0
  4  5  1  0  0  0  0
  5  6  1  0  0  0  0
  5  7  2  0  0  0  0
  6 24  1  0  0  0  0
  6 25  1  0  0  0  0
  6 26  1  0  0  0  0
  7  8  1  0  0  0  0
  8  9  1  0  0  0  0
  8 27  1  0  0  0  0
  8 28  1  0  0  0  0
  9 10  1  0  0  0  0
  9 29  1  0  0  0  0
  9 30  1  0  0  0  0
 10 11  1  0  0  0  0
 10 31  1  0  0  0  0
 11 12  2  0  0  0  0
 11 13  1  0  0  0  0
 13 14  1  0  0  0  0
 13 32  1  0  0  0  0
 14 19  1  0  0  0  0
 14 15  1  0  0  0  0
 14 33  1  0  0  0  0
 15 16  1  0  0  0  0
 15 34  1  0  0  0  0
 15 35  1  0  0  0  0
 16 20  1  0  0  0  0
 16 17  1  0  0  0  0
 16 36  1  0  0  0  0
 17 18  1  0  0  0  0
 17 37  1  0  0  0  0
 17 38  1  0  0  0  0
 18 19  1  0  0  0  0
 18 39  1  0  0  0  0
 18 40  1  0  0  0  0
 19 20  1  0  0  0  0
 19 41  1  0  0  0  0
 20 42  1  0  0  0  0
 20 43  1  0  0  0  0
M  END
> <s_m_source_file>
AV-unprocessed.smi

> <i_m_source_file_index>
919

> <i_lp_mmshare_version>
43012

> <i_f3d_flags>
0

> <s_epik_input>
W0NIM11jMW5vYyhbQ0gzXSljMVtDSDJdW0NIMl1bTkhdQyg9TylbTkhdW0NASF0oW0NIMl1bQ0BASF0yMylbQ0BASF0oW0NIMl0zKVtDSDJdW0NIMl0y

> <s_epik_cmdline>
J2VwaWtfcHl0aG9uJywgJy1waCcsICc3LjAnLCAnLXRuJywgJzgnLCAnLW1hJywgJzIwMCcsICctbWV0YWxfYmluZGluZycsICctaW1hZScsICc8aW5maWxlLm1hZT4nLCAnLW9tYWUnLCAnPG91dGZpbGUubWFlPic=

> <r_lp_tautomer_probability>
1

> <r_epik_Ionization_Penalty>
6.40771e-05

> <r_epik_Ionization_Penalty_Charging>
0

> <r_epik_Ionization_Penalty_Neutral>
6.40771e-05

> <r_epik_State_Penalty>
-0

> <r_epik_Charging_Adjusted_Penalty>
0

> <i_epik_Tot_Q>
0

> <i_epik_Tot_abs_Q>
0

> <r_epik_Metal_State_Penalty>
-0

> <b_epik_Metal_Only>
0

> <s_lp_Force_Field>
OPLS_2005

> <r_lp_Energy>
47.5349

> <b_lp_Chiralities_Consistent>
1

> <s_lp_Variant>
AV-unprocessed.smi:919-1

> <Gold.Version>
5.8.1

> <Gold.Id.Protein>
6NUR|6NUR_protein|mol2

> <Gold.PLP.Fitness>
47.9274

> <Gold.PLP.PLP>
-38.7116

> <Gold.PLP.part.hbond>
-4.8206

> <Gold.PLP.part.metal>
0.0000

> <Gold.PLP.part.buried>
-5.1336

> <Gold.PLP.part.nonpolar>
-29.2218

> <Gold.PLP.part.repulsive>
0.6341

> <Gold.PLP.ligand.clash>
0.0000

> <Gold.PLP.ligand.torsion>
0.7112

> <Gold.PLP.Chemscore.Hbond>
3.5363

> <Gold.PLP.Chemscore.CHOScore>
0.0000

> <Gold.PLP.Chemscore.Metal>
0.0000

> <Gold.Chemscore.Hbonds>
donor molecule, donor type, donor heavy atom, donor atom, acceptor molecule, acceptor atom, score
      L1  H    10    31       P1  7948  1.00
      L1  H    13    32       P1  7948  0.86
      P1  H  7989  7998       L1     3  0.99
      P1  H  8011  8017       L1     4  0.67

> <Gold.PLP.Chemscore.Internal.Correction>
0.0293

> <Gold.Rescore>
     Score         DG    S(hbond)    S(metal)    S(lipo)     H(rot)  DE(clash)    DE(int)     intcor
     19.20     -21.46       2.78        0.00      90.25       1.52       0.09       2.16       ----

> <Gold.Chemscore.Fitness>
19.2035

> <Gold.Chemscore.DG>
-21.4559

> <Gold.Chemscore.ZeroCoef>
-5.4800

> <Gold.Chemscore.Hbond>
2.7836

> <Gold.Chemscore.Metal>
0.0000

> <Gold.Chemscore.Lipo>
90.2548

> <Gold.Chemscore.Internal_Hbond>
0.0000

> <Gold.Chemscore.DEClash>
0.0932

> <Gold.Chemscore.DEInternal>
2.1592

> <Gold.Chemscore.Rot>
1.5161

> <Gold.Chemscore.Internal.Correction>
   9.000000E+99

> <Gold.Chemscore.Hbonds>
donor molecule, donor type, donor heavy atom, donor atom, acceptor molecule, acceptor atom, score
      L1  H    10    31       P1  7948  0.96
      L1  H    13    32       P1  7948  0.67
      P1  H  7989  7998       L1     3  0.23
      P1  H  8011  8017       L1     4  0.42

> <Gold.Chemscore.Hbond.Weighted>
-9.2973

> <Gold.Chemscore.Metal.Weighted>
-0.0000

> <Gold.Chemscore.Lipo.Weighted>
-10.5598

> <Gold.Chemscore.Internal_Hbond.Weighted>
0.0000

> <Gold.Chemscore.DEClash.Weighted>
0.0932

> <Gold.Chemscore.DEInternal.Weighted>
2.1592

> <Gold.Chemscore.Rot.Weighted>
3.8813

> <Gold.Chemscore.Internal.Correction.Weighted>
   9.000000E+99

> <Gold.Protein.RotatedTorsions>
[ 6907 6896 6895 6894 ] final   24.42 input  -60.11 | X-H torsion
[ 7974 7965 7964 7962 ] final  -19.65 input  175.53 | X-H torsion
[ 8008 7997 7996 7995 ] final  -23.32 input   59.86 | X-H torsion
[ 10167 10162 10161 10158 ] final   -5.44 input  -65.29 | X-H torsion
[ 10718 10713 10712 10709 ] final -143.94 input   66.30 | X-H torsion
[ 10763 10752 10751 10750 ] final  -48.22 input  -60.55 | X-H torsion
[ 11005 11000 10999 10996 ] final  -67.07 input  -57.11 | X-H torsion

> <Gold.Protein.ActiveResidues>
 VAL166  LYS551  ARG553  GLY616  TRP617  ASP618  TYR619  PRO620  LYS621  CYS622 
 ASP623  PHE694  ASN695  SER759  ASP760  ASP761  ALA762  ILE779  LEU786  VAL792 
 PHE793  MET794  SER795  GLU796  ALA797  LYS798  CYS799  TRP800  GLU811  SER814 

> <Gold.Protein.RotatedAtoms>
  151.9572  135.0141  160.0545 H   0  0  0  0  0  0  0  0  0  0  0  0  # atno 6907 bound_to 6896
  152.1901  133.4762  159.5012 H   0  0  0  0  0  0  0  0  0  0  0  0  # atno 6908 bound_to 6896
  150.6933  134.1640  159.4230 H   0  0  0  0  0  0  0  0  0  0  0  0  # atno 6909 bound_to 6896
  146.1830  140.4091  142.8487 H   0  0  0  0  0  0  0  0  0  0  0  0  # atno 7974 bound_to 7965
  154.4592  140.1984  156.0292 H   0  0  0  0  0  0  0  0  0  0  0  0  # atno 8008 bound_to 7997
  156.0807  140.3272  155.7662 H   0  0  0  0  0  0  0  0  0  0  0  0  # atno 8009 bound_to 7997
  155.5116  140.0562  157.2913 H   0  0  0  0  0  0  0  0  0  0  0  0  # atno 8010 bound_to 7997
  140.6963  143.6308  150.8524 H   0  0  0  0  0  0  0  0  0  0  0  0  # atno 10167 bound_to 10162
  156.3640  130.7753  151.1925 H   0  0  0  0  0  0  0  0  0  0  0  0  # atno 10718 bound_to 10713
  154.0742  135.6600  153.4828 H   0  0  0  0  0  0  0  0  0  0  0  0  # atno 10763 bound_to 10752
  153.0380  135.5164  154.7537 H   0  0  0  0  0  0  0  0  0  0  0  0  # atno 10764 bound_to 10752
  154.6612  135.3015  154.9831 H   0  0  0  0  0  0  0  0  0  0  0  0  # atno 10765 bound_to 10752
  141.1498  133.6711  156.6236 H   0  0  0  0  0  0  0  0  0  0  0  0  # atno 11005 bound_to 11000
  144.8348  140.6765  143.6267 LP  0  0  0  0  0  0  0  0  0  0  0  0  # atno 17320 bound_to 7965
  145.4020  139.1596  143.4172 LP  0  0  0  0  0  0  0  0  0  0  0  0  # atno 17321 bound_to 7965
  140.0027  143.5727  152.2869 LP  0  0  0  0  0  0  0  0  0  0  0  0  # atno 17342 bound_to 10162
  139.6422  144.7655  151.2315 LP  0  0  0  0  0  0  0  0  0  0  0  0  # atno 17343 bound_to 10162
  157.7477  131.0391  150.4537 LP  0  0  0  0  0  0  0  0  0  0  0  0  # atno 17370 bound_to 10713
  156.4752  130.4061  149.6494 LP  0  0  0  0  0  0  0  0  0  0  0  0  # atno 17371 bound_to 10713
  140.3521  134.7759  157.4474 LP  0  0  0  0  0  0  0  0  0  0  0  0  # atno 17394 bound_to 11000
  140.0852  134.5676  155.8499 LP  0  0  0  0  0  0  0  0  0  0  0  0  # atno 17395 bound_to 11000

$$$$
