AV-unprocessed.smi:1770|AV-procd|sdf|7155|dock9
  -GOLD-   22720 8393D 1   1.00000     0.00000
 Structure written by MMmdl.
 37 38  0  0  0  0  0  0  0  0  1 V2000
  146.0336  143.5917  161.5701 C   0  0  0  0  0  0  0  0  0  0  0  0
  146.4507  142.8095  160.4654 O   0  0  0  0  0  0  0  0  0  0  0  0
  147.1215  143.5784  159.4753 C   0  0  0  0  0  0  0  0  0  0  0  0
  147.2295  142.7843  158.1695 C   0  0  0  0  0  0  0  0  0  0  0  0
  146.1977  142.4699  157.5785 O   0  0  0  0  0  0  0  0  0  0  0  0
  148.4751  142.5076  157.7408 N   0  0  0  0  0  0  0  0  0  0  0  0
  148.9131  141.8120  156.5763 C   0  0  0  0  0  0  0  0  0  0  0  0
  148.0441  141.4225  155.5273 C   0  0  0  0  0  0  0  0  0  0  0  0
  148.5727  140.7456  154.4134 C   0  0  0  0  0  0  0  0  0  0  0  0
  149.9520  140.4758  154.3869 C   0  0  0  0  0  0  0  0  0  0  0  0
  150.7907  140.8253  155.3828 N   0  0  0  0  0  0  0  0  0  0  0  0
  150.2894  141.4741  156.4619 C   0  0  0  0  0  0  0  0  0  0  0  0
  151.1908  141.7993  157.4951 N   0  0  0  0  0  0  0  0  0  0  0  0
  151.3845  143.2366  157.6774 C   0  0  0  0  0  0  0  0  0  0  0  0
  152.6327  143.5123  158.5327 C   0  0  0  0  0  0  0  0  0  0  0  0
  152.5641  142.7518  159.8672 C   0  0  0  0  0  0  0  0  0  0  0  0
  152.3265  141.2533  159.6163 C   0  0  0  0  0  0  0  0  0  0  0  0
  151.0848  141.0317  158.7352 C   0  0  0  0  0  0  0  0  0  0  0  0
  145.5259  142.9574  162.2968 H   0  0  0  0  0  0  0  0  0  0  0  0
  145.3385  144.3728  161.2600 H   0  0  0  0  0  0  0  0  0  0  0  0
  146.8855  144.0578  162.0668 H   0  0  0  0  0  0  0  0  0  0  0  0
  146.5792  144.5064  159.2877 H   0  0  0  0  0  0  0  0  0  0  0  0
  148.1256  143.8391  159.8131 H   0  0  0  0  0  0  0  0  0  0  0  0
  149.2173  142.8948  158.3061 H   0  0  0  0  0  0  0  0  0  0  0  0
  146.9840  141.6168  155.5536 H   0  0  0  0  0  0  0  0  0  0  0  0
  147.9337  140.4390  153.5987 H   0  0  0  0  0  0  0  0  0  0  0  0
  150.3929  139.9590  153.5474 H   0  0  0  0  0  0  0  0  0  0  0  0
  151.4792  143.7421  156.7160 H   0  0  0  0  0  0  0  0  0  0  0  0
  150.5007  143.6513  158.1636 H   0  0  0  0  0  0  0  0  0  0  0  0
  153.5245  143.2079  157.9827 H   0  0  0  0  0  0  0  0  0  0  0  0
  152.7314  144.5825  158.7156 H   0  0  0  0  0  0  0  0  0  0  0  0
  153.4848  142.8987  160.4326 H   0  0  0  0  0  0  0  0  0  0  0  0
  151.7547  143.1544  160.4773 H   0  0  0  0  0  0  0  0  0  0  0  0
  153.2011  140.8228  159.1267 H   0  0  0  0  0  0  0  0  0  0  0  0
  152.2114  140.7270  160.5640 H   0  0  0  0  0  0  0  0  0  0  0  0
  150.1881  141.3371  159.2761 H   0  0  0  0  0  0  0  0  0  0  0  0
  150.9784  139.9705  158.5059 H   0  0  0  0  0  0  0  0  0  0  0  0
  1  2  1  0  0  0  0
  1 19  1  0  0  0  0
  1 20  1  0  0  0  0
  1 21  1  0  0  0  0
  2  3  1  0  0  0  0
  3  4  1  0  0  0  0
  3 22  1  0  0  0  0
  3 23  1  0  0  0  0
  4  5  2  0  0  0  0
  4  6  1  0  0  0  0
  6  7  1  0  0  0  0
  6 24  1  0  0  0  0
  7 12  1  0  0  0  0
  7  8  2  0  0  0  0
  8  9  1  0  0  0  0
  8 25  1  0  0  0  0
  9 10  2  0  0  0  0
  9 26  1  0  0  0  0
 10 11  1  0  0  0  0
 10 27  1  0  0  0  0
 11 12  2  0  0  0  0
 12 13  1  0  0  0  0
 13 18  1  0  0  0  0
 13 14  1  0  0  0  0
 14 15  1  0  0  0  0
 14 28  1  0  0  0  0
 14 29  1  0  0  0  0
 15 16  1  0  0  0  0
 15 30  1  0  0  0  0
 15 31  1  0  0  0  0
 16 17  1  0  0  0  0
 16 32  1  0  0  0  0
 16 33  1  0  0  0  0
 17 18  1  0  0  0  0
 17 34  1  0  0  0  0
 17 35  1  0  0  0  0
 18 36  1  0  0  0  0
 18 37  1  0  0  0  0
M  END
> <s_m_source_file>
AV-unprocessed.smi

> <i_m_source_file_index>
1770

> <i_lp_mmshare_version>
43012

> <i_f3d_flags>
0

> <s_epik_input>
W0NIM11PW0NIMl1DKD1PKVtOSF1jMVtjSF1bY0hdW2NIXW5jMU4yW0NIMl1bQ0gyXVtDSDJdW0NIMl1bQ0gyXTI=

> <s_epik_cmdline>
J2VwaWtfcHl0aG9uJywgJy1waCcsICc3LjAnLCAnLXRuJywgJzgnLCAnLW1hJywgJzIwMCcsICctbWV0YWxfYmluZGluZycsICctaW1hZScsICc8aW5maWxlLm1hZT4nLCAnLW9tYWUnLCAnPG91dGZpbGUubWFlPic=

> <r_lp_tautomer_probability>
1

> <r_epik_Ionization_Penalty>
0.0272113

> <r_epik_Ionization_Penalty_Charging>
0

> <r_epik_Ionization_Penalty_Neutral>
0.0272113

> <r_epik_State_Penalty>
0.0213264

> <r_epik_Charging_Adjusted_Penalty>
0.0213264

> <i_epik_Tot_Q>
0

> <i_epik_Tot_abs_Q>
0

> <r_epik_Metal_State_Penalty>
0.0203232

> <b_epik_Metal_Only>
0

> <s_lp_Force_Field>
OPLS_2005

> <r_lp_Energy>
23.4593

> <b_lp_Chiralities_Consistent>
1

> <s_lp_Variant>
AV-unprocessed.smi:1770-1

> <Gold.Version>
5.8.1

> <Gold.Id.Protein>
6NUR|6NUR_protein|mol2

> <Gold.PLP.Fitness>
38.2447

> <Gold.PLP.PLP>
-32.1400

> <Gold.PLP.part.hbond>
-3.6780

> <Gold.PLP.part.metal>
0.0000

> <Gold.PLP.part.buried>
-0.9250

> <Gold.PLP.part.nonpolar>
-27.9726

> <Gold.PLP.part.repulsive>
0.3088

> <Gold.PLP.ligand.clash>
0.0000

> <Gold.PLP.ligand.torsion>
0.2409

> <Gold.PLP.Chemscore.Hbond>
1.1229

> <Gold.PLP.Chemscore.CHOScore>
0.9702

> <Gold.PLP.Chemscore.Metal>
0.0000

> <Gold.Chemscore.Hbonds>
donor molecule, donor type, donor heavy atom, donor atom, acceptor molecule, acceptor atom, score
      P1  H  6933  6944       L1     2  0.08
      P1  H  6934  6946       L1     2  1.00
      L1  C    10    27       P1  7957  0.94

> <Gold.PLP.Chemscore.Internal.Correction>
0.3075

> <Gold.Rescore>
     Score         DG    S(hbond)    S(metal)    S(lipo)     H(rot)  DE(clash)    DE(int)     intcor
     12.19     -14.72       0.89        0.00      84.10       1.39       0.32       2.21       ----

> <Gold.Chemscore.Fitness>
12.1925

> <Gold.Chemscore.DG>
-14.7220

> <Gold.Chemscore.ZeroCoef>
-5.4800

> <Gold.Chemscore.Hbond>
0.8893

> <Gold.Chemscore.Metal>
0.0000

> <Gold.Chemscore.Lipo>
84.0994

> <Gold.Chemscore.Internal_Hbond>
0.0000

> <Gold.Chemscore.DEClash>
0.3216

> <Gold.Chemscore.DEInternal>
2.2079

> <Gold.Chemscore.Rot>
1.3937

> <Gold.Chemscore.Internal.Correction>
   9.000000E+99

> <Gold.Chemscore.Hbonds>
donor molecule, donor type, donor heavy atom, donor atom, acceptor molecule, acceptor atom, score
      P1  H  6934  6946       L1     2  0.89

> <Gold.Chemscore.Hbond.Weighted>
-2.9702

> <Gold.Chemscore.Metal.Weighted>
-0.0000

> <Gold.Chemscore.Lipo.Weighted>
-9.8396

> <Gold.Chemscore.Internal_Hbond.Weighted>
0.0000

> <Gold.Chemscore.DEClash.Weighted>
0.3216

> <Gold.Chemscore.DEInternal.Weighted>
2.2079

> <Gold.Chemscore.Rot.Weighted>
3.5678

> <Gold.Chemscore.Internal.Correction.Weighted>
   9.000000E+99

> <Gold.Protein.RotatedTorsions>
[ 6907 6896 6895 6894 ] final  148.63 input  -60.11 | X-H torsion
[ 7974 7965 7964 7962 ] final -154.14 input  175.53 | X-H torsion
[ 8008 7997 7996 7995 ] final   30.22 input   59.86 | X-H torsion
[ 10167 10162 10161 10158 ] final  123.25 input  -65.29 | X-H torsion
[ 10718 10713 10712 10709 ] final  -36.60 input   66.30 | X-H torsion
[ 10763 10752 10751 10750 ] final  126.93 input  -60.55 | X-H torsion
[ 11005 11000 10999 10996 ] final   97.29 input  -57.11 | X-H torsion

> <Gold.Protein.ActiveResidues>
 VAL166  LYS551  ARG553  GLY616  TRP617  ASP618  TYR619  PRO620  LYS621  CYS622 
 ASP623  PHE694  ASN695  SER759  ASP760  ASP761  ALA762  ILE779  LEU786  VAL792 
 PHE793  MET794  SER795  GLU796  ALA797  LYS798  CYS799  TRP800  GLU811  SER814 

> <Gold.Protein.RotatedAtoms>
  152.1389  133.4452  159.4756 H   0  0  0  0  0  0  0  0  0  0  0  0  # atno 6907 bound_to 6896
  150.6884  134.2329  159.4451 H   0  0  0  0  0  0  0  0  0  0  0  0  # atno 6908 bound_to 6896
  152.0219  134.9817  160.0621 H   0  0  0  0  0  0  0  0  0  0  0  0  # atno 6909 bound_to 6896
  144.7704  140.4428  143.5911 H   0  0  0  0  0  0  0  0  0  0  0  0  # atno 7974 bound_to 7965
  155.0870  140.3216  155.4584 H   0  0  0  0  0  0  0  0  0  0  0  0  # atno 8008 bound_to 7997
  156.2752  140.2084  156.5944 H   0  0  0  0  0  0  0  0  0  0  0  0  # atno 8009 bound_to 7997
  154.6933  140.0514  157.0372 H   0  0  0  0  0  0  0  0  0  0  0  0  # atno 8010 bound_to 7997
  139.5810  144.6986  151.3527 H   0  0  0  0  0  0  0  0  0  0  0  0  # atno 10167 bound_to 10162
  156.3249  130.4271  149.7925 H   0  0  0  0  0  0  0  0  0  0  0  0  # atno 10718 bound_to 10713
  153.7013  135.3283  155.3225 H   0  0  0  0  0  0  0  0  0  0  0  0  # atno 10763 bound_to 10752
  154.8412  135.4455  154.1408 H   0  0  0  0  0  0  0  0  0  0  0  0  # atno 10764 bound_to 10752
  153.2476  135.6978  153.7793 H   0  0  0  0  0  0  0  0  0  0  0  0  # atno 10765 bound_to 10752
  139.8777  134.8993  156.4285 H   0  0  0  0  0  0  0  0  0  0  0  0  # atno 11005 bound_to 11000
  145.6341  139.1540  143.2952 LP  0  0  0  0  0  0  0  0  0  0  0  0  # atno 17320 bound_to 7965
  146.1846  140.6442  142.9173 LP  0  0  0  0  0  0  0  0  0  0  0  0  # atno 17321 bound_to 7965
  140.7088  143.7443  150.7530 LP  0  0  0  0  0  0  0  0  0  0  0  0  # atno 17342 bound_to 10162
  140.0976  143.4818  152.2444 LP  0  0  0  0  0  0  0  0  0  0  0  0  # atno 17343 bound_to 10162
  156.5219  130.8219  151.3207 LP  0  0  0  0  0  0  0  0  0  0  0  0  # atno 17370 bound_to 10713
  157.7419  130.9880  150.2479 LP  0  0  0  0  0  0  0  0  0  0  0  0  # atno 17371 bound_to 10713
  140.9084  133.7729  155.9762 LP  0  0  0  0  0  0  0  0  0  0  0  0  # atno 17394 bound_to 11000
  140.8574  134.2881  157.5249 LP  0  0  0  0  0  0  0  0  0  0  0  0  # atno 17395 bound_to 11000

$$$$
