AV-unprocessed.smi:1868|AV-procd|sdf|7585|dock8
  -GOLD-   22720 9293D 1   1.00000     0.00000
 Structure written by MMmdl.
 47 49  0  0  0  0  0  0  0  0  2 V2000
  147.3222  141.6947  153.9713 C   0  0  0  0  0  0  0  0  0  0  0  0
  148.4333  140.7453  154.2901 C   0  0  0  0  0  0  0  0  0  0  0  0
  149.6592  141.1648  154.6024 N   0  0  0  0  0  0  0  0  0  0  0  0
  150.3378  139.9816  154.8228 C   0  0  0  0  0  0  0  0  0  0  0  0
  151.6831  139.7482  155.1868 C   0  0  0  0  0  0  0  0  0  0  0  0
  152.1584  138.4311  155.3559 C   0  0  0  0  0  0  0  0  0  0  0  0
  151.2973  137.3311  155.1646 C   0  0  0  0  0  0  0  0  0  0  0  0
  149.9532  137.5414  154.8015 C   0  0  0  0  0  0  0  0  0  0  0  0
  149.4840  138.8580  154.6325 C   0  0  0  0  0  0  0  0  0  0  0  0
  148.2522  139.4017  154.2804 N   0  0  0  0  0  0  0  0  0  0  0  0
  147.0345  138.6647  153.9701 C   0  0  0  0  0  0  0  0  0  0  0  0
  146.6348  138.7799  152.4859 C   0  0  1  0  0  0  0  0  0  0  0  0
  147.7581  138.5005  151.6725 O   0  0  0  0  0  0  0  0  0  0  0  0
  145.5076  137.7946  152.1197 C   0  0  0  0  0  0  0  0  0  0  0  0
  145.9972  136.3999  151.9717 N   0  3  2  0  0  0  0  0  0  0  0  0
  145.3456  135.6607  150.8578 C   0  0  0  0  0  0  0  0  0  0  0  0
  145.9863  134.2764  150.6620 C   0  0  0  0  0  0  0  0  0  0  0  0
  145.9356  133.4479  151.9566 C   0  0  1  0  0  0  0  0  0  0  0  0
  146.6036  132.0769  151.7803 C   0  0  0  0  0  0  0  0  0  0  0  0
  146.5797  134.2524  153.0978 C   0  0  0  0  0  0  0  0  0  0  0  0
  145.9270  135.6372  153.2444 C   0  0  0  0  0  0  0  0  0  0  0  0
  147.6816  142.7241  153.9914 H   0  0  0  0  0  0  0  0  0  0  0  0
  146.5220  141.5982  154.7053 H   0  0  0  0  0  0  0  0  0  0  0  0
  146.9197  141.4921  152.9790 H   0  0  0  0  0  0  0  0  0  0  0  0
  152.3509  140.5838  155.3358 H   0  0  0  0  0  0  0  0  0  0  0  0
  153.1890  138.2642  155.6334 H   0  0  0  0  0  0  0  0  0  0  0  0
  151.6697  136.3256  155.2962 H   0  0  0  0  0  0  0  0  0  0  0  0
  149.2928  136.7001  154.6529 H   0  0  0  0  0  0  0  0  0  0  0  0
  147.1817  137.6190  154.2439 H   0  0  0  0  0  0  0  0  0  0  0  0
  146.2303  139.0309  154.6085 H   0  0  0  0  0  0  0  0  0  0  0  0
  146.3231  139.8046  152.2886 H   0  0  0  0  0  0  0  0  0  0  0  0
  148.4065  139.1748  151.8130 H   0  0  0  0  0  0  0  0  0  0  0  0
  144.7463  137.8395  152.9003 H   0  0  0  0  0  0  0  0  0  0  0  0
  145.0124  138.1014  151.1970 H   0  0  0  0  0  0  0  0  0  0  0  0
  144.2794  135.5535  151.0645 H   0  0  0  0  0  0  0  0  0  0  0  0
  145.4295  136.2209  149.9275 H   0  0  0  0  0  0  0  0  0  0  0  0
  145.4738  133.7461  149.8586 H   0  0  0  0  0  0  0  0  0  0  0  0
  147.0217  134.3977  150.3396 H   0  0  0  0  0  0  0  0  0  0  0  0
  144.8883  133.2762  152.2102 H   0  0  0  0  0  0  0  0  0  0  0  0
  147.6568  132.1788  151.5165 H   0  0  0  0  0  0  0  0  0  0  0  0
  146.1172  131.5015  150.9919 H   0  0  0  0  0  0  0  0  0  0  0  0
  146.5455  131.4912  152.6981 H   0  0  0  0  0  0  0  0  0  0  0  0
  146.4919  133.7050  154.0370 H   0  0  0  0  0  0  0  0  0  0  0  0
  147.6478  134.3722  152.9097 H   0  0  0  0  0  0  0  0  0  0  0  0
  146.4388  136.1890  154.0340 H   0  0  0  0  0  0  0  0  0  0  0  0
  144.8852  135.5342  153.5526 H   0  0  0  0  0  0  0  0  0  0  0  0
  146.9790  136.4733  151.7446 H   0  0  0  0  0  0  0  0  0  0  0  0
  1  2  1  0  0  0  0
  1 22  1  0  0  0  0
  1 23  1  0  0  0  0
  1 24  1  0  0  0  0
  2 10  1  0  0  0  0
  2  3  2  0  0  0  0
  3  4  1  0  0  0  0
  4  9  2  0  0  0  0
  4  5  1  0  0  0  0
  5  6  2  0  0  0  0
  5 25  1  0  0  0  0
  6  7  1  0  0  0  0
  6 26  1  0  0  0  0
  7  8  2  0  0  0  0
  7 27  1  0  0  0  0
  8  9  1  0  0  0  0
  8 28  1  0  0  0  0
  9 10  1  0  0  0  0
 10 11  1  0  0  0  0
 11 12  1  0  0  0  0
 11 29  1  0  0  0  0
 11 30  1  0  0  0  0
 12 13  1  0  0  0  0
 12 14  1  0  0  0  0
 12 31  1  0  0  0  0
 13 32  1  0  0  0  0
 14 15  1  0  0  0  0
 14 33  1  0  0  0  0
 14 34  1  0  0  0  0
 15 21  1  0  0  0  0
 15 16  1  0  0  0  0
 15 47  1  0  0  0  0
 16 17  1  0  0  0  0
 16 35  1  0  0  0  0
 16 36  1  0  0  0  0
 17 18  1  0  0  0  0
 17 37  1  0  0  0  0
 17 38  1  0  0  0  0
 18 19  1  0  0  0  0
 18 20  1  0  0  0  0
 18 39  1  0  0  0  0
 19 40  1  0  0  0  0
 19 41  1  0  0  0  0
 19 42  1  0  0  0  0
 20 21  1  0  0  0  0
 20 43  1  0  0  0  0
 20 44  1  0  0  0  0
 21 45  1  0  0  0  0
 21 46  1  0  0  0  0
M  CHG  1  15   1
M  END
> <s_m_source_file>
AV-unprocessed.smi

> <i_m_source_file_index>
1868

> <i_lp_mmshare_version>
43012

> <i_f3d_flags>
0

> <s_epik_input>
W2NIXTFbY0hdW2NIXVtjSF1jKGMxMiluKGMobjIpW0NIM10pW0NIMl1bQ0BIXShbT0hdKVtDSDJdTjNbQ0gyXVtDSDJdW0NIXShbQ0gzXSlbQ0gyXVtDSDJdMw==

> <s_epik_cmdline>
J2VwaWtfcHl0aG9uJywgJy1waCcsICc3LjAnLCAnLXRuJywgJzgnLCAnLW1hJywgJzIwMCcsICctbWV0YWxfYmluZGluZycsICctaW1hZScsICc8aW5maWxlLm1hZT4nLCAnLW9tYWUnLCAnPG91dGZpbGUubWFlPic=

> <r_epik_Ionization_Penalty>
0.101157

> <r_epik_Ionization_Penalty_Charging>
0.00181365

> <r_epik_Ionization_Penalty_Neutral>
0.0993436

> <r_epik_State_Penalty>
0.0871902

> <r_epik_Charging_Adjusted_Penalty>
0.0890039

> <i_epik_Tot_Q>
1

> <i_epik_Tot_abs_Q>
1

> <r_epik_Metal_State_Penalty>
9.24346e-05

> <b_epik_Metal_Only>
0

> <s_lp_Force_Field>
OPLS_2005

> <r_lp_Energy>
21.7142

> <b_lp_Chiralities_Consistent>
1

> <s_lp_Variant>
AV-unprocessed.smi:1868-2

> <Gold.Version>
5.8.1

> <Gold.Id.Protein>
6NUR|6NUR_protein|mol2

> <Gold.PLP.Fitness>
49.6557

> <Gold.PLP.PLP>
-39.2771

> <Gold.PLP.part.hbond>
-4.6613

> <Gold.PLP.part.metal>
0.0000

> <Gold.PLP.part.buried>
3.4524

> <Gold.PLP.part.nonpolar>
-37.4441

> <Gold.PLP.part.repulsive>
0.1826

> <Gold.PLP.ligand.clash>
0.0000

> <Gold.PLP.ligand.torsion>
0.7143

> <Gold.PLP.Chemscore.Hbond>
3.9192

> <Gold.PLP.Chemscore.CHOScore>
0.0000

> <Gold.PLP.Chemscore.Metal>
0.0000

> <Gold.Chemscore.Hbonds>
donor molecule, donor type, donor heavy atom, donor atom, acceptor molecule, acceptor atom, score
      L1  H    13    32       P1  7957  0.88
      L1  H    15    47       P1  7948  2.00
      P1  H  7954  7966       L1    13  0.96

> <Gold.PLP.Chemscore.Internal.Correction>
0.0496

> <Gold.Rescore>
     Score         DG    S(hbond)    S(metal)    S(lipo)     H(rot)  DE(clash)    DE(int)     intcor
     17.14     -18.04       2.04        0.00      91.00       1.92       0.19       0.71       ----

> <Gold.Chemscore.Fitness>
17.1437

> <Gold.Chemscore.DG>
-18.0363

> <Gold.Chemscore.ZeroCoef>
-5.4800

> <Gold.Chemscore.Hbond>
2.0431

> <Gold.Chemscore.Metal>
0.0000

> <Gold.Chemscore.Lipo>
91.0018

> <Gold.Chemscore.Internal_Hbond>
0.0000

> <Gold.Chemscore.DEClash>
0.1867

> <Gold.Chemscore.DEInternal>
0.7059

> <Gold.Chemscore.Rot>
1.9198

> <Gold.Chemscore.Internal.Correction>
   9.000000E+99

> <Gold.Chemscore.Hbonds>
donor molecule, donor type, donor heavy atom, donor atom, acceptor molecule, acceptor atom, score
      L1  H    13    32       P1  7957  0.83
      L1  H    15    47       P1  7948  0.98
      P1  H  7954  7966       L1    13  0.32

> <Gold.Chemscore.Hbond.Weighted>
-6.8238

> <Gold.Chemscore.Metal.Weighted>
-0.0000

> <Gold.Chemscore.Lipo.Weighted>
-10.6472

> <Gold.Chemscore.Internal_Hbond.Weighted>
0.0000

> <Gold.Chemscore.DEClash.Weighted>
0.1867

> <Gold.Chemscore.DEInternal.Weighted>
0.7059

> <Gold.Chemscore.Rot.Weighted>
4.9147

> <Gold.Chemscore.Internal.Correction.Weighted>
   9.000000E+99

> <Gold.Protein.RotatedTorsions>
[ 6907 6896 6895 6894 ] final  109.37 input  -60.11 | X-H torsion
[ 7974 7965 7964 7962 ] final -125.68 input  175.53 | X-H torsion
[ 8008 7997 7996 7995 ] final   29.87 input   59.86 | X-H torsion
[ 10167 10162 10161 10158 ] final   85.38 input  -65.29 | X-H torsion
[ 10718 10713 10712 10709 ] final   51.46 input   66.30 | X-H torsion
[ 10763 10752 10751 10750 ] final  113.04 input  -60.55 | X-H torsion
[ 11005 11000 10999 10996 ] final -158.85 input  -57.11 | X-H torsion

> <Gold.Protein.ActiveResidues>
 VAL166  LYS551  ARG553  GLY616  TRP617  ASP618  TYR619  PRO620  LYS621  CYS622 
 ASP623  PHE694  ASN695  SER759  ASP760  ASP761  ALA762  ILE779  LEU786  VAL792 
 PHE793  MET794  SER795  GLU796  ALA797  LYS798  CYS799  TRP800  GLU811  SER814 

> <Gold.Protein.RotatedAtoms>
  152.5070  133.8954  159.7414 H   0  0  0  0  0  0  0  0  0  0  0  0  # atno 6907 bound_to 6896
  150.9383  133.6678  159.2803 H   0  0  0  0  0  0  0  0  0  0  0  0  # atno 6908 bound_to 6896
  151.3998  135.0974  159.9605 H   0  0  0  0  0  0  0  0  0  0  0  0  # atno 6909 bound_to 6896
  144.9950  140.7768  143.4531 H   0  0  0  0  0  0  0  0  0  0  0  0  # atno 7974 bound_to 7965
  155.0814  140.3210  155.4600 H   0  0  0  0  0  0  0  0  0  0  0  0  # atno 8008 bound_to 7997
  156.2766  140.2094  156.5887 H   0  0  0  0  0  0  0  0  0  0  0  0  # atno 8009 bound_to 7997
  154.6976  140.0510  157.0413 H   0  0  0  0  0  0  0  0  0  0  0  0  # atno 8010 bound_to 7997
  139.8983  144.6344  150.8664 H   0  0  0  0  0  0  0  0  0  0  0  0  # atno 10167 bound_to 10162
  157.4983  130.8421  149.8285 H   0  0  0  0  0  0  0  0  0  0  0  0  # atno 10718 bound_to 10713
  153.4867  135.3667  155.2470 H   0  0  0  0  0  0  0  0  0  0  0  0  # atno 10763 bound_to 10752
  154.8753  135.3967  154.3636 H   0  0  0  0  0  0  0  0  0  0  0  0  # atno 10764 bound_to 10752
  153.4249  135.7081  153.6334 H   0  0  0  0  0  0  0  0  0  0  0  0  # atno 10765 bound_to 10752
  140.6491  134.4470  157.5235 H   0  0  0  0  0  0  0  0  0  0  0  0  # atno 11005 bound_to 11000
  145.2232  139.2149  143.5082 LP  0  0  0  0  0  0  0  0  0  0  0  0  # atno 17320 bound_to 7965
  146.3440  140.2094  142.8590 LP  0  0  0  0  0  0  0  0  0  0  0  0  # atno 17321 bound_to 7965
  140.7712  143.3456  151.2118 LP  0  0  0  0  0  0  0  0  0  0  0  0  # atno 17342 bound_to 10162
  139.7047  143.9474  152.2921 LP  0  0  0  0  0  0  0  0  0  0  0  0  # atno 17343 bound_to 10162
  156.0214  130.3794  150.1952 LP  0  0  0  0  0  0  0  0  0  0  0  0  # atno 17370 bound_to 10713
  157.0141  130.9960  151.3358 LP  0  0  0  0  0  0  0  0  0  0  0  0  # atno 17371 bound_to 10713
  139.9052  134.8465  156.1734 LP  0  0  0  0  0  0  0  0  0  0  0  0  # atno 17394 bound_to 11000
  141.0550  133.6869  156.1844 LP  0  0  0  0  0  0  0  0  0  0  0  0  # atno 17395 bound_to 11000

$$$$
