AV-unprocessed.smi:252|AV-procd|sdf|1940|dock2
  -GOLD-   2262021 63D 1   1.00000     0.00000
 Structure written by MMmdl.
 56 59  0  0  0  0  0  0  0  0  1 V2000
  145.7161  145.8301  159.6077 C   0  0  0  0  0  0  0  0  0  0  0  0
  146.6801  146.1603  160.7569 C   0  0  0  0  0  0  0  0  0  0  0  0
  147.8560  145.1833  160.8425 C   0  0  0  0  0  0  0  0  0  0  0  0
  147.9003  144.3453  161.7432 O   0  0  0  0  0  0  0  0  0  0  0  0
  148.8020  145.3116  159.8963 N   0  0  0  0  0  0  0  0  0  0  0  0
  150.0175  144.5120  159.7370 C   0  0  2  0  0  0  0  0  0  0  0  0
  151.2597  145.3733  159.4276 C   0  0  0  0  0  0  0  0  0  0  0  0
  152.5036  144.4790  159.3216 C   0  0  0  0  0  0  0  0  0  0  0  0
  152.2880  143.3598  158.2899 C   0  0  0  0  0  0  0  0  0  0  0  0
  151.0806  142.5918  158.5955 N   0  0  0  0  0  0  0  0  0  0  0  0
  151.0075  141.3830  157.9826 C   0  0  0  0  0  0  0  0  0  0  0  0
  151.6102  140.2995  158.5417 N   0  0  0  0  0  0  0  0  0  0  0  0
  151.5289  139.1026  157.9527 C   0  0  0  0  0  0  0  0  0  0  0  0
  150.9077  138.7705  156.8194 N   0  0  0  0  0  0  0  0  0  0  0  0
  150.3074  139.8540  156.2490 C   0  0  0  0  0  0  0  0  0  0  0  0
  150.3118  141.1842  156.7565 C   0  0  0  0  0  0  0  0  0  0  0  0
  149.6137  142.0213  155.8936 N   0  0  0  0  0  0  0  0  0  0  0  0
  149.2087  141.2295  154.9390 C   0  0  0  0  0  0  0  0  0  0  0  0
  149.5709  139.9087  155.0782 N   0  0  0  0  0  0  0  0  0  0  0  0
  149.2447  138.8173  154.1738 C   0  0  0  0  0  0  0  0  0  0  0  0
  147.8722  138.1674  154.4699 C   0  0  1  0  0  0  0  0  0  0  0  0
  147.9236  136.8047  154.0784 O   0  0  0  0  0  0  0  0  0  0  0  0
  147.4572  138.2323  155.9324 C   0  0  0  0  0  0  0  0  0  0  0  0
  145.9412  138.1069  155.8515 C   0  0  0  0  0  0  0  0  0  0  0  0
  145.5811  138.8092  154.6689 O   0  0  0  0  0  0  0  0  0  0  0  0
  146.6948  138.8912  153.7801 C   0  0  2  0  0  0  0  0  0  0  0  0
  146.3132  138.4010  152.3742 C   0  0  0  0  0  0  0  0  0  0  0  0
  149.8513  143.3805  158.7001 C   0  0  0  0  0  0  0  0  0  0  0  0
  144.9102  146.5625  159.5586 H   0  0  0  0  0  0  0  0  0  0  0  0
  145.2588  144.8487  159.7374 H   0  0  0  0  0  0  0  0  0  0  0  0
  146.2287  145.8387  158.6451 H   0  0  0  0  0  0  0  0  0  0  0  0
  147.0549  147.1772  160.6321 H   0  0  0  0  0  0  0  0  0  0  0  0
  146.1438  146.1397  161.7058 H   0  0  0  0  0  0  0  0  0  0  0  0
  148.6641  146.0394  159.2100 H   0  0  0  0  0  0  0  0  0  0  0  0
  150.1805  144.0417  160.7077 H   0  0  0  0  0  0  0  0  0  0  0  0
  151.1308  145.9137  158.4894 H   0  0  0  0  0  0  0  0  0  0  0  0
  151.4057  146.1241  160.2048 H   0  0  0  0  0  0  0  0  0  0  0  0
  153.3726  145.0774  159.0472 H   0  0  0  0  0  0  0  0  0  0  0  0
  152.7239  144.0395  160.2954 H   0  0  0  0  0  0  0  0  0  0  0  0
  152.1832  143.7909  157.2932 H   0  0  0  0  0  0  0  0  0  0  0  0
  153.1716  142.7233  158.2607 H   0  0  0  0  0  0  0  0  0  0  0  0
  152.0309  138.2948  158.4646 H   0  0  0  0  0  0  0  0  0  0  0  0
  148.6245  141.5889  154.1042 H   0  0  0  0  0  0  0  0  0  0  0  0
  149.2645  139.2100  153.1563 H   0  0  0  0  0  0  0  0  0  0  0  0
  150.0380  138.0705  154.2277 H   0  0  0  0  0  0  0  0  0  0  0  0
  148.5977  136.7070  153.4235 H   0  0  0  0  0  0  0  0  0  0  0  0
  147.9185  137.4654  156.5562 H   0  0  0  0  0  0  0  0  0  0  0  0
  147.7136  139.2057  156.3530 H   0  0  0  0  0  0  0  0  0  0  0  0
  145.6484  137.0614  155.7457 H   0  0  0  0  0  0  0  0  0  0  0  0
  145.4378  138.5132  156.7288 H   0  0  0  0  0  0  0  0  0  0  0  0
  146.9317  139.9542  153.7145 H   0  0  0  0  0  0  0  0  0  0  0  0
  147.1655  138.4542  151.6962 H   0  0  0  0  0  0  0  0  0  0  0  0
  145.5174  139.0166  151.9548 H   0  0  0  0  0  0  0  0  0  0  0  0
  145.9555  137.3712  152.3884 H   0  0  0  0  0  0  0  0  0  0  0  0
  149.0220  142.7363  158.9961 H   0  0  0  0  0  0  0  0  0  0  0  0
  149.6102  143.7873  157.7174 H   0  0  0  0  0  0  0  0  0  0  0  0
  1  2  1  0  0  0  0
  1 29  1  0  0  0  0
  1 30  1  0  0  0  0
  1 31  1  0  0  0  0
  2  3  1  0  0  0  0
  2 32  1  0  0  0  0
  2 33  1  0  0  0  0
  3  4  2  0  0  0  0
  3  5  1  0  0  0  0
  5  6  1  0  0  0  0
  5 34  1  0  0  0  0
  6 28  1  0  0  0  0
  6  7  1  0  0  0  0
  6 35  1  0  0  0  0
  7  8  1  0  0  0  0
  7 36  1  0  0  0  0
  7 37  1  0  0  0  0
  8  9  1  0  0  0  0
  8 38  1  0  0  0  0
  8 39  1  0  0  0  0
  9 10  1  0  0  0  0
  9 40  1  0  0  0  0
  9 41  1  0  0  0  0
 10 11  1  0  0  0  0
 10 28  1  0  0  0  0
 11 16  1  0  0  0  0
 11 12  2  0  0  0  0
 12 13  1  0  0  0  0
 13 14  2  0  0  0  0
 13 42  1  0  0  0  0
 14 15  1  0  0  0  0
 15 19  1  0  0  0  0
 15 16  2  0  0  0  0
 16 17  1  0  0  0  0
 17 18  2  0  0  0  0
 18 19  1  0  0  0  0
 18 43  1  0  0  0  0
 19 20  1  0  0  0  0
 20 21  1  0  0  0  0
 20 44  1  0  0  0  0
 20 45  1  0  0  0  0
 21 26  1  0  0  0  0
 21 22  1  0  0  0  0
 21 23  1  0  0  0  0
 22 46  1  0  0  0  0
 23 24  1  0  0  0  0
 23 47  1  0  0  0  0
 23 48  1  0  0  0  0
 24 25  1  0  0  0  0
 24 49  1  0  0  0  0
 24 50  1  0  0  0  0
 25 26  1  0  0  0  0
 26 27  1  0  0  0  0
 26 51  1  0  0  0  0
 27 52  1  0  0  0  0
 27 53  1  0  0  0  0
 27 54  1  0  0  0  0
 28 55  1  0  0  0  0
 28 56  1  0  0  0  0
M  END
> <s_m_source_file>
AV-unprocessed.smi

> <i_m_source_file_index>
252

> <i_lp_mmshare_version>
43012

> <i_f3d_flags>
0

> <s_epik_input>
W0NIM11bQ0gyXUMoPU8pW05IXVtDQEBIXTFbQ0gyXVtDSDJdW0NIMl1OKFtDSDJdMSljKG5bY0hdbjIpYyhjMjMpbltjSF1uM1tDSDJdW0NAQF00KFtPSF0pW0NIMl1bQ0gyXU9bQ0BIXTRbQ0gzXQ==

> <s_epik_cmdline>
J2VwaWtfcHl0aG9uJywgJy1waCcsICc3LjAnLCAnLXRuJywgJzgnLCAnLW1hJywgJzIwMCcsICctbWV0YWxfYmluZGluZycsICctaW1hZScsICc8aW5maWxlLm1hZT4nLCAnLW9tYWUnLCAnPG91dGZpbGUubWFlPic=

> <r_lp_tautomer_probability>
1

> <r_epik_Ionization_Penalty>
0.00182575

> <r_epik_Ionization_Penalty_Charging>
0

> <r_epik_Ionization_Penalty_Neutral>
0.00182575

> <r_epik_State_Penalty>
0.00104524

> <r_epik_Charging_Adjusted_Penalty>
0.00104524

> <i_epik_Tot_Q>
0

> <i_epik_Tot_abs_Q>
0

> <r_epik_Metal_State_Penalty>
-0

> <b_epik_Metal_Only>
0

> <s_lp_Force_Field>
OPLS_2005

> <r_lp_Energy>
36.8902

> <b_lp_Chiralities_Consistent>
1

> <s_lp_Variant>
AV-unprocessed.smi:252-5

> <Gold.Version>
5.8.1

> <Gold.Id.Protein>
6NUR|6NUR_protein|mol2

> <Gold.PLP.Fitness>
46.9191

> <Gold.PLP.PLP>
-42.6892

> <Gold.PLP.part.hbond>
-2.3570

> <Gold.PLP.part.metal>
0.0000

> <Gold.PLP.part.buried>
-7.6391

> <Gold.PLP.part.nonpolar>
-36.5703

> <Gold.PLP.part.repulsive>
2.5314

> <Gold.PLP.ligand.clash>
0.0000

> <Gold.PLP.ligand.torsion>
1.8318

> <Gold.PLP.Chemscore.Hbond>
2.4560

> <Gold.PLP.Chemscore.CHOScore>
0.0000

> <Gold.PLP.Chemscore.Metal>
0.0000

> <Gold.Chemscore.Hbonds>
donor molecule, donor type, donor heavy atom, donor atom, acceptor molecule, acceptor atom, score
      L1  H     5    34       P1  8029  0.58
      L1  H    22    46       P1  7948  0.94
      P1  H  6933  6944       L1     4  0.86

> <Gold.PLP.Chemscore.Internal.Correction>
0.5256

> <Gold.Rescore>
     Score         DG    S(hbond)    S(metal)    S(lipo)     H(rot)  DE(clash)    DE(int)     intcor
     15.87     -17.47       2.76        0.00      82.79       2.70       0.09       1.52       ----

> <Gold.Chemscore.Fitness>
15.8707

> <Gold.Chemscore.DG>
-17.4745

> <Gold.Chemscore.ZeroCoef>
-5.4800

> <Gold.Chemscore.Hbond>
2.7636

> <Gold.Chemscore.Metal>
0.0000

> <Gold.Chemscore.Lipo>
82.7917

> <Gold.Chemscore.Internal_Hbond>
0.0000

> <Gold.Chemscore.DEClash>
0.0875

> <Gold.Chemscore.DEInternal>
1.5163

> <Gold.Chemscore.Rot>
2.7041

> <Gold.Chemscore.Internal.Correction>
   9.000000E+99

> <Gold.Chemscore.Hbonds>
donor molecule, donor type, donor heavy atom, donor atom, acceptor molecule, acceptor atom, score
      L1  H     5    34       P1  8029  0.56
      L1  H    22    46       P1  7948  0.91
      P1  H  6933  6944       L1     4  0.79

> <Gold.Chemscore.Hbond.Weighted>
-9.2303

> <Gold.Chemscore.Metal.Weighted>
-0.0000

> <Gold.Chemscore.Lipo.Weighted>
-9.6866

> <Gold.Chemscore.Internal_Hbond.Weighted>
0.0000

> <Gold.Chemscore.DEClash.Weighted>
0.0875

> <Gold.Chemscore.DEInternal.Weighted>
1.5163

> <Gold.Chemscore.Rot.Weighted>
6.9225

> <Gold.Chemscore.Internal.Correction.Weighted>
   9.000000E+99

> <Gold.Protein.RotatedTorsions>
[ 6907 6896 6895 6894 ] final -149.87 input  -60.11 | X-H torsion
[ 7974 7965 7964 7962 ] final  134.22 input  175.53 | X-H torsion
[ 8008 7997 7996 7995 ] final  103.93 input   59.86 | X-H torsion
[ 10167 10162 10161 10158 ] final    9.04 input  -65.29 | X-H torsion
[ 10718 10713 10712 10709 ] final  124.29 input   66.30 | X-H torsion
[ 10763 10752 10751 10750 ] final  -47.17 input  -60.55 | X-H torsion
[ 11005 11000 10999 10996 ] final   12.77 input  -57.11 | X-H torsion

> <Gold.Protein.ActiveResidues>
 VAL166  LYS551  ARG553  GLY616  TRP617  ASP618  TYR619  PRO620  LYS621  CYS622 
 ASP623  PHE694  ASN695  SER759  ASP760  ASP761  ALA762  ILE779  LEU786  VAL792 
 PHE793  MET794  SER795  GLU796  ALA797  LYS798  CYS799  TRP800  GLU811  SER814 

> <Gold.Protein.RotatedAtoms>
  151.1904  133.4671  159.2594 H   0  0  0  0  0  0  0  0  0  0  0  0  # atno 6907 bound_to 6896
  151.1170  135.0058  159.8530 H   0  0  0  0  0  0  0  0  0  0  0  0  # atno 6908 bound_to 6896
  152.5454  134.1818  159.8691 H   0  0  0  0  0  0  0  0  0  0  0  0  # atno 6909 bound_to 6896
  144.9786  139.4529  143.5397 H   0  0  0  0  0  0  0  0  0  0  0  0  # atno 7974 bound_to 7965
  156.1528  140.3156  155.8676 H   0  0  0  0  0  0  0  0  0  0  0  0  # atno 8008 bound_to 7997
  155.3937  140.0495  157.3056 H   0  0  0  0  0  0  0  0  0  0  0  0  # atno 8009 bound_to 7997
  154.5074  140.2152  155.9236 H   0  0  0  0  0  0  0  0  0  0  0  0  # atno 8010 bound_to 7997
  140.6279  143.8061  150.7256 H   0  0  0  0  0  0  0  0  0  0  0  0  # atno 10167 bound_to 10162
  157.5597  131.1090  150.8560 H   0  0  0  0  0  0  0  0  0  0  0  0  # atno 10718 bound_to 10713
  154.0569  135.6623  153.4807 H   0  0  0  0  0  0  0  0  0  0  0  0  # atno 10763 bound_to 10752
  153.0442  135.5125  154.7696 H   0  0  0  0  0  0  0  0  0  0  0  0  # atno 10764 bound_to 10752
  154.6720  135.3031  154.9695 H   0  0  0  0  0  0  0  0  0  0  0  0  # atno 10765 bound_to 10752
  140.4882  134.0866  155.7765 H   0  0  0  0  0  0  0  0  0  0  0  0  # atno 11005 bound_to 11000
  146.3402  139.9044  142.8789 LP  0  0  0  0  0  0  0  0  0  0  0  0  # atno 17320 bound_to 7965
  145.2454  141.0025  143.3911 LP  0  0  0  0  0  0  0  0  0  0  0  0  # atno 17321 bound_to 7965
  140.1665  143.4231  152.2031 LP  0  0  0  0  0  0  0  0  0  0  0  0  # atno 17342 bound_to 10162
  139.5496  144.7327  151.4475 LP  0  0  0  0  0  0  0  0  0  0  0  0  # atno 17343 bound_to 10162
  156.9061  130.5264  149.5281 LP  0  0  0  0  0  0  0  0  0  0  0  0  # atno 17370 bound_to 10713
  156.0651  130.5696  150.9272 LP  0  0  0  0  0  0  0  0  0  0  0  0  # atno 17371 bound_to 10713
  141.1497  133.8991  157.2128 LP  0  0  0  0  0  0  0  0  0  0  0  0  # atno 17394 bound_to 11000
  139.9785  135.0106  156.9690 LP  0  0  0  0  0  0  0  0  0  0  0  0  # atno 17395 bound_to 11000

$$$$
