AV-unprocessed.smi:642|AV-procd|sdf|3152|dock10
  -GOLD-   22720 0 73D 1   1.00000     0.00000
 Structure written by MMmdl.
 49 51  0  0  0  0  0  0  0  0  1 V2000
  149.2158  137.6570  159.3361 O   0  0  0  0  0  0  0  0  0  0  0  0
  149.1043  136.4853  158.9749 C   0  0  0  0  0  0  0  0  0  0  0  0
  149.5330  135.9974  157.7998 N   0  0  0  0  0  0  0  0  0  0  0  0
  150.2174  136.6987  156.7685 C   0  0  0  0  0  0  0  0  0  0  0  0
  150.3085  138.1111  156.7568 C   0  0  0  0  0  0  0  0  0  0  0  0
  150.9545  138.7474  155.6819 C   0  0  0  0  0  0  0  0  0  0  0  0
  151.4765  137.9482  154.6496 C   0  0  0  0  0  0  0  0  0  0  0  0
  151.3870  136.6027  154.6406 N   0  0  0  0  0  0  0  0  0  0  0  0
  150.7702  135.9798  155.6748 C   0  0  0  0  0  0  0  0  0  0  0  0
  150.7215  134.5715  155.6497 N   0  0  0  0  0  0  0  0  0  0  0  0
  149.3880  134.0409  155.3884 C   0  0  0  0  0  0  0  0  0  0  0  0
  149.4662  132.5278  155.1227 C   0  0  0  0  0  0  0  0  0  0  0  0
  150.1077  131.8804  156.2181 O   0  0  0  0  0  0  0  0  0  0  0  0
  151.4373  132.3525  156.4167 C   0  0  0  0  0  0  0  0  0  0  0  0
  151.4096  133.8600  156.7226 C   0  0  0  0  0  0  0  0  0  0  0  0
  148.5585  135.5202  159.7290 N   0  0  0  0  0  0  0  0  0  0  0  0
  148.0458  135.6869  161.0874 C   0  0  0  0  0  0  0  0  0  0  0  0
  147.8502  134.3092  161.7603 C   0  0  0  0  0  0  0  0  0  0  0  0
  146.5017  133.6213  161.4869 C   0  0  0  0  0  0  0  0  0  0  0  0
  145.4075  134.0438  162.4838 C   0  0  0  0  0  0  0  0  0  0  0  0
  144.8629  135.4674  162.2859 C   0  0  0  0  0  0  0  0  0  0  0  0
  145.9269  136.5794  162.3064 C   0  0  0  0  0  0  0  0  0  0  0  0
  146.7956  136.5896  161.0379 C   0  0  0  0  0  0  0  0  0  0  0  0
  149.4730  134.9966  157.6803 H   0  0  0  0  0  0  0  0  0  0  0  0
  149.8784  138.7120  157.5439 H   0  0  0  0  0  0  0  0  0  0  0  0
  151.0400  139.8233  155.6458 H   0  0  0  0  0  0  0  0  0  0  0  0
  151.9759  138.4012  153.8061 H   0  0  0  0  0  0  0  0  0  0  0  0
  148.7522  134.2355  156.2532 H   0  0  0  0  0  0  0  0  0  0  0  0
  148.9274  134.5425  154.5372 H   0  0  0  0  0  0  0  0  0  0  0  0
  148.4643  132.1151  155.0034 H   0  0  0  0  0  0  0  0  0  0  0  0
  150.0076  132.3241  154.1972 H   0  0  0  0  0  0  0  0  0  0  0  0
  151.8874  131.8088  157.2475 H   0  0  0  0  0  0  0  0  0  0  0  0
  152.0435  132.1456  155.5333 H   0  0  0  0  0  0  0  0  0  0  0  0
  152.4266  134.2400  156.8285 H   0  0  0  0  0  0  0  0  0  0  0  0
  150.8960  134.0332  157.6694 H   0  0  0  0  0  0  0  0  0  0  0  0
  148.5134  134.5887  159.3426 H   0  0  0  0  0  0  0  0  0  0  0  0
  148.7962  136.2194  161.6747 H   0  0  0  0  0  0  0  0  0  0  0  0
  148.6567  133.6433  161.4497 H   0  0  0  0  0  0  0  0  0  0  0  0
  147.9835  134.4148  162.8375 H   0  0  0  0  0  0  0  0  0  0  0  0
  146.1807  133.7769  160.4563 H   0  0  0  0  0  0  0  0  0  0  0  0
  146.6458  132.5455  161.5933 H   0  0  0  0  0  0  0  0  0  0  0  0
  144.5728  133.3471  162.3991 H   0  0  0  0  0  0  0  0  0  0  0  0
  145.7780  133.9330  163.5036 H   0  0  0  0  0  0  0  0  0  0  0  0
  144.2993  135.5164  161.3533 H   0  0  0  0  0  0  0  0  0  0  0  0
  144.1382  135.6655  163.0761 H   0  0  0  0  0  0  0  0  0  0  0  0
  145.4042  137.5347  162.3642 H   0  0  0  0  0  0  0  0  0  0  0  0
  146.5420  136.5222  163.2051 H   0  0  0  0  0  0  0  0  0  0  0  0
  147.1297  137.6113  160.8524 H   0  0  0  0  0  0  0  0  0  0  0  0
  146.1749  136.3326  160.1782 H   0  0  0  0  0  0  0  0  0  0  0  0
  1  2  2  0  0  0  0
  2  3  1  0  0  0  0
  2 16  1  0  0  0  0
  3  4  1  0  0  0  0
  3 24  1  0  0  0  0
  4  9  1  0  0  0  0
  4  5  2  0  0  0  0
  5  6  1  0  0  0  0
  5 25  1  0  0  0  0
  6  7  2  0  0  0  0
  6 26  1  0  0  0  0
  7  8  1  0  0  0  0
  7 27  1  0  0  0  0
  8  9  2  0  0  0  0
  9 10  1  0  0  0  0
 10 15  1  0  0  0  0
 10 11  1  0  0  0  0
 11 12  1  0  0  0  0
 11 28  1  0  0  0  0
 11 29  1  0  0  0  0
 12 13  1  0  0  0  0
 12 30  1  0  0  0  0
 12 31  1  0  0  0  0
 13 14  1  0  0  0  0
 14 15  1  0  0  0  0
 14 32  1  0  0  0  0
 14 33  1  0  0  0  0
 15 34  1  0  0  0  0
 15 35  1  0  0  0  0
 16 17  1  0  0  0  0
 16 36  1  0  0  0  0
 17 23  1  0  0  0  0
 17 18  1  0  0  0  0
 17 37  1  0  0  0  0
 18 19  1  0  0  0  0
 18 38  1  0  0  0  0
 18 39  1  0  0  0  0
 19 20  1  0  0  0  0
 19 40  1  0  0  0  0
 19 41  1  0  0  0  0
 20 21  1  0  0  0  0
 20 42  1  0  0  0  0
 20 43  1  0  0  0  0
 21 22  1  0  0  0  0
 21 44  1  0  0  0  0
 21 45  1  0  0  0  0
 22 23  1  0  0  0  0
 22 46  1  0  0  0  0
 22 47  1  0  0  0  0
 23 48  1  0  0  0  0
 23 49  1  0  0  0  0
M  END
> <s_m_source_file>
AV-unprocessed.smi

> <i_m_source_file_index>
642

> <i_lp_mmshare_version>
43012

> <i_f3d_flags>
0

> <s_epik_input>
W0NIMl0xW0NIMl1bQ0gyXVtDSDJdW0NIMl1bQ0gyXVtDSF0xW05IXUMoPU8pW05IXWMyW2NIXVtjSF1bY0hdbmMyTjNbQ0gyXVtDSDJdT1tDSDJdW0NIMl0z

> <s_epik_cmdline>
J2VwaWtfcHl0aG9uJywgJy1waCcsICc3LjAnLCAnLXRuJywgJzgnLCAnLW1hJywgJzIwMCcsICctbWV0YWxfYmluZGluZycsICctaW1hZScsICc8aW5maWxlLm1hZT4nLCAnLW9tYWUnLCAnPG91dGZpbGUubWFlPic=

> <r_lp_tautomer_probability>
1

> <r_epik_Ionization_Penalty>
0.00218327

> <r_epik_Ionization_Penalty_Charging>
0

> <r_epik_Ionization_Penalty_Neutral>
0.00218327

> <r_epik_State_Penalty>
0.00146969

> <r_epik_Charging_Adjusted_Penalty>
0.00146969

> <i_epik_Tot_Q>
0

> <i_epik_Tot_abs_Q>
0

> <r_epik_Metal_State_Penalty>
-0

> <b_epik_Metal_Only>
0

> <s_lp_Force_Field>
OPLS_2005

> <r_lp_Energy>
33.5624

> <b_lp_Chiralities_Consistent>
1

> <s_lp_Variant>
AV-unprocessed.smi:642-1

> <Gold.Version>
5.8.1

> <Gold.Id.Protein>
6NUR|6NUR_protein|mol2

> <Gold.PLP.Fitness>
34.7320

> <Gold.PLP.PLP>
-32.0658

> <Gold.PLP.part.hbond>
-2.0000

> <Gold.PLP.part.metal>
0.0000

> <Gold.PLP.part.buried>
-6.3163

> <Gold.PLP.part.nonpolar>
-25.4706

> <Gold.PLP.part.repulsive>
0.4625

> <Gold.PLP.ligand.clash>
0.0000

> <Gold.PLP.ligand.torsion>
0.2825

> <Gold.PLP.Chemscore.Hbond>
1.0000

> <Gold.PLP.Chemscore.CHOScore>
0.0000

> <Gold.PLP.Chemscore.Metal>
0.0000

> <Gold.Chemscore.Hbonds>
donor molecule, donor type, donor heavy atom, donor atom, acceptor molecule, acceptor atom, score
      P1  H 10752 10765       L1     8  1.00

> <Gold.PLP.Chemscore.Internal.Correction>
0.2312

> <Gold.Rescore>
     Score         DG    S(hbond)    S(metal)    S(lipo)     H(rot)  DE(clash)    DE(int)     intcor
     12.88     -15.74       0.93        0.00      86.90       1.18       0.14       2.73       ----

> <Gold.Chemscore.Fitness>
12.8777

> <Gold.Chemscore.DG>
-15.7444

> <Gold.Chemscore.ZeroCoef>
-5.4800

> <Gold.Chemscore.Hbond>
0.9328

> <Gold.Chemscore.Metal>
0.0000

> <Gold.Chemscore.Lipo>
86.8984

> <Gold.Chemscore.Internal_Hbond>
0.0000

> <Gold.Chemscore.DEClash>
0.1378

> <Gold.Chemscore.DEInternal>
2.7289

> <Gold.Chemscore.Rot>
1.1791

> <Gold.Chemscore.Internal.Correction>
   9.000000E+99

> <Gold.Chemscore.Hbonds>
donor molecule, donor type, donor heavy atom, donor atom, acceptor molecule, acceptor atom, score
      P1  H 10752 10765       L1     8  0.29

> <Gold.Chemscore.Hbond.Weighted>
-3.1157

> <Gold.Chemscore.Metal.Weighted>
-0.0000

> <Gold.Chemscore.Lipo.Weighted>
-10.1671

> <Gold.Chemscore.Internal_Hbond.Weighted>
0.0000

> <Gold.Chemscore.DEClash.Weighted>
0.1378

> <Gold.Chemscore.DEInternal.Weighted>
2.7289

> <Gold.Chemscore.Rot.Weighted>
3.0184

> <Gold.Chemscore.Internal.Correction.Weighted>
   9.000000E+99

> <Gold.Protein.RotatedTorsions>
[ 6907 6896 6895 6894 ] final  -49.30 input  -60.11 | X-H torsion
[ 7974 7965 7964 7962 ] final -161.34 input  175.53 | X-H torsion
[ 8008 7997 7996 7995 ] final    5.45 input   59.86 | X-H torsion
[ 10167 10162 10161 10158 ] final   65.92 input  -65.29 | X-H torsion
[ 10718 10713 10712 10709 ] final -105.91 input   66.30 | X-H torsion
[ 10763 10752 10751 10750 ] final  175.80 input  -60.55 | X-H torsion
[ 11005 11000 10999 10996 ] final    9.72 input  -57.11 | X-H torsion

> <Gold.Protein.ActiveResidues>
 VAL166  LYS551  ARG553  GLY616  TRP617  ASP618  TYR619  PRO620  LYS621  CYS622 
 ASP623  PHE694  ASN695  SER759  ASP760  ASP761  ALA762  ILE779  LEU786  VAL792 
 PHE793  MET794  SER795  GLU796  ALA797  LYS798  CYS799  TRP800  GLU811  SER814 

> <Gold.Protein.RotatedAtoms>
  150.8819  134.8211  159.7230 H   0  0  0  0  0  0  0  0  0  0  0  0  # atno 6907 bound_to 6896
  152.4783  134.4783  159.9667 H   0  0  0  0  0  0  0  0  0  0  0  0  # atno 6908 bound_to 6896
  151.4857  133.3497  159.2880 H   0  0  0  0  0  0  0  0  0  0  0  0  # atno 6909 bound_to 6896
  144.7394  140.3411  143.6134 H   0  0  0  0  0  0  0  0  0  0  0  0  # atno 7974 bound_to 7965
  154.7286  140.2726  155.6476 H   0  0  0  0  0  0  0  0  0  0  0  0  # atno 8008 bound_to 7997
  156.2843  140.2720  156.1904 H   0  0  0  0  0  0  0  0  0  0  0  0  # atno 8009 bound_to 7997
  155.0412  140.0371  157.2500 H   0  0  0  0  0  0  0  0  0  0  0  0  # atno 8010 bound_to 7997
  140.1061  144.4860  150.7007 H   0  0  0  0  0  0  0  0  0  0  0  0  # atno 10167 bound_to 10162
  156.0366  130.5587  150.7606 H   0  0  0  0  0  0  0  0  0  0  0  0  # atno 10718 bound_to 10713
  154.4725  135.2771  155.1631 H   0  0  0  0  0  0  0  0  0  0  0  0  # atno 10763 bound_to 10752
  154.3374  135.6177  153.5584 H   0  0  0  0  0  0  0  0  0  0  0  0  # atno 10764 bound_to 10752
  152.9866  135.5780  154.5110 H   0  0  0  0  0  0  0  0  0  0  0  0  # atno 10765 bound_to 10752
  140.5225  134.0545  155.7849 H   0  0  0  0  0  0  0  0  0  0  0  0  # atno 11005 bound_to 11000
  145.7373  139.1754  143.2396 LP  0  0  0  0  0  0  0  0  0  0  0  0  # atno 17320 bound_to 7965
  146.1161  140.7368  142.9480 LP  0  0  0  0  0  0  0  0  0  0  0  0  # atno 17321 bound_to 7965
  140.6951  143.2399  151.5022 LP  0  0  0  0  0  0  0  0  0  0  0  0  # atno 17342 bound_to 10162
  139.5645  144.2076  152.1743 LP  0  0  0  0  0  0  0  0  0  0  0  0  # atno 17343 bound_to 10162
  157.5126  131.0926  151.0179 LP  0  0  0  0  0  0  0  0  0  0  0  0  # atno 17370 bound_to 10713
  157.0530  130.5795  149.5373 LP  0  0  0  0  0  0  0  0  0  0  0  0  # atno 17371 bound_to 10713
  141.1326  133.9276  157.2502 LP  0  0  0  0  0  0  0  0  0  0  0  0  # atno 17394 bound_to 11000
  139.9598  135.0157  156.9229 LP  0  0  0  0  0  0  0  0  0  0  0  0  # atno 17395 bound_to 11000

$$$$
