AV-unprocessed.smi:2834|AV-procd|sdf|10916|dock7
  -GOLD-   2272015363D 1   1.00000     0.00000
 Structure written by MMmdl.
 35 36  0  0  0  0  0  0  0  0  1 V2000
  150.9974  132.8897  155.2539 C   0  0  0  0  0  0  0  0  0  0  0  0
  149.6955  133.2655  154.5156 C   0  0  1  0  0  0  0  0  0  0  0  0
  149.6872  134.6951  154.1765 N   0  0  0  0  0  0  0  0  0  0  0  0
  150.1227  135.7229  154.9234 C   0  0  0  0  0  0  0  0  0  0  0  0
  150.6080  135.6005  156.0481 O   0  0  0  0  0  0  0  0  0  0  0  0
  149.9592  136.8902  154.2799 N   0  0  0  0  0  0  0  0  0  0  0  0
  150.3068  138.1846  154.7423 C   0  0  0  0  0  0  0  0  0  0  0  0
  149.7561  139.3952  154.2478 C   0  0  0  0  0  0  0  0  0  0  0  0
  150.2711  140.4448  154.8699 N   0  0  0  0  0  0  0  0  0  0  0  0
  151.1499  139.9279  155.7642 N   0  0  0  0  0  0  0  0  0  0  0  0
  151.8993  140.8181  156.6321 C   0  0  0  0  0  0  0  0  0  0  0  0
  151.4668  140.7034  158.1032 C   0  0  0  0  0  0  0  0  0  0  0  0
  150.1663  140.9774  158.1989 F   0  0  0  0  0  0  0  0  0  0  0  0
  151.6769  139.4688  158.5609 F   0  0  0  0  0  0  0  0  0  0  0  0
  152.1417  141.5723  158.8565 F   0  0  0  0  0  0  0  0  0  0  0  0
  151.1972  138.5488  155.7126 C   0  0  0  0  0  0  0  0  0  0  0  0
  149.4191  132.3825  153.3015 C   0  0  0  0  0  0  0  0  0  0  0  0
  147.9052  132.4776  153.1484 C   0  0  0  0  0  0  0  0  0  0  0  0
  147.4001  132.6176  154.4702 O   0  0  0  0  0  0  0  0  0  0  0  0
  148.4534  132.9615  155.3672 C   0  0  0  0  0  0  0  0  0  0  0  0
  150.9823  131.8494  155.5800 H   0  0  0  0  0  0  0  0  0  0  0  0
  151.1393  133.5080  156.1409 H   0  0  0  0  0  0  0  0  0  0  0  0
  151.8754  133.0117  154.6197 H   0  0  0  0  0  0  0  0  0  0  0  0
  149.3107  134.9215  153.2676 H   0  0  0  0  0  0  0  0  0  0  0  0
  149.5449  136.8487  153.3602 H   0  0  0  0  0  0  0  0  0  0  0  0
  149.0165  139.5452  153.4750 H   0  0  0  0  0  0  0  0  0  0  0  0
  152.9595  140.5813  156.5323 H   0  0  0  0  0  0  0  0  0  0  0  0
  151.7735  141.8428  156.2790 H   0  0  0  0  0  0  0  0  0  0  0  0
  151.8437  137.9732  156.3585 H   0  0  0  0  0  0  0  0  0  0  0  0
  149.9531  132.6708  152.3964 H   0  0  0  0  0  0  0  0  0  0  0  0
  149.6915  131.3496  153.5230 H   0  0  0  0  0  0  0  0  0  0  0  0
  147.6361  133.3656  152.5751 H   0  0  0  0  0  0  0  0  0  0  0  0
  147.4794  131.6085  152.6467 H   0  0  0  0  0  0  0  0  0  0  0  0
  148.6267  132.0964  156.0087 H   0  0  0  0  0  0  0  0  0  0  0  0
  148.1657  133.7903  156.0153 H   0  0  0  0  0  0  0  0  0  0  0  0
  1  2  1  0  0  0  0
  1 21  1  0  0  0  0
  1 22  1  0  0  0  0
  1 23  1  0  0  0  0
  2 20  1  0  0  0  0
  2  3  1  0  0  0  0
  2 17  1  0  0  0  0
  3  4  1  0  0  0  0
  3 24  1  0  0  0  0
  4  5  2  0  0  0  0
  4  6  1  0  0  0  0
  6  7  1  0  0  0  0
  6 25  1  0  0  0  0
  7 16  2  0  0  0  0
  7  8  1  0  0  0  0
  8  9  2  0  0  0  0
  8 26  1  0  0  0  0
  9 10  1  0  0  0  0
 10 11  1  0  0  0  0
 10 16  1  0  0  0  0
 11 12  1  0  0  0  0
 11 27  1  0  0  0  0
 11 28  1  0  0  0  0
 12 13  1  0  0  0  0
 12 14  1  0  0  0  0
 12 15  1  0  0  0  0
 16 29  1  0  0  0  0
 17 18  1  0  0  0  0
 17 30  1  0  0  0  0
 17 31  1  0  0  0  0
 18 19  1  0  0  0  0
 18 32  1  0  0  0  0
 18 33  1  0  0  0  0
 19 20  1  0  0  0  0
 20 34  1  0  0  0  0
 20 35  1  0  0  0  0
M  END
> <s_m_source_file>
AV-unprocessed.smi

> <i_m_source_file_index>
2834

> <i_lp_mmshare_version>
43012

> <i_f3d_flags>
0

> <s_epik_input>
W0NIMl0xT1tDSDJdW0NIMl1bQ0BAXTEoW0NIM10pW05IXUMoPU8pW05IXWMyW2NIXW5uKFtjSF0yKVtDSDJdQyhGKShGKUY=

> <s_epik_cmdline>
J2VwaWtfcHl0aG9uJywgJy1waCcsICc3LjAnLCAnLXRuJywgJzgnLCAnLW1hJywgJzIwMCcsICctbWV0YWxfYmluZGluZycsICctaW1hZScsICc8aW5maWxlLm1hZT4nLCAnLW9tYWUnLCAnPG91dGZpbGUubWFlPic=

> <r_lp_tautomer_probability>
1

> <r_epik_Ionization_Penalty>
3.3002e-05

> <r_epik_Ionization_Penalty_Charging>
0

> <r_epik_Ionization_Penalty_Neutral>
3.3002e-05

> <r_epik_State_Penalty>
-0

> <r_epik_Charging_Adjusted_Penalty>
0

> <i_epik_Tot_Q>
0

> <i_epik_Tot_abs_Q>
0

> <r_epik_Metal_State_Penalty>
-0

> <b_epik_Metal_Only>
0

> <s_lp_Force_Field>
OPLS_2005

> <r_lp_Energy>
24.6434

> <b_lp_Chiralities_Consistent>
1

> <s_lp_Variant>
AV-unprocessed.smi:2834-1

> <Gold.Version>
5.8.1

> <Gold.Id.Protein>
6NUR|6NUR_protein|mol2

> <Gold.PLP.Fitness>
40.6052

> <Gold.PLP.PLP>
-30.4342

> <Gold.PLP.part.hbond>
-3.2442

> <Gold.PLP.part.metal>
0.0000

> <Gold.PLP.part.buried>
-4.2741

> <Gold.PLP.part.nonpolar>
-23.6270

> <Gold.PLP.part.repulsive>
0.2177

> <Gold.PLP.ligand.clash>
0.0000

> <Gold.PLP.ligand.torsion>
0.5574

> <Gold.PLP.Chemscore.Hbond>
2.7500

> <Gold.PLP.Chemscore.CHOScore>
0.9923

> <Gold.PLP.Chemscore.Metal>
0.0000

> <Gold.Chemscore.Hbonds>
donor molecule, donor type, donor heavy atom, donor atom, acceptor molecule, acceptor atom, score
      L1  H     3    24       P1  7948  0.55
      L1  H     6    25       P1  7948  1.00
      P1  H  7989  7998       L1     9  0.68
      L1  C     8    26       P1  7957  0.86

> <Gold.PLP.Chemscore.Internal.Correction>
0.0588

> <Gold.Rescore>
     Score         DG    S(hbond)    S(metal)    S(lipo)     H(rot)  DE(clash)    DE(int)     intcor
     11.29     -13.89       1.74        0.00      51.54       1.34       0.05       2.55       ----

> <Gold.Chemscore.Fitness>
11.2910

> <Gold.Chemscore.DG>
-13.8883

> <Gold.Chemscore.ZeroCoef>
-5.4800

> <Gold.Chemscore.Hbond>
1.7404

> <Gold.Chemscore.Metal>
0.0000

> <Gold.Chemscore.Lipo>
51.5390

> <Gold.Chemscore.Internal_Hbond>
0.0000

> <Gold.Chemscore.DEClash>
0.0502

> <Gold.Chemscore.DEInternal>
2.5470

> <Gold.Chemscore.Rot>
1.3417

> <Gold.Chemscore.Internal.Correction>
   9.000000E+99

> <Gold.Chemscore.Hbonds>
donor molecule, donor type, donor heavy atom, donor atom, acceptor molecule, acceptor atom, score
      L1  H     3    24       P1  7948  0.03
      L1  H     6    25       P1  7948  0.74
      P1  H  7989  7998       L1     9  0.02

> <Gold.Chemscore.Hbond.Weighted>
-5.8129

> <Gold.Chemscore.Metal.Weighted>
-0.0000

> <Gold.Chemscore.Lipo.Weighted>
-6.0301

> <Gold.Chemscore.Internal_Hbond.Weighted>
0.0000

> <Gold.Chemscore.DEClash.Weighted>
0.0502

> <Gold.Chemscore.DEInternal.Weighted>
2.5470

> <Gold.Chemscore.Rot.Weighted>
3.4347

> <Gold.Chemscore.Internal.Correction.Weighted>
   9.000000E+99

> <Gold.Protein.RotatedTorsions>
[ 6907 6896 6895 6894 ] final  118.41 input  -60.11 | X-H torsion
[ 7974 7965 7964 7962 ] final   47.09 input  175.53 | X-H torsion
[ 8008 7997 7996 7995 ] final  147.97 input   59.86 | X-H torsion
[ 10167 10162 10161 10158 ] final -143.47 input  -65.29 | X-H torsion
[ 10718 10713 10712 10709 ] final -148.50 input   66.30 | X-H torsion
[ 10763 10752 10751 10750 ] final   -4.72 input  -60.55 | X-H torsion
[ 11005 11000 10999 10996 ] final -122.92 input  -57.11 | X-H torsion

> <Gold.Protein.ActiveResidues>
 VAL166  LYS551  ARG553  GLY616  TRP617  ASP618  TYR619  PRO620  LYS621  CYS622 
 ASP623  PHE694  ASN695  SER759  ASP760  ASP761  ALA762  ILE779  LEU786  VAL792 
 PHE793  MET794  SER795  GLU796  ALA797  LYS798  CYS799  TRP800  GLU811  SER814 

> <Gold.Protein.RotatedAtoms>
  152.4545  133.7694  159.6790 H   0  0  0  0  0  0  0  0  0  0  0  0  # atno 6907 bound_to 6896
  150.8466  133.7841  159.3047 H   0  0  0  0  0  0  0  0  0  0  0  0  # atno 6908 bound_to 6896
  151.5450  135.1071  159.9987 H   0  0  0  0  0  0  0  0  0  0  0  0  # atno 6909 bound_to 6896
  146.0330  139.4786  142.9826 H   0  0  0  0  0  0  0  0  0  0  0  0  # atno 7974 bound_to 7965
  156.2807  140.2141  156.5624 H   0  0  0  0  0  0  0  0  0  0  0  0  # atno 8008 bound_to 7997
  154.7202  140.0504  157.0655 H   0  0  0  0  0  0  0  0  0  0  0  0  # atno 8009 bound_to 7997
  155.0488  140.3154  155.4702 H   0  0  0  0  0  0  0  0  0  0  0  0  # atno 8010 bound_to 7997
  139.7990  143.7859  152.2656 H   0  0  0  0  0  0  0  0  0  0  0  0  # atno 10167 bound_to 10162
  156.4211  130.8029  151.2252 H   0  0  0  0  0  0  0  0  0  0  0  0  # atno 10718 bound_to 10713
  153.3887  135.7001  153.6511 H   0  0  0  0  0  0  0  0  0  0  0  0  # atno 10763 bound_to 10752
  153.5092  135.3635  155.2579 H   0  0  0  0  0  0  0  0  0  0  0  0  # atno 10764 bound_to 10752
  154.8700  135.4131  154.3199 H   0  0  0  0  0  0  0  0  0  0  0  0  # atno 10765 bound_to 10752
  140.9959  134.0473  157.3598 H   0  0  0  0  0  0  0  0  0  0  0  0  # atno 11005 bound_to 11000
  145.7010  141.0136  143.1504 LP  0  0  0  0  0  0  0  0  0  0  0  0  # atno 17320 bound_to 7965
  144.7039  139.8644  143.7436 LP  0  0  0  0  0  0  0  0  0  0  0  0  # atno 17321 bound_to 7965
  139.7974  144.7387  150.9872 LP  0  0  0  0  0  0  0  0  0  0  0  0  # atno 17342 bound_to 10162
  140.7820  143.4380  151.0594 LP  0  0  0  0  0  0  0  0  0  0  0  0  # atno 17343 bound_to 10162
  157.7508  131.0228  150.3806 LP  0  0  0  0  0  0  0  0  0  0  0  0  # atno 17370 bound_to 10713
  156.4124  130.3937  149.6882 LP  0  0  0  0  0  0  0  0  0  0  0  0  # atno 17371 bound_to 10713
  139.9014  135.0166  156.7287 LP  0  0  0  0  0  0  0  0  0  0  0  0  # atno 17394 bound_to 11000
  140.6967  133.9342  155.7999 LP  0  0  0  0  0  0  0  0  0  0  0  0  # atno 17395 bound_to 11000

$$$$
