AV-unprocessed.smi:517|AV-procd|sdf|2791|dock6
  -GOLD-   2262023263D 1   1.00000     0.00000
 Structure written by MMmdl.
 36 37  0  0  0  0  0  0  0  0  2 V2000
  150.6287  135.1215  155.2201 C   0  0  0  0  0  0  0  0  0  0  0  0
  150.5265  136.6316  154.9960 C   0  0  0  0  0  0  0  0  0  0  0  0
  151.8330  137.1780  154.9500 O   0  0  0  0  0  0  0  0  0  0  0  0
  151.8400  138.5946  155.0275 C   0  0  0  0  0  0  0  0  0  0  0  0
  151.2280  139.0357  156.3643 C   0  0  0  0  0  0  0  0  0  0  0  0
  150.8942  140.4683  156.3717 N   0  0  0  0  0  0  0  0  0  0  0  0
  150.0138  141.1828  155.6096 C   0  0  0  0  0  0  0  0  0  0  0  0
  149.1332  140.6692  154.5117 C   0  0  1  0  0  0  0  0  0  0  0  0
  147.6566  140.9823  154.7894 C   0  0  0  0  0  0  0  0  0  0  0  0
  149.4846  141.2211  153.2610 O   0  0  0  0  0  0  0  0  0  0  0  0
  150.0895  142.4806  156.0229 N   0  3  0  0  0  0  0  0  0  0  0  0
  151.0038  142.5940  157.0699 C   0  0  0  0  0  0  0  0  0  0  0  0
  151.4046  143.6990  157.8146 C   0  0  0  0  0  0  0  0  0  0  0  0
  152.3606  143.4676  158.8253 C   0  0  0  0  0  0  0  0  0  0  0  0
  152.8803  142.1785  159.0629 C   0  0  0  0  0  0  0  0  0  0  0  0
  152.4672  141.0664  158.2998 C   0  0  0  0  0  0  0  0  0  0  0  0
  151.5225  141.3042  157.3018 C   0  0  0  0  0  0  0  0  0  0  0  0
  149.6388  134.6664  155.2621 H   0  0  0  0  0  0  0  0  0  0  0  0
  151.1399  134.8983  156.1569 H   0  0  0  0  0  0  0  0  0  0  0  0
  151.1826  134.6422  154.4125 H   0  0  0  0  0  0  0  0  0  0  0  0
  150.0012  136.8324  154.0612 H   0  0  0  0  0  0  0  0  0  0  0  0
  149.9539  137.0910  155.8031 H   0  0  0  0  0  0  0  0  0  0  0  0
  152.8623  138.9671  154.9467 H   0  0  0  0  0  0  0  0  0  0  0  0
  151.2708  139.0195  154.1995 H   0  0  0  0  0  0  0  0  0  0  0  0
  150.3319  138.4588  156.5942 H   0  0  0  0  0  0  0  0  0  0  0  0
  151.9251  138.8458  157.1799 H   0  0  0  0  0  0  0  0  0  0  0  0
  149.2434  139.5883  154.4345 H   0  0  0  0  0  0  0  0  0  0  0  0
  147.3368  140.5438  155.7347 H   0  0  0  0  0  0  0  0  0  0  0  0
  147.0158  140.5758  154.0062 H   0  0  0  0  0  0  0  0  0  0  0  0
  147.4748  142.0563  154.8415 H   0  0  0  0  0  0  0  0  0  0  0  0
  149.4316  140.5406  152.6073 H   0  0  0  0  0  0  0  0  0  0  0  0
  151.0060  144.6869  157.6357 H   0  0  0  0  0  0  0  0  0  0  0  0
  152.7007  144.2947  159.4314 H   0  0  0  0  0  0  0  0  0  0  0  0
  153.6103  142.0390  159.8472 H   0  0  0  0  0  0  0  0  0  0  0  0
  152.8699  140.0831  158.4923 H   0  0  0  0  0  0  0  0  0  0  0  0
  149.5452  143.2306  155.6165 H   0  0  0  0  0  0  0  0  0  0  0  0
  1  2  1  0  0  0  0
  1 18  1  0  0  0  0
  1 19  1  0  0  0  0
  1 20  1  0  0  0  0
  2  3  1  0  0  0  0
  2 21  1  0  0  0  0
  2 22  1  0  0  0  0
  3  4  1  0  0  0  0
  4  5  1  0  0  0  0
  4 23  1  0  0  0  0
  4 24  1  0  0  0  0
  5  6  1  0  0  0  0
  5 25  1  0  0  0  0
  5 26  1  0  0  0  0
  6 17  1  0  0  0  0
  6  7  1  0  0  0  0
  7  8  1  0  0  0  0
  7 11  2  0  0  0  0
  8  9  1  0  0  0  0
  8 10  1  0  0  0  0
  8 27  1  0  0  0  0
  9 28  1  0  0  0  0
  9 29  1  0  0  0  0
  9 30  1  0  0  0  0
 10 31  1  0  0  0  0
 11 12  1  0  0  0  0
 11 36  1  0  0  0  0
 12 17  2  0  0  0  0
 12 13  1  0  0  0  0
 13 14  2  0  0  0  0
 13 32  1  0  0  0  0
 14 15  1  0  0  0  0
 14 33  1  0  0  0  0
 15 16  2  0  0  0  0
 15 34  1  0  0  0  0
 16 17  1  0  0  0  0
 16 35  1  0  0  0  0
M  CHG  1  11   1
M  END
> <s_m_source_file>
AV-unprocessed.smi

> <i_m_source_file_index>
517

> <i_lp_mmshare_version>
43012

> <i_f3d_flags>
0

> <s_epik_input>
W0NIM11bQ0gyXU9bQ0gyXVtDSDJdbihjKG4xKVtDQEhdKFtDSDNdKVtPSF0pYyhjMTIpW2NIXVtjSF1bY0hdW2NIXTI=

> <s_epik_cmdline>
J2VwaWtfcHl0aG9uJywgJy1waCcsICc3LjAnLCAnLXRuJywgJzgnLCAnLW1hJywgJzIwMCcsICctbWV0YWxfYmluZGluZycsICctaW1hZScsICc8aW5maWxlLm1hZT4nLCAnLW9tYWUnLCAnPG91dGZpbGUubWFlPic=

> <r_epik_Ionization_Penalty>
1.46962

> <r_epik_Ionization_Penalty_Charging>
1.46959

> <r_epik_Ionization_Penalty_Neutral>
2.92192e-05

> <r_epik_State_Penalty>
1.55729

> <r_epik_Charging_Adjusted_Penalty>
3.02688

> <i_epik_Tot_Q>
1

> <i_epik_Tot_abs_Q>
1

> <r_epik_Metal_State_Penalty>
5.60569

> <b_epik_Metal_Only>
0

> <s_lp_Force_Field>
OPLS_2005

> <r_lp_Energy>
10.1165

> <b_lp_Chiralities_Consistent>
1

> <s_lp_Variant>
AV-unprocessed.smi:517-4

> <Gold.Version>
5.8.1

> <Gold.Id.Protein>
6NUR|6NUR_protein|mol2

> <Gold.PLP.Fitness>
52.7899

> <Gold.PLP.PLP>
-38.0678

> <Gold.PLP.part.hbond>
-4.4751

> <Gold.PLP.part.metal>
0.0000

> <Gold.PLP.part.buried>
-4.0255

> <Gold.PLP.part.nonpolar>
-29.8214

> <Gold.PLP.part.repulsive>
0.2326

> <Gold.PLP.ligand.clash>
0.0000

> <Gold.PLP.ligand.torsion>
0.1212

> <Gold.PLP.Chemscore.Hbond>
4.9763

> <Gold.PLP.Chemscore.CHOScore>
0.0000

> <Gold.PLP.Chemscore.Metal>
0.0000

> <Gold.Chemscore.Hbonds>
donor molecule, donor type, donor heavy atom, donor atom, acceptor molecule, acceptor atom, score
      L1  H    10    31       P1  7957  1.00
      L1  H    11    36       P1  8028  2.00
      P1  H  7989  7998       L1    10  0.03
      P1  H  8011  8017       L1    10  0.90
      P1  H 10752 10763       L1     3  0.99

> <Gold.PLP.Chemscore.Internal.Correction>
0.0355

> <Gold.Rescore>
     Score         DG    S(hbond)    S(metal)    S(lipo)     H(rot)  DE(clash)    DE(int)     intcor
     21.30     -21.51       3.24        0.00      92.23       2.18       0.05       0.16       ----

> <Gold.Chemscore.Fitness>
21.3049

> <Gold.Chemscore.DG>
-21.5119

> <Gold.Chemscore.ZeroCoef>
-5.4800

> <Gold.Chemscore.Hbond>
3.2400

> <Gold.Chemscore.Metal>
0.0000

> <Gold.Chemscore.Lipo>
92.2272

> <Gold.Chemscore.Internal_Hbond>
0.0000

> <Gold.Chemscore.DEClash>
0.0500

> <Gold.Chemscore.DEInternal>
0.1570

> <Gold.Chemscore.Rot>
2.1797

> <Gold.Chemscore.Internal.Correction>
   9.000000E+99

> <Gold.Chemscore.Hbonds>
donor molecule, donor type, donor heavy atom, donor atom, acceptor molecule, acceptor atom, score
      L1  H    10    31       P1  7957  0.88
      L1  H    11    36       P1  8028  0.96
      P1  H  8011  8017       L1    10  0.17
      P1  H 10752 10763       L1     3  0.37

> <Gold.Chemscore.Hbond.Weighted>
-10.8214

> <Gold.Chemscore.Metal.Weighted>
-0.0000

> <Gold.Chemscore.Lipo.Weighted>
-10.7906

> <Gold.Chemscore.Internal_Hbond.Weighted>
0.0000

> <Gold.Chemscore.DEClash.Weighted>
0.0500

> <Gold.Chemscore.DEInternal.Weighted>
0.1570

> <Gold.Chemscore.Rot.Weighted>
5.5801

> <Gold.Chemscore.Internal.Correction.Weighted>
   9.000000E+99

> <Gold.Protein.RotatedTorsions>
[ 6907 6896 6895 6894 ] final  142.01 input  -60.11 | X-H torsion
[ 7974 7965 7964 7962 ] final  171.41 input  175.53 | X-H torsion
[ 8008 7997 7996 7995 ] final   93.75 input   59.86 | X-H torsion
[ 10167 10162 10161 10158 ] final -166.35 input  -65.29 | X-H torsion
[ 10718 10713 10712 10709 ] final -160.25 input   66.30 | X-H torsion
[ 10763 10752 10751 10750 ] final   57.21 input  -60.55 | X-H torsion
[ 11005 11000 10999 10996 ] final   80.46 input  -57.11 | X-H torsion

> <Gold.Protein.ActiveResidues>
 VAL166  LYS551  ARG553  GLY616  TRP617  ASP618  TYR619  PRO620  LYS621  CYS622 
 ASP623  PHE694  ASN695  SER759  ASP760  ASP761  ALA762  ILE779  LEU786  VAL792 
 PHE793  MET794  SER795  GLU796  ALA797  LYS798  CYS799  TRP800  GLU811  SER814 

> <Gold.Protein.RotatedAtoms>
  152.2240  133.5006  159.5178 H   0  0  0  0  0  0  0  0  0  0  0  0  # atno 6907 bound_to 6896
  150.7020  134.1305  159.4077 H   0  0  0  0  0  0  0  0  0  0  0  0  # atno 6908 bound_to 6896
  151.9226  135.0291  160.0574 H   0  0  0  0  0  0  0  0  0  0  0  0  # atno 6909 bound_to 6896
  144.7295  139.9346  143.6426 H   0  0  0  0  0  0  0  0  0  0  0  0  # atno 7974 bound_to 7965
  156.0502  140.3309  155.7342 H   0  0  0  0  0  0  0  0  0  0  0  0  # atno 8008 bound_to 7997
  155.5612  140.0619  157.2846 H   0  0  0  0  0  0  0  0  0  0  0  0  # atno 8009 bound_to 7997
  154.4432  140.1877  156.0773 H   0  0  0  0  0  0  0  0  0  0  0  0  # atno 8010 bound_to 7997
  139.6121  144.0794  152.1852 H   0  0  0  0  0  0  0  0  0  0  0  0  # atno 10167 bound_to 10162
  156.5795  130.8723  151.2860 H   0  0  0  0  0  0  0  0  0  0  0  0  # atno 10718 bound_to 10713
  152.9846  135.5649  154.5354 H   0  0  0  0  0  0  0  0  0  0  0  0  # atno 10763 bound_to 10752
  154.4818  135.2789  155.1566 H   0  0  0  0  0  0  0  0  0  0  0  0  # atno 10764 bound_to 10752
  154.3072  135.6295  153.5503 H   0  0  0  0  0  0  0  0  0  0  0  0  # atno 10765 bound_to 10752
  139.9133  134.7922  156.1912 H   0  0  0  0  0  0  0  0  0  0  0  0  # atno 11005 bound_to 11000
  146.0831  139.3819  143.0452 LP  0  0  0  0  0  0  0  0  0  0  0  0  # atno 17320 bound_to 7965
  145.7813  140.9855  143.1097 LP  0  0  0  0  0  0  0  0  0  0  0  0  # atno 17321 bound_to 7965
  140.0415  144.6003  150.7407 LP  0  0  0  0  0  0  0  0  0  0  0  0  # atno 17342 bound_to 10162
  140.7326  143.2707  151.3897 LP  0  0  0  0  0  0  0  0  0  0  0  0  # atno 17343 bound_to 10162
  157.7330  130.9723  150.1954 LP  0  0  0  0  0  0  0  0  0  0  0  0  # atno 17370 bound_to 10713
  156.2643  130.3714  149.8097 LP  0  0  0  0  0  0  0  0  0  0  0  0  # atno 17371 bound_to 10713
  141.0582  133.6854  156.1901 LP  0  0  0  0  0  0  0  0  0  0  0  0  # atno 17394 bound_to 11000
  140.6703  134.4875  157.5587 LP  0  0  0  0  0  0  0  0  0  0  0  0  # atno 17395 bound_to 11000

$$$$
