AV-unprocessed.smi:1187|AV-procd|sdf|4976|dock2
  -GOLD-   22720 3573D 1   1.00000     0.00000
 Structure written by MMmdl.
 38 39  0  0  0  0  0  0  0  0  1 V2000
  151.1327  141.7523  158.0906 C   0  0  0  0  0  0  0  0  0  0  0  0
  151.1511  141.6182  156.6735 O   0  0  0  0  0  0  0  0  0  0  0  0
  150.5609  140.5038  156.1134 C   0  0  0  0  0  0  0  0  0  0  0  0
  149.7003  139.7229  156.9105 C   0  0  0  0  0  0  0  0  0  0  0  0
  149.0964  138.5823  156.3472 C   0  0  0  0  0  0  0  0  0  0  0  0
  149.3808  138.2534  155.0003 C   0  0  0  0  0  0  0  0  0  0  0  0
  148.8261  137.1411  154.3117 N   0  0  0  0  0  0  0  0  0  0  0  0
  147.8991  136.2668  154.7393 C   0  0  0  0  0  0  0  0  0  0  0  0
  147.3528  136.2871  155.8420 O   0  0  0  0  0  0  0  0  0  0  0  0
  147.6459  135.3366  153.8068 N   0  0  0  0  0  0  0  0  0  0  0  0
  146.6899  134.2399  153.9480 C   0  0  0  0  0  0  0  0  0  0  0  0
  146.8890  133.1166  152.9135 C   0  0  0  0  0  0  0  0  0  0  0  0
  147.9434  132.4788  152.8927 O   0  0  0  0  0  0  0  0  0  0  0  0
  145.8782  132.8544  152.0592 N   0  0  0  0  0  0  0  0  0  0  0  0
  145.8889  131.8346  151.0109 C   0  0  0  0  0  0  0  0  0  0  0  0
  144.6455  132.1015  150.1621 C   0  0  0  0  0  0  0  0  0  0  0  0
  143.6900  132.8097  151.1121 C   0  0  0  0  0  0  0  0  0  0  0  0
  144.6092  133.5797  152.0609 C   0  0  0  0  0  0  0  0  0  0  0  0
  150.2430  139.1090  154.2840 C   0  0  0  0  0  0  0  0  0  0  0  0
  150.8256  140.2028  154.8181 N   0  0  0  0  0  0  0  0  0  0  0  0
  151.6358  142.6770  158.3726 H   0  0  0  0  0  0  0  0  0  0  0  0
  151.6575  140.9290  158.5772 H   0  0  0  0  0  0  0  0  0  0  0  0
  150.1117  141.8018  158.4722 H   0  0  0  0  0  0  0  0  0  0  0  0
  149.5044  139.9960  157.9369 H   0  0  0  0  0  0  0  0  0  0  0  0
  148.4228  137.9961  156.9528 H   0  0  0  0  0  0  0  0  0  0  0  0
  149.2312  136.9488  153.4073 H   0  0  0  0  0  0  0  0  0  0  0  0
  148.1395  135.3965  152.9286 H   0  0  0  0  0  0  0  0  0  0  0  0
  146.8080  133.8199  154.9470 H   0  0  0  0  0  0  0  0  0  0  0  0
  145.6727  134.6302  153.8876 H   0  0  0  0  0  0  0  0  0  0  0  0
  146.7928  131.8737  150.4017 H   0  0  0  0  0  0  0  0  0  0  0  0
  145.8295  130.8479  151.4729 H   0  0  0  0  0  0  0  0  0  0  0  0
  144.9025  132.7703  149.3394 H   0  0  0  0  0  0  0  0  0  0  0  0
  144.2216  131.1927  149.7339 H   0  0  0  0  0  0  0  0  0  0  0  0
  142.9800  133.4554  150.5945 H   0  0  0  0  0  0  0  0  0  0  0  0
  143.1204  132.0696  151.6756 H   0  0  0  0  0  0  0  0  0  0  0  0
  144.1773  133.6515  153.0605 H   0  0  0  0  0  0  0  0  0  0  0  0
  144.7794  134.5918  151.6906 H   0  0  0  0  0  0  0  0  0  0  0  0
  150.4797  138.9081  153.2491 H   0  0  0  0  0  0  0  0  0  0  0  0
  1  2  1  0  0  0  0
  1 21  1  0  0  0  0
  1 22  1  0  0  0  0
  1 23  1  0  0  0  0
  2  3  1  0  0  0  0
  3 20  1  0  0  0  0
  3  4  2  0  0  0  0
  4  5  1  0  0  0  0
  4 24  1  0  0  0  0
  5  6  2  0  0  0  0
  5 25  1  0  0  0  0
  6  7  1  0  0  0  0
  6 19  1  0  0  0  0
  7  8  1  0  0  0  0
  7 26  1  0  0  0  0
  8  9  2  0  0  0  0
  8 10  1  0  0  0  0
 10 11  1  0  0  0  0
 10 27  1  0  0  0  0
 11 12  1  0  0  0  0
 11 28  1  0  0  0  0
 11 29  1  0  0  0  0
 12 13  2  0  0  0  0
 12 14  1  0  0  0  0
 14 18  1  0  0  0  0
 14 15  1  0  0  0  0
 15 16  1  0  0  0  0
 15 30  1  0  0  0  0
 15 31  1  0  0  0  0
 16 17  1  0  0  0  0
 16 32  1  0  0  0  0
 16 33  1  0  0  0  0
 17 18  1  0  0  0  0
 17 34  1  0  0  0  0
 17 35  1  0  0  0  0
 18 36  1  0  0  0  0
 18 37  1  0  0  0  0
 19 20  2  0  0  0  0
 19 38  1  0  0  0  0
M  END
> <s_m_source_file>
AV-unprocessed.smi

> <i_m_source_file_index>
1187

> <i_lp_mmshare_version>
43012

> <i_f3d_flags>
0

> <s_epik_input>
W0NIM11PYzFbY0hdW2NIXWMoW2NIXW4xKVtOSF1DKD1PKVtOSF1bQ0gyXUMoPU8pTjJbQ0gyXVtDSDJdW0NIMl1bQ0gyXTI=

> <s_epik_cmdline>
J2VwaWtfcHl0aG9uJywgJy1waCcsICc3LjAnLCAnLXRuJywgJzgnLCAnLW1hJywgJzIwMCcsICctbWV0YWxfYmluZGluZycsICctaW1hZScsICc8aW5maWxlLm1hZT4nLCAnLW9tYWUnLCAnPG91dGZpbGUubWFlPic=

> <r_lp_tautomer_probability>
1

> <r_epik_Ionization_Penalty>
0.000141675

> <r_epik_Ionization_Penalty_Charging>
0

> <r_epik_Ionization_Penalty_Neutral>
0.000141675

> <r_epik_State_Penalty>
-0

> <r_epik_Charging_Adjusted_Penalty>
0

> <i_epik_Tot_Q>
0

> <i_epik_Tot_abs_Q>
0

> <r_epik_Metal_State_Penalty>
-0

> <b_epik_Metal_Only>
0

> <s_lp_Force_Field>
OPLS_2005

> <r_lp_Energy>
27.0256

> <b_lp_Chiralities_Consistent>
1

> <s_lp_Variant>
AV-unprocessed.smi:1187-1

> <Gold.Version>
5.8.1

> <Gold.Id.Protein>
6NUR|6NUR_protein|mol2

> <Gold.PLP.Fitness>
38.7327

> <Gold.PLP.PLP>
-27.5513

> <Gold.PLP.part.hbond>
-2.8854

> <Gold.PLP.part.metal>
0.0000

> <Gold.PLP.part.buried>
-5.0871

> <Gold.PLP.part.nonpolar>
-20.2155

> <Gold.PLP.part.repulsive>
0.3064

> <Gold.PLP.ligand.clash>
0.0008

> <Gold.PLP.ligand.torsion>
0.3046

> <Gold.PLP.Chemscore.Hbond>
2.9280

> <Gold.PLP.Chemscore.CHOScore>
1.0000

> <Gold.PLP.Chemscore.Metal>
0.0000

> <Gold.Chemscore.Hbonds>
donor molecule, donor type, donor heavy atom, donor atom, acceptor molecule, acceptor atom, score
      L1  H     7    26       P1  7948  0.93
      L1  H    10    27       P1  7948  1.00
      P1  H  7989  7998       L1    20  1.00
      L1  C    19    38       P1  7957  1.00

> <Gold.PLP.Chemscore.Internal.Correction>
0.0074

> <Gold.Rescore>
     Score         DG    S(hbond)    S(metal)    S(lipo)     H(rot)  DE(clash)    DE(int)     intcor
     15.59     -17.24       2.69        0.00      58.35       1.58       0.06       1.59       ----

> <Gold.Chemscore.Fitness>
15.5881

> <Gold.Chemscore.DG>
-17.2418

> <Gold.Chemscore.ZeroCoef>
-5.4800

> <Gold.Chemscore.Hbond>
2.6890

> <Gold.Chemscore.Metal>
0.0000

> <Gold.Chemscore.Lipo>
58.3457

> <Gold.Chemscore.Internal_Hbond>
0.0000

> <Gold.Chemscore.DEClash>
0.0637

> <Gold.Chemscore.DEInternal>
1.5900

> <Gold.Chemscore.Rot>
1.5804

> <Gold.Chemscore.Internal.Correction>
   9.000000E+99

> <Gold.Chemscore.Hbonds>
donor molecule, donor type, donor heavy atom, donor atom, acceptor molecule, acceptor atom, score
      L1  H     7    26       P1  7948  0.88
      L1  H    10    27       P1  7948  0.92
      P1  H  7989  7998       L1    20  0.40

> <Gold.Chemscore.Hbond.Weighted>
-8.9813

> <Gold.Chemscore.Metal.Weighted>
-0.0000

> <Gold.Chemscore.Lipo.Weighted>
-6.8264

> <Gold.Chemscore.Internal_Hbond.Weighted>
0.0000

> <Gold.Chemscore.DEClash.Weighted>
0.0637

> <Gold.Chemscore.DEInternal.Weighted>
1.5900

> <Gold.Chemscore.Rot.Weighted>
4.0459

> <Gold.Chemscore.Internal.Correction.Weighted>
   9.000000E+99

> <Gold.Protein.RotatedTorsions>
[ 6907 6896 6895 6894 ] final  -44.55 input  -60.11 | X-H torsion
[ 7974 7965 7964 7962 ] final -156.21 input  175.53 | X-H torsion
[ 8008 7997 7996 7995 ] final -173.48 input   59.86 | X-H torsion
[ 10167 10162 10161 10158 ] final   11.32 input  -65.29 | X-H torsion
[ 10718 10713 10712 10709 ] final  140.48 input   66.30 | X-H torsion
[ 10763 10752 10751 10750 ] final    9.72 input  -60.55 | X-H torsion
[ 11005 11000 10999 10996 ] final   69.18 input  -57.11 | X-H torsion

> <Gold.Protein.ActiveResidues>
 VAL166  LYS551  ARG553  GLY616  TRP617  ASP618  TYR619  PRO620  LYS621  CYS622 
 ASP623  PHE694  ASN695  SER759  ASP760  ASP761  ALA762  ILE779  LEU786  VAL792 
 PHE793  MET794  SER795  GLU796  ALA797  LYS798  CYS799  TRP800  GLU811  SER814 

> <Gold.Protein.RotatedAtoms>
  150.9316  134.8731  159.7554 H   0  0  0  0  0  0  0  0  0  0  0  0  # atno 6907 bound_to 6896
  152.5040  134.4070  159.9446 H   0  0  0  0  0  0  0  0  0  0  0  0  # atno 6908 bound_to 6896
  151.4097  133.3691  159.2777 H   0  0  0  0  0  0  0  0  0  0  0  0  # atno 6909 bound_to 6896
  144.7604  140.4141  143.5981 H   0  0  0  0  0  0  0  0  0  0  0  0  # atno 7974 bound_to 7965
  155.9580  140.1139  157.0920 H   0  0  0  0  0  0  0  0  0  0  0  0  # atno 8008 bound_to 7997
  154.4125  140.1187  156.5207 H   0  0  0  0  0  0  0  0  0  0  0  0  # atno 8009 bound_to 7997
  155.6757  140.3473  155.4838 H   0  0  0  0  0  0  0  0  0  0  0  0  # atno 8010 bound_to 7997
  140.6139  143.8350  150.7096 H   0  0  0  0  0  0  0  0  0  0  0  0  # atno 10167 bound_to 10162
  157.4028  131.1018  151.0535 H   0  0  0  0  0  0  0  0  0  0  0  0  # atno 10718 bound_to 10713
  153.2109  135.6869  153.8115 H   0  0  0  0  0  0  0  0  0  0  0  0  # atno 10763 bound_to 10752
  153.7348  135.3247  155.3294 H   0  0  0  0  0  0  0  0  0  0  0  0  # atno 10764 bound_to 10752
  154.8221  135.4644  154.0916 H   0  0  0  0  0  0  0  0  0  0  0  0  # atno 10765 bound_to 10752
  139.9668  134.6966  156.0528 H   0  0  0  0  0  0  0  0  0  0  0  0  # atno 11005 bound_to 11000
  145.6640  139.1586  143.2792 LP  0  0  0  0  0  0  0  0  0  0  0  0  # atno 17320 bound_to 7965
  146.1660  140.6718  142.9255 LP  0  0  0  0  0  0  0  0  0  0  0  0  # atno 17321 bound_to 7965
  140.1924  143.4025  152.1853 LP  0  0  0  0  0  0  0  0  0  0  0  0  # atno 17342 bound_to 10162
  139.5383  144.7231  151.4819 LP  0  0  0  0  0  0  0  0  0  0  0  0  # atno 17343 bound_to 10162
  157.1527  130.6191  149.5587 LP  0  0  0  0  0  0  0  0  0  0  0  0  # atno 17370 bound_to 10713
  155.9828  130.4843  150.6899 LP  0  0  0  0  0  0  0  0  0  0  0  0  # atno 17371 bound_to 10713
  141.1348  133.6577  156.3564 LP  0  0  0  0  0  0  0  0  0  0  0  0  # atno 17394 bound_to 11000
  140.5378  134.6150  157.5370 LP  0  0  0  0  0  0  0  0  0  0  0  0  # atno 17395 bound_to 11000

$$$$
