AV-unprocessed.smi:2684|AV-procd|sdf|10378|dock1
  -GOLD-   2272014403D 1   1.00000     0.00000
 Structure written by MMmdl.
 45 46  0  0  0  0  0  0  0  0  2 V2000
  143.9107  132.4808  148.4954 C   0  0  0  0  0  0  0  0  0  0  0  0
  144.6113  132.9018  149.7549 C   0  0  0  0  0  0  0  0  0  0  0  0
  144.0938  133.6872  150.8240 C   0  0  0  0  0  0  0  0  0  0  0  0
  144.9689  133.8660  151.8004 N   0  0  0  0  0  0  0  0  0  0  0  0
  146.0708  133.2021  151.3920 N   0  0  0  0  0  0  0  0  0  0  0  0
  147.2474  133.1630  152.2420 C   0  0  0  0  0  0  0  0  0  0  0  0
  147.1259  134.0553  153.4993 C   0  0  2  0  0  0  0  0  0  0  0  0
  146.0589  133.4994  154.4518 C   0  0  0  0  0  0  0  0  0  0  0  0
  146.7817  135.4511  153.1411 N   0  3  0  0  0  0  0  0  0  0  0  0
  146.1513  136.2409  154.2209 C   0  0  0  0  0  0  0  0  0  0  0  0
  147.1732  137.1293  154.9431 C   0  0  0  0  0  0  0  0  0  0  0  0
  146.8012  137.8269  155.8848 O   0  0  0  0  0  0  0  0  0  0  0  0
  148.4636  137.1244  154.5615 N   0  0  0  0  0  0  0  0  0  0  0  0
  149.5793  137.8905  155.1160 C   0  0  0  0  0  0  0  0  0  0  0  0
  149.3496  139.4073  154.9904 C   0  0  0  0  0  0  0  0  0  0  0  0
  150.5963  140.1798  155.4514 C   0  0  0  0  0  0  0  0  0  0  0  0
  151.7310  139.7674  154.6978 O   0  0  0  0  0  0  0  0  0  0  0  0
  152.0454  138.3905  154.8755 C   0  0  0  0  0  0  0  0  0  0  0  0
  150.8780  137.5174  154.3860 C   0  0  0  0  0  0  0  0  0  0  0  0
  145.8865  132.6204  150.1552 C   0  0  0  0  0  0  0  0  0  0  0  0
  142.8917  132.8650  148.4504 H   0  0  0  0  0  0  0  0  0  0  0  0
  143.8478  131.3953  148.4150 H   0  0  0  0  0  0  0  0  0  0  0  0
  144.4296  132.8402  147.6066 H   0  0  0  0  0  0  0  0  0  0  0  0
  143.1108  134.1242  150.9211 H   0  0  0  0  0  0  0  0  0  0  0  0
  147.4346  132.1269  152.5279 H   0  0  0  0  0  0  0  0  0  0  0  0
  148.1032  133.4760  151.6420 H   0  0  0  0  0  0  0  0  0  0  0  0
  148.0735  134.0506  154.0413 H   0  0  0  0  0  0  0  0  0  0  0  0
  146.3013  132.4826  154.7624 H   0  0  0  0  0  0  0  0  0  0  0  0
  145.0757  133.4770  153.9801 H   0  0  0  0  0  0  0  0  0  0  0  0
  145.9819  134.1070  155.3541 H   0  0  0  0  0  0  0  0  0  0  0  0
  147.6210  135.9210  152.8336 H   0  0  0  0  0  0  0  0  0  0  0  0
  145.3772  136.8760  153.7894 H   0  0  0  0  0  0  0  0  0  0  0  0
  145.6534  135.5696  154.9126 H   0  0  0  0  0  0  0  0  0  0  0  0
  148.7042  136.4936  153.8100 H   0  0  0  0  0  0  0  0  0  0  0  0
  149.7153  137.6278  156.1643 H   0  0  0  0  0  0  0  0  0  0  0  0
  149.1294  139.6650  153.9536 H   0  0  0  0  0  0  0  0  0  0  0  0
  148.4880  139.7221  155.5786 H   0  0  0  0  0  0  0  0  0  0  0  0
  150.4481  141.2501  155.3072 H   0  0  0  0  0  0  0  0  0  0  0  0
  150.7776  140.0247  156.5163 H   0  0  0  0  0  0  0  0  0  0  0  0
  152.9483  138.1600  154.3098 H   0  0  0  0  0  0  0  0  0  0  0  0
  152.2687  138.1911  155.9245 H   0  0  0  0  0  0  0  0  0  0  0  0
  151.1116  136.4638  154.5431 H   0  0  0  0  0  0  0  0  0  0  0  0
  150.7546  137.6541  153.3105 H   0  0  0  0  0  0  0  0  0  0  0  0
  146.6652  132.0484  149.6720 H   0  0  0  0  0  0  0  0  0  0  0  0
  146.1299  135.4312  152.3696 H   0  0  0  0  0  0  0  0  0  0  0  0
  1  2  1  0  0  0  0
  1 21  1  0  0  0  0
  1 22  1  0  0  0  0
  1 23  1  0  0  0  0
  2 20  2  0  0  0  0
  2  3  1  0  0  0  0
  3  4  2  0  0  0  0
  3 24  1  0  0  0  0
  4  5  1  0  0  0  0
  5  6  1  0  0  0  0
  5 20  1  0  0  0  0
  6  7  1  0  0  0  0
  6 25  1  0  0  0  0
  6 26  1  0  0  0  0
  7  8  1  0  0  0  0
  7  9  1  0  0  0  0
  7 27  1  0  0  0  0
  8 28  1  0  0  0  0
  8 29  1  0  0  0  0
  8 30  1  0  0  0  0
  9 10  1  0  0  0  0
  9 31  1  0  0  0  0
  9 45  1  0  0  0  0
 10 11  1  0  0  0  0
 10 32  1  0  0  0  0
 10 33  1  0  0  0  0
 11 12  2  0  0  0  0
 11 13  1  0  0  0  0
 13 14  1  0  0  0  0
 13 34  1  0  0  0  0
 14 19  1  0  0  0  0
 14 15  1  0  0  0  0
 14 35  1  0  0  0  0
 15 16  1  0  0  0  0
 15 36  1  0  0  0  0
 15 37  1  0  0  0  0
 16 17  1  0  0  0  0
 16 38  1  0  0  0  0
 16 39  1  0  0  0  0
 17 18  1  0  0  0  0
 18 19  1  0  0  0  0
 18 40  1  0  0  0  0
 18 41  1  0  0  0  0
 19 42  1  0  0  0  0
 19 43  1  0  0  0  0
 20 44  1  0  0  0  0
M  CHG  1   9   1
M  END
> <s_m_source_file>
AV-unprocessed.smi

> <i_m_source_file_index>
2684

> <i_lp_mmshare_version>
43012

> <i_f3d_flags>
0

> <s_epik_input>
W0NIM11jMVtjSF1ubihbY0hdMSlbQ0gyXVtDQEhdKFtDSDNdKVtOSF1bQ0gyXUMoPU8pW05IXVtDSF0yW0NIMl1bQ0gyXU9bQ0gyXVtDSDJdMg==

> <s_epik_cmdline>
J2VwaWtfcHl0aG9uJywgJy1waCcsICc3LjAnLCAnLXRuJywgJzgnLCAnLW1hJywgJzIwMCcsICctbWV0YWxfYmluZGluZycsICctaW1hZScsICc8aW5maWxlLm1hZT4nLCAnLW9tYWUnLCAnPG91dGZpbGUubWFlPic=

> <r_lp_tautomer_probability>
1

> <r_epik_Ionization_Penalty>
0.128576

> <r_epik_Ionization_Penalty_Charging>
0.128567

> <r_epik_Ionization_Penalty_Neutral>
8.60003e-06

> <r_epik_State_Penalty>
0.117991

> <r_epik_Charging_Adjusted_Penalty>
0.246558

> <i_epik_Tot_Q>
1

> <i_epik_Tot_abs_Q>
1

> <r_epik_Metal_State_Penalty>
0.118015

> <b_epik_Metal_Only>
0

> <s_lp_Force_Field>
OPLS_2005

> <r_lp_Energy>
10.3737

> <b_lp_Chiralities_Consistent>
1

> <s_lp_Variant>
AV-unprocessed.smi:2684-1

> <Gold.Version>
5.8.1

> <Gold.Id.Protein>
6NUR|6NUR_protein|mol2

> <Gold.PLP.Fitness>
49.4956

> <Gold.PLP.PLP>
-33.0252

> <Gold.PLP.part.hbond>
-3.0000

> <Gold.PLP.part.metal>
0.0000

> <Gold.PLP.part.buried>
-3.5765

> <Gold.PLP.part.nonpolar>
-27.2826

> <Gold.PLP.part.repulsive>
0.1739

> <Gold.PLP.ligand.clash>
0.0000

> <Gold.PLP.ligand.torsion>
0.5768

> <Gold.PLP.Chemscore.Hbond>
3.9440

> <Gold.PLP.Chemscore.CHOScore>
1.9053

> <Gold.PLP.Chemscore.Metal>
0.0000

> <Gold.Chemscore.Hbonds>
donor molecule, donor type, donor heavy atom, donor atom, acceptor molecule, acceptor atom, score
      L1  H     9    31       P1  7948  2.00
      L1  H    13    34       P1  7948  0.96
      P1  H  7989  7998       L1    17  1.00
      L1  C     3    24       P1 10186  1.00
      L1  C    20    44       P1 10747  0.70

> <Gold.PLP.Chemscore.Internal.Correction>
0.0761

> <Gold.Rescore>
     Score         DG    S(hbond)    S(metal)    S(lipo)     H(rot)  DE(clash)    DE(int)     intcor
     19.12     -19.90       2.90        0.00      85.24       2.04       0.10       0.68       ----

> <Gold.Chemscore.Fitness>
19.1224

> <Gold.Chemscore.DG>
-19.9034

> <Gold.Chemscore.ZeroCoef>
-5.4800

> <Gold.Chemscore.Hbond>
2.8988

> <Gold.Chemscore.Metal>
0.0000

> <Gold.Chemscore.Lipo>
85.2416

> <Gold.Chemscore.Internal_Hbond>
0.0000

> <Gold.Chemscore.DEClash>
0.1034

> <Gold.Chemscore.DEInternal>
0.6775

> <Gold.Chemscore.Rot>
2.0437

> <Gold.Chemscore.Internal.Correction>
   9.000000E+99

> <Gold.Chemscore.Hbonds>
donor molecule, donor type, donor heavy atom, donor atom, acceptor molecule, acceptor atom, score
      L1  H     9    31       P1  7948  0.98
      L1  H    13    34       P1  7948  0.91
      P1  H  7989  7998       L1    17  0.25

> <Gold.Chemscore.Hbond.Weighted>
-9.6819

> <Gold.Chemscore.Metal.Weighted>
-0.0000

> <Gold.Chemscore.Lipo.Weighted>
-9.9733

> <Gold.Chemscore.Internal_Hbond.Weighted>
0.0000

> <Gold.Chemscore.DEClash.Weighted>
0.1034

> <Gold.Chemscore.DEInternal.Weighted>
0.6775

> <Gold.Chemscore.Rot.Weighted>
5.2318

> <Gold.Chemscore.Internal.Correction.Weighted>
   9.000000E+99

> <Gold.Protein.RotatedTorsions>
[ 6907 6896 6895 6894 ] final -137.57 input  -60.11 | X-H torsion
[ 7974 7965 7964 7962 ] final -134.66 input  175.53 | X-H torsion
[ 8008 7997 7996 7995 ] final  127.22 input   59.86 | X-H torsion
[ 10167 10162 10161 10158 ] final  -96.88 input  -65.29 | X-H torsion
[ 10718 10713 10712 10709 ] final  -51.86 input   66.30 | X-H torsion
[ 10763 10752 10751 10750 ] final  166.53 input  -60.55 | X-H torsion
[ 11005 11000 10999 10996 ] final   47.31 input  -57.11 | X-H torsion

> <Gold.Protein.ActiveResidues>
 VAL166  LYS551  ARG553  GLY616  TRP617  ASP618  TYR619  PRO620  LYS621  CYS622 
 ASP623  PHE694  ASN695  SER759  ASP760  ASP761  ALA762  ILE779  LEU786  VAL792 
 PHE793  MET794  SER795  GLU796  ALA797  LYS798  CYS799  TRP800  GLU811  SER814 

> <Gold.Protein.RotatedAtoms>
  151.0241  133.5850  159.2667 H   0  0  0  0  0  0  0  0  0  0  0  0  # atno 6907 bound_to 6896
  151.2956  135.0753  159.9230 H   0  0  0  0  0  0  0  0  0  0  0  0  # atno 6908 bound_to 6896
  152.5330  133.9931  159.7914 H   0  0  0  0  0  0  0  0  0  0  0  0  # atno 6909 bound_to 6896
  144.9083  140.6862  143.5041 H   0  0  0  0  0  0  0  0  0  0  0  0  # atno 7974 bound_to 7965
  156.2885  140.2674  156.2237 H   0  0  0  0  0  0  0  0  0  0  0  0  # atno 8008 bound_to 7997
  155.0142  140.0387  157.2430 H   0  0  0  0  0  0  0  0  0  0  0  0  # atno 8009 bound_to 7997
  154.7492  140.2739  155.6312 H   0  0  0  0  0  0  0  0  0  0  0  0  # atno 8010 bound_to 7997
  140.2892  143.3232  152.0363 H   0  0  0  0  0  0  0  0  0  0  0  0  # atno 10167 bound_to 10162
  156.1672  130.4149  149.9702 H   0  0  0  0  0  0  0  0  0  0  0  0  # atno 10718 bound_to 10713
  154.3403  135.2754  155.2426 H   0  0  0  0  0  0  0  0  0  0  0  0  # atno 10763 bound_to 10752
  154.4699  135.5885  153.6318 H   0  0  0  0  0  0  0  0  0  0  0  0  # atno 10764 bound_to 10752
  152.9858  135.6085  154.3604 H   0  0  0  0  0  0  0  0  0  0  0  0  # atno 10765 bound_to 10752
  140.1290  134.4730  155.8536 H   0  0  0  0  0  0  0  0  0  0  0  0  # atno 11005 bound_to 11000
  145.3498  139.1709  143.4441 LP  0  0  0  0  0  0  0  0  0  0  0  0  # atno 17320 bound_to 7965
  146.3145  140.3548  142.8659 LP  0  0  0  0  0  0  0  0  0  0  0  0  # atno 17321 bound_to 7965
  139.4942  144.6537  151.6620 LP  0  0  0  0  0  0  0  0  0  0  0  0  # atno 17342 bound_to 10162
  140.5746  144.0050  150.6235 LP  0  0  0  0  0  0  0  0  0  0  0  0  # atno 17343 bound_to 10162
  156.7513  130.9116  151.3637 LP  0  0  0  0  0  0  0  0  0  0  0  0  # atno 17370 bound_to 10713
  157.6776  130.9109  150.0189 LP  0  0  0  0  0  0  0  0  0  0  0  0  # atno 17371 bound_to 10713
  141.2167  133.6789  156.7034 LP  0  0  0  0  0  0  0  0  0  0  0  0  # atno 17394 bound_to 11000
  140.2866  134.8274  157.3980 LP  0  0  0  0  0  0  0  0  0  0  0  0  # atno 17395 bound_to 11000

$$$$
