AV-unprocessed.smi:686|AV-procd|sdf|3340|dock3
  -GOLD-   22720 0313D 1   1.00000     0.00000
 Structure written by MMmdl.
 41 42  0  0  0  0  0  0  0  0  2 V2000
  147.9222  140.7803  153.2585 C   0  0  0  0  0  0  0  0  0  0  0  0
  147.1640  139.4786  153.5662 C   0  0  1  0  0  0  0  0  0  0  0  0
  146.6335  138.7256  152.3372 C   0  0  0  0  0  0  0  0  0  0  0  0
  146.7106  137.2745  152.6459 N   0  3  2  0  0  0  0  0  0  0  0  0
  145.5177  136.4733  152.2517 C   0  0  0  0  0  0  0  0  0  0  0  0
  145.5390  136.1152  150.7530 C   0  0  0  0  0  0  0  0  0  0  0  0
  144.2137  137.2259  152.5786 C   0  0  0  0  0  0  0  0  0  0  0  0
  147.1317  137.1482  154.0607 C   0  0  0  0  0  0  0  0  0  0  0  0
  147.9223  138.4204  154.3735 C   0  0  1  0  0  0  0  0  0  0  0  0
  149.3139  138.2876  153.9274 N   0  0  0  0  0  0  0  0  0  0  0  0
  150.5260  137.8059  155.0561 S   0  0  0  0  0  0  0  0  0  0  0  0
  149.8704  137.6913  156.3675 O   0  0  0  0  0  0  0  0  0  0  0  0
  151.2325  136.6501  154.4831 O   0  0  0  0  0  0  0  0  0  0  0  0
  151.6485  139.2693  155.0730 C   0  0  0  0  0  0  0  0  0  0  0  0
  151.8653  139.7293  156.4875 C   0  0  0  0  0  0  0  0  0  0  0  0
  150.9965  140.4975  157.3108 C   0  0  0  0  0  0  0  0  0  0  0  0
  151.6860  140.6108  158.4836 C   0  0  0  0  0  0  0  0  0  0  0  0
  152.8793  139.9699  158.3973 O   0  0  0  0  0  0  0  0  0  0  0  0
  152.9866  139.4131  157.1180 N   0  0  0  0  0  0  0  0  0  0  0  0
  148.7846  140.6058  152.6145 H   0  0  0  0  0  0  0  0  0  0  0  0
  148.2786  141.2499  154.1756 H   0  0  0  0  0  0  0  0  0  0  0  0
  147.2740  141.4950  152.7507 H   0  0  0  0  0  0  0  0  0  0  0  0
  146.2936  139.7519  154.1655 H   0  0  0  0  0  0  0  0  0  0  0  0
  145.6162  139.0504  152.1147 H   0  0  0  0  0  0  0  0  0  0  0  0
  147.2438  138.9216  151.4547 H   0  0  0  0  0  0  0  0  0  0  0  0
  145.5308  135.5426  152.8211 H   0  0  0  0  0  0  0  0  0  0  0  0
  144.6349  135.5763  150.4681 H   0  0  0  0  0  0  0  0  0  0  0  0
  146.3804  135.4714  150.4968 H   0  0  0  0  0  0  0  0  0  0  0  0
  145.5993  137.0095  150.1317 H   0  0  0  0  0  0  0  0  0  0  0  0
  143.3421  136.6477  152.2701 H   0  0  0  0  0  0  0  0  0  0  0  0
  144.1711  138.1854  152.0620 H   0  0  0  0  0  0  0  0  0  0  0  0
  144.1033  137.4179  153.6455 H   0  0  0  0  0  0  0  0  0  0  0  0
  146.2466  137.1149  154.6987 H   0  0  0  0  0  0  0  0  0  0  0  0
  147.6975  136.2329  154.2324 H   0  0  0  0  0  0  0  0  0  0  0  0
  147.9123  138.6533  155.4391 H   0  0  0  0  0  0  0  0  0  0  0  0
  149.3983  137.7835  153.0448 H   0  0  0  0  0  0  0  0  0  0  0  0
  152.5844  139.0043  154.5802 H   0  0  0  0  0  0  0  0  0  0  0  0
  151.1783  140.0575  154.4850 H   0  0  0  0  0  0  0  0  0  0  0  0
  150.0210  140.8991  157.0794 H   0  0  0  0  0  0  0  0  0  0  0  0
  151.4721  141.0914  159.4269 H   0  0  0  0  0  0  0  0  0  0  0  0
  147.4862  136.9223  152.1030 H   0  0  0  0  0  0  0  0  0  0  0  0
  1  2  1  0  0  0  0
  1 20  1  0  0  0  0
  1 21  1  0  0  0  0
  1 22  1  0  0  0  0
  2  9  1  0  0  0  0
  2  3  1  0  0  0  0
  2 23  1  0  0  0  0
  3  4  1  0  0  0  0
  3 24  1  0  0  0  0
  3 25  1  0  0  0  0
  4  5  1  0  0  0  0
  4  8  1  0  0  0  0
  4 41  1  0  0  0  0
  5  6  1  0  0  0  0
  5  7  1  0  0  0  0
  5 26  1  0  0  0  0
  6 27  1  0  0  0  0
  6 28  1  0  0  0  0
  6 29  1  0  0  0  0
  7 30  1  0  0  0  0
  7 31  1  0  0  0  0
  7 32  1  0  0  0  0
  8  9  1  0  0  0  0
  8 33  1  0  0  0  0
  8 34  1  0  0  0  0
  9 10  1  0  0  0  0
  9 35  1  0  0  0  0
 10 11  1  0  0  0  0
 10 36  1  0  0  0  0
 11 12  2  0  0  0  0
 11 13  2  0  0  0  0
 11 14  1  0  0  0  0
 14 15  1  0  0  0  0
 14 37  1  0  0  0  0
 14 38  1  0  0  0  0
 15 19  2  0  0  0  0
 15 16  1  0  0  0  0
 16 17  2  0  0  0  0
 16 39  1  0  0  0  0
 17 18  1  0  0  0  0
 17 40  1  0  0  0  0
 18 19  1  0  0  0  0
M  CHG  1   4   1
M  END
> <s_m_source_file>
AV-unprocessed.smi

> <i_m_source_file_index>
686

> <i_lp_mmshare_version>
43012

> <i_f3d_flags>
0

> <s_epik_input>
W0NIM11bQ0BASF0xW0NIMl1OKFtDSF0oW0NIM10pW0NIM10pW0NIMl1bQ0BIXTFbTkhdUyg9TykoPU8pW0NIMl1jMltjSF1bY0hdb24y

> <s_epik_cmdline>
J2VwaWtfcHl0aG9uJywgJy1waCcsICc3LjAnLCAnLXRuJywgJzgnLCAnLW1hJywgJzIwMCcsICctbWV0YWxfYmluZGluZycsICctaW1hZScsICc8aW5maWxlLm1hZT4nLCAnLW9tYWUnLCAnPG91dGZpbGUubWFlPic=

> <r_epik_Ionization_Penalty>
0.00200818

> <r_epik_Ionization_Penalty_Charging>
0.000701289

> <r_epik_Ionization_Penalty_Neutral>
0.00130689

> <r_epik_State_Penalty>
0.00131314

> <r_epik_Charging_Adjusted_Penalty>
0.00201443

> <i_epik_Tot_Q>
1

> <i_epik_Tot_abs_Q>
1

> <r_epik_Metal_State_Penalty>
0.310831

> <b_epik_Metal_Only>
0

> <s_lp_Force_Field>
OPLS_2005

> <r_lp_Energy>
21.9273

> <b_lp_Chiralities_Consistent>
1

> <s_lp_Variant>
AV-unprocessed.smi:686-4

> <Gold.Version>
5.8.1

> <Gold.Id.Protein>
6NUR|6NUR_protein|mol2

> <Gold.PLP.Fitness>
41.9458

> <Gold.PLP.PLP>
-29.3046

> <Gold.PLP.part.hbond>
-5.1703

> <Gold.PLP.part.metal>
0.0000

> <Gold.PLP.part.buried>
2.4706

> <Gold.PLP.part.nonpolar>
-26.0557

> <Gold.PLP.part.repulsive>
0.6687

> <Gold.PLP.ligand.clash>
0.0000

> <Gold.PLP.ligand.torsion>
1.3132

> <Gold.PLP.Chemscore.Hbond>
5.0000

> <Gold.PLP.Chemscore.CHOScore>
0.0000

> <Gold.PLP.Chemscore.Metal>
0.0000

> <Gold.Chemscore.Hbonds>
donor molecule, donor type, donor heavy atom, donor atom, acceptor molecule, acceptor atom, score
      L1  H     4    41       P1  7948  2.00
      L1  H    10    36       P1  7948  1.00
      P1  H  7997  8009       L1    19  1.00
      P1  H 10752 10763       L1    13  1.00

> <Gold.PLP.Chemscore.Internal.Correction>
0.2676

> <Gold.Rescore>
     Score         DG    S(hbond)    S(metal)    S(lipo)     H(rot)  DE(clash)    DE(int)     intcor
     19.00     -20.10       3.81        0.00      57.90       1.91       0.04       1.06       ----

> <Gold.Chemscore.Fitness>
18.9958

> <Gold.Chemscore.DG>
-20.0950

> <Gold.Chemscore.ZeroCoef>
-5.4800

> <Gold.Chemscore.Hbond>
3.8125

> <Gold.Chemscore.Metal>
0.0000

> <Gold.Chemscore.Lipo>
57.9036

> <Gold.Chemscore.Internal_Hbond>
0.0000

> <Gold.Chemscore.DEClash>
0.0368

> <Gold.Chemscore.DEInternal>
1.0624

> <Gold.Chemscore.Rot>
1.9115

> <Gold.Chemscore.Internal.Correction>
   9.000000E+99

> <Gold.Chemscore.Hbonds>
donor molecule, donor type, donor heavy atom, donor atom, acceptor molecule, acceptor atom, score
      L1  H     4    41       P1  7948  0.98
      L1  H    10    36       P1  7948  0.88
      P1  H  7997  8009       L1    19  0.46
      P1  H 10752 10763       L1    13  0.92

> <Gold.Chemscore.Hbond.Weighted>
-12.7338

> <Gold.Chemscore.Metal.Weighted>
-0.0000

> <Gold.Chemscore.Lipo.Weighted>
-6.7747

> <Gold.Chemscore.Internal_Hbond.Weighted>
0.0000

> <Gold.Chemscore.DEClash.Weighted>
0.0368

> <Gold.Chemscore.DEInternal.Weighted>
1.0624

> <Gold.Chemscore.Rot.Weighted>
4.8935

> <Gold.Chemscore.Internal.Correction.Weighted>
   9.000000E+99

> <Gold.Protein.RotatedTorsions>
[ 6907 6896 6895 6894 ] final  139.42 input  -60.11 | X-H torsion
[ 7974 7965 7964 7962 ] final    4.09 input  175.53 | X-H torsion
[ 8008 7997 7996 7995 ] final -166.00 input   59.86 | X-H torsion
[ 10167 10162 10161 10158 ] final  -42.47 input  -65.29 | X-H torsion
[ 10718 10713 10712 10709 ] final  159.81 input   66.30 | X-H torsion
[ 10763 10752 10751 10750 ] final   63.94 input  -60.55 | X-H torsion
[ 11005 11000 10999 10996 ] final  -63.70 input  -57.11 | X-H torsion

> <Gold.Protein.ActiveResidues>
 VAL166  LYS551  ARG553  GLY616  TRP617  ASP618  TYR619  PRO620  LYS621  CYS622 
 ASP623  PHE694  ASN695  SER759  ASP760  ASP761  ALA762  ILE779  LEU786  VAL792 
 PHE793  MET794  SER795  GLU796  ALA797  LYS798  CYS799  TRP800  GLU811  SER814 

> <Gold.Protein.RotatedAtoms>
  152.2551  133.5248  159.5347 H   0  0  0  0  0  0  0  0  0  0  0  0  # atno 6907 bound_to 6896
  150.7106  134.0907  159.3940 H   0  0  0  0  0  0  0  0  0  0  0  0  # atno 6908 bound_to 6896
  151.8826  135.0447  160.0541 H   0  0  0  0  0  0  0  0  0  0  0  0  # atno 6909 bound_to 6896
  146.2444  140.0586  142.8370 H   0  0  0  0  0  0  0  0  0  0  0  0  # atno 7974 bound_to 7965
  155.8577  140.0973  157.1634 H   0  0  0  0  0  0  0  0  0  0  0  0  # atno 8008 bound_to 7997
  154.3988  140.1371  156.3984 H   0  0  0  0  0  0  0  0  0  0  0  0  # atno 8009 bound_to 7997
  155.7891  140.3456  155.5342 H   0  0  0  0  0  0  0  0  0  0  0  0  # atno 8010 bound_to 7997
  140.6968  143.3036  151.3213 H   0  0  0  0  0  0  0  0  0  0  0  0  # atno 10167 bound_to 10162
  157.1591  131.0583  151.2241 H   0  0  0  0  0  0  0  0  0  0  0  0  # atno 10718 bound_to 10713
  153.0037  135.5411  154.6432 H   0  0  0  0  0  0  0  0  0  0  0  0  # atno 10763 bound_to 10752
  154.5682  135.2839  155.0855 H   0  0  0  0  0  0  0  0  0  0  0  0  # atno 10764 bound_to 10752
  154.2031  135.6480  153.5145 H   0  0  0  0  0  0  0  0  0  0  0  0  # atno 10765 bound_to 10752
  141.1402  133.6655  156.5721 H   0  0  0  0  0  0  0  0  0  0  0  0  # atno 11005 bound_to 11000
  145.0920  140.9290  143.4763 LP  0  0  0  0  0  0  0  0  0  0  0  0  # atno 17320 bound_to 7965
  145.0761  139.2995  143.5807 LP  0  0  0  0  0  0  0  0  0  0  0  0  # atno 17321 bound_to 7965
  139.6433  144.0498  152.2571 LP  0  0  0  0  0  0  0  0  0  0  0  0  # atno 17342 bound_to 10162
  140.0010  144.6293  150.7729 LP  0  0  0  0  0  0  0  0  0  0  0  0  # atno 17343 bound_to 10162
  157.4149  130.7406  149.6868 LP  0  0  0  0  0  0  0  0  0  0  0  0  # atno 17370 bound_to 10713
  155.9757  130.4085  150.3831 LP  0  0  0  0  0  0  0  0  0  0  0  0  # atno 17371 bound_to 10713
  140.3905  134.7445  157.4718 LP  0  0  0  0  0  0  0  0  0  0  0  0  # atno 17394 bound_to 11000
  140.0570  134.6049  155.8793 LP  0  0  0  0  0  0  0  0  0  0  0  0  # atno 17395 bound_to 11000

$$$$
