AV-unprocessed.smi:138|AV-procd|sdf|1179|dock1
  -GOLD-   2262018333D 1   1.00000     0.00000
 Structure written by MMmdl.
 52 55  0  0  0  0  0  0  0  0  1 V2000
  155.2139  139.9444  161.4496 C   0  0  0  0  0  0  0  0  0  0  0  0
  154.0913  139.6967  160.4930 C   0  0  0  0  0  0  0  0  0  0  0  0
  153.3863  138.5523  160.2645 C   0  0  0  0  0  0  0  0  0  0  0  0
  152.4101  138.8132  159.2632 C   0  0  0  0  0  0  0  0  0  0  0  0
  151.3950  137.8876  158.6995 C   0  0  0  0  0  0  0  0  0  0  0  0
  150.8592  136.9936  159.3569 O   0  0  0  0  0  0  0  0  0  0  0  0
  151.0414  138.1028  157.2159 C   0  0  0  0  0  0  0  0  0  0  0  0
  150.3468  136.9654  156.6249 N   0  0  0  0  0  0  0  0  0  0  0  0
  149.0973  137.2039  155.9996 C   0  0  0  0  0  0  0  0  0  0  0  0
  148.5936  138.3275  155.9495 O   0  0  0  0  0  0  0  0  0  0  0  0
  148.4757  136.0198  155.4167 C   0  0  0  0  0  0  0  0  0  0  0  0
  147.2831  136.1277  154.8069 F   0  0  0  0  0  0  0  0  0  0  0  0
  149.0788  134.8129  155.4770 C   0  0  0  0  0  0  0  0  0  0  0  0
  150.3083  134.6122  156.0829 N   0  0  0  0  0  0  0  0  0  0  0  0
  150.9723  133.2535  156.1207 C   0  0  2  0  0  0  0  0  0  0  0  0
  150.3331  132.3127  155.0840 C   0  0  0  0  0  0  0  0  0  0  0  0
  150.0613  131.0627  155.8958 C   0  0  0  0  0  0  0  0  0  0  0  0
  149.8153  131.6379  157.2826 C   0  0  0  0  0  0  0  0  0  0  0  0
  150.7898  132.6692  157.3792 O   0  0  0  0  0  0  0  0  0  0  0  0
  150.9816  135.7012  156.6776 C   0  0  0  0  0  0  0  0  0  0  0  0
  152.0851  135.5472  157.2067 O   0  0  0  0  0  0  0  0  0  0  0  0
  152.5538  140.1280  158.8831 C   0  0  0  0  0  0  0  0  0  0  0  0
  151.8049  140.9327  157.8565 C   0  0  0  0  0  0  0  0  0  0  0  0
  153.5798  140.6802  159.6536 N   0  0  0  0  0  0  0  0  0  0  0  0
  154.0529  142.0601  159.5943 C   0  0  0  0  0  0  0  0  0  0  0  0
  152.9799  143.0515  159.9094 C   0  0  0  0  0  0  0  0  0  0  0  0
  152.2507  143.3236  161.0340 C   0  0  0  0  0  0  0  0  0  0  0  0
  151.3787  144.3957  160.6984 C   0  0  0  0  0  0  0  0  0  0  0  0
  151.6414  144.6993  159.3931 C   0  0  0  0  0  0  0  0  0  0  0  0
  152.6164  143.8901  158.8976 O   0  0  0  0  0  0  0  0  0  0  0  0
  155.5186  139.0183  161.9375 H   0  0  0  0  0  0  0  0  0  0  0  0
  154.9150  140.6460  162.2284 H   0  0  0  0  0  0  0  0  0  0  0  0
  156.0863  140.3507  160.9379 H   0  0  0  0  0  0  0  0  0  0  0  0
  153.5543  137.6169  160.7776 H   0  0  0  0  0  0  0  0  0  0  0  0
  150.4143  138.9865  157.0884 H   0  0  0  0  0  0  0  0  0  0  0  0
  151.9370  138.2955  156.6236 H   0  0  0  0  0  0  0  0  0  0  0  0
  148.5625  133.9804  155.0251 H   0  0  0  0  0  0  0  0  0  0  0  0
  152.0371  133.4347  155.9638 H   0  0  0  0  0  0  0  0  0  0  0  0
  149.3972  132.7370  154.7165 H   0  0  0  0  0  0  0  0  0  0  0  0
  151.0030  132.1451  154.2403 H   0  0  0  0  0  0  0  0  0  0  0  0
  149.2191  130.4818  155.5187 H   0  0  0  0  0  0  0  0  0  0  0  0
  150.9441  130.4222  155.9072 H   0  0  0  0  0  0  0  0  0  0  0  0
  148.8122  132.0602  157.3540 H   0  0  0  0  0  0  0  0  0  0  0  0
  149.9353  130.8979  158.0741 H   0  0  0  0  0  0  0  0  0  0  0  0
  151.7462  140.3918  156.9121 H   0  0  0  0  0  0  0  0  0  0  0  0
  152.2723  141.8894  157.6344 H   0  0  0  0  0  0  0  0  0  0  0  0
  150.7873  141.1304  158.1935 H   0  0  0  0  0  0  0  0  0  0  0  0
  154.8932  142.1775  160.2784 H   0  0  0  0  0  0  0  0  0  0  0  0
  154.4617  142.2647  158.6054 H   0  0  0  0  0  0  0  0  0  0  0  0
  152.3339  142.8125  161.9816 H   0  0  0  0  0  0  0  0  0  0  0  0
  150.6515  144.8827  161.3312 H   0  0  0  0  0  0  0  0  0  0  0  0
  151.2474  145.4258  158.6979 H   0  0  0  0  0  0  0  0  0  0  0  0
  1  2  1  0  0  0  0
  1 31  1  0  0  0  0
  1 32  1  0  0  0  0
  1 33  1  0  0  0  0
  2 24  1  0  0  0  0
  2  3  2  0  0  0  0
  3  4  1  0  0  0  0
  3 34  1  0  0  0  0
  4  5  1  0  0  0  0
  4 22  2  0  0  0  0
  5  6  2  0  0  0  0
  5  7  1  0  0  0  0
  7  8  1  0  0  0  0
  7 35  1  0  0  0  0
  7 36  1  0  0  0  0
  8 20  1  0  0  0  0
  8  9  1  0  0  0  0
  9 10  2  0  0  0  0
  9 11  1  0  0  0  0
 11 12  1  0  0  0  0
 11 13  2  0  0  0  0
 13 14  1  0  0  0  0
 13 37  1  0  0  0  0
 14 15  1  0  0  0  0
 14 20  1  0  0  0  0
 15 19  1  0  0  0  0
 15 16  1  0  0  0  0
 15 38  1  0  0  0  0
 16 17  1  0  0  0  0
 16 39  1  0  0  0  0
 16 40  1  0  0  0  0
 17 18  1  0  0  0  0
 17 41  1  0  0  0  0
 17 42  1  0  0  0  0
 18 19  1  0  0  0  0
 18 43  1  0  0  0  0
 18 44  1  0  0  0  0
 20 21  2  0  0  0  0
 22 23  1  0  0  0  0
 22 24  1  0  0  0  0
 23 45  1  0  0  0  0
 23 46  1  0  0  0  0
 23 47  1  0  0  0  0
 24 25  1  0  0  0  0
 25 26  1  0  0  0  0
 25 48  1  0  0  0  0
 25 49  1  0  0  0  0
 26 30  1  0  0  0  0
 26 27  2  0  0  0  0
 27 28  1  0  0  0  0
 27 50  1  0  0  0  0
 28 29  2  0  0  0  0
 28 51  1  0  0  0  0
 29 30  1  0  0  0  0
 29 52  1  0  0  0  0
M  END
> <s_m_source_file>
AV-unprocessed.smi

> <i_m_source_file_index>
138

> <i_lp_mmshare_version>
43012

> <i_f3d_flags>
0

> <s_epik_input>
bzFbY0hdW2NIXVtjSF1jMVtDSDJdbjJjKFtDSDNdKWMoW2NIXWMyW0NIM10pQyg9TylbQ0gyXW4zYyg9TyljKEYpW2NIXW4oYzM9TylbQ0BASF00W0NIMl1bQ0gyXVtDSDJdTzQ=

> <s_epik_cmdline>
J2VwaWtfcHl0aG9uJywgJy1waCcsICc3LjAnLCAnLXRuJywgJzgnLCAnLW1hJywgJzIwMCcsICctbWV0YWxfYmluZGluZycsICctaW1hZScsICc8aW5maWxlLm1hZT4nLCAnLW9tYWUnLCAnPG91dGZpbGUubWFlPic=

> <r_lp_tautomer_probability>
1

> <r_epik_Ionization_Penalty>
5.03107e-09

> <r_epik_Ionization_Penalty_Charging>
5.01743e-09

> <r_epik_Ionization_Penalty_Neutral>
1.36377e-11

> <r_epik_State_Penalty>
-0

> <r_epik_Charging_Adjusted_Penalty>
5.01743e-09

> <i_epik_Tot_Q>
0

> <i_epik_Tot_abs_Q>
0

> <r_epik_Metal_State_Penalty>
-0

> <b_epik_Metal_Only>
0

> <s_epik_Chemistry_Notes>
This compound contains an acetal/aminal-like group ( X-CH(R)-Y where X, Y are N, S, or O) that may be acid/base labile, releasing an aldehyde.

> <s_lp_Force_Field>
OPLS_2005

> <r_lp_Energy>
38.6842

> <b_lp_Chiralities_Consistent>
1

> <s_lp_Variant>
AV-unprocessed.smi:138-1

> <Gold.Version>
5.8.1

> <Gold.Id.Protein>
6NUR|6NUR_protein|mol2

> <Gold.PLP.Fitness>
52.3568

> <Gold.PLP.PLP>
-48.2807

> <Gold.PLP.part.hbond>
-2.9444

> <Gold.PLP.part.metal>
0.0000

> <Gold.PLP.part.buried>
-7.7282

> <Gold.PLP.part.nonpolar>
-36.9975

> <Gold.PLP.part.repulsive>
0.0181

> <Gold.PLP.ligand.clash>
0.0000

> <Gold.PLP.ligand.torsion>
1.1884

> <Gold.PLP.Chemscore.Hbond>
2.1341

> <Gold.PLP.Chemscore.CHOScore>
0.0000

> <Gold.PLP.Chemscore.Metal>
0.0000

> <Gold.Chemscore.Hbonds>
donor molecule, donor type, donor heavy atom, donor atom, acceptor molecule, acceptor atom, score
      P1  H  6896  6907       L1     6  0.99
      P1  H  6896  6909       L1    19  1.00
      P1  H 10752 10765       L1    21  0.22

> <Gold.PLP.Chemscore.Internal.Correction>
0.0507

> <Gold.Rescore>
     Score         DG    S(hbond)    S(metal)    S(lipo)     H(rot)  DE(clash)    DE(int)     intcor
     17.67     -21.39       2.00        0.00     122.47       2.00       0.28       3.45       ----

> <Gold.Chemscore.Fitness>
17.6688

> <Gold.Chemscore.DG>
-21.3895

> <Gold.Chemscore.ZeroCoef>
-5.4800

> <Gold.Chemscore.Hbond>
2.0031

> <Gold.Chemscore.Metal>
0.0000

> <Gold.Chemscore.Lipo>
122.4661

> <Gold.Chemscore.Internal_Hbond>
0.0000

> <Gold.Chemscore.DEClash>
0.2753

> <Gold.Chemscore.DEInternal>
3.4454

> <Gold.Chemscore.Rot>
1.9958

> <Gold.Chemscore.Internal.Correction>
   9.000000E+99

> <Gold.Chemscore.Hbonds>
donor molecule, donor type, donor heavy atom, donor atom, acceptor molecule, acceptor atom, score
      P1  H  6896  6907       L1     6  0.90
      P1  H  6896  6909       L1    19  0.90
      P1  H 10752 10765       L1    21  0.05

> <Gold.Chemscore.Hbond.Weighted>
-6.6902

> <Gold.Chemscore.Metal.Weighted>
-0.0000

> <Gold.Chemscore.Lipo.Weighted>
-14.3285

> <Gold.Chemscore.Internal_Hbond.Weighted>
0.0000

> <Gold.Chemscore.DEClash.Weighted>
0.2753

> <Gold.Chemscore.DEInternal.Weighted>
3.4454

> <Gold.Chemscore.Rot.Weighted>
5.1092

> <Gold.Chemscore.Internal.Correction.Weighted>
   9.000000E+99

> <Gold.Protein.RotatedTorsions>
[ 6907 6896 6895 6894 ] final  -37.54 input  -60.11 | X-H torsion
[ 7974 7965 7964 7962 ] final  -78.01 input  175.53 | X-H torsion
[ 8008 7997 7996 7995 ] final  -77.25 input   59.86 | X-H torsion
[ 10167 10162 10161 10158 ] final   83.79 input  -65.29 | X-H torsion
[ 10718 10713 10712 10709 ] final   17.45 input   66.30 | X-H torsion
[ 10763 10752 10751 10750 ] final -130.28 input  -60.55 | X-H torsion
[ 11005 11000 10999 10996 ] final  -76.07 input  -57.11 | X-H torsion

> <Gold.Protein.ActiveResidues>
 VAL166  LYS551  ARG553  GLY616  TRP617  ASP618  TYR619  PRO620  LYS621  CYS622 
 ASP623  PHE694  ASN695  SER759  ASP760  ASP761  ALA762  ILE779  LEU786  VAL792 
 PHE793  MET794  SER795  GLU796  ALA797  LYS798  CYS799  TRP800  GLU811  SER814 

> <Gold.Protein.RotatedAtoms>
  151.0135  134.9415  159.8019 H   0  0  0  0  0  0  0  0  0  0  0  0  # atno 6907 bound_to 6896
  152.5308  134.2997  159.9084 H   0  0  0  0  0  0  0  0  0  0  0  0  # atno 6908 bound_to 6896
  151.3004  133.4083  159.2673 H   0  0  0  0  0  0  0  0  0  0  0  0  # atno 6909 bound_to 6896
  145.5922  140.9427  143.1286 H   0  0  0  0  0  0  0  0  0  0  0  0  # atno 7974 bound_to 7965
  154.5579  140.0713  156.8773 H   0  0  0  0  0  0  0  0  0  0  0  0  # atno 8008 bound_to 7997
  155.2867  140.3375  155.4237 H   0  0  0  0  0  0  0  0  0  0  0  0  # atno 8009 bound_to 7997
  156.2018  140.1724  156.7870 H   0  0  0  0  0  0  0  0  0  0  0  0  # atno 8010 bound_to 7997
  139.9147  144.6250  150.8501 H   0  0  0  0  0  0  0  0  0  0  0  0  # atno 10167 bound_to 10162
  157.0823  130.6393  149.5829 H   0  0  0  0  0  0  0  0  0  0  0  0  # atno 10718 bound_to 10713
  154.8756  135.3868  154.4057 H   0  0  0  0  0  0  0  0  0  0  0  0  # atno 10763 bound_to 10752
  153.4777  135.7030  153.5961 H   0  0  0  0  0  0  0  0  0  0  0  0  # atno 10764 bound_to 10752
  153.4391  135.3860  155.2184 H   0  0  0  0  0  0  0  0  0  0  0  0  # atno 10765 bound_to 10752
  141.1651  133.6970  156.7613 H   0  0  0  0  0  0  0  0  0  0  0  0  # atno 11005 bound_to 11000
  144.7346  139.7623  143.7334 LP  0  0  0  0  0  0  0  0  0  0  0  0  # atno 17320 bound_to 7965
  146.1639  139.4763  142.9971 LP  0  0  0  0  0  0  0  0  0  0  0  0  # atno 17321 bound_to 7965
  140.7677  143.3340  151.2349 LP  0  0  0  0  0  0  0  0  0  0  0  0  # atno 17342 bound_to 10162
  139.6912  143.9689  152.2860 LP  0  0  0  0  0  0  0  0  0  0  0  0  # atno 17343 bound_to 10162
  155.9920  130.4977  150.7323 LP  0  0  0  0  0  0  0  0  0  0  0  0  # atno 17370 bound_to 10713
  157.4790  131.0900  151.0558 LP  0  0  0  0  0  0  0  0  0  0  0  0  # atno 17371 bound_to 10713
  140.2532  134.8524  157.3687 LP  0  0  0  0  0  0  0  0  0  0  0  0  # atno 17394 bound_to 11000
  140.1683  134.4641  155.7849 LP  0  0  0  0  0  0  0  0  0  0  0  0  # atno 17395 bound_to 11000

$$$$
