AV-unprocessed.smi:2356|AV-procd|sdf|9394|dock3
  -GOLD-   2272013 23D 1   1.00000     0.00000
 Structure written by MMmdl.
 53 56  0  0  0  0  0  0  0  0  1 V2000
  151.4385  138.1077  154.2308 C   0  0  0  0  0  0  0  0  0  0  0  0
  150.5876  139.1252  154.9719 C   0  0  0  0  0  0  0  0  0  0  0  0
  151.2750  140.0452  155.6823 N   0  0  0  0  0  0  0  0  0  0  0  0
  150.5966  140.9869  156.3785 C   0  0  0  0  0  0  0  0  0  0  0  0
  151.3584  141.9239  157.1051 N   0  0  0  0  0  0  0  0  0  0  0  0
  150.9842  143.3265  157.1862 C   0  0  0  0  0  0  0  0  0  0  0  0
  151.9669  143.9357  158.1855 C   0  0  0  0  0  0  0  0  0  0  0  0
  152.2551  142.7775  159.1402 C   0  0  0  0  0  0  0  0  0  0  0  0
  152.1718  141.5327  158.2500 C   0  0  0  0  0  0  0  0  0  0  0  0
  149.1829  141.0356  156.3754 C   0  0  0  0  0  0  0  0  0  0  0  0
  148.4648  140.0784  155.6344 C   0  0  0  0  0  0  0  0  0  0  0  0
  149.1749  139.0984  154.9029 C   0  0  0  0  0  0  0  0  0  0  0  0
  148.5438  138.0740  154.1459 N   0  0  0  0  0  0  0  0  0  0  0  0
  147.2921  137.5870  154.2514 C   0  0  0  0  0  0  0  0  0  0  0  0
  146.4635  137.9558  155.0809 O   0  0  0  0  0  0  0  0  0  0  0  0
  146.9913  136.6491  153.3339 N   0  0  0  0  0  0  0  0  0  0  0  0
  145.7309  135.9205  153.1666 C   0  0  1  0  0  0  0  0  0  0  0  0
  144.6469  136.8558  152.6121 C   0  0  0  0  0  0  0  0  0  0  0  0
  143.3548  136.0719  152.3247 C   0  0  0  0  0  0  0  0  0  0  0  0
  143.6219  134.9905  151.4363 O   0  0  0  0  0  0  0  0  0  0  0  0
  144.5412  134.0410  151.9686 C   0  0  1  0  0  0  0  0  0  0  0  0
  144.6627  132.8861  150.9949 C   0  0  0  0  0  0  0  0  0  0  0  0
  144.1361  133.0002  149.5830 C   0  0  0  0  0  0  0  0  0  0  0  0
  143.4363  132.1068  150.5780 C   0  0  0  0  0  0  0  0  0  0  0  0
  145.8959  134.7299  152.2063 C   0  0  0  0  0  0  0  0  0  0  0  0
  151.3094  138.2206  153.1543 H   0  0  0  0  0  0  0  0  0  0  0  0
  151.1522  137.0930  154.5087 H   0  0  0  0  0  0  0  0  0  0  0  0
  152.4985  138.2307  154.4565 H   0  0  0  0  0  0  0  0  0  0  0  0
  151.0457  143.8184  156.2150 H   0  0  0  0  0  0  0  0  0  0  0  0
  149.9607  143.4085  157.5542 H   0  0  0  0  0  0  0  0  0  0  0  0
  152.8848  144.2260  157.6722 H   0  0  0  0  0  0  0  0  0  0  0  0
  151.5682  144.8167  158.6887 H   0  0  0  0  0  0  0  0  0  0  0  0
  153.2155  142.8714  159.6474 H   0  0  0  0  0  0  0  0  0  0  0  0
  151.4764  142.7334  159.9027 H   0  0  0  0  0  0  0  0  0  0  0  0
  151.7460  140.6911  158.7975 H   0  0  0  0  0  0  0  0  0  0  0  0
  153.1614  141.2438  157.8948 H   0  0  0  0  0  0  0  0  0  0  0  0
  148.6388  141.7842  156.9312 H   0  0  0  0  0  0  0  0  0  0  0  0
  147.3867  140.1065  155.6559 H   0  0  0  0  0  0  0  0  0  0  0  0
  149.0817  137.7240  153.3667 H   0  0  0  0  0  0  0  0  0  0  0  0
  147.7155  136.4288  152.6655 H   0  0  0  0  0  0  0  0  0  0  0  0
  145.3918  135.5562  154.1382 H   0  0  0  0  0  0  0  0  0  0  0  0
  144.4451  137.6639  153.3162 H   0  0  0  0  0  0  0  0  0  0  0  0
  144.9944  137.3234  151.6897 H   0  0  0  0  0  0  0  0  0  0  0  0
  142.9164  135.6944  153.2498 H   0  0  0  0  0  0  0  0  0  0  0  0
  142.6134  136.7275  151.8677 H   0  0  0  0  0  0  0  0  0  0  0  0
  144.1544  133.6562  152.9142 H   0  0  0  0  0  0  0  0  0  0  0  0
  145.5707  132.2991  151.1212 H   0  0  0  0  0  0  0  0  0  0  0  0
  143.6356  133.9241  149.3000 H   0  0  0  0  0  0  0  0  0  0  0  0
  144.7105  132.5209  148.7929 H   0  0  0  0  0  0  0  0  0  0  0  0
  143.5443  131.0312  150.4541 H   0  0  0  0  0  0  0  0  0  0  0  0
  142.4718  132.4374  150.9591 H   0  0  0  0  0  0  0  0  0  0  0  0
  146.3041  135.0749  151.2550 H   0  0  0  0  0  0  0  0  0  0  0  0
  146.6093  134.0093  152.6055 H   0  0  0  0  0  0  0  0  0  0  0  0
  1  2  1  0  0  0  0
  1 26  1  0  0  0  0
  1 27  1  0  0  0  0
  1 28  1  0  0  0  0
  2 12  1  0  0  0  0
  2  3  2  0  0  0  0
  3  4  1  0  0  0  0
  4  5  1  0  0  0  0
  4 10  2  0  0  0  0
  5  9  1  0  0  0  0
  5  6  1  0  0  0  0
  6  7  1  0  0  0  0
  6 29  1  0  0  0  0
  6 30  1  0  0  0  0
  7  8  1  0  0  0  0
  7 31  1  0  0  0  0
  7 32  1  0  0  0  0
  8  9  1  0  0  0  0
  8 33  1  0  0  0  0
  8 34  1  0  0  0  0
  9 35  1  0  0  0  0
  9 36  1  0  0  0  0
 10 11  1  0  0  0  0
 10 37  1  0  0  0  0
 11 12  2  0  0  0  0
 11 38  1  0  0  0  0
 12 13  1  0  0  0  0
 13 14  1  0  0  0  0
 13 39  1  0  0  0  0
 14 15  2  0  0  0  0
 14 16  1  0  0  0  0
 16 17  1  0  0  0  0
 16 40  1  0  0  0  0
 17 25  1  0  0  0  0
 17 18  1  0  0  0  0
 17 41  1  0  0  0  0
 18 19  1  0  0  0  0
 18 42  1  0  0  0  0
 18 43  1  0  0  0  0
 19 20  1  0  0  0  0
 19 44  1  0  0  0  0
 19 45  1  0  0  0  0
 20 21  1  0  0  0  0
 21 22  1  0  0  0  0
 21 25  1  0  0  0  0
 21 46  1  0  0  0  0
 22 24  1  0  0  0  0
 22 23  1  0  0  0  0
 22 47  1  0  0  0  0
 23 24  1  0  0  0  0
 23 48  1  0  0  0  0
 23 49  1  0  0  0  0
 24 50  1  0  0  0  0
 24 51  1  0  0  0  0
 25 52  1  0  0  0  0
 25 53  1  0  0  0  0
M  END
> <s_m_source_file>
AV-unprocessed.smi

> <i_m_source_file_index>
2356

> <i_lp_mmshare_version>
43012

> <i_f3d_flags>
0

> <s_epik_input>
W0NIMl0xW0NIMl1bQ0gyXVtDSDJdTjFjKG5jMltDSDNdKVtjSF1bY0hdYzJbTkhdQyg9TylbTkhdW0NAQEhdM1tDSDJdW0NIMl1PW0NASF0oW0NIMl0zKVtDSF00W0NIMl1bQ0gyXTQ=

> <s_epik_cmdline>
J2VwaWtfcHl0aG9uJywgJy1waCcsICc3LjAnLCAnLXRuJywgJzgnLCAnLW1hJywgJzIwMCcsICctbWV0YWxfYmluZGluZycsICctaW1hZScsICc8aW5maWxlLm1hZT4nLCAnLW9tYWUnLCAnPG91dGZpbGUubWFlPic=

> <r_lp_tautomer_probability>
1

> <r_epik_Ionization_Penalty>
0.308781

> <r_epik_Ionization_Penalty_Charging>
0

> <r_epik_Ionization_Penalty_Neutral>
0.308781

> <r_epik_State_Penalty>
0.302092

> <r_epik_Charging_Adjusted_Penalty>
0.302092

> <i_epik_Tot_Q>
0

> <i_epik_Tot_abs_Q>
0

> <r_epik_Metal_State_Penalty>
0.197467

> <b_epik_Metal_Only>
0

> <s_lp_Force_Field>
OPLS_2005

> <r_lp_Energy>
52.5469

> <b_lp_Chiralities_Consistent>
1

> <s_lp_Variant>
AV-unprocessed.smi:2356-2

> <Gold.Version>
5.8.1

> <Gold.Id.Protein>
6NUR|6NUR_protein|mol2

> <Gold.PLP.Fitness>
43.8837

> <Gold.PLP.PLP>
-41.5035

> <Gold.PLP.part.hbond>
-1.9801

> <Gold.PLP.part.metal>
0.0000

> <Gold.PLP.part.buried>
-5.6204

> <Gold.PLP.part.nonpolar>
-35.4846

> <Gold.PLP.part.repulsive>
0.2739

> <Gold.PLP.ligand.clash>
0.0000

> <Gold.PLP.ligand.torsion>
1.8161

> <Gold.PLP.Chemscore.Hbond>
1.5760

> <Gold.PLP.Chemscore.CHOScore>
0.0000

> <Gold.PLP.Chemscore.Metal>
0.0000

> <Gold.Chemscore.Hbonds>
donor molecule, donor type, donor heavy atom, donor atom, acceptor molecule, acceptor atom, score
      L1  H    13    39       P1  7948  0.68
      L1  H    16    40       P1  7948  0.89
      P1  H  7989  7998       L1     3  0.01

> <Gold.PLP.Chemscore.Internal.Correction>
1.2845

> <Gold.Rescore>
     Score         DG    S(hbond)    S(metal)    S(lipo)     H(rot)  DE(clash)    DE(int)     intcor
     18.75     -21.84       1.76        0.00     114.50       1.14       0.41       2.68       ----

> <Gold.Chemscore.Fitness>
18.7452

> <Gold.Chemscore.DG>
-21.8355

> <Gold.Chemscore.ZeroCoef>
-5.4800

> <Gold.Chemscore.Hbond>
1.7592

> <Gold.Chemscore.Metal>
0.0000

> <Gold.Chemscore.Lipo>
114.5018

> <Gold.Chemscore.Internal_Hbond>
0.0000

> <Gold.Chemscore.DEClash>
0.4075

> <Gold.Chemscore.DEInternal>
2.6827

> <Gold.Chemscore.Rot>
1.1395

> <Gold.Chemscore.Internal.Correction>
   9.000000E+99

> <Gold.Chemscore.Hbonds>
donor molecule, donor type, donor heavy atom, donor atom, acceptor molecule, acceptor atom, score
      L1  H    13    39       P1  7948  0.65
      L1  H    16    40       P1  7948  0.86

> <Gold.Chemscore.Hbond.Weighted>
-5.8759

> <Gold.Chemscore.Metal.Weighted>
-0.0000

> <Gold.Chemscore.Lipo.Weighted>
-13.3967

> <Gold.Chemscore.Internal_Hbond.Weighted>
0.0000

> <Gold.Chemscore.DEClash.Weighted>
0.4075

> <Gold.Chemscore.DEInternal.Weighted>
2.6827

> <Gold.Chemscore.Rot.Weighted>
2.9171

> <Gold.Chemscore.Internal.Correction.Weighted>
   9.000000E+99

> <Gold.Protein.RotatedTorsions>
[ 6907 6896 6895 6894 ] final  112.77 input  -60.11 | X-H torsion
[ 7974 7965 7964 7962 ] final  104.40 input  175.53 | X-H torsion
[ 8008 7997 7996 7995 ] final   20.85 input   59.86 | X-H torsion
[ 10167 10162 10161 10158 ] final -129.71 input  -65.29 | X-H torsion
[ 10718 10713 10712 10709 ] final   63.15 input   66.30 | X-H torsion
[ 10763 10752 10751 10750 ] final  -68.16 input  -60.55 | X-H torsion
[ 11005 11000 10999 10996 ] final  146.21 input  -57.11 | X-H torsion

> <Gold.Protein.ActiveResidues>
 VAL166  LYS551  ARG553  GLY616  TRP617  ASP618  TYR619  PRO620  LYS621  CYS622 
 ASP623  PHE694  ASN695  SER759  ASP760  ASP761  ALA762  ILE779  LEU786  VAL792 
 PHE793  MET794  SER795  GLU796  ALA797  LYS798  CYS799  TRP800  GLU811  SER814 

> <Gold.Protein.RotatedAtoms>
  152.4898  133.8469  159.7181 H   0  0  0  0  0  0  0  0  0  0  0  0  # atno 6907 bound_to 6896
  150.9017  133.7101  159.2884 H   0  0  0  0  0  0  0  0  0  0  0  0  # atno 6908 bound_to 6896
  151.4540  135.1036  159.9758 H   0  0  0  0  0  0  0  0  0  0  0  0  # atno 6909 bound_to 6896
  145.3333  139.2481  143.3649 H   0  0  0  0  0  0  0  0  0  0  0  0  # atno 7974 bound_to 7965
  154.9418  140.3054  155.5117 H   0  0  0  0  0  0  0  0  0  0  0  0  # atno 8008 bound_to 7997
  156.2995  140.2335  156.4425 H   0  0  0  0  0  0  0  0  0  0  0  0  # atno 8009 bound_to 7997
  154.8138  140.0427  157.1350 H   0  0  0  0  0  0  0  0  0  0  0  0  # atno 8010 bound_to 7997
  139.9370  143.6207  152.2514 H   0  0  0  0  0  0  0  0  0  0  0  0  # atno 10167 bound_to 10162
  157.5951  130.9089  149.9678 H   0  0  0  0  0  0  0  0  0  0  0  0  # atno 10718 bound_to 10713
  154.3850  135.6065  153.5811 H   0  0  0  0  0  0  0  0  0  0  0  0  # atno 10763 bound_to 10752
  152.9788  135.5870  154.4365 H   0  0  0  0  0  0  0  0  0  0  0  0  # atno 10764 bound_to 10752
  154.4140  135.2844  155.1996 H   0  0  0  0  0  0  0  0  0  0  0  0  # atno 10765 bound_to 10752
  140.0775  134.9116  157.1446 H   0  0  0  0  0  0  0  0  0  0  0  0  # atno 11005 bound_to 11000
  146.3037  140.3915  142.8695 LP  0  0  0  0  0  0  0  0  0  0  0  0  # atno 17320 bound_to 7965
  144.8847  140.7446  143.5964 LP  0  0  0  0  0  0  0  0  0  0  0  0  # atno 17321 bound_to 7965
  139.6736  144.7660  151.1738 LP  0  0  0  0  0  0  0  0  0  0  0  0  # atno 17342 bound_to 10162
  140.7622  143.5829  150.8876 LP  0  0  0  0  0  0  0  0  0  0  0  0  # atno 17343 bound_to 10162
  156.1012  130.3655  150.0215 LP  0  0  0  0  0  0  0  0  0  0  0  0  # atno 17370 bound_to 10713
  156.8330  130.9399  151.3636 LP  0  0  0  0  0  0  0  0  0  0  0  0  # atno 17371 bound_to 10713
  140.3537  134.2571  155.7195 LP  0  0  0  0  0  0  0  0  0  0  0  0  # atno 17394 bound_to 11000
  141.2034  133.7912  157.0338 LP  0  0  0  0  0  0  0  0  0  0  0  0  # atno 17395 bound_to 11000

$$$$
