AV-unprocessed.smi:1345|AV-procd|sdf|5510|dock5
  -GOLD-   22720 5 93D 1   1.00000     0.00000
 Structure written by MMmdl.
 40 41  0  0  0  0  0  0  0  0  1 V2000
  146.3735  141.4618  155.6694 C   0  0  0  0  0  0  0  0  0  0  0  0
  146.9898  142.2394  154.4922 C   0  0  0  0  0  0  0  0  0  0  0  0
  145.8877  143.0488  153.7811 C   0  0  0  0  0  0  0  0  0  0  0  0
  147.7661  141.3178  153.5136 C   0  0  2  0  0  0  0  0  0  0  0  0
  147.0711  139.9641  153.2707 C   0  0  0  0  0  0  0  0  0  0  0  0
  149.1162  141.0699  154.0190 N   0  0  0  0  0  0  0  0  0  0  0  0
  149.4262  140.3510  155.1100 C   0  0  0  0  0  0  0  0  0  0  0  0
  148.5795  139.8104  155.8235 O   0  0  0  0  0  0  0  0  0  0  0  0
  150.9232  140.2331  155.4249 C   0  0  0  0  0  0  0  0  0  0  0  0
  151.3266  141.0809  156.5996 C   0  0  0  0  0  0  0  0  0  0  0  0
  150.9534  142.3797  156.8491 C   0  0  0  0  0  0  0  0  0  0  0  0
  151.6526  142.9890  158.3243 S   0  0  0  0  0  0  0  0  0  0  0  0
  152.4512  141.4342  158.5489 C   0  0  0  0  0  0  0  0  0  0  0  0
  153.3014  141.1419  159.6570 N   0  0  0  0  0  0  0  0  0  0  0  0
  153.2445  141.9319  160.8811 C   0  0  0  0  0  0  0  0  0  0  0  0
  154.3041  141.2969  161.7767 C   0  0  0  0  0  0  0  0  0  0  0  0
  154.8090  140.2317  160.9427 N   0  0  0  0  0  0  0  0  0  0  0  0
  154.2265  140.1631  159.7434 C   0  0  0  0  0  0  0  0  0  0  0  0
  154.5138  139.3298  158.8852 O   0  0  0  0  0  0  0  0  0  0  0  0
  152.1837  140.5578  157.5733 N   0  0  0  0  0  0  0  0  0  0  0  0
  145.7102  140.6707  155.3181 H   0  0  0  0  0  0  0  0  0  0  0  0
  145.7903  142.1211  156.3130 H   0  0  0  0  0  0  0  0  0  0  0  0
  147.1374  141.0059  156.2985 H   0  0  0  0  0  0  0  0  0  0  0  0
  147.6960  142.9573  154.9123 H   0  0  0  0  0  0  0  0  0  0  0  0
  145.1624  142.3904  153.3017 H   0  0  0  0  0  0  0  0  0  0  0  0
  146.2952  143.7096  153.0160 H   0  0  0  0  0  0  0  0  0  0  0  0
  145.3454  143.6791  154.4867 H   0  0  0  0  0  0  0  0  0  0  0  0
  147.8407  141.8381  152.5567 H   0  0  0  0  0  0  0  0  0  0  0  0
  146.1098  140.0870  152.7730 H   0  0  0  0  0  0  0  0  0  0  0  0
  146.8998  139.4321  154.2072 H   0  0  0  0  0  0  0  0  0  0  0  0
  147.6743  139.3203  152.6301 H   0  0  0  0  0  0  0  0  0  0  0  0
  149.8761  141.4740  153.4910 H   0  0  0  0  0  0  0  0  0  0  0  0
  151.1533  139.1829  155.6095 H   0  0  0  0  0  0  0  0  0  0  0  0
  151.4964  140.5232  154.5433 H   0  0  0  0  0  0  0  0  0  0  0  0
  150.3067  143.0111  156.2581 H   0  0  0  0  0  0  0  0  0  0  0  0
  153.4722  142.9791  160.6767 H   0  0  0  0  0  0  0  0  0  0  0  0
  152.2532  141.8708  161.3329 H   0  0  0  0  0  0  0  0  0  0  0  0
  155.1013  141.9971  162.0286 H   0  0  0  0  0  0  0  0  0  0  0  0
  153.8778  140.8959  162.6970 H   0  0  0  0  0  0  0  0  0  0  0  0
  155.5360  139.6019  161.2501 H   0  0  0  0  0  0  0  0  0  0  0  0
  1  2  1  0  0  0  0
  1 21  1  0  0  0  0
  1 22  1  0  0  0  0
  1 23  1  0  0  0  0
  2  3  1  0  0  0  0
  2  4  1  0  0  0  0
  2 24  1  0  0  0  0
  3 25  1  0  0  0  0
  3 26  1  0  0  0  0
  3 27  1  0  0  0  0
  4  5  1  0  0  0  0
  4  6  1  0  0  0  0
  4 28  1  0  0  0  0
  5 29  1  0  0  0  0
  5 30  1  0  0  0  0
  5 31  1  0  0  0  0
  6  7  1  0  0  0  0
  6 32  1  0  0  0  0
  7  8  2  0  0  0  0
  7  9  1  0  0  0  0
  9 10  1  0  0  0  0
  9 33  1  0  0  0  0
  9 34  1  0  0  0  0
 10 20  1  0  0  0  0
 10 11  2  0  0  0  0
 11 12  1  0  0  0  0
 11 35  1  0  0  0  0
 12 13  1  0  0  0  0
 13 14  1  0  0  0  0
 13 20  2  0  0  0  0
 14 18  1  0  0  0  0
 14 15  1  0  0  0  0
 15 16  1  0  0  0  0
 15 36  1  0  0  0  0
 15 37  1  0  0  0  0
 16 17  1  0  0  0  0
 16 38  1  0  0  0  0
 16 39  1  0  0  0  0
 17 18  1  0  0  0  0
 17 40  1  0  0  0  0
 18 19  2  0  0  0  0
M  END
> <s_m_source_file>
AV-unprocessed.smi

> <i_m_source_file_index>
1345

> <i_lp_mmshare_version>
43012

> <i_f3d_flags>
0

> <s_epik_input>
W0NIM11bQ0hdKFtDSDNdKVtDQEhdKFtDSDNdKVtOSF1DKD1PKVtDSDJdYzFbY0hdc2MobjEpTjJbQ0gyXVtDSDJdW05IXUMyPU8=

> <s_epik_cmdline>
J2VwaWtfcHl0aG9uJywgJy1waCcsICc3LjAnLCAnLXRuJywgJzgnLCAnLW1hJywgJzIwMCcsICctbWV0YWxfYmluZGluZycsICctaW1hZScsICc8aW5maWxlLm1hZT4nLCAnLW9tYWUnLCAnPG91dGZpbGUubWFlPic=

> <r_lp_tautomer_probability>
1

> <r_epik_Ionization_Penalty>
0.000122034

> <r_epik_Ionization_Penalty_Charging>
0

> <r_epik_Ionization_Penalty_Neutral>
0.000122034

> <r_epik_State_Penalty>
-0

> <r_epik_Charging_Adjusted_Penalty>
0

> <i_epik_Tot_Q>
0

> <i_epik_Tot_abs_Q>
0

> <r_epik_Metal_State_Penalty>
-0

> <b_epik_Metal_Only>
0

> <s_lp_Force_Field>
OPLS_2005

> <r_lp_Energy>
36.09

> <b_lp_Chiralities_Consistent>
1

> <s_lp_Variant>
AV-unprocessed.smi:1345-1

> <Gold.Version>
5.8.1

> <Gold.Id.Protein>
6NUR|6NUR_protein|mol2

> <Gold.PLP.Fitness>
44.4255

> <Gold.PLP.PLP>
-40.5382

> <Gold.PLP.part.hbond>
-1.9068

> <Gold.PLP.part.metal>
0.0000

> <Gold.PLP.part.buried>
-2.8449

> <Gold.PLP.part.nonpolar>
-35.0951

> <Gold.PLP.part.repulsive>
0.5476

> <Gold.PLP.ligand.clash>
0.0000

> <Gold.PLP.ligand.torsion>
1.0796

> <Gold.PLP.Chemscore.Hbond>
1.0000

> <Gold.PLP.Chemscore.CHOScore>
1.0000

> <Gold.PLP.Chemscore.Metal>
0.0000

> <Gold.Chemscore.Hbonds>
donor molecule, donor type, donor heavy atom, donor atom, acceptor molecule, acceptor atom, score
      P1  H  7997  8009       L1    19  1.00
      L1  C    11    35       P1  8028  1.00

> <Gold.PLP.Chemscore.Internal.Correction>
0.0465

> <Gold.Rescore>
     Score         DG    S(hbond)    S(metal)    S(lipo)     H(rot)  DE(clash)    DE(int)     intcor
      9.80     -13.85       0.99        0.00      81.14       1.74       0.03       4.03       ----

> <Gold.Chemscore.Fitness>
9.7994

> <Gold.Chemscore.DG>
-13.8505

> <Gold.Chemscore.ZeroCoef>
-5.4800

> <Gold.Chemscore.Hbond>
0.9938

> <Gold.Chemscore.Metal>
0.0000

> <Gold.Chemscore.Lipo>
81.1397

> <Gold.Chemscore.Internal_Hbond>
0.0000

> <Gold.Chemscore.DEClash>
0.0256

> <Gold.Chemscore.DEInternal>
4.0256

> <Gold.Chemscore.Rot>
1.7353

> <Gold.Chemscore.Internal.Correction>
   9.000000E+99

> <Gold.Chemscore.Hbonds>
donor molecule, donor type, donor heavy atom, donor atom, acceptor molecule, acceptor atom, score
      P1  H  7997  8009       L1    19  0.90

> <Gold.Chemscore.Hbond.Weighted>
-3.3194

> <Gold.Chemscore.Metal.Weighted>
-0.0000

> <Gold.Chemscore.Lipo.Weighted>
-9.4933

> <Gold.Chemscore.Internal_Hbond.Weighted>
0.0000

> <Gold.Chemscore.DEClash.Weighted>
0.0256

> <Gold.Chemscore.DEInternal.Weighted>
4.0256

> <Gold.Chemscore.Rot.Weighted>
4.4423

> <Gold.Chemscore.Internal.Correction.Weighted>
   9.000000E+99

> <Gold.Protein.RotatedTorsions>
[ 6907 6896 6895 6894 ] final -105.88 input  -60.11 | X-H torsion
[ 7974 7965 7964 7962 ] final   88.01 input  175.53 | X-H torsion
[ 8008 7997 7996 7995 ] final  114.29 input   59.86 | X-H torsion
[ 10167 10162 10161 10158 ] final -104.76 input  -65.29 | X-H torsion
[ 10718 10713 10712 10709 ] final  -39.16 input   66.30 | X-H torsion
[ 10763 10752 10751 10750 ] final  -26.78 input  -60.55 | X-H torsion
[ 11005 11000 10999 10996 ] final  -74.64 input  -57.11 | X-H torsion

> <Gold.Protein.ActiveResidues>
 VAL166  LYS551  ARG553  GLY616  TRP617  ASP618  TYR619  PRO620  LYS621  CYS622 
 ASP623  PHE694  ASN695  SER759  ASP760  ASP761  ALA762  ILE779  LEU786  VAL792 
 PHE793  MET794  SER795  GLU796  ALA797  LYS798  CYS799  TRP800  GLU811  SER814 

> <Gold.Protein.RotatedAtoms>
  150.7359  134.0061  159.3653 H   0  0  0  0  0  0  0  0  0  0  0  0  # atno 6907 bound_to 6896
  151.8018  135.0704  160.0410 H   0  0  0  0  0  0  0  0  0  0  0  0  # atno 6908 bound_to 6896
  152.3135  133.5742  159.5733 H   0  0  0  0  0  0  0  0  0  0  0  0  # atno 6909 bound_to 6896
  145.5513  139.2296  143.2511 H   0  0  0  0  0  0  0  0  0  0  0  0  # atno 7974 bound_to 7965
  156.2312  140.2962  156.0193 H   0  0  0  0  0  0  0  0  0  0  0  0  # atno 8008 bound_to 7997
  155.2220  140.0416  157.2967 H   0  0  0  0  0  0  0  0  0  0  0  0  # atno 8009 bound_to 7997
  154.5999  140.2424  155.7814 H   0  0  0  0  0  0  0  0  0  0  0  0  # atno 8010 bound_to 7997
  140.2058  143.3784  152.1092 H   0  0  0  0  0  0  0  0  0  0  0  0  # atno 10167 bound_to 10162
  156.2956  130.4233  149.8194 H   0  0  0  0  0  0  0  0  0  0  0  0  # atno 10718 bound_to 10713
  153.7214  135.6944  153.5012 H   0  0  0  0  0  0  0  0  0  0  0  0  # atno 10763 bound_to 10752
  153.2201  135.4373  155.0478 H   0  0  0  0  0  0  0  0  0  0  0  0  # atno 10764 bound_to 10752
  154.8283  135.3458  154.6747 H   0  0  0  0  0  0  0  0  0  0  0  0  # atno 10765 bound_to 10752
  141.1637  133.6918  156.7395 H   0  0  0  0  0  0  0  0  0  0  0  0  # atno 11005 bound_to 11000
  146.1914  140.6336  142.9143 LP  0  0  0  0  0  0  0  0  0  0  0  0  # atno 17320 bound_to 7965
  144.7528  140.5233  143.6790 LP  0  0  0  0  0  0  0  0  0  0  0  0  # atno 17321 bound_to 7965
  139.5199  144.7026  151.5449 LP  0  0  0  0  0  0  0  0  0  0  0  0  # atno 17342 bound_to 10162
  140.6358  143.8986  150.6646 LP  0  0  0  0  0  0  0  0  0  0  0  0  # atno 17343 bound_to 10162
  156.5592  130.8376  151.3323 LP  0  0  0  0  0  0  0  0  0  0  0  0  # atno 17370 bound_to 10713
  157.7354  130.9762  150.2081 LP  0  0  0  0  0  0  0  0  0  0  0  0  # atno 17371 bound_to 10713
  140.2685  134.8411  157.3825 LP  0  0  0  0  0  0  0  0  0  0  0  0  # atno 17394 bound_to 11000
  140.1544  134.4809  155.7938 LP  0  0  0  0  0  0  0  0  0  0  0  0  # atno 17395 bound_to 11000

$$$$
