AV-unprocessed.smi:1762|AV-procd|sdf|7100|dock7
  -GOLD-   22720 8323D 1   1.00000     0.00000
 Structure written by MMmdl.
 52 53  0  0  0  0  0  0  0  0  1 V2000
  147.6774  135.7113  162.6638 C   0  0  0  0  0  0  0  0  0  0  0  0
  147.2636  135.8256  161.1923 C   0  0  2  0  0  0  0  0  0  0  0  0
  148.4622  136.1102  160.2662 C   0  0  0  0  0  0  0  0  0  0  0  0
  148.0670  136.2968  158.8648 N   0  0  0  0  0  0  0  0  0  0  0  0
  149.2256  136.5459  157.9611 C   0  0  2  0  0  0  0  0  0  0  0  0
  150.2779  137.4992  158.5757 C   0  0  0  0  0  0  0  0  0  0  0  0
  151.0318  137.1043  159.4659 O   0  0  0  0  0  0  0  0  0  0  0  0
  150.3402  138.7389  158.0642 N   0  0  0  0  0  0  0  0  0  0  0  0
  151.2987  139.7604  158.4683 C   0  0  0  0  0  0  0  0  0  0  0  0
  150.9231  141.1380  157.8966 C   0  0  0  0  0  0  0  0  0  0  0  0
  151.3860  142.2763  158.7856 C   0  0  0  0  0  0  0  0  0  0  0  0
  150.9957  143.6051  158.5148 C   0  0  0  0  0  0  0  0  0  0  0  0
  151.4554  144.6269  159.3677 C   0  0  0  0  0  0  0  0  0  0  0  0
  152.2853  144.2825  160.4519 C   0  0  0  0  0  0  0  0  0  0  0  0
  152.6197  142.9260  160.6355 C   0  0  0  0  0  0  0  0  0  0  0  0
  152.1836  141.9384  159.8239 N   0  0  0  0  0  0  0  0  0  0  0  0
  148.8510  136.9925  156.5078 C   0  0  0  0  0  0  0  0  0  0  0  0
  147.6526  136.2205  155.9198 C   0  0  0  0  0  0  0  0  0  0  0  0
  150.0360  136.9756  155.5219 C   0  0  0  0  0  0  0  0  0  0  0  0
  147.0234  137.3361  158.8094 C   0  0  0  0  0  0  0  0  0  0  0  0
  145.8379  137.0455  159.7494 C   0  0  2  0  0  0  0  0  0  0  0  0
  144.8059  138.1790  159.7494 C   0  0  0  0  0  0  0  0  0  0  0  0
  146.3212  136.8839  161.0769 O   0  0  0  0  0  0  0  0  0  0  0  0
  148.3912  134.9002  162.8094 H   0  0  0  0  0  0  0  0  0  0  0  0
  146.8127  135.5099  163.2965 H   0  0  0  0  0  0  0  0  0  0  0  0
  148.1408  136.6332  163.0164 H   0  0  0  0  0  0  0  0  0  0  0  0
  146.7854  134.8911  160.8926 H   0  0  0  0  0  0  0  0  0  0  0  0
  148.9981  136.9921  160.6211 H   0  0  0  0  0  0  0  0  0  0  0  0
  149.1424  135.2668  160.3657 H   0  0  0  0  0  0  0  0  0  0  0  0
  149.7361  135.5871  157.8457 H   0  0  0  0  0  0  0  0  0  0  0  0
  149.6902  138.9843  157.3315 H   0  0  0  0  0  0  0  0  0  0  0  0
  151.3145  139.7993  159.5579 H   0  0  0  0  0  0  0  0  0  0  0  0
  152.3041  139.4761  158.1526 H   0  0  0  0  0  0  0  0  0  0  0  0
  151.3568  141.2664  156.9037 H   0  0  0  0  0  0  0  0  0  0  0  0
  149.8418  141.2064  157.7673 H   0  0  0  0  0  0  0  0  0  0  0  0
  150.3600  143.8378  157.6729 H   0  0  0  0  0  0  0  0  0  0  0  0
  151.1771  145.6558  159.1930 H   0  0  0  0  0  0  0  0  0  0  0  0
  152.6572  145.0396  161.1263 H   0  0  0  0  0  0  0  0  0  0  0  0
  153.2543  142.6265  161.4561 H   0  0  0  0  0  0  0  0  0  0  0  0
  148.4976  138.0210  156.5582 H   0  0  0  0  0  0  0  0  0  0  0  0
  147.8970  135.1785  155.7111 H   0  0  0  0  0  0  0  0  0  0  0  0
  147.3256  136.6686  154.9811 H   0  0  0  0  0  0  0  0  0  0  0  0
  146.8019  136.2358  156.6014 H   0  0  0  0  0  0  0  0  0  0  0  0
  150.3891  135.9637  155.3253 H   0  0  0  0  0  0  0  0  0  0  0  0
  150.8788  137.5560  155.8976 H   0  0  0  0  0  0  0  0  0  0  0  0
  149.7478  137.4088  154.5639 H   0  0  0  0  0  0  0  0  0  0  0  0
  147.4580  138.3055  159.0599 H   0  0  0  0  0  0  0  0  0  0  0  0
  146.6091  137.4306  157.8062 H   0  0  0  0  0  0  0  0  0  0  0  0
  145.3430  136.1241  159.4372 H   0  0  0  0  0  0  0  0  0  0  0  0
  144.3952  138.3361  158.7519 H   0  0  0  0  0  0  0  0  0  0  0  0
  145.2511  139.1178  160.0801 H   0  0  0  0  0  0  0  0  0  0  0  0
  143.9758  137.9503  160.4181 H   0  0  0  0  0  0  0  0  0  0  0  0
  1  2  1  0  0  0  0
  1 24  1  0  0  0  0
  1 25  1  0  0  0  0
  1 26  1  0  0  0  0
  2 23  1  0  0  0  0
  2  3  1  0  0  0  0
  2 27  1  0  0  0  0
  3  4  1  0  0  0  0
  3 28  1  0  0  0  0
  3 29  1  0  0  0  0
  4  5  1  0  0  0  0
  4 20  1  0  0  0  0
  5  6  1  0  0  0  0
  5 17  1  0  0  0  0
  5 30  1  0  0  0  0
  6  7  2  0  0  0  0
  6  8  1  0  0  0  0
  8  9  1  0  0  0  0
  8 31  1  0  0  0  0
  9 10  1  0  0  0  0
  9 32  1  0  0  0  0
  9 33  1  0  0  0  0
 10 11  1  0  0  0  0
 10 34  1  0  0  0  0
 10 35  1  0  0  0  0
 11 16  1  0  0  0  0
 11 12  2  0  0  0  0
 12 13  1  0  0  0  0
 12 36  1  0  0  0  0
 13 14  2  0  0  0  0
 13 37  1  0  0  0  0
 14 15  1  0  0  0  0
 14 38  1  0  0  0  0
 15 16  2  0  0  0  0
 15 39  1  0  0  0  0
 17 18  1  0  0  0  0
 17 19  1  0  0  0  0
 17 40  1  0  0  0  0
 18 41  1  0  0  0  0
 18 42  1  0  0  0  0
 18 43  1  0  0  0  0
 19 44  1  0  0  0  0
 19 45  1  0  0  0  0
 19 46  1  0  0  0  0
 20 21  1  0  0  0  0
 20 47  1  0  0  0  0
 20 48  1  0  0  0  0
 21 22  1  0  0  0  0
 21 23  1  0  0  0  0
 21 49  1  0  0  0  0
 22 50  1  0  0  0  0
 22 51  1  0  0  0  0
 22 52  1  0  0  0  0
M  END
> <s_m_source_file>
AV-unprocessed.smi

> <i_m_source_file_index>
1762

> <i_lp_mmshare_version>
43012

> <i_f3d_flags>
0

> <s_epik_input>
W0NIM11bQ0BASF0xW0NIMl1OKFtDSDJdW0NASF0oTzEpW0NIM10pW0NAQEhdKFtDSF0oW0NIM10pW0NIM10pQyg9TylbTkhdW0NIMl1bQ0gyXWMyW2NIXVtjSF1bY0hdW2NIXW4y

> <s_epik_cmdline>
J2VwaWtfcHl0aG9uJywgJy1waCcsICc3LjAnLCAnLXRuJywgJzgnLCAnLW1hJywgJzIwMCcsICctbWV0YWxfYmluZGluZycsICctaW1hZScsICc8aW5maWxlLm1hZT4nLCAnLW9tYWUnLCAnPG91dGZpbGUubWFlPic=

> <r_epik_Ionization_Penalty>
0.0399736

> <r_epik_Ionization_Penalty_Charging>
0

> <r_epik_Ionization_Penalty_Neutral>
0.0399736

> <r_epik_State_Penalty>
0.0317634

> <r_epik_Charging_Adjusted_Penalty>
0.0317634

> <i_epik_Tot_Q>
0

> <i_epik_Tot_abs_Q>
0

> <r_epik_Metal_State_Penalty>
0.0307795

> <b_epik_Metal_Only>
0

> <s_lp_Force_Field>
OPLS_2005

> <r_lp_Energy>
25.9705

> <b_lp_Chiralities_Consistent>
1

> <s_lp_Variant>
AV-unprocessed.smi:1762-2

> <Gold.Version>
5.8.1

> <Gold.Id.Protein>
6NUR|6NUR_protein|mol2

> <Gold.PLP.Fitness>
44.0904

> <Gold.PLP.PLP>
-40.1575

> <Gold.PLP.part.hbond>
-2.0000

> <Gold.PLP.part.metal>
0.0000

> <Gold.PLP.part.buried>
-6.0126

> <Gold.PLP.part.nonpolar>
-32.3604

> <Gold.PLP.part.repulsive>
0.0506

> <Gold.PLP.ligand.clash>
0.0000

> <Gold.PLP.ligand.torsion>
1.2191

> <Gold.PLP.Chemscore.Hbond>
2.0000

> <Gold.PLP.Chemscore.CHOScore>
0.0000

> <Gold.PLP.Chemscore.Metal>
0.0000

> <Gold.Chemscore.Hbonds>
donor molecule, donor type, donor heavy atom, donor atom, acceptor molecule, acceptor atom, score
      P1  H  6896  6907       L1     7  1.00
      P1  H  6934  6947       L1    23  0.13

> <Gold.PLP.Chemscore.Internal.Correction>
0.3712

> <Gold.Rescore>
     Score         DG    S(hbond)    S(metal)    S(lipo)     H(rot)  DE(clash)    DE(int)     intcor
     15.60     -18.50       1.67        0.00      98.74       1.60       0.17       2.73       ----

> <Gold.Chemscore.Fitness>
15.5970

> <Gold.Chemscore.DG>
-18.5042

> <Gold.Chemscore.ZeroCoef>
-5.4800

> <Gold.Chemscore.Hbond>
1.6663

> <Gold.Chemscore.Metal>
0.0000

> <Gold.Chemscore.Lipo>
98.7428

> <Gold.Chemscore.Internal_Hbond>
0.0000

> <Gold.Chemscore.DEClash>
0.1736

> <Gold.Chemscore.DEInternal>
2.7336

> <Gold.Chemscore.Rot>
1.5993

> <Gold.Chemscore.Internal.Correction>
   9.000000E+99

> <Gold.Chemscore.Hbonds>
donor molecule, donor type, donor heavy atom, donor atom, acceptor molecule, acceptor atom, score
      P1  H  6896  6907       L1     7  0.93

> <Gold.Chemscore.Hbond.Weighted>
-5.5654

> <Gold.Chemscore.Metal.Weighted>
-0.0000

> <Gold.Chemscore.Lipo.Weighted>
-11.5529

> <Gold.Chemscore.Internal_Hbond.Weighted>
0.0000

> <Gold.Chemscore.DEClash.Weighted>
0.1736

> <Gold.Chemscore.DEInternal.Weighted>
2.7336

> <Gold.Chemscore.Rot.Weighted>
4.0941

> <Gold.Chemscore.Internal.Correction.Weighted>
   9.000000E+99

> <Gold.Protein.RotatedTorsions>
[ 6907 6896 6895 6894 ] final  -17.06 input  -60.11 | X-H torsion
[ 7974 7965 7964 7962 ] final   71.31 input  175.53 | X-H torsion
[ 8008 7997 7996 7995 ] final -160.78 input   59.86 | X-H torsion
[ 10167 10162 10161 10158 ] final   -5.32 input  -65.29 | X-H torsion
[ 10718 10713 10712 10709 ] final -109.03 input   66.30 | X-H torsion
[ 10763 10752 10751 10750 ] final -134.87 input  -60.55 | X-H torsion
[ 11005 11000 10999 10996 ] final  135.89 input  -57.11 | X-H torsion

> <Gold.Protein.ActiveResidues>
 VAL166  LYS551  ARG553  GLY616  TRP617  ASP618  TYR619  PRO620  LYS621  CYS622 
 ASP623  PHE694  ASN695  SER759  ASP760  ASP761  ALA762  ILE779  LEU786  VAL792 
 PHE793  MET794  SER795  GLU796  ALA797  LYS798  CYS799  TRP800  GLU811  SER814 

> <Gold.Protein.RotatedAtoms>
  151.2991  135.0763  159.9231 H   0  0  0  0  0  0  0  0  0  0  0  0  # atno 6907 bound_to 6896
  152.5301  133.9852  159.7835 H   0  0  0  0  0  0  0  0  0  0  0  0  # atno 6908 bound_to 6896
  151.0136  133.5891  159.2710 H   0  0  0  0  0  0  0  0  0  0  0  0  # atno 6909 bound_to 6896
  145.7674  139.2827  143.1341 H   0  0  0  0  0  0  0  0  0  0  0  0  # atno 7974 bound_to 7965
  155.7824  140.0867  157.2052 H   0  0  0  0  0  0  0  0  0  0  0  0  # atno 8008 bound_to 7997
  154.3989  140.1505  156.3126 H   0  0  0  0  0  0  0  0  0  0  0  0  # atno 8009 bound_to 7997
  155.8640  140.3429  155.5778 H   0  0  0  0  0  0  0  0  0  0  0  0  # atno 8010 bound_to 7997
  140.6959  143.6322  150.8512 H   0  0  0  0  0  0  0  0  0  0  0  0  # atno 10167 bound_to 10162
  156.0516  130.5743  150.8043 H   0  0  0  0  0  0  0  0  0  0  0  0  # atno 10718 bound_to 10713
  154.8712  135.3721  154.4805 H   0  0  0  0  0  0  0  0  0  0  0  0  # atno 10763 bound_to 10752
  153.5459  135.7025  153.5619 H   0  0  0  0  0  0  0  0  0  0  0  0  # atno 10764 bound_to 10752
  153.3760  135.4009  155.1787 H   0  0  0  0  0  0  0  0  0  0  0  0  # atno 10765 bound_to 10752
  140.0009  134.9478  157.0070 H   0  0  0  0  0  0  0  0  0  0  0  0  # atno 11005 bound_to 11000
  146.0204  140.8353  142.9926 LP  0  0  0  0  0  0  0  0  0  0  0  0  # atno 17320 bound_to 7965
  144.6819  140.2620  143.7317 LP  0  0  0  0  0  0  0  0  0  0  0  0  # atno 17321 bound_to 7965
  140.0040  143.5714  152.2865 LP  0  0  0  0  0  0  0  0  0  0  0  0  # atno 17342 bound_to 10162
  139.6413  144.7655  151.2332 LP  0  0  0  0  0  0  0  0  0  0  0  0  # atno 17343 bound_to 10162
  157.5447  131.0942  150.9779 LP  0  0  0  0  0  0  0  0  0  0  0  0  # atno 17370 bound_to 10713
  157.0054  130.5616  149.5315 LP  0  0  0  0  0  0  0  0  0  0  0  0  # atno 17371 bound_to 10713
  140.4729  134.1368  155.7205 LP  0  0  0  0  0  0  0  0  0  0  0  0  # atno 17394 bound_to 11000
  141.1641  133.8736  157.1764 LP  0  0  0  0  0  0  0  0  0  0  0  0  # atno 17395 bound_to 11000

$$$$
