AV-unprocessed.smi:1885|AV-procd|sdf|7650|dock6
  -GOLD-   22720 9383D 1   1.00000     0.00000
 Structure written by MMmdl.
 43 45  0  0  0  0  0  0  0  0  1 V2000
  149.0749  129.1237  153.6554 C   0  0  0  0  0  0  0  0  0  0  0  0
  149.7514  129.7993  154.7056 O   0  0  0  0  0  0  0  0  0  0  0  0
  149.8230  131.1748  154.6515 C   0  0  0  0  0  0  0  0  0  0  0  0
  149.1413  131.9711  153.6971 C   0  0  0  0  0  0  0  0  0  0  0  0
  149.2721  133.3735  153.7137 C   0  0  0  0  0  0  0  0  0  0  0  0
  150.0767  134.0034  154.6843 C   0  0  0  0  0  0  0  0  0  0  0  0
  150.2265  135.5134  154.6808 C   0  0  0  0  0  0  0  0  0  0  0  0
  151.3088  135.9455  155.4893 O   0  0  0  0  0  0  0  0  0  0  0  0
  150.9536  136.9903  156.3794 C   0  0  0  0  0  0  0  0  0  0  0  0
  151.8115  138.2239  156.0629 C   0  0  2  0  0  0  0  0  0  0  0  0
  153.0193  137.7954  155.4653 O   0  0  0  0  0  0  0  0  0  0  0  0
  152.1198  139.0649  157.3169 C   0  0  0  0  0  0  0  0  0  0  0  0
  151.7150  140.4504  157.1638 N   0  0  0  0  0  0  0  0  0  0  0  0
  151.1088  141.0125  156.1002 C   0  0  0  0  0  0  0  0  0  0  0  0
  150.8259  142.3101  156.1762 N   0  0  0  0  0  0  0  0  0  0  0  0
  151.3037  142.6274  157.4363 C   0  0  0  0  0  0  0  0  0  0  0  0
  151.3106  143.8568  158.1331 C   0  0  0  0  0  0  0  0  0  0  0  0
  151.8612  143.9412  159.4292 C   0  0  0  0  0  0  0  0  0  0  0  0
  151.8594  145.1273  160.0828 F   0  0  0  0  0  0  0  0  0  0  0  0
  152.4130  142.7991  160.0468 C   0  0  0  0  0  0  0  0  0  0  0  0
  152.9395  142.8892  161.2911 F   0  0  0  0  0  0  0  0  0  0  0  0
  152.4179  141.5634  159.3720 C   0  0  0  0  0  0  0  0  0  0  0  0
  151.8672  141.4847  158.0799 C   0  0  0  0  0  0  0  0  0  0  0  0
  150.7638  133.2153  155.6303 C   0  0  0  0  0  0  0  0  0  0  0  0
  150.6330  131.8135  155.6127 C   0  0  0  0  0  0  0  0  0  0  0  0
  149.1013  128.0503  153.8425 H   0  0  0  0  0  0  0  0  0  0  0  0
  149.5548  129.3020  152.6922 H   0  0  0  0  0  0  0  0  0  0  0  0
  148.0274  129.4225  153.5989 H   0  0  0  0  0  0  0  0  0  0  0  0
  148.5124  131.5297  152.9390 H   0  0  0  0  0  0  0  0  0  0  0  0
  148.7500  133.9654  152.9765 H   0  0  0  0  0  0  0  0  0  0  0  0
  150.3770  135.8395  153.6506 H   0  0  0  0  0  0  0  0  0  0  0  0
  149.3009  135.9690  155.0366 H   0  0  0  0  0  0  0  0  0  0  0  0
  149.8925  137.2286  156.2884 H   0  0  0  0  0  0  0  0  0  0  0  0
  151.1312  136.6627  157.4053 H   0  0  0  0  0  0  0  0  0  0  0  0
  151.2854  138.8386  155.3311 H   0  0  0  0  0  0  0  0  0  0  0  0
  153.5091  137.2968  156.1011 H   0  0  0  0  0  0  0  0  0  0  0  0
  151.5983  138.6569  158.1837 H   0  0  0  0  0  0  0  0  0  0  0  0
  153.1848  139.0319  157.5518 H   0  0  0  0  0  0  0  0  0  0  0  0
  150.8591  140.4356  155.2215 H   0  0  0  0  0  0  0  0  0  0  0  0
  150.8906  144.7375  157.6707 H   0  0  0  0  0  0  0  0  0  0  0  0
  152.8388  140.6866  159.8413 H   0  0  0  0  0  0  0  0  0  0  0  0
  151.3945  133.6799  156.3740 H   0  0  0  0  0  0  0  0  0  0  0  0
  151.1624  131.2211  156.3444 H   0  0  0  0  0  0  0  0  0  0  0  0
  1  2  1  0  0  0  0
  1 26  1  0  0  0  0
  1 27  1  0  0  0  0
  1 28  1  0  0  0  0
  2  3  1  0  0  0  0
  3 25  1  0  0  0  0
  3  4  2  0  0  0  0
  4  5  1  0  0  0  0
  4 29  1  0  0  0  0
  5  6  2  0  0  0  0
  5 30  1  0  0  0  0
  6  7  1  0  0  0  0
  6 24  1  0  0  0  0
  7  8  1  0  0  0  0
  7 31  1  0  0  0  0
  7 32  1  0  0  0  0
  8  9  1  0  0  0  0
  9 10  1  0  0  0  0
  9 33  1  0  0  0  0
  9 34  1  0  0  0  0
 10 11  1  0  0  0  0
 10 12  1  0  0  0  0
 10 35  1  0  0  0  0
 11 36  1  0  0  0  0
 12 13  1  0  0  0  0
 12 37  1  0  0  0  0
 12 38  1  0  0  0  0
 13 23  1  0  0  0  0
 13 14  1  0  0  0  0
 14 15  2  0  0  0  0
 14 39  1  0  0  0  0
 15 16  1  0  0  0  0
 16 23  2  0  0  0  0
 16 17  1  0  0  0  0
 17 18  2  0  0  0  0
 17 40  1  0  0  0  0
 18 19  1  0  0  0  0
 18 20  1  0  0  0  0
 20 21  1  0  0  0  0
 20 22  2  0  0  0  0
 22 23  1  0  0  0  0
 22 41  1  0  0  0  0
 24 25  2  0  0  0  0
 24 42  1  0  0  0  0
 25 43  1  0  0  0  0
M  END
> <s_m_source_file>
AV-unprocessed.smi

> <i_m_source_file_index>
1885

> <i_lp_mmshare_version>
43012

> <i_f3d_flags>
0

> <s_epik_input>
W0NIM11PYzFbY0hdW2NIXWMoW2NIXVtjSF0xKVtDSDJdT1tDSDJdW0NASF0oW09IXSlbQ0gyXW4oW2NIXW4yKWMoYzIzKVtjSF1jKEYpYyhGKVtjSF0z

> <s_epik_cmdline>
J2VwaWtfcHl0aG9uJywgJy1waCcsICc3LjAnLCAnLXRuJywgJzgnLCAnLW1hJywgJzIwMCcsICctbWV0YWxfYmluZGluZycsICctaW1hZScsICc8aW5maWxlLm1hZT4nLCAnLW9tYWUnLCAnPG91dGZpbGUubWFlPic=

> <r_lp_tautomer_probability>
1

> <r_epik_Ionization_Penalty>
0.0160256

> <r_epik_Ionization_Penalty_Charging>
0

> <r_epik_Ionization_Penalty_Neutral>
0.0160256

> <r_epik_State_Penalty>
0.0126263

> <r_epik_Charging_Adjusted_Penalty>
0.0126263

> <i_epik_Tot_Q>
0

> <i_epik_Tot_abs_Q>
0

> <r_epik_Metal_State_Penalty>
1.27616e-05

> <b_epik_Metal_Only>
0

> <s_lp_Force_Field>
OPLS_2005

> <r_lp_Energy>
16.1682

> <b_lp_Chiralities_Consistent>
1

> <s_lp_Variant>
AV-unprocessed.smi:1885-1

> <Gold.Version>
5.8.1

> <Gold.Id.Protein>
6NUR|6NUR_protein|mol2

> <Gold.PLP.Fitness>
52.8147

> <Gold.PLP.PLP>
-53.9373

> <Gold.PLP.part.hbond>
-2.0000

> <Gold.PLP.part.metal>
0.0000

> <Gold.PLP.part.buried>
-6.5545

> <Gold.PLP.part.nonpolar>
-44.8325

> <Gold.PLP.part.repulsive>
0.2872

> <Gold.PLP.ligand.clash>
0.0000

> <Gold.PLP.ligand.torsion>
2.1134

> <Gold.PLP.Chemscore.Hbond>
1.0000

> <Gold.PLP.Chemscore.CHOScore>
0.0000

> <Gold.PLP.Chemscore.Metal>
0.0000

> <Gold.Chemscore.Hbonds>
donor molecule, donor type, donor heavy atom, donor atom, acceptor molecule, acceptor atom, score
      P1  H 10752 10765       L1     8  1.00

> <Gold.PLP.Chemscore.Internal.Correction>
0.1043

> <Gold.Rescore>
     Score         DG    S(hbond)    S(metal)    S(lipo)     H(rot)  DE(clash)    DE(int)     intcor
     13.34     -15.34       0.93        0.00     121.78       2.93       0.02       1.98       ----

> <Gold.Chemscore.Fitness>
13.3418

> <Gold.Chemscore.DG>
-15.3400

> <Gold.Chemscore.ZeroCoef>
-5.4800

> <Gold.Chemscore.Hbond>
0.9345

> <Gold.Chemscore.Metal>
0.0000

> <Gold.Chemscore.Lipo>
121.7829

> <Gold.Chemscore.Internal_Hbond>
0.0000

> <Gold.Chemscore.DEClash>
0.0224

> <Gold.Chemscore.DEInternal>
1.9758

> <Gold.Chemscore.Rot>
2.9335

> <Gold.Chemscore.Internal.Correction>
   9.000000E+99

> <Gold.Chemscore.Hbonds>
donor molecule, donor type, donor heavy atom, donor atom, acceptor molecule, acceptor atom, score
      P1  H 10752 10765       L1     8  0.94

> <Gold.Chemscore.Hbond.Weighted>
-3.1211

> <Gold.Chemscore.Metal.Weighted>
-0.0000

> <Gold.Chemscore.Lipo.Weighted>
-14.2486

> <Gold.Chemscore.Internal_Hbond.Weighted>
0.0000

> <Gold.Chemscore.DEClash.Weighted>
0.0224

> <Gold.Chemscore.DEInternal.Weighted>
1.9758

> <Gold.Chemscore.Rot.Weighted>
7.5097

> <Gold.Chemscore.Internal.Correction.Weighted>
   9.000000E+99

> <Gold.Protein.RotatedTorsions>
[ 6907 6896 6895 6894 ] final   32.69 input  -60.11 | X-H torsion
[ 7974 7965 7964 7962 ] final  116.29 input  175.53 | X-H torsion
[ 8008 7997 7996 7995 ] final   29.12 input   59.86 | X-H torsion
[ 10167 10162 10161 10158 ] final -101.21 input  -65.29 | X-H torsion
[ 10718 10713 10712 10709 ] final  116.85 input   66.30 | X-H torsion
[ 10763 10752 10751 10750 ] final -151.68 input  -60.55 | X-H torsion
[ 11005 11000 10999 10996 ] final   38.27 input  -57.11 | X-H torsion

> <Gold.Protein.ActiveResidues>
 VAL166  LYS551  ARG553  GLY616  TRP617  ASP618  TYR619  PRO620  LYS621  CYS622 
 ASP623  PHE694  ASN695  SER759  ASP760  ASP761  ALA762  ILE779  LEU786  VAL792 
 PHE793  MET794  SER795  GLU796  ALA797  LYS798  CYS799  TRP800  GLU811  SER814 

> <Gold.Protein.RotatedAtoms>
  152.0780  134.9490  160.0573 H   0  0  0  0  0  0  0  0  0  0  0  0  # atno 6907 bound_to 6896
  152.0790  133.4138  159.4501 H   0  0  0  0  0  0  0  0  0  0  0  0  # atno 6908 bound_to 6896
  150.6836  134.2924  159.4715 H   0  0  0  0  0  0  0  0  0  0  0  0  # atno 6909 bound_to 6896
  145.1815  139.3047  143.4415 H   0  0  0  0  0  0  0  0  0  0  0  0  # atno 7974 bound_to 7965
  155.0694  140.3198  155.4635 H   0  0  0  0  0  0  0  0  0  0  0  0  # atno 8008 bound_to 7997
  156.2794  140.2114  156.5767 H   0  0  0  0  0  0  0  0  0  0  0  0  # atno 8009 bound_to 7997
  154.7067  140.0502  157.0498 H   0  0  0  0  0  0  0  0  0  0  0  0  # atno 8010 bound_to 7997
  140.2438  143.3520  152.0778 H   0  0  0  0  0  0  0  0  0  0  0  0  # atno 10167 bound_to 10162
  157.6134  131.1030  150.7531 H   0  0  0  0  0  0  0  0  0  0  0  0  # atno 10718 bound_to 10713
  154.8042  135.3254  154.7473 H   0  0  0  0  0  0  0  0  0  0  0  0  # atno 10763 bound_to 10752
  153.8135  135.6893  153.4842 H   0  0  0  0  0  0  0  0  0  0  0  0  # atno 10764 bound_to 10752
  153.1777  135.4598  154.9931 H   0  0  0  0  0  0  0  0  0  0  0  0  # atno 10765 bound_to 10752
  140.2143  134.3718  155.8034 H   0  0  0  0  0  0  0  0  0  0  0  0  # atno 11005 bound_to 11000
  146.3452  140.1996  142.8589 LP  0  0  0  0  0  0  0  0  0  0  0  0  # atno 17320 bound_to 7965
  145.0131  140.8731  143.5212 LP  0  0  0  0  0  0  0  0  0  0  0  0  # atno 17321 bound_to 7965
  139.5068  144.6821  151.5981 LP  0  0  0  0  0  0  0  0  0  0  0  0  # atno 17342 bound_to 10162
  140.6093  143.9465  150.6442 LP  0  0  0  0  0  0  0  0  0  0  0  0  # atno 17343 bound_to 10162
  156.7903  130.4888  149.5386 LP  0  0  0  0  0  0  0  0  0  0  0  0  # atno 17370 bound_to 10713
  156.1246  130.6135  151.0245 LP  0  0  0  0  0  0  0  0  0  0  0  0  # atno 17371 bound_to 10713
  141.2225  133.7159  156.8470 LP  0  0  0  0  0  0  0  0  0  0  0  0  # atno 17394 bound_to 11000
  140.1917  134.8960  157.3068 LP  0  0  0  0  0  0  0  0  0  0  0  0  # atno 17395 bound_to 11000

$$$$
