AV-unprocessed.smi:1274|AV-procd|sdf|5341|dock5
  -GOLD-   22720 4473D 1   1.00000     0.00000
 Structure written by MMmdl.
 36 37  0  0  0  0  0  0  0  0  2 V2000
  150.6399  140.1479  154.4132 O   0  0  0  0  0  0  0  0  0  0  0  0
  150.1140  140.4547  155.7535 S   0  0  0  0  0  0  0  0  0  0  0  0
  149.8628  139.3279  156.6673 O   0  0  0  0  0  0  0  0  0  0  0  0
  150.8699  141.7089  156.4455 N   0  5  0  0  0  0  0  0  0  0  0  0
  151.3181  141.6001  157.8228 C   0  0  0  0  0  0  0  0  0  0  0  0
  151.9002  142.9493  158.2982 C   0  0  0  0  0  0  0  0  0  0  0  0
  152.2691  142.9957  159.7781 C   0  0  0  0  0  0  0  0  0  0  0  0
  153.1189  142.0208  160.3458 C   0  0  0  0  0  0  0  0  0  0  0  0
  153.4283  142.1011  161.7170 C   0  0  0  0  0  0  0  0  0  0  0  0
  152.8692  143.1532  162.4687 C   0  0  0  0  0  0  0  0  0  0  0  0
  152.0489  144.0879  161.9425 N   0  0  0  0  0  0  0  0  0  0  0  0
  151.7602  144.0052  160.6256 C   0  0  0  0  0  0  0  0  0  0  0  0
  148.5731  141.2282  155.5223 N   0  0  0  0  0  0  0  0  0  0  0  0
  148.1233  141.4272  154.1287 C   0  0  0  0  0  0  0  0  0  0  0  0
  146.9629  142.4338  154.0451 C   0  0  0  0  0  0  0  0  0  0  0  0
  145.8027  142.0242  154.9555 C   0  0  0  0  0  0  0  0  0  0  0  0
  146.3194  141.8677  156.3877 C   0  0  0  0  0  0  0  0  0  0  0  0
  147.4787  140.8609  156.4516 C   0  0  0  0  0  0  0  0  0  0  0  0
  150.5089  141.3102  158.4940 H   0  0  0  0  0  0  0  0  0  0  0  0
  152.0821  140.8295  157.9284 H   0  0  0  0  0  0  0  0  0  0  0  0
  152.7953  143.1749  157.7176 H   0  0  0  0  0  0  0  0  0  0  0  0
  151.1967  143.7546  158.0814 H   0  0  0  0  0  0  0  0  0  0  0  0
  153.5320  141.2290  159.7379 H   0  0  0  0  0  0  0  0  0  0  0  0
  154.0793  141.3746  162.1799 H   0  0  0  0  0  0  0  0  0  0  0  0
  153.0849  143.2450  163.5229 H   0  0  0  0  0  0  0  0  0  0  0  0
  151.1028  144.7685  160.2359 H   0  0  0  0  0  0  0  0  0  0  0  0
  148.9504  141.7918  153.5204 H   0  0  0  0  0  0  0  0  0  0  0  0
  147.8243  140.4643  153.7132 H   0  0  0  0  0  0  0  0  0  0  0  0
  147.3195  143.4245  154.3301 H   0  0  0  0  0  0  0  0  0  0  0  0
  146.6164  142.5150  153.0146 H   0  0  0  0  0  0  0  0  0  0  0  0
  145.0102  142.7721  154.9183 H   0  0  0  0  0  0  0  0  0  0  0  0
  145.3697  141.0849  154.6095 H   0  0  0  0  0  0  0  0  0  0  0  0
  146.6546  142.8339  156.7670 H   0  0  0  0  0  0  0  0  0  0  0  0
  145.5103  141.5425  157.0420 H   0  0  0  0  0  0  0  0  0  0  0  0
  147.1241  139.8610  156.1989 H   0  0  0  0  0  0  0  0  0  0  0  0
  147.8485  140.8081  157.4750 H   0  0  0  0  0  0  0  0  0  0  0  0
  1  2  2  0  0  0  0
  2  3  2  0  0  0  0
  2  4  1  0  0  0  0
  2 13  1  0  0  0  0
  4  5  1  0  0  0  0
  5  6  1  0  0  0  0
  5 19  1  0  0  0  0
  5 20  1  0  0  0  0
  6  7  1  0  0  0  0
  6 21  1  0  0  0  0
  6 22  1  0  0  0  0
  7 12  1  0  0  0  0
  7  8  2  0  0  0  0
  8  9  1  0  0  0  0
  8 23  1  0  0  0  0
  9 10  2  0  0  0  0
  9 24  1  0  0  0  0
 10 11  1  0  0  0  0
 10 25  1  0  0  0  0
 11 12  2  0  0  0  0
 12 26  1  0  0  0  0
 13 18  1  0  0  0  0
 13 14  1  0  0  0  0
 14 15  1  0  0  0  0
 14 27  1  0  0  0  0
 14 28  1  0  0  0  0
 15 16  1  0  0  0  0
 15 29  1  0  0  0  0
 15 30  1  0  0  0  0
 16 17  1  0  0  0  0
 16 31  1  0  0  0  0
 16 32  1  0  0  0  0
 17 18  1  0  0  0  0
 17 33  1  0  0  0  0
 17 34  1  0  0  0  0
 18 35  1  0  0  0  0
 18 36  1  0  0  0  0
M  CHG  1   4  -1
M  END
> <s_m_source_file>
AV-unprocessed.smi

> <i_m_source_file_index>
1274

> <i_lp_mmshare_version>
43012

> <i_f3d_flags>
0

> <s_epik_input>
W0NIMl0xW0NIMl1bQ0gyXVtDSDJdW0NIMl1OMVMoPU8pKD1PKVtOSF1bQ0gyXVtDSDJdYzJbY0hdW2NIXVtjSF1uW2NIXTI=

> <s_epik_cmdline>
J2VwaWtfcHl0aG9uJywgJy1waCcsICc3LjAnLCAnLXRuJywgJzgnLCAnLW1hJywgJzIwMCcsICctbWV0YWxfYmluZGluZycsICctaW1hZScsICc8aW5maWxlLm1hZT4nLCAnLW9tYWUnLCAnPG91dGZpbGUubWFlPic=

> <r_epik_Ionization_Penalty>
1.98317

> <r_epik_Ionization_Penalty_Charging>
1.95606

> <r_epik_Ionization_Penalty_Neutral>
0.027117

> <r_epik_State_Penalty>
2.28376

> <r_epik_Charging_Adjusted_Penalty>
4.23982

> <i_epik_Tot_Q>
-1

> <i_epik_Tot_abs_Q>
1

> <r_epik_Metal_State_Penalty>
0.598332

> <b_epik_Metal_Only>
0

> <s_lp_Force_Field>
OPLS_2005

> <r_lp_Energy>
4.69546

> <b_lp_Chiralities_Consistent>
1

> <s_lp_Variant>
AV-unprocessed.smi:1274-2

> <Gold.Version>
5.8.1

> <Gold.Id.Protein>
6NUR|6NUR_protein|mol2

> <Gold.PLP.Fitness>
42.1154

> <Gold.PLP.PLP>
-39.3934

> <Gold.PLP.part.hbond>
-0.9548

> <Gold.PLP.part.metal>
0.0000

> <Gold.PLP.part.buried>
-6.6182

> <Gold.PLP.part.nonpolar>
-31.8222

> <Gold.PLP.part.repulsive>
0.4597

> <Gold.PLP.ligand.clash>
0.0000

> <Gold.PLP.ligand.torsion>
0.9265

> <Gold.PLP.Chemscore.Hbond>
1.0000

> <Gold.PLP.Chemscore.CHOScore>
0.0000

> <Gold.PLP.Chemscore.Metal>
0.0000

> <Gold.Chemscore.Hbonds>
donor molecule, donor type, donor heavy atom, donor atom, acceptor molecule, acceptor atom, score
      P1  H  7989  7998       L1     1  0.99

> <Gold.PLP.Chemscore.Internal.Correction>
1.5749

> <Gold.Rescore>
     Score         DG    S(hbond)    S(metal)    S(lipo)     H(rot)  DE(clash)    DE(int)     intcor
     15.63     -16.50       0.99        0.00      97.66       1.45       0.03       0.84       ----

> <Gold.Chemscore.Fitness>
15.6252

> <Gold.Chemscore.DG>
-16.5007

> <Gold.Chemscore.ZeroCoef>
-5.4800

> <Gold.Chemscore.Hbond>
0.9934

> <Gold.Chemscore.Metal>
0.0000

> <Gold.Chemscore.Lipo>
97.6558

> <Gold.Chemscore.Internal_Hbond>
0.0000

> <Gold.Chemscore.DEClash>
0.0321

> <Gold.Chemscore.DEInternal>
0.8434

> <Gold.Chemscore.Rot>
1.4544

> <Gold.Chemscore.Internal.Correction>
   9.000000E+99

> <Gold.Chemscore.Hbonds>
donor molecule, donor type, donor heavy atom, donor atom, acceptor molecule, acceptor atom, score
      P1  H  7989  7998       L1     1  0.92

> <Gold.Chemscore.Hbond.Weighted>
-3.3181

> <Gold.Chemscore.Metal.Weighted>
-0.0000

> <Gold.Chemscore.Lipo.Weighted>
-11.4257

> <Gold.Chemscore.Internal_Hbond.Weighted>
0.0000

> <Gold.Chemscore.DEClash.Weighted>
0.0321

> <Gold.Chemscore.DEInternal.Weighted>
0.8434

> <Gold.Chemscore.Rot.Weighted>
3.7232

> <Gold.Chemscore.Internal.Correction.Weighted>
   9.000000E+99

> <Gold.Protein.RotatedTorsions>
[ 6907 6896 6895 6894 ] final -161.19 input  -60.11 | X-H torsion
[ 7974 7965 7964 7962 ] final -176.78 input  175.53 | X-H torsion
[ 8008 7997 7996 7995 ] final -158.25 input   59.86 | X-H torsion
[ 10167 10162 10161 10158 ] final   24.71 input  -65.29 | X-H torsion
[ 10718 10713 10712 10709 ] final -147.59 input   66.30 | X-H torsion
[ 10763 10752 10751 10750 ] final  172.28 input  -60.55 | X-H torsion
[ 11005 11000 10999 10996 ] final   93.94 input  -57.11 | X-H torsion

> <Gold.Protein.ActiveResidues>
 VAL166  LYS551  ARG553  GLY616  TRP617  ASP618  TYR619  PRO620  LYS621  CYS622 
 ASP623  PHE694  ASN695  SER759  ASP760  ASP761  ALA762  ILE779  LEU786  VAL792 
 PHE793  MET794  SER795  GLU796  ALA797  LYS798  CYS799  TRP800  GLU811  SER814 

> <Gold.Protein.RotatedAtoms>
  151.3607  133.3890  159.2689 H   0  0  0  0  0  0  0  0  0  0  0  0  # atno 6907 bound_to 6896
  150.9728  134.9098  159.7808 H   0  0  0  0  0  0  0  0  0  0  0  0  # atno 6908 bound_to 6896
  152.5190  134.3569  159.9323 H   0  0  0  0  0  0  0  0  0  0  0  0  # atno 6909 bound_to 6896
  144.7127  140.1118  143.6410 H   0  0  0  0  0  0  0  0  0  0  0  0  # atno 7974 bound_to 7965
  155.7447  140.0819  157.2229 H   0  0  0  0  0  0  0  0  0  0  0  0  # atno 8008 bound_to 7997
  154.4018  140.1571  156.2711 H   0  0  0  0  0  0  0  0  0  0  0  0  # atno 8009 bound_to 7997
  155.8987  140.3411  155.6013 H   0  0  0  0  0  0  0  0  0  0  0  0  # atno 8010 bound_to 7997
  140.5166  144.0072  150.6397 H   0  0  0  0  0  0  0  0  0  0  0  0  # atno 10167 bound_to 10162
  156.4095  130.7974  151.2191 H   0  0  0  0  0  0  0  0  0  0  0  0  # atno 10718 bound_to 10713
  154.4239  135.2758  155.1957 H   0  0  0  0  0  0  0  0  0  0  0  0  # atno 10763 bound_to 10752
  154.3891  135.6070  153.5837 H   0  0  0  0  0  0  0  0  0  0  0  0  # atno 10764 bound_to 10752
  152.9834  135.5899  154.4539 H   0  0  0  0  0  0  0  0  0  0  0  0  # atno 10765 bound_to 10752
  139.8804  134.8818  156.3791 H   0  0  0  0  0  0  0  0  0  0  0  0  # atno 11005 bound_to 11000
  145.9448  139.2693  143.1247 LP  0  0  0  0  0  0  0  0  0  0  0  0  # atno 17320 bound_to 7965
  145.9385  140.8997  143.0319 LP  0  0  0  0  0  0  0  0  0  0  0  0  # atno 17321 bound_to 7965
  140.3409  143.3020  152.0589 LP  0  0  0  0  0  0  0  0  0  0  0  0  # atno 17342 bound_to 10162
  139.4911  144.6443  151.6812 LP  0  0  0  0  0  0  0  0  0  0  0  0  # atno 17343 bound_to 10162
  157.7506  131.0262  150.3951 LP  0  0  0  0  0  0  0  0  0  0  0  0  # atno 17370 bound_to 10713
  156.4247  130.3960  149.6801 LP  0  0  0  0  0  0  0  0  0  0  0  0  # atno 17371 bound_to 10713
  140.9411  133.7514  156.0148 LP  0  0  0  0  0  0  0  0  0  0  0  0  # atno 17394 bound_to 11000
  140.8218  134.3280  157.5379 LP  0  0  0  0  0  0  0  0  0  0  0  0  # atno 17395 bound_to 11000

$$$$
