AV-unprocessed.smi:762|AV-procd|sdf|3633|dock7
  -GOLD-   22720 1 23D 1   1.00000     0.00000
 Structure written by MMmdl.
 42 44  0  0  0  0  0  0  0  0  1 V2000
  154.4160  139.4320  158.7576 O   0  0  0  0  0  0  0  0  0  0  0  0
  153.5944  139.8746  159.5604 C   0  0  0  0  0  0  0  0  0  0  0  0
  153.9704  141.0409  160.4743 C   0  0  0  0  0  0  0  0  0  0  0  0
  153.1960  142.3236  160.2264 C   0  0  0  0  0  0  0  0  0  0  0  0
  152.9933  142.8078  158.9855 C   0  0  0  0  0  0  0  0  0  0  0  0
  152.2761  144.1119  158.6869 C   0  0  0  0  0  0  0  0  0  0  0  0
  152.1466  145.0029  159.9334 C   0  0  0  0  0  0  0  0  0  0  0  0
  151.7103  144.1848  161.1550 C   0  0  0  0  0  0  0  0  0  0  0  0
  152.7137  143.0603  161.4710 C   0  0  0  0  0  0  0  0  0  0  0  0
  152.3546  139.3799  159.6969 N   0  0  0  0  0  0  0  0  0  0  0  0
  151.8144  138.2592  158.9377 C   0  0  0  0  0  0  0  0  0  0  0  0
  150.9135  138.7359  157.7859 C   0  0  0  0  0  0  0  0  0  0  0  0
  151.6390  138.7947  156.5303 N   0  0  0  0  0  0  0  0  0  0  0  0
  152.4011  137.8455  155.9660 C   0  0  0  0  0  0  0  0  0  0  0  0
  152.9652  138.1886  154.8089 N   0  0  0  0  0  0  0  0  0  0  0  0
  152.5438  139.4846  154.5881 N   0  0  0  0  0  0  0  0  0  0  0  0
  151.7550  139.7887  155.6258 C   0  0  0  0  0  0  0  0  0  0  0  0
  151.1043  141.1229  155.8067 C   0  0  0  0  0  0  0  0  0  0  0  0
  149.6554  141.2353  156.2270 C   0  0  0  0  0  0  0  0  0  0  0  0
  150.0635  141.6245  154.8302 C   0  0  0  0  0  0  0  0  0  0  0  0
  153.7886  140.7171  161.5001 H   0  0  0  0  0  0  0  0  0  0  0  0
  155.0403  141.2463  160.4159 H   0  0  0  0  0  0  0  0  0  0  0  0
  153.3512  142.2551  158.1291 H   0  0  0  0  0  0  0  0  0  0  0  0
  152.8145  144.6467  157.9041 H   0  0  0  0  0  0  0  0  0  0  0  0
  151.2899  143.8723  158.2883 H   0  0  0  0  0  0  0  0  0  0  0  0
  153.1068  145.4761  160.1444 H   0  0  0  0  0  0  0  0  0  0  0  0
  151.4393  145.8106  159.7431 H   0  0  0  0  0  0  0  0  0  0  0  0
  151.5938  144.8333  162.0239 H   0  0  0  0  0  0  0  0  0  0  0  0
  150.7284  143.7512  160.9608 H   0  0  0  0  0  0  0  0  0  0  0  0
  152.2567  142.3521  162.1627 H   0  0  0  0  0  0  0  0  0  0  0  0
  153.5874  143.4742  161.9754 H   0  0  0  0  0  0  0  0  0  0  0  0
  151.7467  139.8029  160.3837 H   0  0  0  0  0  0  0  0  0  0  0  0
  152.6300  137.6412  158.5578 H   0  0  0  0  0  0  0  0  0  0  0  0
  151.2454  137.6316  159.6233 H   0  0  0  0  0  0  0  0  0  0  0  0
  150.0521  138.0769  157.6742 H   0  0  0  0  0  0  0  0  0  0  0  0
  150.5197  139.7315  157.9938 H   0  0  0  0  0  0  0  0  0  0  0  0
  152.5506  136.8753  156.4170 H   0  0  0  0  0  0  0  0  0  0  0  0
  151.8115  141.8439  156.2121 H   0  0  0  0  0  0  0  0  0  0  0  0
  149.0842  140.3164  156.3398 H   0  0  0  0  0  0  0  0  0  0  0  0
  149.3953  142.0347  156.9178 H   0  0  0  0  0  0  0  0  0  0  0  0
  150.0746  142.6847  154.5858 H   0  0  0  0  0  0  0  0  0  0  0  0
  149.7661  140.9623  154.0194 H   0  0  0  0  0  0  0  0  0  0  0  0
  1  2  2  0  0  0  0
  2  3  1  0  0  0  0
  2 10  1  0  0  0  0
  3  4  1  0  0  0  0
  3 21  1  0  0  0  0
  3 22  1  0  0  0  0
  4  9  1  0  0  0  0
  4  5  2  0  0  0  0
  5  6  1  0  0  0  0
  5 23  1  0  0  0  0
  6  7  1  0  0  0  0
  6 24  1  0  0  0  0
  6 25  1  0  0  0  0
  7  8  1  0  0  0  0
  7 26  1  0  0  0  0
  7 27  1  0  0  0  0
  8  9  1  0  0  0  0
  8 28  1  0  0  0  0
  8 29  1  0  0  0  0
  9 30  1  0  0  0  0
  9 31  1  0  0  0  0
 10 11  1  0  0  0  0
 10 32  1  0  0  0  0
 11 12  1  0  0  0  0
 11 33  1  0  0  0  0
 11 34  1  0  0  0  0
 12 13  1  0  0  0  0
 12 35  1  0  0  0  0
 12 36  1  0  0  0  0
 13 17  1  0  0  0  0
 13 14  1  0  0  0  0
 14 15  2  0  0  0  0
 14 37  1  0  0  0  0
 15 16  1  0  0  0  0
 16 17  2  0  0  0  0
 17 18  1  0  0  0  0
 18 20  1  0  0  0  0
 18 19  1  0  0  0  0
 18 38  1  0  0  0  0
 19 20  1  0  0  0  0
 19 39  1  0  0  0  0
 19 40  1  0  0  0  0
 20 41  1  0  0  0  0
 20 42  1  0  0  0  0
M  END
> <s_m_source_file>
AV-unprocessed.smi

> <i_m_source_file_index>
762

> <i_lp_mmshare_version>
43012

> <i_f3d_flags>
0

> <s_epik_input>
W0NIMl0xW0NIMl1bQ0gyXVtDSDJdW0NIXT1DMVtDSDJdQyg9TylbTkhdW0NIMl1bQ0gyXW4yW2NIXW5uYzJbQ0hdM1tDSDJdW0NIMl0z

> <s_epik_cmdline>
J2VwaWtfcHl0aG9uJywgJy1waCcsICc3LjAnLCAnLXRuJywgJzgnLCAnLW1hJywgJzIwMCcsICctbWV0YWxfYmluZGluZycsICctaW1hZScsICc8aW5maWxlLm1hZT4nLCAnLW9tYWUnLCAnPG91dGZpbGUubWFlPic=

> <r_lp_tautomer_probability>
1

> <r_epik_Ionization_Penalty>
0.000270947

> <r_epik_Ionization_Penalty_Charging>
0

> <r_epik_Ionization_Penalty_Neutral>
0.000270947

> <r_epik_State_Penalty>
-0

> <r_epik_Charging_Adjusted_Penalty>
0

> <i_epik_Tot_Q>
0

> <i_epik_Tot_abs_Q>
0

> <r_epik_Metal_State_Penalty>
-0

> <b_epik_Metal_Only>
0

> <s_lp_Force_Field>
OPLS_2005

> <r_lp_Energy>
11.3747

> <b_lp_Chiralities_Consistent>
1

> <s_lp_Variant>
AV-unprocessed.smi:762-1

> <Gold.Version>
5.8.1

> <Gold.Id.Protein>
6NUR|6NUR_protein|mol2

> <Gold.PLP.Fitness>
48.9272

> <Gold.PLP.PLP>
-45.2005

> <Gold.PLP.part.hbond>
-2.6983

> <Gold.PLP.part.metal>
0.0000

> <Gold.PLP.part.buried>
-4.7719

> <Gold.PLP.part.nonpolar>
-38.9123

> <Gold.PLP.part.repulsive>
0.2066

> <Gold.PLP.ligand.clash>
0.0000

> <Gold.PLP.ligand.torsion>
0.8828

> <Gold.PLP.Chemscore.Hbond>
1.7680

> <Gold.PLP.Chemscore.CHOScore>
0.0000

> <Gold.PLP.Chemscore.Metal>
0.0000

> <Gold.Chemscore.Hbonds>
donor molecule, donor type, donor heavy atom, donor atom, acceptor molecule, acceptor atom, score
      P1  H  7989  7998       L1    16  0.33
      P1  H  7997  8010       L1     1  1.00

> <Gold.PLP.Chemscore.Internal.Correction>
0.1882

> <Gold.Rescore>
     Score         DG    S(hbond)    S(metal)    S(lipo)     H(rot)  DE(clash)    DE(int)     intcor
     18.23     -18.98       1.99        0.00     104.59       2.10       0.10       0.65       ----

> <Gold.Chemscore.Fitness>
18.2266

> <Gold.Chemscore.DG>
-18.9815

> <Gold.Chemscore.ZeroCoef>
-5.4800

> <Gold.Chemscore.Hbond>
1.9906

> <Gold.Chemscore.Metal>
0.0000

> <Gold.Chemscore.Lipo>
104.5873

> <Gold.Chemscore.Internal_Hbond>
0.0000

> <Gold.Chemscore.DEClash>
0.1009

> <Gold.Chemscore.DEInternal>
0.6540

> <Gold.Chemscore.Rot>
2.1031

> <Gold.Chemscore.Internal.Correction>
   9.000000E+99

> <Gold.Chemscore.Hbonds>
donor molecule, donor type, donor heavy atom, donor atom, acceptor molecule, acceptor atom, score
      P1  H  7989  7998       L1    16  0.02
      P1  H  7997  8010       L1     1  0.98

> <Gold.Chemscore.Hbond.Weighted>
-6.6486

> <Gold.Chemscore.Metal.Weighted>
-0.0000

> <Gold.Chemscore.Lipo.Weighted>
-12.2367

> <Gold.Chemscore.Internal_Hbond.Weighted>
0.0000

> <Gold.Chemscore.DEClash.Weighted>
0.1009

> <Gold.Chemscore.DEInternal.Weighted>
0.6540

> <Gold.Chemscore.Rot.Weighted>
5.3838

> <Gold.Chemscore.Internal.Correction.Weighted>
   9.000000E+99

> <Gold.Protein.RotatedTorsions>
[ 6907 6896 6895 6894 ] final -166.80 input  -60.11 | X-H torsion
[ 7974 7965 7964 7962 ] final  121.10 input  175.53 | X-H torsion
[ 8008 7997 7996 7995 ] final   22.80 input   59.86 | X-H torsion
[ 10167 10162 10161 10158 ] final  -82.40 input  -65.29 | X-H torsion
[ 10718 10713 10712 10709 ] final  139.45 input   66.30 | X-H torsion
[ 10763 10752 10751 10750 ] final  -61.24 input  -60.55 | X-H torsion
[ 11005 11000 10999 10996 ] final   48.45 input  -57.11 | X-H torsion

> <Gold.Protein.ActiveResidues>
 VAL166  LYS551  ARG553  GLY616  TRP617  ASP618  TYR619  PRO620  LYS621  CYS622 
 ASP623  PHE694  ASN695  SER759  ASP760  ASP761  ALA762  ILE779  LEU786  VAL792 
 PHE793  MET794  SER795  GLU796  ALA797  LYS798  CYS799  TRP800  GLU811  SER814 

> <Gold.Protein.RotatedAtoms>
  151.4494  133.3621  159.2792 H   0  0  0  0  0  0  0  0  0  0  0  0  # atno 6907 bound_to 6896
  150.9102  134.8520  159.7430 H   0  0  0  0  0  0  0  0  0  0  0  0  # atno 6908 bound_to 6896
  152.4928  134.4423  159.9599 H   0  0  0  0  0  0  0  0  0  0  0  0  # atno 6909 bound_to 6896
  145.1233  139.3375  143.4703 H   0  0  0  0  0  0  0  0  0  0  0  0  # atno 7974 bound_to 7965
  154.9712  140.3090  155.4987 H   0  0  0  0  0  0  0  0  0  0  0  0  # atno 8008 bound_to 7997
  156.2965  140.2283  156.4744 H   0  0  0  0  0  0  0  0  0  0  0  0  # atno 8009 bound_to 7997
  154.7875  140.0442  157.1163 H   0  0  0  0  0  0  0  0  0  0  0  0  # atno 8010 bound_to 7997
  140.4323  143.2544  151.8742 H   0  0  0  0  0  0  0  0  0  0  0  0  # atno 10167 bound_to 10162
  157.4142  131.1031  151.0422 H   0  0  0  0  0  0  0  0  0  0  0  0  # atno 10718 bound_to 10713
  154.2816  135.6271  153.5349 H   0  0  0  0  0  0  0  0  0  0  0  0  # atno 10763 bound_to 10752
  152.9865  135.5634  154.5489 H   0  0  0  0  0  0  0  0  0  0  0  0  # atno 10764 bound_to 10752
  154.5081  135.2875  155.1341 H   0  0  0  0  0  0  0  0  0  0  0  0  # atno 10765 bound_to 10752
  140.1190  134.4855  155.8613 H   0  0  0  0  0  0  0  0  0  0  0  0  # atno 11005 bound_to 11000
  146.3519  140.1201  142.8600 LP  0  0  0  0  0  0  0  0  0  0  0  0  # atno 17320 bound_to 7965
  145.0716  140.9159  143.4878 LP  0  0  0  0  0  0  0  0  0  0  0  0  # atno 17321 bound_to 7965
  139.4785  144.5321  151.8652 LP  0  0  0  0  0  0  0  0  0  0  0  0  # atno 17342 bound_to 10162
  140.4413  144.1982  150.5891 LP  0  0  0  0  0  0  0  0  0  0  0  0  # atno 17343 bound_to 10162
  157.1376  130.6129  149.5546 LP  0  0  0  0  0  0  0  0  0  0  0  0  # atno 17370 bound_to 10713
  155.9860  130.4892  150.7058 LP  0  0  0  0  0  0  0  0  0  0  0  0  # atno 17371 bound_to 10713
  141.2147  133.6754  156.6852 LP  0  0  0  0  0  0  0  0  0  0  0  0  # atno 17394 bound_to 11000
  140.2990  134.8179  157.4082 LP  0  0  0  0  0  0  0  0  0  0  0  0  # atno 17395 bound_to 11000

$$$$
