AV-unprocessed.smi:38|AV-procd|sdf|339|dock6
  -GOLD-   2262016173D 1   1.00000     0.00000
 Structure written by MMmdl.
 28 29  0  0  0  0  0  0  0  0  1 V2000
  153.3688  139.0043  157.4190 O   0  0  0  0  0  0  0  0  0  0  0  0
  152.1923  139.0780  157.0696 C   0  0  0  0  0  0  0  0  0  0  0  0
  151.8610  139.6277  155.8277 N   0  0  0  0  0  0  0  0  0  0  0  0
  150.5674  139.7679  155.3207 C   0  0  0  0  0  0  0  0  0  0  0  0
  150.3976  140.2533  154.2032 O   0  0  0  0  0  0  0  0  0  0  0  0
  149.5040  139.3241  156.1384 N   0  0  0  0  0  0  0  0  0  0  0  0
  148.0794  139.4543  155.6506 C   0  0  1  0  0  0  0  0  0  0  0  0
  147.7424  140.9138  155.3283 C   0  0  0  0  0  0  0  0  0  0  0  0
  146.9064  140.7791  154.0710 C   0  0  2  0  0  0  0  0  0  0  0  0
  145.5431  140.5838  154.3978 O   0  0  0  0  0  0  0  0  0  0  0  0
  147.5295  139.5460  153.4008 C   0  0  2  0  0  0  0  0  0  0  0  0
  146.6491  138.7760  152.4012 C   0  0  0  0  0  0  0  0  0  0  0  0
  147.4531  138.1256  151.4400 O   0  0  0  0  0  0  0  0  0  0  0  0
  147.9321  138.7051  154.4794 O   0  0  0  0  0  0  0  0  0  0  0  0
  149.7874  138.7590  157.3746 C   0  0  0  0  0  0  0  0  0  0  0  0
  151.0468  138.6252  157.8530 C   0  0  0  0  0  0  0  0  0  0  0  0
  151.2427  138.0652  159.0589 F   0  0  0  0  0  0  0  0  0  0  0  0
  152.6224  139.9470  155.2463 H   0  0  0  0  0  0  0  0  0  0  0  0
  147.4200  139.0160  156.4010 H   0  0  0  0  0  0  0  0  0  0  0  0
  146.9828  141.6637  153.4379 H   0  0  0  0  0  0  0  0  0  0  0  0
  148.4420  139.8614  152.8926 H   0  0  0  0  0  0  0  0  0  0  0  0
  147.2346  141.4004  156.1619 H   0  0  0  0  0  0  0  0  0  0  0  0
  148.6588  141.4631  155.1069 H   0  0  0  0  0  0  0  0  0  0  0  0
  145.0429  140.5676  153.5956 H   0  0  0  0  0  0  0  0  0  0  0  0
  146.0674  138.0192  152.9277 H   0  0  0  0  0  0  0  0  0  0  0  0
  145.9363  139.4336  151.9033 H   0  0  0  0  0  0  0  0  0  0  0  0
  147.8229  137.3499  151.8335 H   0  0  0  0  0  0  0  0  0  0  0  0
  148.9766  138.4011  157.9907 H   0  0  0  0  0  0  0  0  0  0  0  0
  1  2  2  0  0  0  0
  2 16  1  0  0  0  0
  2  3  1  0  0  0  0
  3 18  1  0  0  0  0
  3  4  1  0  0  0  0
  4  5  2  0  0  0  0
  4  6  1  0  0  0  0
  6  7  1  0  0  0  0
  6 15  1  0  0  0  0
  7 19  1  0  0  0  0
  7 14  1  0  0  0  0
  7  8  1  0  0  0  0
  8  9  1  0  0  0  0
  8 22  1  0  0  0  0
  8 23  1  0  0  0  0
  9 20  1  0  0  0  0
  9 10  1  0  0  0  0
  9 11  1  0  0  0  0
 10 24  1  0  0  0  0
 11 21  1  0  0  0  0
 11 12  1  0  0  0  0
 11 14  1  0  0  0  0
 12 13  1  0  0  0  0
 12 25  1  0  0  0  0
 12 26  1  0  0  0  0
 13 27  1  0  0  0  0
 15 16  2  0  0  0  0
 15 28  1  0  0  0  0
 16 17  1  0  0  0  0
M  END
> <s_m_source_file>
AV-unprocessed.smi

> <i_m_source_file_index>
38

> <i_lp_mmshare_version>
43012

> <i_f3d_flags>
0

> <s_epik_input>
Tz1jMVtuSF1jKD1PKW4oW2NIXWMxRilbQ0BIXTJbQ0gyXVtDQEhdKFtPSF0pW0NASF0oTzIpW0NIMl1bT0hd

> <s_epik_cmdline>
J2VwaWtfcHl0aG9uJywgJy1waCcsICc3LjAnLCAnLXRuJywgJzgnLCAnLW1hJywgJzIwMCcsICctbWV0YWxfYmluZGluZycsICctaW1hZScsICc8aW5maWxlLm1hZT4nLCAnLW9tYWUnLCAnPG91dGZpbGUubWFlPic=

> <r_lp_tautomer_probability>
0.999537

> <r_epik_Ionization_Penalty>
0.0357432

> <r_epik_Ionization_Penalty_Charging>
0.0357431

> <r_epik_Ionization_Penalty_Neutral>
1.19946e-07

> <r_epik_State_Penalty>
0.0298169

> <r_epik_Charging_Adjusted_Penalty>
0.06556

> <i_epik_Tot_Q>
0

> <i_epik_Tot_abs_Q>
0

> <r_epik_Metal_State_Penalty>
2.348

> <b_epik_Metal_Only>
0

> <s_epik_Chemistry_Notes>
This compound contains an acetal/aminal-like group ( X-CH(R)-Y where X, Y are N, S, or O) that may be acid/base labile, releasing an aldehyde.

> <s_lp_Force_Field>
OPLS_2005

> <r_lp_Energy>
29.3974

> <b_lp_Chiralities_Consistent>
1

> <s_lp_Variant>
AV-unprocessed.smi:38-5

> <Gold.Version>
5.8.1

> <Gold.Id.Protein>
6NUR|6NUR_protein|mol2

> <Gold.PLP.Fitness>
35.4325

> <Gold.PLP.PLP>
-22.0330

> <Gold.PLP.part.hbond>
-5.4352

> <Gold.PLP.part.metal>
0.0000

> <Gold.PLP.part.buried>
-4.5032

> <Gold.PLP.part.nonpolar>
-13.7410

> <Gold.PLP.part.repulsive>
0.6968

> <Gold.PLP.ligand.clash>
0.0000

> <Gold.PLP.ligand.torsion>
0.3349

> <Gold.PLP.Chemscore.Hbond>
4.6890

> <Gold.PLP.Chemscore.CHOScore>
0.0000

> <Gold.PLP.Chemscore.Metal>
0.0000

> <Gold.Chemscore.Hbonds>
donor molecule, donor type, donor heavy atom, donor atom, acceptor molecule, acceptor atom, score
      L1  H    10    24       P1 10175  1.00
      L1  H    13    27       P1  7948  0.96
      P1  H  7954  7966       L1    13  0.75
      P1  H  7989  7998       L1     5  1.00
      P1  H  7997  8009       L1     1  1.00

> <Gold.PLP.Chemscore.Internal.Correction>
0.0022

> <Gold.Rescore>
     Score         DG    S(hbond)    S(metal)    S(lipo)     H(rot)  DE(clash)    DE(int)     intcor
     12.42     -15.12       4.07        0.00      29.85       2.91       0.00       2.69       ----

> <Gold.Chemscore.Fitness>
12.4244

> <Gold.Chemscore.DG>
-15.1198

> <Gold.Chemscore.ZeroCoef>
-5.4800

> <Gold.Chemscore.Hbond>
4.0742

> <Gold.Chemscore.Metal>
0.0000

> <Gold.Chemscore.Lipo>
29.8453

> <Gold.Chemscore.Internal_Hbond>
0.0000

> <Gold.Chemscore.DEClash>
0.0021

> <Gold.Chemscore.DEInternal>
2.6932

> <Gold.Chemscore.Rot>
2.9141

> <Gold.Chemscore.Internal.Correction>
   9.000000E+99

> <Gold.Chemscore.Hbonds>
donor molecule, donor type, donor heavy atom, donor atom, acceptor molecule, acceptor atom, score
      L1  H    10    24       P1 10175  0.99
      L1  H    13    27       P1  7948  0.89
      P1  H  7954  7966       L1    13  0.09
      P1  H  7989  7998       L1     5  0.87
      P1  H  7997  8009       L1     1  0.89

> <Gold.Chemscore.Hbond.Weighted>
-13.6079

> <Gold.Chemscore.Metal.Weighted>
-0.0000

> <Gold.Chemscore.Lipo.Weighted>
-3.4919

> <Gold.Chemscore.Internal_Hbond.Weighted>
0.0000

> <Gold.Chemscore.DEClash.Weighted>
0.0021

> <Gold.Chemscore.DEInternal.Weighted>
2.6932

> <Gold.Chemscore.Rot.Weighted>
7.4601

> <Gold.Chemscore.Internal.Correction.Weighted>
   9.000000E+99

> <Gold.Protein.RotatedTorsions>
[ 6907 6896 6895 6894 ] final   55.36 input  -60.11 | X-H torsion
[ 7974 7965 7964 7962 ] final  -54.36 input  175.53 | X-H torsion
[ 8008 7997 7996 7995 ] final -179.95 input   59.86 | X-H torsion
[ 10167 10162 10161 10158 ] final  126.04 input  -65.29 | X-H torsion
[ 10718 10713 10712 10709 ] final -141.80 input   66.30 | X-H torsion
[ 10763 10752 10751 10750 ] final   42.70 input  -60.55 | X-H torsion
[ 11005 11000 10999 10996 ] final  170.37 input  -57.11 | X-H torsion

> <Gold.Protein.ActiveResidues>
 VAL166  LYS551  ARG553  GLY616  TRP617  ASP618  TYR619  PRO620  LYS621  CYS622 
 ASP623  PHE694  ASN695  SER759  ASP760  ASP761  ALA762  ILE779  LEU786  VAL792 
 PHE793  MET794  SER795  GLU796  ALA797  LYS798  CYS799  TRP800  GLU811  SER814 

> <Gold.Protein.RotatedAtoms>
  152.3531  134.6978  160.0230 H   0  0  0  0  0  0  0  0  0  0  0  0  # atno 6907 bound_to 6896
  151.7325  133.3313  159.3352 H   0  0  0  0  0  0  0  0  0  0  0  0  # atno 6908 bound_to 6896
  150.7553  134.6284  159.6218 H   0  0  0  0  0  0  0  0  0  0  0  0  # atno 6909 bound_to 6896
  145.8865  140.8104  142.9813 H   0  0  0  0  0  0  0  0  0  0  0  0  # atno 7974 bound_to 7965
  156.0364  140.1293  157.0203 H   0  0  0  0  0  0  0  0  0  0  0  0  # atno 8008 bound_to 7997
  154.4372  140.1039  156.6244 H   0  0  0  0  0  0  0  0  0  0  0  0  # atno 8009 bound_to 7997
  155.5731  140.3467  155.4522 H   0  0  0  0  0  0  0  0  0  0  0  0  # atno 8010 bound_to 7997
  139.5653  144.6907  151.3929 H   0  0  0  0  0  0  0  0  0  0  0  0  # atno 10167 bound_to 10162
  156.3383  130.7624  151.1755 H   0  0  0  0  0  0  0  0  0  0  0  0  # atno 10718 bound_to 10713
  152.9877  135.6124  154.2992 H   0  0  0  0  0  0  0  0  0  0  0  0  # atno 10763 bound_to 10752
  154.2714  135.2779  155.2738 H   0  0  0  0  0  0  0  0  0  0  0  0  # atno 10764 bound_to 10752
  154.5119  135.5838  153.6668 H   0  0  0  0  0  0  0  0  0  0  0  0  # atno 10765 bound_to 10752
  140.3076  134.7543  157.3966 H   0  0  0  0  0  0  0  0  0  0  0  0  # atno 11005 bound_to 11000
  144.6729  140.1463  143.7433 LP  0  0  0  0  0  0  0  0  0  0  0  0  # atno 17320 bound_to 7965
  145.8961  139.2403  143.1521 LP  0  0  0  0  0  0  0  0  0  0  0  0  # atno 17321 bound_to 7965
  140.6935  143.7804  150.7292 LP  0  0  0  0  0  0  0  0  0  0  0  0  # atno 17342 bound_to 10162
  140.1293  143.4540  152.2264 LP  0  0  0  0  0  0  0  0  0  0  0  0  # atno 17343 bound_to 10162
  157.7442  131.0461  150.4879 LP  0  0  0  0  0  0  0  0  0  0  0  0  # atno 17370 bound_to 10713
  156.5056  130.4127  149.6329 LP  0  0  0  0  0  0  0  0  0  0  0  0  # atno 17371 bound_to 10713
  140.1053  134.5418  155.8315 LP  0  0  0  0  0  0  0  0  0  0  0  0  # atno 17394 bound_to 11000
  141.2115  133.6707  156.6587 LP  0  0  0  0  0  0  0  0  0  0  0  0  # atno 17395 bound_to 11000

$$$$
