AV-unprocessed.smi:114|AV-procd|sdf|1122|dock5
  -GOLD-   2262018243D 1   1.00000     0.00000
 Structure written by MMmdl.
 32 34  0  0  0  0  0  0  0  0  1 V2000
  152.6486  143.5370  160.7666 N   0  0  0  0  0  0  0  0  0  0  0  0
  152.7583  142.3528  160.1480 C   0  0  0  0  0  0  0  0  0  0  0  0
  153.8183  141.5656  160.4468 N   0  0  0  0  0  0  0  0  0  0  0  0
  153.9671  140.3753  159.8511 C   0  0  0  0  0  0  0  0  0  0  0  0
  155.0562  139.6561  160.2102 F   0  0  0  0  0  0  0  0  0  0  0  0
  153.1612  139.8165  158.9410 N   0  0  0  0  0  0  0  0  0  0  0  0
  152.0917  140.6084  158.6404 C   0  0  0  0  0  0  0  0  0  0  0  0
  151.8190  141.8864  159.1959 C   0  0  0  0  0  0  0  0  0  0  0  0
  150.6489  142.3993  158.6506 N   0  0  0  0  0  0  0  0  0  0  0  0
  150.2559  141.4704  157.8193 C   0  0  0  0  0  0  0  0  0  0  0  0
  151.0680  140.3579  157.7552 N   0  0  0  0  0  0  0  0  0  0  0  0
  150.9167  139.1306  156.9174 C   0  0  1  0  0  0  0  0  0  0  0  0
  149.7613  139.2473  156.1556 O   0  0  0  0  0  0  0  0  0  0  0  0
  149.8904  138.4116  155.0113 C   0  0  1  0  0  0  0  0  0  0  0  0
  149.1499  139.0491  153.8217 C   0  0  0  0  0  0  0  0  0  0  0  0
  149.6101  140.3581  153.5547 O   0  0  0  0  0  0  0  0  0  0  0  0
  151.3992  138.1465  154.8100 C   0  0  2  0  0  0  0  0  0  0  0  0
  151.6618  136.7673  154.9863 O   0  0  0  0  0  0  0  0  0  0  0  0
  152.0699  138.9445  155.9237 C   0  0  1  0  0  0  0  0  0  0  0  0
  152.5818  140.1706  155.4326 O   0  0  0  0  0  0  0  0  0  0  0  0
  150.8165  138.3012  157.6198 H   0  0  0  0  0  0  0  0  0  0  0  0
  149.3803  137.4798  155.2633 H   0  0  0  0  0  0  0  0  0  0  0  0
  151.7602  138.4354  153.8220 H   0  0  0  0  0  0  0  0  0  0  0  0
  152.8865  138.4057  156.4066 H   0  0  0  0  0  0  0  0  0  0  0  0
  151.8668  144.1419  160.5593 H   0  0  0  0  0  0  0  0  0  0  0  0
  153.3461  143.8220  161.4389 H   0  0  0  0  0  0  0  0  0  0  0  0
  149.3607  141.5733  157.2228 H   0  0  0  0  0  0  0  0  0  0  0  0
  149.3110  138.4495  152.9254 H   0  0  0  0  0  0  0  0  0  0  0  0
  148.0749  139.0693  154.0029 H   0  0  0  0  0  0  0  0  0  0  0  0
  149.5064  140.5314  152.6315 H   0  0  0  0  0  0  0  0  0  0  0  0
  151.4533  136.5335  155.8777 H   0  0  0  0  0  0  0  0  0  0  0  0
  152.0391  140.8714  155.7607 H   0  0  0  0  0  0  0  0  0  0  0  0
  1  2  1  0  0  0  0
  1 25  1  0  0  0  0
  1 26  1  0  0  0  0
  2  8  1  0  0  0  0
  2  3  2  0  0  0  0
  3  4  1  0  0  0  0
  4  5  1  0  0  0  0
  4  6  2  0  0  0  0
  6  7  1  0  0  0  0
  7 11  1  0  0  0  0
  7  8  2  0  0  0  0
  8  9  1  0  0  0  0
  9 10  2  0  0  0  0
 10 11  1  0  0  0  0
 10 27  1  0  0  0  0
 11 12  1  0  0  0  0
 12 21  1  0  0  0  0
 12 19  1  0  0  0  0
 12 13  1  0  0  0  0
 13 14  1  0  0  0  0
 14 22  1  0  0  0  0
 14 15  1  0  0  0  0
 14 17  1  0  0  0  0
 15 16  1  0  0  0  0
 15 28  1  0  0  0  0
 15 29  1  0  0  0  0
 16 30  1  0  0  0  0
 17 23  1  0  0  0  0
 17 18  1  0  0  0  0
 17 19  1  0  0  0  0
 18 31  1  0  0  0  0
 19 24  1  0  0  0  0
 19 20  1  0  0  0  0
 20 32  1  0  0  0  0
M  END
> <s_m_source_file>
AV-unprocessed.smi

> <i_m_source_file_index>
114

> <i_lp_mmshare_version>
43012

> <i_f3d_flags>
0

> <s_epik_input>
RmMobjEpbmMoW05IMl0pYyhjMTIpbltjSF1uMltDQEBIXTNPW0NASF0oW0NIMl1bT0hdKVtDQEBIXShbT0hdKVtDQEBIXTNbT0hd

> <s_epik_cmdline>
J2VwaWtfcHl0aG9uJywgJy1waCcsICc3LjAnLCAnLXRuJywgJzgnLCAnLW1hJywgJzIwMCcsICctbWV0YWxfYmluZGluZycsICctaW1hZScsICc8aW5maWxlLm1hZT4nLCAnLW9tYWUnLCAnPG91dGZpbGUubWFlPic=

> <r_lp_tautomer_probability>
1

> <r_epik_Ionization_Penalty>
1.13199e-05

> <r_epik_Ionization_Penalty_Charging>
0

> <r_epik_Ionization_Penalty_Neutral>
1.13199e-05

> <r_epik_State_Penalty>
-0

> <r_epik_Charging_Adjusted_Penalty>
0

> <i_epik_Tot_Q>
0

> <i_epik_Tot_abs_Q>
0

> <r_epik_Metal_State_Penalty>
-0

> <b_epik_Metal_Only>
0

> <s_epik_Chemistry_Notes>
This compound contains an acetal/aminal-like group ( X-CH(R)-Y where X, Y are N, S, or O) that may be acid/base labile, releasing an aldehyde.

> <s_lp_Force_Field>
OPLS_2005

> <r_lp_Energy>
41.8757

> <b_lp_Chiralities_Consistent>
1

> <s_lp_Variant>
AV-unprocessed.smi:114-16

> <Gold.Version>
5.8.1

> <Gold.Id.Protein>
6NUR|6NUR_protein|mol2

> <Gold.PLP.Fitness>
39.6528

> <Gold.PLP.PLP>
-29.7638

> <Gold.PLP.part.hbond>
-4.8564

> <Gold.PLP.part.metal>
0.0000

> <Gold.PLP.part.buried>
-2.1303

> <Gold.PLP.part.nonpolar>
-22.6392

> <Gold.PLP.part.repulsive>
0.0890

> <Gold.PLP.ligand.clash>
0.0000

> <Gold.PLP.ligand.torsion>
0.0180

> <Gold.PLP.Chemscore.Hbond>
3.3060

> <Gold.PLP.Chemscore.CHOScore>
0.0000

> <Gold.PLP.Chemscore.Metal>
0.0000

> <Gold.Chemscore.Hbonds>
donor molecule, donor type, donor heavy atom, donor atom, acceptor molecule, acceptor atom, score
      L1  H    16    30       P1  7957  0.99
      P1  H  7989  7998       L1    16  0.27
      P1  H  7997  8010       L1    20  1.00
      P1  H 10752 10764       L1    18  1.00

> <Gold.PLP.Chemscore.Internal.Correction>
0.0068

> <Gold.Rescore>
     Score         DG    S(hbond)    S(metal)    S(lipo)     H(rot)  DE(clash)    DE(int)     intcor
      8.23      -8.30       2.82        0.00      31.73       4.03       0.03       0.04       ----

> <Gold.Chemscore.Fitness>
8.2313

> <Gold.Chemscore.DG>
-8.3050

> <Gold.Chemscore.ZeroCoef>
-5.4800

> <Gold.Chemscore.Hbond>
2.8214

> <Gold.Chemscore.Metal>
0.0000

> <Gold.Chemscore.Lipo>
31.7313

> <Gold.Chemscore.Internal_Hbond>
0.0000

> <Gold.Chemscore.DEClash>
0.0288

> <Gold.Chemscore.DEInternal>
0.0449

> <Gold.Chemscore.Rot>
4.0277

> <Gold.Chemscore.Internal.Correction>
   9.000000E+99

> <Gold.Chemscore.Hbonds>
donor molecule, donor type, donor heavy atom, donor atom, acceptor molecule, acceptor atom, score
      L1  H    16    30       P1  7957  0.90
      P1  H  7989  7998       L1    16  0.01
      P1  H  7997  8010       L1    20  0.36
      P1  H 10752 10764       L1    18  0.35

> <Gold.Chemscore.Hbond.Weighted>
-9.4234

> <Gold.Chemscore.Metal.Weighted>
-0.0000

> <Gold.Chemscore.Lipo.Weighted>
-3.7126

> <Gold.Chemscore.Internal_Hbond.Weighted>
0.0000

> <Gold.Chemscore.DEClash.Weighted>
0.0288

> <Gold.Chemscore.DEInternal.Weighted>
0.0449

> <Gold.Chemscore.Rot.Weighted>
10.3110

> <Gold.Chemscore.Internal.Correction.Weighted>
   9.000000E+99

> <Gold.Protein.RotatedTorsions>
[ 6907 6896 6895 6894 ] final  -30.12 input  -60.11 | X-H torsion
[ 7974 7965 7964 7962 ] final  -38.70 input  175.53 | X-H torsion
[ 8008 7997 7996 7995 ] final   91.78 input   59.86 | X-H torsion
[ 10167 10162 10161 10158 ] final   56.50 input  -65.29 | X-H torsion
[ 10718 10713 10712 10709 ] final -103.75 input   66.30 | X-H torsion
[ 10763 10752 10751 10750 ] final  -59.14 input  -60.55 | X-H torsion
[ 11005 11000 10999 10996 ] final  164.53 input  -57.11 | X-H torsion

> <Gold.Protein.ActiveResidues>
 VAL166  LYS551  ARG553  GLY616  TRP617  ASP618  TYR619  PRO620  LYS621  CYS622 
 ASP623  PHE694  ASN695  SER759  ASP760  ASP761  ALA762  ILE779  LEU786  VAL792 
 PHE793  MET794  SER795  GLU796  ALA797  LYS798  CYS799  TRP800  GLU811  SER814 

> <Gold.Protein.RotatedAtoms>
  151.1099  135.0021  159.8488 H   0  0  0  0  0  0  0  0  0  0  0  0  # atno 6907 bound_to 6896
  152.5442  134.1848  159.8660 H   0  0  0  0  0  0  0  0  0  0  0  0  # atno 6908 bound_to 6896
  151.1898  133.4630  159.2628 H   0  0  0  0  0  0  0  0  0  0  0  0  # atno 6909 bound_to 6896
  146.0463  140.6542  142.9063 H   0  0  0  0  0  0  0  0  0  0  0  0  # atno 7974 bound_to 7965
  156.0277  140.3333  155.7106 H   0  0  0  0  0  0  0  0  0  0  0  0  # atno 8008 bound_to 7997
  155.5930  140.0648  157.2771 H   0  0  0  0  0  0  0  0  0  0  0  0  # atno 8009 bound_to 7997
  154.4341  140.1824  156.1082 H   0  0  0  0  0  0  0  0  0  0  0  0  # atno 8010 bound_to 7997
  140.2081  144.3918  150.6500 H   0  0  0  0  0  0  0  0  0  0  0  0  # atno 10167 bound_to 10162
  156.0277  130.5482  150.7298 H   0  0  0  0  0  0  0  0  0  0  0  0  # atno 10718 bound_to 10713
  154.2490  135.6329  153.5233 H   0  0  0  0  0  0  0  0  0  0  0  0  # atno 10763 bound_to 10752
  152.9916  135.5560  154.5828 H   0  0  0  0  0  0  0  0  0  0  0  0  # atno 10764 bound_to 10752
  154.5351  135.2891  155.1120 H   0  0  0  0  0  0  0  0  0  0  0  0  # atno 10765 bound_to 10752
  140.2468  134.8008  157.3464 H   0  0  0  0  0  0  0  0  0  0  0  0  # atno 11005 bound_to 11000
  144.7099  140.4000  143.7088 LP  0  0  0  0  0  0  0  0  0  0  0  0  # atno 17320 bound_to 7965
  145.6800  139.1616  143.2706 LP  0  0  0  0  0  0  0  0  0  0  0  0  # atno 17321 bound_to 7965
  140.6343  143.2192  151.6429 LP  0  0  0  0  0  0  0  0  0  0  0  0  # atno 17342 bound_to 10162
  139.5190  144.3265  152.0864 LP  0  0  0  0  0  0  0  0  0  0  0  0  # atno 17343 bound_to 10162
  157.4893  131.0909  151.0445 LP  0  0  0  0  0  0  0  0  0  0  0  0  # atno 17370 bound_to 10713
  157.0856  130.5921  149.5429 LP  0  0  0  0  0  0  0  0  0  0  0  0  # atno 17371 bound_to 10713
  140.1597  134.4744  155.7903 LP  0  0  0  0  0  0  0  0  0  0  0  0  # atno 17394 bound_to 11000
  141.2205  133.6896  156.7523 LP  0  0  0  0  0  0  0  0  0  0  0  0  # atno 17395 bound_to 11000

$$$$
