AV-unprocessed.smi:515|AV-procd|sdf|2780|dock6
  -GOLD-   2262023253D 1   1.00000     0.00000
 Structure written by MMmdl.
 47 49  0  0  0  0  0  0  0  0  1 V2000
  153.4697  137.0065  161.3631 C   0  0  0  0  0  0  0  0  0  0  0  0
  153.6289  136.8839  159.8475 C   0  0  0  0  0  0  0  0  0  0  0  0
  152.3466  136.8312  159.2443 O   0  0  0  0  0  0  0  0  0  0  0  0
  152.4202  136.8547  157.8284 C   0  0  0  0  0  0  0  0  0  0  0  0
  152.9005  138.2283  157.3349 C   0  0  0  0  0  0  0  0  0  0  0  0
  151.8010  139.1170  156.9680 N   0  0  0  0  0  0  0  0  0  0  0  0
  151.3917  140.2545  157.5921 C   0  0  0  0  0  0  0  0  0  0  0  0
  152.0303  140.7954  158.8384 C   0  0  0  0  0  0  0  0  0  0  0  0
  151.5567  142.1224  159.2290 N   0  0  0  0  0  0  0  0  0  0  0  0
  152.2996  142.6559  160.3705 C   0  0  0  0  0  0  0  0  0  0  0  0
  151.8632  144.0847  160.7403 C   0  0  0  0  0  0  0  0  0  0  0  0
  151.9649  144.9344  159.6028 O   0  0  0  0  0  0  0  0  0  0  0  0
  151.1920  144.4695  158.5019 C   0  0  0  0  0  0  0  0  0  0  0  0
  151.6582  143.0567  158.1141 C   0  0  0  0  0  0  0  0  0  0  0  0
  150.3434  140.8498  157.0129 N   0  0  0  0  0  0  0  0  0  0  0  0
  150.0590  140.0224  155.9378 C   0  0  0  0  0  0  0  0  0  0  0  0
  150.9114  138.9681  155.9039 C   0  0  0  0  0  0  0  0  0  0  0  0
  150.8166  137.9096  154.8900 C   0  0  0  0  0  0  0  0  0  0  0  0
  151.5636  136.9343  154.8556 O   0  0  0  0  0  0  0  0  0  0  0  0
  149.8121  138.1124  154.0033 N   0  0  0  0  0  0  0  0  0  0  0  0
  148.9230  139.1521  153.9772 C   0  0  0  0  0  0  0  0  0  0  0  0
  148.0514  139.1937  153.1091 O   0  0  0  0  0  0  0  0  0  0  0  0
  149.0440  140.1185  154.9433 N   0  0  0  0  0  0  0  0  0  0  0  0
  148.1165  141.2507  154.9708 C   0  0  0  0  0  0  0  0  0  0  0  0
  149.7023  137.4126  153.2840 H   0  0  0  0  0  0  0  0  0  0  0  0
  154.4415  137.0414  161.8556 H   0  0  0  0  0  0  0  0  0  0  0  0
  152.9204  136.1563  161.7674 H   0  0  0  0  0  0  0  0  0  0  0  0
  152.9302  137.9167  161.6250 H   0  0  0  0  0  0  0  0  0  0  0  0
  154.1903  137.7381  159.4658 H   0  0  0  0  0  0  0  0  0  0  0  0
  154.1946  135.9826  159.6068 H   0  0  0  0  0  0  0  0  0  0  0  0
  153.0943  136.0696  157.4862 H   0  0  0  0  0  0  0  0  0  0  0  0
  151.4388  136.6417  157.4027 H   0  0  0  0  0  0  0  0  0  0  0  0
  153.4986  138.7162  158.1046 H   0  0  0  0  0  0  0  0  0  0  0  0
  153.5684  138.0908  156.4872 H   0  0  0  0  0  0  0  0  0  0  0  0
  151.8542  140.0882  159.6505 H   0  0  0  0  0  0  0  0  0  0  0  0
  153.1107  140.8066  158.7005 H   0  0  0  0  0  0  0  0  0  0  0  0
  152.1672  142.0117  161.2397 H   0  0  0  0  0  0  0  0  0  0  0  0
  153.3671  142.6599  160.1450 H   0  0  0  0  0  0  0  0  0  0  0  0
  150.8408  144.0933  161.1145 H   0  0  0  0  0  0  0  0  0  0  0  0
  152.4954  144.4785  161.5360 H   0  0  0  0  0  0  0  0  0  0  0  0
  150.1324  144.4708  158.7619 H   0  0  0  0  0  0  0  0  0  0  0  0
  151.3179  145.1545  157.6634 H   0  0  0  0  0  0  0  0  0  0  0  0
  152.6904  143.1037  157.7626 H   0  0  0  0  0  0  0  0  0  0  0  0
  151.0593  142.6980  157.2763 H   0  0  0  0  0  0  0  0  0  0  0  0
  148.0216  141.7052  153.9834 H   0  0  0  0  0  0  0  0  0  0  0  0
  148.4405  142.0368  155.6528 H   0  0  0  0  0  0  0  0  0  0  0  0
  147.1275  140.9194  155.2901 H   0  0  0  0  0  0  0  0  0  0  0  0
  1  2  1  0  0  0  0
  1 26  1  0  0  0  0
  1 27  1  0  0  0  0
  1 28  1  0  0  0  0
  2  3  1  0  0  0  0
  2 29  1  0  0  0  0
  2 30  1  0  0  0  0
  3  4  1  0  0  0  0
  4  5  1  0  0  0  0
  4 31  1  0  0  0  0
  4 32  1  0  0  0  0
  5  6  1  0  0  0  0
  5 33  1  0  0  0  0
  5 34  1  0  0  0  0
  6 17  1  0  0  0  0
  6  7  1  0  0  0  0
  7  8  1  0  0  0  0
  7 15  2  0  0  0  0
  8  9  1  0  0  0  0
  8 35  1  0  0  0  0
  8 36  1  0  0  0  0
  9 14  1  0  0  0  0
  9 10  1  0  0  0  0
 10 11  1  0  0  0  0
 10 37  1  0  0  0  0
 10 38  1  0  0  0  0
 11 12  1  0  0  0  0
 11 39  1  0  0  0  0
 11 40  1  0  0  0  0
 12 13  1  0  0  0  0
 13 14  1  0  0  0  0
 13 41  1  0  0  0  0
 13 42  1  0  0  0  0
 14 43  1  0  0  0  0
 14 44  1  0  0  0  0
 15 16  1  0  0  0  0
 16 23  1  0  0  0  0
 16 17  2  0  0  0  0
 17 18  1  0  0  0  0
 18 19  2  0  0  0  0
 18 20  1  0  0  0  0
 20 25  1  0  0  0  0
 20 21  1  0  0  0  0
 21 22  2  0  0  0  0
 21 23  1  0  0  0  0
 23 24  1  0  0  0  0
 24 45  1  0  0  0  0
 24 46  1  0  0  0  0
 24 47  1  0  0  0  0
M  END
> <s_m_source_file>
AV-unprocessed.smi

> <i_m_source_file_index>
515

> <i_lp_mmshare_version>
43012

> <i_f3d_flags>
0

> <s_epik_input>
W0NIM11uMWMoPU8pW25IXWMoPU8pYyhjMTIpbihbQ0gyXVtDSDJdT1tDSDJdW0NIM10pYyhuMilbQ0gyXU4zW0NIMl1bQ0gyXU9bQ0gyXVtDSDJdMw==

> <s_epik_cmdline>
J2VwaWtfcHl0aG9uJywgJy1waCcsICc3LjAnLCAnLXRuJywgJzgnLCAnLW1hJywgJzIwMCcsICctbWV0YWxfYmluZGluZycsICctaW1hZScsICc8aW5maWxlLm1hZT4nLCAnLW9tYWUnLCAnPG91dGZpbGUubWFlPic=

> <r_epik_Ionization_Penalty>
0.0971954

> <r_epik_Ionization_Penalty_Charging>
0.000195337

> <r_epik_Ionization_Penalty_Neutral>
0.0970001

> <r_epik_State_Penalty>
0.0871068

> <r_epik_Charging_Adjusted_Penalty>
0.0873021

> <i_epik_Tot_Q>
0

> <i_epik_Tot_abs_Q>
0

> <r_epik_Metal_State_Penalty>
0.234549

> <b_epik_Metal_Only>
0

> <s_lp_Force_Field>
OPLS_2005

> <r_lp_Energy>
38.6843

> <b_lp_Chiralities_Consistent>
1

> <s_lp_Variant>
AV-unprocessed.smi:515-1

> <Gold.Version>
5.8.1

> <Gold.Id.Protein>
6NUR|6NUR_protein|mol2

> <Gold.PLP.Fitness>
46.1342

> <Gold.PLP.PLP>
-37.9740

> <Gold.PLP.part.hbond>
-3.0000

> <Gold.PLP.part.metal>
0.0000

> <Gold.PLP.part.buried>
-8.2259

> <Gold.PLP.part.nonpolar>
-30.3795

> <Gold.PLP.part.repulsive>
2.6334

> <Gold.PLP.ligand.clash>
0.0000

> <Gold.PLP.ligand.torsion>
0.4268

> <Gold.PLP.Chemscore.Hbond>
2.9913

> <Gold.PLP.Chemscore.CHOScore>
0.0000

> <Gold.PLP.Chemscore.Metal>
0.0000

> <Gold.Chemscore.Hbonds>
donor molecule, donor type, donor heavy atom, donor atom, acceptor molecule, acceptor atom, score
      L1  H    20    25       P1  7948  1.00
      P1  H  6896  6909       L1     3  0.85
      P1  H 10752 10765       L1    19  1.00

> <Gold.PLP.Chemscore.Internal.Correction>
0.0402

> <Gold.Rescore>
     Score         DG    S(hbond)    S(metal)    S(lipo)     H(rot)  DE(clash)    DE(int)     intcor
     17.22     -17.81       2.60        0.00      78.05       2.15       0.04       0.55       ----

> <Gold.Chemscore.Fitness>
17.2223

> <Gold.Chemscore.DG>
-17.8130

> <Gold.Chemscore.ZeroCoef>
-5.4800

> <Gold.Chemscore.Hbond>
2.6031

> <Gold.Chemscore.Metal>
0.0000

> <Gold.Chemscore.Lipo>
78.0505

> <Gold.Chemscore.Internal_Hbond>
0.0000

> <Gold.Chemscore.DEClash>
0.0376

> <Gold.Chemscore.DEInternal>
0.5530

> <Gold.Chemscore.Rot>
2.1458

> <Gold.Chemscore.Internal.Correction>
   9.000000E+99

> <Gold.Chemscore.Hbonds>
donor molecule, donor type, donor heavy atom, donor atom, acceptor molecule, acceptor atom, score
      L1  H    20    25       P1  7948  0.69
      P1  H  6896  6909       L1     3  0.13
      P1  H 10752 10765       L1    19  0.98

> <Gold.Chemscore.Hbond.Weighted>
-8.6943

> <Gold.Chemscore.Metal.Weighted>
-0.0000

> <Gold.Chemscore.Lipo.Weighted>
-9.1319

> <Gold.Chemscore.Internal_Hbond.Weighted>
0.0000

> <Gold.Chemscore.DEClash.Weighted>
0.0376

> <Gold.Chemscore.DEInternal.Weighted>
0.5530

> <Gold.Chemscore.Rot.Weighted>
5.4932

> <Gold.Chemscore.Internal.Correction.Weighted>
   9.000000E+99

> <Gold.Protein.RotatedTorsions>
[ 6907 6896 6895 6894 ] final  132.51 input  -60.11 | X-H torsion
[ 7974 7965 7964 7962 ] final -153.15 input  175.53 | X-H torsion
[ 8008 7997 7996 7995 ] final  132.93 input   59.86 | X-H torsion
[ 10167 10162 10161 10158 ] final -168.30 input  -65.29 | X-H torsion
[ 10718 10713 10712 10709 ] final   23.63 input   66.30 | X-H torsion
[ 10763 10752 10751 10750 ] final  164.60 input  -60.55 | X-H torsion
[ 11005 11000 10999 10996 ] final  105.70 input  -57.11 | X-H torsion

> <Gold.Protein.ActiveResidues>
 VAL166  LYS551  ARG553  GLY616  TRP617  ASP618  TYR619  PRO620  LYS621  CYS622 
 ASP623  PHE694  ASN695  SER759  ASP760  ASP761  ALA762  ILE779  LEU786  VAL792 
 PHE793  MET794  SER795  GLU796  ALA797  LYS798  CYS799  TRP800  GLU811  SER814 

> <Gold.Protein.RotatedAtoms>
  152.3316  133.5965  159.5813 H   0  0  0  0  0  0  0  0  0  0  0  0  # atno 6907 bound_to 6896
  150.7426  133.9859  159.3600 H   0  0  0  0  0  0  0  0  0  0  0  0  # atno 6908 bound_to 6896
  151.7733  135.0781  160.0414 H   0  0  0  0  0  0  0  0  0  0  0  0  # atno 6909 bound_to 6896
  144.7756  140.4565  143.5876 H   0  0  0  0  0  0  0  0  0  0  0  0  # atno 7974 bound_to 7965
  156.2987  140.2534  156.3169 H   0  0  0  0  0  0  0  0  0  0  0  0  # atno 8008 bound_to 7997
  154.9272  140.0399  157.2048 H   0  0  0  0  0  0  0  0  0  0  0  0  # atno 8009 bound_to 7997
  154.8253  140.2867  155.5763 H   0  0  0  0  0  0  0  0  0  0  0  0  # atno 8010 bound_to 7997
  139.5994  144.1043  152.1726 H   0  0  0  0  0  0  0  0  0  0  0  0  # atno 10167 bound_to 10162
  157.1688  130.6750  149.6070 H   0  0  0  0  0  0  0  0  0  0  0  0  # atno 10718 bound_to 10713
  154.3114  135.2757  155.2564 H   0  0  0  0  0  0  0  0  0  0  0  0  # atno 10763 bound_to 10752
  154.4957  135.5821  153.6496 H   0  0  0  0  0  0  0  0  0  0  0  0  # atno 10764 bound_to 10752
  152.9887  135.6145  154.3292 H   0  0  0  0  0  0  0  0  0  0  0  0  # atno 10765 bound_to 10752
  139.8805  134.9344  156.5553 H   0  0  0  0  0  0  0  0  0  0  0  0  # atno 11005 bound_to 11000
  145.6197  139.1522  143.3029 LP  0  0  0  0  0  0  0  0  0  0  0  0  # atno 17320 bound_to 7965
  146.1932  140.6308  142.9136 LP  0  0  0  0  0  0  0  0  0  0  0  0  # atno 17321 bound_to 7965
  140.0635  144.5837  150.7245 LP  0  0  0  0  0  0  0  0  0  0  0  0  # atno 17342 bound_to 10162
  140.7238  143.2615  151.4191 LP  0  0  0  0  0  0  0  0  0  0  0  0  # atno 17343 bound_to 10162
  155.9742  130.4686  150.6366 LP  0  0  0  0  0  0  0  0  0  0  0  0  # atno 17370 bound_to 10713
  157.4063  131.0817  151.1262 LP  0  0  0  0  0  0  0  0  0  0  0  0  # atno 17371 bound_to 10713
  140.8209  133.8354  155.8895 LP  0  0  0  0  0  0  0  0  0  0  0  0  # atno 17394 bound_to 11000
  140.9419  134.1890  157.4791 LP  0  0  0  0  0  0  0  0  0  0  0  0  # atno 17395 bound_to 11000

$$$$
