AV-unprocessed.smi:3025|AV-procd|sdf|11509|dock3
  -GOLD-   2272016443D 1   1.00000     0.00000
 Structure written by MMmdl.
 42 43  0  0  0  0  0  0  0  0  2 V2000
  152.0775  143.5885  158.4435 C   0  0  0  0  0  0  0  0  0  0  0  0
  151.2225  143.0737  157.2803 C   0  0  0  0  0  0  0  0  0  0  0  0
  151.2594  141.5408  157.1581 C   0  0  0  0  0  0  0  0  0  0  0  0
  150.7023  140.9987  155.8254 C   0  0  2  0  0  0  0  0  0  0  0  0
  149.2935  141.5424  155.5052 C   0  0  0  0  0  0  0  0  0  0  0  0
  148.7425  140.9708  154.1885 C   0  0  0  0  0  0  0  0  0  0  0  0
  148.7252  139.4283  154.2006 C   0  0  1  0  0  0  0  0  0  0  0  0
  148.2537  138.8772  152.9106 N   0  3  0  0  0  0  0  0  0  0  0  0
  146.8008  138.9938  152.6667 C   0  0  0  0  0  0  0  0  0  0  0  0
  146.0336  137.8617  153.3622 C   0  0  0  0  0  0  0  0  0  0  0  0
  145.4945  136.8609  152.3934 C   0  0  0  0  0  0  0  0  0  0  0  0
  144.2138  136.4780  152.3304 N   0  0  0  0  0  0  0  0  0  0  0  0
  144.1507  135.5592  151.2948 N   0  0  0  0  0  0  0  0  0  0  0  0
  145.3995  135.4784  150.8328 C   0  0  0  0  0  0  0  0  0  0  0  0
  146.2707  136.2658  151.4749 N   0  0  0  0  0  0  0  0  0  0  0  0
  150.1326  138.8892  154.5119 C   0  0  0  0  0  0  0  0  0  0  0  0
  150.6760  139.4571  155.8325 C   0  0  0  0  0  0  0  0  0  0  0  0
  147.2606  136.3768  151.3098 H   0  0  0  0  0  0  0  0  0  0  0  0
  152.0353  144.6763  158.5046 H   0  0  0  0  0  0  0  0  0  0  0  0
  153.1228  143.3031  158.3210 H   0  0  0  0  0  0  0  0  0  0  0  0
  151.7295  143.1878  159.3960 H   0  0  0  0  0  0  0  0  0  0  0  0
  150.1977  143.4162  157.4220 H   0  0  0  0  0  0  0  0  0  0  0  0
  151.5755  143.5249  156.3522 H   0  0  0  0  0  0  0  0  0  0  0  0
  152.2961  141.2175  157.2620 H   0  0  0  0  0  0  0  0  0  0  0  0
  150.7201  141.0919  157.9933 H   0  0  0  0  0  0  0  0  0  0  0  0
  151.3780  141.3128  155.0284 H   0  0  0  0  0  0  0  0  0  0  0  0
  148.6107  141.2994  156.3205 H   0  0  0  0  0  0  0  0  0  0  0  0
  149.3113  142.6295  155.4335 H   0  0  0  0  0  0  0  0  0  0  0  0
  147.7397  141.3660  154.0280 H   0  0  0  0  0  0  0  0  0  0  0  0
  149.3518  141.3275  153.3567 H   0  0  0  0  0  0  0  0  0  0  0  0
  148.0504  139.0842  154.9863 H   0  0  0  0  0  0  0  0  0  0  0  0
  148.7564  139.3284  152.1597 H   0  0  0  0  0  0  0  0  0  0  0  0
  146.4512  139.9587  153.0368 H   0  0  0  0  0  0  0  0  0  0  0  0
  146.6006  138.9658  151.5956 H   0  0  0  0  0  0  0  0  0  0  0  0
  146.6819  137.3508  154.0758 H   0  0  0  0  0  0  0  0  0  0  0  0
  145.1997  138.2697  153.9351 H   0  0  0  0  0  0  0  0  0  0  0  0
  145.6816  134.8350  150.0126 H   0  0  0  0  0  0  0  0  0  0  0  0
  150.1117  137.8001  154.5664 H   0  0  0  0  0  0  0  0  0  0  0  0
  150.8164  139.1443  153.7009 H   0  0  0  0  0  0  0  0  0  0  0  0
  151.6800  139.0679  156.0054 H   0  0  0  0  0  0  0  0  0  0  0  0
  150.0620  139.1018  156.6615 H   0  0  0  0  0  0  0  0  0  0  0  0
  148.4803  137.8927  152.9005 H   0  0  0  0  0  0  0  0  0  0  0  0
  1  2  1  0  0  0  0
  1 19  1  0  0  0  0
  1 20  1  0  0  0  0
  1 21  1  0  0  0  0
  2  3  1  0  0  0  0
  2 22  1  0  0  0  0
  2 23  1  0  0  0  0
  3  4  1  0  0  0  0
  3 24  1  0  0  0  0
  3 25  1  0  0  0  0
  4 17  1  0  0  0  0
  4  5  1  0  0  0  0
  4 26  1  0  0  0  0
  5  6  1  0  0  0  0
  5 27  1  0  0  0  0
  5 28  1  0  0  0  0
  6  7  1  0  0  0  0
  6 29  1  0  0  0  0
  6 30  1  0  0  0  0
  7  8  1  0  0  0  0
  7 16  1  0  0  0  0
  7 31  1  0  0  0  0
  8  9  1  0  0  0  0
  8 32  1  0  0  0  0
  8 42  1  0  0  0  0
  9 10  1  0  0  0  0
  9 33  1  0  0  0  0
  9 34  1  0  0  0  0
 10 11  1  0  0  0  0
 10 35  1  0  0  0  0
 10 36  1  0  0  0  0
 11 15  1  0  0  0  0
 11 12  2  0  0  0  0
 12 13  1  0  0  0  0
 13 14  2  0  0  0  0
 14 15  1  0  0  0  0
 14 37  1  0  0  0  0
 15 18  1  0  0  0  0
 16 17  1  0  0  0  0
 16 38  1  0  0  0  0
 16 39  1  0  0  0  0
 17 40  1  0  0  0  0
 17 41  1  0  0  0  0
M  CHG  1   8   1
M  END
> <s_m_source_file>
AV-unprocessed.smi

> <i_m_source_file_index>
3025

> <i_lp_mmshare_version>
43012

> <i_f3d_flags>
0

> <s_epik_input>
W0NIM11bQ0gyXVtDSDJdW0NAQEhdMVtDSDJdW0NIMl1bQ0BIXShbQ0gyXVtDSDJdMSlbTkhdW0NIMl1bQ0gyXWMybm5bY0hdW25IXTI=

> <s_epik_cmdline>
J2VwaWtfcHl0aG9uJywgJy1waCcsICc3LjAnLCAnLXRuJywgJzgnLCAnLW1hJywgJzIwMCcsICctbWV0YWxfYmluZGluZycsICctaW1hZScsICc8aW5maWxlLm1hZT4nLCAnLW9tYWUnLCAnPG91dGZpbGUubWFlPic=

> <r_lp_tautomer_probability>
0.0517155

> <r_epik_Ionization_Penalty>
0.0349397

> <r_epik_Ionization_Penalty_Charging>
0.000546397

> <r_epik_Ionization_Penalty_Neutral>
0.0343933

> <r_epik_State_Penalty>
2.24019

> <r_epik_Charging_Adjusted_Penalty>
2.24074

> <i_epik_Tot_Q>
1

> <i_epik_Tot_abs_Q>
1

> <r_epik_Metal_State_Penalty>
2.47389

> <b_epik_Metal_Only>
0

> <s_lp_Force_Field>
OPLS_2005

> <r_lp_Energy>
14.3839

> <b_lp_Chiralities_Consistent>
1

> <s_lp_Variant>
AV-unprocessed.smi:3025-5

> <Gold.Version>
5.8.1

> <Gold.Id.Protein>
6NUR|6NUR_protein|mol2

> <Gold.PLP.Fitness>
48.4412

> <Gold.PLP.PLP>
-35.3203

> <Gold.PLP.part.hbond>
-2.7439

> <Gold.PLP.part.metal>
0.0000

> <Gold.PLP.part.buried>
-4.2521

> <Gold.PLP.part.nonpolar>
-29.6443

> <Gold.PLP.part.repulsive>
0.5448

> <Gold.PLP.ligand.clash>
0.0000

> <Gold.PLP.ligand.torsion>
0.6886

> <Gold.PLP.Chemscore.Hbond>
3.7803

> <Gold.PLP.Chemscore.CHOScore>
1.0000

> <Gold.PLP.Chemscore.Metal>
0.0000

> <Gold.Chemscore.Hbonds>
donor molecule, donor type, donor heavy atom, donor atom, acceptor molecule, acceptor atom, score
      L1  H     8    32       P1  7957  0.88
      L1  H     8    42       P1  7948  1.95
      L1  H    15    18       P1  7948  1.00
      L1  C    14    37       P1  7921  1.00

> <Gold.PLP.Chemscore.Internal.Correction>
0.1572

> <Gold.Rescore>
     Score         DG    S(hbond)    S(metal)    S(lipo)     H(rot)  DE(clash)    DE(int)     intcor
     17.47     -18.15       2.83        0.00      83.48       2.56       0.13       0.55       ----

> <Gold.Chemscore.Fitness>
17.4688

> <Gold.Chemscore.DG>
-18.1538

> <Gold.Chemscore.ZeroCoef>
-5.4800

> <Gold.Chemscore.Hbond>
2.8325

> <Gold.Chemscore.Metal>
0.0000

> <Gold.Chemscore.Lipo>
83.4821

> <Gold.Chemscore.Internal_Hbond>
0.0000

> <Gold.Chemscore.DEClash>
0.1312

> <Gold.Chemscore.DEInternal>
0.5538

> <Gold.Chemscore.Rot>
2.5602

> <Gold.Chemscore.Internal.Correction>
   9.000000E+99

> <Gold.Chemscore.Hbonds>
donor molecule, donor type, donor heavy atom, donor atom, acceptor molecule, acceptor atom, score
      L1  H     8    32       P1  7957  0.86
      L1  H     8    42       P1  7948  0.89
      L1  H    15    18       P1  7948  0.96

> <Gold.Chemscore.Hbond.Weighted>
-9.4606

> <Gold.Chemscore.Metal.Weighted>
-0.0000

> <Gold.Chemscore.Lipo.Weighted>
-9.7674

> <Gold.Chemscore.Internal_Hbond.Weighted>
0.0000

> <Gold.Chemscore.DEClash.Weighted>
0.1312

> <Gold.Chemscore.DEInternal.Weighted>
0.5538

> <Gold.Chemscore.Rot.Weighted>
6.5542

> <Gold.Chemscore.Internal.Correction.Weighted>
   9.000000E+99

> <Gold.Protein.RotatedTorsions>
[ 6907 6896 6895 6894 ] final  -72.41 input  -60.11 | X-H torsion
[ 7974 7965 7964 7962 ] final   40.67 input  175.53 | X-H torsion
[ 8008 7997 7996 7995 ] final  -62.22 input   59.86 | X-H torsion
[ 10167 10162 10161 10158 ] final  -30.00 input  -65.29 | X-H torsion
[ 10718 10713 10712 10709 ] final  179.90 input   66.30 | X-H torsion
[ 10763 10752 10751 10750 ] final   46.73 input  -60.55 | X-H torsion
[ 11005 11000 10999 10996 ] final    6.76 input  -57.11 | X-H torsion

> <Gold.Protein.ActiveResidues>
 VAL166  LYS551  ARG553  GLY616  TRP617  ASP618  TYR619  PRO620  LYS621  CYS622 
 ASP623  PHE694  ASN695  SER759  ASP760  ASP761  ALA762  ILE779  LEU786  VAL792 
 PHE793  MET794  SER795  GLU796  ALA797  LYS798  CYS799  TRP800  GLU811  SER814 

> <Gold.Protein.RotatedAtoms>
  150.7171  134.5167  159.5633 H   0  0  0  0  0  0  0  0  0  0  0  0  # atno 6907 bound_to 6896
  152.2731  134.7908  160.0419 H   0  0  0  0  0  0  0  0  0  0  0  0  # atno 6908 bound_to 6896
  151.8581  133.3417  159.3731 H   0  0  0  0  0  0  0  0  0  0  0  0  # atno 6909 bound_to 6896
  146.0886  139.5506  142.9490 H   0  0  0  0  0  0  0  0  0  0  0  0  # atno 7974 bound_to 7965
  154.4488  140.1001  156.6553 H   0  0  0  0  0  0  0  0  0  0  0  0  # atno 8008 bound_to 7997
  155.5352  140.3482  155.4416 H   0  0  0  0  0  0  0  0  0  0  0  0  # atno 8009 bound_to 7997
  156.0636  140.1332  156.9901 H   0  0  0  0  0  0  0  0  0  0  0  0  # atno 8010 bound_to 7997
  140.7254  143.3883  151.1475 H   0  0  0  0  0  0  0  0  0  0  0  0  # atno 10167 bound_to 10162
  156.8689  130.9777  151.3075 H   0  0  0  0  0  0  0  0  0  0  0  0  # atno 10718 bound_to 10713
  152.9807  135.5999  154.3646 H   0  0  0  0  0  0  0  0  0  0  0  0  # atno 10763 bound_to 10752
  154.3325  135.2768  155.2466 H   0  0  0  0  0  0  0  0  0  0  0  0  # atno 10764 bound_to 10752
  154.4584  135.5972  153.6294 H   0  0  0  0  0  0  0  0  0  0  0  0  # atno 10765 bound_to 10752
  140.5559  134.0239  155.7953 H   0  0  0  0  0  0  0  0  0  0  0  0  # atno 11005 bound_to 11000
  145.6082  141.0344  143.1981 LP  0  0  0  0  0  0  0  0  0  0  0  0  # atno 17320 bound_to 7965
  144.7344  139.7630  143.7335 LP  0  0  0  0  0  0  0  0  0  0  0  0  # atno 17321 bound_to 7965
  139.7484  143.8816  152.3070 LP  0  0  0  0  0  0  0  0  0  0  0  0  # atno 17342 bound_to 10162
  139.8661  144.7092  150.9042 LP  0  0  0  0  0  0  0  0  0  0  0  0  # atno 17343 bound_to 10162
  157.6207  130.8653  149.9104 LP  0  0  0  0  0  0  0  0  0  0  0  0  # atno 17370 bound_to 10713
  156.0737  130.3682  150.0723 LP  0  0  0  0  0  0  0  0  0  0  0  0  # atno 17371 bound_to 10713
  141.1144  133.9564  157.2850 LP  0  0  0  0  0  0  0  0  0  0  0  0  # atno 17394 bound_to 11000
  139.9432  135.0188  156.8772 LP  0  0  0  0  0  0  0  0  0  0  0  0  # atno 17395 bound_to 11000

$$$$
