AV-unprocessed.smi:720|AV-procd|sdf|3497|dock1
  -GOLD-   22720 0493D 1   1.00000     0.00000
 Structure written by MMmdl.
 47 49  0  0  0  0  0  0  0  0  2 V2000
  145.5280  135.6573  151.8386 C   0  0  0  0  0  0  0  0  0  0  0  0
  145.0874  137.0542  152.0585 N   0  3  0  0  0  0  0  0  0  0  0  0
  144.2558  137.1750  153.2766 C   0  0  0  0  0  0  0  0  0  0  0  0
  146.2013  138.0350  152.0462 C   0  0  0  0  0  0  0  0  0  0  0  0
  146.8033  138.2689  153.4447 C   0  0  0  0  0  0  0  0  0  0  0  0
  147.1370  139.6637  153.6573 N   0  0  0  0  0  0  0  0  0  0  0  0
  146.7631  140.7642  152.9118 C   0  0  0  0  0  0  0  0  0  0  0  0
  147.3133  141.8665  153.5028 C   0  0  0  0  0  0  0  0  0  0  0  0
  148.0122  141.3259  154.6170 C   0  0  0  0  0  0  0  0  0  0  0  0
  148.7281  142.1697  155.5032 N   0  0  0  0  0  0  0  0  0  0  0  0
  149.3228  141.8307  156.6642 C   0  0  0  0  0  0  0  0  0  0  0  0
  149.3560  140.6906  157.1243 O   0  0  0  0  0  0  0  0  0  0  0  0
  149.9093  142.8584  157.3040 N   0  0  0  0  0  0  0  0  0  0  0  0
  150.6345  142.8323  158.5763 C   0  0  2  0  0  0  0  0  0  0  0  0
  150.2661  144.0114  159.5078 C   0  0  0  0  0  0  0  0  0  0  0  0
  151.6229  144.7018  159.7405 C   0  0  1  0  0  0  0  0  0  0  0  0
  152.5211  143.7973  160.6061 C   0  0  0  0  0  0  0  0  0  0  0  0
  152.9011  142.6621  159.6349 C   0  0  0  0  0  0  0  0  0  0  0  0
  152.1460  143.0527  158.3506 C   0  0  2  0  0  0  0  0  0  0  0  0
  152.2748  144.5732  158.3706 C   0  0  0  0  0  0  0  0  0  0  0  0
  147.9061  140.0080  154.7119 N   0  0  0  0  0  0  0  0  0  0  0  0
  146.2238  135.3392  152.6160 H   0  0  0  0  0  0  0  0  0  0  0  0
  146.0153  135.5399  150.8714 H   0  0  0  0  0  0  0  0  0  0  0  0
  144.6734  134.9800  151.8513 H   0  0  0  0  0  0  0  0  0  0  0  0
  144.8331  136.9318  154.1697 H   0  0  0  0  0  0  0  0  0  0  0  0
  143.4003  136.5003  153.2283 H   0  0  0  0  0  0  0  0  0  0  0  0
  143.8682  138.1886  153.3849 H   0  0  0  0  0  0  0  0  0  0  0  0
  146.9864  137.6542  151.3908 H   0  0  0  0  0  0  0  0  0  0  0  0
  145.8650  138.9769  151.6101 H   0  0  0  0  0  0  0  0  0  0  0  0
  146.1094  137.9627  154.2276 H   0  0  0  0  0  0  0  0  0  0  0  0
  147.7107  137.6768  153.5739 H   0  0  0  0  0  0  0  0  0  0  0  0
  146.1426  140.6736  152.0324 H   0  0  0  0  0  0  0  0  0  0  0  0
  147.2271  142.8960  153.1878 H   0  0  0  0  0  0  0  0  0  0  0  0
  148.7918  143.1397  155.2317 H   0  0  0  0  0  0  0  0  0  0  0  0
  149.8587  143.7586  156.8488 H   0  0  0  0  0  0  0  0  0  0  0  0
  150.4667  141.8710  159.0655 H   0  0  0  0  0  0  0  0  0  0  0  0
  149.5681  144.6999  159.0289 H   0  0  0  0  0  0  0  0  0  0  0  0
  149.8095  143.6739  160.4391 H   0  0  0  0  0  0  0  0  0  0  0  0
  151.5359  145.7217  160.1158 H   0  0  0  0  0  0  0  0  0  0  0  0
  153.4120  144.3341  160.9341 H   0  0  0  0  0  0  0  0  0  0  0  0
  152.0049  143.4308  161.4943 H   0  0  0  0  0  0  0  0  0  0  0  0
  153.9782  142.6509  159.4625 H   0  0  0  0  0  0  0  0  0  0  0  0
  152.6128  141.6786  160.0076 H   0  0  0  0  0  0  0  0  0  0  0  0
  152.5382  142.5668  157.4563 H   0  0  0  0  0  0  0  0  0  0  0  0
  151.7143  145.0682  157.5756 H   0  0  0  0  0  0  0  0  0  0  0  0
  153.3092  144.9206  158.3481 H   0  0  0  0  0  0  0  0  0  0  0  0
  144.4843  137.2963  151.2848 H   0  0  0  0  0  0  0  0  0  0  0  0
  1  2  1  0  0  0  0
  1 22  1  0  0  0  0
  1 23  1  0  0  0  0
  1 24  1  0  0  0  0
  2  3  1  0  0  0  0
  2  4  1  0  0  0  0
  2 47  1  0  0  0  0
  3 25  1  0  0  0  0
  3 26  1  0  0  0  0
  3 27  1  0  0  0  0
  4  5  1  0  0  0  0
  4 28  1  0  0  0  0
  4 29  1  0  0  0  0
  5  6  1  0  0  0  0
  5 30  1  0  0  0  0
  5 31  1  0  0  0  0
  6 21  1  0  0  0  0
  6  7  1  0  0  0  0
  7  8  2  0  0  0  0
  7 32  1  0  0  0  0
  8  9  1  0  0  0  0
  8 33  1  0  0  0  0
  9 10  1  0  0  0  0
  9 21  2  0  0  0  0
 10 11  1  0  0  0  0
 10 34  1  0  0  0  0
 11 12  2  0  0  0  0
 11 13  1  0  0  0  0
 13 14  1  0  0  0  0
 13 35  1  0  0  0  0
 14 19  1  0  0  0  0
 14 15  1  0  0  0  0
 14 36  1  0  0  0  0
 15 16  1  0  0  0  0
 15 37  1  0  0  0  0
 15 38  1  0  0  0  0
 16 20  1  0  0  0  0
 16 17  1  0  0  0  0
 16 39  1  0  0  0  0
 17 18  1  0  0  0  0
 17 40  1  0  0  0  0
 17 41  1  0  0  0  0
 18 19  1  0  0  0  0
 18 42  1  0  0  0  0
 18 43  1  0  0  0  0
 19 20  1  0  0  0  0
 19 44  1  0  0  0  0
 20 45  1  0  0  0  0
 20 46  1  0  0  0  0
M  CHG  1   2   1
M  END
> <s_m_source_file>
AV-unprocessed.smi

> <i_m_source_file_index>
720

> <i_lp_mmshare_version>
43012

> <i_f3d_flags>
0

> <s_epik_input>
W0NIM11OKFtDSDNdKVtDSDJdW0NIMl1uMVtjSF1bY0hdYyhuMSlbTkhdQyg9TylbTkhdW0NASF0oW0NIMl1bQ0BIXTIzKVtDQEhdKFtDSDJdMylbQ0gyXVtDSDJdMg==

> <s_epik_cmdline>
J2VwaWtfcHl0aG9uJywgJy1waCcsICc3LjAnLCAnLXRuJywgJzgnLCAnLW1hJywgJzIwMCcsICctbWV0YWxfYmluZGluZycsICctaW1hZScsICc8aW5maWxlLm1hZT4nLCAnLW9tYWUnLCAnPG91dGZpbGUubWFlPic=

> <r_lp_tautomer_probability>
1

> <r_epik_Ionization_Penalty>
0.0272832

> <r_epik_Ionization_Penalty_Charging>
0.027243

> <r_epik_Ionization_Penalty_Neutral>
4.01867e-05

> <r_epik_State_Penalty>
0.0222865

> <r_epik_Charging_Adjusted_Penalty>
0.0495295

> <i_epik_Tot_Q>
1

> <i_epik_Tot_abs_Q>
1

> <r_epik_Metal_State_Penalty>
0.0222866

> <b_epik_Metal_Only>
0

> <s_lp_Force_Field>
OPLS_2005

> <r_lp_Energy>
59.8817

> <b_lp_Chiralities_Consistent>
1

> <s_lp_Variant>
AV-unprocessed.smi:720-3

> <Gold.Version>
5.8.1

> <Gold.Id.Protein>
6NUR|6NUR_protein|mol2

> <Gold.PLP.Fitness>
50.8766

> <Gold.PLP.PLP>
-42.4188

> <Gold.PLP.part.hbond>
-2.9943

> <Gold.PLP.part.metal>
0.0000

> <Gold.PLP.part.buried>
-4.7980

> <Gold.PLP.part.nonpolar>
-36.2071

> <Gold.PLP.part.repulsive>
0.2802

> <Gold.PLP.ligand.clash>
0.0000

> <Gold.PLP.ligand.torsion>
0.9061

> <Gold.PLP.Chemscore.Hbond>
2.8800

> <Gold.PLP.Chemscore.CHOScore>
0.4984

> <Gold.PLP.Chemscore.Metal>
0.0000

> <Gold.Chemscore.Hbonds>
donor molecule, donor type, donor heavy atom, donor atom, acceptor molecule, acceptor atom, score
      L1  H     2    47       P1 10171  0.94
      L1  H    10    34       P1  8028  1.00
      L1  H    13    35       P1  8028  0.88
      L1  C     7    32       P1 10175  0.55

> <Gold.PLP.Chemscore.Internal.Correction>
0.1348

> <Gold.Rescore>
     Score         DG    S(hbond)    S(metal)    S(lipo)     H(rot)  DE(clash)    DE(int)     intcor
     20.02     -23.78       2.79        0.00     112.24       1.62       1.62       2.14       ----

> <Gold.Chemscore.Fitness>
20.0182

> <Gold.Chemscore.DG>
-23.7751

> <Gold.Chemscore.ZeroCoef>
-5.4800

> <Gold.Chemscore.Hbond>
2.7882

> <Gold.Chemscore.Metal>
0.0000

> <Gold.Chemscore.Lipo>
112.2449

> <Gold.Chemscore.Internal_Hbond>
0.0000

> <Gold.Chemscore.DEClash>
1.6157

> <Gold.Chemscore.DEInternal>
2.1412

> <Gold.Chemscore.Rot>
1.6212

> <Gold.Chemscore.Internal.Correction>
   9.000000E+99

> <Gold.Chemscore.Hbonds>
donor molecule, donor type, donor heavy atom, donor atom, acceptor molecule, acceptor atom, score
      L1  H     2    47       P1 10171  0.87
      L1  H    10    34       P1  8028  0.94
      L1  H    13    35       P1  8028  0.86

> <Gold.Chemscore.Hbond.Weighted>
-9.3126

> <Gold.Chemscore.Metal.Weighted>
-0.0000

> <Gold.Chemscore.Lipo.Weighted>
-13.1326

> <Gold.Chemscore.Internal_Hbond.Weighted>
0.0000

> <Gold.Chemscore.DEClash.Weighted>
1.6157

> <Gold.Chemscore.DEInternal.Weighted>
2.1412

> <Gold.Chemscore.Rot.Weighted>
4.1502

> <Gold.Chemscore.Internal.Correction.Weighted>
   9.000000E+99

> <Gold.Protein.RotatedTorsions>
[ 6907 6896 6895 6894 ] final   30.62 input  -60.11 | X-H torsion
[ 7974 7965 7964 7962 ] final   77.53 input  175.53 | X-H torsion
[ 8008 7997 7996 7995 ] final  -62.69 input   59.86 | X-H torsion
[ 10167 10162 10161 10158 ] final -172.78 input  -65.29 | X-H torsion
[ 10718 10713 10712 10709 ] final  -94.03 input   66.30 | X-H torsion
[ 10763 10752 10751 10750 ] final   24.34 input  -60.55 | X-H torsion
[ 11005 11000 10999 10996 ] final   85.69 input  -57.11 | X-H torsion

> <Gold.Protein.ActiveResidues>
 VAL166  LYS551  ARG553  GLY616  TRP617  ASP618  TYR619  PRO620  LYS621  CYS622 
 ASP623  PHE694  ASN695  SER759  ASP760  ASP761  ALA762  ILE779  LEU786  VAL792 
 PHE793  MET794  SER795  GLU796  ALA797  LYS798  CYS799  TRP800  GLU811  SER814 

> <Gold.Protein.RotatedAtoms>
  152.0486  134.9668  160.0574 H   0  0  0  0  0  0  0  0  0  0  0  0  # atno 6907 bound_to 6896
  152.1078  133.4279  159.4625 H   0  0  0  0  0  0  0  0  0  0  0  0  # atno 6908 bound_to 6896
  150.6842  134.2603  159.4590 H   0  0  0  0  0  0  0  0  0  0  0  0  # atno 6909 bound_to 6896
  145.6888  139.2546  143.1771 H   0  0  0  0  0  0  0  0  0  0  0  0  # atno 7974 bound_to 7965
  154.4513  140.0991  156.6626 H   0  0  0  0  0  0  0  0  0  0  0  0  # atno 8008 bound_to 7997
  155.5276  140.3480  155.4401 H   0  0  0  0  0  0  0  0  0  0  0  0  # atno 8009 bound_to 7997
  156.0687  140.1344  156.9844 H   0  0  0  0  0  0  0  0  0  0  0  0  # atno 8010 bound_to 7997
  139.5725  144.1609  152.1404 H   0  0  0  0  0  0  0  0  0  0  0  0  # atno 10167 bound_to 10162
  156.0021  130.5051  150.5865 H   0  0  0  0  0  0  0  0  0  0  0  0  # atno 10718 bound_to 10713
  153.0771  135.6607  154.0123 H   0  0  0  0  0  0  0  0  0  0  0  0  # atno 10763 bound_to 10752
  153.9755  135.2960  155.3425 H   0  0  0  0  0  0  0  0  0  0  0  0  # atno 10764 bound_to 10752
  154.7161  135.5184  153.8811 H   0  0  0  0  0  0  0  0  0  0  0  0  # atno 10765 bound_to 10752
  139.8964  134.8304  156.2617 H   0  0  0  0  0  0  0  0  0  0  0  0  # atno 11005 bound_to 11000
  146.0900  140.7667  142.9600 LP  0  0  0  0  0  0  0  0  0  0  0  0  # atno 17320 bound_to 7965
  144.7003  140.3622  143.7161 LP  0  0  0  0  0  0  0  0  0  0  0  0  # atno 17321 bound_to 7965
  140.1145  144.5428  150.6903 LP  0  0  0  0  0  0  0  0  0  0  0  0  # atno 17342 bound_to 10162
  140.7009  143.2434  151.4867 LP  0  0  0  0  0  0  0  0  0  0  0  0  # atno 17343 bound_to 10162
  157.3736  131.0769  151.1536 LP  0  0  0  0  0  0  0  0  0  0  0  0  # atno 17370 bound_to 10713
  157.2282  130.6512  149.5838 LP  0  0  0  0  0  0  0  0  0  0  0  0  # atno 17371 bound_to 10713
  141.0158  133.7069  156.1186 LP  0  0  0  0  0  0  0  0  0  0  0  0  # atno 17394 bound_to 11000
  140.7304  134.4261  157.5566 LP  0  0  0  0  0  0  0  0  0  0  0  0  # atno 17395 bound_to 11000

$$$$
