AV-unprocessed.smi:2010|AV-procd|sdf|8151|dock1
  -GOLD-   2272010393D 1   1.00000     0.00000
 Structure written by MMmdl.
 40 41  0  0  0  0  0  0  0  0  2 V2000
  153.4044  142.1752  161.0466 C   0  0  0  0  0  0  0  0  0  0  0  0
  152.7899  141.3245  159.9262 C   0  0  0  0  0  0  0  0  0  0  0  0
  153.7983  140.3151  159.3605 C   0  0  0  0  0  0  0  0  0  0  0  0
  153.1770  139.4731  158.2348 C   0  0  0  0  0  0  0  0  0  0  0  0
  152.6211  140.3275  157.1638 N   0  0  0  0  0  0  0  0  0  0  0  0
  152.3245  139.5888  155.6140 S   0  0  0  0  0  0  0  0  0  0  0  0
  151.0419  140.1493  155.1615 O   0  0  0  0  0  0  0  0  0  0  0  0
  153.5086  139.8509  154.7774 O   0  0  0  0  0  0  0  0  0  0  0  0
  152.1892  138.0386  156.1040 N   0  5  0  0  0  0  0  0  0  0  0  0
  151.6488  136.9919  155.2356 C   0  0  2  0  0  0  0  0  0  0  0  0
  150.3699  137.5178  154.5647 C   0  0  0  0  0  0  0  0  0  0  0  0
  151.4424  135.6666  156.0207 C   0  0  0  0  0  0  0  0  0  0  0  0
  151.3470  134.4567  155.2070 N   0  0  0  0  0  0  0  0  0  0  0  0
  150.5347  134.2152  154.1151 C   0  0  0  0  0  0  0  0  0  0  0  0
  150.8149  132.9579  153.6628 C   0  0  0  0  0  0  0  0  0  0  0  0
  151.8383  132.5047  154.5405 C   0  0  0  0  0  0  0  0  0  0  0  0
  152.1637  133.4055  155.4521 N   0  0  0  0  0  0  0  0  0  0  0  0
  151.6606  141.3379  157.6468 C   0  0  0  0  0  0  0  0  0  0  0  0
  152.2679  142.1922  158.7723 C   0  0  0  0  0  0  0  0  0  0  0  0
  154.2571  142.7509  160.6853 H   0  0  0  0  0  0  0  0  0  0  0  0
  153.7499  141.5487  161.8695 H   0  0  0  0  0  0  0  0  0  0  0  0
  152.6749  142.8776  161.4506 H   0  0  0  0  0  0  0  0  0  0  0  0
  151.9492  140.7718  160.3481 H   0  0  0  0  0  0  0  0  0  0  0  0
  154.6762  140.8392  158.9802 H   0  0  0  0  0  0  0  0  0  0  0  0
  154.1537  139.6561  160.1531 H   0  0  0  0  0  0  0  0  0  0  0  0
  153.9284  138.7993  157.8254 H   0  0  0  0  0  0  0  0  0  0  0  0
  152.3800  138.8426  158.6304 H   0  0  0  0  0  0  0  0  0  0  0  0
  152.3450  136.7629  154.4287 H   0  0  0  0  0  0  0  0  0  0  0  0
  149.9225  136.7554  153.9268 H   0  0  0  0  0  0  0  0  0  0  0  0
  150.5854  138.3837  153.9379 H   0  0  0  0  0  0  0  0  0  0  0  0
  149.6219  137.8219  155.2978 H   0  0  0  0  0  0  0  0  0  0  0  0
  152.2872  135.5295  156.6964 H   0  0  0  0  0  0  0  0  0  0  0  0
  150.5666  135.7306  156.6664 H   0  0  0  0  0  0  0  0  0  0  0  0
  149.8281  134.9508  153.7600 H   0  0  0  0  0  0  0  0  0  0  0  0
  150.3603  132.4419  152.8303 H   0  0  0  0  0  0  0  0  0  0  0  0
  152.3554  131.5567  154.5391 H   0  0  0  0  0  0  0  0  0  0  0  0
  151.3671  141.9935  156.8276 H   0  0  0  0  0  0  0  0  0  0  0  0
  150.7570  140.8329  157.9904 H   0  0  0  0  0  0  0  0  0  0  0  0
  151.5190  142.8938  159.1411 H   0  0  0  0  0  0  0  0  0  0  0  0
  153.0821  142.7950  158.3668 H   0  0  0  0  0  0  0  0  0  0  0  0
  1  2  1  0  0  0  0
  1 20  1  0  0  0  0
  1 21  1  0  0  0  0
  1 22  1  0  0  0  0
  2 19  1  0  0  0  0
  2  3  1  0  0  0  0
  2 23  1  0  0  0  0
  3  4  1  0  0  0  0
  3 24  1  0  0  0  0
  3 25  1  0  0  0  0
  4  5  1  0  0  0  0
  4 26  1  0  0  0  0
  4 27  1  0  0  0  0
  5  6  1  0  0  0  0
  5 18  1  0  0  0  0
  6  7  2  0  0  0  0
  6  8  2  0  0  0  0
  6  9  1  0  0  0  0
  9 10  1  0  0  0  0
 10 11  1  0  0  0  0
 10 12  1  0  0  0  0
 10 28  1  0  0  0  0
 11 29  1  0  0  0  0
 11 30  1  0  0  0  0
 11 31  1  0  0  0  0
 12 13  1  0  0  0  0
 12 32  1  0  0  0  0
 12 33  1  0  0  0  0
 13 17  1  0  0  0  0
 13 14  1  0  0  0  0
 14 15  2  0  0  0  0
 14 34  1  0  0  0  0
 15 16  1  0  0  0  0
 15 35  1  0  0  0  0
 16 17  2  0  0  0  0
 16 36  1  0  0  0  0
 18 19  1  0  0  0  0
 18 37  1  0  0  0  0
 18 38  1  0  0  0  0
 19 39  1  0  0  0  0
 19 40  1  0  0  0  0
M  CHG  1   9  -1
M  END
> <s_m_source_file>
AV-unprocessed.smi

> <i_m_source_file_index>
2010

> <i_lp_mmshare_version>
43012

> <i_f3d_flags>
0

> <s_epik_input>
W0NIM11bQ0hdMVtDSDJdW0NIMl1OKFtDSDJdW0NIMl0xKVMoPU8pKD1PKVtOSF1bQ0BIXShbQ0gzXSlbQ0gyXW4yW2NIXVtjSF1bY0hdbjI=

> <s_epik_cmdline>
J2VwaWtfcHl0aG9uJywgJy1waCcsICc3LjAnLCAnLXRuJywgJzgnLCAnLW1hJywgJzIwMCcsICctbWV0YWxfYmluZGluZycsICctaW1hZScsICc8aW5maWxlLm1hZT4nLCAnLW9tYWUnLCAnPG91dGZpbGUubWFlPic=

> <r_lp_tautomer_probability>
1

> <r_epik_Ionization_Penalty>
1.75622

> <r_epik_Ionization_Penalty_Charging>
1.7562

> <r_epik_Ionization_Penalty_Neutral>
2.39925e-05

> <r_epik_State_Penalty>
1.86645

> <r_epik_Charging_Adjusted_Penalty>
3.62264

> <i_epik_Tot_Q>
-1

> <i_epik_Tot_abs_Q>
1

> <r_epik_Metal_State_Penalty>
0.460135

> <b_epik_Metal_Only>
0

> <s_lp_Force_Field>
OPLS_2005

> <r_lp_Energy>
7.98706

> <b_lp_Chiralities_Consistent>
1

> <s_lp_Variant>
AV-unprocessed.smi:2010-3

> <Gold.Version>
5.8.1

> <Gold.Id.Protein>
6NUR|6NUR_protein|mol2

> <Gold.PLP.Fitness>
42.8136

> <Gold.PLP.PLP>
-34.9614

> <Gold.PLP.part.hbond>
-3.0801

> <Gold.PLP.part.metal>
0.0000

> <Gold.PLP.part.buried>
-4.4860

> <Gold.PLP.part.nonpolar>
-26.8361

> <Gold.PLP.part.repulsive>
0.0440

> <Gold.PLP.ligand.clash>
0.0000

> <Gold.PLP.ligand.torsion>
1.4587

> <Gold.PLP.Chemscore.Hbond>
2.0000

> <Gold.PLP.Chemscore.CHOScore>
1.0000

> <Gold.PLP.Chemscore.Metal>
0.0000

> <Gold.Chemscore.Hbonds>
donor molecule, donor type, donor heavy atom, donor atom, acceptor molecule, acceptor atom, score
      P1  H  7989  7998       L1     7  0.90
      P1  H  7997  8010       L1     8  0.64
      L1  C    14    34       P1  7948  0.39

> <Gold.PLP.Chemscore.Internal.Correction>
1.7695

> <Gold.Rescore>
     Score         DG    S(hbond)    S(metal)    S(lipo)     H(rot)  DE(clash)    DE(int)     intcor
     13.52     -16.41       1.67        0.00      79.50       1.54       0.05       2.84       ----

> <Gold.Chemscore.Fitness>
13.5180

> <Gold.Chemscore.DG>
-16.4071

> <Gold.Chemscore.ZeroCoef>
-5.4800

> <Gold.Chemscore.Hbond>
1.6653

> <Gold.Chemscore.Metal>
0.0000

> <Gold.Chemscore.Lipo>
79.5001

> <Gold.Chemscore.Internal_Hbond>
0.0000

> <Gold.Chemscore.DEClash>
0.0480

> <Gold.Chemscore.DEInternal>
2.8411

> <Gold.Chemscore.Rot>
1.5377

> <Gold.Chemscore.Internal.Correction>
   9.000000E+99

> <Gold.Chemscore.Hbonds>
donor molecule, donor type, donor heavy atom, donor atom, acceptor molecule, acceptor atom, score
      P1  H  7989  7998       L1     7  0.18
      P1  H  7997  8010       L1     8  0.05

> <Gold.Chemscore.Hbond.Weighted>
-5.5621

> <Gold.Chemscore.Metal.Weighted>
-0.0000

> <Gold.Chemscore.Lipo.Weighted>
-9.3015

> <Gold.Chemscore.Internal_Hbond.Weighted>
0.0000

> <Gold.Chemscore.DEClash.Weighted>
0.0480

> <Gold.Chemscore.DEInternal.Weighted>
2.8411

> <Gold.Chemscore.Rot.Weighted>
3.9365

> <Gold.Chemscore.Internal.Correction.Weighted>
   9.000000E+99

> <Gold.Protein.RotatedTorsions>
[ 6907 6896 6895 6894 ] final  116.38 input  -60.11 | X-H torsion
[ 7974 7965 7964 7962 ] final   -6.06 input  175.53 | X-H torsion
[ 8008 7997 7996 7995 ] final   95.44 input   59.86 | X-H torsion
[ 10167 10162 10161 10158 ] final  169.62 input  -65.29 | X-H torsion
[ 10718 10713 10712 10709 ] final  -88.15 input   66.30 | X-H torsion
[ 10763 10752 10751 10750 ] final  -38.28 input  -60.55 | X-H torsion
[ 11005 11000 10999 10996 ] final   43.74 input  -57.11 | X-H torsion

> <Gold.Protein.ActiveResidues>
 VAL166  LYS551  ARG553  GLY616  TRP617  ASP618  TYR619  PRO620  LYS621  CYS622 
 ASP623  PHE694  ASN695  SER759  ASP760  ASP761  ALA762  ILE779  LEU786  VAL792 
 PHE793  MET794  SER795  GLU796  ALA797  LYS798  CYS799  TRP800  GLU811  SER814 

> <Gold.Protein.RotatedAtoms>
  152.4681  133.7969  159.6931 H   0  0  0  0  0  0  0  0  0  0  0  0  # atno 6907 bound_to 6896
  150.8656  133.7569  159.2984 H   0  0  0  0  0  0  0  0  0  0  0  0  # atno 6908 bound_to 6896
  151.5121  135.1068  159.9908 H   0  0  0  0  0  0  0  0  0  0  0  0  # atno 6909 bound_to 6896
  146.2339  140.2114  142.8335 H   0  0  0  0  0  0  0  0  0  0  0  0  # atno 7974 bound_to 7965
  156.0689  140.3286  155.7552 H   0  0  0  0  0  0  0  0  0  0  0  0  # atno 8008 bound_to 7997
  155.5337  140.0595  157.2901 H   0  0  0  0  0  0  0  0  0  0  0  0  # atno 8009 bound_to 7997
  154.4520  140.1923  156.0509 H   0  0  0  0  0  0  0  0  0  0  0  0  # atno 8010 bound_to 7997
  139.4997  144.3686  151.9749 H   0  0  0  0  0  0  0  0  0  0  0  0  # atno 10167 bound_to 10162
  155.9984  130.4825  150.4975 H   0  0  0  0  0  0  0  0  0  0  0  0  # atno 10718 bound_to 10713
  153.9103  135.6793  153.4751 H   0  0  0  0  0  0  0  0  0  0  0  0  # atno 10763 bound_to 10752
  153.1082  135.4795  154.8986 H   0  0  0  0  0  0  0  0  0  0  0  0  # atno 10764 bound_to 10752
  154.7530  135.3190  154.8477 H   0  0  0  0  0  0  0  0  0  0  0  0  # atno 10765 bound_to 10752
  140.1616  134.4334  155.8314 H   0  0  0  0  0  0  0  0  0  0  0  0  # atno 11005 bound_to 11000
  144.9703  140.8362  143.5459 LP  0  0  0  0  0  0  0  0  0  0  0  0  # atno 17320 bound_to 7965
  145.2095  139.2212  143.5150 LP  0  0  0  0  0  0  0  0  0  0  0  0  # atno 17321 bound_to 7965
  140.3122  144.3524  150.6031 LP  0  0  0  0  0  0  0  0  0  0  0  0  # atno 17342 bound_to 10162
  140.5789  143.2174  151.7464 LP  0  0  0  0  0  0  0  0  0  0  0  0  # atno 17343 bound_to 10162
  157.2963  131.0636  151.2099 LP  0  0  0  0  0  0  0  0  0  0  0  0  # atno 17370 bound_to 10713
  157.3094  130.6882  149.6207 LP  0  0  0  0  0  0  0  0  0  0  0  0  # atno 17371 bound_to 10713
  141.2210  133.6916  156.7604 LP  0  0  0  0  0  0  0  0  0  0  0  0  # atno 17394 bound_to 11000
  140.2483  134.8560  157.3642 LP  0  0  0  0  0  0  0  0  0  0  0  0  # atno 17395 bound_to 11000

$$$$
