AV-unprocessed.smi:1116|AV-procd|sdf|4810|dock1
  -GOLD-   22720 3363D 1   1.00000     0.00000
 Structure written by MMmdl.
 35 36  0  0  0  0  0  0  0  0  2 V2000
  152.6081  143.0394  161.9836 C   0  0  0  0  0  0  0  0  0  0  0  0
  151.9868  143.0181  160.6292 C   0  0  0  0  0  0  0  0  0  0  0  0
  151.7917  141.9013  159.9235 N   0  0  0  0  0  0  0  0  0  0  0  0
  151.1961  142.1451  158.6820 C   0  0  0  0  0  0  0  0  0  0  0  0
  150.9076  141.0036  157.7553 C   0  0  0  0  0  0  0  0  0  0  0  0
  152.1680  140.1819  157.4359 C   0  0  0  0  0  0  0  0  0  0  0  0
  151.8880  139.1105  156.4873 N   0  0  0  0  0  0  0  0  0  0  0  0
  151.2364  139.2599  155.3239 C   0  0  0  0  0  0  0  0  0  0  0  0
  150.8055  140.3427  154.9261 O   0  0  0  0  0  0  0  0  0  0  0  0
  151.0572  137.9938  154.4825 C   0  0  0  0  0  0  0  0  0  0  0  0
  150.2732  136.8892  155.2169 C   0  0  0  0  0  0  0  0  0  0  0  0
  150.6727  135.4700  154.7618 C   0  0  1  0  0  0  0  0  0  0  0  0
  152.0071  135.1203  155.2178 N   0  5  0  0  0  0  0  0  0  0  0  0
  151.9221  134.0023  155.9769 C   0  0  0  0  0  0  0  0  0  0  0  0
  152.8381  133.3971  156.5295 O   0  0  0  0  0  0  0  0  0  0  0  0
  150.6530  133.5934  156.0766 N   0  0  0  0  0  0  0  0  0  0  0  0
  149.8253  134.3930  155.4119 C   0  0  0  0  0  0  0  0  0  0  0  0
  148.6020  134.2963  155.3233 O   0  0  0  0  0  0  0  0  0  0  0  0
  150.9384  143.4747  158.4578 C   0  0  0  0  0  0  0  0  0  0  0  0
  151.4369  144.4686  159.7995 S   0  0  0  0  0  0  0  0  0  0  0  0
  152.9504  142.0430  162.2654 H   0  0  0  0  0  0  0  0  0  0  0  0
  151.8816  143.3812  162.7207 H   0  0  0  0  0  0  0  0  0  0  0  0
  153.4620  143.7168  161.9912 H   0  0  0  0  0  0  0  0  0  0  0  0
  150.1477  140.3577  158.1967 H   0  0  0  0  0  0  0  0  0  0  0  0
  150.4759  141.3799  156.8270 H   0  0  0  0  0  0  0  0  0  0  0  0
  152.9301  140.8278  156.9986 H   0  0  0  0  0  0  0  0  0  0  0  0
  152.5988  139.7672  158.3488 H   0  0  0  0  0  0  0  0  0  0  0  0
  152.2051  138.1843  156.7354 H   0  0  0  0  0  0  0  0  0  0  0  0
  150.5424  138.2638  153.5600 H   0  0  0  0  0  0  0  0  0  0  0  0
  152.0388  137.6164  154.1920 H   0  0  0  0  0  0  0  0  0  0  0  0
  150.4111  136.9890  156.2955 H   0  0  0  0  0  0  0  0  0  0  0  0
  149.2068  137.0350  155.0351 H   0  0  0  0  0  0  0  0  0  0  0  0
  150.5648  135.3810  153.6798 H   0  0  0  0  0  0  0  0  0  0  0  0
  150.3599  132.7829  156.6011 H   0  0  0  0  0  0  0  0  0  0  0  0
  150.4879  143.9287  157.5876 H   0  0  0  0  0  0  0  0  0  0  0  0
  1  2  1  0  0  0  0
  1 21  1  0  0  0  0
  1 22  1  0  0  0  0
  1 23  1  0  0  0  0
  2 20  1  0  0  0  0
  2  3  2  0  0  0  0
  3  4  1  0  0  0  0
  4  5  1  0  0  0  0
  4 19  2  0  0  0  0
  5  6  1  0  0  0  0
  5 24  1  0  0  0  0
  5 25  1  0  0  0  0
  6  7  1  0  0  0  0
  6 26  1  0  0  0  0
  6 27  1  0  0  0  0
  7  8  1  0  0  0  0
  7 28  1  0  0  0  0
  8  9  2  0  0  0  0
  8 10  1  0  0  0  0
 10 11  1  0  0  0  0
 10 29  1  0  0  0  0
 10 30  1  0  0  0  0
 11 12  1  0  0  0  0
 11 31  1  0  0  0  0
 11 32  1  0  0  0  0
 12 17  1  0  0  0  0
 12 13  1  0  0  0  0
 12 33  1  0  0  0  0
 13 14  1  0  0  0  0
 14 15  2  0  0  0  0
 14 16  1  0  0  0  0
 16 17  1  0  0  0  0
 16 34  1  0  0  0  0
 17 18  2  0  0  0  0
 19 20  1  0  0  0  0
 19 35  1  0  0  0  0
M  CHG  1  13  -1
M  END
> <s_m_source_file>
AV-unprocessed.smi

> <i_m_source_file_index>
1116

> <i_lp_mmshare_version>
43012

> <i_f3d_flags>
0

> <s_epik_input>
W0NIM11jMW5jKFtjSF1zMSlbQ0gyXVtDSDJdW05IXUMoPU8pW0NIMl1bQ0gyXVtDQEBIXTJbTkhdQyg9TylbTkhdQzI9Tw==

> <s_epik_cmdline>
J2VwaWtfcHl0aG9uJywgJy1waCcsICc3LjAnLCAnLXRuJywgJzgnLCAnLW1hJywgJzIwMCcsICctbWV0YWxfYmluZGluZycsICctaW1hZScsICc8aW5maWxlLm1hZT4nLCAnLW9tYWUnLCAnPG91dGZpbGUubWFlPic=

> <r_lp_tautomer_probability>
1

> <r_epik_Ionization_Penalty>
5.7962

> <r_epik_Ionization_Penalty_Charging>
5.79516

> <r_epik_Ionization_Penalty_Neutral>
0.00104588

> <r_epik_State_Penalty>
5.80096

> <r_epik_Charging_Adjusted_Penalty>
11.5961

> <i_epik_Tot_Q>
-1

> <i_epik_Tot_abs_Q>
1

> <r_epik_Metal_State_Penalty>
2.1448

> <b_epik_Metal_Only>
1

> <s_lp_Force_Field>
OPLS_2005

> <r_lp_Energy>
5.74046

> <b_lp_Chiralities_Consistent>
1

> <s_lp_Variant>
AV-unprocessed.smi:1116-4

> <Gold.Version>
5.8.1

> <Gold.Id.Protein>
6NUR|6NUR_protein|mol2

> <Gold.PLP.Fitness>
48.7916

> <Gold.PLP.PLP>
-35.7419

> <Gold.PLP.part.hbond>
-2.8311

> <Gold.PLP.part.metal>
0.0000

> <Gold.PLP.part.buried>
-4.8998

> <Gold.PLP.part.nonpolar>
-28.7039

> <Gold.PLP.part.repulsive>
0.3354

> <Gold.PLP.ligand.clash>
0.0000

> <Gold.PLP.ligand.torsion>
0.2754

> <Gold.PLP.Chemscore.Hbond>
3.4705

> <Gold.PLP.Chemscore.CHOScore>
1.0000

> <Gold.PLP.Chemscore.Metal>
0.0000

> <Gold.Chemscore.Hbonds>
donor molecule, donor type, donor heavy atom, donor atom, acceptor molecule, acceptor atom, score
      P1  H  7989  7998       L1     9  1.00
      L1  C    19    35       P1  8028  0.81

> <Gold.PLP.Chemscore.Internal.Correction>
0.1890

> <Gold.Rescore>
     Score         DG    S(hbond)    S(metal)    S(lipo)     H(rot)  DE(clash)    DE(int)     intcor
     15.28     -15.55       2.39        0.00      78.51       2.77       0.00       0.27       ----

> <Gold.Chemscore.Fitness>
15.2791

> <Gold.Chemscore.DG>
-15.5505

> <Gold.Chemscore.ZeroCoef>
-5.4800

> <Gold.Chemscore.Hbond>
2.3872

> <Gold.Chemscore.Metal>
0.0000

> <Gold.Chemscore.Lipo>
78.5136

> <Gold.Chemscore.Internal_Hbond>
0.0000

> <Gold.Chemscore.DEClash>
0.0000

> <Gold.Chemscore.DEInternal>
0.2714

> <Gold.Chemscore.Rot>
2.7691

> <Gold.Chemscore.Internal.Correction>
   9.000000E+99

> <Gold.Chemscore.Hbonds>
donor molecule, donor type, donor heavy atom, donor atom, acceptor molecule, acceptor atom, score
      P1  H  7989  7998       L1     9  0.81
      P1  H 10752 10763       L1    13  0.05

> <Gold.Chemscore.Hbond.Weighted>
-7.9733

> <Gold.Chemscore.Metal.Weighted>
-0.0000

> <Gold.Chemscore.Lipo.Weighted>
-9.1861

> <Gold.Chemscore.Internal_Hbond.Weighted>
0.0000

> <Gold.Chemscore.DEClash.Weighted>
0.0000

> <Gold.Chemscore.DEInternal.Weighted>
0.2714

> <Gold.Chemscore.Rot.Weighted>
7.0889

> <Gold.Chemscore.Internal.Correction.Weighted>
   9.000000E+99

> <Gold.Protein.RotatedTorsions>
[ 6907 6896 6895 6894 ] final   73.78 input  -60.11 | X-H torsion
[ 7974 7965 7964 7962 ] final  155.94 input  175.53 | X-H torsion
[ 8008 7997 7996 7995 ] final   -2.99 input   59.86 | X-H torsion
[ 10167 10162 10161 10158 ] final  177.45 input  -65.29 | X-H torsion
[ 10718 10713 10712 10709 ] final  -65.41 input   66.30 | X-H torsion
[ 10763 10752 10751 10750 ] final   79.16 input  -60.55 | X-H torsion
[ 11005 11000 10999 10996 ] final   61.57 input  -57.11 | X-H torsion

> <Gold.Protein.ActiveResidues>
 VAL166  LYS551  ARG553  GLY616  TRP617  ASP618  TYR619  PRO620  LYS621  CYS622 
 ASP623  PHE694  ASN695  SER759  ASP760  ASP761  ALA762  ILE779  LEU786  VAL792 
 PHE793  MET794  SER795  GLU796  ALA797  LYS798  CYS799  TRP800  GLU811  SER814 

> <Gold.Protein.RotatedAtoms>
  152.4941  134.4370  159.9530 H   0  0  0  0  0  0  0  0  0  0  0  0  # atno 6907 bound_to 6896
  151.4352  133.3653  159.2782 H   0  0  0  0  0  0  0  0  0  0  0  0  # atno 6908 bound_to 6896
  150.9126  134.8567  159.7495 H   0  0  0  0  0  0  0  0  0  0  0  0  # atno 6909 bound_to 6896
  144.7993  139.7136  143.6188 H   0  0  0  0  0  0  0  0  0  0  0  0  # atno 7974 bound_to 7965
  154.6298  140.2520  155.7448 H   0  0  0  0  0  0  0  0  0  0  0  0  # atno 8008 bound_to 7997
  156.2473  140.2909  156.0564 H   0  0  0  0  0  0  0  0  0  0  0  0  # atno 8009 bound_to 7997
  155.1764  140.0388  157.2863 H   0  0  0  0  0  0  0  0  0  0  0  0  # atno 8010 bound_to 7997
  139.5254  144.2797  152.0557 H   0  0  0  0  0  0  0  0  0  0  0  0  # atno 10167 bound_to 10162
  156.0671  130.4247  150.1560 H   0  0  0  0  0  0  0  0  0  0  0  0  # atno 10718 bound_to 10713
  153.0931  135.4850  154.8727 H   0  0  0  0  0  0  0  0  0  0  0  0  # atno 10763 bound_to 10752
  154.7292  135.3056  154.8922 H   0  0  0  0  0  0  0  0  0  0  0  0  # atno 10764 bound_to 10752
  153.9562  135.6817  153.4798 H   0  0  0  0  0  0  0  0  0  0  0  0  # atno 10765 bound_to 10752
  140.0152  134.6235  155.9720 H   0  0  0  0  0  0  0  0  0  0  0  0  # atno 11005 bound_to 11000
  146.2270  139.5742  142.9580 LP  0  0  0  0  0  0  0  0  0  0  0  0  # atno 17320 bound_to 7965
  145.5593  141.0406  143.2235 LP  0  0  0  0  0  0  0  0  0  0  0  0  # atno 17321 bound_to 7965
  140.2253  144.4424  150.6324 LP  0  0  0  0  0  0  0  0  0  0  0  0  # atno 17342 bound_to 10162
  140.6391  143.2200  151.6329 LP  0  0  0  0  0  0  0  0  0  0  0  0  # atno 17343 bound_to 10162
  156.9618  130.9807  151.3477 LP  0  0  0  0  0  0  0  0  0  0  0  0  # atno 17370 bound_to 10713
  157.5720  130.8317  149.8404 LP  0  0  0  0  0  0  0  0  0  0  0  0  # atno 17371 bound_to 10713
  141.1738  133.6539  156.4751 LP  0  0  0  0  0  0  0  0  0  0  0  0  # atno 17394 bound_to 11000
  140.4483  134.6952  157.5027 LP  0  0  0  0  0  0  0  0  0  0  0  0  # atno 17395 bound_to 11000

$$$$
