AV-unprocessed.smi:1258|AV-procd|sdf|5287|dock3
  -GOLD-   22720 4403D 1   1.00000     0.00000
 Structure written by MMmdl.
 33 34  0  0  0  0  0  0  0  0  1 V2000
  151.3046  145.4979  160.0805 C   0  0  0  0  0  0  0  0  0  0  0  0
  151.8046  144.0523  160.2113 C   0  0  2  0  0  0  0  0  0  0  0  0
  152.3293  143.7641  161.6311 C   0  0  0  0  0  0  0  0  0  0  0  0
  152.8387  142.3201  161.7665 C   0  0  0  0  0  0  0  0  0  0  0  0
  153.9106  142.0000  160.7091 C   0  0  0  0  0  0  0  0  0  0  0  0
  153.4151  142.2842  159.2781 C   0  0  1  0  0  0  0  0  0  0  0  0
  152.3820  141.3196  158.9111 N   0  0  0  0  0  0  0  0  0  0  0  0
  152.5811  140.0232  158.6254 C   0  0  0  0  0  0  0  0  0  0  0  0
  153.6709  139.4636  158.7378 O   0  0  0  0  0  0  0  0  0  0  0  0
  151.3657  139.2397  158.1234 C   0  0  0  0  0  0  0  0  0  0  0  0
  150.9155  139.7301  156.8319 N   0  0  0  0  0  0  0  0  0  0  0  0
  151.5262  139.7614  155.6455 C   0  0  0  0  0  0  0  0  0  0  0  0
  150.7438  140.2687  154.7056 N   0  0  0  0  0  0  0  0  0  0  0  0
  149.5781  140.5639  155.3925 N   0  0  0  0  0  0  0  0  0  0  0  0
  149.6741  140.2475  156.6547 N   0  0  0  0  0  0  0  0  0  0  0  0
  152.8914  143.7335  159.1625 C   0  0  0  0  0  0  0  0  0  0  0  0
  152.1089  146.2140  160.2522 H   0  0  0  0  0  0  0  0  0  0  0  0
  150.5137  145.7061  160.8017 H   0  0  0  0  0  0  0  0  0  0  0  0
  150.8995  145.6843  159.0854 H   0  0  0  0  0  0  0  0  0  0  0  0
  150.9501  143.3988  160.0281 H   0  0  0  0  0  0  0  0  0  0  0  0
  153.1368  144.4566  161.8727 H   0  0  0  0  0  0  0  0  0  0  0  0
  151.5413  143.9425  162.3637 H   0  0  0  0  0  0  0  0  0  0  0  0
  153.2480  142.1653  162.7651 H   0  0  0  0  0  0  0  0  0  0  0  0
  152.0021  141.6271  161.6686 H   0  0  0  0  0  0  0  0  0  0  0  0
  154.7970  142.6041  160.9069 H   0  0  0  0  0  0  0  0  0  0  0  0
  154.2264  140.9600  160.8001 H   0  0  0  0  0  0  0  0  0  0  0  0
  154.2571  142.1567  158.5954 H   0  0  0  0  0  0  0  0  0  0  0  0
  151.4481  141.6866  158.8009 H   0  0  0  0  0  0  0  0  0  0  0  0
  151.6084  138.1795  158.0364 H   0  0  0  0  0  0  0  0  0  0  0  0
  150.5498  139.3292  158.8413 H   0  0  0  0  0  0  0  0  0  0  0  0
  152.5307  139.4055  155.4706 H   0  0  0  0  0  0  0  0  0  0  0  0
  152.5071  143.9171  158.1583 H   0  0  0  0  0  0  0  0  0  0  0  0
  153.7275  144.4224  159.2912 H   0  0  0  0  0  0  0  0  0  0  0  0
  1  2  1  0  0  0  0
  1 17  1  0  0  0  0
  1 18  1  0  0  0  0
  1 19  1  0  0  0  0
  2 16  1  0  0  0  0
  2  3  1  0  0  0  0
  2 20  1  0  0  0  0
  3  4  1  0  0  0  0
  3 21  1  0  0  0  0
  3 22  1  0  0  0  0
  4  5  1  0  0  0  0
  4 23  1  0  0  0  0
  4 24  1  0  0  0  0
  5  6  1  0  0  0  0
  5 25  1  0  0  0  0
  5 26  1  0  0  0  0
  6  7  1  0  0  0  0
  6 16  1  0  0  0  0
  6 27  1  0  0  0  0
  7  8  1  0  0  0  0
  7 28  1  0  0  0  0
  8  9  2  0  0  0  0
  8 10  1  0  0  0  0
 10 11  1  0  0  0  0
 10 29  1  0  0  0  0
 10 30  1  0  0  0  0
 11 15  1  0  0  0  0
 11 12  1  0  0  0  0
 12 13  2  0  0  0  0
 12 31  1  0  0  0  0
 13 14  1  0  0  0  0
 14 15  2  0  0  0  0
 16 32  1  0  0  0  0
 16 33  1  0  0  0  0
M  END
> <s_m_source_file>
AV-unprocessed.smi

> <i_m_source_file_index>
1258

> <i_lp_mmshare_version>
43012

> <i_f3d_flags>
0

> <s_epik_input>
W0NIM11bQ0BASF0xW0NIMl1bQ0gyXVtDSDJdW0NASF0oW0NIMl0xKVtOSF1DKD1PKVtDSDJdbjJbY0hdbm5uMg==

> <s_epik_cmdline>
J2VwaWtfcHl0aG9uJywgJy1waCcsICc3LjAnLCAnLXRuJywgJzgnLCAnLW1hJywgJzIwMCcsICctbWV0YWxfYmluZGluZycsICctaW1hZScsICc8aW5maWxlLm1hZT4nLCAnLW9tYWUnLCAnPG91dGZpbGUubWFlPic=

> <r_lp_tautomer_probability>
1

> <r_epik_Ionization_Penalty>
5.03816e-07

> <r_epik_Ionization_Penalty_Charging>
0

> <r_epik_Ionization_Penalty_Neutral>
5.03816e-07

> <r_epik_State_Penalty>
-0

> <r_epik_Charging_Adjusted_Penalty>
0

> <i_epik_Tot_Q>
0

> <i_epik_Tot_abs_Q>
0

> <r_epik_Metal_State_Penalty>
-0

> <b_epik_Metal_Only>
0

> <s_lp_Force_Field>
OPLS_2005

> <r_lp_Energy>
9.71314

> <b_lp_Chiralities_Consistent>
1

> <s_lp_Variant>
AV-unprocessed.smi:1258-1

> <Gold.Version>
5.8.1

> <Gold.Id.Protein>
6NUR|6NUR_protein|mol2

> <Gold.PLP.Fitness>
42.4541

> <Gold.PLP.PLP>
-36.8565

> <Gold.PLP.part.hbond>
-2.0000

> <Gold.PLP.part.metal>
0.0000

> <Gold.PLP.part.buried>
-5.5648

> <Gold.PLP.part.nonpolar>
-29.7943

> <Gold.PLP.part.repulsive>
0.2698

> <Gold.PLP.ligand.clash>
0.0000

> <Gold.PLP.ligand.torsion>
0.2049

> <Gold.PLP.Chemscore.Hbond>
2.0000

> <Gold.PLP.Chemscore.CHOScore>
0.0000

> <Gold.PLP.Chemscore.Metal>
0.0000

> <Gold.Chemscore.Hbonds>
donor molecule, donor type, donor heavy atom, donor atom, acceptor molecule, acceptor atom, score
      P1  H  7989  7998       L1    13  1.00
      P1  H  7997  8009       L1     9  1.00

> <Gold.PLP.Chemscore.Internal.Correction>
0.0075

> <Gold.Rescore>
     Score         DG    S(hbond)    S(metal)    S(lipo)     H(rot)  DE(clash)    DE(int)     intcor
     16.14     -16.48       1.72        0.00      86.78       1.92       0.05       0.30       ----

> <Gold.Chemscore.Fitness>
16.1358

> <Gold.Chemscore.DG>
-16.4849

> <Gold.Chemscore.ZeroCoef>
-5.4800

> <Gold.Chemscore.Hbond>
1.7243

> <Gold.Chemscore.Metal>
0.0000

> <Gold.Chemscore.Lipo>
86.7792

> <Gold.Chemscore.Internal_Hbond>
0.0000

> <Gold.Chemscore.DEClash>
0.0515

> <Gold.Chemscore.DEInternal>
0.2976

> <Gold.Chemscore.Rot>
1.9169

> <Gold.Chemscore.Internal.Correction>
   9.000000E+99

> <Gold.Chemscore.Hbonds>
donor molecule, donor type, donor heavy atom, donor atom, acceptor molecule, acceptor atom, score
      P1  H  7989  7998       L1    13  0.77
      P1  H  7997  8009       L1     9  0.49

> <Gold.Chemscore.Hbond.Weighted>
-5.7590

> <Gold.Chemscore.Metal.Weighted>
-0.0000

> <Gold.Chemscore.Lipo.Weighted>
-10.1532

> <Gold.Chemscore.Internal_Hbond.Weighted>
0.0000

> <Gold.Chemscore.DEClash.Weighted>
0.0515

> <Gold.Chemscore.DEInternal.Weighted>
0.2976

> <Gold.Chemscore.Rot.Weighted>
4.9073

> <Gold.Chemscore.Internal.Correction.Weighted>
   9.000000E+99

> <Gold.Protein.RotatedTorsions>
[ 6907 6896 6895 6894 ] final  143.63 input  -60.11 | X-H torsion
[ 7974 7965 7964 7962 ] final   86.19 input  175.53 | X-H torsion
[ 8008 7997 7996 7995 ] final  146.15 input   59.86 | X-H torsion
[ 10167 10162 10161 10158 ] final  176.99 input  -65.29 | X-H torsion
[ 10718 10713 10712 10709 ] final  122.64 input   66.30 | X-H torsion
[ 10763 10752 10751 10750 ] final  -57.23 input  -60.55 | X-H torsion
[ 11005 11000 10999 10996 ] final -132.88 input  -57.11 | X-H torsion

> <Gold.Protein.ActiveResidues>
 VAL166  LYS551  ARG553  GLY616  TRP617  ASP618  TYR619  PRO620  LYS621  CYS622 
 ASP623  PHE694  ASN695  SER759  ASP760  ASP761  ALA762  ILE779  LEU786  VAL792 
 PHE793  MET794  SER795  GLU796  ALA797  LYS798  CYS799  TRP800  GLU811  SER814 

> <Gold.Protein.RotatedAtoms>
  152.2039  133.4861  159.5073 H   0  0  0  0  0  0  0  0  0  0  0  0  # atno 6907 bound_to 6896
  150.6975  134.1555  159.4165 H   0  0  0  0  0  0  0  0  0  0  0  0  # atno 6908 bound_to 6896
  151.9473  135.0185  160.0590 H   0  0  0  0  0  0  0  0  0  0  0  0  # atno 6909 bound_to 6896
  145.5755  139.2319  143.2382 H   0  0  0  0  0  0  0  0  0  0  0  0  # atno 7974 bound_to 7965
  156.2863  140.2190  156.5330 H   0  0  0  0  0  0  0  0  0  0  0  0  # atno 8008 bound_to 7997
  154.7433  140.0486  157.0852 H   0  0  0  0  0  0  0  0  0  0  0  0  # atno 8009 bound_to 7997
  155.0203  140.3123  155.4799 H   0  0  0  0  0  0  0  0  0  0  0  0  # atno 8010 bound_to 7997
  139.5236  144.2851  152.0513 H   0  0  0  0  0  0  0  0  0  0  0  0  # atno 10167 bound_to 10162
  157.5726  131.1082  150.8338 H   0  0  0  0  0  0  0  0  0  0  0  0  # atno 10718 bound_to 10713
  154.2191  135.6381  153.5139 H   0  0  0  0  0  0  0  0  0  0  0  0  # atno 10763 bound_to 10752
  152.9973  135.5492  154.6133 H   0  0  0  0  0  0  0  0  0  0  0  0  # atno 10764 bound_to 10752
  154.5589  135.2907  155.0912 H   0  0  0  0  0  0  0  0  0  0  0  0  # atno 10765 bound_to 10752
  140.9131  134.1543  157.4374 H   0  0  0  0  0  0  0  0  0  0  0  0  # atno 11005 bound_to 11000
  146.1754  140.6582  142.9214 LP  0  0  0  0  0  0  0  0  0  0  0  0  # atno 17320 bound_to 7965
  144.7418  140.4962  143.6864 LP  0  0  0  0  0  0  0  0  0  0  0  0  # atno 17321 bound_to 7965
  140.2304  144.4374  150.6302 LP  0  0  0  0  0  0  0  0  0  0  0  0  # atno 17342 bound_to 10162
  140.6359  143.2195  151.6396 LP  0  0  0  0  0  0  0  0  0  0  0  0  # atno 17343 bound_to 10162
  156.8805  130.5178  149.5291 LP  0  0  0  0  0  0  0  0  0  0  0  0  # atno 17370 bound_to 10713
  156.0771  130.5791  150.9495 LP  0  0  0  0  0  0  0  0  0  0  0  0  # atno 17371 bound_to 10713
  139.8761  134.9943  156.5687 LP  0  0  0  0  0  0  0  0  0  0  0  0  # atno 17394 bound_to 11000
  140.8085  133.8448  155.8789 LP  0  0  0  0  0  0  0  0  0  0  0  0  # atno 17395 bound_to 11000

$$$$
