AV-unprocessed.smi:1976|AV-procd|sdf|7990|dock9
  -GOLD-   2272010173D 1   1.00000     0.00000
 Structure written by MMmdl.
 45 47  0  0  0  0  0  0  0  0  2 V2000
  149.8030  140.4871  154.2580 O   0  0  0  0  0  0  0  0  0  0  0  0
  149.5845  141.5419  154.8548 C   0  0  0  0  0  0  0  0  0  0  0  0
  150.7424  142.4268  155.3375 C   0  0  0  0  0  0  0  0  0  0  0  0
  151.1902  142.0981  156.7010 N   0  0  0  0  0  0  0  0  0  0  0  0
  151.2068  143.1458  157.6426 C   0  0  0  0  0  0  0  0  0  0  0  0
  151.6054  142.9784  158.9182 C   0  0  0  0  0  0  0  0  0  0  0  0
  151.5526  144.1143  159.9281 C   0  0  0  0  0  0  0  0  0  0  0  0
  152.2377  145.1731  159.4960 F   0  0  0  0  0  0  0  0  0  0  0  0
  150.2890  144.4889  160.1224 F   0  0  0  0  0  0  0  0  0  0  0  0
  152.0592  143.7385  161.1028 F   0  0  0  0  0  0  0  0  0  0  0  0
  151.9974  141.6361  159.3006 C   0  0  0  0  0  0  0  0  0  0  0  0
  151.9741  140.6199  158.4162 C   0  0  0  0  0  0  0  0  0  0  0  0
  151.5530  140.8216  157.0280 C   0  0  0  0  0  0  0  0  0  0  0  0
  151.5260  139.9014  156.2101 O   0  0  0  0  0  0  0  0  0  0  0  0
  148.3491  141.9780  155.1407 N   0  0  0  0  0  0  0  0  0  0  0  0
  147.1195  141.2875  154.7682 C   0  0  1  0  0  0  0  0  0  0  0  0
  146.9996  139.8646  155.3473 C   0  0  0  0  0  0  0  0  0  0  0  0
  145.5125  139.6997  155.7192 C   0  0  0  0  0  0  0  0  0  0  0  0
  144.8560  140.9397  155.2627 N   0  3  1  0  0  0  0  0  0  0  0  0
  143.5969  141.3256  155.9362 C   0  0  0  0  0  0  0  0  0  0  0  0
  143.0309  142.5945  155.2669 C   0  0  0  0  0  0  0  0  0  0  0  0
  144.0754  143.7288  155.2111 C   0  0  0  0  0  0  0  0  0  0  0  0
  145.3958  143.2399  154.5844 C   0  0  0  0  0  0  0  0  0  0  0  0
  145.8846  141.9883  155.3312 C   0  0  2  0  0  0  0  0  0  0  0  0
  151.5795  142.3484  154.6410 H   0  0  0  0  0  0  0  0  0  0  0  0
  150.4203  143.4674  155.2794 H   0  0  0  0  0  0  0  0  0  0  0  0
  150.8622  144.0968  157.2630 H   0  0  0  0  0  0  0  0  0  0  0  0
  152.3186  141.4417  160.3133 H   0  0  0  0  0  0  0  0  0  0  0  0
  152.2744  139.6329  158.7362 H   0  0  0  0  0  0  0  0  0  0  0  0
  148.2561  142.8520  155.6379 H   0  0  0  0  0  0  0  0  0  0  0  0
  147.0341  141.2411  153.6803 H   0  0  0  0  0  0  0  0  0  0  0  0
  147.3227  139.1177  154.6214 H   0  0  0  0  0  0  0  0  0  0  0  0
  147.6178  139.7441  156.2382 H   0  0  0  0  0  0  0  0  0  0  0  0
  145.0595  138.8270  155.2479 H   0  0  0  0  0  0  0  0  0  0  0  0
  145.4076  139.5945  156.8003 H   0  0  0  0  0  0  0  0  0  0  0  0
  142.8776  140.5090  155.8648 H   0  0  0  0  0  0  0  0  0  0  0  0
  143.7816  141.5022  156.9971 H   0  0  0  0  0  0  0  0  0  0  0  0
  142.7095  142.3533  154.2526 H   0  0  0  0  0  0  0  0  0  0  0  0
  142.1406  142.9315  155.7989 H   0  0  0  0  0  0  0  0  0  0  0  0
  143.6821  144.5745  154.6461 H   0  0  0  0  0  0  0  0  0  0  0  0
  144.2674  144.0940  156.2208 H   0  0  0  0  0  0  0  0  0  0  0  0
  145.2438  143.0134  153.5281 H   0  0  0  0  0  0  0  0  0  0  0  0
  146.1484  144.0277  154.6312 H   0  0  0  0  0  0  0  0  0  0  0  0
  146.0591  142.2357  156.3812 H   0  0  0  0  0  0  0  0  0  0  0  0
  144.6466  140.8092  154.2833 H   0  0  0  0  0  0  0  0  0  0  0  0
  1  2  2  0  0  0  0
  2  3  1  0  0  0  0
  2 15  1  0  0  0  0
  3  4  1  0  0  0  0
  3 25  1  0  0  0  0
  3 26  1  0  0  0  0
  4 13  1  0  0  0  0
  4  5  1  0  0  0  0
  5  6  2  0  0  0  0
  5 27  1  0  0  0  0
  6  7  1  0  0  0  0
  6 11  1  0  0  0  0
  7  8  1  0  0  0  0
  7  9  1  0  0  0  0
  7 10  1  0  0  0  0
 11 12  2  0  0  0  0
 11 28  1  0  0  0  0
 12 13  1  0  0  0  0
 12 29  1  0  0  0  0
 13 14  2  0  0  0  0
 15 16  1  0  0  0  0
 15 30  1  0  0  0  0
 16 24  1  0  0  0  0
 16 17  1  0  0  0  0
 16 31  1  0  0  0  0
 17 18  1  0  0  0  0
 17 32  1  0  0  0  0
 17 33  1  0  0  0  0
 18 19  1  0  0  0  0
 18 34  1  0  0  0  0
 18 35  1  0  0  0  0
 19 24  1  0  0  0  0
 19 20  1  0  0  0  0
 19 45  1  0  0  0  0
 20 21  1  0  0  0  0
 20 36  1  0  0  0  0
 20 37  1  0  0  0  0
 21 22  1  0  0  0  0
 21 38  1  0  0  0  0
 21 39  1  0  0  0  0
 22 23  1  0  0  0  0
 22 40  1  0  0  0  0
 22 41  1  0  0  0  0
 23 24  1  0  0  0  0
 23 42  1  0  0  0  0
 23 43  1  0  0  0  0
 24 44  1  0  0  0  0
M  CHG  1  19   1
M  END
> <s_m_source_file>
AV-unprocessed.smi

> <i_m_source_file_index>
1976

> <i_lp_mmshare_version>
43012

> <i_f3d_flags>
0

> <s_epik_input>
W0NIMl0xW0NIMl1bQ0gyXVtDSDJdW0NASF0oTjEyKVtDQEBIXShbQ0gyXVtDSDJdMilbTkhdQyg9TylbQ0gyXW4zW2NIXWMoQyhGKShGKUYpW2NIXVtjSF1jMz1P

> <s_epik_cmdline>
J2VwaWtfcHl0aG9uJywgJy1waCcsICc3LjAnLCAnLXRuJywgJzgnLCAnLW1hJywgJzIwMCcsICctbWV0YWxfYmluZGluZycsICctaW1hZScsICc8aW5maWxlLm1hZT4nLCAnLW9tYWUnLCAnPG91dGZpbGUubWFlPic=

> <r_lp_tautomer_probability>
1

> <r_epik_Ionization_Penalty>
0.00171506

> <r_epik_Ionization_Penalty_Charging>
0.00171498

> <r_epik_Ionization_Penalty_Neutral>
7.81737e-08

> <r_epik_State_Penalty>
0.00115937

> <r_epik_Charging_Adjusted_Penalty>
0.00287436

> <i_epik_Tot_Q>
1

> <i_epik_Tot_abs_Q>
1

> <r_epik_Metal_State_Penalty>
-0

> <b_epik_Metal_Only>
0

> <s_lp_Force_Field>
OPLS_2005

> <r_lp_Energy>
46.2407

> <b_lp_Chiralities_Consistent>
1

> <s_lp_Variant>
AV-unprocessed.smi:1976-8

> <Gold.Version>
5.8.1

> <Gold.Id.Protein>
6NUR|6NUR_protein|mol2

> <Gold.PLP.Fitness>
50.5317

> <Gold.PLP.PLP>
-37.9996

> <Gold.PLP.part.hbond>
-3.0000

> <Gold.PLP.part.metal>
0.0000

> <Gold.PLP.part.buried>
-2.8433

> <Gold.PLP.part.nonpolar>
-31.8007

> <Gold.PLP.part.repulsive>
0.2598

> <Gold.PLP.ligand.clash>
0.0000

> <Gold.PLP.ligand.torsion>
0.5229

> <Gold.PLP.Chemscore.Hbond>
3.5115

> <Gold.PLP.Chemscore.CHOScore>
1.0000

> <Gold.PLP.Chemscore.Metal>
0.0000

> <Gold.Chemscore.Hbonds>
donor molecule, donor type, donor heavy atom, donor atom, acceptor molecule, acceptor atom, score
      L1  H    15    30       P1  8028  0.86
      L1  H    19    45       P1 10175  1.85
      P1  H  7989  7998       L1     1  0.77
      L1  C     5    27       P1  8028  0.84

> <Gold.PLP.Chemscore.Internal.Correction>
0.0436

> <Gold.Rescore>
     Score         DG    S(hbond)    S(metal)    S(lipo)     H(rot)  DE(clash)    DE(int)     intcor
     10.14     -18.42       2.13        0.00      84.51       1.58       5.30       2.98       ----

> <Gold.Chemscore.Fitness>
10.1373

> <Gold.Chemscore.DG>
-18.4192

> <Gold.Chemscore.ZeroCoef>
-5.4800

> <Gold.Chemscore.Hbond>
2.1271

> <Gold.Chemscore.Metal>
0.0000

> <Gold.Chemscore.Lipo>
84.5059

> <Gold.Chemscore.Internal_Hbond>
0.0000

> <Gold.Chemscore.DEClash>
5.3037

> <Gold.Chemscore.DEInternal>
2.9782

> <Gold.Chemscore.Rot>
1.5830

> <Gold.Chemscore.Internal.Correction>
   9.000000E+99

> <Gold.Chemscore.Hbonds>
donor molecule, donor type, donor heavy atom, donor atom, acceptor molecule, acceptor atom, score
      L1  H    15    30       P1  8028  0.80
      L1  H    19    45       P1 10175  0.86
      P1  H  7989  7998       L1     1  0.19

> <Gold.Chemscore.Hbond.Weighted>
-7.1044

> <Gold.Chemscore.Metal.Weighted>
-0.0000

> <Gold.Chemscore.Lipo.Weighted>
-9.8872

> <Gold.Chemscore.Internal_Hbond.Weighted>
0.0000

> <Gold.Chemscore.DEClash.Weighted>
5.3037

> <Gold.Chemscore.DEInternal.Weighted>
2.9782

> <Gold.Chemscore.Rot.Weighted>
4.0524

> <Gold.Chemscore.Internal.Correction.Weighted>
   9.000000E+99

> <Gold.Protein.RotatedTorsions>
[ 6907 6896 6895 6894 ] final  110.88 input  -60.11 | X-H torsion
[ 7974 7965 7964 7962 ] final  -36.96 input  175.53 | X-H torsion
[ 8008 7997 7996 7995 ] final    4.92 input   59.86 | X-H torsion
[ 10167 10162 10161 10158 ] final  157.23 input  -65.29 | X-H torsion
[ 10718 10713 10712 10709 ] final   54.59 input   66.30 | X-H torsion
[ 10763 10752 10751 10750 ] final  170.23 input  -60.55 | X-H torsion
[ 11005 11000 10999 10996 ] final  -33.67 input  -57.11 | X-H torsion

> <Gold.Protein.ActiveResidues>
 VAL166  LYS551  ARG553  GLY616  TRP617  ASP618  TYR619  PRO620  LYS621  CYS622 
 ASP623  PHE694  ASN695  SER759  ASP760  ASP761  ALA762  ILE779  LEU786  VAL792 
 PHE793  MET794  SER795  GLU796  ALA797  LYS798  CYS799  TRP800  GLU811  SER814 

> <Gold.Protein.RotatedAtoms>
  152.4997  133.8737  159.7311 H   0  0  0  0  0  0  0  0  0  0  0  0  # atno 6907 bound_to 6896
  150.9217  133.6863  159.2837 H   0  0  0  0  0  0  0  0  0  0  0  0  # atno 6908 bound_to 6896
  151.4238  135.1005  159.9674 H   0  0  0  0  0  0  0  0  0  0  0  0  # atno 6909 bound_to 6896
  146.0616  140.6340  142.8994 H   0  0  0  0  0  0  0  0  0  0  0  0  # atno 7974 bound_to 7965
  154.7219  140.2713  155.6534 H   0  0  0  0  0  0  0  0  0  0  0  0  # atno 8008 bound_to 7997
  156.2826  140.2733  156.1818 H   0  0  0  0  0  0  0  0  0  0  0  0  # atno 8009 bound_to 7997
  155.0496  140.0371  157.2529 H   0  0  0  0  0  0  0  0  0  0  0  0  # atno 8010 bound_to 7997
  139.4822  144.4936  151.8272 H   0  0  0  0  0  0  0  0  0  0  0  0  # atno 10167 bound_to 10162
  157.5270  130.8604  149.8636 H   0  0  0  0  0  0  0  0  0  0  0  0  # atno 10718 bound_to 10713
  154.3946  135.2754  155.2134 H   0  0  0  0  0  0  0  0  0  0  0  0  # atno 10763 bound_to 10752
  154.4185  135.6005  153.5999 H   0  0  0  0  0  0  0  0  0  0  0  0  # atno 10764 bound_to 10752
  152.9831  135.5967  154.4206 H   0  0  0  0  0  0  0  0  0  0  0  0  # atno 10765 bound_to 10752
  140.9653  133.7140  156.1436 H   0  0  0  0  0  0  0  0  0  0  0  0  # atno 11005 bound_to 11000
  144.7178  140.4271  143.7031 LP  0  0  0  0  0  0  0  0  0  0  0  0  # atno 17320 bound_to 7965
  145.6550  139.1571  143.2840 LP  0  0  0  0  0  0  0  0  0  0  0  0  # atno 17321 bound_to 7965
  140.4422  144.1970  150.5892 LP  0  0  0  0  0  0  0  0  0  0  0  0  # atno 17342 bound_to 10162
  140.4671  143.2427  151.9140 LP  0  0  0  0  0  0  0  0  0  0  0  0  # atno 17343 bound_to 10162
  156.0394  130.3743  150.1474 LP  0  0  0  0  0  0  0  0  0  0  0  0  # atno 17370 bound_to 10713
  156.9660  130.9819  151.3469 LP  0  0  0  0  0  0  0  0  0  0  0  0  # atno 17371 bound_to 10713
  140.7408  134.4152  157.5555 LP  0  0  0  0  0  0  0  0  0  0  0  0  # atno 17394 bound_to 11000
  139.8892  134.8835  156.2431 LP  0  0  0  0  0  0  0  0  0  0  0  0  # atno 17395 bound_to 11000

$$$$
