AV-unprocessed.smi:2229|AV-procd|sdf|9034|dock4
  -GOLD-   2272012243D 1   1.00000     0.00000
 Structure written by MMmdl.
 43 44  0  0  0  0  0  0  0  0  2 V2000
  152.7241  142.7184  160.4552 C   0  0  0  0  0  0  0  0  0  0  0  0
  152.5319  143.1123  158.9806 C   0  0  0  0  0  0  0  0  0  0  0  0
  152.3005  144.6264  158.8595 C   0  0  0  0  0  0  0  0  0  0  0  0
  151.3878  142.3304  158.3029 C   0  0  0  0  0  0  0  0  0  0  0  0
  151.5973  140.8052  158.2782 C   0  0  0  0  0  0  0  0  0  0  0  0
  150.8080  140.0981  157.1603 C   0  0  1  0  0  0  0  0  0  0  0  0
  151.3635  140.3520  155.7516 C   0  0  0  0  0  0  0  0  0  0  0  0
  150.9288  139.1348  154.9434 C   0  0  0  0  0  0  0  0  0  0  0  0
  151.0790  137.9743  155.9241 C   0  0  0  0  0  0  0  0  0  0  0  0
  150.7718  138.5574  157.3149 C   0  0  2  0  0  0  0  0  0  0  0  0
  149.4592  138.1044  157.7638 N   0  0  0  0  0  0  0  0  0  0  0  0
  149.2192  137.2942  158.8083 C   0  0  0  0  0  0  0  0  0  0  0  0
  150.1163  136.8083  159.4958 O   0  0  0  0  0  0  0  0  0  0  0  0
  147.7558  136.9673  159.1518 C   0  0  0  0  0  0  0  0  0  0  0  0
  147.5771  135.9226  160.1669 N   0  0  0  0  0  0  0  0  0  0  0  0
  147.6360  134.5823  159.8774 C   0  0  0  0  0  0  0  0  0  0  0  0
  147.4330  133.8792  160.9331 N   0  0  0  0  0  0  0  0  0  0  0  0
  147.2259  134.8064  162.0040 N   0  5  0  0  0  0  0  0  0  0  0  0
  147.3293  136.0443  161.4724 C   0  0  0  0  0  0  0  0  0  0  0  0
  147.2158  137.1308  162.0376 O   0  0  0  0  0  0  0  0  0  0  0  0
  151.8115  142.8776  161.0302 H   0  0  0  0  0  0  0  0  0  0  0  0
  153.5141  143.3103  160.9182 H   0  0  0  0  0  0  0  0  0  0  0  0
  153.0079  141.6717  160.5609 H   0  0  0  0  0  0  0  0  0  0  0  0
  153.4575  142.8845  158.4503 H   0  0  0  0  0  0  0  0  0  0  0  0
  151.3863  144.9293  159.3710 H   0  0  0  0  0  0  0  0  0  0  0  0
  152.2144  144.9308  157.8161 H   0  0  0  0  0  0  0  0  0  0  0  0
  153.1273  145.1876  159.2961 H   0  0  0  0  0  0  0  0  0  0  0  0
  150.4423  142.5629  158.7949 H   0  0  0  0  0  0  0  0  0  0  0  0
  151.2867  142.6830  157.2761 H   0  0  0  0  0  0  0  0  0  0  0  0
  152.6595  140.5781  158.1793 H   0  0  0  0  0  0  0  0  0  0  0  0
  151.2853  140.3863  159.2340 H   0  0  0  0  0  0  0  0  0  0  0  0
  149.7824  140.4732  157.1744 H   0  0  0  0  0  0  0  0  0  0  0  0
  151.0010  141.2857  155.3207 H   0  0  0  0  0  0  0  0  0  0  0  0
  152.4530  140.3989  155.7766 H   0  0  0  0  0  0  0  0  0  0  0  0
  149.8827  139.2391  154.6521 H   0  0  0  0  0  0  0  0  0  0  0  0
  151.5183  138.9983  154.0366 H   0  0  0  0  0  0  0  0  0  0  0  0
  150.4465  137.1261  155.6581 H   0  0  0  0  0  0  0  0  0  0  0  0
  152.1109  137.6214  155.9040 H   0  0  0  0  0  0  0  0  0  0  0  0
  151.5389  138.2125  158.0109 H   0  0  0  0  0  0  0  0  0  0  0  0
  148.6601  138.4614  157.2591 H   0  0  0  0  0  0  0  0  0  0  0  0
  147.2623  137.8879  159.4682 H   0  0  0  0  0  0  0  0  0  0  0  0
  147.2512  136.6556  158.2361 H   0  0  0  0  0  0  0  0  0  0  0  0
  147.8316  134.2476  158.8572 H   0  0  0  0  0  0  0  0  0  0  0  0
  1  2  1  0  0  0  0
  1 21  1  0  0  0  0
  1 22  1  0  0  0  0
  1 23  1  0  0  0  0
  2  3  1  0  0  0  0
  2  4  1  0  0  0  0
  2 24  1  0  0  0  0
  3 25  1  0  0  0  0
  3 26  1  0  0  0  0
  3 27  1  0  0  0  0
  4  5  1  0  0  0  0
  4 28  1  0  0  0  0
  4 29  1  0  0  0  0
  5  6  1  0  0  0  0
  5 30  1  0  0  0  0
  5 31  1  0  0  0  0
  6 10  1  0  0  0  0
  6  7  1  0  0  0  0
  6 32  1  0  0  0  0
  7  8  1  0  0  0  0
  7 33  1  0  0  0  0
  7 34  1  0  0  0  0
  8  9  1  0  0  0  0
  8 35  1  0  0  0  0
  8 36  1  0  0  0  0
  9 10  1  0  0  0  0
  9 37  1  0  0  0  0
  9 38  1  0  0  0  0
 10 11  1  0  0  0  0
 10 39  1  0  0  0  0
 11 12  1  0  0  0  0
 11 40  1  0  0  0  0
 12 13  2  0  0  0  0
 12 14  1  0  0  0  0
 14 15  1  0  0  0  0
 14 41  1  0  0  0  0
 14 42  1  0  0  0  0
 15 19  1  0  0  0  0
 15 16  1  0  0  0  0
 16 17  2  0  0  0  0
 16 43  1  0  0  0  0
 17 18  1  0  0  0  0
 18 19  1  0  0  0  0
 19 20  2  0  0  0  0
M  CHG  1  18  -1
M  END
> <s_m_source_file>
AV-unprocessed.smi

> <i_m_source_file_index>
2229

> <i_lp_mmshare_version>
43012

> <i_f3d_flags>
0

> <s_epik_input>
W0NIM11bQ0hdKFtDSDNdKVtDSDJdW0NIMl1bQ0BASF0xW0NIMl1bQ0gyXVtDSDJdW0NASF0xW05IXUMoPU8pW0NIMl1uMltjSF1uW25IXWMyPU8=

> <s_epik_cmdline>
J2VwaWtfcHl0aG9uJywgJy1waCcsICc3LjAnLCAnLXRuJywgJzgnLCAnLW1hJywgJzIwMCcsICctbWV0YWxfYmluZGluZycsICctaW1hZScsICc8aW5maWxlLm1hZT4nLCAnLW9tYWUnLCAnPG91dGZpbGUubWFlPic=

> <r_lp_tautomer_probability>
1

> <r_epik_Ionization_Penalty>
13.6733

> <r_epik_Ionization_Penalty_Charging>
13.6725

> <r_epik_Ionization_Penalty_Neutral>
0.000837689

> <r_epik_State_Penalty>
5.67062

> <r_epik_Charging_Adjusted_Penalty>
19.3431

> <i_epik_Tot_Q>
-1

> <i_epik_Tot_abs_Q>
1

> <r_epik_Metal_State_Penalty>
1.61781

> <b_epik_Metal_Only>
1

> <s_lp_Force_Field>
OPLS_2005

> <r_lp_Energy>
24.9867

> <b_lp_Chiralities_Consistent>
1

> <s_lp_Variant>
AV-unprocessed.smi:2229-8

> <Gold.Version>
5.8.1

> <Gold.Id.Protein>
6NUR|6NUR_protein|mol2

> <Gold.PLP.Fitness>
46.2669

> <Gold.PLP.PLP>
-39.8586

> <Gold.PLP.part.hbond>
-3.0000

> <Gold.PLP.part.metal>
0.0000

> <Gold.PLP.part.buried>
-5.3655

> <Gold.PLP.part.nonpolar>
-31.1278

> <Gold.PLP.part.repulsive>
0.0738

> <Gold.PLP.ligand.clash>
0.0000

> <Gold.PLP.ligand.torsion>
0.6374

> <Gold.PLP.Chemscore.Hbond>
2.5520

> <Gold.PLP.Chemscore.CHOScore>
0.0000

> <Gold.PLP.Chemscore.Metal>
0.0000

> <Gold.Chemscore.Hbonds>
donor molecule, donor type, donor heavy atom, donor atom, acceptor molecule, acceptor atom, score
      P1  H  6896  6909       L1    13  1.00
      P1  H  6931  6943       L1    20  0.65
      P1  H  6934  6947       L1    20  0.47

> <Gold.PLP.Chemscore.Internal.Correction>
0.0271

> <Gold.Rescore>
     Score         DG    S(hbond)    S(metal)    S(lipo)     H(rot)  DE(clash)    DE(int)     intcor
     17.20     -17.82       2.62        0.00      87.47       2.59       0.00       0.62       ----

> <Gold.Chemscore.Fitness>
17.2008

> <Gold.Chemscore.DG>
-17.8215

> <Gold.Chemscore.ZeroCoef>
-5.4800

> <Gold.Chemscore.Hbond>
2.6191

> <Gold.Chemscore.Metal>
0.0000

> <Gold.Chemscore.Lipo>
87.4725

> <Gold.Chemscore.Internal_Hbond>
0.0000

> <Gold.Chemscore.DEClash>
0.0030

> <Gold.Chemscore.DEInternal>
0.6176

> <Gold.Chemscore.Rot>
2.5939

> <Gold.Chemscore.Internal.Correction>
   9.000000E+99

> <Gold.Chemscore.Hbonds>
donor molecule, donor type, donor heavy atom, donor atom, acceptor molecule, acceptor atom, score
      P1  H  6896  6909       L1    13  0.93
      P1  H  6931  6943       L1    20  0.52
      P1  H  6934  6947       L1    20  0.47

> <Gold.Chemscore.Hbond.Weighted>
-8.7477

> <Gold.Chemscore.Metal.Weighted>
-0.0000

> <Gold.Chemscore.Lipo.Weighted>
-10.2343

> <Gold.Chemscore.Internal_Hbond.Weighted>
0.0000

> <Gold.Chemscore.DEClash.Weighted>
0.0030

> <Gold.Chemscore.DEInternal.Weighted>
0.6176

> <Gold.Chemscore.Rot.Weighted>
6.6405

> <Gold.Chemscore.Internal.Correction.Weighted>
   9.000000E+99

> <Gold.Protein.RotatedTorsions>
[ 6907 6896 6895 6894 ] final   82.70 input  -60.11 | X-H torsion
[ 7974 7965 7964 7962 ] final -166.24 input  175.53 | X-H torsion
[ 8008 7997 7996 7995 ] final -104.56 input   59.86 | X-H torsion
[ 10167 10162 10161 10158 ] final  119.09 input  -65.29 | X-H torsion
[ 10718 10713 10712 10709 ] final   70.50 input   66.30 | X-H torsion
[ 10763 10752 10751 10750 ] final   20.37 input  -60.55 | X-H torsion
[ 11005 11000 10999 10996 ] final    8.23 input  -57.11 | X-H torsion

> <Gold.Protein.ActiveResidues>
 VAL166  LYS551  ARG553  GLY616  TRP617  ASP618  TYR619  PRO620  LYS621  CYS622 
 ASP623  PHE694  ASN695  SER759  ASP760  ASP761  ALA762  ILE779  LEU786  VAL792 
 PHE793  MET794  SER795  GLU796  ALA797  LYS798  CYS799  TRP800  GLU811  SER814 

> <Gold.Protein.RotatedAtoms>
  152.5307  134.3009  159.9077 H   0  0  0  0  0  0  0  0  0  0  0  0  # atno 6907 bound_to 6896
  151.2959  133.4137  159.2644 H   0  0  0  0  0  0  0  0  0  0  0  0  # atno 6908 bound_to 6896
  151.0160  134.9449  159.8090 H   0  0  0  0  0  0  0  0  0  0  0  0  # atno 6909 bound_to 6896
  144.7250  140.2696  143.6252 H   0  0  0  0  0  0  0  0  0  0  0  0  # atno 7974 bound_to 7965
  154.8872  140.0417  157.1817 H   0  0  0  0  0  0  0  0  0  0  0  0  # atno 8008 bound_to 7997
  154.8578  140.2939  155.5537 H   0  0  0  0  0  0  0  0  0  0  0  0  # atno 8009 bound_to 7997
  156.2998  140.2452  156.3548 H   0  0  0  0  0  0  0  0  0  0  0  0  # atno 8010 bound_to 7997
  139.6069  144.7072  151.2933 H   0  0  0  0  0  0  0  0  0  0  0  0  # atno 10167 bound_to 10162
  157.6403  130.9481  150.0660 H   0  0  0  0  0  0  0  0  0  0  0  0  # atno 10718 bound_to 10713
  153.1083  135.6690  153.9546 H   0  0  0  0  0  0  0  0  0  0  0  0  # atno 10763 bound_to 10752
  153.9096  135.3026  155.3450 H   0  0  0  0  0  0  0  0  0  0  0  0  # atno 10764 bound_to 10752
  154.7504  135.5037  153.9355 H   0  0  0  0  0  0  0  0  0  0  0  0  # atno 10765 bound_to 10752
  140.5393  134.0390  155.7899 H   0  0  0  0  0  0  0  0  0  0  0  0  # atno 11005 bound_to 11000
  145.8056  139.1982  143.2023 LP  0  0  0  0  0  0  0  0  0  0  0  0  # atno 17320 bound_to 7965
  146.0640  140.7941  142.9721 LP  0  0  0  0  0  0  0  0  0  0  0  0  # atno 17321 bound_to 7965
  140.7291  143.6917  150.7917 LP  0  0  0  0  0  0  0  0  0  0  0  0  # atno 17342 bound_to 10162
  140.0504  143.5255  152.2676 LP  0  0  0  0  0  0  0  0  0  0  0  0  # atno 17343 bound_to 10162
  156.1678  130.3645  149.9207 LP  0  0  0  0  0  0  0  0  0  0  0  0  # atno 17370 bound_to 10713
  156.7190  130.8999  151.3616 LP  0  0  0  0  0  0  0  0  0  0  0  0  # atno 17371 bound_to 10713
  141.1236  133.9420  157.2680 LP  0  0  0  0  0  0  0  0  0  0  0  0  # atno 17394 bound_to 11000
  139.9512  135.0175  156.8999 LP  0  0  0  0  0  0  0  0  0  0  0  0  # atno 17395 bound_to 11000

$$$$
