AV-unprocessed.smi:1487|AV-procd|sdf|6020|dock2
  -GOLD-   22720 6123D 1   1.00000     0.00000
 Structure written by MMmdl.
 49 51  0  0  0  0  0  0  0  0  3 V2000
  152.0966  143.1689  160.4400 C   0  0  0  0  0  0  0  0  0  0  0  0
  151.9227  142.3093  159.1994 C   0  0  0  0  0  0  0  0  0  0  0  0
  150.9968  142.7236  158.2156 C   0  0  0  0  0  0  0  0  0  0  0  0
  150.8621  141.9174  157.0916 C   0  0  0  0  0  0  0  0  0  0  0  0
  150.0511  142.0511  155.9628 N   0  3  0  0  0  0  0  0  0  0  0  0
  150.2684  141.0040  155.1200 C   0  0  0  0  0  0  0  0  0  0  0  0
  151.2087  140.2035  155.6924 N   0  0  0  0  0  0  0  0  0  0  0  0
  151.7926  138.9456  155.2034 C   0  0  0  0  0  0  0  0  0  0  0  0
  150.8109  138.1184  154.3495 C   0  0  1  0  0  0  0  0  0  0  0  0
  151.3554  136.8356  154.1088 O   0  0  0  0  0  0  0  0  0  0  0  0
  149.4487  137.9483  155.0515 C   0  0  0  0  0  0  0  0  0  0  0  0
  148.3322  137.7461  154.0922 N   0  3  1  0  0  0  0  0  0  0  0  0
  147.2205  136.9534  154.6769 C   0  0  0  0  0  0  0  0  0  0  0  0
  146.1725  136.6037  153.6093 C   0  0  0  0  0  0  0  0  0  0  0  0
  145.6302  137.8711  152.9345 C   0  0  0  0  0  0  0  0  0  0  0  0
  146.7763  138.7450  152.3973 C   0  0  2  0  0  0  0  0  0  0  0  0
  147.3756  138.1355  151.2706 O   0  0  0  0  0  0  0  0  0  0  0  0
  147.8457  139.0108  153.4755 C   0  0  0  0  0  0  0  0  0  0  0  0
  151.6072  140.7334  156.9263 C   0  0  0  0  0  0  0  0  0  0  0  0
  152.5227  140.3103  157.8876 C   0  0  0  0  0  0  0  0  0  0  0  0
  152.6758  141.1179  159.0373 C   0  0  0  0  0  0  0  0  0  0  0  0
  153.6706  140.6838  160.1004 C   0  0  0  0  0  0  0  0  0  0  0  0
  151.4745  144.0634  160.3967 H   0  0  0  0  0  0  0  0  0  0  0  0
  153.1335  143.4901  160.5420 H   0  0  0  0  0  0  0  0  0  0  0  0
  151.8169  142.6108  161.3338 H   0  0  0  0  0  0  0  0  0  0  0  0
  150.4199  143.6295  158.3325 H   0  0  0  0  0  0  0  0  0  0  0  0
  149.7804  140.8387  154.1700 H   0  0  0  0  0  0  0  0  0  0  0  0
  152.7112  139.1638  154.6578 H   0  0  0  0  0  0  0  0  0  0  0  0
  152.0915  138.3716  156.0815 H   0  0  0  0  0  0  0  0  0  0  0  0
  150.6852  138.6179  153.3894 H   0  0  0  0  0  0  0  0  0  0  0  0
  151.2010  136.6077  153.2042 H   0  0  0  0  0  0  0  0  0  0  0  0
  149.5165  137.0925  155.7252 H   0  0  0  0  0  0  0  0  0  0  0  0
  149.2297  138.8114  155.6820 H   0  0  0  0  0  0  0  0  0  0  0  0
  147.6101  136.0287  155.1044 H   0  0  0  0  0  0  0  0  0  0  0  0
  146.7608  137.5128  155.4932 H   0  0  0  0  0  0  0  0  0  0  0  0
  146.6170  135.9470  152.8602 H   0  0  0  0  0  0  0  0  0  0  0  0
  145.3528  136.0440  154.0606 H   0  0  0  0  0  0  0  0  0  0  0  0
  144.9377  137.6097  152.1334 H   0  0  0  0  0  0  0  0  0  0  0  0
  145.0546  138.4436  153.6630 H   0  0  0  0  0  0  0  0  0  0  0  0
  146.3653  139.6966  152.0584 H   0  0  0  0  0  0  0  0  0  0  0  0
  147.6951  137.2816  151.5199 H   0  0  0  0  0  0  0  0  0  0  0  0
  147.4249  139.6452  154.2575 H   0  0  0  0  0  0  0  0  0  0  0  0
  148.6706  139.5702  153.0357 H   0  0  0  0  0  0  0  0  0  0  0  0
  153.1007  139.4063  157.7651 H   0  0  0  0  0  0  0  0  0  0  0  0
  154.1335  139.7293  159.8485 H   0  0  0  0  0  0  0  0  0  0  0  0
  153.1767  140.5685  161.0656 H   0  0  0  0  0  0  0  0  0  0  0  0
  154.4654  141.4229  160.2041 H   0  0  0  0  0  0  0  0  0  0  0  0
  148.7071  137.1821  153.3419 H   0  0  0  0  0  0  0  0  0  0  0  0
  149.3951  142.7998  155.7800 H   0  0  0  0  0  0  0  0  0  0  0  0
  1  2  1  0  0  0  0
  1 23  1  0  0  0  0
  1 24  1  0  0  0  0
  1 25  1  0  0  0  0
  2 21  1  0  0  0  0
  2  3  2  0  0  0  0
  3  4  1  0  0  0  0
  3 26  1  0  0  0  0
  4 19  2  0  0  0  0
  4  5  1  0  0  0  0
  5  6  2  0  0  0  0
  5 49  1  0  0  0  0
  6  7  1  0  0  0  0
  6 27  1  0  0  0  0
  7  8  1  0  0  0  0
  7 19  1  0  0  0  0
  8  9  1  0  0  0  0
  8 28  1  0  0  0  0
  8 29  1  0  0  0  0
  9 10  1  0  0  0  0
  9 11  1  0  0  0  0
  9 30  1  0  0  0  0
 10 31  1  0  0  0  0
 11 12  1  0  0  0  0
 11 32  1  0  0  0  0
 11 33  1  0  0  0  0
 12 18  1  0  0  0  0
 12 13  1  0  0  0  0
 12 48  1  0  0  0  0
 13 14  1  0  0  0  0
 13 34  1  0  0  0  0
 13 35  1  0  0  0  0
 14 15  1  0  0  0  0
 14 36  1  0  0  0  0
 14 37  1  0  0  0  0
 15 16  1  0  0  0  0
 15 38  1  0  0  0  0
 15 39  1  0  0  0  0
 16 17  1  0  0  0  0
 16 18  1  0  0  0  0
 16 40  1  0  0  0  0
 17 41  1  0  0  0  0
 18 42  1  0  0  0  0
 18 43  1  0  0  0  0
 19 20  1  0  0  0  0
 20 21  2  0  0  0  0
 20 44  1  0  0  0  0
 21 22  1  0  0  0  0
 22 45  1  0  0  0  0
 22 46  1  0  0  0  0
 22 47  1  0  0  0  0
M  CHG  1   5   1
M  CHG  1  12   1
M  END
> <s_m_source_file>
AV-unprocessed.smi

> <i_m_source_file_index>
1487

> <i_lp_mmshare_version>
43012

> <i_f3d_flags>
0

> <s_epik_input>
W0NIM11jKFtjSF0xKWMoW0NIM10pW2NIXWMoYzEyKW4oW2NIXW4yKVtDSDJdW0NASF0oW09IXSlbQ0gyXU4zW0NIMl1bQ0gyXVtDSDJdW0NAQEhdKFtPSF0pW0NIMl0z

> <s_epik_cmdline>
J2VwaWtfcHl0aG9uJywgJy1waCcsICc3LjAnLCAnLXRuJywgJzgnLCAnLW1hJywgJzIwMCcsICctbWV0YWxfYmluZGluZycsICctaW1hZScsICc8aW5maWxlLm1hZT4nLCAnLW9tYWUnLCAnPG91dGZpbGUubWFlPic=

> <r_epik_Ionization_Penalty>
1.1857

> <r_epik_Ionization_Penalty_Charging>
1.1857

> <r_epik_Ionization_Penalty_Neutral>
1.75578e-06

> <r_epik_State_Penalty>
1.26953

> <r_epik_Charging_Adjusted_Penalty>
2.45524

> <i_epik_Tot_Q>
2

> <i_epik_Tot_abs_Q>
2

> <r_epik_Metal_State_Penalty>
5.28243

> <b_epik_Metal_Only>
0

> <s_lp_Force_Field>
OPLS_2005

> <r_lp_Energy>
31.2796

> <b_lp_Chiralities_Consistent>
1

> <s_lp_Variant>
AV-unprocessed.smi:1487-14

> <Gold.Version>
5.8.1

> <Gold.Id.Protein>
6NUR|6NUR_protein|mol2

> <Gold.PLP.Fitness>
64.6907

> <Gold.PLP.PLP>
-44.5653

> <Gold.PLP.part.hbond>
-6.7509

> <Gold.PLP.part.metal>
0.0000

> <Gold.PLP.part.buried>
-1.5010

> <Gold.PLP.part.nonpolar>
-35.1808

> <Gold.PLP.part.repulsive>
0.1192

> <Gold.PLP.ligand.clash>
0.0000

> <Gold.PLP.ligand.torsion>
0.9880

> <Gold.PLP.Chemscore.Hbond>
7.3500

> <Gold.PLP.Chemscore.CHOScore>
0.0000

> <Gold.PLP.Chemscore.Metal>
0.0000

> <Gold.Chemscore.Hbonds>
donor molecule, donor type, donor heavy atom, donor atom, acceptor molecule, acceptor atom, score
      L1  H     5    49       P1  8028  2.00
      L1  H    10    31       P1  7949  1.00
      L1  H    12    48       P1  7948  2.00
      L1  H    17    41       P1  7948  1.00
      P1  H  7954  7966       L1    17  0.25
      P1  H 10752 10765       L1    10  0.98

> <Gold.PLP.Chemscore.Internal.Correction>
0.0514

> <Gold.Rescore>
     Score         DG    S(hbond)    S(metal)    S(lipo)     H(rot)  DE(clash)    DE(int)     intcor
     22.67     -24.40       4.02        0.00     107.03       2.74       0.72       1.01       ----

> <Gold.Chemscore.Fitness>
22.6724

> <Gold.Chemscore.DG>
-24.4037

> <Gold.Chemscore.ZeroCoef>
-5.4800

> <Gold.Chemscore.Hbond>
4.0154

> <Gold.Chemscore.Metal>
0.0000

> <Gold.Chemscore.Lipo>
107.0318

> <Gold.Chemscore.Internal_Hbond>
0.0000

> <Gold.Chemscore.DEClash>
0.7164

> <Gold.Chemscore.DEInternal>
1.0149

> <Gold.Chemscore.Rot>
2.7384

> <Gold.Chemscore.Internal.Correction>
   9.000000E+99

> <Gold.Chemscore.Hbonds>
donor molecule, donor type, donor heavy atom, donor atom, acceptor molecule, acceptor atom, score
      L1  H     5    49       P1  8028  0.94
      L1  H    10    31       P1  7949  0.55
      L1  H    12    48       P1  7948  1.00
      L1  H    17    41       P1  7948  0.94
      P1  H 10752 10765       L1    10  0.23

> <Gold.Chemscore.Hbond.Weighted>
-13.4113

> <Gold.Chemscore.Metal.Weighted>
-0.0000

> <Gold.Chemscore.Lipo.Weighted>
-12.5227

> <Gold.Chemscore.Internal_Hbond.Weighted>
0.0000

> <Gold.Chemscore.DEClash.Weighted>
0.7164

> <Gold.Chemscore.DEInternal.Weighted>
1.0149

> <Gold.Chemscore.Rot.Weighted>
7.0103

> <Gold.Chemscore.Internal.Correction.Weighted>
   9.000000E+99

> <Gold.Protein.RotatedTorsions>
[ 6907 6896 6895 6894 ] final  -32.10 input  -60.11 | X-H torsion
[ 7974 7965 7964 7962 ] final  -78.42 input  175.53 | X-H torsion
[ 8008 7997 7996 7995 ] final   28.05 input   59.86 | X-H torsion
[ 10167 10162 10161 10158 ] final  158.60 input  -65.29 | X-H torsion
[ 10718 10713 10712 10709 ] final  139.26 input   66.30 | X-H torsion
[ 10763 10752 10751 10750 ] final  177.76 input  -60.55 | X-H torsion
[ 11005 11000 10999 10996 ] final -128.94 input  -57.11 | X-H torsion

> <Gold.Protein.ActiveResidues>
 VAL166  LYS551  ARG553  GLY616  TRP617  ASP618  TYR619  PRO620  LYS621  CYS622 
 ASP623  PHE694  ASN695  SER759  ASP760  ASP761  ALA762  ILE779  LEU786  VAL792 
 PHE793  MET794  SER795  GLU796  ALA797  LYS798  CYS799  TRP800  GLU811  SER814 

> <Gold.Protein.RotatedAtoms>
  151.0833  134.9871  159.8366 H   0  0  0  0  0  0  0  0  0  0  0  0  # atno 6907 bound_to 6896
  152.5422  134.2155  159.8777 H   0  0  0  0  0  0  0  0  0  0  0  0  # atno 6908 bound_to 6896
  151.2187  133.4471  159.2633 H   0  0  0  0  0  0  0  0  0  0  0  0  # atno 6909 bound_to 6896
  145.5867  140.9438  143.1314 H   0  0  0  0  0  0  0  0  0  0  0  0  # atno 7974 bound_to 7965
  155.0526  140.3181  155.4687 H   0  0  0  0  0  0  0  0  0  0  0  0  # atno 8008 bound_to 7997
  156.2831  140.2143  156.5596 H   0  0  0  0  0  0  0  0  0  0  0  0  # atno 8009 bound_to 7997
  154.7198  140.0490  157.0616 H   0  0  0  0  0  0  0  0  0  0  0  0  # atno 8010 bound_to 7997
  139.4827  144.4809  151.8445 H   0  0  0  0  0  0  0  0  0  0  0  0  # atno 10167 bound_to 10162
  157.4163  131.1033  151.0401 H   0  0  0  0  0  0  0  0  0  0  0  0  # atno 10718 bound_to 10713
  154.4987  135.2782  155.1438 H   0  0  0  0  0  0  0  0  0  0  0  0  # atno 10763 bound_to 10752
  154.3081  135.6234  153.5457 H   0  0  0  0  0  0  0  0  0  0  0  0  # atno 10764 bound_to 10752
  152.9899  135.5713  154.5425 H   0  0  0  0  0  0  0  0  0  0  0  0  # atno 10765 bound_to 10752
  140.9473  134.1112  157.4095 H   0  0  0  0  0  0  0  0  0  0  0  0  # atno 11005 bound_to 11000
  144.7369  139.7559  143.7325 LP  0  0  0  0  0  0  0  0  0  0  0  0  # atno 17320 bound_to 7965
  146.1677  139.4815  142.9948 LP  0  0  0  0  0  0  0  0  0  0  0  0  # atno 17321 bound_to 7965
  140.4285  144.2148  150.5887 LP  0  0  0  0  0  0  0  0  0  0  0  0  # atno 17342 bound_to 10162
  140.4803  143.2381  151.8964 LP  0  0  0  0  0  0  0  0  0  0  0  0  # atno 17343 bound_to 10162
  157.1347  130.6117  149.5539 LP  0  0  0  0  0  0  0  0  0  0  0  0  # atno 17370 bound_to 10713
  155.9866  130.4902  150.7087 LP  0  0  0  0  0  0  0  0  0  0  0  0  # atno 17371 bound_to 10713
  139.8837  135.0055  156.6320 LP  0  0  0  0  0  0  0  0  0  0  0  0  # atno 17394 bound_to 11000
  140.7651  133.8785  155.8448 LP  0  0  0  0  0  0  0  0  0  0  0  0  # atno 17395 bound_to 11000

$$$$
