AV-unprocessed.smi:787|AV-procd|sdf|3728|dock4
  -GOLD-   22720 1163D 1   1.00000     0.00000
 Structure written by MMmdl.
 47 49  0  0  0  0  0  0  0  0  2 V2000
  146.4801  142.6529  157.4393 C   0  0  0  0  0  0  0  0  0  0  0  0
  147.0316  141.8240  156.3792 N   0  0  0  0  0  0  0  0  0  0  0  0
  148.2574  141.1665  156.5556 C   0  0  0  0  0  0  0  0  0  0  0  0
  148.9766  141.3798  157.6815 N   0  0  0  0  0  0  0  0  0  0  0  0
  150.1449  140.7384  157.8113 C   0  0  0  0  0  0  0  0  0  0  0  0
  150.7351  139.8798  156.9662 N   0  0  0  0  0  0  0  0  0  0  0  0
  150.0289  139.6571  155.8498 C   0  0  0  0  0  0  0  0  0  0  0  0
  150.3975  138.8180  154.8135 N   0  0  0  0  0  0  0  0  0  0  0  0
  149.3704  138.9512  153.9794 C   0  0  0  0  0  0  0  0  0  0  0  0
  148.3661  139.7700  154.3514 N   0  0  0  0  0  0  0  0  0  0  0  0
  147.1461  140.0302  153.5987 C   0  0  0  0  0  0  0  0  0  0  0  0
  146.7184  138.8527  152.6926 C   0  0  1  0  0  0  0  0  0  0  0  0
  147.5807  138.8153  151.5706 O   0  0  0  0  0  0  0  0  0  0  0  0
  146.7686  137.4840  153.4037 C   0  0  0  0  0  0  0  0  0  0  0  0
  146.5029  136.3564  152.4726 N   0  3  2  0  0  0  0  0  0  0  0  0
  145.4679  136.6839  151.4658 C   0  0  0  0  0  0  0  0  0  0  0  0
  146.2246  135.0726  153.1636 C   0  0  0  0  0  0  0  0  0  0  0  0
  145.7979  133.9907  152.1854 C   0  0  0  0  0  0  0  0  0  0  0  0
  146.7453  133.4238  151.3065 C   0  0  0  0  0  0  0  0  0  0  0  0
  146.3602  132.4092  150.4088 C   0  0  0  0  0  0  0  0  0  0  0  0
  145.0264  131.9580  150.3854 C   0  0  0  0  0  0  0  0  0  0  0  0
  144.0767  132.5236  151.2578 C   0  0  0  0  0  0  0  0  0  0  0  0
  144.4604  133.5402  152.1538 C   0  0  0  0  0  0  0  0  0  0  0  0
  148.7679  140.2751  155.5889 C   0  0  0  0  0  0  0  0  0  0  0  0
  145.5367  143.0919  157.1155 H   0  0  0  0  0  0  0  0  0  0  0  0
  147.1644  143.4633  157.6922 H   0  0  0  0  0  0  0  0  0  0  0  0
  146.2906  142.0610  158.3355 H   0  0  0  0  0  0  0  0  0  0  0  0
  146.6089  141.8591  155.4631 H   0  0  0  0  0  0  0  0  0  0  0  0
  150.6876  140.9414  158.7226 H   0  0  0  0  0  0  0  0  0  0  0  0
  149.3397  138.4099  153.0450 H   0  0  0  0  0  0  0  0  0  0  0  0
  146.3465  140.2761  154.2956 H   0  0  0  0  0  0  0  0  0  0  0  0
  147.2993  140.9278  152.9977 H   0  0  0  0  0  0  0  0  0  0  0  0
  145.7093  139.0491  152.3301 H   0  0  0  0  0  0  0  0  0  0  0  0
  148.2754  139.4438  151.6919 H   0  0  0  0  0  0  0  0  0  0  0  0
  147.7427  137.3697  153.8772 H   0  0  0  0  0  0  0  0  0  0  0  0
  146.0433  137.4505  154.2168 H   0  0  0  0  0  0  0  0  0  0  0  0
  144.4927  136.8163  151.9369 H   0  0  0  0  0  0  0  0  0  0  0  0
  145.3834  135.8869  150.7265 H   0  0  0  0  0  0  0  0  0  0  0  0
  145.7161  137.6015  150.9323 H   0  0  0  0  0  0  0  0  0  0  0  0
  147.0987  134.7553  153.7352 H   0  0  0  0  0  0  0  0  0  0  0  0
  145.4143  135.2059  153.8819 H   0  0  0  0  0  0  0  0  0  0  0  0
  147.7708  133.7626  151.3202 H   0  0  0  0  0  0  0  0  0  0  0  0
  147.0878  131.9761  149.7382 H   0  0  0  0  0  0  0  0  0  0  0  0
  144.7313  131.1797  149.6971 H   0  0  0  0  0  0  0  0  0  0  0  0
  143.0537  132.1775  151.2397 H   0  0  0  0  0  0  0  0  0  0  0  0
  143.7253  133.9659  152.8211 H   0  0  0  0  0  0  0  0  0  0  0  0
  147.3596  136.2023  151.9609 H   0  0  0  0  0  0  0  0  0  0  0  0
  1  2  1  0  0  0  0
  1 25  1  0  0  0  0
  1 26  1  0  0  0  0
  1 27  1  0  0  0  0
  2  3  1  0  0  0  0
  2 28  1  0  0  0  0
  3 24  1  0  0  0  0
  3  4  2  0  0  0  0
  4  5  1  0  0  0  0
  5  6  2  0  0  0  0
  5 29  1  0  0  0  0
  6  7  1  0  0  0  0
  7 24  2  0  0  0  0
  7  8  1  0  0  0  0
  8  9  2  0  0  0  0
  9 10  1  0  0  0  0
  9 30  1  0  0  0  0
 10 11  1  0  0  0  0
 10 24  1  0  0  0  0
 11 12  1  0  0  0  0
 11 31  1  0  0  0  0
 11 32  1  0  0  0  0
 12 13  1  0  0  0  0
 12 14  1  0  0  0  0
 12 33  1  0  0  0  0
 13 34  1  0  0  0  0
 14 15  1  0  0  0  0
 14 35  1  0  0  0  0
 14 36  1  0  0  0  0
 15 16  1  0  0  0  0
 15 17  1  0  0  0  0
 15 47  1  0  0  0  0
 16 37  1  0  0  0  0
 16 38  1  0  0  0  0
 16 39  1  0  0  0  0
 17 18  1  0  0  0  0
 17 40  1  0  0  0  0
 17 41  1  0  0  0  0
 18 23  1  0  0  0  0
 18 19  2  0  0  0  0
 19 20  1  0  0  0  0
 19 42  1  0  0  0  0
 20 21  2  0  0  0  0
 20 43  1  0  0  0  0
 21 22  1  0  0  0  0
 21 44  1  0  0  0  0
 22 23  2  0  0  0  0
 22 45  1  0  0  0  0
 23 46  1  0  0  0  0
M  CHG  1  15   1
M  END
> <s_m_source_file>
AV-unprocessed.smi

> <i_m_source_file_index>
787

> <i_lp_mmshare_version>
43012

> <i_f3d_flags>
0

> <s_epik_input>
bjFbY0hdbmMoW05IXVtDSDNdKWMoYzEyKW4oW2NIXW4yKVtDSDJdW0NASF0oW09IXSlbQ0gyXU4oW0NIM10pW0NIMl1jM1tjSF1bY0hdW2NIXVtjSF1bY0hdMw==

> <s_epik_cmdline>
J2VwaWtfcHl0aG9uJywgJy1waCcsICc3LjAnLCAnLXRuJywgJzgnLCAnLW1hJywgJzIwMCcsICctbWV0YWxfYmluZGluZycsICctaW1hZScsICc8aW5maWxlLm1hZT4nLCAnLW9tYWUnLCAnPG91dGZpbGUubWFlPic=

> <r_lp_tautomer_probability>
0.999987

> <r_epik_Ionization_Penalty>
0.0526284

> <r_epik_Ionization_Penalty_Charging>
0.0475377

> <r_epik_Ionization_Penalty_Neutral>
0.00509065

> <r_epik_State_Penalty>
0.0404888

> <r_epik_Charging_Adjusted_Penalty>
0.0880265

> <i_epik_Tot_Q>
1

> <i_epik_Tot_abs_Q>
1

> <r_epik_Metal_State_Penalty>
0.040507

> <b_epik_Metal_Only>
0

> <s_lp_Force_Field>
OPLS_2005

> <r_lp_Energy>
14.9507

> <b_lp_Chiralities_Consistent>
1

> <s_lp_Variant>
AV-unprocessed.smi:787-4

> <Gold.Version>
5.8.1

> <Gold.Id.Protein>
6NUR|6NUR_protein|mol2

> <Gold.PLP.Fitness>
47.0630

> <Gold.PLP.PLP>
-32.2244

> <Gold.PLP.part.hbond>
-3.4534

> <Gold.PLP.part.metal>
0.0000

> <Gold.PLP.part.buried>
0.0670

> <Gold.PLP.part.nonpolar>
-29.1557

> <Gold.PLP.part.repulsive>
0.2310

> <Gold.PLP.ligand.clash>
0.0000

> <Gold.PLP.ligand.torsion>
0.8509

> <Gold.PLP.Chemscore.Hbond>
3.7999

> <Gold.PLP.Chemscore.CHOScore>
1.5889

> <Gold.PLP.Chemscore.Metal>
0.0000

> <Gold.Chemscore.Hbonds>
donor molecule, donor type, donor heavy atom, donor atom, acceptor molecule, acceptor atom, score
      L1  H    13    34       P1  7957  0.89
      L1  H    15    47       P1  7948  2.00
      P1  H  7954  7966       L1    13  0.88
      L1  C     9    30       P1  7948  1.00
      L1  C     9    30       P1  7957  0.59

> <Gold.PLP.Chemscore.Internal.Correction>
0.3739

> <Gold.Rescore>
     Score         DG    S(hbond)    S(metal)    S(lipo)     H(rot)  DE(clash)    DE(int)     intcor
      8.18     -11.92       1.91        0.00      70.35       3.19       0.79       2.95       ----

> <Gold.Chemscore.Fitness>
8.1806

> <Gold.Chemscore.DG>
-11.9154

> <Gold.Chemscore.ZeroCoef>
-5.4800

> <Gold.Chemscore.Hbond>
1.9097

> <Gold.Chemscore.Metal>
0.0000

> <Gold.Chemscore.Lipo>
70.3473

> <Gold.Chemscore.Internal_Hbond>
0.0000

> <Gold.Chemscore.DEClash>
0.7876

> <Gold.Chemscore.DEInternal>
2.9472

> <Gold.Chemscore.Rot>
3.1928

> <Gold.Chemscore.Internal.Correction>
   9.000000E+99

> <Gold.Chemscore.Hbonds>
donor molecule, donor type, donor heavy atom, donor atom, acceptor molecule, acceptor atom, score
      L1  H    13    34       P1  7957  0.81
      L1  H    15    47       P1  7948  0.94
      P1  H  7954  7966       L1    13  0.25

> <Gold.Chemscore.Hbond.Weighted>
-6.3784

> <Gold.Chemscore.Metal.Weighted>
-0.0000

> <Gold.Chemscore.Lipo.Weighted>
-8.2306

> <Gold.Chemscore.Internal_Hbond.Weighted>
0.0000

> <Gold.Chemscore.DEClash.Weighted>
0.7876

> <Gold.Chemscore.DEInternal.Weighted>
2.9472

> <Gold.Chemscore.Rot.Weighted>
8.1736

> <Gold.Chemscore.Internal.Correction.Weighted>
   9.000000E+99

> <Gold.Protein.RotatedTorsions>
[ 6907 6896 6895 6894 ] final -151.33 input  -60.11 | X-H torsion
[ 7974 7965 7964 7962 ] final  178.99 input  175.53 | X-H torsion
[ 8008 7997 7996 7995 ] final   51.33 input   59.86 | X-H torsion
[ 10167 10162 10161 10158 ] final -122.83 input  -65.29 | X-H torsion
[ 10718 10713 10712 10709 ] final   48.58 input   66.30 | X-H torsion
[ 10763 10752 10751 10750 ] final   91.49 input  -60.55 | X-H torsion
[ 11005 11000 10999 10996 ] final  -31.15 input  -57.11 | X-H torsion

> <Gold.Protein.ActiveResidues>
 VAL166  LYS551  ARG553  GLY616  TRP617  ASP618  TYR619  PRO620  LYS621  CYS622 
 ASP623  PHE694  ASN695  SER759  ASP760  ASP761  ALA762  ILE779  LEU786  VAL792 
 PHE793  MET794  SER795  GLU796  ALA797  LYS798  CYS799  TRP800  GLU811  SER814 

> <Gold.Protein.RotatedAtoms>
  151.2115  133.4553  159.2598 H   0  0  0  0  0  0  0  0  0  0  0  0  # atno 6907 bound_to 6896
  151.0972  134.9951  159.8441 H   0  0  0  0  0  0  0  0  0  0  0  0  # atno 6908 bound_to 6896
  152.5440  134.2044  159.8778 H   0  0  0  0  0  0  0  0  0  0  0  0  # atno 6909 bound_to 6896
  144.7150  140.0481  143.6436 H   0  0  0  0  0  0  0  0  0  0  0  0  # atno 7974 bound_to 7965
  155.4335  140.3451  155.4282 H   0  0  0  0  0  0  0  0  0  0  0  0  # atno 8008 bound_to 7997
  156.1322  140.1517  156.9079 H   0  0  0  0  0  0  0  0  0  0  0  0  # atno 8009 bound_to 7997
  154.4903  140.0843  156.7560 H   0  0  0  0  0  0  0  0  0  0  0  0  # atno 8010 bound_to 7997
  140.0100  143.5451  152.2267 H   0  0  0  0  0  0  0  0  0  0  0  0  # atno 10167 bound_to 10162
  157.4701  130.8250  149.7979 H   0  0  0  0  0  0  0  0  0  0  0  0  # atno 10718 bound_to 10713
  153.2088  135.4395  155.0355 H   0  0  0  0  0  0  0  0  0  0  0  0  # atno 10763 bound_to 10752
  154.8189  135.3328  154.7099 H   0  0  0  0  0  0  0  0  0  0  0  0  # atno 10764 bound_to 10752
  153.7539  135.6996  153.4995 H   0  0  0  0  0  0  0  0  0  0  0  0  # atno 10765 bound_to 10752
  140.9444  133.7259  156.1124 H   0  0  0  0  0  0  0  0  0  0  0  0  # atno 11005 bound_to 11000
  145.9967  139.3058  143.0952 LP  0  0  0  0  0  0  0  0  0  0  0  0  # atno 17320 bound_to 7965
  145.8840  140.9345  143.0586 LP  0  0  0  0  0  0  0  0  0  0  0  0  # atno 17321 bound_to 7965
  139.6211  144.7629  151.2738 LP  0  0  0  0  0  0  0  0  0  0  0  0  # atno 17342 bound_to 10162
  140.7385  143.6646  150.8134 LP  0  0  0  0  0  0  0  0  0  0  0  0  # atno 17343 bound_to 10162
  156.0069  130.3851  150.2399 LP  0  0  0  0  0  0  0  0  0  0  0  0  # atno 17370 bound_to 10713
  157.0581  131.0082  151.3231 LP  0  0  0  0  0  0  0  0  0  0  0  0  # atno 17371 bound_to 10713
  140.7690  134.3854  157.5511 LP  0  0  0  0  0  0  0  0  0  0  0  0  # atno 17394 bound_to 11000
  139.8829  134.9010  156.2800 LP  0  0  0  0  0  0  0  0  0  0  0  0  # atno 17395 bound_to 11000

$$$$
