AV-unprocessed.smi:2619|AV-procd|sdf|10222|dock4
  -GOLD-   2272014223D 1   1.00000     0.00000
 Structure written by MMmdl.
 25 26  0  0  0  0  0  0  0  0  1 V2000
  147.6988  142.3042  156.8182 O   0  0  0  0  0  0  0  0  0  0  0  0
  148.8246  141.8200  157.5205 C   0  0  0  0  0  0  0  0  0  0  0  0
  150.0696  141.7912  156.6183 C   0  0  0  0  0  0  0  0  0  0  0  0
  151.2062  141.1200  157.2384 N   0  0  0  0  0  0  0  0  0  0  0  0
  151.8725  140.0131  156.8189 C   0  0  0  0  0  0  0  0  0  0  0  0
  151.5297  139.2835  155.5555 C   0  0  0  0  0  0  0  0  0  0  0  0
  153.0119  138.7700  154.7099 Cl  0  0  0  0  0  0  0  0  0  0  0  0
  152.8836  139.6175  157.5933 N   0  0  0  0  0  0  0  0  0  0  0  0
  152.8740  140.5513  158.6099 C   0  0  0  0  0  0  0  0  0  0  0  0
  153.7050  140.6797  159.7457 C   0  0  0  0  0  0  0  0  0  0  0  0
  153.5049  141.7341  160.6606 C   0  0  0  0  0  0  0  0  0  0  0  0
  152.4736  142.6730  160.4532 C   0  0  0  0  0  0  0  0  0  0  0  0
  152.2397  143.9599  161.5781 Cl  0  0  0  0  0  0  0  0  0  0  0  0
  151.6339  142.5620  159.3281 C   0  0  0  0  0  0  0  0  0  0  0  0
  151.8369  141.5071  158.4180 C   0  0  0  0  0  0  0  0  0  0  0  0
  147.9875  142.9582  156.2005 H   0  0  0  0  0  0  0  0  0  0  0  0
  149.0025  142.4624  158.3830 H   0  0  0  0  0  0  0  0  0  0  0  0
  148.6003  140.8262  157.9056 H   0  0  0  0  0  0  0  0  0  0  0  0
  149.8337  141.2801  155.6843 H   0  0  0  0  0  0  0  0  0  0  0  0
  150.3579  142.8017  156.3322 H   0  0  0  0  0  0  0  0  0  0  0  0
  150.9519  138.3888  155.7882 H   0  0  0  0  0  0  0  0  0  0  0  0
  150.9381  139.8941  154.8759 H   0  0  0  0  0  0  0  0  0  0  0  0
  154.4987  139.9667  159.9128 H   0  0  0  0  0  0  0  0  0  0  0  0
  154.1474  141.8220  161.5245 H   0  0  0  0  0  0  0  0  0  0  0  0
  150.8457  143.2815  159.1637 H   0  0  0  0  0  0  0  0  0  0  0  0
  1  2  1  0  0  0  0
  1 16  1  0  0  0  0
  2  3  1  0  0  0  0
  2 17  1  0  0  0  0
  2 18  1  0  0  0  0
  3  4  1  0  0  0  0
  3 19  1  0  0  0  0
  3 20  1  0  0  0  0
  4 15  1  0  0  0  0
  4  5  1  0  0  0  0
  5  6  1  0  0  0  0
  5  8  2  0  0  0  0
  6  7  1  0  0  0  0
  6 21  1  0  0  0  0
  6 22  1  0  0  0  0
  8  9  1  0  0  0  0
  9 15  2  0  0  0  0
  9 10  1  0  0  0  0
 10 11  2  0  0  0  0
 10 23  1  0  0  0  0
 11 12  1  0  0  0  0
 11 24  1  0  0  0  0
 12 13  1  0  0  0  0
 12 14  2  0  0  0  0
 14 15  1  0  0  0  0
 14 25  1  0  0  0  0
M  END
> <s_m_source_file>
AV-unprocessed.smi

> <i_m_source_file_index>
2619

> <i_lp_mmshare_version>
43012

> <i_f3d_flags>
0

> <s_epik_input>
W09IXVtDSDJdW0NIMl1uKGMobjEpW0NIMl1DbCljKGMxMilbY0hdYyhDbClbY0hdW2NIXTI=

> <s_epik_cmdline>
J2VwaWtfcHl0aG9uJywgJy1waCcsICc3LjAnLCAnLXRuJywgJzgnLCAnLW1hJywgJzIwMCcsICctbWV0YWxfYmluZGluZycsICctaW1hZScsICc8aW5maWxlLm1hZT4nLCAnLW9tYWUnLCAnPG91dGZpbGUubWFlPic=

> <r_epik_Ionization_Penalty>
0.00756278

> <r_epik_Ionization_Penalty_Charging>
0

> <r_epik_Ionization_Penalty_Neutral>
0.00756278

> <r_epik_State_Penalty>
0.00565607

> <r_epik_Charging_Adjusted_Penalty>
0.00565607

> <i_epik_Tot_Q>
0

> <i_epik_Tot_abs_Q>
0

> <r_epik_Metal_State_Penalty>
-0

> <b_epik_Metal_Only>
0

> <s_lp_Force_Field>
OPLS_2005

> <r_lp_Energy>
6.1257

> <b_lp_Chiralities_Consistent>
1

> <s_lp_Variant>
AV-unprocessed.smi:2619-1

> <Gold.Version>
5.8.1

> <Gold.Id.Protein>
6NUR|6NUR_protein|mol2

> <Gold.PLP.Fitness>
41.0902

> <Gold.PLP.PLP>
-35.6939

> <Gold.PLP.part.hbond>
-2.0000

> <Gold.PLP.part.metal>
0.0000

> <Gold.PLP.part.buried>
-3.2238

> <Gold.PLP.part.nonpolar>
-30.3944

> <Gold.PLP.part.repulsive>
0.0000

> <Gold.PLP.ligand.clash>
0.0000

> <Gold.PLP.ligand.torsion>
0.3030

> <Gold.PLP.Chemscore.Hbond>
2.0000

> <Gold.PLP.Chemscore.CHOScore>
0.0000

> <Gold.PLP.Chemscore.Metal>
0.0000

> <Gold.Chemscore.Hbonds>
donor molecule, donor type, donor heavy atom, donor atom, acceptor molecule, acceptor atom, score
      L1  H     1    16       P1  8028  1.00
      P1  H  7997  8009       L1     8  1.00

> <Gold.PLP.Chemscore.Internal.Correction>
0.0024

> <Gold.Rescore>
     Score         DG    S(hbond)    S(metal)    S(lipo)     H(rot)  DE(clash)    DE(int)     intcor
     14.66     -15.12       0.95        0.00      96.37       1.88       0.13       0.34       ----

> <Gold.Chemscore.Fitness>
14.6562

> <Gold.Chemscore.DG>
-15.1239

> <Gold.Chemscore.ZeroCoef>
-5.4800

> <Gold.Chemscore.Hbond>
0.9522

> <Gold.Chemscore.Metal>
0.0000

> <Gold.Chemscore.Lipo>
96.3655

> <Gold.Chemscore.Internal_Hbond>
0.0000

> <Gold.Chemscore.DEClash>
0.1265

> <Gold.Chemscore.DEInternal>
0.3412

> <Gold.Chemscore.Rot>
1.8794

> <Gold.Chemscore.Internal.Correction>
   9.000000E+99

> <Gold.Chemscore.Hbonds>
donor molecule, donor type, donor heavy atom, donor atom, acceptor molecule, acceptor atom, score
      L1  H     1    16       P1  8028  0.46
      P1  H  7997  8009       L1     8  0.13

> <Gold.Chemscore.Hbond.Weighted>
-3.1803

> <Gold.Chemscore.Metal.Weighted>
-0.0000

> <Gold.Chemscore.Lipo.Weighted>
-11.2748

> <Gold.Chemscore.Internal_Hbond.Weighted>
0.0000

> <Gold.Chemscore.DEClash.Weighted>
0.1265

> <Gold.Chemscore.DEInternal.Weighted>
0.3412

> <Gold.Chemscore.Rot.Weighted>
4.8112

> <Gold.Chemscore.Internal.Correction.Weighted>
   9.000000E+99

> <Gold.Protein.RotatedTorsions>
[ 6907 6896 6895 6894 ] final   74.46 input  -60.11 | X-H torsion
[ 7974 7965 7964 7962 ] final -128.70 input  175.53 | X-H torsion
[ 8008 7997 7996 7995 ] final -172.70 input   59.86 | X-H torsion
[ 10167 10162 10161 10158 ] final  119.71 input  -65.29 | X-H torsion
[ 10718 10713 10712 10709 ] final -104.70 input   66.30 | X-H torsion
[ 10763 10752 10751 10750 ] final   -2.06 input  -60.55 | X-H torsion
[ 11005 11000 10999 10996 ] final   69.65 input  -57.11 | X-H torsion

> <Gold.Protein.ActiveResidues>
 VAL166  LYS551  ARG553  GLY616  TRP617  ASP618  TYR619  PRO620  LYS621  CYS622 
 ASP623  PHE694  ASN695  SER759  ASP760  ASP761  ALA762  ILE779  LEU786  VAL792 
 PHE793  MET794  SER795  GLU796  ALA797  LYS798  CYS799  TRP800  GLU811  SER814 

> <Gold.Protein.RotatedAtoms>
  152.4977  134.4268  159.9498 H   0  0  0  0  0  0  0  0  0  0  0  0  # atno 6907 bound_to 6896
  151.4244  133.3682  159.2768 H   0  0  0  0  0  0  0  0  0  0  0  0  # atno 6908 bound_to 6896
  150.9199  134.8640  159.7542 H   0  0  0  0  0  0  0  0  0  0  0  0  # atno 6909 bound_to 6896
  144.9644  140.7481  143.4709 H   0  0  0  0  0  0  0  0  0  0  0  0  # atno 7974 bound_to 7965
  155.9480  140.1121  157.1001 H   0  0  0  0  0  0  0  0  0  0  0  0  # atno 8008 bound_to 7997
  154.4103  140.1206  156.5081 H   0  0  0  0  0  0  0  0  0  0  0  0  # atno 8009 bound_to 7997
  155.6878  140.3473  155.4883 H   0  0  0  0  0  0  0  0  0  0  0  0  # atno 8010 bound_to 7997
  139.6029  144.7062  151.3021 H   0  0  0  0  0  0  0  0  0  0  0  0  # atno 10167 bound_to 10162
  156.0315  130.5528  150.7434 H   0  0  0  0  0  0  0  0  0  0  0  0  # atno 10718 bound_to 10713
  153.3530  135.6986  153.6773 H   0  0  0  0  0  0  0  0  0  0  0  0  # atno 10763 bound_to 10752
  153.5492  135.3557  155.2752 H   0  0  0  0  0  0  0  0  0  0  0  0  # atno 10764 bound_to 10752
  154.8656  135.4222  154.2770 H   0  0  0  0  0  0  0  0  0  0  0  0  # atno 10765 bound_to 10752
  139.9641  134.7010  156.0582 H   0  0  0  0  0  0  0  0  0  0  0  0  # atno 11005 bound_to 11000
  145.2651  139.1976  143.4871 LP  0  0  0  0  0  0  0  0  0  0  0  0  # atno 17320 bound_to 7965
  146.3363  140.2588  142.8601 LP  0  0  0  0  0  0  0  0  0  0  0  0  # atno 17321 bound_to 7965
  140.7263  143.6994  150.7857 LP  0  0  0  0  0  0  0  0  0  0  0  0  # atno 17342 bound_to 10162
  140.0574  143.5189  152.2644 LP  0  0  0  0  0  0  0  0  0  0  0  0  # atno 17343 bound_to 10162
  157.4997  131.0917  151.0329 LP  0  0  0  0  0  0  0  0  0  0  0  0  # atno 17370 bound_to 10713
  157.0714  130.5865  149.5403 LP  0  0  0  0  0  0  0  0  0  0  0  0  # atno 17371 bound_to 10713
  141.1320  133.6584  156.3491 LP  0  0  0  0  0  0  0  0  0  0  0  0  # atno 17394 bound_to 11000
  140.5434  134.6098  157.5386 LP  0  0  0  0  0  0  0  0  0  0  0  0  # atno 17395 bound_to 11000

$$$$
