AV-unprocessed.smi:2962|AV-procd|sdf|11318|dock1
  -GOLD-   2272016223D 1   1.00000     0.00000
 Structure written by MMmdl.
 37 38  0  0  0  0  0  0  0  0  2 V2000
  153.7618  138.4606  154.4375 C   0  0  0  0  0  0  0  0  0  0  0  0
  153.0469  139.4049  155.2143 O   0  0  0  0  0  0  0  0  0  0  0  0
  151.7371  138.9651  155.5355 C   0  0  0  0  0  0  0  0  0  0  0  0
  151.3344  139.5130  156.9115 C   0  0  0  0  0  0  0  0  0  0  0  0
  151.1621  140.9722  156.9002 N   0  0  0  0  0  0  0  0  0  0  0  0
  150.4574  141.7735  156.0543 C   0  0  0  0  0  0  0  0  0  0  0  0
  149.4969  141.2540  154.6719 S   0  0  0  0  0  0  0  0  0  0  0  0
  147.8448  141.9442  154.9716 C   0  0  1  0  0  0  0  0  0  0  0  0
  146.9402  141.7183  153.7502 C   0  0  0  0  0  0  0  0  0  0  0  0
  147.2174  141.3633  156.2452 C   0  0  0  0  0  0  0  0  0  0  0  0
  146.9516  142.2161  157.2385 N   0  0  0  0  0  0  0  0  0  0  0  0
  146.9912  140.1589  156.3418 O   0  0  0  0  0  0  0  0  0  0  0  0
  150.6090  143.0585  156.4759 N   0  3  0  0  0  0  0  0  0  0  0  0
  151.4305  143.0825  157.6045 C   0  0  0  0  0  0  0  0  0  0  0  0
  151.8755  144.1447  158.3854 C   0  0  0  0  0  0  0  0  0  0  0  0
  152.7116  143.8224  159.4747 C   0  0  0  0  0  0  0  0  0  0  0  0
  153.0745  142.4885  159.7532 C   0  0  0  0  0  0  0  0  0  0  0  0
  152.6165  141.4192  158.9556 C   0  0  0  0  0  0  0  0  0  0  0  0
  151.7902  141.7462  157.8812 C   0  0  0  0  0  0  0  0  0  0  0  0
  154.7535  138.8501  154.2080 H   0  0  0  0  0  0  0  0  0  0  0  0
  153.2532  138.2587  153.4938 H   0  0  0  0  0  0  0  0  0  0  0  0
  153.8860  137.5206  154.9770 H   0  0  0  0  0  0  0  0  0  0  0  0
  151.0298  139.3098  154.7797 H   0  0  0  0  0  0  0  0  0  0  0  0
  151.7018  137.8747  155.5413 H   0  0  0  0  0  0  0  0  0  0  0  0
  150.3909  139.0682  157.2292 H   0  0  0  0  0  0  0  0  0  0  0  0
  152.0705  139.2493  157.6715 H   0  0  0  0  0  0  0  0  0  0  0  0
  147.9679  143.0201  155.1043 H   0  0  0  0  0  0  0  0  0  0  0  0
  145.9413  142.1237  153.9159 H   0  0  0  0  0  0  0  0  0  0  0  0
  146.8363  140.6578  153.5172 H   0  0  0  0  0  0  0  0  0  0  0  0
  147.3500  142.2104  152.8675 H   0  0  0  0  0  0  0  0  0  0  0  0
  146.5523  141.8805  158.1027 H   0  0  0  0  0  0  0  0  0  0  0  0
  147.1667  143.1963  157.1246 H   0  0  0  0  0  0  0  0  0  0  0  0
  151.6005  145.1676  158.1739 H   0  0  0  0  0  0  0  0  0  0  0  0
  153.0830  144.6143  160.1089 H   0  0  0  0  0  0  0  0  0  0  0  0
  153.7178  142.2811  160.5960 H   0  0  0  0  0  0  0  0  0  0  0  0
  152.9010  140.4008  159.1759 H   0  0  0  0  0  0  0  0  0  0  0  0
  150.1870  143.8569  156.0193 H   0  0  0  0  0  0  0  0  0  0  0  0
  1  2  1  0  0  0  0
  1 20  1  0  0  0  0
  1 21  1  0  0  0  0
  1 22  1  0  0  0  0
  2  3  1  0  0  0  0
  3  4  1  0  0  0  0
  3 23  1  0  0  0  0
  3 24  1  0  0  0  0
  4  5  1  0  0  0  0
  4 25  1  0  0  0  0
  4 26  1  0  0  0  0
  5 19  1  0  0  0  0
  5  6  1  0  0  0  0
  6  7  1  0  0  0  0
  6 13  2  0  0  0  0
  7  8  1  0  0  0  0
  8  9  1  0  0  0  0
  8 10  1  0  0  0  0
  8 27  1  0  0  0  0
  9 28  1  0  0  0  0
  9 29  1  0  0  0  0
  9 30  1  0  0  0  0
 10 11  1  0  0  0  0
 10 12  2  0  0  0  0
 11 31  1  0  0  0  0
 11 32  1  0  0  0  0
 13 14  1  0  0  0  0
 13 37  1  0  0  0  0
 14 19  2  0  0  0  0
 14 15  1  0  0  0  0
 15 16  2  0  0  0  0
 15 33  1  0  0  0  0
 16 17  1  0  0  0  0
 16 34  1  0  0  0  0
 17 18  2  0  0  0  0
 17 35  1  0  0  0  0
 18 19  1  0  0  0  0
 18 36  1  0  0  0  0
M  CHG  1  13   1
M  END
> <s_m_source_file>
AV-unprocessed.smi

> <i_m_source_file_index>
2962

> <i_lp_mmshare_version>
43012

> <i_f3d_flags>
0

> <s_epik_input>
W2NIXTFbY0hdW2NIXVtjSF1jKGMxMiluKFtDSDJdW0NIMl1PW0NIM10pYyhuMilTW0NASF0oW0NIM10pQyg9TylbTkgyXQ==

> <s_epik_cmdline>
J2VwaWtfcHl0aG9uJywgJy1waCcsICc3LjAnLCAnLXRuJywgJzgnLCAnLW1hJywgJzIwMCcsICctbWV0YWxfYmluZGluZycsICctaW1hZScsICc8aW5maWxlLm1hZT4nLCAnLW9tYWUnLCAnPG91dGZpbGUubWFlPic=

> <r_epik_Ionization_Penalty>
2.01771

> <r_epik_Ionization_Penalty_Charging>
2.01771

> <r_epik_Ionization_Penalty_Neutral>
3.318e-07

> <r_epik_State_Penalty>
2.14773

> <r_epik_Charging_Adjusted_Penalty>
4.16544

> <i_epik_Tot_Q>
1

> <i_epik_Tot_abs_Q>
1

> <r_epik_Metal_State_Penalty>
2.1675

> <b_epik_Metal_Only>
0

> <s_lp_Force_Field>
OPLS_2005

> <r_lp_Energy>
8.26224

> <b_lp_Chiralities_Consistent>
1

> <s_lp_Variant>
AV-unprocessed.smi:2962-4

> <Gold.Version>
5.8.1

> <Gold.Id.Protein>
6NUR|6NUR_protein|mol2

> <Gold.PLP.Fitness>
49.3347

> <Gold.PLP.PLP>
-40.8654

> <Gold.PLP.part.hbond>
-2.1804

> <Gold.PLP.part.metal>
0.0000

> <Gold.PLP.part.buried>
-2.9958

> <Gold.PLP.part.nonpolar>
-35.9027

> <Gold.PLP.part.repulsive>
0.1127

> <Gold.PLP.ligand.clash>
0.0000

> <Gold.PLP.ligand.torsion>
0.3768

> <Gold.PLP.Chemscore.Hbond>
3.0000

> <Gold.PLP.Chemscore.CHOScore>
0.0000

> <Gold.PLP.Chemscore.Metal>
0.0000

> <Gold.Chemscore.Hbonds>
donor molecule, donor type, donor heavy atom, donor atom, acceptor molecule, acceptor atom, score
      L1  H    13    37       P1  8028  2.00
      P1  H  7997  8009       L1     2  1.00

> <Gold.PLP.Chemscore.Internal.Correction>
0.2228

> <Gold.Rescore>
     Score         DG    S(hbond)    S(metal)    S(lipo)     H(rot)  DE(clash)    DE(int)     intcor
     17.20     -17.77       1.84        0.00     108.75       2.57       0.07       0.49       ----

> <Gold.Chemscore.Fitness>
17.2021

> <Gold.Chemscore.DG>
-17.7682

> <Gold.Chemscore.ZeroCoef>
-5.4800

> <Gold.Chemscore.Hbond>
1.8412

> <Gold.Chemscore.Metal>
0.0000

> <Gold.Chemscore.Lipo>
108.7494

> <Gold.Chemscore.Internal_Hbond>
0.0000

> <Gold.Chemscore.DEClash>
0.0726

> <Gold.Chemscore.DEInternal>
0.4935

> <Gold.Chemscore.Rot>
2.5723

> <Gold.Chemscore.Internal.Correction>
   9.000000E+99

> <Gold.Chemscore.Hbonds>
donor molecule, donor type, donor heavy atom, donor atom, acceptor molecule, acceptor atom, score
      L1  H    13    37       P1  8028  0.94
      P1  H  7997  8009       L1     2  0.30

> <Gold.Chemscore.Hbond.Weighted>
-6.1495

> <Gold.Chemscore.Metal.Weighted>
-0.0000

> <Gold.Chemscore.Lipo.Weighted>
-12.7237

> <Gold.Chemscore.Internal_Hbond.Weighted>
0.0000

> <Gold.Chemscore.DEClash.Weighted>
0.0726

> <Gold.Chemscore.DEInternal.Weighted>
0.4935

> <Gold.Chemscore.Rot.Weighted>
6.5850

> <Gold.Chemscore.Internal.Correction.Weighted>
   9.000000E+99

> <Gold.Protein.RotatedTorsions>
[ 6907 6896 6895 6894 ] final  -19.60 input  -60.11 | X-H torsion
[ 7974 7965 7964 7962 ] final  -58.78 input  175.53 | X-H torsion
[ 8008 7997 7996 7995 ] final -152.78 input   59.86 | X-H torsion
[ 10167 10162 10161 10158 ] final  123.22 input  -65.29 | X-H torsion
[ 10718 10713 10712 10709 ] final  -58.66 input   66.30 | X-H torsion
[ 10763 10752 10751 10750 ] final   50.72 input  -60.55 | X-H torsion
[ 11005 11000 10999 10996 ] final -135.25 input  -57.11 | X-H torsion

> <Gold.Protein.ActiveResidues>
 VAL166  LYS551  ARG553  GLY616  TRP617  ASP618  TYR619  PRO620  LYS621  CYS622 
 ASP623  PHE694  ASN695  SER759  ASP760  ASP761  ALA762  ILE779  LEU786  VAL792 
 PHE793  MET794  SER795  GLU796  ALA797  LYS798  CYS799  TRP800  GLU811  SER814 

> <Gold.Protein.RotatedAtoms>
  151.2607  135.0653  159.9096 H   0  0  0  0  0  0  0  0  0  0  0  0  # atno 6907 bound_to 6896
  152.5366  134.0234  159.8002 H   0  0  0  0  0  0  0  0  0  0  0  0  # atno 6908 bound_to 6896
  151.0456  133.5618  159.2678 H   0  0  0  0  0  0  0  0  0  0  0  0  # atno 6909 bound_to 6896
  145.8353  140.8453  143.0062 H   0  0  0  0  0  0  0  0  0  0  0  0  # atno 7974 bound_to 7965
  155.6606  140.0722  157.2555 H   0  0  0  0  0  0  0  0  0  0  0  0  # atno 8008 bound_to 7997
  154.4143  140.1717  156.1823 H   0  0  0  0  0  0  0  0  0  0  0  0  # atno 8009 bound_to 7997
  155.9701  140.3362  155.6570 H   0  0  0  0  0  0  0  0  0  0  0  0  # atno 8010 bound_to 7997
  139.5812  144.6987  151.3524 H   0  0  0  0  0  0  0  0  0  0  0  0  # atno 10167 bound_to 10162
  156.1119  130.4174  150.0608 H   0  0  0  0  0  0  0  0  0  0  0  0  # atno 10718 bound_to 10713
  152.9784  135.5869  154.4298 H   0  0  0  0  0  0  0  0  0  0  0  0  # atno 10763 bound_to 10752
  154.3913  135.2768  155.2155 H   0  0  0  0  0  0  0  0  0  0  0  0  # atno 10764 bound_to 10752
  154.4026  135.6100  153.5960 H   0  0  0  0  0  0  0  0  0  0  0  0  # atno 10765 bound_to 10752
  140.8916  134.1805  157.4524 H   0  0  0  0  0  0  0  0  0  0  0  0  # atno 11005 bound_to 11000
  144.6737  140.0732  143.7472 LP  0  0  0  0  0  0  0  0  0  0  0  0  # atno 17320 bound_to 7965
  145.9526  139.2744  143.1203 LP  0  0  0  0  0  0  0  0  0  0  0  0  # atno 17321 bound_to 7965
  140.7090  143.7440  150.7532 LP  0  0  0  0  0  0  0  0  0  0  0  0  # atno 17342 bound_to 10162
  140.0973  143.4821  152.2445 LP  0  0  0  0  0  0  0  0  0  0  0  0  # atno 17343 bound_to 10162
  156.8569  130.9478  151.3621 LP  0  0  0  0  0  0  0  0  0  0  0  0  # atno 17370 bound_to 10713
  157.6300  130.8722  149.9257 LP  0  0  0  0  0  0  0  0  0  0  0  0  # atno 17371 bound_to 10713
  139.8730  134.9861  156.5308 LP  0  0  0  0  0  0  0  0  0  0  0  0  # atno 17394 bound_to 11000
  140.8340  133.8256  155.9011 LP  0  0  0  0  0  0  0  0  0  0  0  0  # atno 17395 bound_to 11000

$$$$
