AV-unprocessed.smi:2682|AV-procd|sdf|10375|dock8
  -GOLD-   2272014403D 1   1.00000     0.00000
 Structure written by MMmdl.
 29 29  0  0  0  0  0  0  0  0  2 V2000
  146.9188  142.3399  154.1865 C   0  0  0  0  0  0  0  0  0  0  0  0
  147.3611  141.0687  154.6285 O   0  0  0  0  0  0  0  0  0  0  0  0
  148.7349  140.8472  154.3558 C   0  0  0  0  0  0  0  0  0  0  0  0
  149.5574  141.1971  155.5994 C   0  0  0  0  0  0  0  0  0  0  0  0
  150.9327  141.0050  155.3150 O   0  0  0  0  0  0  0  0  0  0  0  0
  151.4580  139.8326  155.9183 C   0  0  0  0  0  0  0  0  0  0  0  0
  152.1430  140.2092  157.2312 C   0  0  0  0  0  0  0  0  0  0  0  0
  153.0540  139.4992  157.6543 O   0  0  0  0  0  0  0  0  0  0  0  0
  151.6755  141.3255  157.8243 N   0  0  0  0  0  0  0  0  0  0  0  0
  152.0892  141.9664  159.0055 C   0  0  0  0  0  0  0  0  0  0  0  0
  152.7327  141.3610  160.0428 C   0  0  0  0  0  0  0  0  0  0  0  0
  153.1346  142.1012  161.2265 C   0  0  0  0  0  0  0  0  0  0  0  0
  152.8081  143.4382  161.1781 C   0  0  0  0  0  0  0  0  0  0  0  0
  152.1809  144.1114  160.1896 N   0  5  0  0  0  0  0  0  0  0  0  0
  151.8003  143.4164  159.0785 C   0  0  0  0  0  0  0  0  0  0  0  0
  151.2251  143.9708  158.1408 O   0  0  0  0  0  0  0  0  0  0  0  0
  145.8624  142.4634  154.4244 H   0  0  0  0  0  0  0  0  0  0  0  0
  147.0353  142.4444  153.1070 H   0  0  0  0  0  0  0  0  0  0  0  0
  147.4708  143.1422  154.6780 H   0  0  0  0  0  0  0  0  0  0  0  0
  148.8844  139.7958  154.1062 H   0  0  0  0  0  0  0  0  0  0  0  0
  149.0665  141.4377  153.5002 H   0  0  0  0  0  0  0  0  0  0  0  0
  149.3605  142.2234  155.9135 H   0  0  0  0  0  0  0  0  0  0  0  0
  149.2680  140.5407  156.4214 H   0  0  0  0  0  0  0  0  0  0  0  0
  150.6597  139.1127  156.1075 H   0  0  0  0  0  0  0  0  0  0  0  0
  152.1878  139.3575  155.2609 H   0  0  0  0  0  0  0  0  0  0  0  0
  150.8921  141.7705  157.3682 H   0  0  0  0  0  0  0  0  0  0  0  0
  152.9793  140.3129  160.0240 H   0  0  0  0  0  0  0  0  0  0  0  0
  153.6404  141.6452  162.0644 H   0  0  0  0  0  0  0  0  0  0  0  0
  153.0921  144.0521  162.0594 H   0  0  0  0  0  0  0  0  0  0  0  0
  1  2  1  0  0  0  0
  1 17  1  0  0  0  0
  1 18  1  0  0  0  0
  1 19  1  0  0  0  0
  2  3  1  0  0  0  0
  3  4  1  0  0  0  0
  3 20  1  0  0  0  0
  3 21  1  0  0  0  0
  4  5  1  0  0  0  0
  4 22  1  0  0  0  0
  4 23  1  0  0  0  0
  5  6  1  0  0  0  0
  6  7  1  0  0  0  0
  6 24  1  0  0  0  0
  6 25  1  0  0  0  0
  7  8  2  0  0  0  0
  7  9  1  0  0  0  0
  9 26  1  0  0  0  0
  9 10  1  0  0  0  0
 10 11  2  0  0  0  0
 10 15  1  0  0  0  0
 11 12  1  0  0  0  0
 11 27  1  0  0  0  0
 12 13  2  0  0  0  0
 12 28  1  0  0  0  0
 13 14  1  0  0  0  0
 13 29  1  0  0  0  0
 14 15  1  0  0  0  0
 15 16  2  0  0  0  0
M  CHG  1  14  -1
M  END
> <s_m_source_file>
AV-unprocessed.smi

> <i_m_source_file_index>
2682

> <i_lp_mmshare_version>
43012

> <i_f3d_flags>
0

> <s_epik_input>
W0NIM11PW0NIMl1bQ0gyXU9bQ0gyXUMoPU8pW05IXWMxW2NIXVtjSF1bY0hdbmMxW09IXQ==

> <s_epik_cmdline>
J2VwaWtfcHl0aG9uJywgJy1waCcsICc3LjAnLCAnLXRuJywgJzgnLCAnLW1hJywgJzIwMCcsICctbWV0YWxfYmluZGluZycsICctaW1hZScsICc8aW5maWxlLm1hZT4nLCAnLW9tYWUnLCAnPG91dGZpbGUubWFlPic=

> <r_lp_tautomer_probability>
1

> <r_epik_Ionization_Penalty>
5.6643

> <r_epik_Ionization_Penalty_Charging>
0.525144

> <r_epik_Ionization_Penalty_Neutral>
5.13916

> <r_epik_State_Penalty>
5.13906

> <r_epik_Charging_Adjusted_Penalty>
5.6642

> <i_epik_Tot_Q>
-1

> <i_epik_Tot_abs_Q>
1

> <r_epik_Metal_State_Penalty>
1.22048

> <b_epik_Metal_Only>
1

> <s_lp_Force_Field>
OPLS_2005

> <r_lp_Energy>
18.608

> <b_lp_Chiralities_Consistent>
1

> <s_lp_Variant>
AV-unprocessed.smi:2682-2

> <Gold.Version>
5.8.1

> <Gold.Id.Protein>
6NUR|6NUR_protein|mol2

> <Gold.PLP.Fitness>
33.9505

> <Gold.PLP.PLP>
-31.4140

> <Gold.PLP.part.hbond>
-2.0000

> <Gold.PLP.part.metal>
0.0000

> <Gold.PLP.part.buried>
-4.0260

> <Gold.PLP.part.nonpolar>
-25.2313

> <Gold.PLP.part.repulsive>
0.4405

> <Gold.PLP.ligand.clash>
0.0000

> <Gold.PLP.ligand.torsion>
1.3153

> <Gold.PLP.Chemscore.Hbond>
1.7200

> <Gold.PLP.Chemscore.CHOScore>
0.0000

> <Gold.PLP.Chemscore.Metal>
0.0000

> <Gold.Chemscore.Hbonds>
donor molecule, donor type, donor heavy atom, donor atom, acceptor molecule, acceptor atom, score
      P1  H  7989  7998       L1     5  0.69
      P1  H  7997  8010       L1     8  1.00

> <Gold.PLP.Chemscore.Internal.Correction>
0.0071

> <Gold.Rescore>
     Score         DG    S(hbond)    S(metal)    S(lipo)     H(rot)  DE(clash)    DE(int)     intcor
     12.21     -14.20       1.85        0.00      68.04       2.11       0.10       1.90       ----

> <Gold.Chemscore.Fitness>
12.2085

> <Gold.Chemscore.DG>
-14.2030

> <Gold.Chemscore.ZeroCoef>
-5.4800

> <Gold.Chemscore.Hbond>
1.8491

> <Gold.Chemscore.Metal>
0.0000

> <Gold.Chemscore.Lipo>
68.0365

> <Gold.Chemscore.Internal_Hbond>
0.0000

> <Gold.Chemscore.DEClash>
0.0953

> <Gold.Chemscore.DEInternal>
1.8992

> <Gold.Chemscore.Rot>
2.1146

> <Gold.Chemscore.Internal.Correction>
   9.000000E+99

> <Gold.Chemscore.Hbonds>
donor molecule, donor type, donor heavy atom, donor atom, acceptor molecule, acceptor atom, score
      P1  H  7989  7998       L1     5  0.27
      P1  H  7997  8010       L1     8  0.25

> <Gold.Chemscore.Hbond.Weighted>
-6.1760

> <Gold.Chemscore.Metal.Weighted>
-0.0000

> <Gold.Chemscore.Lipo.Weighted>
-7.9603

> <Gold.Chemscore.Internal_Hbond.Weighted>
0.0000

> <Gold.Chemscore.DEClash.Weighted>
0.0953

> <Gold.Chemscore.DEInternal.Weighted>
1.8992

> <Gold.Chemscore.Rot.Weighted>
5.4133

> <Gold.Chemscore.Internal.Correction.Weighted>
   9.000000E+99

> <Gold.Protein.RotatedTorsions>
[ 6907 6896 6895 6894 ] final  -50.25 input  -60.11 | X-H torsion
[ 7974 7965 7964 7962 ] final  -19.38 input  175.53 | X-H torsion
[ 8008 7997 7996 7995 ] final   59.39 input   59.86 | X-H torsion
[ 10167 10162 10161 10158 ] final  119.80 input  -65.29 | X-H torsion
[ 10718 10713 10712 10709 ] final -103.38 input   66.30 | X-H torsion
[ 10763 10752 10751 10750 ] final   92.66 input  -60.55 | X-H torsion
[ 11005 11000 10999 10996 ] final -128.60 input  -57.11 | X-H torsion

> <Gold.Protein.ActiveResidues>
 VAL166  LYS551  ARG553  GLY616  TRP617  ASP618  TYR619  PRO620  LYS621  CYS622 
 ASP623  PHE694  ASN695  SER759  ASP760  ASP761  ALA762  ILE779  LEU786  VAL792 
 PHE793  MET794  SER795  GLU796  ALA797  LYS798  CYS799  TRP800  GLU811  SER814 

> <Gold.Protein.RotatedAtoms>
  150.8726  134.8102  159.7165 H   0  0  0  0  0  0  0  0  0  0  0  0  # atno 6907 bound_to 6896
  152.4725  134.4923  159.9709 H   0  0  0  0  0  0  0  0  0  0  0  0  # atno 6908 bound_to 6896
  151.5009  133.3466  159.2904 H   0  0  0  0  0  0  0  0  0  0  0  0  # atno 6909 bound_to 6896
  146.1844  140.4054  142.8482 H   0  0  0  0  0  0  0  0  0  0  0  0  # atno 7974 bound_to 7965
  155.5655  140.3489  155.4502 H   0  0  0  0  0  0  0  0  0  0  0  0  # atno 8008 bound_to 7997
  156.0483  140.1312  157.0105 H   0  0  0  0  0  0  0  0  0  0  0  0  # atno 8009 bound_to 7997
  154.4422  140.1010  156.6323 H   0  0  0  0  0  0  0  0  0  0  0  0  # atno 8010 bound_to 7997
  139.6023  144.7060  151.3034 H   0  0  0  0  0  0  0  0  0  0  0  0  # atno 10167 bound_to 10162
  156.0263  130.5465  150.7245 H   0  0  0  0  0  0  0  0  0  0  0  0  # atno 10718 bound_to 10713
  153.2216  135.4353  155.0496 H   0  0  0  0  0  0  0  0  0  0  0  0  # atno 10763 bound_to 10752
  154.8253  135.3358  154.6918 H   0  0  0  0  0  0  0  0  0  0  0  0  # atno 10764 bound_to 10752
  153.7350  135.7008  153.5036 H   0  0  0  0  0  0  0  0  0  0  0  0  # atno 10765 bound_to 10752
  140.9502  134.1075  157.4069 H   0  0  0  0  0  0  0  0  0  0  0  0  # atno 11005 bound_to 11000
  144.8371  140.6799  143.6253 LP  0  0  0  0  0  0  0  0  0  0  0  0  # atno 17320 bound_to 7965
  145.3982  139.1603  143.4192 LP  0  0  0  0  0  0  0  0  0  0  0  0  # atno 17321 bound_to 7965
  140.7259  143.7005  150.7848 LP  0  0  0  0  0  0  0  0  0  0  0  0  # atno 17342 bound_to 10162
  140.0584  143.5179  152.2640 LP  0  0  0  0  0  0  0  0  0  0  0  0  # atno 17343 bound_to 10162
  157.4852  131.0906  151.0490 LP  0  0  0  0  0  0  0  0  0  0  0  0  # atno 17370 bound_to 10713
  157.0912  130.5943  149.5440 LP  0  0  0  0  0  0  0  0  0  0  0  0  # atno 17371 bound_to 10713
  139.8845  135.0063  156.6374 LP  0  0  0  0  0  0  0  0  0  0  0  0  # atno 17394 bound_to 11000
  140.7613  133.8815  155.8420 LP  0  0  0  0  0  0  0  0  0  0  0  0  # atno 17395 bound_to 11000

$$$$
