AV-unprocessed.smi:1199|AV-procd|sdf|5021|dock1
  -GOLD-   22720 4 43D 1   1.00000     0.00000
 Structure written by MMmdl.
 42 43  0  0  0  0  0  0  0  0  2 V2000
  150.2344  133.7440  156.0030 C   0  0  0  0  0  0  0  0  0  0  0  0
  149.7324  134.4898  154.7597 C   0  0  1  0  0  0  0  0  0  0  0  0
  148.2294  134.8367  154.8703 C   0  0  0  0  0  0  0  0  0  0  0  0
  147.5218  134.7605  153.5662 N   0  3  0  0  0  0  0  0  0  0  0  0
  147.6113  133.4313  152.9167 C   0  0  0  0  0  0  0  0  0  0  0  0
  146.9477  133.4790  151.5310 C   0  0  0  0  0  0  0  0  0  0  0  0
  145.5920  133.8872  151.6709 O   0  0  0  0  0  0  0  0  0  0  0  0
  145.4804  135.1895  152.2323 C   0  0  0  0  0  0  0  0  0  0  0  0
  146.1124  135.2108  153.6349 C   0  0  0  0  0  0  0  0  0  0  0  0
  150.5241  135.7046  154.5685 N   0  0  0  0  0  0  0  0  0  0  0  0
  150.5959  136.7378  155.4231 C   0  0  0  0  0  0  0  0  0  0  0  0
  149.9176  136.8264  156.4458 O   0  0  0  0  0  0  0  0  0  0  0  0
  151.6325  137.8142  155.0942 C   0  0  0  0  0  0  0  0  0  0  0  0
  151.0250  139.1521  155.1235 N   0  0  0  0  0  0  0  0  0  0  0  0
  149.9904  139.3189  154.2152 N   0  0  0  0  0  0  0  0  0  0  0  0
  149.3810  140.4528  154.1302 C   0  0  0  0  0  0  0  0  0  0  0  0
  148.3651  140.5731  153.2143 O   0  0  0  0  0  0  0  0  0  0  0  0
  149.7551  141.5677  154.9719 C   0  0  0  0  0  0  0  0  0  0  0  0
  150.7704  141.3996  155.8471 C   0  0  0  0  0  0  0  0  0  0  0  0
  151.4926  140.1311  155.9585 C   0  0  0  0  0  0  0  0  0  0  0  0
  152.4418  139.9629  156.7229 O   0  0  0  0  0  0  0  0  0  0  0  0
  148.6854  140.1633  152.4254 H   0  0  0  0  0  0  0  0  0  0  0  0
  149.6739  132.8218  156.1588 H   0  0  0  0  0  0  0  0  0  0  0  0
  150.1306  134.3519  156.9025 H   0  0  0  0  0  0  0  0  0  0  0  0
  151.2866  133.4760  155.9017 H   0  0  0  0  0  0  0  0  0  0  0  0
  149.8770  133.8218  153.9095 H   0  0  0  0  0  0  0  0  0  0  0  0
  147.7343  134.1971  155.6025 H   0  0  0  0  0  0  0  0  0  0  0  0
  148.1474  135.8555  155.2525 H   0  0  0  0  0  0  0  0  0  0  0  0
  148.6521  133.1272  152.8112 H   0  0  0  0  0  0  0  0  0  0  0  0
  147.1222  132.6817  153.5405 H   0  0  0  0  0  0  0  0  0  0  0  0
  147.4818  134.1605  150.8662 H   0  0  0  0  0  0  0  0  0  0  0  0
  146.9745  132.4930  151.0669 H   0  0  0  0  0  0  0  0  0  0  0  0
  145.9622  135.9180  151.5798 H   0  0  0  0  0  0  0  0  0  0  0  0
  144.4265  135.4620  152.2892 H   0  0  0  0  0  0  0  0  0  0  0  0
  145.5527  134.5636  154.3119 H   0  0  0  0  0  0  0  0  0  0  0  0
  146.0647  136.2222  154.0399 H   0  0  0  0  0  0  0  0  0  0  0  0
  151.1147  135.7346  153.7495 H   0  0  0  0  0  0  0  0  0  0  0  0
  152.4588  137.7518  155.8052 H   0  0  0  0  0  0  0  0  0  0  0  0
  152.0722  137.6099  154.1161 H   0  0  0  0  0  0  0  0  0  0  0  0
  149.2301  142.5086  154.8963 H   0  0  0  0  0  0  0  0  0  0  0  0
  151.0610  142.2242  156.4814 H   0  0  0  0  0  0  0  0  0  0  0  0
  147.9930  135.4132  152.9558 H   0  0  0  0  0  0  0  0  0  0  0  0
  1  2  1  0  0  0  0
  1 23  1  0  0  0  0
  1 24  1  0  0  0  0
  1 25  1  0  0  0  0
  2  3  1  0  0  0  0
  2 10  1  0  0  0  0
  2 26  1  0  0  0  0
  3  4  1  0  0  0  0
  3 27  1  0  0  0  0
  3 28  1  0  0  0  0
  4  9  1  0  0  0  0
  4  5  1  0  0  0  0
  4 42  1  0  0  0  0
  5  6  1  0  0  0  0
  5 29  1  0  0  0  0
  5 30  1  0  0  0  0
  6  7  1  0  0  0  0
  6 31  1  0  0  0  0
  6 32  1  0  0  0  0
  7  8  1  0  0  0  0
  8  9  1  0  0  0  0
  8 33  1  0  0  0  0
  8 34  1  0  0  0  0
  9 35  1  0  0  0  0
  9 36  1  0  0  0  0
 10 11  1  0  0  0  0
 10 37  1  0  0  0  0
 11 12  2  0  0  0  0
 11 13  1  0  0  0  0
 13 38  1  0  0  0  0
 13 39  1  0  0  0  0
 13 14  1  0  0  0  0
 14 15  1  0  0  0  0
 14 20  1  0  0  0  0
 15 16  2  0  0  0  0
 16 17  1  0  0  0  0
 16 18  1  0  0  0  0
 17 22  1  0  0  0  0
 18 40  1  0  0  0  0
 18 19  2  0  0  0  0
 19 41  1  0  0  0  0
 19 20  1  0  0  0  0
 20 21  2  0  0  0  0
M  CHG  1   4   1
M  END
> <s_m_source_file>
AV-unprocessed.smi

> <i_m_source_file_index>
1199

> <i_lp_mmshare_version>
43012

> <i_f3d_flags>
0

> <s_epik_input>
W0NIMl0xW0NIMl1PW0NIMl1bQ0gyXU4xW0NIMl1bQ0BASF0oW0NIM10pW05IXUMoPU8pW0NIMl1uMltuSF1jKD1PKVtjSF1bY0hdYzI9Tw==

> <s_epik_cmdline>
J2VwaWtfcHl0aG9uJywgJy1waCcsICc3LjAnLCAnLXRuJywgJzgnLCAnLW1hJywgJzIwMCcsICctbWV0YWxfYmluZGluZycsICctaW1hZScsICc8aW5maWxlLm1hZT4nLCAnLW9tYWUnLCAnPG91dGZpbGUubWFlPic=

> <r_lp_tautomer_probability>
0.9996

> <r_epik_Ionization_Penalty>
2.86815

> <r_epik_Ionization_Penalty_Charging>
0.656653

> <r_epik_Ionization_Penalty_Neutral>
2.21149

> <r_epik_State_Penalty>
2.43136

> <r_epik_Charging_Adjusted_Penalty>
3.08801

> <i_epik_Tot_Q>
1

> <i_epik_Tot_abs_Q>
1

> <r_epik_Metal_State_Penalty>
2.43136

> <b_epik_Metal_Only>
0

> <s_lp_Force_Field>
OPLS_2005

> <r_lp_Energy>
31.569

> <b_lp_Chiralities_Consistent>
1

> <s_lp_Variant>
AV-unprocessed.smi:1199-8

> <Gold.Version>
5.8.1

> <Gold.Id.Protein>
6NUR|6NUR_protein|mol2

> <Gold.PLP.Fitness>
50.2498

> <Gold.PLP.PLP>
-36.1793

> <Gold.PLP.part.hbond>
-4.8845

> <Gold.PLP.part.metal>
0.0000

> <Gold.PLP.part.buried>
-4.2731

> <Gold.PLP.part.nonpolar>
-27.9116

> <Gold.PLP.part.repulsive>
0.3946

> <Gold.PLP.ligand.clash>
0.0000

> <Gold.PLP.ligand.torsion>
0.5395

> <Gold.PLP.Chemscore.Hbond>
4.9920

> <Gold.PLP.Chemscore.CHOScore>
0.0000

> <Gold.PLP.Chemscore.Metal>
0.0000

> <Gold.Chemscore.Hbonds>
donor molecule, donor type, donor heavy atom, donor atom, acceptor molecule, acceptor atom, score
      L1  H     4    42       P1  7948  2.00
      L1  H    10    37       P1  7949  0.39
      L1  H    17    22       P1  7957  1.00
      P1  H  7997  8008       L1    21  1.00

> <Gold.PLP.Chemscore.Internal.Correction>
0.1734

> <Gold.Rescore>
     Score         DG    S(hbond)    S(metal)    S(lipo)     H(rot)  DE(clash)    DE(int)     intcor
     13.39     -14.81       3.28        0.00      52.55       3.03       0.00       1.42       ----

> <Gold.Chemscore.Fitness>
13.3866

> <Gold.Chemscore.DG>
-14.8097

> <Gold.Chemscore.ZeroCoef>
-5.4800

> <Gold.Chemscore.Hbond>
3.2778

> <Gold.Chemscore.Metal>
0.0000

> <Gold.Chemscore.Lipo>
52.5473

> <Gold.Chemscore.Internal_Hbond>
0.0000

> <Gold.Chemscore.DEClash>
0.0015

> <Gold.Chemscore.DEInternal>
1.4217

> <Gold.Chemscore.Rot>
3.0336

> <Gold.Chemscore.Internal.Correction>
   9.000000E+99

> <Gold.Chemscore.Hbonds>
donor molecule, donor type, donor heavy atom, donor atom, acceptor molecule, acceptor atom, score
      L1  H     4    42       P1  7948  1.00
      L1  H    10    37       P1  7949  0.09
      L1  H    17    22       P1  7957  0.95
      P1  H  7997  8008       L1    21  0.99

> <Gold.Chemscore.Hbond.Weighted>
-10.9477

> <Gold.Chemscore.Metal.Weighted>
-0.0000

> <Gold.Chemscore.Lipo.Weighted>
-6.1480

> <Gold.Chemscore.Internal_Hbond.Weighted>
0.0000

> <Gold.Chemscore.DEClash.Weighted>
0.0015

> <Gold.Chemscore.DEInternal.Weighted>
1.4217

> <Gold.Chemscore.Rot.Weighted>
7.7661

> <Gold.Chemscore.Internal.Correction.Weighted>
   9.000000E+99

> <Gold.Protein.RotatedTorsions>
[ 6907 6896 6895 6894 ] final  -26.46 input  -60.11 | X-H torsion
[ 7974 7965 7964 7962 ] final   23.69 input  175.53 | X-H torsion
[ 8008 7997 7996 7995 ] final  -51.27 input   59.86 | X-H torsion
[ 10167 10162 10161 10158 ] final   -0.15 input  -65.29 | X-H torsion
[ 10718 10713 10712 10709 ] final -124.61 input   66.30 | X-H torsion
[ 10763 10752 10751 10750 ] final   17.18 input  -60.55 | X-H torsion
[ 11005 11000 10999 10996 ] final  104.11 input  -57.11 | X-H torsion

> <Gold.Protein.ActiveResidues>
 VAL166  LYS551  ARG553  GLY616  TRP617  ASP618  TYR619  PRO620  LYS621  CYS622 
 ASP623  PHE694  ASN695  SER759  ASP760  ASP761  ALA762  ILE779  LEU786  VAL792 
 PHE793  MET794  SER795  GLU796  ALA797  LYS798  CYS799  TRP800  GLU811  SER814 

> <Gold.Protein.RotatedAtoms>
  151.1606  135.0271  159.8708 H   0  0  0  0  0  0  0  0  0  0  0  0  # atno 6907 bound_to 6896
  152.5451  134.1283  159.8438 H   0  0  0  0  0  0  0  0  0  0  0  0  # atno 6908 bound_to 6896
  151.1378  133.4946  159.2630 H   0  0  0  0  0  0  0  0  0  0  0  0  # atno 6909 bound_to 6896
  146.1972  139.7709  142.8788 H   0  0  0  0  0  0  0  0  0  0  0  0  # atno 7974 bound_to 7965
  154.4079  140.1252  156.4801 H   0  0  0  0  0  0  0  0  0  0  0  0  # atno 8008 bound_to 7997
  155.7093  140.3494  155.4947 H   0  0  0  0  0  0  0  0  0  0  0  0  # atno 8009 bound_to 7997
  155.9315  140.1070  157.1119 H   0  0  0  0  0  0  0  0  0  0  0  0  # atno 8010 bound_to 7997
  140.6755  143.6929  150.8013 H   0  0  0  0  0  0  0  0  0  0  0  0  # atno 10167 bound_to 10162
  156.1603  130.6597  151.0039 H   0  0  0  0  0  0  0  0  0  0  0  0  # atno 10718 bound_to 10713
  153.1363  135.6750  153.9098 H   0  0  0  0  0  0  0  0  0  0  0  0  # atno 10763 bound_to 10752
  153.8569  135.3086  155.3437 H   0  0  0  0  0  0  0  0  0  0  0  0  # atno 10764 bound_to 10752
  154.7750  135.4919  153.9808 H   0  0  0  0  0  0  0  0  0  0  0  0  # atno 10765 bound_to 10752
  139.8789  134.9288  156.5311 H   0  0  0  0  0  0  0  0  0  0  0  0  # atno 11005 bound_to 11000
  145.3603  141.0324  143.3288 LP  0  0  0  0  0  0  0  0  0  0  0  0  # atno 17320 bound_to 7965
  144.8606  139.5183  143.6814 LP  0  0  0  0  0  0  0  0  0  0  0  0  # atno 17321 bound_to 7965
  140.0621  143.5144  152.2622 LP  0  0  0  0  0  0  0  0  0  0  0  0  # atno 17342 bound_to 10162
  139.6044  144.7592  151.3095 LP  0  0  0  0  0  0  0  0  0  0  0  0  # atno 17343 bound_to 10162
  157.6727  131.0858  150.7573 LP  0  0  0  0  0  0  0  0  0  0  0  0  # atno 17370 bound_to 10713
  156.7636  130.4806  149.5432 LP  0  0  0  0  0  0  0  0  0  0  0  0  # atno 17371 bound_to 10713
  140.8380  133.8227  155.9047 LP  0  0  0  0  0  0  0  0  0  0  0  0  # atno 17394 bound_to 11000
  140.9265  134.2076  157.4892 LP  0  0  0  0  0  0  0  0  0  0  0  0  # atno 17395 bound_to 11000

$$$$
