AV-unprocessed.smi:2426|AV-procd|sdf|9577|dock7
  -GOLD-   2272013213D 1   1.00000     0.00000
 Structure written by MMmdl.
 36 37  0  0  0  0  0  0  0  0  1 V2000
  150.6616  141.6839  155.8751 C   0  0  0  0  0  0  0  0  0  0  0  0
  150.4006  140.6076  154.9814 O   0  0  0  0  0  0  0  0  0  0  0  0
  149.0993  140.4011  154.5733 C   0  0  0  0  0  0  0  0  0  0  0  0
  148.7695  139.2112  153.8923 C   0  0  0  0  0  0  0  0  0  0  0  0
  147.4248  139.0377  153.4947 C   0  0  0  0  0  0  0  0  0  0  0  0
  147.1342  137.8258  152.8139 N   0  0  0  0  0  0  0  0  0  0  0  0
  145.9465  137.2068  152.6943 C   0  0  0  0  0  0  0  0  0  0  0  0
  144.8830  137.6128  153.1638 O   0  0  0  0  0  0  0  0  0  0  0  0
  146.0627  136.0674  151.9956 N   0  0  0  0  0  0  0  0  0  0  0  0
  144.9791  135.1317  151.7045 C   0  0  1  0  0  0  0  0  0  0  0  0
  144.4219  135.4250  150.3045 C   0  0  0  0  0  0  0  0  0  0  0  0
  145.4822  133.6923  151.8328 C   0  0  0  0  0  0  0  0  0  0  0  0
  146.5220  133.1494  150.8402 C   0  0  0  0  0  0  0  0  0  0  0  0
  145.8443  131.7807  150.9498 C   0  0  0  0  0  0  0  0  0  0  0  0
  144.5848  132.5167  151.4140 C   0  0  0  0  0  0  0  0  0  0  0  0
  146.5086  139.9987  153.7701 N   0  0  0  0  0  0  0  0  0  0  0  0
  146.9213  141.0891  154.4187 C   0  0  0  0  0  0  0  0  0  0  0  0
  148.1622  141.3442  154.8352 N   0  0  0  0  0  0  0  0  0  0  0  0
  151.7261  141.7106  156.1070 H   0  0  0  0  0  0  0  0  0  0  0  0
  150.1215  141.5623  156.8154 H   0  0  0  0  0  0  0  0  0  0  0  0
  150.3953  142.6442  155.4308 H   0  0  0  0  0  0  0  0  0  0  0  0
  149.5224  138.4640  153.6875 H   0  0  0  0  0  0  0  0  0  0  0  0
  147.9236  137.3714  152.3794 H   0  0  0  0  0  0  0  0  0  0  0  0
  146.9770  135.8170  151.6492 H   0  0  0  0  0  0  0  0  0  0  0  0
  144.1645  135.2917  152.4132 H   0  0  0  0  0  0  0  0  0  0  0  0
  143.5862  134.7655  150.0685 H   0  0  0  0  0  0  0  0  0  0  0  0
  145.1829  135.2851  149.5359 H   0  0  0  0  0  0  0  0  0  0  0  0
  144.0588  136.4508  150.2326 H   0  0  0  0  0  0  0  0  0  0  0  0
  145.8473  133.5030  152.8450 H   0  0  0  0  0  0  0  0  0  0  0  0
  146.4273  133.5872  149.8451 H   0  0  0  0  0  0  0  0  0  0  0  0
  147.5521  133.1802  151.1962 H   0  0  0  0  0  0  0  0  0  0  0  0
  145.7394  131.2449  150.0060 H   0  0  0  0  0  0  0  0  0  0  0  0
  146.2794  131.1525  151.7288 H   0  0  0  0  0  0  0  0  0  0  0  0
  144.0485  132.0383  152.2338 H   0  0  0  0  0  0  0  0  0  0  0  0
  143.9163  132.7658  150.5882 H   0  0  0  0  0  0  0  0  0  0  0  0
  146.1752  141.8412  154.6276 H   0  0  0  0  0  0  0  0  0  0  0  0
  1  2  1  0  0  0  0
  1 19  1  0  0  0  0
  1 20  1  0  0  0  0
  1 21  1  0  0  0  0
  2  3  1  0  0  0  0
  3 18  1  0  0  0  0
  3  4  2  0  0  0  0
  4  5  1  0  0  0  0
  4 22  1  0  0  0  0
  5  6  1  0  0  0  0
  5 16  2  0  0  0  0
  6  7  1  0  0  0  0
  6 23  1  0  0  0  0
  7  8  2  0  0  0  0
  7  9  1  0  0  0  0
  9 10  1  0  0  0  0
  9 24  1  0  0  0  0
 10 11  1  0  0  0  0
 10 12  1  0  0  0  0
 10 25  1  0  0  0  0
 11 26  1  0  0  0  0
 11 27  1  0  0  0  0
 11 28  1  0  0  0  0
 12 15  1  0  0  0  0
 12 13  1  0  0  0  0
 12 29  1  0  0  0  0
 13 14  1  0  0  0  0
 13 30  1  0  0  0  0
 13 31  1  0  0  0  0
 14 15  1  0  0  0  0
 14 32  1  0  0  0  0
 14 33  1  0  0  0  0
 15 34  1  0  0  0  0
 15 35  1  0  0  0  0
 16 17  1  0  0  0  0
 17 18  2  0  0  0  0
 17 36  1  0  0  0  0
M  END
> <s_m_source_file>
AV-unprocessed.smi

> <i_m_source_file_index>
2426

> <i_lp_mmshare_version>
43012

> <i_f3d_flags>
0

> <s_epik_input>
W0NIM11PYzFbY0hdYyhuW2NIXW4xKVtOSF1DKD1PKVtOSF1bQ0BIXShbQ0gzXSlbQ0hdMltDSDJdW0NIMl1bQ0gyXTI=

> <s_epik_cmdline>
J2VwaWtfcHl0aG9uJywgJy1waCcsICc3LjAnLCAnLXRuJywgJzgnLCAnLW1hJywgJzIwMCcsICctbWV0YWxfYmluZGluZycsICctaW1hZScsICc8aW5maWxlLm1hZT4nLCAnLW9tYWUnLCAnPG91dGZpbGUubWFlPic=

> <r_lp_tautomer_probability>
1

> <r_epik_Ionization_Penalty>
2.84534e-05

> <r_epik_Ionization_Penalty_Charging>
0

> <r_epik_Ionization_Penalty_Neutral>
2.84534e-05

> <r_epik_State_Penalty>
-0

> <r_epik_Charging_Adjusted_Penalty>
0

> <i_epik_Tot_Q>
0

> <i_epik_Tot_abs_Q>
0

> <r_epik_Metal_State_Penalty>
-0

> <b_epik_Metal_Only>
0

> <s_lp_Force_Field>
OPLS_2005

> <r_lp_Energy>
11.0753

> <b_lp_Chiralities_Consistent>
1

> <s_lp_Variant>
AV-unprocessed.smi:2426-2

> <Gold.Version>
5.8.1

> <Gold.Id.Protein>
6NUR|6NUR_protein|mol2

> <Gold.PLP.Fitness>
37.0791

> <Gold.PLP.PLP>
-29.6274

> <Gold.PLP.part.hbond>
-3.0000

> <Gold.PLP.part.metal>
0.0000

> <Gold.PLP.part.buried>
-3.9968

> <Gold.PLP.part.nonpolar>
-23.5970

> <Gold.PLP.part.repulsive>
0.6331

> <Gold.PLP.ligand.clash>
0.0000

> <Gold.PLP.ligand.torsion>
0.5921

> <Gold.PLP.Chemscore.Hbond>
2.8400

> <Gold.PLP.Chemscore.CHOScore>
0.0000

> <Gold.PLP.Chemscore.Metal>
0.0000

> <Gold.Chemscore.Hbonds>
donor molecule, donor type, donor heavy atom, donor atom, acceptor molecule, acceptor atom, score
      L1  H     6    23       P1  7948  1.00
      L1  H     9    24       P1  7948  0.88
      P1  H  7989  7998       L1     2  0.93

> <Gold.PLP.Chemscore.Internal.Correction>
0.1160

> <Gold.Rescore>
     Score         DG    S(hbond)    S(metal)    S(lipo)     H(rot)  DE(clash)    DE(int)     intcor
     13.82     -16.32       2.60        0.00      53.26       1.60       0.62       1.87       ----

> <Gold.Chemscore.Fitness>
13.8240

> <Gold.Chemscore.DG>
-16.3173

> <Gold.Chemscore.ZeroCoef>
-5.4800

> <Gold.Chemscore.Hbond>
2.6030

> <Gold.Chemscore.Metal>
0.0000

> <Gold.Chemscore.Lipo>
53.2640

> <Gold.Chemscore.Internal_Hbond>
0.0000

> <Gold.Chemscore.DEClash>
0.6233

> <Gold.Chemscore.DEInternal>
1.8700

> <Gold.Chemscore.Rot>
1.5971

> <Gold.Chemscore.Internal.Correction>
   9.000000E+99

> <Gold.Chemscore.Hbonds>
donor molecule, donor type, donor heavy atom, donor atom, acceptor molecule, acceptor atom, score
      L1  H     6    23       P1  7948  0.99
      L1  H     9    24       P1  7948  0.84
      P1  H  7989  7998       L1     2  0.38

> <Gold.Chemscore.Hbond.Weighted>
-8.6940

> <Gold.Chemscore.Metal.Weighted>
-0.0000

> <Gold.Chemscore.Lipo.Weighted>
-6.2319

> <Gold.Chemscore.Internal_Hbond.Weighted>
0.0000

> <Gold.Chemscore.DEClash.Weighted>
0.6233

> <Gold.Chemscore.DEInternal.Weighted>
1.8700

> <Gold.Chemscore.Rot.Weighted>
4.0886

> <Gold.Chemscore.Internal.Correction.Weighted>
   9.000000E+99

> <Gold.Protein.RotatedTorsions>
[ 6907 6896 6895 6894 ] final   89.64 input  -60.11 | X-H torsion
[ 7974 7965 7964 7962 ] final  134.94 input  175.53 | X-H torsion
[ 8008 7997 7996 7995 ] final  -84.20 input   59.86 | X-H torsion
[ 10167 10162 10161 10158 ] final  146.61 input  -65.29 | X-H torsion
[ 10718 10713 10712 10709 ] final  104.50 input   66.30 | X-H torsion
[ 10763 10752 10751 10750 ] final    1.30 input  -60.55 | X-H torsion
[ 11005 11000 10999 10996 ] final  -33.25 input  -57.11 | X-H torsion

> <Gold.Protein.ActiveResidues>
 VAL166  LYS551  ARG553  GLY616  TRP617  ASP618  TYR619  PRO620  LYS621  CYS622 
 ASP623  PHE694  ASN695  SER759  ASP760  ASP761  ALA762  ILE779  LEU786  VAL792 
 PHE793  MET794  SER795  GLU796  ALA797  LYS798  CYS799  TRP800  GLU811  SER814 

> <Gold.Protein.RotatedAtoms>
  152.5438  134.1935  159.8683 H   0  0  0  0  0  0  0  0  0  0  0  0  # atno 6907 bound_to 6896
  151.1928  133.4650  159.2602 H   0  0  0  0  0  0  0  0  0  0  0  0  # atno 6908 bound_to 6896
  151.1066  135.0015  159.8529 H   0  0  0  0  0  0  0  0  0  0  0  0  # atno 6909 bound_to 6896
  144.9713  139.4603  143.5432 H   0  0  0  0  0  0  0  0  0  0  0  0  # atno 7974 bound_to 7965
  154.6273  140.0608  156.9689 H   0  0  0  0  0  0  0  0  0  0  0  0  # atno 8008 bound_to 7997
  155.1722  140.3292  155.4372 H   0  0  0  0  0  0  0  0  0  0  0  0  # atno 8009 bound_to 7997
  156.2464  140.1912  156.6823 H   0  0  0  0  0  0  0  0  0  0  0  0  # atno 8010 bound_to 7997
  139.4904  144.5816  151.6859 H   0  0  0  0  0  0  0  0  0  0  0  0  # atno 10167 bound_to 10162
  157.6738  131.0805  150.5715 H   0  0  0  0  0  0  0  0  0  0  0  0  # atno 10718 bound_to 10713
  153.3098  135.6962  153.7126 H   0  0  0  0  0  0  0  0  0  0  0  0  # atno 10763 bound_to 10752
  153.6008  135.3462  155.2945 H   0  0  0  0  0  0  0  0  0  0  0  0  # atno 10764 bound_to 10752
  154.8572  135.4340  154.2233 H   0  0  0  0  0  0  0  0  0  0  0  0  # atno 10765 bound_to 10752
  140.9619  133.7159  156.1383 H   0  0  0  0  0  0  0  0  0  0  0  0  # atno 11005 bound_to 11000
  146.3383  139.8926  142.8806 LP  0  0  0  0  0  0  0  0  0  0  0  0  # atno 17320 bound_to 7965
  145.2555  141.0059  143.3856 LP  0  0  0  0  0  0  0  0  0  0  0  0  # atno 17321 bound_to 7965
  140.5424  144.0558  150.6093 LP  0  0  0  0  0  0  0  0  0  0  0  0  # atno 17342 bound_to 10162
  140.3584  143.2922  152.0410 LP  0  0  0  0  0  0  0  0  0  0  0  0  # atno 17343 bound_to 10162
  156.6017  130.4356  149.5894 LP  0  0  0  0  0  0  0  0  0  0  0  0  # atno 17370 bound_to 10713
  156.2501  130.6902  151.1637 LP  0  0  0  0  0  0  0  0  0  0  0  0  # atno 17371 bound_to 10713
  140.7455  134.4103  157.5549 LP  0  0  0  0  0  0  0  0  0  0  0  0  # atno 17394 bound_to 11000
  139.8881  134.8865  156.2492 LP  0  0  0  0  0  0  0  0  0  0  0  0  # atno 17395 bound_to 11000

$$$$
