AV-unprocessed.smi:16|AV-procd|sdf|95|dock6
  -GOLD-   2262015243D 1   1.00000     0.00000
 Structure written by MMmdl.
 59 63  0  0  0  0  0  0  0  0  1 V2000
  153.1962  138.4548  155.0461 C   0  0  0  0  0  0  0  0  0  0  0  0
  151.8362  138.4569  154.3305 C   0  0  0  0  0  0  0  0  0  0  0  0
  150.8155  139.1849  155.0835 N   0  0  0  0  0  0  0  0  0  0  0  0
  151.2379  140.5809  155.2196 C   0  0  0  0  0  0  0  0  0  0  0  0
  150.2444  141.3614  156.0967 C   0  0  0  0  0  0  0  0  0  0  0  0
  148.8238  141.3089  155.5212 C   0  0  1  0  0  0  0  0  0  0  0  0
  148.7649  142.0789  154.3224 O   0  0  0  0  0  0  0  0  0  0  0  0
  147.4509  142.1177  153.7767 C   0  0  0  0  0  0  0  0  0  0  0  0
  146.9968  140.6950  153.4140 C   0  0  0  0  0  0  0  0  0  0  0  0
  147.1199  139.8135  154.5748 N   0  0  0  0  0  0  0  0  0  0  0  0
  146.5009  138.6037  154.5265 C   0  0  0  0  0  0  0  0  0  0  0  0
  146.1623  137.9758  155.6851 N   0  0  0  0  0  0  0  0  0  0  0  0
  145.5483  136.7900  155.6598 C   0  0  0  0  0  0  0  0  0  0  0  0
  145.1848  136.0620  154.6033 N   0  0  0  0  0  0  0  0  0  0  0  0
  145.5226  136.6811  153.4362 C   0  0  0  0  0  0  0  0  0  0  0  0
  146.1807  137.9380  153.3078 C   0  0  0  0  0  0  0  0  0  0  0  0
  146.3862  138.2230  151.9625 N   0  0  0  0  0  0  0  0  0  0  0  0
  145.8743  137.2002  151.3345 C   0  0  0  0  0  0  0  0  0  0  0  0
  145.3117  136.2383  152.1418 N   0  0  0  0  0  0  0  0  0  0  0  0
  144.7335  134.9956  151.7214 C   0  0  0  0  0  0  0  0  0  0  0  0
  145.4439  133.6600  151.9666 C   0  0  0  0  0  0  0  0  0  0  0  0
  144.8262  133.1094  150.6600 C   0  0  0  0  0  0  0  0  0  0  0  0
  145.7263  132.2055  149.7952 C   0  0  0  0  0  0  0  0  0  0  0  0
  147.0921  132.5606  149.8741 O   0  0  0  0  0  0  0  0  0  0  0  0
  143.4927  132.3634  150.8593 C   0  0  0  0  0  0  0  0  0  0  0  0
  142.8768  132.0590  149.6242 O   0  0  0  0  0  0  0  0  0  0  0  0
  144.7011  134.5935  150.2437 C   0  0  0  0  0  0  0  0  0  0  0  0
  148.4309  139.8463  155.2281 C   0  0  1  0  0  0  0  0  0  0  0  0
  149.5229  139.1368  154.3928 C   0  0  0  0  0  0  0  0  0  0  0  0
  148.1349  141.7418  156.2488 H   0  0  0  0  0  0  0  0  0  0  0  0
  148.3686  139.3372  156.1883 H   0  0  0  0  0  0  0  0  0  0  0  0
  153.9624  138.0238  154.4019 H   0  0  0  0  0  0  0  0  0  0  0  0
  153.1821  137.8660  155.9626 H   0  0  0  0  0  0  0  0  0  0  0  0
  153.5116  139.4677  155.2983 H   0  0  0  0  0  0  0  0  0  0  0  0
  151.9742  138.9433  153.3638 H   0  0  0  0  0  0  0  0  0  0  0  0
  151.5057  137.4382  154.1224 H   0  0  0  0  0  0  0  0  0  0  0  0
  152.2246  140.6226  155.6826 H   0  0  0  0  0  0  0  0  0  0  0  0
  151.3267  141.0467  154.2368 H   0  0  0  0  0  0  0  0  0  0  0  0
  150.2434  140.9382  157.1021 H   0  0  0  0  0  0  0  0  0  0  0  0
  150.5677  142.3974  156.2001 H   0  0  0  0  0  0  0  0  0  0  0  0
  146.7627  142.5737  154.4902 H   0  0  0  0  0  0  0  0  0  0  0  0
  147.4524  142.7489  152.8882 H   0  0  0  0  0  0  0  0  0  0  0  0
  145.9614  140.7242  153.0719 H   0  0  0  0  0  0  0  0  0  0  0  0
  147.5971  140.3080  152.5897 H   0  0  0  0  0  0  0  0  0  0  0  0
  145.3147  136.3638  156.6241 H   0  0  0  0  0  0  0  0  0  0  0  0
  145.8949  137.1204  150.2572 H   0  0  0  0  0  0  0  0  0  0  0  0
  143.7276  134.9794  152.1444 H   0  0  0  0  0  0  0  0  0  0  0  0
  146.5302  133.7580  151.9337 H   0  0  0  0  0  0  0  0  0  0  0  0
  145.1299  133.1443  152.8746 H   0  0  0  0  0  0  0  0  0  0  0  0
  145.6343  131.1620  150.0985 H   0  0  0  0  0  0  0  0  0  0  0  0
  145.4374  132.2546  148.7450 H   0  0  0  0  0  0  0  0  0  0  0  0
  147.6073  131.7687  149.8940 H   0  0  0  0  0  0  0  0  0  0  0  0
  143.6413  131.4362  151.4139 H   0  0  0  0  0  0  0  0  0  0  0  0
  142.7888  132.9563  151.4434 H   0  0  0  0  0  0  0  0  0  0  0  0
  142.1045  131.5412  149.7930 H   0  0  0  0  0  0  0  0  0  0  0  0
  143.7753  134.8538  149.7298 H   0  0  0  0  0  0  0  0  0  0  0  0
  145.5665  134.9682  149.6946 H   0  0  0  0  0  0  0  0  0  0  0  0
  149.6157  139.5917  153.4057 H   0  0  0  0  0  0  0  0  0  0  0  0
  149.2235  138.1012  154.2373 H   0  0  0  0  0  0  0  0  0  0  0  0
  1  2  1  0  0  0  0
  1 32  1  0  0  0  0
  1 33  1  0  0  0  0
  1 34  1  0  0  0  0
  2  3  1  0  0  0  0
  2 35  1  0  0  0  0
  2 36  1  0  0  0  0
  3 29  1  0  0  0  0
  3  4  1  0  0  0  0
  4  5  1  0  0  0  0
  4 37  1  0  0  0  0
  4 38  1  0  0  0  0
  5  6  1  0  0  0  0
  5 39  1  0  0  0  0
  5 40  1  0  0  0  0
  6 30  1  0  0  0  0
  6 28  1  0  0  0  0
  6  7  1  0  0  0  0
  7  8  1  0  0  0  0
  8  9  1  0  0  0  0
  8 41  1  0  0  0  0
  8 42  1  0  0  0  0
  9 10  1  0  0  0  0
  9 43  1  0  0  0  0
  9 44  1  0  0  0  0
 10 11  1  0  0  0  0
 10 28  1  0  0  0  0
 11 16  1  0  0  0  0
 11 12  2  0  0  0  0
 12 13  1  0  0  0  0
 13 14  2  0  0  0  0
 13 45  1  0  0  0  0
 14 15  1  0  0  0  0
 15 19  1  0  0  0  0
 15 16  2  0  0  0  0
 16 17  1  0  0  0  0
 17 18  2  0  0  0  0
 18 19  1  0  0  0  0
 18 46  1  0  0  0  0
 19 20  1  0  0  0  0
 20 27  1  0  0  0  0
 20 21  1  0  0  0  0
 20 47  1  0  0  0  0
 21 22  1  0  0  0  0
 21 48  1  0  0  0  0
 21 49  1  0  0  0  0
 22 23  1  0  0  0  0
 22 25  1  0  0  0  0
 22 27  1  0  0  0  0
 23 24  1  0  0  0  0
 23 50  1  0  0  0  0
 23 51  1  0  0  0  0
 24 52  1  0  0  0  0
 25 26  1  0  0  0  0
 25 53  1  0  0  0  0
 25 54  1  0  0  0  0
 26 55  1  0  0  0  0
 27 56  1  0  0  0  0
 27 57  1  0  0  0  0
 28 31  1  0  0  0  0
 28 29  1  0  0  0  0
 29 58  1  0  0  0  0
 29 59  1  0  0  0  0
M  END
> <s_m_source_file>
AV-unprocessed.smi

> <i_m_source_file_index>
16

> <i_lp_mmshare_version>
43012

> <i_f3d_flags>
0

> <s_epik_input>
W0NIM11bQ0gyXU4oW0NIMl1bQ0gyXTEpW0NIMl1bQ0BASF0oW0NAQEhdMTIpTihbQ0gyXVtDSDJdTzIpYyhuW2NIXW4zKWMoYzM0KW5bY0hdbjRbQ0hdKFtDSDJdNSlbQ0gyXUM1KFtDSDJdW09IXSlbQ0gyXVtPSF0=

> <s_epik_cmdline>
J2VwaWtfcHl0aG9uJywgJy1waCcsICc3LjAnLCAnLXRuJywgJzgnLCAnLW1hJywgJzIwMCcsICctbWV0YWxfYmluZGluZycsICctaW1hZScsICc8aW5maWxlLm1hZT4nLCAnLW9tYWUnLCAnPG91dGZpbGUubWFlPic=

> <r_lp_tautomer_probability>
1

> <r_epik_Ionization_Penalty>
2.27341

> <r_epik_Ionization_Penalty_Charging>
0

> <r_epik_Ionization_Penalty_Neutral>
2.27341

> <r_epik_State_Penalty>
2.41121

> <r_epik_Charging_Adjusted_Penalty>
2.41121

> <i_epik_Tot_Q>
0

> <i_epik_Tot_abs_Q>
0

> <r_epik_Metal_State_Penalty>
2.40177

> <b_epik_Metal_Only>
0

> <s_lp_Force_Field>
OPLS_2005

> <r_lp_Energy>
57.2914

> <b_lp_Chiralities_Consistent>
1

> <s_lp_Variant>
AV-unprocessed.smi:16-9

> <Gold.Version>
5.8.1

> <Gold.Id.Protein>
6NUR|6NUR_protein|mol2

> <Gold.PLP.Fitness>
50.9112

> <Gold.PLP.PLP>
-44.5667

> <Gold.PLP.part.hbond>
-5.2992

> <Gold.PLP.part.metal>
0.0000

> <Gold.PLP.part.buried>
-3.3722

> <Gold.PLP.part.nonpolar>
-37.9636

> <Gold.PLP.part.repulsive>
2.0215

> <Gold.PLP.ligand.clash>
0.0000

> <Gold.PLP.ligand.torsion>
0.7928

> <Gold.PLP.Chemscore.Hbond>
2.0524

> <Gold.PLP.Chemscore.CHOScore>
0.2820

> <Gold.PLP.Chemscore.Metal>
0.0000

> <Gold.Chemscore.Hbonds>
donor molecule, donor type, donor heavy atom, donor atom, acceptor molecule, acceptor atom, score
      L1  H    24    52       P1 10747  1.00
      L1  H    26    55       P1 10952  1.00
      P1  H  8011  8017       L1     7  0.10
      L1  C    18    46       P1 10171  0.35

> <Gold.PLP.Chemscore.Internal.Correction>
0.9269

> <Gold.Rescore>
     Score         DG    S(hbond)    S(metal)    S(lipo)     H(rot)  DE(clash)    DE(int)     intcor
     11.52     -15.57       1.93        0.00     102.73       3.28       1.89       2.17       ----

> <Gold.Chemscore.Fitness>
11.5151

> <Gold.Chemscore.DG>
-15.5690

> <Gold.Chemscore.ZeroCoef>
-5.4800

> <Gold.Chemscore.Hbond>
1.9340

> <Gold.Chemscore.Metal>
0.0000

> <Gold.Chemscore.Lipo>
102.7350

> <Gold.Chemscore.Internal_Hbond>
0.0000

> <Gold.Chemscore.DEClash>
1.8879

> <Gold.Chemscore.DEInternal>
2.1660

> <Gold.Chemscore.Rot>
3.2776

> <Gold.Chemscore.Internal.Correction>
   9.000000E+99

> <Gold.Chemscore.Hbonds>
donor molecule, donor type, donor heavy atom, donor atom, acceptor molecule, acceptor atom, score
      L1  H    24    52       P1 10747  0.97
      L1  H    26    55       P1 10952  0.98
      P1  H  8011  8017       L1     7  0.01

> <Gold.Chemscore.Hbond.Weighted>
-6.4597

> <Gold.Chemscore.Metal.Weighted>
-0.0000

> <Gold.Chemscore.Lipo.Weighted>
-12.0200

> <Gold.Chemscore.Internal_Hbond.Weighted>
0.0000

> <Gold.Chemscore.DEClash.Weighted>
1.8879

> <Gold.Chemscore.DEInternal.Weighted>
2.1660

> <Gold.Chemscore.Rot.Weighted>
8.3907

> <Gold.Chemscore.Internal.Correction.Weighted>
   9.000000E+99

> <Gold.Protein.RotatedTorsions>
[ 6907 6896 6895 6894 ] final  148.50 input  -60.11 | X-H torsion
[ 7974 7965 7964 7962 ] final  139.69 input  175.53 | X-H torsion
[ 8008 7997 7996 7995 ] final   90.98 input   59.86 | X-H torsion
[ 10167 10162 10161 10158 ] final  -89.70 input  -65.29 | X-H torsion
[ 10718 10713 10712 10709 ] final  139.45 input   66.30 | X-H torsion
[ 10763 10752 10751 10750 ] final  139.05 input  -60.55 | X-H torsion
[ 11005 11000 10999 10996 ] final  -24.21 input  -57.11 | X-H torsion

> <Gold.Protein.ActiveResidues>
 VAL166  LYS551  ARG553  GLY616  TRP617  ASP618  TYR619  PRO620  LYS621  CYS622 
 ASP623  PHE694  ASN695  SER759  ASP760  ASP761  ALA762  ILE779  LEU786  VAL792 
 PHE793  MET794  SER795  GLU796  ALA797  LYS798  CYS799  TRP800  GLU811  SER814 

> <Gold.Protein.RotatedAtoms>
  152.1407  133.4462  159.4765 H   0  0  0  0  0  0  0  0  0  0  0  0  # atno 6907 bound_to 6896
  150.6886  134.2309  159.4443 H   0  0  0  0  0  0  0  0  0  0  0  0  # atno 6908 bound_to 6896
  152.0199  134.9828  160.0621 H   0  0  0  0  0  0  0  0  0  0  0  0  # atno 6909 bound_to 6896
  144.9255  139.5113  143.5643 H   0  0  0  0  0  0  0  0  0  0  0  0  # atno 7974 bound_to 7965
  156.0184  140.3343  155.7013 H   0  0  0  0  0  0  0  0  0  0  0  0  # atno 8008 bound_to 7997
  155.6058  140.0660  157.2738 H   0  0  0  0  0  0  0  0  0  0  0  0  # atno 8009 bound_to 7997
  154.4307  140.1802  156.1208 H   0  0  0  0  0  0  0  0  0  0  0  0  # atno 8010 bound_to 7997
  140.3622  143.2836  151.9600 H   0  0  0  0  0  0  0  0  0  0  0  0  # atno 10167 bound_to 10162
  157.4142  131.1031  151.0422 H   0  0  0  0  0  0  0  0  0  0  0  0  # atno 10718 bound_to 10713
  153.8998  135.3023  155.3448 H   0  0  0  0  0  0  0  0  0  0  0  0  # atno 10763 bound_to 10752
  154.7676  135.4902  153.9588 H   0  0  0  0  0  0  0  0  0  0  0  0  # atno 10764 bound_to 10752
  153.1251  135.6791  153.9370 H   0  0  0  0  0  0  0  0  0  0  0  0  # atno 10765 bound_to 10752
  140.8824  133.7645  156.0318 H   0  0  0  0  0  0  0  0  0  0  0  0  # atno 11005 bound_to 11000
  146.3224  139.8166  142.8935 LP  0  0  0  0  0  0  0  0  0  0  0  0  # atno 17320 bound_to 7965
  145.3226  141.0247  143.3491 LP  0  0  0  0  0  0  0  0  0  0  0  0  # atno 17321 bound_to 7965
  139.4813  144.5982  151.7653 LP  0  0  0  0  0  0  0  0  0  0  0  0  # atno 17342 bound_to 10162
  140.5115  144.1017  150.5996 LP  0  0  0  0  0  0  0  0  0  0  0  0  # atno 17343 bound_to 10162
  157.1376  130.6129  149.5546 LP  0  0  0  0  0  0  0  0  0  0  0  0  # atno 17370 bound_to 10713
  155.9860  130.4892  150.7058 LP  0  0  0  0  0  0  0  0  0  0  0  0  # atno 17371 bound_to 10713
  140.8446  134.3026  157.5300 LP  0  0  0  0  0  0  0  0  0  0  0  0  # atno 17394 bound_to 11000
  139.8721  134.9434  156.3853 LP  0  0  0  0  0  0  0  0  0  0  0  0  # atno 17395 bound_to 11000

$$$$
