AV-unprocessed.smi:346|AV-procd|sdf|2393|dock1
  -GOLD-   2262022323D 1   1.00000     0.00000
 Structure written by MMmdl.
 34 35  0  0  0  0  0  0  0  0  2 V2000
  151.0708  136.1149  156.9593 C   0  0  0  0  0  0  0  0  0  0  0  0
  151.9349  137.2345  156.8784 O   0  0  0  0  0  0  0  0  0  0  0  0
  151.3920  138.3866  157.5024 C   0  0  0  0  0  0  0  0  0  0  0  0
  152.3723  139.5617  157.3800 C   0  0  0  0  0  0  0  0  0  0  0  0
  151.6824  140.8554  157.2618 N   0  0  0  0  0  0  0  0  0  0  0  0
  150.7343  141.2720  156.3767 C   0  0  0  0  0  0  0  0  0  0  0  0
  150.0445  140.3355  155.0552 S   0  0  0  0  0  0  0  0  0  0  0  0
  148.8350  141.4531  154.2990 C   0  0  0  0  0  0  0  0  0  0  0  0
  147.4880  141.4230  155.0154 C   0  0  0  0  0  0  0  0  0  0  0  0
  147.0766  142.5582  155.5859 N   0  0  0  0  0  0  0  0  0  0  0  0
  146.8277  140.3874  155.0560 O   0  0  0  0  0  0  0  0  0  0  0  0
  150.4018  142.5527  156.6941 N   0  3  0  0  0  0  0  0  0  0  0  0
  151.1468  142.9653  157.8004 C   0  0  0  0  0  0  0  0  0  0  0  0
  151.1619  144.1748  158.4880 C   0  0  0  0  0  0  0  0  0  0  0  0
  152.0387  144.2688  159.5891 C   0  0  0  0  0  0  0  0  0  0  0  0
  152.1095  145.7380  160.4903 Cl  0  0  0  0  0  0  0  0  0  0  0  0
  152.8570  143.1843  159.9670 C   0  0  0  0  0  0  0  0  0  0  0  0
  152.8367  141.9638  159.2608 C   0  0  0  0  0  0  0  0  0  0  0  0
  151.9682  141.8799  158.1728 C   0  0  0  0  0  0  0  0  0  0  0  0
  151.5330  135.2597  156.4664 H   0  0  0  0  0  0  0  0  0  0  0  0
  150.1190  136.3148  156.4654 H   0  0  0  0  0  0  0  0  0  0  0  0
  150.8763  135.8411  157.9971 H   0  0  0  0  0  0  0  0  0  0  0  0
  150.4419  138.6503  157.0354 H   0  0  0  0  0  0  0  0  0  0  0  0
  151.1910  138.1801  158.5548 H   0  0  0  0  0  0  0  0  0  0  0  0
  153.0546  139.5937  158.2295 H   0  0  0  0  0  0  0  0  0  0  0  0
  152.9948  139.4323  156.4951 H   0  0  0  0  0  0  0  0  0  0  0  0
  149.2347  142.4676  154.3164 H   0  0  0  0  0  0  0  0  0  0  0  0
  148.6974  141.1853  153.2513 H   0  0  0  0  0  0  0  0  0  0  0  0
  146.1935  142.5886  156.0745 H   0  0  0  0  0  0  0  0  0  0  0  0
  147.6542  143.3846  155.5288 H   0  0  0  0  0  0  0  0  0  0  0  0
  150.5338  145.0053  158.2001 H   0  0  0  0  0  0  0  0  0  0  0  0
  153.5148  143.2887  160.8180 H   0  0  0  0  0  0  0  0  0  0  0  0
  153.4647  141.1393  159.5644 H   0  0  0  0  0  0  0  0  0  0  0  0
  149.7151  143.0997  156.1909 H   0  0  0  0  0  0  0  0  0  0  0  0
  1  2  1  0  0  0  0
  1 20  1  0  0  0  0
  1 21  1  0  0  0  0
  1 22  1  0  0  0  0
  2  3  1  0  0  0  0
  3  4  1  0  0  0  0
  3 23  1  0  0  0  0
  3 24  1  0  0  0  0
  4  5  1  0  0  0  0
  4 25  1  0  0  0  0
  4 26  1  0  0  0  0
  5 19  1  0  0  0  0
  5  6  1  0  0  0  0
  6  7  1  0  0  0  0
  6 12  2  0  0  0  0
  7  8  1  0  0  0  0
  8  9  1  0  0  0  0
  8 27  1  0  0  0  0
  8 28  1  0  0  0  0
  9 10  1  0  0  0  0
  9 11  2  0  0  0  0
 10 29  1  0  0  0  0
 10 30  1  0  0  0  0
 12 13  1  0  0  0  0
 12 34  1  0  0  0  0
 13 19  2  0  0  0  0
 13 14  1  0  0  0  0
 14 15  2  0  0  0  0
 14 31  1  0  0  0  0
 15 16  1  0  0  0  0
 15 17  1  0  0  0  0
 17 18  2  0  0  0  0
 17 32  1  0  0  0  0
 18 19  1  0  0  0  0
 18 33  1  0  0  0  0
M  CHG  1  12   1
M  END
> <s_m_source_file>
AV-unprocessed.smi

> <i_m_source_file_index>
346

> <i_lp_mmshare_version>
43012

> <i_f3d_flags>
0

> <s_epik_input>
W2NIXTFjKENsKVtjSF1bY0hdYyhjMTIpbihbQ0gyXVtDSDJdT1tDSDNdKWMobjIpU1tDSDJdQyg9TylbTkgyXQ==

> <s_epik_cmdline>
J2VwaWtfcHl0aG9uJywgJy1waCcsICc3LjAnLCAnLXRuJywgJzgnLCAnLW1hJywgJzIwMCcsICctbWV0YWxfYmluZGluZycsICctaW1hZScsICc8aW5maWxlLm1hZT4nLCAnLW9tYWUnLCAnPG91dGZpbGUubWFlPic=

> <r_epik_Ionization_Penalty>
2.55352

> <r_epik_Ionization_Penalty_Charging>
2.55352

> <r_epik_Ionization_Penalty_Neutral>
3.318e-07

> <r_epik_State_Penalty>
2.72228

> <r_epik_Charging_Adjusted_Penalty>
5.2758

> <i_epik_Tot_Q>
1

> <i_epik_Tot_abs_Q>
1

> <r_epik_Metal_State_Penalty>
2.73053

> <b_epik_Metal_Only>
0

> <s_lp_Force_Field>
OPLS_2005

> <r_lp_Energy>
7.77785

> <b_lp_Chiralities_Consistent>
1

> <s_lp_Variant>
AV-unprocessed.smi:346-2

> <Gold.Version>
5.8.1

> <Gold.Id.Protein>
6NUR|6NUR_protein|mol2

> <Gold.PLP.Fitness>
47.8512

> <Gold.PLP.PLP>
-39.5457

> <Gold.PLP.part.hbond>
-2.0000

> <Gold.PLP.part.metal>
0.0000

> <Gold.PLP.part.buried>
-2.4199

> <Gold.PLP.part.nonpolar>
-34.8789

> <Gold.PLP.part.repulsive>
0.2287

> <Gold.PLP.ligand.clash>
0.0000

> <Gold.PLP.ligand.torsion>
0.3789

> <Gold.PLP.Chemscore.Hbond>
2.9520

> <Gold.PLP.Chemscore.CHOScore>
0.0000

> <Gold.PLP.Chemscore.Metal>
0.0000

> <Gold.Chemscore.Hbonds>
donor molecule, donor type, donor heavy atom, donor atom, acceptor molecule, acceptor atom, score
      L1  H    10    30       P1  8028  0.85
      L1  H    12    34       P1  8028  2.00

> <Gold.PLP.Chemscore.Internal.Correction>
0.2073

> <Gold.Rescore>
     Score         DG    S(hbond)    S(metal)    S(lipo)     H(rot)  DE(clash)    DE(int)     intcor
     15.73     -16.34       1.66        0.00     105.78       2.75       0.09       0.52       ----

> <Gold.Chemscore.Fitness>
15.7292

> <Gold.Chemscore.DG>
-16.3365

> <Gold.Chemscore.ZeroCoef>
-5.4800

> <Gold.Chemscore.Hbond>
1.6558

> <Gold.Chemscore.Metal>
0.0000

> <Gold.Chemscore.Lipo>
105.7751

> <Gold.Chemscore.Internal_Hbond>
0.0000

> <Gold.Chemscore.DEClash>
0.0913

> <Gold.Chemscore.DEInternal>
0.5159

> <Gold.Chemscore.Rot>
2.7537

> <Gold.Chemscore.Internal.Correction>
   9.000000E+99

> <Gold.Chemscore.Hbonds>
donor molecule, donor type, donor heavy atom, donor atom, acceptor molecule, acceptor atom, score
      L1  H    10    30       P1  8028  0.15
      L1  H    12    34       P1  8028  0.97

> <Gold.Chemscore.Hbond.Weighted>
-5.5304

> <Gold.Chemscore.Metal.Weighted>
-0.0000

> <Gold.Chemscore.Lipo.Weighted>
-12.3757

> <Gold.Chemscore.Internal_Hbond.Weighted>
0.0000

> <Gold.Chemscore.DEClash.Weighted>
0.0913

> <Gold.Chemscore.DEInternal.Weighted>
0.5159

> <Gold.Chemscore.Rot.Weighted>
7.0496

> <Gold.Chemscore.Internal.Correction.Weighted>
   9.000000E+99

> <Gold.Protein.RotatedTorsions>
[ 6907 6896 6895 6894 ] final  -51.31 input  -60.11 | X-H torsion
[ 7974 7965 7964 7962 ] final -128.04 input  175.53 | X-H torsion
[ 8008 7997 7996 7995 ] final -111.75 input   59.86 | X-H torsion
[ 10167 10162 10161 10158 ] final   54.11 input  -65.29 | X-H torsion
[ 10718 10713 10712 10709 ] final    6.29 input   66.30 | X-H torsion
[ 10763 10752 10751 10750 ] final  -35.14 input  -60.55 | X-H torsion
[ 11005 11000 10999 10996 ] final  -25.83 input  -57.11 | X-H torsion

> <Gold.Protein.ActiveResidues>
 VAL166  LYS551  ARG553  GLY616  TRP617  ASP618  TYR619  PRO620  LYS621  CYS622 
 ASP623  PHE694  ASN695  SER759  ASP760  ASP761  ALA762  ILE779  LEU786  VAL792 
 PHE793  MET794  SER795  GLU796  ALA797  LYS798  CYS799  TRP800  GLU811  SER814 

> <Gold.Protein.RotatedAtoms>
  150.8623  134.7978  159.7091 H   0  0  0  0  0  0  0  0  0  0  0  0  # atno 6907 bound_to 6896
  152.4656  134.5080  159.9755 H   0  0  0  0  0  0  0  0  0  0  0  0  # atno 6908 bound_to 6896
  151.5182  133.3433  159.2932 H   0  0  0  0  0  0  0  0  0  0  0  0  # atno 6909 bound_to 6896
  144.9710  140.7545  143.4671 H   0  0  0  0  0  0  0  0  0  0  0  0  # atno 7974 bound_to 7965
  154.9946  140.0395  157.2334 H   0  0  0  0  0  0  0  0  0  0  0  0  # atno 8008 bound_to 7997
  154.7598  140.2782  155.6201 H   0  0  0  0  0  0  0  0  0  0  0  0  # atno 8009 bound_to 7997
  156.2902  140.2630  156.2373 H   0  0  0  0  0  0  0  0  0  0  0  0  # atno 8010 bound_to 7997
  140.2336  144.3660  150.6405 H   0  0  0  0  0  0  0  0  0  0  0  0  # atno 10167 bound_to 10162
  156.9200  130.5787  149.5648 H   0  0  0  0  0  0  0  0  0  0  0  0  # atno 10718 bound_to 10713
  153.8583  135.6842  153.4785 H   0  0  0  0  0  0  0  0  0  0  0  0  # atno 10763 bound_to 10752
  153.1357  135.4679  154.9416 H   0  0  0  0  0  0  0  0  0  0  0  0  # atno 10764 bound_to 10752
  154.7770  135.3256  154.8019 H   0  0  0  0  0  0  0  0  0  0  0  0  # atno 10765 bound_to 10752
  140.8974  133.7547  156.0499 H   0  0  0  0  0  0  0  0  0  0  0  0  # atno 11005 bound_to 11000
  145.2559  139.2012  143.4917 LP  0  0  0  0  0  0  0  0  0  0  0  0  # atno 17320 bound_to 7965
  146.3382  140.2481  142.8597 LP  0  0  0  0  0  0  0  0  0  0  0  0  # atno 17321 bound_to 7965
  140.6166  143.2173  151.6778 LP  0  0  0  0  0  0  0  0  0  0  0  0  # atno 17342 bound_to 10162
  139.5101  144.3553  152.0613 LP  0  0  0  0  0  0  0  0  0  0  0  0  # atno 17343 bound_to 10162
  156.0495  130.5567  150.8958 LP  0  0  0  0  0  0  0  0  0  0  0  0  # atno 17370 bound_to 10713
  157.5914  131.0944  150.9113 LP  0  0  0  0  0  0  0  0  0  0  0  0  # atno 17371 bound_to 10713
  140.8272  134.3220  157.5361 LP  0  0  0  0  0  0  0  0  0  0  0  0  # atno 17394 bound_to 11000
  139.8737  134.9343  156.3603 LP  0  0  0  0  0  0  0  0  0  0  0  0  # atno 17395 bound_to 11000

$$$$
