AV-unprocessed.smi:3285|AV-procd|sdf|12582|dock4
  -GOLD-   2272018503D 1   1.00000     0.00000
 Structure written by MMmdl.
 45 46  0  0  0  0  0  0  0  0  2 V2000
  147.2471  140.7781  153.7278 C   0  0  0  0  0  0  0  0  0  0  0  0
  148.5928  140.1540  153.9634 C   0  0  0  0  0  0  0  0  0  0  0  0
  148.8871  138.9990  153.3914 N   0  0  0  0  0  0  0  0  0  0  0  0
  150.1893  138.6917  153.7964 O   0  0  0  0  0  0  0  0  0  0  0  0
  150.6349  139.6876  154.6038 C   0  0  0  0  0  0  0  0  0  0  0  0
  152.0181  139.5453  155.1428 C   0  0  0  0  0  0  0  0  0  0  0  0
  149.6721  140.6479  154.7511 C   0  0  0  0  0  0  0  0  0  0  0  0
  149.7277  141.9238  155.5468 C   0  0  0  0  0  0  0  0  0  0  0  0
  149.7820  141.6431  157.0539 C   0  0  0  0  0  0  0  0  0  0  0  0
  150.2036  142.8464  157.8006 N   0  3  0  0  0  0  0  0  0  0  0  0
  151.6471  143.1732  157.7241 C   0  0  2  0  0  0  0  0  0  0  0  0
  152.4929  141.9821  158.2044 C   0  0  0  0  0  0  0  0  0  0  0  0
  152.3783  141.7691  159.7224 C   0  0  0  0  0  0  0  0  0  0  0  0
  152.7484  143.0364  160.5196 C   0  0  2  0  0  0  0  0  0  0  0  0
  152.6241  142.7584  162.0283 C   0  0  0  0  0  0  0  0  0  0  0  0
  151.8940  144.2451  160.0542 C   0  0  1  0  0  0  0  0  0  0  0  0
  152.2645  145.5537  160.7752 C   0  0  0  0  0  0  0  0  0  0  0  0
  152.0126  144.4396  158.5268 C   0  0  0  0  0  0  0  0  0  0  0  0
  147.3309  141.6520  153.0818 H   0  0  0  0  0  0  0  0  0  0  0  0
  146.7961  141.1004  154.6664 H   0  0  0  0  0  0  0  0  0  0  0  0
  146.5552  140.0808  153.2534 H   0  0  0  0  0  0  0  0  0  0  0  0
  152.5907  140.4594  154.9850 H   0  0  0  0  0  0  0  0  0  0  0  0
  152.5487  138.7277  154.6540 H   0  0  0  0  0  0  0  0  0  0  0  0
  151.9953  139.3399  156.2131 H   0  0  0  0  0  0  0  0  0  0  0  0
  150.5980  142.5139  155.2574 H   0  0  0  0  0  0  0  0  0  0  0  0
  148.8618  142.5498  155.3280 H   0  0  0  0  0  0  0  0  0  0  0  0
  148.8005  141.3233  157.4063 H   0  0  0  0  0  0  0  0  0  0  0  0
  150.4776  140.8270  157.2473 H   0  0  0  0  0  0  0  0  0  0  0  0
  149.6724  143.6415  157.4752 H   0  0  0  0  0  0  0  0  0  0  0  0
  151.8848  143.3442  156.6731 H   0  0  0  0  0  0  0  0  0  0  0  0
  152.2031  141.0732  157.6754 H   0  0  0  0  0  0  0  0  0  0  0  0
  153.5387  142.1592  157.9497 H   0  0  0  0  0  0  0  0  0  0  0  0
  151.3628  141.4598  159.9738 H   0  0  0  0  0  0  0  0  0  0  0  0
  153.0275  140.9436  160.0171 H   0  0  0  0  0  0  0  0  0  0  0  0
  153.7961  143.2617  160.3137 H   0  0  0  0  0  0  0  0  0  0  0  0
  151.5853  142.5985  162.3190 H   0  0  0  0  0  0  0  0  0  0  0  0
  153.0176  143.5803  162.6256 H   0  0  0  0  0  0  0  0  0  0  0  0
  153.1868  141.8678  162.3094 H   0  0  0  0  0  0  0  0  0  0  0  0
  150.8491  144.0337  160.2857 H   0  0  0  0  0  0  0  0  0  0  0  0
  153.3209  145.7923  160.6478 H   0  0  0  0  0  0  0  0  0  0  0  0
  152.0584  145.5009  161.8438 H   0  0  0  0  0  0  0  0  0  0  0  0
  151.6870  146.3921  160.3848 H   0  0  0  0  0  0  0  0  0  0  0  0
  153.0410  144.7148  158.2880 H   0  0  0  0  0  0  0  0  0  0  0  0
  151.4076  145.2873  158.2061 H   0  0  0  0  0  0  0  0  0  0  0  0
  149.9790  142.6898  158.7727 H   0  0  0  0  0  0  0  0  0  0  0  0
  1  2  1  0  0  0  0
  1 19  1  0  0  0  0
  1 20  1  0  0  0  0
  1 21  1  0  0  0  0
  2  7  1  0  0  0  0
  2  3  2  0  0  0  0
  3  4  1  0  0  0  0
  4  5  1  0  0  0  0
  5  6  1  0  0  0  0
  5  7  2  0  0  0  0
  6 22  1  0  0  0  0
  6 23  1  0  0  0  0
  6 24  1  0  0  0  0
  7  8  1  0  0  0  0
  8  9  1  0  0  0  0
  8 25  1  0  0  0  0
  8 26  1  0  0  0  0
  9 10  1  0  0  0  0
  9 27  1  0  0  0  0
  9 28  1  0  0  0  0
 10 11  1  0  0  0  0
 10 29  1  0  0  0  0
 10 45  1  0  0  0  0
 11 18  1  0  0  0  0
 11 12  1  0  0  0  0
 11 30  1  0  0  0  0
 12 13  1  0  0  0  0
 12 31  1  0  0  0  0
 12 32  1  0  0  0  0
 13 14  1  0  0  0  0
 13 33  1  0  0  0  0
 13 34  1  0  0  0  0
 14 15  1  0  0  0  0
 14 16  1  0  0  0  0
 14 35  1  0  0  0  0
 15 36  1  0  0  0  0
 15 37  1  0  0  0  0
 15 38  1  0  0  0  0
 16 17  1  0  0  0  0
 16 18  1  0  0  0  0
 16 39  1  0  0  0  0
 17 40  1  0  0  0  0
 17 41  1  0  0  0  0
 17 42  1  0  0  0  0
 18 43  1  0  0  0  0
 18 44  1  0  0  0  0
M  CHG  1  10   1
M  END
> <s_m_source_file>
AV-unprocessed.smi

> <i_m_source_file_index>
3285

> <i_lp_mmshare_version>
43012

> <i_f3d_flags>
0

> <s_epik_input>
W0NIM11jMW5vYyhbQ0gzXSljMVtDSDJdW0NIMl1bTkhdW0NAQEhdMltDSDJdW0NIMl1bQ0BASF0oW0NIM10pW0NAQEhdKFtDSDNdKVtDSDJdMg==

> <s_epik_cmdline>
J2VwaWtfcHl0aG9uJywgJy1waCcsICc3LjAnLCAnLXRuJywgJzgnLCAnLW1hJywgJzIwMCcsICctbWV0YWxfYmluZGluZycsICctaW1hZScsICc8aW5maWxlLm1hZT4nLCAnLW9tYWUnLCAnPG91dGZpbGUubWFlPic=

> <r_lp_tautomer_probability>
1

> <r_epik_Ionization_Penalty>
0.000204615

> <r_epik_Ionization_Penalty_Charging>
0.000204615

> <r_epik_Ionization_Penalty_Neutral>
9.28663e-11

> <r_epik_State_Penalty>
-0

> <r_epik_Charging_Adjusted_Penalty>
0.000204615

> <i_epik_Tot_Q>
1

> <i_epik_Tot_abs_Q>
1

> <r_epik_Metal_State_Penalty>
-0

> <b_epik_Metal_Only>
0

> <s_lp_Force_Field>
OPLS_2005

> <r_lp_Energy>
13.9042

> <b_lp_Chiralities_Consistent>
1

> <s_lp_Variant>
AV-unprocessed.smi:3285-3

> <Gold.Version>
5.8.1

> <Gold.Id.Protein>
6NUR|6NUR_protein|mol2

> <Gold.PLP.Fitness>
46.7125

> <Gold.PLP.PLP>
-41.0556

> <Gold.PLP.part.hbond>
-1.0000

> <Gold.PLP.part.metal>
0.0000

> <Gold.PLP.part.buried>
-1.8931

> <Gold.PLP.part.nonpolar>
-38.0805

> <Gold.PLP.part.repulsive>
1.3669

> <Gold.PLP.ligand.clash>
0.0000

> <Gold.PLP.ligand.torsion>
0.1743

> <Gold.PLP.Chemscore.Hbond>
2.0000

> <Gold.PLP.Chemscore.CHOScore>
0.0000

> <Gold.PLP.Chemscore.Metal>
0.0000

> <Gold.Chemscore.Hbonds>
donor molecule, donor type, donor heavy atom, donor atom, acceptor molecule, acceptor atom, score
      L1  H    10    29       P1  8028  0.90

> <Gold.PLP.Chemscore.Internal.Correction>
0.0055

> <Gold.Rescore>
     Score         DG    S(hbond)    S(metal)    S(lipo)     H(rot)  DE(clash)    DE(int)     intcor
     19.66     -21.83       0.94        0.00     142.26       1.35       1.95       0.23       ----

> <Gold.Chemscore.Fitness>
19.6559

> <Gold.Chemscore.DG>
-21.8278

> <Gold.Chemscore.ZeroCoef>
-5.4800

> <Gold.Chemscore.Hbond>
0.9433

> <Gold.Chemscore.Metal>
0.0000

> <Gold.Chemscore.Lipo>
142.2573

> <Gold.Chemscore.Internal_Hbond>
0.0000

> <Gold.Chemscore.DEClash>
1.9457

> <Gold.Chemscore.DEInternal>
0.2262

> <Gold.Chemscore.Rot>
1.3465

> <Gold.Chemscore.Internal.Correction>
   9.000000E+99

> <Gold.Chemscore.Hbonds>
donor molecule, donor type, donor heavy atom, donor atom, acceptor molecule, acceptor atom, score
      L1  H    10    29       P1  8028  0.30

> <Gold.Chemscore.Hbond.Weighted>
-3.1507

> <Gold.Chemscore.Metal.Weighted>
-0.0000

> <Gold.Chemscore.Lipo.Weighted>
-16.6441

> <Gold.Chemscore.Internal_Hbond.Weighted>
0.0000

> <Gold.Chemscore.DEClash.Weighted>
1.9457

> <Gold.Chemscore.DEInternal.Weighted>
0.2262

> <Gold.Chemscore.Rot.Weighted>
3.4470

> <Gold.Chemscore.Internal.Correction.Weighted>
   9.000000E+99

> <Gold.Protein.RotatedTorsions>
[ 6907 6896 6895 6894 ] final   66.78 input  -60.11 | X-H torsion
[ 7974 7965 7964 7962 ] final -109.27 input  175.53 | X-H torsion
[ 8008 7997 7996 7995 ] final  174.46 input   59.86 | X-H torsion
[ 10167 10162 10161 10158 ] final   22.79 input  -65.29 | X-H torsion
[ 10718 10713 10712 10709 ] final   42.77 input   66.30 | X-H torsion
[ 10763 10752 10751 10750 ] final  -62.33 input  -60.55 | X-H torsion
[ 11005 11000 10999 10996 ] final  -43.38 input  -57.11 | X-H torsion

> <Gold.Protein.ActiveResidues>
 VAL166  LYS551  ARG553  GLY616  TRP617  ASP618  TYR619  PRO620  LYS621  CYS622 
 ASP623  PHE694  ASN695  SER759  ASP760  ASP761  ALA762  ILE779  LEU786  VAL792 
 PHE793  MET794  SER795  GLU796  ALA797  LYS798  CYS799  TRP800  GLU811  SER814 

> <Gold.Protein.RotatedAtoms>
  152.4506  134.5402  159.9836 H   0  0  0  0  0  0  0  0  0  0  0  0  # atno 6907 bound_to 6896
  151.5476  133.3417  159.2955 H   0  0  0  0  0  0  0  0  0  0  0  0  # atno 6908 bound_to 6896
  150.8434  134.7765  159.7014 H   0  0  0  0  0  0  0  0  0  0  0  0  # atno 6909 bound_to 6896
  145.1825  140.8978  143.3471 H   0  0  0  0  0  0  0  0  0  0  0  0  # atno 7974 bound_to 7965
  156.0971  140.1434  156.9516 H   0  0  0  0  0  0  0  0  0  0  0  0  # atno 8008 bound_to 7997
  154.4678  140.0920  156.7113 H   0  0  0  0  0  0  0  0  0  0  0  0  # atno 8009 bound_to 7997
  155.4822  140.3445  155.4344 H   0  0  0  0  0  0  0  0  0  0  0  0  # atno 8010 bound_to 7997
  140.5321  143.9824  150.6471 H   0  0  0  0  0  0  0  0  0  0  0  0  # atno 10167 bound_to 10162
  157.4085  130.7901  149.7410 H   0  0  0  0  0  0  0  0  0  0  0  0  # atno 10718 bound_to 10713
  154.2982  135.6240  153.5413 H   0  0  0  0  0  0  0  0  0  0  0  0  # atno 10763 bound_to 10752
  152.9844  135.5672  154.5314 H   0  0  0  0  0  0  0  0  0  0  0  0  # atno 10764 bound_to 10752
  154.4939  135.2868  155.1451 H   0  0  0  0  0  0  0  0  0  0  0  0  # atno 10765 bound_to 10752
  141.0380  133.6792  156.2725 H   0  0  0  0  0  0  0  0  0  0  0  0  # atno 11005 bound_to 11000
  145.0122  139.3500  143.6114 LP  0  0  0  0  0  0  0  0  0  0  0  0  # atno 17320 bound_to 7965
  146.3450  139.9388  142.8743 LP  0  0  0  0  0  0  0  0  0  0  0  0  # atno 17321 bound_to 7965
  140.3202  143.3142  152.0792 LP  0  0  0  0  0  0  0  0  0  0  0  0  # atno 17342 bound_to 10162
  139.4958  144.6579  151.6531 LP  0  0  0  0  0  0  0  0  0  0  0  0  # atno 17343 bound_to 10162
  155.9844  130.3992  150.3315 LP  0  0  0  0  0  0  0  0  0  0  0  0  # atno 17370 bound_to 10713
  157.1451  131.0306  151.2910 LP  0  0  0  0  0  0  0  0  0  0  0  0  # atno 17371 bound_to 10713
  140.6287  134.5286  157.5557 LP  0  0  0  0  0  0  0  0  0  0  0  0  # atno 17394 bound_to 11000
  139.9254  134.8066  156.1084 LP  0  0  0  0  0  0  0  0  0  0  0  0  # atno 17395 bound_to 11000

$$$$
