AV-unprocessed.smi:1769|AV-procd|sdf|7152|dock8
  -GOLD-   22720 8393D 1   1.00000     0.00000
 Structure written by MMmdl.
 41 42  0  0  0  0  0  0  0  0  1 V2000
  148.4402  138.8823  154.1916 C   0  0  0  0  0  0  0  0  0  0  0  0
  149.6674  139.5092  154.8573 C   0  0  0  0  0  0  0  0  0  0  0  0
  150.5824  139.9005  154.1321 O   0  0  0  0  0  0  0  0  0  0  0  0
  149.7097  139.6091  156.2078 N   0  0  0  0  0  0  0  0  0  0  0  0
  148.6959  139.0843  157.1317 C   0  0  0  0  0  0  0  0  0  0  0  0
  149.2824  137.8660  157.8677 C   0  0  0  0  0  0  0  0  0  0  0  0
  150.5946  138.2348  158.5873 C   0  0  0  0  0  0  0  0  0  0  0  0
  151.5861  138.9502  157.6391 C   0  0  2  0  0  0  0  0  0  0  0  0
  152.8297  139.4444  158.3880 C   0  0  0  0  0  0  0  0  0  0  0  0
  153.9498  139.0573  158.0534 O   0  0  0  0  0  0  0  0  0  0  0  0
  152.6136  140.2790  159.4176 N   0  0  0  0  0  0  0  0  0  0  0  0
  153.6381  140.7924  160.3241 C   0  0  0  0  0  0  0  0  0  0  0  0
  153.0900  141.8901  161.2570 C   0  0  0  0  0  0  0  0  0  0  0  0
  152.6327  143.1394  160.5238 C   0  0  0  0  0  0  0  0  0  0  0  0
  152.8170  143.2741  159.1319 C   0  0  0  0  0  0  0  0  0  0  0  0
  152.3443  144.4367  158.4941 C   0  0  0  0  0  0  0  0  0  0  0  0
  151.7107  145.4209  159.2786 C   0  0  0  0  0  0  0  0  0  0  0  0
  151.5348  145.3063  160.6126 N   0  0  0  0  0  0  0  0  0  0  0  0
  151.9876  144.1862  161.2157 C   0  0  0  0  0  0  0  0  0  0  0  0
  150.8803  140.1259  156.9269 C   0  0  0  0  0  0  0  0  0  0  0  0
  148.2872  137.8617  154.5439 H   0  0  0  0  0  0  0  0  0  0  0  0
  148.5671  138.8438  153.1091 H   0  0  0  0  0  0  0  0  0  0  0  0
  147.5454  139.4686  154.4013 H   0  0  0  0  0  0  0  0  0  0  0  0
  148.4320  139.8613  157.8504 H   0  0  0  0  0  0  0  0  0  0  0  0
  147.7608  138.8103  156.6455 H   0  0  0  0  0  0  0  0  0  0  0  0
  148.5600  137.4781  158.5862 H   0  0  0  0  0  0  0  0  0  0  0  0
  149.4698  137.0644  157.1522 H   0  0  0  0  0  0  0  0  0  0  0  0
  150.3567  138.8810  159.4337 H   0  0  0  0  0  0  0  0  0  0  0  0
  151.0514  137.3371  159.0058 H   0  0  0  0  0  0  0  0  0  0  0  0
  151.9045  138.2333  156.8794 H   0  0  0  0  0  0  0  0  0  0  0  0
  151.6592  140.5414  159.6178 H   0  0  0  0  0  0  0  0  0  0  0  0
  154.0724  139.9833  160.9138 H   0  0  0  0  0  0  0  0  0  0  0  0
  154.4524  141.1975  159.7232 H   0  0  0  0  0  0  0  0  0  0  0  0
  152.2517  141.4957  161.8323 H   0  0  0  0  0  0  0  0  0  0  0  0
  153.8527  142.1662  161.9859 H   0  0  0  0  0  0  0  0  0  0  0  0
  153.2978  142.4948  158.5589 H   0  0  0  0  0  0  0  0  0  0  0  0
  152.4602  144.5686  157.4284 H   0  0  0  0  0  0  0  0  0  0  0  0
  151.3348  146.3245  158.8220 H   0  0  0  0  0  0  0  0  0  0  0  0
  151.8229  144.1193  162.2811 H   0  0  0  0  0  0  0  0  0  0  0  0
  151.5778  140.6438  156.2669 H   0  0  0  0  0  0  0  0  0  0  0  0
  150.5530  140.8740  157.6510 H   0  0  0  0  0  0  0  0  0  0  0  0
  1  2  1  0  0  0  0
  1 21  1  0  0  0  0
  1 22  1  0  0  0  0
  1 23  1  0  0  0  0
  2  3  2  0  0  0  0
  2  4  1  0  0  0  0
  4 20  1  0  0  0  0
  4  5  1  0  0  0  0
  5  6  1  0  0  0  0
  5 24  1  0  0  0  0
  5 25  1  0  0  0  0
  6  7  1  0  0  0  0
  6 26  1  0  0  0  0
  6 27  1  0  0  0  0
  7  8  1  0  0  0  0
  7 28  1  0  0  0  0
  7 29  1  0  0  0  0
  8  9  1  0  0  0  0
  8 20  1  0  0  0  0
  8 30  1  0  0  0  0
  9 10  2  0  0  0  0
  9 11  1  0  0  0  0
 11 12  1  0  0  0  0
 11 31  1  0  0  0  0
 12 13  1  0  0  0  0
 12 32  1  0  0  0  0
 12 33  1  0  0  0  0
 13 14  1  0  0  0  0
 13 34  1  0  0  0  0
 13 35  1  0  0  0  0
 14 19  1  0  0  0  0
 14 15  2  0  0  0  0
 15 16  1  0  0  0  0
 15 36  1  0  0  0  0
 16 17  2  0  0  0  0
 16 37  1  0  0  0  0
 17 18  1  0  0  0  0
 17 38  1  0  0  0  0
 18 19  2  0  0  0  0
 19 39  1  0  0  0  0
 20 40  1  0  0  0  0
 20 41  1  0  0  0  0
M  END
> <s_m_source_file>
AV-unprocessed.smi

> <i_m_source_file_index>
1769

> <i_lp_mmshare_version>
43012

> <i_f3d_flags>
0

> <s_epik_input>
W0NIM11DKD1PKU4xW0NIMl1bQ0gyXVtDSDJdW0NASF0oW0NIMl0xKUMoPU8pW05IXVtDSDJdW0NIMl1jMltjSF1bY0hdW2NIXW5bY0hdMg==

> <s_epik_cmdline>
J2VwaWtfcHl0aG9uJywgJy1waCcsICc3LjAnLCAnLXRuJywgJzgnLCAnLW1hJywgJzIwMCcsICctbWV0YWxfYmluZGluZycsICctaW1hZScsICc8aW5maWxlLm1hZT4nLCAnLW9tYWUnLCAnPG91dGZpbGUubWFlPic=

> <r_epik_Ionization_Penalty>
0.0134099

> <r_epik_Ionization_Penalty_Charging>
0

> <r_epik_Ionization_Penalty_Neutral>
0.0134099

> <r_epik_State_Penalty>
0.010434

> <r_epik_Charging_Adjusted_Penalty>
0.010434

> <i_epik_Tot_Q>
0

> <i_epik_Tot_abs_Q>
0

> <r_epik_Metal_State_Penalty>
0.0102025

> <b_epik_Metal_Only>
0

> <s_lp_Force_Field>
OPLS_2005

> <r_lp_Energy>
22.8084

> <b_lp_Chiralities_Consistent>
1

> <s_lp_Variant>
AV-unprocessed.smi:1769-2

> <Gold.Version>
5.8.1

> <Gold.Id.Protein>
6NUR|6NUR_protein|mol2

> <Gold.PLP.Fitness>
47.4574

> <Gold.PLP.PLP>
-41.6378

> <Gold.PLP.part.hbond>
-2.0000

> <Gold.PLP.part.metal>
0.0000

> <Gold.PLP.part.buried>
-4.9934

> <Gold.PLP.part.nonpolar>
-34.8467

> <Gold.PLP.part.repulsive>
0.7160

> <Gold.PLP.ligand.clash>
0.0000

> <Gold.PLP.ligand.torsion>
0.1061

> <Gold.PLP.Chemscore.Hbond>
2.0000

> <Gold.PLP.Chemscore.CHOScore>
0.0000

> <Gold.PLP.Chemscore.Metal>
0.0000

> <Gold.Chemscore.Hbonds>
donor molecule, donor type, donor heavy atom, donor atom, acceptor molecule, acceptor atom, score
      P1  H  7989  7998       L1     3  1.00
      P1  H  7997  8009       L1    10  1.00

> <Gold.PLP.Chemscore.Internal.Correction>
0.0318

> <Gold.Rescore>
     Score         DG    S(hbond)    S(metal)    S(lipo)     H(rot)  DE(clash)    DE(int)     intcor
     20.20     -20.51       1.96        0.00     105.70       1.52       0.03       0.28       ----

> <Gold.Chemscore.Fitness>
20.1991

> <Gold.Chemscore.DG>
-20.5067

> <Gold.Chemscore.ZeroCoef>
-5.4800

> <Gold.Chemscore.Hbond>
1.9619

> <Gold.Chemscore.Metal>
0.0000

> <Gold.Chemscore.Lipo>
105.6962

> <Gold.Chemscore.Internal_Hbond>
0.0000

> <Gold.Chemscore.DEClash>
0.0270

> <Gold.Chemscore.DEInternal>
0.2806

> <Gold.Chemscore.Rot>
1.5205

> <Gold.Chemscore.Internal.Correction>
   9.000000E+99

> <Gold.Chemscore.Hbonds>
donor molecule, donor type, donor heavy atom, donor atom, acceptor molecule, acceptor atom, score
      P1  H  7989  7998       L1     3  0.96
      P1  H  7997  8009       L1    10  0.81

> <Gold.Chemscore.Hbond.Weighted>
-6.5528

> <Gold.Chemscore.Metal.Weighted>
-0.0000

> <Gold.Chemscore.Lipo.Weighted>
-12.3665

> <Gold.Chemscore.Internal_Hbond.Weighted>
0.0000

> <Gold.Chemscore.DEClash.Weighted>
0.0270

> <Gold.Chemscore.DEInternal.Weighted>
0.2806

> <Gold.Chemscore.Rot.Weighted>
3.8926

> <Gold.Chemscore.Internal.Correction.Weighted>
   9.000000E+99

> <Gold.Protein.RotatedTorsions>
[ 6907 6896 6895 6894 ] final  -95.58 input  -60.11 | X-H torsion
[ 7974 7965 7964 7962 ] final  -93.41 input  175.53 | X-H torsion
[ 8008 7997 7996 7995 ] final  152.95 input   59.86 | X-H torsion
[ 10167 10162 10161 10158 ] final  -45.61 input  -65.29 | X-H torsion
[ 10718 10713 10712 10709 ] final  -14.63 input   66.30 | X-H torsion
[ 10763 10752 10751 10750 ] final  156.43 input  -60.55 | X-H torsion
[ 11005 11000 10999 10996 ] final -171.92 input  -57.11 | X-H torsion

> <Gold.Protein.ActiveResidues>
 VAL166  LYS551  ARG553  GLY616  TRP617  ASP618  TYR619  PRO620  LYS621  CYS622 
 ASP623  PHE694  ASN695  SER759  ASP760  ASP761  ALA762  ILE779  LEU786  VAL792 
 PHE793  MET794  SER795  GLU796  ALA797  LYS798  CYS799  TRP800  GLU811  SER814 

> <Gold.Protein.RotatedAtoms>
  150.6967  134.1635  159.4184 H   0  0  0  0  0  0  0  0  0  0  0  0  # atno 6907 bound_to 6896
  151.9615  135.0119  160.0557 H   0  0  0  0  0  0  0  0  0  0  0  0  # atno 6908 bound_to 6896
  152.1923  133.4746  159.5051 H   0  0  0  0  0  0  0  0  0  0  0  0  # atno 6909 bound_to 6896
  145.3869  140.9524  143.2362 H   0  0  0  0  0  0  0  0  0  0  0  0  # atno 7974 bound_to 7965
  156.2605  140.2007  156.6413 H   0  0  0  0  0  0  0  0  0  0  0  0  # atno 8008 bound_to 7997
  154.6607  140.0561  157.0083 H   0  0  0  0  0  0  0  0  0  0  0  0  # atno 8009 bound_to 7997
  155.1280  140.3231  155.4484 H   0  0  0  0  0  0  0  0  0  0  0  0  # atno 8010 bound_to 7997
  140.6851  143.2871  151.3663 H   0  0  0  0  0  0  0  0  0  0  0  0  # atno 10167 bound_to 10162
  156.6132  130.4855  149.6193 H   0  0  0  0  0  0  0  0  0  0  0  0  # atno 10718 bound_to 10713
  154.1842  135.2798  155.3042 H   0  0  0  0  0  0  0  0  0  0  0  0  # atno 10763 bound_to 10752
  154.5979  135.5539  153.7347 H   0  0  0  0  0  0  0  0  0  0  0  0  # atno 10764 bound_to 10752
  153.0129  135.6384  154.1981 H   0  0  0  0  0  0  0  0  0  0  0  0  # atno 10765 bound_to 10752
  140.5028  134.5877  157.4993 H   0  0  0  0  0  0  0  0  0  0  0  0  # atno 11005 bound_to 11000
  144.8468  139.5385  143.6875 LP  0  0  0  0  0  0  0  0  0  0  0  0  # atno 17320 bound_to 7965
  146.2816  139.6892  142.9225 LP  0  0  0  0  0  0  0  0  0  0  0  0  # atno 17321 bound_to 7965
  139.6203  144.0920  152.2385 LP  0  0  0  0  0  0  0  0  0  0  0  0  # atno 17342 bound_to 10162
  140.0362  144.6043  150.7448 LP  0  0  0  0  0  0  0  0  0  0  0  0  # atno 17343 bound_to 10162
  156.2372  130.6830  151.1521 LP  0  0  0  0  0  0  0  0  0  0  0  0  # atno 17370 bound_to 10713
  157.7248  131.0657  150.5979 LP  0  0  0  0  0  0  0  0  0  0  0  0  # atno 17371 bound_to 10713
  139.9703  134.7304  156.0054 LP  0  0  0  0  0  0  0  0  0  0  0  0  # atno 17394 bound_to 11000
  141.1426  133.6562  156.3775 LP  0  0  0  0  0  0  0  0  0  0  0  0  # atno 17395 bound_to 11000

$$$$
