AV-unprocessed.smi:891|AV-procd|sdf|4063|dock3
  -GOLD-   22720 1553D 1   1.00000     0.00000
 Structure written by MMmdl.
 38 38  0  0  0  0  0  0  0  0  1 V2000
  153.4912  140.5758  161.1393 C   0  0  0  0  0  0  0  0  0  0  0  0
  152.7053  141.6489  160.4441 C   0  0  0  0  0  0  0  0  0  0  0  0
  152.3347  141.4939  159.1823 N   0  0  0  0  0  0  0  0  0  0  0  0
  151.6692  142.6320  158.8561 N   0  0  0  0  0  0  0  0  0  0  0  0
  151.1863  142.7921  157.4910 C   0  0  0  0  0  0  0  0  0  0  0  0
  150.1007  141.7573  157.1929 C   0  0  0  0  0  0  0  0  0  0  0  0
  150.2920  140.5691  157.4494 O   0  0  0  0  0  0  0  0  0  0  0  0
  148.9932  142.2233  156.5962 N   0  0  0  0  0  0  0  0  0  0  0  0
  147.9759  141.4125  155.9364 C   0  0  0  0  0  0  0  0  0  0  0  0
  147.9653  141.6703  154.4127 C   0  0  2  0  0  0  0  0  0  0  0  0
  146.8129  142.6216  154.0482 C   0  0  0  0  0  0  0  0  0  0  0  0
  147.9084  140.3600  153.5889 C   0  0  0  0  0  0  0  0  0  0  0  0
  148.7348  139.2092  154.1836 C   0  0  0  0  0  0  0  0  0  0  0  0
  150.1007  139.5648  154.1970 O   0  0  0  0  0  0  0  0  0  0  0  0
  151.5966  143.5163  159.9237 C   0  0  0  0  0  0  0  0  0  0  0  0
  150.9282  144.8515  159.8561 C   0  0  0  0  0  0  0  0  0  0  0  0
  152.2610  142.9001  160.9420 C   0  0  0  0  0  0  0  0  0  0  0  0
  152.5292  143.5282  162.5272 Cl  0  0  0  0  0  0  0  0  0  0  0  0
  152.8394  139.9486  161.7473 H   0  0  0  0  0  0  0  0  0  0  0  0
  154.2456  141.0081  161.7967 H   0  0  0  0  0  0  0  0  0  0  0  0
  154.0063  139.9305  160.4270 H   0  0  0  0  0  0  0  0  0  0  0  0
  150.7883  143.8003  157.3650 H   0  0  0  0  0  0  0  0  0  0  0  0
  152.0154  142.6865  156.7911 H   0  0  0  0  0  0  0  0  0  0  0  0
  148.9258  143.2210  156.4584 H   0  0  0  0  0  0  0  0  0  0  0  0
  148.1161  140.3487  156.1357 H   0  0  0  0  0  0  0  0  0  0  0  0
  147.0108  141.6810  156.3671 H   0  0  0  0  0  0  0  0  0  0  0  0
  148.8991  142.1782  154.1667 H   0  0  0  0  0  0  0  0  0  0  0  0
  145.8437  142.1598  154.2389 H   0  0  0  0  0  0  0  0  0  0  0  0
  146.8444  142.9105  152.9980 H   0  0  0  0  0  0  0  0  0  0  0  0
  146.8625  143.5399  154.6339 H   0  0  0  0  0  0  0  0  0  0  0  0
  146.8796  140.0097  153.5192 H   0  0  0  0  0  0  0  0  0  0  0  0
  148.2243  140.5556  152.5633 H   0  0  0  0  0  0  0  0  0  0  0  0
  148.4224  138.9808  155.2021 H   0  0  0  0  0  0  0  0  0  0  0  0
  148.6150  138.3028  153.5892 H   0  0  0  0  0  0  0  0  0  0  0  0
  150.5062  139.1745  154.9563 H   0  0  0  0  0  0  0  0  0  0  0  0
  150.7800  145.2639  160.8540 H   0  0  0  0  0  0  0  0  0  0  0  0
  149.9504  144.7812  159.3809 H   0  0  0  0  0  0  0  0  0  0  0  0
  151.5340  145.5601  159.2920 H   0  0  0  0  0  0  0  0  0  0  0  0
  1  2  1  0  0  0  0
  1 19  1  0  0  0  0
  1 20  1  0  0  0  0
  1 21  1  0  0  0  0
  2 17  1  0  0  0  0
  2  3  2  0  0  0  0
  3  4  1  0  0  0  0
  4  5  1  0  0  0  0
  4 15  1  0  0  0  0
  5  6  1  0  0  0  0
  5 22  1  0  0  0  0
  5 23  1  0  0  0  0
  6  7  2  0  0  0  0
  6  8  1  0  0  0  0
  8  9  1  0  0  0  0
  8 24  1  0  0  0  0
  9 10  1  0  0  0  0
  9 25  1  0  0  0  0
  9 26  1  0  0  0  0
 10 11  1  0  0  0  0
 10 12  1  0  0  0  0
 10 27  1  0  0  0  0
 11 28  1  0  0  0  0
 11 29  1  0  0  0  0
 11 30  1  0  0  0  0
 12 13  1  0  0  0  0
 12 31  1  0  0  0  0
 12 32  1  0  0  0  0
 13 14  1  0  0  0  0
 13 33  1  0  0  0  0
 13 34  1  0  0  0  0
 14 35  1  0  0  0  0
 15 16  1  0  0  0  0
 15 17  2  0  0  0  0
 16 36  1  0  0  0  0
 16 37  1  0  0  0  0
 16 38  1  0  0  0  0
 17 18  1  0  0  0  0
M  END
> <s_m_source_file>
AV-unprocessed.smi

> <i_m_source_file_index>
891

> <i_lp_mmshare_version>
43012

> <i_f3d_flags>
0

> <s_epik_input>
W0NIM11jMW5uKGMoW0NIM10pYzFDbClbQ0gyXUMoPU8pW05IXVtDSDJdW0NASF0oW0NIM10pW0NIMl1bQ0gyXVtPSF0=

> <s_epik_cmdline>
J2VwaWtfcHl0aG9uJywgJy1waCcsICc3LjAnLCAnLXRuJywgJzgnLCAnLW1hJywgJzIwMCcsICctbWV0YWxfYmluZGluZycsICctaW1hZScsICc8aW5maWxlLm1hZT4nLCAnLW9tYWUnLCAnPG91dGZpbGUubWFlPic=

> <r_lp_tautomer_probability>
1

> <r_epik_Ionization_Penalty>
4.9564e-06

> <r_epik_Ionization_Penalty_Charging>
0

> <r_epik_Ionization_Penalty_Neutral>
4.9564e-06

> <r_epik_State_Penalty>
-0

> <r_epik_Charging_Adjusted_Penalty>
0

> <i_epik_Tot_Q>
0

> <i_epik_Tot_abs_Q>
0

> <r_epik_Metal_State_Penalty>
-0

> <b_epik_Metal_Only>
0

> <s_lp_Force_Field>
OPLS_2005

> <r_lp_Energy>
6.31297

> <b_lp_Chiralities_Consistent>
1

> <s_lp_Variant>
AV-unprocessed.smi:891-1

> <Gold.Version>
5.8.1

> <Gold.Id.Protein>
6NUR|6NUR_protein|mol2

> <Gold.PLP.Fitness>
47.8997

> <Gold.PLP.PLP>
-43.7595

> <Gold.PLP.part.hbond>
-2.8834

> <Gold.PLP.part.metal>
0.0000

> <Gold.PLP.part.buried>
-3.9926

> <Gold.PLP.part.nonpolar>
-37.1318

> <Gold.PLP.part.repulsive>
0.0435

> <Gold.PLP.ligand.clash>
0.0000

> <Gold.PLP.ligand.torsion>
0.9807

> <Gold.PLP.Chemscore.Hbond>
2.0000

> <Gold.PLP.Chemscore.CHOScore>
0.0000

> <Gold.PLP.Chemscore.Metal>
0.0000

> <Gold.Chemscore.Hbonds>
donor molecule, donor type, donor heavy atom, donor atom, acceptor molecule, acceptor atom, score
      L1  H     8    24       P1  8028  1.00
      P1  H  7989  7998       L1    14  0.78

> <Gold.PLP.Chemscore.Internal.Correction>
0.1016

> <Gold.Rescore>
     Score         DG    S(hbond)    S(metal)    S(lipo)     H(rot)  DE(clash)    DE(int)     intcor
     13.99     -18.20       1.94        0.00     110.71       2.62       1.64       2.57       ----

> <Gold.Chemscore.Fitness>
13.9942

> <Gold.Chemscore.DG>
-18.2002

> <Gold.Chemscore.ZeroCoef>
-5.4800

> <Gold.Chemscore.Hbond>
1.9421

> <Gold.Chemscore.Metal>
0.0000

> <Gold.Chemscore.Lipo>
110.7074

> <Gold.Chemscore.Internal_Hbond>
0.0000

> <Gold.Chemscore.DEClash>
1.6368

> <Gold.Chemscore.DEInternal>
2.5692

> <Gold.Chemscore.Rot>
2.6247

> <Gold.Chemscore.Internal.Correction>
   9.000000E+99

> <Gold.Chemscore.Hbonds>
donor molecule, donor type, donor heavy atom, donor atom, acceptor molecule, acceptor atom, score
      L1  H     8    24       P1  8028  0.97
      P1  H  7989  7998       L1    14  0.30

> <Gold.Chemscore.Hbond.Weighted>
-6.4866

> <Gold.Chemscore.Metal.Weighted>
-0.0000

> <Gold.Chemscore.Lipo.Weighted>
-12.9528

> <Gold.Chemscore.Internal_Hbond.Weighted>
0.0000

> <Gold.Chemscore.DEClash.Weighted>
1.6368

> <Gold.Chemscore.DEInternal.Weighted>
2.5692

> <Gold.Chemscore.Rot.Weighted>
6.7192

> <Gold.Chemscore.Internal.Correction.Weighted>
   9.000000E+99

> <Gold.Protein.RotatedTorsions>
[ 6907 6896 6895 6894 ] final  138.89 input  -60.11 | X-H torsion
[ 7974 7965 7964 7962 ] final   76.84 input  175.53 | X-H torsion
[ 8008 7997 7996 7995 ] final -123.43 input   59.86 | X-H torsion
[ 10167 10162 10161 10158 ] final  159.35 input  -65.29 | X-H torsion
[ 10718 10713 10712 10709 ] final -175.25 input   66.30 | X-H torsion
[ 10763 10752 10751 10750 ] final  156.76 input  -60.55 | X-H torsion
[ 11005 11000 10999 10996 ] final  -77.52 input  -57.11 | X-H torsion

> <Gold.Protein.ActiveResidues>
 VAL166  LYS551  ARG553  GLY616  TRP617  ASP618  TYR619  PRO620  LYS621  CYS622 
 ASP623  PHE694  ASN695  SER759  ASP760  ASP761  ALA762  ILE779  LEU786  VAL792 
 PHE793  MET794  SER795  GLU796  ALA797  LYS798  CYS799  TRP800  GLU811  SER814 

> <Gold.Protein.RotatedAtoms>
  152.2613  133.5300  159.5383 H   0  0  0  0  0  0  0  0  0  0  0  0  # atno 6907 bound_to 6896
  150.7126  134.0825  159.3912 H   0  0  0  0  0  0  0  0  0  0  0  0  # atno 6908 bound_to 6896
  151.8743  135.0478  160.0533 H   0  0  0  0  0  0  0  0  0  0  0  0  # atno 6909 bound_to 6896
  145.6976  139.2572  143.1723 H   0  0  0  0  0  0  0  0  0  0  0  0  # atno 7974 bound_to 7965
  155.1805  140.0410  157.2881 H   0  0  0  0  0  0  0  0  0  0  0  0  # atno 8008 bound_to 7997
  154.6207  140.2500  155.7525 H   0  0  0  0  0  0  0  0  0  0  0  0  # atno 8009 bound_to 7997
  156.2432  140.2895  156.0513 H   0  0  0  0  0  0  0  0  0  0  0  0  # atno 8010 bound_to 7997
  139.4832  144.4738  151.8540 H   0  0  0  0  0  0  0  0  0  0  0  0  # atno 10167 bound_to 10162
  156.7970  130.9538  151.3119 H   0  0  0  0  0  0  0  0  0  0  0  0  # atno 10718 bound_to 10713
  154.1895  135.2795  155.3026 H   0  0  0  0  0  0  0  0  0  0  0  0  # atno 10763 bound_to 10752
  154.5940  135.5551  153.7310 H   0  0  0  0  0  0  0  0  0  0  0  0  # atno 10764 bound_to 10752
  153.0116  135.6375  154.2033 H   0  0  0  0  0  0  0  0  0  0  0  0  # atno 10765 bound_to 10752
  141.1660  133.7026  156.7832 H   0  0  0  0  0  0  0  0  0  0  0  0  # atno 11005 bound_to 11000
  146.0826  140.7747  142.9634 LP  0  0  0  0  0  0  0  0  0  0  0  0  # atno 17320 bound_to 7965
  144.6978  140.3513  143.7181 LP  0  0  0  0  0  0  0  0  0  0  0  0  # atno 17321 bound_to 7965
  140.4208  144.2245  150.5887 LP  0  0  0  0  0  0  0  0  0  0  0  0  # atno 17342 bound_to 10162
  140.4875  143.2358  151.8866 LP  0  0  0  0  0  0  0  0  0  0  0  0  # atno 17343 bound_to 10162
  157.6572  130.8935  149.9754 LP  0  0  0  0  0  0  0  0  0  0  0  0  # atno 17370 bound_to 10713
  156.1124  130.3649  150.0026 LP  0  0  0  0  0  0  0  0  0  0  0  0  # atno 17371 bound_to 10713
  140.2379  134.8636  157.3543 LP  0  0  0  0  0  0  0  0  0  0  0  0  # atno 17394 bound_to 11000
  140.1825  134.4471  155.7763 LP  0  0  0  0  0  0  0  0  0  0  0  0  # atno 17395 bound_to 11000

$$$$
