AV-unprocessed.smi:864|AV-procd|sdf|3988|dock3
  -GOLD-   22720 1463D 1   1.00000     0.00000
 Structure written by MMmdl.
 45 47  0  0  0  0  0  0  0  0  2 V2000
  151.4123  143.4548  157.9958 C   0  0  0  0  0  0  0  0  0  0  0  0
  151.0135  142.2966  157.1060 C   0  0  0  0  0  0  0  0  0  0  0  0
  151.6738  141.0494  157.1480 C   0  0  0  0  0  0  0  0  0  0  0  0
  151.2485  140.0152  156.2884 C   0  0  0  0  0  0  0  0  0  0  0  0
  150.1727  140.2485  155.4044 C   0  0  0  0  0  0  0  0  0  0  0  0
  149.6981  139.1579  154.4588 C   0  0  0  0  0  0  0  0  0  0  0  0
  148.1696  139.1419  154.2424 C   0  0  0  0  0  0  0  0  0  0  0  0
  147.7178  138.0746  153.3533 N   0  0  0  0  0  0  0  0  0  0  0  0
  146.4375  137.7587  153.1143 C   0  0  0  0  0  0  0  0  0  0  0  0
  145.4778  138.3272  153.6347 O   0  0  0  0  0  0  0  0  0  0  0  0
  146.3276  136.7744  152.2124 N   0  0  0  0  0  0  0  0  0  0  0  0
  145.0628  136.2742  151.6813 C   0  0  2  0  0  0  0  0  0  0  0  0
  144.0197  136.0709  152.7878 C   0  0  0  0  0  0  0  0  0  0  0  0
  143.4935  134.6681  152.5351 C   0  0  0  0  0  0  0  0  0  0  0  0
  142.5902  134.1707  153.2060 O   0  0  0  0  0  0  0  0  0  0  0  0
  144.1400  134.0755  151.5240 N   0  0  0  0  0  0  0  0  0  0  0  0
  143.9678  132.7044  151.1372 C   0  0  0  0  0  0  0  0  0  0  0  0
  145.0055  131.6504  151.4765 C   0  0  0  0  0  0  0  0  0  0  0  0
  144.8745  132.1526  150.0605 C   0  0  0  0  0  0  0  0  0  0  0  0
  145.2332  134.8932  151.0184 C   0  0  0  0  0  0  0  0  0  0  0  0
  149.5482  141.5152  155.4091 C   0  0  0  0  0  0  0  0  0  0  0  0
  149.9865  142.4802  156.2462 N   0  3  0  0  0  0  0  0  0  0  0  0
  152.2366  143.1794  158.6544 H   0  0  0  0  0  0  0  0  0  0  0  0
  150.5708  143.7651  158.6159 H   0  0  0  0  0  0  0  0  0  0  0  0
  151.7282  144.3062  157.3922 H   0  0  0  0  0  0  0  0  0  0  0  0
  152.4964  140.8840  157.8287 H   0  0  0  0  0  0  0  0  0  0  0  0
  151.7451  139.0558  156.3066 H   0  0  0  0  0  0  0  0  0  0  0  0
  150.2015  139.2785  153.4988 H   0  0  0  0  0  0  0  0  0  0  0  0
  150.0262  138.1921  154.8451 H   0  0  0  0  0  0  0  0  0  0  0  0
  147.6733  138.9899  155.2011 H   0  0  0  0  0  0  0  0  0  0  0  0
  147.8280  140.1085  153.8690 H   0  0  0  0  0  0  0  0  0  0  0  0
  148.4342  137.5462  152.8772 H   0  0  0  0  0  0  0  0  0  0  0  0
  147.1733  136.3640  151.8440 H   0  0  0  0  0  0  0  0  0  0  0  0
  144.6639  136.9834  150.9530 H   0  0  0  0  0  0  0  0  0  0  0  0
  144.4567  136.1151  153.7863 H   0  0  0  0  0  0  0  0  0  0  0  0
  143.2152  136.8047  152.7301 H   0  0  0  0  0  0  0  0  0  0  0  0
  142.9397  132.3449  151.1232 H   0  0  0  0  0  0  0  0  0  0  0  0
  145.9031  131.9340  152.0209 H   0  0  0  0  0  0  0  0  0  0  0  0
  144.6442  130.6449  151.6825 H   0  0  0  0  0  0  0  0  0  0  0  0
  144.4314  131.4819  149.3271 H   0  0  0  0  0  0  0  0  0  0  0  0
  145.6663  132.7971  149.6830 H   0  0  0  0  0  0  0  0  0  0  0  0
  145.1928  134.9795  149.9319 H   0  0  0  0  0  0  0  0  0  0  0  0
  146.1814  134.4239  151.2872 H   0  0  0  0  0  0  0  0  0  0  0  0
  148.7225  141.7867  154.7671 H   0  0  0  0  0  0  0  0  0  0  0  0
  149.5210  143.3880  156.2294 H   0  0  0  0  0  0  0  0  0  0  0  0
  1  2  1  0  0  0  0
  1 23  1  0  0  0  0
  1 24  1  0  0  0  0
  1 25  1  0  0  0  0
  2 22  1  0  0  0  0
  2  3  2  0  0  0  0
  3  4  1  0  0  0  0
  3 26  1  0  0  0  0
  4  5  2  0  0  0  0
  4 27  1  0  0  0  0
  5  6  1  0  0  0  0
  5 21  1  0  0  0  0
  6  7  1  0  0  0  0
  6 28  1  0  0  0  0
  6 29  1  0  0  0  0
  7  8  1  0  0  0  0
  7 30  1  0  0  0  0
  7 31  1  0  0  0  0
  8  9  1  0  0  0  0
  8 32  1  0  0  0  0
  9 10  2  0  0  0  0
  9 11  1  0  0  0  0
 11 12  1  0  0  0  0
 11 33  1  0  0  0  0
 12 20  1  0  0  0  0
 12 13  1  0  0  0  0
 12 34  1  0  0  0  0
 13 14  1  0  0  0  0
 13 35  1  0  0  0  0
 13 36  1  0  0  0  0
 14 15  2  0  0  0  0
 14 16  1  0  0  0  0
 16 17  1  0  0  0  0
 16 20  1  0  0  0  0
 17 19  1  0  0  0  0
 17 18  1  0  0  0  0
 17 37  1  0  0  0  0
 18 19  1  0  0  0  0
 18 38  1  0  0  0  0
 18 39  1  0  0  0  0
 19 40  1  0  0  0  0
 19 41  1  0  0  0  0
 20 42  1  0  0  0  0
 20 43  1  0  0  0  0
 21 22  2  0  0  0  0
 21 44  1  0  0  0  0
 22 45  1  0  0  0  0
M  CHG  1  22   1
M  END
> <s_m_source_file>
AV-unprocessed.smi

> <i_m_source_file_index>
864

> <i_lp_mmshare_version>
43012

> <i_f3d_flags>
0

> <s_epik_input>
W0NIM11jMVtjSF1bY0hdYyhbY0hdbjEpW0NIMl1bQ0gyXVtOSF1DKD1PKVtOSF1bQ0BASF0yW0NIMl1DKD1PKU4oW0NIMl0yKVtDSF0zW0NIMl1bQ0gyXTM=

> <s_epik_cmdline>
J2VwaWtfcHl0aG9uJywgJy1waCcsICc3LjAnLCAnLXRuJywgJzgnLCAnLW1hJywgJzIwMCcsICctbWV0YWxfYmluZGluZycsICctaW1hZScsICc8aW5maWxlLm1hZT4nLCAnLW9tYWUnLCAnPG91dGZpbGUubWFlPic=

> <r_epik_Ionization_Penalty>
1.42657

> <r_epik_Ionization_Penalty_Charging>
1.42653

> <r_epik_Ionization_Penalty_Neutral>
4.57062e-05

> <r_epik_State_Penalty>
1.51075

> <r_epik_Charging_Adjusted_Penalty>
2.93728

> <i_epik_Tot_Q>
1

> <i_epik_Tot_abs_Q>
1

> <r_epik_Metal_State_Penalty>
1.56242

> <b_epik_Metal_Only>
0

> <s_lp_Force_Field>
OPLS_2005

> <r_lp_Energy>
41.1174

> <b_lp_Chiralities_Consistent>
1

> <s_lp_Variant>
AV-unprocessed.smi:864-3

> <Gold.Version>
5.8.1

> <Gold.Id.Protein>
6NUR|6NUR_protein|mol2

> <Gold.PLP.Fitness>
52.3281

> <Gold.PLP.PLP>
-41.6098

> <Gold.PLP.part.hbond>
-3.1658

> <Gold.PLP.part.metal>
0.0000

> <Gold.PLP.part.buried>
-4.9791

> <Gold.PLP.part.nonpolar>
-36.4492

> <Gold.PLP.part.repulsive>
2.3790

> <Gold.PLP.ligand.clash>
0.0000

> <Gold.PLP.ligand.torsion>
0.7206

> <Gold.PLP.Chemscore.Hbond>
3.9680

> <Gold.PLP.Chemscore.CHOScore>
0.0000

> <Gold.PLP.Chemscore.Metal>
0.0000

> <Gold.Chemscore.Hbonds>
donor molecule, donor type, donor heavy atom, donor atom, acceptor molecule, acceptor atom, score
      L1  H     8    32       P1  7948  1.00
      L1  H    11    33       P1  7948  1.00
      L1  H    22    45       P1  8028  2.00

> <Gold.PLP.Chemscore.Internal.Correction>
0.2554

> <Gold.Rescore>
     Score         DG    S(hbond)    S(metal)    S(lipo)     H(rot)  DE(clash)    DE(int)     intcor
     18.81     -21.45       2.73        0.00      98.83       1.84       0.61       2.02       ----

> <Gold.Chemscore.Fitness>
18.8109

> <Gold.Chemscore.DG>
-21.4456

> <Gold.Chemscore.ZeroCoef>
-5.4800

> <Gold.Chemscore.Hbond>
2.7269

> <Gold.Chemscore.Metal>
0.0000

> <Gold.Chemscore.Lipo>
98.8305

> <Gold.Chemscore.Internal_Hbond>
0.0000

> <Gold.Chemscore.DEClash>
0.6099

> <Gold.Chemscore.DEInternal>
2.0248

> <Gold.Chemscore.Rot>
1.8381

> <Gold.Chemscore.Internal.Correction>
   9.000000E+99

> <Gold.Chemscore.Hbonds>
donor molecule, donor type, donor heavy atom, donor atom, acceptor molecule, acceptor atom, score
      L1  H     8    32       P1  7948  0.97
      L1  H    11    33       P1  7948  0.95
      L1  H    22    45       P1  8028  0.97

> <Gold.Chemscore.Hbond.Weighted>
-9.1079

> <Gold.Chemscore.Metal.Weighted>
-0.0000

> <Gold.Chemscore.Lipo.Weighted>
-11.5632

> <Gold.Chemscore.Internal_Hbond.Weighted>
0.0000

> <Gold.Chemscore.DEClash.Weighted>
0.6099

> <Gold.Chemscore.DEInternal.Weighted>
2.0248

> <Gold.Chemscore.Rot.Weighted>
4.7054

> <Gold.Chemscore.Internal.Correction.Weighted>
   9.000000E+99

> <Gold.Protein.RotatedTorsions>
[ 6907 6896 6895 6894 ] final -148.66 input  -60.11 | X-H torsion
[ 7974 7965 7964 7962 ] final  -17.40 input  175.53 | X-H torsion
[ 8008 7997 7996 7995 ] final   98.56 input   59.86 | X-H torsion
[ 10167 10162 10161 10158 ] final    6.33 input  -65.29 | X-H torsion
[ 10718 10713 10712 10709 ] final -102.98 input   66.30 | X-H torsion
[ 10763 10752 10751 10750 ] final -170.63 input  -60.55 | X-H torsion
[ 11005 11000 10999 10996 ] final -100.12 input  -57.11 | X-H torsion

> <Gold.Protein.ActiveResidues>
 VAL166  LYS551  ARG553  GLY616  TRP617  ASP618  TYR619  PRO620  LYS621  CYS622 
 ASP623  PHE694  ASN695  SER759  ASP760  ASP761  ALA762  ILE779  LEU786  VAL792 
 PHE793  MET794  SER795  GLU796  ALA797  LYS798  CYS799  TRP800  GLU811  SER814 

> <Gold.Protein.RotatedAtoms>
  151.1730  133.4772  159.2593 H   0  0  0  0  0  0  0  0  0  0  0  0  # atno 6907 bound_to 6896
  151.1337  135.0143  159.8604 H   0  0  0  0  0  0  0  0  0  0  0  0  # atno 6908 bound_to 6896
  152.5460  134.1630  159.8619 H   0  0  0  0  0  0  0  0  0  0  0  0  # atno 6909 bound_to 6896
  146.1943  140.3773  142.8446 H   0  0  0  0  0  0  0  0  0  0  0  0  # atno 7974 bound_to 7965
  156.1016  140.3242  155.7950 H   0  0  0  0  0  0  0  0  0  0  0  0  # atno 8008 bound_to 7997
  155.4826  140.0555  157.2982 H   0  0  0  0  0  0  0  0  0  0  0  0  # atno 8009 bound_to 7997
  154.4701  140.2007  156.0033 H   0  0  0  0  0  0  0  0  0  0  0  0  # atno 8010 bound_to 7997
  140.6434  143.7720  150.7462 H   0  0  0  0  0  0  0  0  0  0  0  0  # atno 10167 bound_to 10162
  156.0248  130.5445  150.7187 H   0  0  0  0  0  0  0  0  0  0  0  0  # atno 10718 bound_to 10713
  154.6394  135.2896  155.0122 H   0  0  0  0  0  0  0  0  0  0  0  0  # atno 10763 bound_to 10752
  154.1254  135.6541  153.4915 H   0  0  0  0  0  0  0  0  0  0  0  0  # atno 10764 bound_to 10752
  153.0319  135.5297  154.7254 H   0  0  0  0  0  0  0  0  0  0  0  0  # atno 10765 bound_to 10752
  141.1283  133.8374  157.1061 H   0  0  0  0  0  0  0  0  0  0  0  0  # atno 11005 bound_to 11000
  144.8548  140.7054  143.6145 LP  0  0  0  0  0  0  0  0  0  0  0  0  # atno 17320 bound_to 7965
  145.3694  139.1662  143.4340 LP  0  0  0  0  0  0  0  0  0  0  0  0  # atno 17321 bound_to 7965
  140.1357  143.4486  152.2226 LP  0  0  0  0  0  0  0  0  0  0  0  0  # atno 17342 bound_to 10162
  139.5643  144.7425  151.4065 LP  0  0  0  0  0  0  0  0  0  0  0  0  # atno 17343 bound_to 10162
  157.4807  131.0902  151.0539 LP  0  0  0  0  0  0  0  0  0  0  0  0  # atno 17370 bound_to 10713
  157.0973  130.5967  149.5452 LP  0  0  0  0  0  0  0  0  0  0  0  0  # atno 17371 bound_to 10713
  140.0303  134.9904  157.0768 LP  0  0  0  0  0  0  0  0  0  0  0  0  # atno 17394 bound_to 11000
  140.4295  134.1795  155.7167 LP  0  0  0  0  0  0  0  0  0  0  0  0  # atno 17395 bound_to 11000

$$$$
