AV-unprocessed.smi:2807|AV-procd|sdf|10820|dock8
  -GOLD-   2272015253D 1   1.00000     0.00000
 Structure written by MMmdl.
 31 32  0  0  0  0  0  0  0  0  2 V2000
  153.5510  136.8791  156.7723 O   0  0  0  0  0  0  0  0  0  0  0  0
  153.1188  138.0182  156.9854 C   0  0  0  0  0  0  0  0  0  0  0  0
  153.0677  139.1005  156.1568 N   0  5  0  0  0  0  0  0  0  0  0  0
  152.0784  139.2706  155.0934 C   0  0  2  0  0  0  0  0  0  0  0  0
  151.0126  140.3094  155.4672 C   0  0  0  0  0  0  0  0  0  0  0  0
  149.7574  139.9218  154.6672 C   0  0  0  0  0  0  0  0  0  0  0  0
  149.9771  138.4801  154.1790 C   0  0  0  0  0  0  0  0  0  0  0  0
  151.2503  137.9981  154.8866 C   0  0  1  0  0  0  0  0  0  0  0  0
  151.9465  137.0332  154.1261 O   0  0  0  0  0  0  0  0  0  0  0  0
  152.5649  138.3392  158.3898 C   0  0  0  0  0  0  0  0  0  0  0  0
  151.2421  138.5294  158.3293 F   0  0  0  0  0  0  0  0  0  0  0  0
  152.7796  137.2891  159.1864 F   0  0  0  0  0  0  0  0  0  0  0  0
  153.2721  139.5599  158.9769 C   0  0  0  0  0  0  0  0  0  0  0  0
  152.5351  140.7072  159.3505 C   0  0  0  0  0  0  0  0  0  0  0  0
  153.2232  141.8012  159.9087 C   0  0  0  0  0  0  0  0  0  0  0  0
  154.6183  141.7129  160.0736 C   0  0  0  0  0  0  0  0  0  0  0  0
  155.2653  140.5279  159.6711 C   0  0  0  0  0  0  0  0  0  0  0  0
  154.6151  139.4743  159.1339 N   0  0  0  0  0  0  0  0  0  0  0  0
  152.5271  139.5579  154.1403 H   0  0  0  0  0  0  0  0  0  0  0  0
  150.7855  140.2539  156.5334 H   0  0  0  0  0  0  0  0  0  0  0  0
  151.3394  141.3284  155.2574 H   0  0  0  0  0  0  0  0  0  0  0  0
  148.8670  139.9963  155.2925 H   0  0  0  0  0  0  0  0  0  0  0  0
  149.6111  140.5908  153.8176 H   0  0  0  0  0  0  0  0  0  0  0  0
  149.1250  137.8358  154.3977 H   0  0  0  0  0  0  0  0  0  0  0  0
  150.1079  138.4805  153.0943 H   0  0  0  0  0  0  0  0  0  0  0  0
  150.9810  137.5645  155.8516 H   0  0  0  0  0  0  0  0  0  0  0  0
  151.5308  136.9835  153.2783 H   0  0  0  0  0  0  0  0  0  0  0  0
  151.4634  140.7423  159.2212 H   0  0  0  0  0  0  0  0  0  0  0  0
  152.6894  142.6909  160.2080 H   0  0  0  0  0  0  0  0  0  0  0  0
  155.1787  142.5316  160.5001 H   0  0  0  0  0  0  0  0  0  0  0  0
  156.3343  140.4241  159.7835 H   0  0  0  0  0  0  0  0  0  0  0  0
  1  2  2  0  0  0  0
  2  3  1  0  0  0  0
  2 10  1  0  0  0  0
  3  4  1  0  0  0  0
  4  8  1  0  0  0  0
  4  5  1  0  0  0  0
  4 19  1  0  0  0  0
  5  6  1  0  0  0  0
  5 20  1  0  0  0  0
  5 21  1  0  0  0  0
  6  7  1  0  0  0  0
  6 22  1  0  0  0  0
  6 23  1  0  0  0  0
  7  8  1  0  0  0  0
  7 24  1  0  0  0  0
  7 25  1  0  0  0  0
  8  9  1  0  0  0  0
  8 26  1  0  0  0  0
  9 27  1  0  0  0  0
 10 11  1  0  0  0  0
 10 12  1  0  0  0  0
 10 13  1  0  0  0  0
 13 18  1  0  0  0  0
 13 14  2  0  0  0  0
 14 15  1  0  0  0  0
 14 28  1  0  0  0  0
 15 16  2  0  0  0  0
 15 29  1  0  0  0  0
 16 17  1  0  0  0  0
 16 30  1  0  0  0  0
 17 18  2  0  0  0  0
 17 31  1  0  0  0  0
M  CHG  1   3  -1
M  END
> <s_m_source_file>
AV-unprocessed.smi

> <i_m_source_file_index>
2807

> <i_lp_mmshare_version>
43012

> <i_f3d_flags>
0

> <s_epik_input>
bjFbY0hdW2NIXVtjSF1bY0hdYzFDKEYpKEYpQyg9TylbTkhdW0NAQEhdMltDSDJdW0NIMl1bQ0gyXVtDQEhdMltPSF0=

> <s_epik_cmdline>
J2VwaWtfcHl0aG9uJywgJy1waCcsICc3LjAnLCAnLXRuJywgJzgnLCAnLW1hJywgJzIwMCcsICctbWV0YWxfYmluZGluZycsICctaW1hZScsICc8aW5maWxlLm1hZT4nLCAnLW9tYWUnLCAnPG91dGZpbGUubWFlPic=

> <r_lp_tautomer_probability>
1

> <r_epik_Ionization_Penalty>
5.72231

> <r_epik_Ionization_Penalty_Charging>
5.72231

> <r_epik_Ionization_Penalty_Neutral>
5.49816e-06

> <r_epik_State_Penalty>
5.72227

> <r_epik_Charging_Adjusted_Penalty>
11.4446

> <i_epik_Tot_Q>
-1

> <i_epik_Tot_abs_Q>
1

> <r_epik_Metal_State_Penalty>
1.70075

> <b_epik_Metal_Only>
1

> <s_lp_Force_Field>
OPLS_2005

> <r_lp_Energy>
34.3832

> <b_lp_Chiralities_Consistent>
1

> <s_lp_Variant>
AV-unprocessed.smi:2807-5

> <Gold.Version>
5.8.1

> <Gold.Id.Protein>
6NUR|6NUR_protein|mol2

> <Gold.PLP.Fitness>
46.4492

> <Gold.PLP.PLP>
-34.9894

> <Gold.PLP.part.hbond>
-5.0000

> <Gold.PLP.part.metal>
0.0000

> <Gold.PLP.part.buried>
-1.6211

> <Gold.PLP.part.nonpolar>
-29.0425

> <Gold.PLP.part.repulsive>
0.0000

> <Gold.PLP.ligand.clash>
0.6945

> <Gold.PLP.ligand.torsion>
0.9821

> <Gold.PLP.Chemscore.Hbond>
4.6893

> <Gold.PLP.Chemscore.CHOScore>
0.0000

> <Gold.PLP.Chemscore.Metal>
0.0000

> <Gold.Chemscore.Hbonds>
donor molecule, donor type, donor heavy atom, donor atom, acceptor molecule, acceptor atom, score
      L1  H     9    27       P1  7949  0.88
      P1  H  7997  8009       L1    18  0.01
      P1  H  7997  8010       L1     3  2.00
      P1  H 10752 10764       L1     9  0.79
      P1  H 10752 10765       L1     1  0.73

> <Gold.PLP.Chemscore.Internal.Correction>
0.0508

> <Gold.Rescore>
     Score         DG    S(hbond)    S(metal)    S(lipo)     H(rot)  DE(clash)    DE(int)     intcor
     18.66     -20.15       3.10        0.00      80.51       2.00       0.55       0.94       ----

> <Gold.Chemscore.Fitness>
18.6585

> <Gold.Chemscore.DG>
-20.1509

> <Gold.Chemscore.ZeroCoef>
-5.4800

> <Gold.Chemscore.Hbond>
3.1023

> <Gold.Chemscore.Metal>
0.0000

> <Gold.Chemscore.Lipo>
80.5140

> <Gold.Chemscore.Internal_Hbond>
0.0000

> <Gold.Chemscore.DEClash>
0.5501

> <Gold.Chemscore.DEInternal>
0.9423

> <Gold.Chemscore.Rot>
1.9964

> <Gold.Chemscore.Internal.Correction>
   9.000000E+99

> <Gold.Chemscore.Hbonds>
donor molecule, donor type, donor heavy atom, donor atom, acceptor molecule, acceptor atom, score
      L1  H     9    27       P1  7949  0.74
      P1  H  7997  8010       L1     3  0.74
      P1  H 10752 10764       L1     9  0.15
      P1  H 10752 10765       L1     1  0.68

> <Gold.Chemscore.Hbond.Weighted>
-10.3615

> <Gold.Chemscore.Metal.Weighted>
-0.0000

> <Gold.Chemscore.Lipo.Weighted>
-9.4201

> <Gold.Chemscore.Internal_Hbond.Weighted>
0.0000

> <Gold.Chemscore.DEClash.Weighted>
0.5501

> <Gold.Chemscore.DEInternal.Weighted>
0.9423

> <Gold.Chemscore.Rot.Weighted>
5.1108

> <Gold.Chemscore.Internal.Correction.Weighted>
   9.000000E+99

> <Gold.Protein.RotatedTorsions>
[ 6907 6896 6895 6894 ] final  -83.38 input  -60.11 | X-H torsion
[ 7974 7965 7964 7962 ] final  -31.91 input  175.53 | X-H torsion
[ 8008 7997 7996 7995 ] final   71.63 input   59.86 | X-H torsion
[ 10167 10162 10161 10158 ] final -102.27 input  -65.29 | X-H torsion
[ 10718 10713 10712 10709 ] final -174.00 input   66.30 | X-H torsion
[ 10763 10752 10751 10750 ] final -102.56 input  -60.55 | X-H torsion
[ 11005 11000 10999 10996 ] final  132.97 input  -57.11 | X-H torsion

> <Gold.Protein.ActiveResidues>
 VAL166  LYS551  ARG553  GLY616  TRP617  ASP618  TYR619  PRO620  LYS621  CYS622 
 ASP623  PHE694  ASN695  SER759  ASP760  ASP761  ALA762  ILE779  LEU786  VAL792 
 PHE793  MET794  SER795  GLU796  ALA797  LYS798  CYS799  TRP800  GLU811  SER814 

> <Gold.Protein.RotatedAtoms>
  150.6886  134.3520  159.4912 H   0  0  0  0  0  0  0  0  0  0  0  0  # atno 6907 bound_to 6896
  152.1360  134.9096  160.0565 H   0  0  0  0  0  0  0  0  0  0  0  0  # atno 6908 bound_to 6896
  152.0248  133.3878  159.4310 H   0  0  0  0  0  0  0  0  0  0  0  0  # atno 6909 bound_to 6896
  146.1031  140.5726  142.8812 H   0  0  0  0  0  0  0  0  0  0  0  0  # atno 7974 bound_to 7965
  155.7567  140.3487  155.5177 H   0  0  0  0  0  0  0  0  0  0  0  0  # atno 8008 bound_to 7997
  155.8953  140.1025  157.1410 H   0  0  0  0  0  0  0  0  0  0  0  0  # atno 8009 bound_to 7997
  154.4038  140.1296  156.4354 H   0  0  0  0  0  0  0  0  0  0  0  0  # atno 8010 bound_to 7997
  140.2324  143.3597  152.0875 H   0  0  0  0  0  0  0  0  0  0  0  0  # atno 10167 bound_to 10162
  156.7786  130.9475  151.3120 H   0  0  0  0  0  0  0  0  0  0  0  0  # atno 10718 bound_to 10713
  154.7743  135.4856  153.9712 H   0  0  0  0  0  0  0  0  0  0  0  0  # atno 10763 bound_to 10752
  153.1408  135.6772  153.9038 H   0  0  0  0  0  0  0  0  0  0  0  0  # atno 10764 bound_to 10752
  153.8712  135.3143  155.3420 H   0  0  0  0  0  0  0  0  0  0  0  0  # atno 10765 bound_to 10752
  139.9822  134.9544  156.9658 H   0  0  0  0  0  0  0  0  0  0  0  0  # atno 11005 bound_to 11000
  144.7449  140.5041  143.6843 LP  0  0  0  0  0  0  0  0  0  0  0  0  # atno 17320 bound_to 7965
  145.5814  139.1489  143.3233 LP  0  0  0  0  0  0  0  0  0  0  0  0  # atno 17321 bound_to 7965
  139.5105  144.6885  151.5822 LP  0  0  0  0  0  0  0  0  0  0  0  0  # atno 17342 bound_to 10162
  140.6175  143.9321  150.6500 LP  0  0  0  0  0  0  0  0  0  0  0  0  # atno 17343 bound_to 10162
  157.6657  130.9005  149.9926 LP  0  0  0  0  0  0  0  0  0  0  0  0  # atno 17370 bound_to 10713
  156.1232  130.3645  149.9853 LP  0  0  0  0  0  0  0  0  0  0  0  0  # atno 17371 bound_to 10713
  140.5073  134.1037  155.7263 LP  0  0  0  0  0  0  0  0  0  0  0  0  # atno 17394 bound_to 11000
  141.1493  133.8998  157.2138 LP  0  0  0  0  0  0  0  0  0  0  0  0  # atno 17395 bound_to 11000

$$$$
