AV-unprocessed.smi:763|AV-procd|sdf|3639|dock6
  -GOLD-   22720 1 43D 1   1.00000     0.00000
 Structure written by MMmdl.
 43 44  0  0  0  0  0  0  0  0  2 V2000
  152.2418  145.1914  158.6421 C   0  0  0  0  0  0  0  0  0  0  0  0
  151.7957  144.2818  159.6320 O   0  0  0  0  0  0  0  0  0  0  0  0
  151.7750  142.9419  159.1680 C   0  0  0  0  0  0  0  0  0  0  0  0
  152.5641  142.0602  160.1403 C   0  0  0  0  0  0  0  0  0  0  0  0
  152.9526  140.8721  159.4591 O   0  0  0  0  0  0  0  0  0  0  0  0
  153.8839  140.0356  160.0466 C   0  0  0  0  0  0  0  0  0  0  0  0
  154.4143  140.4113  161.2386 N   0  0  0  0  0  0  0  0  0  0  0  0
  155.3224  139.6047  161.8208 C   0  0  0  0  0  0  0  0  0  0  0  0
  155.7474  138.3936  161.2508 C   0  0  0  0  0  0  0  0  0  0  0  0
  155.1948  138.0092  160.0161 C   0  0  0  0  0  0  0  0  0  0  0  0
  154.2354  138.8348  159.3795 C   0  0  0  0  0  0  0  0  0  0  0  0
  153.6647  138.5240  158.2029 N   0  5  0  0  0  0  0  0  0  0  0  0
  152.5488  137.3802  157.9470 S   0  0  0  0  0  0  0  0  0  0  0  0
  152.9352  136.4969  156.8354 O   0  0  0  0  0  0  0  0  0  0  0  0
  152.1579  136.7250  159.2041 O   0  0  0  0  0  0  0  0  0  0  0  0
  151.1122  138.4262  157.3521 C   0  0  1  0  0  0  0  0  0  0  0  0
  151.5319  139.3467  156.1863 C   0  0  0  0  0  0  0  0  0  0  0  0
  151.7386  138.5634  154.8786 C   0  0  0  0  0  0  0  0  0  0  0  0
  150.4593  137.8079  154.4846 C   0  0  0  0  0  0  0  0  0  0  0  0
  149.9875  136.8710  155.6083 C   0  0  0  0  0  0  0  0  0  0  0  0
  149.8468  137.6241  156.9482 C   0  0  1  0  0  0  0  0  0  0  0  0
  149.4392  136.7390  157.9716 O   0  0  0  0  0  0  0  0  0  0  0  0
  152.2436  146.2028  159.0480 H   0  0  0  0  0  0  0  0  0  0  0  0
  151.5838  145.1794  157.7719 H   0  0  0  0  0  0  0  0  0  0  0  0
  153.2564  144.9567  158.3178 H   0  0  0  0  0  0  0  0  0  0  0  0
  150.7518  142.5761  159.0683 H   0  0  0  0  0  0  0  0  0  0  0  0
  152.2365  142.8990  158.1802 H   0  0  0  0  0  0  0  0  0  0  0  0
  153.4540  142.5991  160.4689 H   0  0  0  0  0  0  0  0  0  0  0  0
  151.9610  141.8347  161.0215 H   0  0  0  0  0  0  0  0  0  0  0  0
  155.7219  139.9346  162.7684 H   0  0  0  0  0  0  0  0  0  0  0  0
  156.4783  137.7730  161.7471 H   0  0  0  0  0  0  0  0  0  0  0  0
  155.5175  137.0795  159.5716 H   0  0  0  0  0  0  0  0  0  0  0  0
  150.8539  139.0772  158.1879 H   0  0  0  0  0  0  0  0  0  0  0  0
  150.7559  140.0966  156.0282 H   0  0  0  0  0  0  0  0  0  0  0  0
  152.4317  139.9068  156.4404 H   0  0  0  0  0  0  0  0  0  0  0  0
  152.0230  139.2483  154.0796 H   0  0  0  0  0  0  0  0  0  0  0  0
  152.5637  137.8589  154.9887 H   0  0  0  0  0  0  0  0  0  0  0  0
  149.6708  138.5259  154.2560 H   0  0  0  0  0  0  0  0  0  0  0  0
  150.6302  137.2360  153.5724 H   0  0  0  0  0  0  0  0  0  0  0  0
  149.0289  136.4299  155.3329 H   0  0  0  0  0  0  0  0  0  0  0  0
  150.6802  136.0364  155.6946 H   0  0  0  0  0  0  0  0  0  0  0  0
  149.0332  138.3413  156.8332 H   0  0  0  0  0  0  0  0  0  0  0  0
  149.9683  135.9573  157.9224 H   0  0  0  0  0  0  0  0  0  0  0  0
  1  2  1  0  0  0  0
  1 23  1  0  0  0  0
  1 24  1  0  0  0  0
  1 25  1  0  0  0  0
  2  3  1  0  0  0  0
  3  4  1  0  0  0  0
  3 26  1  0  0  0  0
  3 27  1  0  0  0  0
  4  5  1  0  0  0  0
  4 28  1  0  0  0  0
  4 29  1  0  0  0  0
  5  6  1  0  0  0  0
  6 11  1  0  0  0  0
  6  7  2  0  0  0  0
  7  8  1  0  0  0  0
  8  9  2  0  0  0  0
  8 30  1  0  0  0  0
  9 10  1  0  0  0  0
  9 31  1  0  0  0  0
 10 11  2  0  0  0  0
 10 32  1  0  0  0  0
 11 12  1  0  0  0  0
 12 13  1  0  0  0  0
 13 14  2  0  0  0  0
 13 15  2  0  0  0  0
 13 16  1  0  0  0  0
 16 21  1  0  0  0  0
 16 17  1  0  0  0  0
 16 33  1  0  0  0  0
 17 18  1  0  0  0  0
 17 34  1  0  0  0  0
 17 35  1  0  0  0  0
 18 19  1  0  0  0  0
 18 36  1  0  0  0  0
 18 37  1  0  0  0  0
 19 20  1  0  0  0  0
 19 38  1  0  0  0  0
 19 39  1  0  0  0  0
 20 21  1  0  0  0  0
 20 40  1  0  0  0  0
 20 41  1  0  0  0  0
 21 22  1  0  0  0  0
 21 42  1  0  0  0  0
 22 43  1  0  0  0  0
M  CHG  1  12  -1
M  END
> <s_m_source_file>
AV-unprocessed.smi

> <i_m_source_file_index>
763

> <i_lp_mmshare_version>
43012

> <i_f3d_flags>
0

> <s_epik_input>
W0NIM11PW0NIMl1bQ0gyXU9jMW5bY0hdW2NIXVtjSF1jMVtOSF1TKD1PKSg9TylbQ0BASF0yW0NIMl1bQ0gyXVtDSDJdW0NIMl1bQ0BIXTJbT0hd

> <s_epik_cmdline>
J2VwaWtfcHl0aG9uJywgJy1waCcsICc3LjAnLCAnLXRuJywgJzgnLCAnLW1hJywgJzIwMCcsICctbWV0YWxfYmluZGluZycsICctaW1hZScsICc8aW5maWxlLm1hZT4nLCAnLW9tYWUnLCAnPG91dGZpbGUubWFlPic=

> <r_epik_Ionization_Penalty>
0.985866

> <r_epik_Ionization_Penalty_Charging>
0.984689

> <r_epik_Ionization_Penalty_Neutral>
0.00117669

> <r_epik_State_Penalty>
1.03185

> <r_epik_Charging_Adjusted_Penalty>
2.01654

> <i_epik_Tot_Q>
-1

> <i_epik_Tot_abs_Q>
1

> <r_epik_Metal_State_Penalty>
0.379327

> <b_epik_Metal_Only>
0

> <s_lp_Force_Field>
OPLS_2005

> <r_lp_Energy>
9.05773

> <b_lp_Chiralities_Consistent>
1

> <s_lp_Variant>
AV-unprocessed.smi:763-6

> <Gold.Version>
5.8.1

> <Gold.Id.Protein>
6NUR|6NUR_protein|mol2

> <Gold.PLP.Fitness>
43.8323

> <Gold.PLP.PLP>
-34.6167

> <Gold.PLP.part.hbond>
-3.0000

> <Gold.PLP.part.metal>
0.0000

> <Gold.PLP.part.buried>
-6.5591

> <Gold.PLP.part.nonpolar>
-26.0193

> <Gold.PLP.part.repulsive>
0.0429

> <Gold.PLP.ligand.clash>
0.0000

> <Gold.PLP.ligand.torsion>
1.8155

> <Gold.PLP.Chemscore.Hbond>
3.8880

> <Gold.PLP.Chemscore.CHOScore>
0.0000

> <Gold.PLP.Chemscore.Metal>
0.0000

> <Gold.Chemscore.Hbonds>
donor molecule, donor type, donor heavy atom, donor atom, acceptor molecule, acceptor atom, score
      P1  H  6896  6908       L1    15  0.99
      P1  H  7997  8008       L1    12  1.42
      P1  H 10752 10763       L1    14  1.00

> <Gold.PLP.Chemscore.Internal.Correction>
1.1827

> <Gold.Rescore>
     Score         DG    S(hbond)    S(metal)    S(lipo)     H(rot)  DE(clash)    DE(int)     intcor
     17.34     -19.23       2.57        0.00      95.61       2.35       0.00       1.88       ----

> <Gold.Chemscore.Fitness>
17.3419

> <Gold.Chemscore.DG>
-19.2283

> <Gold.Chemscore.ZeroCoef>
-5.4800

> <Gold.Chemscore.Hbond>
2.5691

> <Gold.Chemscore.Metal>
0.0000

> <Gold.Chemscore.Lipo>
95.6052

> <Gold.Chemscore.Internal_Hbond>
0.0000

> <Gold.Chemscore.DEClash>
0.0038

> <Gold.Chemscore.DEInternal>
1.8826

> <Gold.Chemscore.Rot>
2.3509

> <Gold.Chemscore.Internal.Correction>
   9.000000E+99

> <Gold.Chemscore.Hbonds>
donor molecule, donor type, donor heavy atom, donor atom, acceptor molecule, acceptor atom, score
      P1  H  6896  6908       L1    15  0.94
      P1  H  7997  8008       L1    12  0.16
      P1  H 10752 10763       L1    14  0.97

> <Gold.Chemscore.Hbond.Weighted>
-8.5808

> <Gold.Chemscore.Metal.Weighted>
-0.0000

> <Gold.Chemscore.Lipo.Weighted>
-11.1858

> <Gold.Chemscore.Internal_Hbond.Weighted>
0.0000

> <Gold.Chemscore.DEClash.Weighted>
0.0038

> <Gold.Chemscore.DEInternal.Weighted>
1.8826

> <Gold.Chemscore.Rot.Weighted>
6.0182

> <Gold.Chemscore.Internal.Correction.Weighted>
   9.000000E+99

> <Gold.Protein.RotatedTorsions>
[ 6907 6896 6895 6894 ] final -107.60 input  -60.11 | X-H torsion
[ 7974 7965 7964 7962 ] final  -16.52 input  175.53 | X-H torsion
[ 8008 7997 7996 7995 ] final  -82.15 input   59.86 | X-H torsion
[ 10167 10162 10161 10158 ] final   -4.94 input  -65.29 | X-H torsion
[ 10718 10713 10712 10709 ] final -175.29 input   66.30 | X-H torsion
[ 10763 10752 10751 10750 ] final  119.38 input  -60.55 | X-H torsion
[ 11005 11000 10999 10996 ] final -117.16 input  -57.11 | X-H torsion

> <Gold.Protein.ActiveResidues>
 VAL166  LYS551  ARG553  GLY616  TRP617  ASP618  TYR619  PRO620  LYS621  CYS622 
 ASP623  PHE694  ASN695  SER759  ASP760  ASP761  ALA762  ILE779  LEU786  VAL792 
 PHE793  MET794  SER795  GLU796  ALA797  LYS798  CYS799  TRP800  GLU811  SER814 

> <Gold.Protein.RotatedAtoms>
  150.7453  133.9802  159.3573 H   0  0  0  0  0  0  0  0  0  0  0  0  # atno 6907 bound_to 6896
  151.7742  135.0776  160.0374 H   0  0  0  0  0  0  0  0  0  0  0  0  # atno 6908 bound_to 6896
  152.3318  133.5930  159.5851 H   0  0  0  0  0  0  0  0  0  0  0  0  # atno 6909 bound_to 6896
  146.1984  140.3648  142.8432 H   0  0  0  0  0  0  0  0  0  0  0  0  # atno 7974 bound_to 7965
  154.6056  140.0637  156.9426 H   0  0  0  0  0  0  0  0  0  0  0  0  # atno 8008 bound_to 7997
  155.2059  140.3318  155.4318 H   0  0  0  0  0  0  0  0  0  0  0  0  # atno 8009 bound_to 7997
  156.2345  140.1856  156.7138 H   0  0  0  0  0  0  0  0  0  0  0  0  # atno 8010 bound_to 7997
  140.6946  143.6365  150.8474 H   0  0  0  0  0  0  0  0  0  0  0  0  # atno 10167 bound_to 10162
  156.7977  130.9541  151.3119 H   0  0  0  0  0  0  0  0  0  0  0  0  # atno 10718 bound_to 10713
  153.5821  135.3482  155.2878 H   0  0  0  0  0  0  0  0  0  0  0  0  # atno 10763 bound_to 10752
  154.8666  135.4184  154.2609 H   0  0  0  0  0  0  0  0  0  0  0  0  # atno 10764 bound_to 10752
  153.3398  135.7049  153.6947 H   0  0  0  0  0  0  0  0  0  0  0  0  # atno 10765 bound_to 10752
  141.0374  133.9889  157.3049 H   0  0  0  0  0  0  0  0  0  0  0  0  # atno 11005 bound_to 11000
  144.8629  140.7165  143.6096 LP  0  0  0  0  0  0  0  0  0  0  0  0  # atno 17320 bound_to 7965
  145.3568  139.1692  143.4405 LP  0  0  0  0  0  0  0  0  0  0  0  0  # atno 17321 bound_to 7965
  140.0082  143.5671  152.2849 LP  0  0  0  0  0  0  0  0  0  0  0  0  # atno 17342 bound_to 10162
  139.6385  144.7652  151.2387 LP  0  0  0  0  0  0  0  0  0  0  0  0  # atno 17343 bound_to 10162
  157.6569  130.8932  149.9748 LP  0  0  0  0  0  0  0  0  0  0  0  0  # atno 17370 bound_to 10713
  156.1120  130.3649  150.0033 LP  0  0  0  0  0  0  0  0  0  0  0  0  # atno 17371 bound_to 10713
  139.9250  135.0201  156.8203 LP  0  0  0  0  0  0  0  0  0  0  0  0  # atno 17394 bound_to 11000
  140.6298  133.9917  155.7656 LP  0  0  0  0  0  0  0  0  0  0  0  0  # atno 17395 bound_to 11000

$$$$
