AV-unprocessed.smi:2489|AV-procd|sdf|9798|dock8
  -GOLD-   2272013433D 1   1.00000     0.00000
 Structure written by MMmdl.
 33 34  0  0  0  0  0  0  0  0  1 V2000
  153.5608  141.7797  161.2892 C   0  0  0  0  0  0  0  0  0  0  0  0
  152.8201  141.3592  160.1530 O   0  0  0  0  0  0  0  0  0  0  0  0
  152.4107  142.3244  159.2588 C   0  0  0  0  0  0  0  0  0  0  0  0
  152.7013  143.7040  159.3789 C   0  0  0  0  0  0  0  0  0  0  0  0
  152.2183  144.5792  158.3889 C   0  0  0  0  0  0  0  0  0  0  0  0
  151.4913  144.1707  157.3293 N   0  0  0  0  0  0  0  0  0  0  0  0
  151.2029  142.8532  157.1982 C   0  0  0  0  0  0  0  0  0  0  0  0
  150.4439  142.3152  156.1256 N   0  0  0  0  0  0  0  0  0  0  0  0
  150.4298  141.0517  155.6584 C   0  0  0  0  0  0  0  0  0  0  0  0
  151.1266  140.1397  156.1047 O   0  0  0  0  0  0  0  0  0  0  0  0
  149.4909  140.7695  154.4715 C   0  0  1  0  0  0  0  0  0  0  0  0
  148.4145  139.7081  154.7782 C   0  0  0  0  0  0  0  0  0  0  0  0
  147.1031  140.4117  154.4779 C   0  0  0  0  0  0  0  0  0  0  0  0
  147.4615  141.8796  154.6736 C   0  0  2  0  0  0  0  0  0  0  0  0
  146.5185  142.8586  153.9667 C   0  0  0  0  0  0  0  0  0  0  0  0
  148.7655  141.9500  154.1175 O   0  0  0  0  0  0  0  0  0  0  0  0
  151.6497  141.9075  158.1477 C   0  0  0  0  0  0  0  0  0  0  0  0
  153.8104  140.9109  161.8980 H   0  0  0  0  0  0  0  0  0  0  0  0
  152.9818  142.4633  161.9118 H   0  0  0  0  0  0  0  0  0  0  0  0
  154.4967  142.2595  160.9998 H   0  0  0  0  0  0  0  0  0  0  0  0
  153.2772  144.1049  160.1991 H   0  0  0  0  0  0  0  0  0  0  0  0
  152.4214  145.6380  158.4497 H   0  0  0  0  0  0  0  0  0  0  0  0
  149.8245  142.9632  155.6608 H   0  0  0  0  0  0  0  0  0  0  0  0
  150.0969  140.4689  153.6164 H   0  0  0  0  0  0  0  0  0  0  0  0
  148.5373  138.8116  154.1698 H   0  0  0  0  0  0  0  0  0  0  0  0
  148.4302  139.3976  155.8242 H   0  0  0  0  0  0  0  0  0  0  0  0
  146.8158  140.2273  153.4417 H   0  0  0  0  0  0  0  0  0  0  0  0
  146.2857  140.0832  155.1205 H   0  0  0  0  0  0  0  0  0  0  0  0
  147.5174  142.1127  155.7385 H   0  0  0  0  0  0  0  0  0  0  0  0
  145.5076  142.7861  154.3680 H   0  0  0  0  0  0  0  0  0  0  0  0
  146.4700  142.6588  152.8957 H   0  0  0  0  0  0  0  0  0  0  0  0
  146.8566  143.8865  154.0986 H   0  0  0  0  0  0  0  0  0  0  0  0
  151.4115  140.8603  158.0283 H   0  0  0  0  0  0  0  0  0  0  0  0
  1  2  1  0  0  0  0
  1 18  1  0  0  0  0
  1 19  1  0  0  0  0
  1 20  1  0  0  0  0
  2  3  1  0  0  0  0
  3 17  1  0  0  0  0
  3  4  2  0  0  0  0
  4  5  1  0  0  0  0
  4 21  1  0  0  0  0
  5  6  2  0  0  0  0
  5 22  1  0  0  0  0
  6  7  1  0  0  0  0
  7  8  1  0  0  0  0
  7 17  2  0  0  0  0
  8  9  1  0  0  0  0
  8 23  1  0  0  0  0
  9 10  2  0  0  0  0
  9 11  1  0  0  0  0
 11 16  1  0  0  0  0
 11 12  1  0  0  0  0
 11 24  1  0  0  0  0
 12 13  1  0  0  0  0
 12 25  1  0  0  0  0
 12 26  1  0  0  0  0
 13 14  1  0  0  0  0
 13 27  1  0  0  0  0
 13 28  1  0  0  0  0
 14 15  1  0  0  0  0
 14 16  1  0  0  0  0
 14 29  1  0  0  0  0
 15 30  1  0  0  0  0
 15 31  1  0  0  0  0
 15 32  1  0  0  0  0
 17 33  1  0  0  0  0
M  END
> <s_m_source_file>
AV-unprocessed.smi

> <i_m_source_file_index>
2489

> <i_lp_mmshare_version>
43012

> <i_f3d_flags>
0

> <s_epik_input>
W0NIM11PYzFbY0hdW2NIXW5jKFtjSF0xKVtOSF1DKD1PKVtDQEBIXTJbQ0gyXVtDSDJdW0NASF0oTzIpW0NIM10=

> <s_epik_cmdline>
J2VwaWtfcHl0aG9uJywgJy1waCcsICc3LjAnLCAnLXRuJywgJzgnLCAnLW1hJywgJzIwMCcsICctbWV0YWxfYmluZGluZycsICctaW1hZScsICc8aW5maWxlLm1hZT4nLCAnLW9tYWUnLCAnPG91dGZpbGUubWFlPic=

> <r_epik_Ionization_Penalty>
0.0871917

> <r_epik_Ionization_Penalty_Charging>
0

> <r_epik_Ionization_Penalty_Neutral>
0.0871917

> <r_epik_State_Penalty>
0.146479

> <r_epik_Charging_Adjusted_Penalty>
0.146479

> <i_epik_Tot_Q>
0

> <i_epik_Tot_abs_Q>
0

> <r_epik_Metal_State_Penalty>
0.067489

> <b_epik_Metal_Only>
0

> <s_lp_Force_Field>
OPLS_2005

> <r_lp_Energy>
22.8638

> <b_lp_Chiralities_Consistent>
1

> <s_lp_Variant>
AV-unprocessed.smi:2489-4

> <Gold.Version>
5.8.1

> <Gold.Id.Protein>
6NUR|6NUR_protein|mol2

> <Gold.PLP.Fitness>
42.6903

> <Gold.PLP.PLP>
-38.8940

> <Gold.PLP.part.hbond>
-2.0000

> <Gold.PLP.part.metal>
0.0000

> <Gold.PLP.part.buried>
-5.5636

> <Gold.PLP.part.nonpolar>
-32.0621

> <Gold.PLP.part.repulsive>
0.5132

> <Gold.PLP.ligand.clash>
0.0000

> <Gold.PLP.ligand.torsion>
0.1137

> <Gold.PLP.Chemscore.Hbond>
1.3388

> <Gold.PLP.Chemscore.CHOScore>
0.0000

> <Gold.PLP.Chemscore.Metal>
0.0000

> <Gold.Chemscore.Hbonds>
donor molecule, donor type, donor heavy atom, donor atom, acceptor molecule, acceptor atom, score
      L1  H     8    23       P1  8028  0.98
      P1  H  8011  8017       L1    16  0.33

> <Gold.PLP.Chemscore.Internal.Correction>
0.0074

> <Gold.Rescore>
     Score         DG    S(hbond)    S(metal)    S(lipo)     H(rot)  DE(clash)    DE(int)     intcor
     14.34     -15.92       1.05        0.00      86.10       1.23       0.00       1.59       ----

> <Gold.Chemscore.Fitness>
14.3351

> <Gold.Chemscore.DG>
-15.9247

> <Gold.Chemscore.ZeroCoef>
-5.4800

> <Gold.Chemscore.Hbond>
1.0512

> <Gold.Chemscore.Metal>
0.0000

> <Gold.Chemscore.Lipo>
86.0972

> <Gold.Chemscore.Internal_Hbond>
0.0000

> <Gold.Chemscore.DEClash>
0.0000

> <Gold.Chemscore.DEInternal>
1.5896

> <Gold.Chemscore.Rot>
1.2264

> <Gold.Chemscore.Internal.Correction>
   9.000000E+99

> <Gold.Chemscore.Hbonds>
donor molecule, donor type, donor heavy atom, donor atom, acceptor molecule, acceptor atom, score
      L1  H     8    23       P1  8028  0.90
      P1  H  8011  8017       L1    16  0.07

> <Gold.Chemscore.Hbond.Weighted>
-3.5109

> <Gold.Chemscore.Metal.Weighted>
-0.0000

> <Gold.Chemscore.Lipo.Weighted>
-10.0734

> <Gold.Chemscore.Internal_Hbond.Weighted>
0.0000

> <Gold.Chemscore.DEClash.Weighted>
0.0000

> <Gold.Chemscore.DEInternal.Weighted>
1.5896

> <Gold.Chemscore.Rot.Weighted>
3.1396

> <Gold.Chemscore.Internal.Correction.Weighted>
   9.000000E+99

> <Gold.Protein.RotatedTorsions>
[ 6907 6896 6895 6894 ] final  176.93 input  -60.11 | X-H torsion
[ 7974 7965 7964 7962 ] final   52.76 input  175.53 | X-H torsion
[ 8008 7997 7996 7995 ] final   79.74 input   59.86 | X-H torsion
[ 10167 10162 10161 10158 ] final  155.86 input  -65.29 | X-H torsion
[ 10718 10713 10712 10709 ] final  -55.44 input   66.30 | X-H torsion
[ 10763 10752 10751 10750 ] final   24.61 input  -60.55 | X-H torsion
[ 11005 11000 10999 10996 ] final  125.89 input  -57.11 | X-H torsion

> <Gold.Protein.ActiveResidues>
 VAL166  LYS551  ARG553  GLY616  TRP617  ASP618  TYR619  PRO620  LYS621  CYS622 
 ASP623  PHE694  ASN695  SER759  ASP760  ASP761  ALA762  ILE779  LEU786  VAL792 
 PHE793  MET794  SER795  GLU796  ALA797  LYS798  CYS799  TRP800  GLU811  SER814 

> <Gold.Protein.RotatedAtoms>
  151.7122  133.3312  159.3293 H   0  0  0  0  0  0  0  0  0  0  0  0  # atno 6907 bound_to 6896
  150.7689  134.6522  159.6304 H   0  0  0  0  0  0  0  0  0  0  0  0  # atno 6908 bound_to 6896
  152.3704  134.6744  160.0229 H   0  0  0  0  0  0  0  0  0  0  0  0  # atno 6909 bound_to 6896
  145.9780  139.4214  143.0149 H   0  0  0  0  0  0  0  0  0  0  0  0  # atno 7974 bound_to 7965
  155.8738  140.3447  155.5840 H   0  0  0  0  0  0  0  0  0  0  0  0  # atno 8008 bound_to 7997
  155.7797  140.0857  157.2084 H   0  0  0  0  0  0  0  0  0  0  0  0  # atno 8009 bound_to 7997
  154.4019  140.1503  156.3025 H   0  0  0  0  0  0  0  0  0  0  0  0  # atno 8010 bound_to 7997
  139.4821  144.5061  151.8095 H   0  0  0  0  0  0  0  0  0  0  0  0  # atno 10167 bound_to 10162
  156.1368  130.4156  150.0172 H   0  0  0  0  0  0  0  0  0  0  0  0  # atno 10718 bound_to 10713
  153.0751  135.6601  154.0163 H   0  0  0  0  0  0  0  0  0  0  0  0  # atno 10763 bound_to 10752
  153.9798  135.2956  155.3422 H   0  0  0  0  0  0  0  0  0  0  0  0  # atno 10764 bound_to 10752
  154.7137  135.5194  153.8776 H   0  0  0  0  0  0  0  0  0  0  0  0  # atno 10765 bound_to 10752
  139.9428  134.9633  156.8625 H   0  0  0  0  0  0  0  0  0  0  0  0  # atno 11005 bound_to 11000
  145.7810  140.9856  143.1099 LP  0  0  0  0  0  0  0  0  0  0  0  0  # atno 17320 bound_to 7965
  144.6854  139.9564  143.7479 LP  0  0  0  0  0  0  0  0  0  0  0  0  # atno 17321 bound_to 7965
  140.4559  144.1790  150.5901 LP  0  0  0  0  0  0  0  0  0  0  0  0  # atno 17342 bound_to 10162
  140.4536  143.2477  151.9315 LP  0  0  0  0  0  0  0  0  0  0  0  0  # atno 17343 bound_to 10162
  156.8068  130.9310  151.3645 LP  0  0  0  0  0  0  0  0  0  0  0  0  # atno 17370 bound_to 10713
  157.6540  130.8908  149.9690 LP  0  0  0  0  0  0  0  0  0  0  0  0  # atno 17371 bound_to 10713
  140.5908  134.0264  155.7499 LP  0  0  0  0  0  0  0  0  0  0  0  0  # atno 17394 bound_to 11000
  141.1069  133.9679  157.2980 LP  0  0  0  0  0  0  0  0  0  0  0  0  # atno 17395 bound_to 11000

$$$$
