AV-unprocessed.smi:1432|AV-procd|sdf|5834|dock6
  -GOLD-   22720 5493D 1   1.00000     0.00000
 Structure written by MMmdl.
 47 48  0  0  0  0  0  0  0  0  2 V2000
  147.4385  139.3208  152.9711 C   0  0  0  0  0  0  0  0  0  0  0  0
  147.7655  138.5469  154.2655 C   0  0  1  0  0  0  0  0  0  0  0  0
  146.6745  137.4718  154.4812 C   0  0  0  0  0  0  0  0  0  0  0  0
  146.9254  136.6252  155.7324 C   0  0  0  0  0  0  0  0  0  0  0  0
  148.3259  136.0160  155.6630 C   0  0  0  0  0  0  0  0  0  0  0  0
  149.3729  137.1229  155.4887 C   0  0  0  0  0  0  0  0  0  0  0  0
  149.1277  137.9203  154.2540 N   0  3  2  0  0  0  0  0  0  0  0  0
  150.2567  138.8591  153.9862 C   0  0  0  0  0  0  0  0  0  0  0  0
  150.1810  140.1596  154.8163 C   0  0  0  0  0  0  0  0  0  0  0  0
  150.3381  139.9012  156.2456 N   0  0  0  0  0  0  0  0  0  0  0  0
  151.5087  139.7917  156.8922 C   0  0  0  0  0  0  0  0  0  0  0  0
  152.6010  139.8229  156.3254 O   0  0  0  0  0  0  0  0  0  0  0  0
  151.4335  139.6384  158.4161 C   0  0  0  0  0  0  0  0  0  0  0  0
  152.0395  140.7816  159.1200 N   0  0  0  0  0  0  0  0  0  0  0  0
  151.4699  142.0516  158.9023 C   0  0  0  0  0  0  0  0  0  0  0  0
  151.9196  143.1692  159.5053 C   0  0  0  0  0  0  0  0  0  0  0  0
  151.3193  144.5363  159.2162 C   0  0  0  0  0  0  0  0  0  0  0  0
  151.9209  145.4836  159.9359 F   0  0  0  0  0  0  0  0  0  0  0  0
  151.4347  144.8536  157.9260 F   0  0  0  0  0  0  0  0  0  0  0  0
  150.0247  144.5370  159.5301 F   0  0  0  0  0  0  0  0  0  0  0  0
  153.0628  143.0138  160.3828 C   0  0  0  0  0  0  0  0  0  0  0  0
  153.6232  141.8076  160.5982 C   0  0  0  0  0  0  0  0  0  0  0  0
  153.1076  140.5982  159.9539 C   0  0  0  0  0  0  0  0  0  0  0  0
  153.6008  139.4874  160.1533 O   0  0  0  0  0  0  0  0  0  0  0  0
  146.3829  139.5916  152.9369 H   0  0  0  0  0  0  0  0  0  0  0  0
  147.6504  138.7238  152.0837 H   0  0  0  0  0  0  0  0  0  0  0  0
  147.9879  140.2581  152.8938 H   0  0  0  0  0  0  0  0  0  0  0  0
  147.7250  139.2484  155.1006 H   0  0  0  0  0  0  0  0  0  0  0  0
  145.6945  137.9442  154.5605 H   0  0  0  0  0  0  0  0  0  0  0  0
  146.6257  136.8159  153.6112 H   0  0  0  0  0  0  0  0  0  0  0  0
  146.8319  137.2446  156.6256 H   0  0  0  0  0  0  0  0  0  0  0  0
  146.1741  135.8391  155.8146 H   0  0  0  0  0  0  0  0  0  0  0  0
  148.5305  135.4464  156.5702 H   0  0  0  0  0  0  0  0  0  0  0  0
  148.3881  135.3123  154.8311 H   0  0  0  0  0  0  0  0  0  0  0  0
  149.3641  137.7850  156.3560 H   0  0  0  0  0  0  0  0  0  0  0  0
  150.3601  136.6647  155.4627 H   0  0  0  0  0  0  0  0  0  0  0  0
  151.2113  138.4045  154.2361 H   0  0  0  0  0  0  0  0  0  0  0  0
  150.3062  139.0868  152.9205 H   0  0  0  0  0  0  0  0  0  0  0  0
  150.9840  140.8289  154.5072 H   0  0  0  0  0  0  0  0  0  0  0  0
  149.2563  140.7022  154.6164 H   0  0  0  0  0  0  0  0  0  0  0  0
  149.4907  139.8441  156.7925 H   0  0  0  0  0  0  0  0  0  0  0  0
  150.3944  139.5216  158.7313 H   0  0  0  0  0  0  0  0  0  0  0  0
  151.9244  138.7028  158.6875 H   0  0  0  0  0  0  0  0  0  0  0  0
  150.6365  142.0600  158.2147 H   0  0  0  0  0  0  0  0  0  0  0  0
  153.4741  143.8797  160.8806 H   0  0  0  0  0  0  0  0  0  0  0  0
  154.4721  141.7291  161.2614 H   0  0  0  0  0  0  0  0  0  0  0  0
  149.1221  137.2670  153.4831 H   0  0  0  0  0  0  0  0  0  0  0  0
  1  2  1  0  0  0  0
  1 25  1  0  0  0  0
  1 26  1  0  0  0  0
  1 27  1  0  0  0  0
  2  7  1  0  0  0  0
  2  3  1  0  0  0  0
  2 28  1  0  0  0  0
  3  4  1  0  0  0  0
  3 29  1  0  0  0  0
  3 30  1  0  0  0  0
  4  5  1  0  0  0  0
  4 31  1  0  0  0  0
  4 32  1  0  0  0  0
  5  6  1  0  0  0  0
  5 33  1  0  0  0  0
  5 34  1  0  0  0  0
  6  7  1  0  0  0  0
  6 35  1  0  0  0  0
  6 36  1  0  0  0  0
  7  8  1  0  0  0  0
  7 47  1  0  0  0  0
  8  9  1  0  0  0  0
  8 37  1  0  0  0  0
  8 38  1  0  0  0  0
  9 10  1  0  0  0  0
  9 39  1  0  0  0  0
  9 40  1  0  0  0  0
 10 11  1  0  0  0  0
 10 41  1  0  0  0  0
 11 12  2  0  0  0  0
 11 13  1  0  0  0  0
 13 14  1  0  0  0  0
 13 42  1  0  0  0  0
 13 43  1  0  0  0  0
 14 23  1  0  0  0  0
 14 15  1  0  0  0  0
 15 16  2  0  0  0  0
 15 44  1  0  0  0  0
 16 17  1  0  0  0  0
 16 21  1  0  0  0  0
 17 18  1  0  0  0  0
 17 19  1  0  0  0  0
 17 20  1  0  0  0  0
 21 22  2  0  0  0  0
 21 45  1  0  0  0  0
 22 23  1  0  0  0  0
 22 46  1  0  0  0  0
 23 24  2  0  0  0  0
M  CHG  1   7   1
M  END
> <s_m_source_file>
AV-unprocessed.smi

> <i_m_source_file_index>
1432

> <i_lp_mmshare_version>
43012

> <i_f3d_flags>
0

> <s_epik_input>
W0NIM11bQ0BASF0xW0NIMl1bQ0gyXVtDSDJdW0NIMl1OMVtDSDJdW0NIMl1bTkhdQyg9TylbQ0gyXW4yW2NIXWMoQyhGKShGKUYpW2NIXVtjSF1jMj1P

> <s_epik_cmdline>
J2VwaWtfcHl0aG9uJywgJy1waCcsICc3LjAnLCAnLXRuJywgJzgnLCAnLW1hJywgJzIwMCcsICctbWV0YWxfYmluZGluZycsICctaW1hZScsICc8aW5maWxlLm1hZT4nLCAnLW9tYWUnLCAnPG91dGZpbGUubWFlPic=

> <r_lp_tautomer_probability>
1

> <r_epik_Ionization_Penalty>
0.00237222

> <r_epik_Ionization_Penalty_Charging>
0.00237213

> <r_epik_Ionization_Penalty_Neutral>
8.2065e-08

> <r_epik_State_Penalty>
0.00163922

> <r_epik_Charging_Adjusted_Penalty>
0.00401135

> <i_epik_Tot_Q>
1

> <i_epik_Tot_abs_Q>
1

> <r_epik_Metal_State_Penalty>
-0

> <b_epik_Metal_Only>
0

> <s_lp_Force_Field>
OPLS_2005

> <r_lp_Energy>
36.6546

> <b_lp_Chiralities_Consistent>
1

> <s_lp_Variant>
AV-unprocessed.smi:1432-4

> <Gold.Version>
5.8.1

> <Gold.Id.Protein>
6NUR|6NUR_protein|mol2

> <Gold.PLP.Fitness>
54.8343

> <Gold.PLP.PLP>
-46.4573

> <Gold.PLP.part.hbond>
-2.0000

> <Gold.PLP.part.metal>
0.0000

> <Gold.PLP.part.buried>
-5.6506

> <Gold.PLP.part.nonpolar>
-38.7034

> <Gold.PLP.part.repulsive>
0.0366

> <Gold.PLP.ligand.clash>
0.0000

> <Gold.PLP.ligand.torsion>
0.3713

> <Gold.PLP.Chemscore.Hbond>
3.0000

> <Gold.PLP.Chemscore.CHOScore>
0.0000

> <Gold.PLP.Chemscore.Metal>
0.0000

> <Gold.Chemscore.Hbonds>
donor molecule, donor type, donor heavy atom, donor atom, acceptor molecule, acceptor atom, score
      L1  H     7    47       P1  7948  2.00
      P1  H  7997  8010       L1    12  1.00

> <Gold.PLP.Chemscore.Internal.Correction>
0.1197

> <Gold.Rescore>
     Score         DG    S(hbond)    S(metal)    S(lipo)     H(rot)  DE(clash)    DE(int)     intcor
     16.54     -17.17       2.00        0.00      88.24       2.08       0.11       0.52       ----

> <Gold.Chemscore.Fitness>
16.5404

> <Gold.Chemscore.DG>
-17.1674

> <Gold.Chemscore.ZeroCoef>
-5.4800

> <Gold.Chemscore.Hbond>
1.9997

> <Gold.Chemscore.Metal>
0.0000

> <Gold.Chemscore.Lipo>
88.2357

> <Gold.Chemscore.Internal_Hbond>
0.0000

> <Gold.Chemscore.DEClash>
0.1071

> <Gold.Chemscore.DEInternal>
0.5199

> <Gold.Chemscore.Rot>
2.0762

> <Gold.Chemscore.Internal.Correction>
   9.000000E+99

> <Gold.Chemscore.Hbonds>
donor molecule, donor type, donor heavy atom, donor atom, acceptor molecule, acceptor atom, score
      L1  H     7    47       P1  7948  1.00
      P1  H  7997  8010       L1    12  1.00

> <Gold.Chemscore.Hbond.Weighted>
-6.6789

> <Gold.Chemscore.Metal.Weighted>
-0.0000

> <Gold.Chemscore.Lipo.Weighted>
-10.3236

> <Gold.Chemscore.Internal_Hbond.Weighted>
0.0000

> <Gold.Chemscore.DEClash.Weighted>
0.1071

> <Gold.Chemscore.DEInternal.Weighted>
0.5199

> <Gold.Chemscore.Rot.Weighted>
5.3150

> <Gold.Chemscore.Internal.Correction.Weighted>
   9.000000E+99

> <Gold.Protein.RotatedTorsions>
[ 6907 6896 6895 6894 ] final   63.03 input  -60.11 | X-H torsion
[ 7974 7965 7964 7962 ] final   89.50 input  175.53 | X-H torsion
[ 8008 7997 7996 7995 ] final   80.03 input   59.86 | X-H torsion
[ 10167 10162 10161 10158 ] final  -72.82 input  -65.29 | X-H torsion
[ 10718 10713 10712 10709 ] final -144.61 input   66.30 | X-H torsion
[ 10763 10752 10751 10750 ] final -129.44 input  -60.55 | X-H torsion
[ 11005 11000 10999 10996 ] final  -21.57 input  -57.11 | X-H torsion

> <Gold.Protein.ActiveResidues>
 VAL166  LYS551  ARG553  GLY616  TRP617  ASP618  TYR619  PRO620  LYS621  CYS622 
 ASP623  PHE694  ASN695  SER759  ASP760  ASP761  ALA762  ILE779  LEU786  VAL792 
 PHE793  MET794  SER795  GLU796  ALA797  LYS798  CYS799  TRP800  GLU811  SER814 

> <Gold.Protein.RotatedAtoms>
  152.4220  134.5937  159.9981 H   0  0  0  0  0  0  0  0  0  0  0  0  # atno 6907 bound_to 6896
  151.6085  133.3344  159.3070 H   0  0  0  0  0  0  0  0  0  0  0  0  # atno 6908 bound_to 6896
  150.8108  134.7300  159.6752 H   0  0  0  0  0  0  0  0  0  0  0  0  # atno 6909 bound_to 6896
  145.5315  139.2283  143.2616 H   0  0  0  0  0  0  0  0  0  0  0  0  # atno 7974 bound_to 7965
  155.8779  140.3445  155.5867 H   0  0  0  0  0  0  0  0  0  0  0  0  # atno 8008 bound_to 7997
  155.7754  140.0851  157.2106 H   0  0  0  0  0  0  0  0  0  0  0  0  # atno 8009 bound_to 7997
  154.4022  140.1510  156.2977 H   0  0  0  0  0  0  0  0  0  0  0  0  # atno 8010 bound_to 7997
  140.5161  143.2338  151.7510 H   0  0  0  0  0  0  0  0  0  0  0  0  # atno 10167 bound_to 10162
  156.3722  130.7794  151.1976 H   0  0  0  0  0  0  0  0  0  0  0  0  # atno 10718 bound_to 10713
  154.8757  135.3895  154.3921 H   0  0  0  0  0  0  0  0  0  0  0  0  # atno 10763 bound_to 10752
  153.4655  135.7029  153.6030 H   0  0  0  0  0  0  0  0  0  0  0  0  # atno 10764 bound_to 10752
  153.4509  135.3834  155.2252 H   0  0  0  0  0  0  0  0  0  0  0  0  # atno 10765 bound_to 10752
  140.8573  133.7813  156.0034 H   0  0  0  0  0  0  0  0  0  0  0  0  # atno 11005 bound_to 11000
  146.2041  140.6132  142.9089 LP  0  0  0  0  0  0  0  0  0  0  0  0  # atno 17320 bound_to 7965
  144.7623  140.5451  143.6727 LP  0  0  0  0  0  0  0  0  0  0  0  0  # atno 17321 bound_to 7965
  139.4910  144.4321  151.9860 LP  0  0  0  0  0  0  0  0  0  0  0  0  # atno 17342 bound_to 10162
  140.3416  144.3197  150.5966 LP  0  0  0  0  0  0  0  0  0  0  0  0  # atno 17343 bound_to 10162
  157.7485  131.0369  150.4430 LP  0  0  0  0  0  0  0  0  0  0  0  0  # atno 17370 bound_to 10713
  156.4659  130.4042  149.6547 LP  0  0  0  0  0  0  0  0  0  0  0  0  # atno 17371 bound_to 10713
  140.8722  134.2712  157.5185 LP  0  0  0  0  0  0  0  0  0  0  0  0  # atno 17394 bound_to 11000
  139.8705  134.9573  156.4264 LP  0  0  0  0  0  0  0  0  0  0  0  0  # atno 17395 bound_to 11000

$$$$
