AV-unprocessed.smi:837|AV-procd|sdf|3893|dock4
  -GOLD-   22720 1353D 1   1.00000     0.00000
 Structure written by MMmdl.
 49 51  0  0  0  0  0  0  0  0  1 V2000
  147.6318  133.6834  159.0975 C   0  0  0  0  0  0  0  0  0  0  0  0
  146.9561  134.4501  160.2537 C   0  0  1  0  0  0  0  0  0  0  0  0
  147.5986  134.0756  161.6068 C   0  0  0  0  0  0  0  0  0  0  0  0
  146.8798  134.7529  162.7841 C   0  0  0  0  0  0  0  0  0  0  0  0
  146.8397  136.2784  162.6164 C   0  0  0  0  0  0  0  0  0  0  0  0
  146.2010  136.6738  161.2730 C   0  0  0  0  0  0  0  0  0  0  0  0
  146.8794  135.9972  160.0547 C   0  0  2  0  0  0  0  0  0  0  0  0
  146.1529  136.3359  158.8432 N   0  0  0  0  0  0  0  0  0  0  0  0
  146.8759  137.0560  157.9767 C   0  0  0  0  0  0  0  0  0  0  0  0
  146.4721  137.4766  156.8936 O   0  0  0  0  0  0  0  0  0  0  0  0
  148.1026  137.2348  158.4969 N   0  0  0  0  0  0  0  0  0  0  0  0
  149.1719  138.0078  157.8508 C   0  0  0  0  0  0  0  0  0  0  0  0
  148.8113  139.4849  157.6330 C   0  0  0  0  0  0  0  0  0  0  0  0
  147.7023  139.9223  157.9449 O   0  0  0  0  0  0  0  0  0  0  0  0
  149.7692  140.2453  157.0823 N   0  0  0  0  0  0  0  0  0  0  0  0
  149.6390  141.6665  156.7835 C   0  0  0  0  0  0  0  0  0  0  0  0
  151.0070  142.3683  156.7694 C   0  0  0  0  0  0  0  0  0  0  0  0
  151.3011  143.0688  158.0812 C   0  0  0  0  0  0  0  0  0  0  0  0
  152.3554  142.6348  158.9109 C   0  0  0  0  0  0  0  0  0  0  0  0
  152.5944  143.3204  160.1176 C   0  0  0  0  0  0  0  0  0  0  0  0
  151.7667  144.4134  160.4434 C   0  0  0  0  0  0  0  0  0  0  0  0
  150.7548  144.8382  159.6560 N   0  0  0  0  0  0  0  0  0  0  0  0
  150.5321  144.1754  158.5007 C   0  0  0  0  0  0  0  0  0  0  0  0
  148.2128  136.6603  159.7027 C   0  0  0  0  0  0  0  0  0  0  0  0
  149.2088  136.6576  160.4264 O   0  0  0  0  0  0  0  0  0  0  0  0
  148.6879  133.9380  159.0048 H   0  0  0  0  0  0  0  0  0  0  0  0
  147.1525  133.8913  158.1409 H   0  0  0  0  0  0  0  0  0  0  0  0
  147.5709  132.6070  159.2593 H   0  0  0  0  0  0  0  0  0  0  0  0
  145.9263  134.0904  160.2890 H   0  0  0  0  0  0  0  0  0  0  0  0
  147.5657  132.9941  161.7443 H   0  0  0  0  0  0  0  0  0  0  0  0
  148.6544  134.3473  161.6147 H   0  0  0  0  0  0  0  0  0  0  0  0
  145.8621  134.3680  162.8597 H   0  0  0  0  0  0  0  0  0  0  0  0
  147.3768  134.4963  163.7201 H   0  0  0  0  0  0  0  0  0  0  0  0
  146.2762  136.7238  163.4366 H   0  0  0  0  0  0  0  0  0  0  0  0
  147.8490  136.6834  162.6898 H   0  0  0  0  0  0  0  0  0  0  0  0
  145.1447  136.4020  161.2926 H   0  0  0  0  0  0  0  0  0  0  0  0
  146.2260  137.7600  161.1692 H   0  0  0  0  0  0  0  0  0  0  0  0
  145.1923  136.0647  158.6911 H   0  0  0  0  0  0  0  0  0  0  0  0
  150.0835  137.9503  158.4482 H   0  0  0  0  0  0  0  0  0  0  0  0
  149.4223  137.5648  156.8855 H   0  0  0  0  0  0  0  0  0  0  0  0
  150.6514  139.8094  156.8552 H   0  0  0  0  0  0  0  0  0  0  0  0
  149.1293  141.8018  155.8277 H   0  0  0  0  0  0  0  0  0  0  0  0
  148.9980  142.1151  157.5431 H   0  0  0  0  0  0  0  0  0  0  0  0
  151.7980  141.6445  156.5676 H   0  0  0  0  0  0  0  0  0  0  0  0
  151.0494  143.1016  155.9625 H   0  0  0  0  0  0  0  0  0  0  0  0
  152.9717  141.7938  158.6283 H   0  0  0  0  0  0  0  0  0  0  0  0
  153.3933  143.0161  160.7776 H   0  0  0  0  0  0  0  0  0  0  0  0
  151.9221  144.9616  161.3610 H   0  0  0  0  0  0  0  0  0  0  0  0
  149.7181  144.5411  157.8920 H   0  0  0  0  0  0  0  0  0  0  0  0
  1  2  1  0  0  0  0
  1 26  1  0  0  0  0
  1 27  1  0  0  0  0
  1 28  1  0  0  0  0
  2  7  1  0  0  0  0
  2  3  1  0  0  0  0
  2 29  1  0  0  0  0
  3  4  1  0  0  0  0
  3 30  1  0  0  0  0
  3 31  1  0  0  0  0
  4  5  1  0  0  0  0
  4 32  1  0  0  0  0
  4 33  1  0  0  0  0
  5  6  1  0  0  0  0
  5 34  1  0  0  0  0
  5 35  1  0  0  0  0
  6  7  1  0  0  0  0
  6 36  1  0  0  0  0
  6 37  1  0  0  0  0
  7 24  1  0  0  0  0
  7  8  1  0  0  0  0
  8  9  1  0  0  0  0
  8 38  1  0  0  0  0
  9 10  2  0  0  0  0
  9 11  1  0  0  0  0
 11 12  1  0  0  0  0
 11 24  1  0  0  0  0
 12 13  1  0  0  0  0
 12 39  1  0  0  0  0
 12 40  1  0  0  0  0
 13 14  2  0  0  0  0
 13 15  1  0  0  0  0
 15 16  1  0  0  0  0
 15 41  1  0  0  0  0
 16 17  1  0  0  0  0
 16 42  1  0  0  0  0
 16 43  1  0  0  0  0
 17 18  1  0  0  0  0
 17 44  1  0  0  0  0
 17 45  1  0  0  0  0
 18 23  1  0  0  0  0
 18 19  2  0  0  0  0
 19 20  1  0  0  0  0
 19 46  1  0  0  0  0
 20 21  2  0  0  0  0
 20 47  1  0  0  0  0
 21 22  1  0  0  0  0
 21 48  1  0  0  0  0
 22 23  2  0  0  0  0
 23 49  1  0  0  0  0
 24 25  2  0  0  0  0
M  END
> <s_m_source_file>
AV-unprocessed.smi

> <i_m_source_file_index>
837

> <i_lp_mmshare_version>
43012

> <i_f3d_flags>
0

> <s_epik_input>
W0NIMl0xW0NIMl1bQ0gyXVtDSDJdW0NAQEhdKFtDSDNdKVtDQEBdMTJbTkhdQyg9TylOKEMyPU8pW0NIMl1DKD1PKVtOSF1bQ0gyXVtDSDJdYzNbY0hdW2NIXVtjSF1uW2NIXTM=

> <s_epik_cmdline>
J2VwaWtfcHl0aG9uJywgJy1waCcsICc3LjAnLCAnLXRuJywgJzgnLCAnLW1hJywgJzIwMCcsICctbWV0YWxfYmluZGluZycsICctaW1hZScsICc8aW5maWxlLm1hZT4nLCAnLW9tYWUnLCAnPG91dGZpbGUubWFlPic=

> <r_lp_tautomer_probability>
1

> <r_epik_Ionization_Penalty>
0.0127837

> <r_epik_Ionization_Penalty_Charging>
0

> <r_epik_Ionization_Penalty_Neutral>
0.0127837

> <r_epik_State_Penalty>
0.00987657

> <r_epik_Charging_Adjusted_Penalty>
0.00987657

> <i_epik_Tot_Q>
0

> <i_epik_Tot_abs_Q>
0

> <r_epik_Metal_State_Penalty>
0.0309865

> <b_epik_Metal_Only>
0

> <s_lp_Force_Field>
OPLS_2005

> <r_lp_Energy>
18.239

> <b_lp_Chiralities_Consistent>
1

> <s_lp_Variant>
AV-unprocessed.smi:837-2

> <Gold.Version>
5.8.1

> <Gold.Id.Protein>
6NUR|6NUR_protein|mol2

> <Gold.PLP.Fitness>
46.1561

> <Gold.PLP.PLP>
-41.7946

> <Gold.PLP.part.hbond>
-1.9373

> <Gold.PLP.part.metal>
0.0000

> <Gold.PLP.part.buried>
-6.1958

> <Gold.PLP.part.nonpolar>
-34.3660

> <Gold.PLP.part.repulsive>
0.2214

> <Gold.PLP.ligand.clash>
0.0000

> <Gold.PLP.ligand.torsion>
0.4891

> <Gold.PLP.Chemscore.Hbond>
0.6400

> <Gold.PLP.Chemscore.CHOScore>
1.1226

> <Gold.PLP.Chemscore.Metal>
0.0000

> <Gold.Chemscore.Hbonds>
donor molecule, donor type, donor heavy atom, donor atom, acceptor molecule, acceptor atom, score
      P1  H  6931  6943       L1    25  0.49
      L1  C    23    49       P1  8028  0.53
      L1  C    23    49       P1  8029  0.49

> <Gold.PLP.Chemscore.Internal.Correction>
0.0518

> <Gold.Rescore>
     Score         DG    S(hbond)    S(metal)    S(lipo)     H(rot)  DE(clash)    DE(int)     intcor
     16.14     -16.59       0.67        0.00     116.48       1.86       0.02       0.43       ----

> <Gold.Chemscore.Fitness>
16.1363

> <Gold.Chemscore.DG>
-16.5872

> <Gold.Chemscore.ZeroCoef>
-5.4800

> <Gold.Chemscore.Hbond>
0.6672

> <Gold.Chemscore.Metal>
0.0000

> <Gold.Chemscore.Lipo>
116.4822

> <Gold.Chemscore.Internal_Hbond>
0.0000

> <Gold.Chemscore.DEClash>
0.0164

> <Gold.Chemscore.DEInternal>
0.4345

> <Gold.Chemscore.Rot>
1.8553

> <Gold.Chemscore.Internal.Correction>
   9.000000E+99

> <Gold.Chemscore.Hbonds>
donor molecule, donor type, donor heavy atom, donor atom, acceptor molecule, acceptor atom, score
      P1  H  6931  6943       L1    25  0.36

> <Gold.Chemscore.Hbond.Weighted>
-2.2285

> <Gold.Chemscore.Metal.Weighted>
-0.0000

> <Gold.Chemscore.Lipo.Weighted>
-13.6284

> <Gold.Chemscore.Internal_Hbond.Weighted>
0.0000

> <Gold.Chemscore.DEClash.Weighted>
0.0164

> <Gold.Chemscore.DEInternal.Weighted>
0.4345

> <Gold.Chemscore.Rot.Weighted>
4.7497

> <Gold.Chemscore.Internal.Correction.Weighted>
   9.000000E+99

> <Gold.Protein.RotatedTorsions>
[ 6907 6896 6895 6894 ] final -120.34 input  -60.11 | X-H torsion
[ 7974 7965 7964 7962 ] final  -61.53 input  175.53 | X-H torsion
[ 8008 7997 7996 7995 ] final   12.76 input   59.86 | X-H torsion
[ 10167 10162 10161 10158 ] final  145.04 input  -65.29 | X-H torsion
[ 10718 10713 10712 10709 ] final   -6.41 input   66.30 | X-H torsion
[ 10763 10752 10751 10750 ] final   78.79 input  -60.55 | X-H torsion
[ 11005 11000 10999 10996 ] final  -49.28 input  -57.11 | X-H torsion

> <Gold.Protein.ActiveResidues>
 VAL166  LYS551  ARG553  GLY616  TRP617  ASP618  TYR619  PRO620  LYS621  CYS622 
 ASP623  PHE694  ASN695  SER759  ASP760  ASP761  ALA762  ILE779  LEU786  VAL792 
 PHE793  MET794  SER795  GLU796  ALA797  LYS798  CYS799  TRP800  GLU811  SER814 

> <Gold.Protein.RotatedAtoms>
  150.8384  133.7976  159.3070 H   0  0  0  0  0  0  0  0  0  0  0  0  # atno 6907 bound_to 6896
  151.5684  135.1061  159.9999 H   0  0  0  0  0  0  0  0  0  0  0  0  # atno 6908 bound_to 6896
  152.4452  133.7481  159.6735 H   0  0  0  0  0  0  0  0  0  0  0  0  # atno 6909 bound_to 6896
  145.8024  140.8647  143.0224 H   0  0  0  0  0  0  0  0  0  0  0  0  # atno 7974 bound_to 7965
  154.8251  140.2890  155.5760 H   0  0  0  0  0  0  0  0  0  0  0  0  # atno 8008 bound_to 7997
  156.3001  140.2542  156.3096 H   0  0  0  0  0  0  0  0  0  0  0  0  # atno 8009 bound_to 7997
  154.9294  140.0384  157.2029 H   0  0  0  0  0  0  0  0  0  0  0  0  # atno 8010 bound_to 7997
  139.4934  144.5930  151.6641 H   0  0  0  0  0  0  0  0  0  0  0  0  # atno 10167 bound_to 10162
  156.7323  130.5184  149.5842 H   0  0  0  0  0  0  0  0  0  0  0  0  # atno 10718 bound_to 10713
  153.0901  135.4864  154.8674 H   0  0  0  0  0  0  0  0  0  0  0  0  # atno 10763 bound_to 10752
  154.7259  135.3049  154.8974 H   0  0  0  0  0  0  0  0  0  0  0  0  # atno 10764 bound_to 10752
  153.9624  135.6811  153.4798 H   0  0  0  0  0  0  0  0  0  0  0  0  # atno 10765 bound_to 10752
  141.0750  133.6668  156.3563 H   0  0  0  0  0  0  0  0  0  0  0  0  # atno 11005 bound_to 11000
  144.6767  140.0277  143.7483 LP  0  0  0  0  0  0  0  0  0  0  0  0  # atno 17320 bound_to 7965
  145.9864  139.2981  143.1011 LP  0  0  0  0  0  0  0  0  0  0  0  0  # atno 17321 bound_to 7965
  140.5561  144.0345  150.6148 LP  0  0  0  0  0  0  0  0  0  0  0  0  # atno 17342 bound_to 10162
  140.3416  143.3016  152.0582 LP  0  0  0  0  0  0  0  0  0  0  0  0  # atno 17343 bound_to 10162
  156.1520  130.6316  151.0608 LP  0  0  0  0  0  0  0  0  0  0  0  0  # atno 17370 bound_to 10713
  157.6853  131.0826  150.7259 LP  0  0  0  0  0  0  0  0  0  0  0  0  # atno 17371 bound_to 10713
  140.5592  134.5951  157.5429 LP  0  0  0  0  0  0  0  0  0  0  0  0  # atno 17394 bound_to 11000
  139.9563  134.7530  156.0335 LP  0  0  0  0  0  0  0  0  0  0  0  0  # atno 17395 bound_to 11000

$$$$
