AV-unprocessed.smi:1048|AV-procd|sdf|4605|dock4
  -GOLD-   22720 3103D 1   1.00000     0.00000
 Structure written by MMmdl.
 46 47  0  0  0  0  0  0  0  0  2 V2000
  151.2412  142.4440  159.5886 C   0  0  0  0  0  0  0  0  0  0  0  0
  150.6458  141.8188  158.3192 C   0  0  2  0  0  0  0  0  0  0  0  0
  151.2969  142.3852  157.0459 C   0  0  0  0  0  0  0  0  0  0  0  0
  150.6683  141.7812  155.7790 C   0  0  0  0  0  0  0  0  0  0  0  0
  149.2007  142.0066  155.7521 N   0  3  1  0  0  0  0  0  0  0  0  0
  148.5817  141.5732  154.4727 C   0  0  0  0  0  0  0  0  0  0  0  0
  148.3948  140.0439  154.4005 C   0  0  1  0  0  0  0  0  0  0  0  0
  147.6697  139.7652  153.2181 O   0  0  0  0  0  0  0  0  0  0  0  0
  149.7480  139.3073  154.3364 C   0  0  0  0  0  0  0  0  0  0  0  0
  149.5751  137.8636  154.2125 N   0  0  0  0  0  0  0  0  0  0  0  0
  149.9764  136.9608  155.1183 C   0  0  0  0  0  0  0  0  0  0  0  0
  150.5377  137.2620  156.1714 O   0  0  0  0  0  0  0  0  0  0  0  0
  149.7020  135.7099  154.7103 N   0  0  0  0  0  0  0  0  0  0  0  0
  149.9714  134.4816  155.3729 C   0  0  0  0  0  0  0  0  0  0  0  0
  149.7699  133.2859  154.6532 C   0  0  0  0  0  0  0  0  0  0  0  0
  150.0123  132.0528  155.2874 C   0  0  0  0  0  0  0  0  0  0  0  0
  150.4413  132.0630  156.6285 C   0  0  0  0  0  0  0  0  0  0  0  0
  150.6254  133.1964  157.3375 N   0  0  0  0  0  0  0  0  0  0  0  0
  150.3926  134.3759  156.7222 C   0  0  0  0  0  0  0  0  0  0  0  0
  148.5397  141.4290  156.9525 C   0  0  0  0  0  0  0  0  0  0  0  0
  149.1230  142.0237  158.2453 C   0  0  0  0  0  0  0  0  0  0  0  0
  151.0790  143.5220  159.6142 H   0  0  0  0  0  0  0  0  0  0  0  0
  152.3159  142.2688  159.6465 H   0  0  0  0  0  0  0  0  0  0  0  0
  150.7892  142.0187  160.4852 H   0  0  0  0  0  0  0  0  0  0  0  0
  150.8432  140.7462  158.3536 H   0  0  0  0  0  0  0  0  0  0  0  0
  151.1853  143.4703  157.0239 H   0  0  0  0  0  0  0  0  0  0  0  0
  152.3690  142.1858  157.0538 H   0  0  0  0  0  0  0  0  0  0  0  0
  151.1282  142.2385  154.9021 H   0  0  0  0  0  0  0  0  0  0  0  0
  150.8752  140.7111  155.7256 H   0  0  0  0  0  0  0  0  0  0  0  0
  147.6064  142.0474  154.3507 H   0  0  0  0  0  0  0  0  0  0  0  0
  149.1937  141.9279  153.6418 H   0  0  0  0  0  0  0  0  0  0  0  0
  147.8280  139.6895  155.2613 H   0  0  0  0  0  0  0  0  0  0  0  0
  148.1695  140.0690  152.4751 H   0  0  0  0  0  0  0  0  0  0  0  0
  150.3862  139.7067  153.5459 H   0  0  0  0  0  0  0  0  0  0  0  0
  150.2907  139.4657  155.2690 H   0  0  0  0  0  0  0  0  0  0  0  0
  149.1226  137.5276  153.3750 H   0  0  0  0  0  0  0  0  0  0  0  0
  149.3017  135.6229  153.7879 H   0  0  0  0  0  0  0  0  0  0  0  0
  149.4379  133.3102  153.6254 H   0  0  0  0  0  0  0  0  0  0  0  0
  149.8720  131.1216  154.7589 H   0  0  0  0  0  0  0  0  0  0  0  0
  150.6359  131.1362  157.1475 H   0  0  0  0  0  0  0  0  0  0  0  0
  150.5322  135.2424  157.3486 H   0  0  0  0  0  0  0  0  0  0  0  0
  147.4681  141.6226  156.9275 H   0  0  0  0  0  0  0  0  0  0  0  0
  148.6627  140.3447  156.9510 H   0  0  0  0  0  0  0  0  0  0  0  0
  148.6429  141.5624  159.1091 H   0  0  0  0  0  0  0  0  0  0  0  0
  148.8885  143.0882  158.2939 H   0  0  0  0  0  0  0  0  0  0  0  0
  149.0726  143.0079  155.7976 H   0  0  0  0  0  0  0  0  0  0  0  0
  1  2  1  0  0  0  0
  1 22  1  0  0  0  0
  1 23  1  0  0  0  0
  1 24  1  0  0  0  0
  2 21  1  0  0  0  0
  2  3  1  0  0  0  0
  2 25  1  0  0  0  0
  3  4  1  0  0  0  0
  3 26  1  0  0  0  0
  3 27  1  0  0  0  0
  4  5  1  0  0  0  0
  4 28  1  0  0  0  0
  4 29  1  0  0  0  0
  5  6  1  0  0  0  0
  5 20  1  0  0  0  0
  5 46  1  0  0  0  0
  6  7  1  0  0  0  0
  6 30  1  0  0  0  0
  6 31  1  0  0  0  0
  7  8  1  0  0  0  0
  7  9  1  0  0  0  0
  7 32  1  0  0  0  0
  8 33  1  0  0  0  0
  9 10  1  0  0  0  0
  9 34  1  0  0  0  0
  9 35  1  0  0  0  0
 10 11  1  0  0  0  0
 10 36  1  0  0  0  0
 11 12  2  0  0  0  0
 11 13  1  0  0  0  0
 13 14  1  0  0  0  0
 13 37  1  0  0  0  0
 14 19  1  0  0  0  0
 14 15  2  0  0  0  0
 15 16  1  0  0  0  0
 15 38  1  0  0  0  0
 16 17  2  0  0  0  0
 16 39  1  0  0  0  0
 17 18  1  0  0  0  0
 17 40  1  0  0  0  0
 18 19  2  0  0  0  0
 19 41  1  0  0  0  0
 20 21  1  0  0  0  0
 20 42  1  0  0  0  0
 20 43  1  0  0  0  0
 21 44  1  0  0  0  0
 21 45  1  0  0  0  0
M  CHG  1   5   1
M  END
> <s_m_source_file>
AV-unprocessed.smi

> <i_m_source_file_index>
1048

> <i_lp_mmshare_version>
43012

> <i_f3d_flags>
0

> <s_epik_input>
W0NIM11bQ0hdMVtDSDJdW0NIMl1OKFtDSDJdW0NIMl0xKVtDSDJdW0NASF0oW09IXSlbQ0gyXVtOSF1DKD1PKVtOSF1jMltjSF1bY0hdW2NIXW5bY0hdMg==

> <s_epik_cmdline>
J2VwaWtfcHl0aG9uJywgJy1waCcsICc3LjAnLCAnLXRuJywgJzgnLCAnLW1hJywgJzIwMCcsICctbWV0YWxfYmluZGluZycsICctaW1hZScsICc8aW5maWxlLm1hZT4nLCAnLW9tYWUnLCAnPG91dGZpbGUubWFlPic=

> <r_lp_tautomer_probability>
1

> <r_epik_Ionization_Penalty>
0.00581049

> <r_epik_Ionization_Penalty_Charging>
0.00147689

> <r_epik_Ionization_Penalty_Neutral>
0.0043336

> <r_epik_State_Penalty>
-0

> <r_epik_Charging_Adjusted_Penalty>
0.00147689

> <i_epik_Tot_Q>
1

> <i_epik_Tot_abs_Q>
1

> <r_epik_Metal_State_Penalty>
-0

> <b_epik_Metal_Only>
0

> <s_lp_Force_Field>
OPLS_2005

> <r_lp_Energy>
22.9407

> <b_lp_Chiralities_Consistent>
1

> <s_lp_Variant>
AV-unprocessed.smi:1048-2

> <Gold.Version>
5.8.1

> <Gold.Id.Protein>
6NUR|6NUR_protein|mol2

> <Gold.PLP.Fitness>
49.8378

> <Gold.PLP.PLP>
-32.1940

> <Gold.PLP.part.hbond>
-5.0000

> <Gold.PLP.part.metal>
0.0000

> <Gold.PLP.part.buried>
-4.5840

> <Gold.PLP.part.nonpolar>
-23.4515

> <Gold.PLP.part.repulsive>
0.2128

> <Gold.PLP.ligand.clash>
0.0000

> <Gold.PLP.ligand.torsion>
0.1613

> <Gold.PLP.Chemscore.Hbond>
5.9675

> <Gold.PLP.Chemscore.CHOScore>
0.0000

> <Gold.PLP.Chemscore.Metal>
0.0000

> <Gold.Chemscore.Hbonds>
donor molecule, donor type, donor heavy atom, donor atom, acceptor molecule, acceptor atom, score
      L1  H     5    46       P1  8028  2.00
      L1  H     8    33       P1  7957  1.00
      L1  H    10    36       P1  7948  1.00
      L1  H    13    37       P1  7948  1.00
      P1  H  6896  6907       L1    18  1.00

> <Gold.PLP.Chemscore.Internal.Correction>
0.0640

> <Gold.Rescore>
     Score         DG    S(hbond)    S(metal)    S(lipo)     H(rot)  DE(clash)    DE(int)     intcor
     21.36     -24.19       4.51        0.00      81.23       2.29       0.54       2.30       ----

> <Gold.Chemscore.Fitness>
21.3556

> <Gold.Chemscore.DG>
-24.1913

> <Gold.Chemscore.ZeroCoef>
-5.4800

> <Gold.Chemscore.Hbond>
4.5094

> <Gold.Chemscore.Metal>
0.0000

> <Gold.Chemscore.Lipo>
81.2253

> <Gold.Chemscore.Internal_Hbond>
0.0000

> <Gold.Chemscore.DEClash>
0.5360

> <Gold.Chemscore.DEInternal>
2.2996

> <Gold.Chemscore.Rot>
2.2865

> <Gold.Chemscore.Internal.Correction>
   9.000000E+99

> <Gold.Chemscore.Hbonds>
donor molecule, donor type, donor heavy atom, donor atom, acceptor molecule, acceptor atom, score
      L1  H     5    46       P1  8028  1.00
      L1  H     8    33       P1  7957  0.98
      L1  H    10    36       P1  7948  0.93
      L1  H    13    37       P1  7948  0.51
      P1  H  6896  6907       L1    18  0.66

> <Gold.Chemscore.Hbond.Weighted>
-15.0615

> <Gold.Chemscore.Metal.Weighted>
-0.0000

> <Gold.Chemscore.Lipo.Weighted>
-9.5034

> <Gold.Chemscore.Internal_Hbond.Weighted>
0.0000

> <Gold.Chemscore.DEClash.Weighted>
0.5360

> <Gold.Chemscore.DEInternal.Weighted>
2.2996

> <Gold.Chemscore.Rot.Weighted>
5.8536

> <Gold.Chemscore.Internal.Correction.Weighted>
   9.000000E+99

> <Gold.Protein.RotatedTorsions>
[ 6907 6896 6895 6894 ] final -142.31 input  -60.11 | X-H torsion
[ 7974 7965 7964 7962 ] final   -6.03 input  175.53 | X-H torsion
[ 8008 7997 7996 7995 ] final  -18.99 input   59.86 | X-H torsion
[ 10167 10162 10161 10158 ] final  -52.42 input  -65.29 | X-H torsion
[ 10718 10713 10712 10709 ] final -101.54 input   66.30 | X-H torsion
[ 10763 10752 10751 10750 ] final  170.25 input  -60.55 | X-H torsion
[ 11005 11000 10999 10996 ] final  -74.94 input  -57.11 | X-H torsion

> <Gold.Protein.ActiveResidues>
 VAL166  LYS551  ARG553  GLY616  TRP617  ASP618  TYR619  PRO620  LYS621  CYS622 
 ASP623  PHE694  ASN695  SER759  ASP760  ASP761  ALA762  ILE779  LEU786  VAL792 
 PHE793  MET794  SER795  GLU796  ALA797  LYS798  CYS799  TRP800  GLU811  SER814 

> <Gold.Protein.RotatedAtoms>
  151.0854  133.5357  159.2617 H   0  0  0  0  0  0  0  0  0  0  0  0  # atno 6907 bound_to 6896
  151.2245  135.0530  159.8973 H   0  0  0  0  0  0  0  0  0  0  0  0  # atno 6908 bound_to 6896
  152.5428  134.0652  159.8223 H   0  0  0  0  0  0  0  0  0  0  0  0  # atno 6909 bound_to 6896
  146.2340  140.2110  142.8335 H   0  0  0  0  0  0  0  0  0  0  0  0  # atno 7974 bound_to 7965
  154.4868  140.2101  155.9638 H   0  0  0  0  0  0  0  0  0  0  0  0  # atno 8008 bound_to 7997
  156.1247  140.3207  155.8229 H   0  0  0  0  0  0  0  0  0  0  0  0  # atno 8009 bound_to 7997
  155.4405  140.0510  157.3001 H   0  0  0  0  0  0  0  0  0  0  0  0  # atno 8010 bound_to 7997
  140.6538  143.2584  151.4646 H   0  0  0  0  0  0  0  0  0  0  0  0  # atno 10167 bound_to 10162
  156.0198  130.5378  150.6977 H   0  0  0  0  0  0  0  0  0  0  0  0  # atno 10718 bound_to 10713
  154.3949  135.2754  155.2132 H   0  0  0  0  0  0  0  0  0  0  0  0  # atno 10763 bound_to 10752
  154.4182  135.6006  153.5997 H   0  0  0  0  0  0  0  0  0  0  0  0  # atno 10764 bound_to 10752
  152.9831  135.5966  154.4209 H   0  0  0  0  0  0  0  0  0  0  0  0  # atno 10765 bound_to 10752
  141.1640  133.6929  156.7441 H   0  0  0  0  0  0  0  0  0  0  0  0  # atno 11005 bound_to 11000
  144.9707  140.8365  143.5457 LP  0  0  0  0  0  0  0  0  0  0  0  0  # atno 17320 bound_to 7965
  145.2091  139.2213  143.5152 LP  0  0  0  0  0  0  0  0  0  0  0  0  # atno 17321 bound_to 7965
  139.5757  144.1825  152.1899 LP  0  0  0  0  0  0  0  0  0  0  0  0  # atno 17342 bound_to 10162
  140.1135  144.5436  150.6909 LP  0  0  0  0  0  0  0  0  0  0  0  0  # atno 17343 bound_to 10162
  157.4644  131.0886  151.0710 LP  0  0  0  0  0  0  0  0  0  0  0  0  # atno 17370 bound_to 10713
  157.1188  130.6053  149.5500 LP  0  0  0  0  0  0  0  0  0  0  0  0  # atno 17371 bound_to 10713
  140.2652  134.8435  157.3796 LP  0  0  0  0  0  0  0  0  0  0  0  0  # atno 17394 bound_to 11000
  140.1573  134.4774  155.7919 LP  0  0  0  0  0  0  0  0  0  0  0  0  # atno 17395 bound_to 11000

$$$$
