AV-unprocessed.smi:1895|AV-procd|sdf|7680|dock3
  -GOLD-   22720 9423D 1   1.00000     0.00000
 Structure written by MMmdl.
 36 37  0  0  0  0  0  0  0  0  1 V2000
  151.6573  144.8999  158.4805 C   0  0  0  0  0  0  0  0  0  0  0  0
  152.1842  143.6315  159.0836 C   0  0  0  0  0  0  0  0  0  0  0  0
  153.0269  143.4792  160.2198 C   0  0  0  0  0  0  0  0  0  0  0  0
  153.2070  142.1290  160.3285 C   0  0  0  0  0  0  0  0  0  0  0  0
  154.0025  141.3407  161.3166 C   0  0  0  0  0  0  0  0  0  0  0  0
  152.4932  141.5447  159.2966 N   0  0  0  0  0  0  0  0  0  0  0  0
  152.3701  140.1369  158.9456 C   0  0  0  0  0  0  0  0  0  0  0  0
  152.0770  139.9700  157.4538 C   0  0  0  0  0  0  0  0  0  0  0  0
  152.8974  139.4172  156.7216 O   0  0  0  0  0  0  0  0  0  0  0  0
  150.9158  140.4789  157.0148 N   0  0  0  0  0  0  0  0  0  0  0  0
  150.5173  140.5749  155.6165 C   0  0  0  0  0  0  0  0  0  0  0  0
  149.1635  141.2913  155.4667 C   0  0  2  0  0  0  0  0  0  0  0  0
  147.9871  140.5882  156.1470 C   0  0  0  0  0  0  0  0  0  0  0  0
  146.7820  141.0326  155.3317 C   0  0  0  0  0  0  0  0  0  0  0  0
  147.3887  141.6938  154.0905 C   0  0  0  0  0  0  0  0  0  0  0  0
  148.7600  141.3244  154.1082 O   0  0  0  0  0  0  0  0  0  0  0  0
  151.8676  142.4699  158.5360 N   0  0  0  0  0  0  0  0  0  0  0  0
  151.9079  145.7630  159.0973 H   0  0  0  0  0  0  0  0  0  0  0  0
  150.5721  144.8680  158.3808 H   0  0  0  0  0  0  0  0  0  0  0  0
  152.0803  145.0670  157.4895 H   0  0  0  0  0  0  0  0  0  0  0  0
  153.4411  144.2466  160.8568 H   0  0  0  0  0  0  0  0  0  0  0  0
  154.4216  141.9899  162.0853 H   0  0  0  0  0  0  0  0  0  0  0  0
  154.8292  140.8257  160.8270 H   0  0  0  0  0  0  0  0  0  0  0  0
  153.3816  140.5942  161.8116 H   0  0  0  0  0  0  0  0  0  0  0  0
  153.2950  139.6229  159.2097 H   0  0  0  0  0  0  0  0  0  0  0  0
  151.5715  139.6798  159.5320 H   0  0  0  0  0  0  0  0  0  0  0  0
  150.3029  140.9077  157.6936 H   0  0  0  0  0  0  0  0  0  0  0  0
  151.2866  141.0871  155.0367 H   0  0  0  0  0  0  0  0  0  0  0  0
  150.4490  139.5630  155.2160 H   0  0  0  0  0  0  0  0  0  0  0  0
  149.2375  142.3183  155.8300 H   0  0  0  0  0  0  0  0  0  0  0  0
  148.0981  139.5056  156.0725 H   0  0  0  0  0  0  0  0  0  0  0  0
  147.9025  140.8441  157.2041 H   0  0  0  0  0  0  0  0  0  0  0  0
  146.1626  140.1758  155.0643 H   0  0  0  0  0  0  0  0  0  0  0  0
  146.1592  141.7387  155.8817 H   0  0  0  0  0  0  0  0  0  0  0  0
  146.9056  141.3755  153.1664 H   0  0  0  0  0  0  0  0  0  0  0  0
  147.3100  142.7798  154.1586 H   0  0  0  0  0  0  0  0  0  0  0  0
  1  2  1  0  0  0  0
  1 18  1  0  0  0  0
  1 19  1  0  0  0  0
  1 20  1  0  0  0  0
  2 17  2  0  0  0  0
  2  3  1  0  0  0  0
  3  4  2  0  0  0  0
  3 21  1  0  0  0  0
  4  5  1  0  0  0  0
  4  6  1  0  0  0  0
  5 22  1  0  0  0  0
  5 23  1  0  0  0  0
  5 24  1  0  0  0  0
  6  7  1  0  0  0  0
  6 17  1  0  0  0  0
  7  8  1  0  0  0  0
  7 25  1  0  0  0  0
  7 26  1  0  0  0  0
  8  9  2  0  0  0  0
  8 10  1  0  0  0  0
 10 11  1  0  0  0  0
 10 27  1  0  0  0  0
 11 12  1  0  0  0  0
 11 28  1  0  0  0  0
 11 29  1  0  0  0  0
 12 16  1  0  0  0  0
 12 13  1  0  0  0  0
 12 30  1  0  0  0  0
 13 14  1  0  0  0  0
 13 31  1  0  0  0  0
 13 32  1  0  0  0  0
 14 15  1  0  0  0  0
 14 33  1  0  0  0  0
 14 34  1  0  0  0  0
 15 16  1  0  0  0  0
 15 35  1  0  0  0  0
 15 36  1  0  0  0  0
M  END
> <s_m_source_file>
AV-unprocessed.smi

> <i_m_source_file_index>
1895

> <i_lp_mmshare_version>
43012

> <i_f3d_flags>
0

> <s_epik_input>
W0NIM11jMVtjSF1jKFtDSDNdKW4objEpW0NIMl1DKD1PKVtOSF1bQ0gyXVtDQEBIXTJbQ0gyXVtDSDJdW0NIMl1PMg==

> <s_epik_cmdline>
J2VwaWtfcHl0aG9uJywgJy1waCcsICc3LjAnLCAnLXRuJywgJzgnLCAnLW1hJywgJzIwMCcsICctbWV0YWxfYmluZGluZycsICctaW1hZScsICc8aW5maWxlLm1hZT4nLCAnLW9tYWUnLCAnPG91dGZpbGUubWFlPic=

> <r_lp_tautomer_probability>
1

> <r_epik_Ionization_Penalty>
0.000408438

> <r_epik_Ionization_Penalty_Charging>
0

> <r_epik_Ionization_Penalty_Neutral>
0.000408438

> <r_epik_State_Penalty>
-0

> <r_epik_Charging_Adjusted_Penalty>
0

> <i_epik_Tot_Q>
0

> <i_epik_Tot_abs_Q>
0

> <r_epik_Metal_State_Penalty>
-0

> <b_epik_Metal_Only>
0

> <s_lp_Force_Field>
OPLS_2005

> <r_lp_Energy>
14.7864

> <b_lp_Chiralities_Consistent>
1

> <s_lp_Variant>
AV-unprocessed.smi:1895-1

> <Gold.Version>
5.8.1

> <Gold.Id.Protein>
6NUR|6NUR_protein|mol2

> <Gold.PLP.Fitness>
42.5701

> <Gold.PLP.PLP>
-38.0916

> <Gold.PLP.part.hbond>
-2.3174

> <Gold.PLP.part.metal>
0.0000

> <Gold.PLP.part.buried>
-5.5421

> <Gold.PLP.part.nonpolar>
-30.5694

> <Gold.PLP.part.repulsive>
0.2560

> <Gold.PLP.ligand.clash>
0.0000

> <Gold.PLP.ligand.torsion>
0.3867

> <Gold.PLP.Chemscore.Hbond>
1.7454

> <Gold.PLP.Chemscore.CHOScore>
0.0000

> <Gold.PLP.Chemscore.Metal>
0.0000

> <Gold.Chemscore.Hbonds>
donor molecule, donor type, donor heavy atom, donor atom, acceptor molecule, acceptor atom, score
      P1  H  7997  8009       L1     9  1.00
      P1  H  8011  8017       L1    16  0.19

> <Gold.PLP.Chemscore.Internal.Correction>
0.0158

> <Gold.Rescore>
     Score         DG    S(hbond)    S(metal)    S(lipo)     H(rot)  DE(clash)    DE(int)     intcor
     15.04     -17.00       1.34        0.00      93.83       1.54       0.07       1.88       ----

> <Gold.Chemscore.Fitness>
15.0433

> <Gold.Chemscore.DG>
-16.9976

> <Gold.Chemscore.ZeroCoef>
-5.4800

> <Gold.Chemscore.Hbond>
1.3409

> <Gold.Chemscore.Metal>
0.0000

> <Gold.Chemscore.Lipo>
93.8291

> <Gold.Chemscore.Internal_Hbond>
0.0000

> <Gold.Chemscore.DEClash>
0.0694

> <Gold.Chemscore.DEInternal>
1.8848

> <Gold.Chemscore.Rot>
1.5387

> <Gold.Chemscore.Internal.Correction>
   9.000000E+99

> <Gold.Chemscore.Hbonds>
donor molecule, donor type, donor heavy atom, donor atom, acceptor molecule, acceptor atom, score
      P1  H  7997  8009       L1     9  0.97
      P1  H  8011  8017       L1    16  0.12

> <Gold.Chemscore.Hbond.Weighted>
-4.4787

> <Gold.Chemscore.Metal.Weighted>
-0.0000

> <Gold.Chemscore.Lipo.Weighted>
-10.9780

> <Gold.Chemscore.Internal_Hbond.Weighted>
0.0000

> <Gold.Chemscore.DEClash.Weighted>
0.0694

> <Gold.Chemscore.DEInternal.Weighted>
1.8848

> <Gold.Chemscore.Rot.Weighted>
3.9392

> <Gold.Chemscore.Internal.Correction.Weighted>
   9.000000E+99

> <Gold.Protein.RotatedTorsions>
[ 6907 6896 6895 6894 ] final -100.58 input  -60.11 | X-H torsion
[ 7974 7965 7964 7962 ] final   55.11 input  175.53 | X-H torsion
[ 8008 7997 7996 7995 ] final -168.57 input   59.86 | X-H torsion
[ 10167 10162 10161 10158 ] final -127.27 input  -65.29 | X-H torsion
[ 10718 10713 10712 10709 ] final   60.63 input   66.30 | X-H torsion
[ 10763 10752 10751 10750 ] final  136.94 input  -60.55 | X-H torsion
[ 11005 11000 10999 10996 ] final  169.03 input  -57.11 | X-H torsion

> <Gold.Protein.ActiveResidues>
 VAL166  LYS551  ARG553  GLY616  TRP617  ASP618  TYR619  PRO620  LYS621  CYS622 
 ASP623  PHE694  ASN695  SER759  ASP760  ASP761  ALA762  ILE779  LEU786  VAL792 
 PHE793  MET794  SER795  GLU796  ALA797  LYS798  CYS799  TRP800  GLU811  SER814 

> <Gold.Protein.RotatedAtoms>
  150.7121  134.0866  159.3916 H   0  0  0  0  0  0  0  0  0  0  0  0  # atno 6907 bound_to 6896
  151.8851  135.0436  160.0502 H   0  0  0  0  0  0  0  0  0  0  0  0  # atno 6908 bound_to 6896
  152.2537  133.5201  159.5377 H   0  0  0  0  0  0  0  0  0  0  0  0  # atno 6909 bound_to 6896
  145.9538  139.3996  143.0289 H   0  0  0  0  0  0  0  0  0  0  0  0  # atno 7974 bound_to 7965
  155.8932  140.1028  157.1403 H   0  0  0  0  0  0  0  0  0  0  0  0  # atno 8008 bound_to 7997
  154.4017  140.1307  156.4406 H   0  0  0  0  0  0  0  0  0  0  0  0  # atno 8009 bound_to 7997
  155.7509  140.3465  155.5152 H   0  0  0  0  0  0  0  0  0  0  0  0  # atno 8010 bound_to 7997
  139.9626  143.5933  152.2440 H   0  0  0  0  0  0  0  0  0  0  0  0  # atno 10167 bound_to 10162
  157.5767  130.8949  149.9360 H   0  0  0  0  0  0  0  0  0  0  0  0  # atno 10718 bound_to 10713
  153.8649  135.3063  155.3439 H   0  0  0  0  0  0  0  0  0  0  0  0  # atno 10763 bound_to 10752
  154.7832  135.4824  153.9892 H   0  0  0  0  0  0  0  0  0  0  0  0  # atno 10764 bound_to 10752
  153.1440  135.6830  153.9078 H   0  0  0  0  0  0  0  0  0  0  0  0  # atno 10765 bound_to 10752
  140.2935  134.7654  157.3858 H   0  0  0  0  0  0  0  0  0  0  0  0  # atno 11005 bound_to 11000
  145.8134  140.9715  143.0937 LP  0  0  0  0  0  0  0  0  0  0  0  0  # atno 17320 bound_to 7965
  144.6801  139.9950  143.7484 LP  0  0  0  0  0  0  0  0  0  0  0  0  # atno 17321 bound_to 7965
  139.6542  144.7661  151.2088 LP  0  0  0  0  0  0  0  0  0  0  0  0  # atno 17342 bound_to 10162
  140.7548  143.6112  150.8604 LP  0  0  0  0  0  0  0  0  0  0  0  0  # atno 17343 bound_to 10162
  156.0812  130.3673  150.0577 LP  0  0  0  0  0  0  0  0  0  0  0  0  # atno 17370 bound_to 10713
  156.8722  130.9528  151.3608 LP  0  0  0  0  0  0  0  0  0  0  0  0  # atno 17371 bound_to 10713
  140.1174  134.5265  155.8213 LP  0  0  0  0  0  0  0  0  0  0  0  0  # atno 17394 bound_to 11000
  141.2142  133.6744  156.6801 LP  0  0  0  0  0  0  0  0  0  0  0  0  # atno 17395 bound_to 11000

$$$$
