AV-unprocessed.smi:1058|AV-procd|sdf|4653|dock1
  -GOLD-   22720 3163D 1   1.00000     0.00000
 Structure written by MMmdl.
 40 41  0  0  0  0  0  0  0  0  1 V2000
  150.0504  133.4774  156.2368 C   0  0  0  0  0  0  0  0  0  0  0  0
  149.8390  134.7855  155.4439 C   0  0  1  0  0  0  0  0  0  0  0  0
  149.0422  134.6017  154.2231 N   0  0  0  0  0  0  0  0  0  0  0  0
  148.1699  133.6225  153.9266 C   0  0  0  0  0  0  0  0  0  0  0  0
  147.8754  132.7055  154.6928 O   0  0  0  0  0  0  0  0  0  0  0  0
  147.6594  133.7939  152.6944 N   0  0  0  0  0  0  0  0  0  0  0  0
  146.7108  132.9838  152.0152 C   0  0  0  0  0  0  0  0  0  0  0  0
  146.4598  133.3533  150.6742 C   0  0  0  0  0  0  0  0  0  0  0  0
  145.5349  132.6127  149.9129 C   0  0  0  0  0  0  0  0  0  0  0  0
  144.8842  131.5199  150.5125 C   0  0  0  0  0  0  0  0  0  0  0  0
  145.1916  131.2189  151.8522 C   0  0  0  0  0  0  0  0  0  0  0  0
  146.0778  131.9271  152.5837 N   0  0  0  0  0  0  0  0  0  0  0  0
  149.3460  135.9709  156.3033 C   0  0  0  0  0  0  0  0  0  0  0  0
  148.8394  135.7254  157.3995 O   0  0  0  0  0  0  0  0  0  0  0  0
  149.4762  137.2443  155.8497 N   0  0  0  0  0  0  0  0  0  0  0  0
  150.1725  137.5520  154.5930 C   0  0  0  0  0  0  0  0  0  0  0  0
  151.6161  137.9749  154.9111 C   0  0  0  0  0  0  0  0  0  0  0  0
  151.6136  139.4931  155.9649 S   0  0  0  0  0  0  0  0  0  0  0  0
  152.9321  139.6428  156.5987 O   0  0  0  0  0  0  0  0  0  0  0  0
  151.0479  140.5913  155.1667 O   0  0  0  0  0  0  0  0  0  0  0  0
  150.3708  139.0376  157.2544 C   0  0  0  0  0  0  0  0  0  0  0  0
  149.1123  138.4622  156.5859 C   0  0  0  0  0  0  0  0  0  0  0  0
  150.7996  133.6005  157.0183 H   0  0  0  0  0  0  0  0  0  0  0  0
  150.3927  132.6730  155.5852 H   0  0  0  0  0  0  0  0  0  0  0  0
  149.1377  133.1444  156.7308 H   0  0  0  0  0  0  0  0  0  0  0  0
  150.8063  135.0631  155.0284 H   0  0  0  0  0  0  0  0  0  0  0  0
  149.1822  135.3047  153.5125 H   0  0  0  0  0  0  0  0  0  0  0  0
  147.9850  134.6002  152.1823 H   0  0  0  0  0  0  0  0  0  0  0  0
  146.9685  134.1961  150.2290 H   0  0  0  0  0  0  0  0  0  0  0  0
  145.3287  132.8791  148.8868 H   0  0  0  0  0  0  0  0  0  0  0  0
  144.1686  130.9286  149.9609 H   0  0  0  0  0  0  0  0  0  0  0  0
  144.7138  130.3882  152.3500 H   0  0  0  0  0  0  0  0  0  0  0  0
  150.1767  136.7058  153.9048 H   0  0  0  0  0  0  0  0  0  0  0  0
  149.6567  138.3507  154.0583 H   0  0  0  0  0  0  0  0  0  0  0  0
  152.1462  137.1846  155.4435 H   0  0  0  0  0  0  0  0  0  0  0  0
  152.1735  138.1915  154.0000 H   0  0  0  0  0  0  0  0  0  0  0  0
  150.8241  138.3121  157.9306 H   0  0  0  0  0  0  0  0  0  0  0  0
  150.1369  139.9310  157.8333 H   0  0  0  0  0  0  0  0  0  0  0  0
  148.6873  139.1984  155.9024 H   0  0  0  0  0  0  0  0  0  0  0  0
  148.3331  138.2972  157.3269 H   0  0  0  0  0  0  0  0  0  0  0  0
  1  2  1  0  0  0  0
  1 23  1  0  0  0  0
  1 24  1  0  0  0  0
  1 25  1  0  0  0  0
  2  3  1  0  0  0  0
  2 13  1  0  0  0  0
  2 26  1  0  0  0  0
  3  4  1  0  0  0  0
  3 27  1  0  0  0  0
  4  5  2  0  0  0  0
  4  6  1  0  0  0  0
  6  7  1  0  0  0  0
  6 28  1  0  0  0  0
  7 12  1  0  0  0  0
  7  8  2  0  0  0  0
  8  9  1  0  0  0  0
  8 29  1  0  0  0  0
  9 10  2  0  0  0  0
  9 30  1  0  0  0  0
 10 11  1  0  0  0  0
 10 31  1  0  0  0  0
 11 12  2  0  0  0  0
 11 32  1  0  0  0  0
 13 14  2  0  0  0  0
 13 15  1  0  0  0  0
 15 22  1  0  0  0  0
 15 16  1  0  0  0  0
 16 17  1  0  0  0  0
 16 33  1  0  0  0  0
 16 34  1  0  0  0  0
 17 18  1  0  0  0  0
 17 35  1  0  0  0  0
 17 36  1  0  0  0  0
 18 19  2  0  0  0  0
 18 20  2  0  0  0  0
 18 21  1  0  0  0  0
 21 22  1  0  0  0  0
 21 37  1  0  0  0  0
 21 38  1  0  0  0  0
 22 39  1  0  0  0  0
 22 40  1  0  0  0  0
M  END
> <s_m_source_file>
AV-unprocessed.smi

> <i_m_source_file_index>
1058

> <i_lp_mmshare_version>
43012

> <i_f3d_flags>
0

> <s_epik_input>
Tz1TMSg9TylbQ0gyXVtDSDJdTihbQ0gyXVtDSDJdMSlDKD1PKVtDQEhdKFtDSDNdKVtOSF1DKD1PKVtOSF1jMltjSF1bY0hdW2NIXVtjSF1uMg==

> <s_epik_cmdline>
J2VwaWtfcHl0aG9uJywgJy1waCcsICc3LjAnLCAnLXRuJywgJzgnLCAnLW1hJywgJzIwMCcsICctbWV0YWxfYmluZGluZycsICctaW1hZScsICc8aW5maWxlLm1hZT4nLCAnLW9tYWUnLCAnPG91dGZpbGUubWFlPic=

> <r_lp_tautomer_probability>
1

> <r_epik_Ionization_Penalty>
3.69864e-05

> <r_epik_Ionization_Penalty_Charging>
0

> <r_epik_Ionization_Penalty_Neutral>
3.69864e-05

> <r_epik_State_Penalty>
-0

> <r_epik_Charging_Adjusted_Penalty>
0

> <i_epik_Tot_Q>
0

> <i_epik_Tot_abs_Q>
0

> <r_epik_Metal_State_Penalty>
-0

> <b_epik_Metal_Only>
0

> <s_lp_Force_Field>
OPLS_2005

> <r_lp_Energy>
18.063

> <b_lp_Chiralities_Consistent>
1

> <s_lp_Variant>
AV-unprocessed.smi:1058-2

> <Gold.Version>
5.8.1

> <Gold.Id.Protein>
6NUR|6NUR_protein|mol2

> <Gold.PLP.Fitness>
43.3360

> <Gold.PLP.PLP>
-32.3864

> <Gold.PLP.part.hbond>
-3.8021

> <Gold.PLP.part.metal>
0.0000

> <Gold.PLP.part.buried>
-4.6280

> <Gold.PLP.part.nonpolar>
-23.9932

> <Gold.PLP.part.repulsive>
0.2322

> <Gold.PLP.ligand.clash>
0.0000

> <Gold.PLP.ligand.torsion>
0.5445

> <Gold.PLP.Chemscore.Hbond>
3.9440

> <Gold.PLP.Chemscore.CHOScore>
0.0000

> <Gold.PLP.Chemscore.Metal>
0.0000

> <Gold.Chemscore.Hbonds>
donor molecule, donor type, donor heavy atom, donor atom, acceptor molecule, acceptor atom, score
      L1  H     3    27       P1  7948  1.00
      L1  H     6    28       P1  7948  1.00
      P1  H  7989  7998       L1    20  0.93
      P1  H  7997  8008       L1    19  1.00

> <Gold.PLP.Chemscore.Internal.Correction>
0.2067

> <Gold.Rescore>
     Score         DG    S(hbond)    S(metal)    S(lipo)     H(rot)  DE(clash)    DE(int)     intcor
     17.11     -20.29       3.28        0.00      62.86       1.36       0.00       3.18       ----

> <Gold.Chemscore.Fitness>
17.1061

> <Gold.Chemscore.DG>
-20.2948

> <Gold.Chemscore.ZeroCoef>
-5.4800

> <Gold.Chemscore.Hbond>
3.2774

> <Gold.Chemscore.Metal>
0.0000

> <Gold.Chemscore.Lipo>
62.8585

> <Gold.Chemscore.Internal_Hbond>
0.0000

> <Gold.Chemscore.DEClash>
0.0048

> <Gold.Chemscore.DEInternal>
3.1839

> <Gold.Chemscore.Rot>
1.3617

> <Gold.Chemscore.Internal.Correction>
   9.000000E+99

> <Gold.Chemscore.Hbonds>
donor molecule, donor type, donor heavy atom, donor atom, acceptor molecule, acceptor atom, score
      L1  H     3    27       P1  7948  0.34
      L1  H     6    28       P1  7948  0.34
      P1  H  7989  7998       L1    20  0.88
      P1  H  7997  8008       L1    19  0.93

> <Gold.Chemscore.Hbond.Weighted>
-10.9464

> <Gold.Chemscore.Metal.Weighted>
-0.0000

> <Gold.Chemscore.Lipo.Weighted>
-7.3544

> <Gold.Chemscore.Internal_Hbond.Weighted>
0.0000

> <Gold.Chemscore.DEClash.Weighted>
0.0048

> <Gold.Chemscore.DEInternal.Weighted>
3.1839

> <Gold.Chemscore.Rot.Weighted>
3.4861

> <Gold.Chemscore.Internal.Correction.Weighted>
   9.000000E+99

> <Gold.Protein.RotatedTorsions>
[ 6907 6896 6895 6894 ] final -155.79 input  -60.11 | X-H torsion
[ 7974 7965 7964 7962 ] final  -73.08 input  175.53 | X-H torsion
[ 8008 7997 7996 7995 ] final  -34.56 input   59.86 | X-H torsion
[ 10167 10162 10161 10158 ] final  -51.06 input  -65.29 | X-H torsion
[ 10718 10713 10712 10709 ] final  106.88 input   66.30 | X-H torsion
[ 10763 10752 10751 10750 ] final   69.70 input  -60.55 | X-H torsion
[ 11005 11000 10999 10996 ] final   -3.29 input  -57.11 | X-H torsion

> <Gold.Protein.ActiveResidues>
 VAL166  LYS551  ARG553  GLY616  TRP617  ASP618  TYR619  PRO620  LYS621  CYS622 
 ASP623  PHE694  ASN695  SER759  ASP760  ASP761  ALA762  ILE779  LEU786  VAL792 
 PHE793  MET794  SER795  GLU796  ALA797  LYS798  CYS799  TRP800  GLU811  SER814 

> <Gold.Protein.RotatedAtoms>
  151.2778  133.4224  159.2624 H   0  0  0  0  0  0  0  0  0  0  0  0  # atno 6907 bound_to 6896
  151.0388  134.9592  159.8161 H   0  0  0  0  0  0  0  0  0  0  0  0  # atno 6908 bound_to 6896
  152.5361  134.2736  159.9033 H   0  0  0  0  0  0  0  0  0  0  0  0  # atno 6909 bound_to 6896
  145.6568  140.9265  143.0955 H   0  0  0  0  0  0  0  0  0  0  0  0  # atno 7974 bound_to 7965
  154.4117  140.1680  156.2070 H   0  0  0  0  0  0  0  0  0  0  0  0  # atno 8008 bound_to 7997
  155.9476  140.3403  155.6357 H   0  0  0  0  0  0  0  0  0  0  0  0  # atno 8009 bound_to 7997
  155.6910  140.0734  157.2439 H   0  0  0  0  0  0  0  0  0  0  0  0  # atno 8010 bound_to 7997
  140.6607  143.2634  151.4448 H   0  0  0  0  0  0  0  0  0  0  0  0  # atno 10167 bound_to 10162
  157.6651  131.0860  150.6073 H   0  0  0  0  0  0  0  0  0  0  0  0  # atno 10718 bound_to 10713
  153.0301  135.5201  154.7329 H   0  0  0  0  0  0  0  0  0  0  0  0  # atno 10763 bound_to 10752
  154.6351  135.2905  155.0172 H   0  0  0  0  0  0  0  0  0  0  0  0  # atno 10764 bound_to 10752
  154.1110  135.6622  153.4937 H   0  0  0  0  0  0  0  0  0  0  0  0  # atno 10765 bound_to 10752
  140.6677  133.9264  155.8475 H   0  0  0  0  0  0  0  0  0  0  0  0  # atno 11005 bound_to 11000
  144.7103  139.8397  143.7417 LP  0  0  0  0  0  0  0  0  0  0  0  0  # atno 17320 bound_to 7965
  146.1158  139.4169  143.0259 LP  0  0  0  0  0  0  0  0  0  0  0  0  # atno 17321 bound_to 7965
  139.5840  144.1645  152.2005 LP  0  0  0  0  0  0  0  0  0  0  0  0  # atno 17342 bound_to 10162
  140.0979  144.5565  150.7009 LP  0  0  0  0  0  0  0  0  0  0  0  0  # atno 17343 bound_to 10162
  156.6374  130.4449  149.5764 LP  0  0  0  0  0  0  0  0  0  0  0  0  # atno 17370 bound_to 10713
  156.2235  130.6751  151.1392 LP  0  0  0  0  0  0  0  0  0  0  0  0  # atno 17371 bound_to 10713
  141.0416  134.0613  157.3895 LP  0  0  0  0  0  0  0  0  0  0  0  0  # atno 17394 bound_to 11000
  139.8992  135.0157  156.7183 LP  0  0  0  0  0  0  0  0  0  0  0  0  # atno 17395 bound_to 11000

$$$$
