AV-unprocessed.smi:1093|AV-procd|sdf|4742|dock2
  -GOLD-   22720 3273D 1   1.00000     0.00000
 Structure written by MMmdl.
 47 48  0  0  0  0  0  0  0  0  2 V2000
  147.9041  135.6312  155.1276 C   0  0  0  0  0  0  0  0  0  0  0  0
  147.3470  134.5735  154.1637 C   0  0  0  0  0  0  0  0  0  0  0  0
  146.7634  135.1702  152.9354 N   0  3  1  0  0  0  0  0  0  0  0  0
  146.4248  134.1377  151.9209 C   0  0  0  0  0  0  0  0  0  0  0  0
  145.9483  134.7805  150.6085 C   0  0  0  0  0  0  0  0  0  0  0  0
  144.7552  135.7122  150.8527 C   0  0  0  0  0  0  0  0  0  0  0  0
  145.1140  136.7567  151.9247 C   0  0  1  0  0  0  0  0  0  0  0  0
  143.9650  137.6038  152.2308 N   0  0  0  0  0  0  0  0  0  0  0  0
  142.7368  137.1593  152.5332 C   0  0  0  0  0  0  0  0  0  0  0  0
  142.4417  135.9656  152.5846 O   0  0  0  0  0  0  0  0  0  0  0  0
  141.8902  138.1808  152.7469 N   0  0  0  0  0  0  0  0  0  0  0  0
  140.5163  138.1271  153.1038 C   0  0  0  0  0  0  0  0  0  0  0  0
  139.7422  139.2926  152.9347 C   0  0  0  0  0  0  0  0  0  0  0  0
  138.3824  139.2732  153.2974 C   0  0  0  0  0  0  0  0  0  0  0  0
  137.8407  138.0854  153.8300 C   0  0  0  0  0  0  0  0  0  0  0  0
  136.4870  138.0537  154.1929 N   0  0  0  0  0  0  0  0  0  0  0  0
  136.0796  136.7721  154.7490 C   0  0  0  0  0  0  0  0  0  0  0  0
  136.0694  139.2321  154.9376 C   0  0  0  0  0  0  0  0  0  0  0  0
  138.5791  136.9652  154.0124 N   0  0  0  0  0  0  0  0  0  0  0  0
  139.8823  136.9896  153.6603 C   0  0  0  0  0  0  0  0  0  0  0  0
  145.6060  136.0639  153.2099 C   0  0  0  0  0  0  0  0  0  0  0  0
  148.4059  135.1539  155.9697 H   0  0  0  0  0  0  0  0  0  0  0  0
  147.1206  136.2663  155.5398 H   0  0  0  0  0  0  0  0  0  0  0  0
  148.6324  136.2730  154.6311 H   0  0  0  0  0  0  0  0  0  0  0  0
  148.1707  133.9148  153.8853 H   0  0  0  0  0  0  0  0  0  0  0  0
  146.6078  133.9463  154.6638 H   0  0  0  0  0  0  0  0  0  0  0  0
  147.3001  133.5199  151.7164 H   0  0  0  0  0  0  0  0  0  0  0  0
  145.6540  133.4747  152.3175 H   0  0  0  0  0  0  0  0  0  0  0  0
  146.7666  135.3441  150.1579 H   0  0  0  0  0  0  0  0  0  0  0  0
  145.6745  134.0057  149.8917 H   0  0  0  0  0  0  0  0  0  0  0  0
  144.4709  136.2009  149.9199 H   0  0  0  0  0  0  0  0  0  0  0  0
  143.8927  135.1262  151.1742 H   0  0  0  0  0  0  0  0  0  0  0  0
  145.9240  137.3857  151.5495 H   0  0  0  0  0  0  0  0  0  0  0  0
  144.1142  138.6021  152.2089 H   0  0  0  0  0  0  0  0  0  0  0  0
  142.2578  139.1062  152.5814 H   0  0  0  0  0  0  0  0  0  0  0  0
  140.1812  140.1922  152.5284 H   0  0  0  0  0  0  0  0  0  0  0  0
  137.7696  140.1536  153.1698 H   0  0  0  0  0  0  0  0  0  0  0  0
  136.4174  135.9496  154.1171 H   0  0  0  0  0  0  0  0  0  0  0  0
  134.9927  136.7197  154.8174 H   0  0  0  0  0  0  0  0  0  0  0  0
  136.4920  136.6318  155.7490 H   0  0  0  0  0  0  0  0  0  0  0  0
  136.4068  140.1439  154.4432 H   0  0  0  0  0  0  0  0  0  0  0  0
  136.4741  139.2180  155.9503 H   0  0  0  0  0  0  0  0  0  0  0  0
  134.9819  139.2688  155.0054 H   0  0  0  0  0  0  0  0  0  0  0  0
  140.4192  136.0746  153.8561 H   0  0  0  0  0  0  0  0  0  0  0  0
  144.7992  135.4832  153.6606 H   0  0  0  0  0  0  0  0  0  0  0  0
  145.8874  136.8274  153.9347 H   0  0  0  0  0  0  0  0  0  0  0  0
  147.4870  135.7422  152.5237 H   0  0  0  0  0  0  0  0  0  0  0  0
  1  2  1  0  0  0  0
  1 22  1  0  0  0  0
  1 23  1  0  0  0  0
  1 24  1  0  0  0  0
  2  3  1  0  0  0  0
  2 25  1  0  0  0  0
  2 26  1  0  0  0  0
  3 21  1  0  0  0  0
  3  4  1  0  0  0  0
  3 47  1  0  0  0  0
  4  5  1  0  0  0  0
  4 27  1  0  0  0  0
  4 28  1  0  0  0  0
  5  6  1  0  0  0  0
  5 29  1  0  0  0  0
  5 30  1  0  0  0  0
  6  7  1  0  0  0  0
  6 31  1  0  0  0  0
  6 32  1  0  0  0  0
  7  8  1  0  0  0  0
  7 21  1  0  0  0  0
  7 33  1  0  0  0  0
  8  9  1  0  0  0  0
  8 34  1  0  0  0  0
  9 10  2  0  0  0  0
  9 11  1  0  0  0  0
 11 12  1  0  0  0  0
 11 35  1  0  0  0  0
 12 20  1  0  0  0  0
 12 13  2  0  0  0  0
 13 14  1  0  0  0  0
 13 36  1  0  0  0  0
 14 15  2  0  0  0  0
 14 37  1  0  0  0  0
 15 16  1  0  0  0  0
 15 19  1  0  0  0  0
 16 17  1  0  0  0  0
 16 18  1  0  0  0  0
 17 38  1  0  0  0  0
 17 39  1  0  0  0  0
 17 40  1  0  0  0  0
 18 41  1  0  0  0  0
 18 42  1  0  0  0  0
 18 43  1  0  0  0  0
 19 20  2  0  0  0  0
 20 44  1  0  0  0  0
 21 45  1  0  0  0  0
 21 46  1  0  0  0  0
M  CHG  1   3   1
M  END
> <s_m_source_file>
AV-unprocessed.smi

> <i_m_source_file_index>
1093

> <i_lp_mmshare_version>
43012

> <i_f3d_flags>
0

> <s_epik_input>
W0NIM11bQ0gyXU4xW0NIMl1bQ0gyXVtDSDJdW0NASF0oW0NIMl0xKVtOSF1DKD1PKVtOSF1jMltjSF1bY0hdYyhOKFtDSDNdKVtDSDNdKW5bY0hdMg==

> <s_epik_cmdline>
J2VwaWtfcHl0aG9uJywgJy1waCcsICc3LjAnLCAnLXRuJywgJzgnLCAnLW1hJywgJzIwMCcsICctbWV0YWxfYmluZGluZycsICctaW1hZScsICc8aW5maWxlLm1hZT4nLCAnLW9tYWUnLCAnPG91dGZpbGUubWFlPic=

> <r_lp_tautomer_probability>
1

> <r_epik_Ionization_Penalty>
0.489418

> <r_epik_Ionization_Penalty_Charging>
0.00268196

> <r_epik_Ionization_Penalty_Neutral>
0.486736

> <r_epik_State_Penalty>
0.491157

> <r_epik_Charging_Adjusted_Penalty>
0.493839

> <i_epik_Tot_Q>
1

> <i_epik_Tot_abs_Q>
1

> <r_epik_Metal_State_Penalty>
0.266953

> <b_epik_Metal_Only>
0

> <s_lp_Force_Field>
OPLS_2005

> <r_lp_Energy>
24.8298

> <b_lp_Chiralities_Consistent>
1

> <s_lp_Variant>
AV-unprocessed.smi:1093-5

> <Gold.Version>
5.8.1

> <Gold.Id.Protein>
6NUR|6NUR_protein|mol2

> <Gold.PLP.Fitness>
41.7603

> <Gold.PLP.PLP>
-30.3053

> <Gold.PLP.part.hbond>
-4.0000

> <Gold.PLP.part.metal>
0.0000

> <Gold.PLP.part.buried>
-2.7887

> <Gold.PLP.part.nonpolar>
-25.1726

> <Gold.PLP.part.repulsive>
0.3387

> <Gold.PLP.ligand.clash>
0.0000

> <Gold.PLP.ligand.torsion>
0.3828

> <Gold.PLP.Chemscore.Hbond>
4.0000

> <Gold.PLP.Chemscore.CHOScore>
0.0000

> <Gold.PLP.Chemscore.Metal>
0.0000

> <Gold.Chemscore.Hbonds>
donor molecule, donor type, donor heavy atom, donor atom, acceptor molecule, acceptor atom, score
      L1  H     3    47       P1  7948  2.00
      L1  H     8    34       P1 10175  1.00
      L1  H    11    35       P1 10175  1.00

> <Gold.PLP.Chemscore.Internal.Correction>
0.2205

> <Gold.Rescore>
     Score         DG    S(hbond)    S(metal)    S(lipo)     H(rot)  DE(clash)    DE(int)     intcor
     16.20     -19.50       2.94        0.00      65.88       1.37       1.52       1.77       ----

> <Gold.Chemscore.Fitness>
16.1999

> <Gold.Chemscore.DG>
-19.4973

> <Gold.Chemscore.ZeroCoef>
-5.4800

> <Gold.Chemscore.Hbond>
2.9393

> <Gold.Chemscore.Metal>
0.0000

> <Gold.Chemscore.Lipo>
65.8834

> <Gold.Chemscore.Internal_Hbond>
0.0000

> <Gold.Chemscore.DEClash>
1.5248

> <Gold.Chemscore.DEInternal>
1.7726

> <Gold.Chemscore.Rot>
1.3704

> <Gold.Chemscore.Internal.Correction>
   9.000000E+99

> <Gold.Chemscore.Hbonds>
donor molecule, donor type, donor heavy atom, donor atom, acceptor molecule, acceptor atom, score
      L1  H     3    47       P1  7948  1.00
      L1  H     8    34       P1 10175  0.98
      L1  H    11    35       P1 10175  0.89

> <Gold.Chemscore.Hbond.Weighted>
-9.8172

> <Gold.Chemscore.Metal.Weighted>
-0.0000

> <Gold.Chemscore.Lipo.Weighted>
-7.7084

> <Gold.Chemscore.Internal_Hbond.Weighted>
0.0000

> <Gold.Chemscore.DEClash.Weighted>
1.5248

> <Gold.Chemscore.DEInternal.Weighted>
1.7726

> <Gold.Chemscore.Rot.Weighted>
3.5082

> <Gold.Chemscore.Internal.Correction.Weighted>
   9.000000E+99

> <Gold.Protein.RotatedTorsions>
[ 6907 6896 6895 6894 ] final -173.88 input  -60.11 | X-H torsion
[ 7974 7965 7964 7962 ] final  -72.79 input  175.53 | X-H torsion
[ 8008 7997 7996 7995 ] final -135.17 input   59.86 | X-H torsion
[ 10167 10162 10161 10158 ] final  -31.93 input  -65.29 | X-H torsion
[ 10718 10713 10712 10709 ] final  -55.19 input   66.30 | X-H torsion
[ 10763 10752 10751 10750 ] final   30.30 input  -60.55 | X-H torsion
[ 11005 11000 10999 10996 ] final  122.27 input  -57.11 | X-H torsion

> <Gold.Protein.ActiveResidues>
 VAL166  LYS551  ARG553  GLY616  TRP617  ASP618  TYR619  PRO620  LYS621  CYS622 
 ASP623  PHE694  ASN695  SER759  ASP760  ASP761  ALA762  ILE779  LEU786  VAL792 
 PHE793  MET794  SER795  GLU796  ALA797  LYS798  CYS799  TRP800  GLU811  SER814 

> <Gold.Protein.RotatedAtoms>
  151.5633  133.3400  159.2975 H   0  0  0  0  0  0  0  0  0  0  0  0  # atno 6907 bound_to 6896
  150.8410  134.7704  159.6943 H   0  0  0  0  0  0  0  0  0  0  0  0  # atno 6908 bound_to 6896
  152.4477  134.5466  159.9906 H   0  0  0  0  0  0  0  0  0  0  0  0  # atno 6909 bound_to 6896
  145.6605  140.9254  143.0936 H   0  0  0  0  0  0  0  0  0  0  0  0  # atno 7974 bound_to 7965
  155.3743  140.0490  157.3045 H   0  0  0  0  0  0  0  0  0  0  0  0  # atno 8008 bound_to 7997
  154.5114  140.2193  155.9111 H   0  0  0  0  0  0  0  0  0  0  0  0  # atno 8009 bound_to 7997
  156.1587  140.3121  155.8776 H   0  0  0  0  0  0  0  0  0  0  0  0  # atno 8010 bound_to 7997
  140.7229  143.3733  151.1737 H   0  0  0  0  0  0  0  0  0  0  0  0  # atno 10167 bound_to 10162
  156.1388  130.4155  150.0138 H   0  0  0  0  0  0  0  0  0  0  0  0  # atno 10718 bound_to 10713
  153.0380  135.6467  154.1023 H   0  0  0  0  0  0  0  0  0  0  0  0  # atno 10763 bound_to 10752
  154.0734  135.2879  155.3305 H   0  0  0  0  0  0  0  0  0  0  0  0  # atno 10764 bound_to 10752
  154.6579  135.5402  153.8046 H   0  0  0  0  0  0  0  0  0  0  0  0  # atno 10765 bound_to 10752
  139.9261  134.9641  156.8084 H   0  0  0  0  0  0  0  0  0  0  0  0  # atno 11005 bound_to 11000
  144.7090  139.8443  143.7420 LP  0  0  0  0  0  0  0  0  0  0  0  0  # atno 17320 bound_to 7965
  146.1129  139.4136  143.0276 LP  0  0  0  0  0  0  0  0  0  0  0  0  # atno 17321 bound_to 7965
  139.7309  143.9075  152.3019 LP  0  0  0  0  0  0  0  0  0  0  0  0  # atno 17342 bound_to 10162
  139.8863  144.6990  150.8820 LP  0  0  0  0  0  0  0  0  0  0  0  0  # atno 17343 bound_to 10162
  156.8030  130.9297  151.3645 LP  0  0  0  0  0  0  0  0  0  0  0  0  # atno 17370 bound_to 10713
  157.6557  130.8922  149.9724 LP  0  0  0  0  0  0  0  0  0  0  0  0  # atno 17371 bound_to 10713
  140.6333  133.9886  155.7672 LP  0  0  0  0  0  0  0  0  0  0  0  0  # atno 17394 bound_to 11000
  141.0819  134.0049  157.3372 LP  0  0  0  0  0  0  0  0  0  0  0  0  # atno 17395 bound_to 11000

$$$$
