AV-unprocessed.smi:2895|AV-procd|sdf|11128|dock6
  -GOLD-   2272016 03D 1   1.00000     0.00000
 Structure written by MMmdl.
 53 56  0  0  0  0  0  0  0  0  2 V2000
  149.0175  141.7112  153.8834 O   0  0  0  0  0  0  0  0  0  0  0  0
  148.7615  140.8718  154.7475 C   0  0  0  0  0  0  0  0  0  0  0  0
  149.4486  140.8048  155.9007 N   0  0  0  0  0  0  0  0  0  0  0  0
  150.5587  141.6748  156.2726 C   0  0  0  0  0  0  0  0  0  0  0  0
  151.0046  141.4409  157.7257 C   0  0  0  0  0  0  0  0  0  0  0  0
  151.1388  142.7384  158.4987 C   0  0  0  0  0  0  0  0  0  0  0  0
  152.3751  143.1138  159.0637 C   0  0  0  0  0  0  0  0  0  0  0  0
  152.4484  144.3305  159.7711 C   0  0  0  0  0  0  0  0  0  0  0  0
  151.3932  145.1573  159.9361 N   0  0  0  0  0  0  0  0  0  0  0  0
  150.2129  144.7908  159.3920 C   0  0  0  0  0  0  0  0  0  0  0  0
  150.0326  143.5968  158.6654 C   0  0  0  0  0  0  0  0  0  0  0  0
  147.7522  139.9712  154.6312 N   0  0  0  0  0  0  0  0  0  0  0  0
  147.5933  138.7338  155.4123 C   0  0  0  0  0  0  0  0  0  0  0  0
  147.8138  137.5143  154.4918 C   0  0  0  0  0  0  0  0  0  0  0  0
  146.9245  137.5400  153.2942 N   0  3  0  0  0  0  0  0  0  0  0  0
  145.5305  137.0824  153.5793 C   0  0  2  0  0  0  0  0  0  0  0  0
  145.4467  135.6776  154.2264 C   0  0  0  0  0  0  0  0  0  0  0  0
  144.4076  134.9482  153.3539 C   0  0  2  0  0  0  0  0  0  0  0  0
  145.0658  134.5628  152.0182 C   0  0  0  0  0  0  0  0  0  0  0  0
  145.2207  135.9243  151.3179 C   0  0  0  0  0  0  0  0  0  0  0  0
  144.6153  136.9115  152.3396 C   0  0  1  0  0  0  0  0  0  0  0  0
  143.4806  136.0800  152.9285 C   0  0  0  0  0  0  0  0  0  0  0  0
  147.0121  138.8477  152.5830 C   0  0  0  0  0  0  0  0  0  0  0  0
  146.7788  140.0362  153.5353 C   0  0  0  0  0  0  0  0  0  0  0  0
  149.1754  140.1046  156.5748 H   0  0  0  0  0  0  0  0  0  0  0  0
  151.3938  141.5273  155.5854 H   0  0  0  0  0  0  0  0  0  0  0  0
  150.2325  142.7076  156.1476 H   0  0  0  0  0  0  0  0  0  0  0  0
  150.2915  140.7915  158.2354 H   0  0  0  0  0  0  0  0  0  0  0  0
  151.9641  140.9226  157.7507 H   0  0  0  0  0  0  0  0  0  0  0  0
  153.2484  142.4870  158.9577 H   0  0  0  0  0  0  0  0  0  0  0  0
  153.3800  144.6481  160.2156 H   0  0  0  0  0  0  0  0  0  0  0  0
  149.3861  145.4697  159.5397 H   0  0  0  0  0  0  0  0  0  0  0  0
  149.0671  143.3499  158.2484 H   0  0  0  0  0  0  0  0  0  0  0  0
  148.2655  138.6587  156.2665 H   0  0  0  0  0  0  0  0  0  0  0  0
  146.5900  138.7134  155.8388 H   0  0  0  0  0  0  0  0  0  0  0  0
  148.8466  137.5181  154.1410 H   0  0  0  0  0  0  0  0  0  0  0  0
  147.6979  136.5907  155.0578 H   0  0  0  0  0  0  0  0  0  0  0  0
  145.0577  137.8034  154.2475 H   0  0  0  0  0  0  0  0  0  0  0  0
  146.3970  135.1421  154.2291 H   0  0  0  0  0  0  0  0  0  0  0  0
  145.1071  135.7550  155.2600 H   0  0  0  0  0  0  0  0  0  0  0  0
  143.9190  134.1129  153.8567 H   0  0  0  0  0  0  0  0  0  0  0  0
  146.0195  134.0516  152.1542 H   0  0  0  0  0  0  0  0  0  0  0  0
  144.4147  133.9059  151.4397 H   0  0  0  0  0  0  0  0  0  0  0  0
  146.2584  136.1488  151.0711 H   0  0  0  0  0  0  0  0  0  0  0  0
  144.6520  135.9377  150.3872 H   0  0  0  0  0  0  0  0  0  0  0  0
  144.2835  137.8524  151.8998 H   0  0  0  0  0  0  0  0  0  0  0  0
  142.7371  135.7762  152.1892 H   0  0  0  0  0  0  0  0  0  0  0  0
  142.9743  136.5641  153.7658 H   0  0  0  0  0  0  0  0  0  0  0  0
  148.0132  138.9286  152.1571 H   0  0  0  0  0  0  0  0  0  0  0  0
  146.3350  138.8955  151.7319 H   0  0  0  0  0  0  0  0  0  0  0  0
  145.7694  140.0052  153.9474 H   0  0  0  0  0  0  0  0  0  0  0  0
  146.8344  140.9701  152.9744 H   0  0  0  0  0  0  0  0  0  0  0  0
  147.2937  136.8524  152.6527 H   0  0  0  0  0  0  0  0  0  0  0  0
  1  2  2  0  0  0  0
  2  3  1  0  0  0  0
  2 12  1  0  0  0  0
  3  4  1  0  0  0  0
  3 25  1  0  0  0  0
  4  5  1  0  0  0  0
  4 26  1  0  0  0  0
  4 27  1  0  0  0  0
  5  6  1  0  0  0  0
  5 28  1  0  0  0  0
  5 29  1  0  0  0  0
  6 11  1  0  0  0  0
  6  7  2  0  0  0  0
  7  8  1  0  0  0  0
  7 30  1  0  0  0  0
  8  9  2  0  0  0  0
  8 31  1  0  0  0  0
  9 10  1  0  0  0  0
 10 11  2  0  0  0  0
 10 32  1  0  0  0  0
 11 33  1  0  0  0  0
 12 24  1  0  0  0  0
 12 13  1  0  0  0  0
 13 14  1  0  0  0  0
 13 34  1  0  0  0  0
 13 35  1  0  0  0  0
 14 15  1  0  0  0  0
 14 36  1  0  0  0  0
 14 37  1  0  0  0  0
 15 16  1  0  0  0  0
 15 23  1  0  0  0  0
 15 53  1  0  0  0  0
 16 21  1  0  0  0  0
 16 17  1  0  0  0  0
 16 38  1  0  0  0  0
 17 18  1  0  0  0  0
 17 39  1  0  0  0  0
 17 40  1  0  0  0  0
 18 22  1  0  0  0  0
 18 19  1  0  0  0  0
 18 41  1  0  0  0  0
 19 20  1  0  0  0  0
 19 42  1  0  0  0  0
 19 43  1  0  0  0  0
 20 21  1  0  0  0  0
 20 44  1  0  0  0  0
 20 45  1  0  0  0  0
 21 22  1  0  0  0  0
 21 46  1  0  0  0  0
 22 47  1  0  0  0  0
 22 48  1  0  0  0  0
 23 24  1  0  0  0  0
 23 49  1  0  0  0  0
 23 50  1  0  0  0  0
 24 51  1  0  0  0  0
 24 52  1  0  0  0  0
M  CHG  1  15   1
M  END
> <s_m_source_file>
AV-unprocessed.smi

> <i_m_source_file_index>
2895

> <i_lp_mmshare_version>
43012

> <i_f3d_flags>
0

> <s_epik_input>
W0NIMl0xW0NIMl1bQ0BASF0oW0NIMl0yKVtDQEBIXShbQ0gyXVtDQEhdMTIpTihbQ0gyXVtDSDJdMylbQ0gyXVtDSDJdTjNDKD1PKVtOSF1bQ0gyXVtDSDJdYzRbY0hdW2NIXW5bY0hdW2NIXTQ=

> <s_epik_cmdline>
J2VwaWtfcHl0aG9uJywgJy1waCcsICc3LjAnLCAnLXRuJywgJzgnLCAnLW1hJywgJzIwMCcsICctbWV0YWxfYmluZGluZycsICctaW1hZScsICc8aW5maWxlLm1hZT4nLCAnLW9tYWUnLCAnPG91dGZpbGUubWFlPic=

> <r_epik_Ionization_Penalty>
0.0566172

> <r_epik_Ionization_Penalty_Charging>
0.00262064

> <r_epik_Ionization_Penalty_Neutral>
0.0539965

> <r_epik_State_Penalty>
0.0463959

> <r_epik_Charging_Adjusted_Penalty>
0.0490165

> <i_epik_Tot_Q>
1

> <i_epik_Tot_abs_Q>
1

> <r_epik_Metal_State_Penalty>
0.0424856

> <b_epik_Metal_Only>
0

> <s_lp_Force_Field>
OPLS_2005

> <r_lp_Energy>
99.7754

> <b_lp_Chiralities_Consistent>
1

> <s_lp_Variant>
AV-unprocessed.smi:2895-1

> <Gold.Version>
5.8.1

> <Gold.Id.Protein>
6NUR|6NUR_protein|mol2

> <Gold.PLP.Fitness>
46.2563

> <Gold.PLP.PLP>
-38.0152

> <Gold.PLP.part.hbond>
-3.0000

> <Gold.PLP.part.metal>
0.0000

> <Gold.PLP.part.buried>
-2.5501

> <Gold.PLP.part.nonpolar>
-32.5058

> <Gold.PLP.part.repulsive>
0.5638

> <Gold.PLP.ligand.clash>
0.0000

> <Gold.PLP.ligand.torsion>
0.4831

> <Gold.PLP.Chemscore.Hbond>
2.3360

> <Gold.PLP.Chemscore.CHOScore>
0.7000

> <Gold.PLP.Chemscore.Metal>
0.0000

> <Gold.Chemscore.Hbonds>
donor molecule, donor type, donor heavy atom, donor atom, acceptor molecule, acceptor atom, score
      L1  H    15    53       P1  7948  1.70
      P1  H  8011  8017       L1     1  0.61
      L1  C    10    32       P1  8029  0.32

> <Gold.PLP.Chemscore.Internal.Correction>
0.0994

> <Gold.Rescore>
     Score         DG    S(hbond)    S(metal)    S(lipo)     H(rot)  DE(clash)    DE(int)     intcor
     18.39     -19.02       1.48        0.00     103.55       1.37       0.11       0.52       ----

> <Gold.Chemscore.Fitness>
18.3911

> <Gold.Chemscore.DG>
-19.0207

> <Gold.Chemscore.ZeroCoef>
-5.4800

> <Gold.Chemscore.Hbond>
1.4793

> <Gold.Chemscore.Metal>
0.0000

> <Gold.Chemscore.Lipo>
103.5465

> <Gold.Chemscore.Internal_Hbond>
0.0000

> <Gold.Chemscore.DEClash>
0.1050

> <Gold.Chemscore.DEInternal>
0.5245

> <Gold.Chemscore.Rot>
1.3731

> <Gold.Chemscore.Internal.Correction>
   9.000000E+99

> <Gold.Chemscore.Hbonds>
donor molecule, donor type, donor heavy atom, donor atom, acceptor molecule, acceptor atom, score
      L1  H    15    53       P1  7948  0.84
      P1  H  8011  8017       L1     1  0.60

> <Gold.Chemscore.Hbond.Weighted>
-4.9409

> <Gold.Chemscore.Metal.Weighted>
-0.0000

> <Gold.Chemscore.Lipo.Weighted>
-12.1149

> <Gold.Chemscore.Internal_Hbond.Weighted>
0.0000

> <Gold.Chemscore.DEClash.Weighted>
0.1050

> <Gold.Chemscore.DEInternal.Weighted>
0.5245

> <Gold.Chemscore.Rot.Weighted>
3.5152

> <Gold.Chemscore.Internal.Correction.Weighted>
   9.000000E+99

> <Gold.Protein.RotatedTorsions>
[ 6907 6896 6895 6894 ] final -135.85 input  -60.11 | X-H torsion
[ 7974 7965 7964 7962 ] final   66.27 input  175.53 | X-H torsion
[ 8008 7997 7996 7995 ] final -125.99 input   59.86 | X-H torsion
[ 10167 10162 10161 10158 ] final -173.37 input  -65.29 | X-H torsion
[ 10718 10713 10712 10709 ] final -167.51 input   66.30 | X-H torsion
[ 10763 10752 10751 10750 ] final -117.90 input  -60.55 | X-H torsion
[ 11005 11000 10999 10996 ] final  -51.50 input  -57.11 | X-H torsion

> <Gold.Protein.ActiveResidues>
 VAL166  LYS551  ARG553  GLY616  TRP617  ASP618  TYR619  PRO620  LYS621  CYS622 
 ASP623  PHE694  ASN695  SER759  ASP760  ASP761  ALA762  ILE779  LEU786  VAL792 
 PHE793  MET794  SER795  GLU796  ALA797  LYS798  CYS799  TRP800  GLU811  SER814 

> <Gold.Protein.RotatedAtoms>
  151.0029  133.6039  159.2692 H   0  0  0  0  0  0  0  0  0  0  0  0  # atno 6907 bound_to 6896
  151.3219  135.0819  159.9318 H   0  0  0  0  0  0  0  0  0  0  0  0  # atno 6908 bound_to 6896
  152.5278  133.9674  159.7800 H   0  0  0  0  0  0  0  0  0  0  0  0  # atno 6909 bound_to 6896
  145.8285  139.3125  143.1001 H   0  0  0  0  0  0  0  0  0  0  0  0  # atno 7974 bound_to 7965
  155.2223  140.0422  157.2950 H   0  0  0  0  0  0  0  0  0  0  0  0  # atno 8008 bound_to 7997
  154.5941  140.2435  155.7851 H   0  0  0  0  0  0  0  0  0  0  0  0  # atno 8009 bound_to 7997
  156.2279  140.2948  156.0122 H   0  0  0  0  0  0  0  0  0  0  0  0  # atno 8010 bound_to 7997
  139.5692  144.1682  152.1358 H   0  0  0  0  0  0  0  0  0  0  0  0  # atno 10167 bound_to 10162
  156.6835  130.9131  151.3060 H   0  0  0  0  0  0  0  0  0  0  0  0  # atno 10718 bound_to 10713
  154.8570  135.4293  154.2053 H   0  0  0  0  0  0  0  0  0  0  0  0  # atno 10763 bound_to 10752
  153.3091  135.6974  153.7138 H   0  0  0  0  0  0  0  0  0  0  0  0  # atno 10764 bound_to 10752
  153.6238  135.3497  155.2993 H   0  0  0  0  0  0  0  0  0  0  0  0  # atno 10765 bound_to 10752
  141.0874  133.6639  156.3886 H   0  0  0  0  0  0  0  0  0  0  0  0  # atno 11005 bound_to 11000
  145.9597  140.8845  143.0217 LP  0  0  0  0  0  0  0  0  0  0  0  0  # atno 17320 bound_to 7965
  144.6741  140.1794  143.7407 LP  0  0  0  0  0  0  0  0  0  0  0  0  # atno 17321 bound_to 7965
  140.1212  144.5372  150.6862 LP  0  0  0  0  0  0  0  0  0  0  0  0  # atno 17342 bound_to 10162
  140.6976  143.2414  151.4956 LP  0  0  0  0  0  0  0  0  0  0  0  0  # atno 17343 bound_to 10162
  157.7035  130.9359  150.0858 LP  0  0  0  0  0  0  0  0  0  0  0  0  # atno 17370 bound_to 10713
  156.1850  130.3652  149.8985 LP  0  0  0  0  0  0  0  0  0  0  0  0  # atno 17371 bound_to 10713
  140.5331  134.6193  157.5356 LP  0  0  0  0  0  0  0  0  0  0  0  0  # atno 17394 bound_to 11000
  139.9694  134.7318  156.0071 LP  0  0  0  0  0  0  0  0  0  0  0  0  # atno 17395 bound_to 11000

$$$$
