AV-unprocessed.smi:3250|AV-procd|sdf|12431|dock8
  -GOLD-   2272018323D 1   1.00000     0.00000
 Structure written by MMmdl.
 40 41  0  0  0  0  0  0  0  0  3 V2000
  143.7754  132.3906  149.6516 C   0  0  0  0  0  0  0  0  0  0  0  0
  144.9650  133.1512  150.2538 C   0  0  0  0  0  0  0  0  0  0  0  0
  144.5671  134.4502  150.8516 N   0  3  1  0  0  0  0  0  0  0  0  0
  143.5734  134.2874  151.9387 C   0  0  0  0  0  0  0  0  0  0  0  0
  143.1555  135.6575  152.4949 C   0  0  0  0  0  0  0  0  0  0  0  0
  144.3083  136.3578  152.9450 O   0  0  0  0  0  0  0  0  0  0  0  0
  145.2334  136.6140  151.8930 C   0  0  1  0  0  0  0  0  0  0  0  0
  146.3974  137.4306  152.4731 C   0  0  0  0  0  0  0  0  0  0  0  0
  146.0155  138.8115  152.7294 N   0  0  0  0  0  0  0  0  0  0  0  0
  146.8498  139.7428  153.3193 C   0  0  0  0  0  0  0  0  0  0  0  0
  146.3701  140.9827  153.4973 N   0  3  0  0  0  0  0  0  0  0  0  0
  147.1514  141.9314  154.0700 C   0  0  0  0  0  0  0  0  0  0  0  0
  148.4606  141.6213  154.4799 C   0  0  0  0  0  0  0  0  0  0  0  0
  148.8989  140.3040  154.2675 C   0  0  0  0  0  0  0  0  0  0  0  0
  150.1719  139.9399  154.6552 O   0  0  0  0  0  0  0  0  0  0  0  0
  150.5603  138.5784  154.5054 C   0  0  0  0  0  0  0  0  0  0  0  0
  148.0884  139.3863  153.6887 N   0  0  0  0  0  0  0  0  0  0  0  0
  145.7158  135.2652  151.3209 C   0  0  0  0  0  0  0  0  0  0  0  0
  144.0882  131.4057  149.3037 H   0  0  0  0  0  0  0  0  0  0  0  0
  143.3451  132.9121  148.7970 H   0  0  0  0  0  0  0  0  0  0  0  0
  142.9872  132.2430  150.3903 H   0  0  0  0  0  0  0  0  0  0  0  0
  145.4034  132.5221  151.0298 H   0  0  0  0  0  0  0  0  0  0  0  0
  145.7432  133.3047  149.5046 H   0  0  0  0  0  0  0  0  0  0  0  0
  142.6944  133.7619  151.5637 H   0  0  0  0  0  0  0  0  0  0  0  0
  143.9986  133.6742  152.7349 H   0  0  0  0  0  0  0  0  0  0  0  0
  142.6292  136.2429  151.7393 H   0  0  0  0  0  0  0  0  0  0  0  0
  142.4703  135.5290  153.3329 H   0  0  0  0  0  0  0  0  0  0  0  0
  144.7459  137.1892  151.1032 H   0  0  0  0  0  0  0  0  0  0  0  0
  146.7584  136.9695  153.3933 H   0  0  0  0  0  0  0  0  0  0  0  0
  147.2308  137.4358  151.7696 H   0  0  0  0  0  0  0  0  0  0  0  0
  145.1002  139.1208  152.4359 H   0  0  0  0  0  0  0  0  0  0  0  0
  146.7022  142.9073  154.1826 H   0  0  0  0  0  0  0  0  0  0  0  0
  149.0996  142.3616  154.9393 H   0  0  0  0  0  0  0  0  0  0  0  0
  151.5843  138.4544  154.8576 H   0  0  0  0  0  0  0  0  0  0  0  0
  150.5305  138.2673  153.4601 H   0  0  0  0  0  0  0  0  0  0  0  0
  149.9253  137.9154  155.0948 H   0  0  0  0  0  0  0  0  0  0  0  0
  146.2689  134.7102  152.0806 H   0  0  0  0  0  0  0  0  0  0  0  0
  146.4049  135.4513  150.4976 H   0  0  0  0  0  0  0  0  0  0  0  0
  144.1056  134.9743  150.1214 H   0  0  0  0  0  0  0  0  0  0  0  0
  145.4226  141.2254  153.2072 H   0  0  0  0  0  0  0  0  0  0  0  0
  1  2  1  0  0  0  0
  1 19  1  0  0  0  0
  1 20  1  0  0  0  0
  1 21  1  0  0  0  0
  2  3  1  0  0  0  0
  2 22  1  0  0  0  0
  2 23  1  0  0  0  0
  3 18  1  0  0  0  0
  3  4  1  0  0  0  0
  3 39  1  0  0  0  0
  4  5  1  0  0  0  0
  4 24  1  0  0  0  0
  4 25  1  0  0  0  0
  5  6  1  0  0  0  0
  5 26  1  0  0  0  0
  5 27  1  0  0  0  0
  6  7  1  0  0  0  0
  7  8  1  0  0  0  0
  7 18  1  0  0  0  0
  7 28  1  0  0  0  0
  8  9  1  0  0  0  0
  8 29  1  0  0  0  0
  8 30  1  0  0  0  0
  9 10  1  0  0  0  0
  9 31  1  0  0  0  0
 10 17  1  0  0  0  0
 10 11  2  0  0  0  0
 11 12  1  0  0  0  0
 11 40  1  0  0  0  0
 12 13  2  0  0  0  0
 12 32  1  0  0  0  0
 13 14  1  0  0  0  0
 13 33  1  0  0  0  0
 14 15  1  0  0  0  0
 14 17  2  0  0  0  0
 15 16  1  0  0  0  0
 16 34  1  0  0  0  0
 16 35  1  0  0  0  0
 16 36  1  0  0  0  0
 18 37  1  0  0  0  0
 18 38  1  0  0  0  0
M  CHG  1   3   1
M  CHG  1  11   1
M  END
> <s_m_source_file>
AV-unprocessed.smi

> <i_m_source_file_index>
3250

> <i_lp_mmshare_version>
43012

> <i_f3d_flags>
0

> <s_epik_input>
W0NIM11bQ0gyXU4xW0NIMl1bQ0gyXU9bQ0BIXShbQ0gyXTEpW0NIMl1bTkhdYzJuW2NIXVtjSF1jKG4yKU9bQ0gzXQ==

> <s_epik_cmdline>
J2VwaWtfcHl0aG9uJywgJy1waCcsICc3LjAnLCAnLXRuJywgJzgnLCAnLW1hJywgJzIwMCcsICctbWV0YWxfYmluZGluZycsICctaW1hZScsICc8aW5maWxlLm1hZT4nLCAnLW9tYWUnLCAnPG91dGZpbGUubWFlPic=

> <r_lp_tautomer_probability>
0.999985

> <r_epik_Ionization_Penalty>
2.24691

> <r_epik_Ionization_Penalty_Charging>
2.24686

> <r_epik_Ionization_Penalty_Neutral>
4.52111e-05

> <r_epik_State_Penalty>
2.24709

> <r_epik_Charging_Adjusted_Penalty>
4.49395

> <i_epik_Tot_Q>
2

> <i_epik_Tot_abs_Q>
2

> <r_epik_Metal_State_Penalty>
2.26327

> <b_epik_Metal_Only>
0

> <s_lp_Force_Field>
OPLS_2005

> <r_lp_Energy>
18.3796

> <b_lp_Chiralities_Consistent>
1

> <s_lp_Variant>
AV-unprocessed.smi:3250-7

> <Gold.Version>
5.8.1

> <Gold.Id.Protein>
6NUR|6NUR_protein|mol2

> <Gold.PLP.Fitness>
47.2645

> <Gold.PLP.PLP>
-33.0152

> <Gold.PLP.part.hbond>
-3.0000

> <Gold.PLP.part.metal>
0.0000

> <Gold.PLP.part.buried>
-2.6529

> <Gold.PLP.part.nonpolar>
-28.9431

> <Gold.PLP.part.repulsive>
1.8274

> <Gold.PLP.ligand.clash>
0.0000

> <Gold.PLP.ligand.torsion>
0.1231

> <Gold.PLP.Chemscore.Hbond>
4.8240

> <Gold.PLP.Chemscore.CHOScore>
0.0000

> <Gold.PLP.Chemscore.Metal>
0.0000

> <Gold.Chemscore.Hbonds>
donor molecule, donor type, donor heavy atom, donor atom, acceptor molecule, acceptor atom, score
      L1  H     9    31       P1 10175  2.00
      L1  H    11    40       P1 10175  1.73
      P1  H  7989  7998       L1    15  0.88

> <Gold.PLP.Chemscore.Internal.Correction>
0.0235

> <Gold.Rescore>
     Score         DG    S(hbond)    S(metal)    S(lipo)     H(rot)  DE(clash)    DE(int)     intcor
     13.59     -14.31       1.61        0.00      67.85       1.75       0.61       0.10       ----

> <Gold.Chemscore.Fitness>
13.5882

> <Gold.Chemscore.DG>
-14.3061

> <Gold.Chemscore.ZeroCoef>
-5.4800

> <Gold.Chemscore.Hbond>
1.6095

> <Gold.Chemscore.Metal>
0.0000

> <Gold.Chemscore.Lipo>
67.8460

> <Gold.Chemscore.Internal_Hbond>
0.0000

> <Gold.Chemscore.DEClash>
0.6139

> <Gold.Chemscore.DEInternal>
0.1040

> <Gold.Chemscore.Rot>
1.7530

> <Gold.Chemscore.Internal.Correction>
   9.000000E+99

> <Gold.Chemscore.Hbonds>
donor molecule, donor type, donor heavy atom, donor atom, acceptor molecule, acceptor atom, score
      L1  H     9    31       P1 10175  0.94
      L1  H    11    40       P1 10175  0.18
      P1  H  7989  7998       L1    15  0.17

> <Gold.Chemscore.Hbond.Weighted>
-5.3758

> <Gold.Chemscore.Metal.Weighted>
-0.0000

> <Gold.Chemscore.Lipo.Weighted>
-7.9380

> <Gold.Chemscore.Internal_Hbond.Weighted>
0.0000

> <Gold.Chemscore.DEClash.Weighted>
0.6139

> <Gold.Chemscore.DEInternal.Weighted>
0.1040

> <Gold.Chemscore.Rot.Weighted>
4.4876

> <Gold.Chemscore.Internal.Correction.Weighted>
   9.000000E+99

> <Gold.Protein.RotatedTorsions>
[ 6907 6896 6895 6894 ] final    5.31 input  -60.11 | X-H torsion
[ 7974 7965 7964 7962 ] final  167.37 input  175.53 | X-H torsion
[ 8008 7997 7996 7995 ] final -119.85 input   59.86 | X-H torsion
[ 10167 10162 10161 10158 ] final -133.92 input  -65.29 | X-H torsion
[ 10718 10713 10712 10709 ] final   27.88 input   66.30 | X-H torsion
[ 10763 10752 10751 10750 ] final  179.46 input  -60.55 | X-H torsion
[ 11005 11000 10999 10996 ] final   -4.81 input  -57.11 | X-H torsion

> <Gold.Protein.ActiveResidues>
 VAL166  LYS551  ARG553  GLY616  TRP617  ASP618  TYR619  PRO620  LYS621  CYS622 
 ASP623  PHE694  ASN695  SER759  ASP760  ASP761  ALA762  ILE779  LEU786  VAL792 
 PHE793  MET794  SER795  GLU796  ALA797  LYS798  CYS799  TRP800  GLU811  SER814 

> <Gold.Protein.RotatedAtoms>
  151.6555  135.0996  160.0168 H   0  0  0  0  0  0  0  0  0  0  0  0  # atno 6907 bound_to 6896
  152.3976  133.6766  159.6298 H   0  0  0  0  0  0  0  0  0  0  0  0  # atno 6908 bound_to 6896
  150.7881  133.8763  159.3314 H   0  0  0  0  0  0  0  0  0  0  0  0  # atno 6909 bound_to 6896
  144.7427  139.8751  143.6392 H   0  0  0  0  0  0  0  0  0  0  0  0  # atno 7974 bound_to 7965
  155.1223  140.0399  157.2753 H   0  0  0  0  0  0  0  0  0  0  0  0  # atno 8008 bound_to 7997
  154.6604  140.2589  155.7089 H   0  0  0  0  0  0  0  0  0  0  0  0  # atno 8009 bound_to 7997
  156.2616  140.2818  156.1074 H   0  0  0  0  0  0  0  0  0  0  0  0  # atno 8010 bound_to 7997
  139.8933  143.6696  152.2608 H   0  0  0  0  0  0  0  0  0  0  0  0  # atno 10167 bound_to 10162
  157.2260  130.7001  149.6291 H   0  0  0  0  0  0  0  0  0  0  0  0  # atno 10718 bound_to 10713
  154.5209  135.2794  155.1263 H   0  0  0  0  0  0  0  0  0  0  0  0  # atno 10763 bound_to 10752
  154.2821  135.6283  153.5355 H   0  0  0  0  0  0  0  0  0  0  0  0  # atno 10764 bound_to 10752
  152.9937  135.5653  154.5698 H   0  0  0  0  0  0  0  0  0  0  0  0  # atno 10765 bound_to 10752
  140.6843  133.9126  155.8576 H   0  0  0  0  0  0  0  0  0  0  0  0  # atno 11005 bound_to 11000
  146.1252  139.4277  143.0203 LP  0  0  0  0  0  0  0  0  0  0  0  0  # atno 17320 bound_to 7965
  145.7245  141.0063  143.1385 LP  0  0  0  0  0  0  0  0  0  0  0  0  # atno 17321 bound_to 7965
  139.7090  144.7623  151.1144 LP  0  0  0  0  0  0  0  0  0  0  0  0  # atno 17342 bound_to 10162
  140.7722  143.5356  150.9373 LP  0  0  0  0  0  0  0  0  0  0  0  0  # atno 17343 bound_to 10162
  155.9678  130.4504  150.5696 LP  0  0  0  0  0  0  0  0  0  0  0  0  # atno 17370 bound_to 10713
  157.3527  131.0736  151.1700 LP  0  0  0  0  0  0  0  0  0  0  0  0  # atno 17371 bound_to 10713
  141.0292  134.0779  157.4033 LP  0  0  0  0  0  0  0  0  0  0  0  0  # atno 17394 bound_to 11000
  139.8942  135.0135  156.6940 LP  0  0  0  0  0  0  0  0  0  0  0  0  # atno 17395 bound_to 11000

$$$$
