AV-unprocessed.smi:1933|AV-procd|sdf|7820|dock2
  -GOLD-   22720 9563D 1   1.00000     0.00000
 Structure written by MMmdl.
 48 50  0  0  0  0  0  0  0  0  2 V2000
  144.8311  136.8047  153.4779 O   0  0  0  0  0  0  0  0  0  0  0  0
  146.0178  136.6804  153.1750 C   0  0  0  0  0  0  0  0  0  0  0  0
  146.9620  137.5798  153.4885 N   0  0  0  0  0  0  0  0  0  0  0  0
  146.7446  138.8189  154.2295 C   0  0  0  0  0  0  0  0  0  0  0  0
  147.8897  139.8546  154.0463 C   0  0  1  0  0  0  0  0  0  0  0  0
  147.5301  141.2974  154.5082 C   0  0  2  0  0  0  0  0  0  0  0  0
  146.9152  141.4239  155.9040 C   0  0  0  0  0  0  0  0  0  0  0  0
  145.8515  142.5185  155.7771 C   0  0  0  0  0  0  0  0  0  0  0  0
  146.0089  143.0413  154.4684 O   0  0  0  0  0  0  0  0  0  0  0  0
  146.4609  141.9808  153.6487 C   0  0  0  0  0  0  0  0  0  0  0  0
  149.1474  139.4070  154.7190 N   0  3  0  0  0  0  0  0  0  0  0  0
  149.8351  138.2379  154.1139 C   0  0  0  0  0  0  0  0  0  0  0  0
  150.9848  137.7808  155.0263 C   0  0  0  0  0  0  0  0  0  0  0  0
  151.8879  138.8618  155.2280 O   0  0  0  0  0  0  0  0  0  0  0  0
  151.2660  139.9698  155.8688 C   0  0  0  0  0  0  0  0  0  0  0  0
  150.1141  140.4973  154.9962 C   0  0  0  0  0  0  0  0  0  0  0  0
  146.5365  135.6599  152.4704 N   0  0  0  0  0  0  0  0  0  0  0  0
  145.8452  134.5869  151.8500 C   0  0  0  0  0  0  0  0  0  0  0  0
  146.5561  133.5861  151.1393 C   0  0  0  0  0  0  0  0  0  0  0  0
  145.8431  132.5432  150.5173 C   0  0  0  0  0  0  0  0  0  0  0  0
  144.4402  132.5317  150.6087 C   0  0  0  0  0  0  0  0  0  0  0  0
  143.8136  133.5744  151.3151 C   0  0  0  0  0  0  0  0  0  0  0  0
  144.4936  134.5762  151.9122 N   0  0  0  0  0  0  0  0  0  0  0  0
  147.9085  137.3897  153.1928 H   0  0  0  0  0  0  0  0  0  0  0  0
  145.7867  139.2623  153.9555 H   0  0  0  0  0  0  0  0  0  0  0  0
  146.6550  138.5364  155.2778 H   0  0  0  0  0  0  0  0  0  0  0  0
  148.1157  139.9173  152.9806 H   0  0  0  0  0  0  0  0  0  0  0  0
  148.4246  141.9215  154.4822 H   0  0  0  0  0  0  0  0  0  0  0  0
  146.4498  140.4946  156.2340 H   0  0  0  0  0  0  0  0  0  0  0  0
  147.6688  141.7008  156.6411 H   0  0  0  0  0  0  0  0  0  0  0  0
  144.8511  142.0954  155.8791 H   0  0  0  0  0  0  0  0  0  0  0  0
  145.9669  143.3027  156.5259 H   0  0  0  0  0  0  0  0  0  0  0  0
  146.8539  142.3574  152.7039 H   0  0  0  0  0  0  0  0  0  0  0  0
  145.6308  141.3055  153.4326 H   0  0  0  0  0  0  0  0  0  0  0  0
  149.1360  137.4151  153.9674 H   0  0  0  0  0  0  0  0  0  0  0  0
  150.2389  138.4988  153.1352 H   0  0  0  0  0  0  0  0  0  0  0  0
  150.6042  137.4229  155.9844 H   0  0  0  0  0  0  0  0  0  0  0  0
  151.5229  136.9515  154.5670 H   0  0  0  0  0  0  0  0  0  0  0  0
  150.9036  139.6770  156.8555 H   0  0  0  0  0  0  0  0  0  0  0  0
  152.0097  140.7520  156.0221 H   0  0  0  0  0  0  0  0  0  0  0  0
  150.5127  140.8951  154.0625 H   0  0  0  0  0  0  0  0  0  0  0  0
  149.6150  141.3192  155.5107 H   0  0  0  0  0  0  0  0  0  0  0  0
  147.5126  135.7400  152.2266 H   0  0  0  0  0  0  0  0  0  0  0  0
  147.6321  133.6081  151.0532 H   0  0  0  0  0  0  0  0  0  0  0  0
  146.3650  131.7688  149.9748 H   0  0  0  0  0  0  0  0  0  0  0  0
  143.8595  131.7485  150.1442 H   0  0  0  0  0  0  0  0  0  0  0  0
  142.7376  133.6070  151.4026 H   0  0  0  0  0  0  0  0  0  0  0  0
  148.8472  139.0962  155.6321 H   0  0  0  0  0  0  0  0  0  0  0  0
  1  2  2  0  0  0  0
  2  3  1  0  0  0  0
  2 17  1  0  0  0  0
  3  4  1  0  0  0  0
  3 24  1  0  0  0  0
  4  5  1  0  0  0  0
  4 25  1  0  0  0  0
  4 26  1  0  0  0  0
  5  6  1  0  0  0  0
  5 11  1  0  0  0  0
  5 27  1  0  0  0  0
  6 10  1  0  0  0  0
  6  7  1  0  0  0  0
  6 28  1  0  0  0  0
  7  8  1  0  0  0  0
  7 29  1  0  0  0  0
  7 30  1  0  0  0  0
  8  9  1  0  0  0  0
  8 31  1  0  0  0  0
  8 32  1  0  0  0  0
  9 10  1  0  0  0  0
 10 33  1  0  0  0  0
 10 34  1  0  0  0  0
 11 16  1  0  0  0  0
 11 12  1  0  0  0  0
 11 48  1  0  0  0  0
 12 13  1  0  0  0  0
 12 35  1  0  0  0  0
 12 36  1  0  0  0  0
 13 14  1  0  0  0  0
 13 37  1  0  0  0  0
 13 38  1  0  0  0  0
 14 15  1  0  0  0  0
 15 16  1  0  0  0  0
 15 39  1  0  0  0  0
 15 40  1  0  0  0  0
 16 41  1  0  0  0  0
 16 42  1  0  0  0  0
 17 18  1  0  0  0  0
 17 43  1  0  0  0  0
 18 23  1  0  0  0  0
 18 19  2  0  0  0  0
 19 20  1  0  0  0  0
 19 44  1  0  0  0  0
 20 21  2  0  0  0  0
 20 45  1  0  0  0  0
 21 22  1  0  0  0  0
 21 46  1  0  0  0  0
 22 23  2  0  0  0  0
 22 47  1  0  0  0  0
M  CHG  1  11   1
M  END
> <s_m_source_file>
AV-unprocessed.smi

> <i_m_source_file_index>
1933

> <i_lp_mmshare_version>
43012

> <i_f3d_flags>
0

> <s_epik_input>
bjFbY0hdW2NIXVtjSF1bY0hdYzFbTkhdQyg9TylbTkhdW0NIMl1bQ0BIXShbQ0BASF0yW0NIMl1bQ0gyXU9bQ0gyXTIpTjNbQ0gyXVtDSDJdT1tDSDJdW0NIMl0z

> <s_epik_cmdline>
J2VwaWtfcHl0aG9uJywgJy1waCcsICc3LjAnLCAnLXRuJywgJzgnLCAnLW1hJywgJzIwMCcsICctbWV0YWxfYmluZGluZycsICctaW1hZScsICc8aW5maWxlLm1hZT4nLCAnLW9tYWUnLCAnPG91dGZpbGUubWFlPic=

> <r_epik_Ionization_Penalty>
0.983294

> <r_epik_Ionization_Penalty_Charging>
0.98326

> <r_epik_Ionization_Penalty_Neutral>
3.39688e-05

> <r_epik_State_Penalty>
1.0303

> <r_epik_Charging_Adjusted_Penalty>
2.01356

> <i_epik_Tot_Q>
1

> <i_epik_Tot_abs_Q>
1

> <r_epik_Metal_State_Penalty>
1.0303

> <b_epik_Metal_Only>
0

> <s_lp_Force_Field>
OPLS_2005

> <r_lp_Energy>
43.6882

> <b_lp_Chiralities_Consistent>
1

> <s_lp_Variant>
AV-unprocessed.smi:1933-6

> <Gold.Version>
5.8.1

> <Gold.Id.Protein>
6NUR|6NUR_protein|mol2

> <Gold.PLP.Fitness>
41.1555

> <Gold.PLP.PLP>
-33.9138

> <Gold.PLP.part.hbond>
-1.9806

> <Gold.PLP.part.metal>
0.0000

> <Gold.PLP.part.buried>
-5.7764

> <Gold.PLP.part.nonpolar>
-28.5410

> <Gold.PLP.part.repulsive>
0.5849

> <Gold.PLP.ligand.clash>
0.0485

> <Gold.PLP.ligand.torsion>
0.7085

> <Gold.PLP.Chemscore.Hbond>
1.8160

> <Gold.PLP.Chemscore.CHOScore>
1.0000

> <Gold.PLP.Chemscore.Metal>
0.0000

> <Gold.Chemscore.Hbonds>
donor molecule, donor type, donor heavy atom, donor atom, acceptor molecule, acceptor atom, score
      L1  H     3    24       P1  7948  0.78
      L1  H    17    43       P1  7948  1.00
      L1  C    22    47       P1 10186  0.66

> <Gold.PLP.Chemscore.Internal.Correction>
0.2592

> <Gold.Rescore>
     Score         DG    S(hbond)    S(metal)    S(lipo)     H(rot)  DE(clash)    DE(int)     intcor
     14.72     -17.96       1.94        0.00      90.01       1.77       0.89       2.35       ----

> <Gold.Chemscore.Fitness>
14.7227

> <Gold.Chemscore.DG>
-17.9649

> <Gold.Chemscore.ZeroCoef>
-5.4800

> <Gold.Chemscore.Hbond>
1.9395

> <Gold.Chemscore.Metal>
0.0000

> <Gold.Chemscore.Lipo>
90.0052

> <Gold.Chemscore.Internal_Hbond>
0.0000

> <Gold.Chemscore.DEClash>
0.8938

> <Gold.Chemscore.DEInternal>
2.3484

> <Gold.Chemscore.Rot>
1.7671

> <Gold.Chemscore.Internal.Correction>
   9.000000E+99

> <Gold.Chemscore.Hbonds>
donor molecule, donor type, donor heavy atom, donor atom, acceptor molecule, acceptor atom, score
      L1  H     3    24       P1  7948  0.74
      L1  H    17    43       P1  7948  0.94

> <Gold.Chemscore.Hbond.Weighted>
-6.4781

> <Gold.Chemscore.Metal.Weighted>
-0.0000

> <Gold.Chemscore.Lipo.Weighted>
-10.5306

> <Gold.Chemscore.Internal_Hbond.Weighted>
0.0000

> <Gold.Chemscore.DEClash.Weighted>
0.8938

> <Gold.Chemscore.DEInternal.Weighted>
2.3484

> <Gold.Chemscore.Rot.Weighted>
4.5238

> <Gold.Chemscore.Internal.Correction.Weighted>
   9.000000E+99

> <Gold.Protein.RotatedTorsions>
[ 6907 6896 6895 6894 ] final  -12.43 input  -60.11 | X-H torsion
[ 7974 7965 7964 7962 ] final  -88.23 input  175.53 | X-H torsion
[ 8008 7997 7996 7995 ] final  178.93 input   59.86 | X-H torsion
[ 10167 10162 10161 10158 ] final   78.57 input  -65.29 | X-H torsion
[ 10718 10713 10712 10709 ] final  -48.01 input   66.30 | X-H torsion
[ 10763 10752 10751 10750 ] final   73.07 input  -60.55 | X-H torsion
[ 11005 11000 10999 10996 ] final  106.29 input  -57.11 | X-H torsion

> <Gold.Protein.ActiveResidues>
 VAL166  LYS551  ARG553  GLY616  TRP617  ASP618  TYR619  PRO620  LYS621  CYS622 
 ASP623  PHE694  ASN695  SER759  ASP760  ASP761  ALA762  ILE779  LEU786  VAL792 
 PHE793  MET794  SER795  GLU796  ALA797  LYS798  CYS799  TRP800  GLU811  SER814 

> <Gold.Protein.RotatedAtoms>
  151.3707  135.0922  159.9464 H   0  0  0  0  0  0  0  0  0  0  0  0  # atno 6907 bound_to 6896
  152.5136  133.9167  159.7525 H   0  0  0  0  0  0  0  0  0  0  0  0  # atno 6908 bound_to 6896
  150.9581  133.6421  159.2788 H   0  0  0  0  0  0  0  0  0  0  0  0  # atno 6909 bound_to 6896
  145.4559  140.9561  143.1996 H   0  0  0  0  0  0  0  0  0  0  0  0  # atno 7974 bound_to 7965
  156.0491  140.1321  157.0070 H   0  0  0  0  0  0  0  0  0  0  0  0  # atno 8008 bound_to 7997
  154.4426  140.1014  156.6421 H   0  0  0  0  0  0  0  0  0  0  0  0  # atno 8009 bound_to 7997
  155.5550  140.3463  155.4480 H   0  0  0  0  0  0  0  0  0  0  0  0  # atno 8010 bound_to 7997
  139.9696  144.5904  150.7998 H   0  0  0  0  0  0  0  0  0  0  0  0  # atno 10167 bound_to 10162
  156.2029  130.4157  149.9216 H   0  0  0  0  0  0  0  0  0  0  0  0  # atno 10718 bound_to 10713
  153.0498  135.5076  154.7839 H   0  0  0  0  0  0  0  0  0  0  0  0  # atno 10763 bound_to 10752
  154.6710  135.2953  154.9744 H   0  0  0  0  0  0  0  0  0  0  0  0  # atno 10764 bound_to 10752
  154.0563  135.6697  153.4859 H   0  0  0  0  0  0  0  0  0  0  0  0  # atno 10765 bound_to 10752
  139.8812  134.9364  156.5644 H   0  0  0  0  0  0  0  0  0  0  0  0  # atno 11005 bound_to 11000
  144.8032  139.6100  143.7062 LP  0  0  0  0  0  0  0  0  0  0  0  0  # atno 17320 bound_to 7965
  146.2478  139.6135  142.9448 LP  0  0  0  0  0  0  0  0  0  0  0  0  # atno 17321 bound_to 7965
  140.7526  143.2994  151.3120 LP  0  0  0  0  0  0  0  0  0  0  0  0  # atno 17342 bound_to 10162
  139.6491  144.0395  152.2613 LP  0  0  0  0  0  0  0  0  0  0  0  0  # atno 17343 bound_to 10162
  156.6920  130.8899  151.3589 LP  0  0  0  0  0  0  0  0  0  0  0  0  # atno 17370 bound_to 10713
  157.6996  130.9319  150.0746 LP  0  0  0  0  0  0  0  0  0  0  0  0  # atno 17371 bound_to 10713
  140.8145  133.8402  155.8840 LP  0  0  0  0  0  0  0  0  0  0  0  0  # atno 17394 bound_to 11000
  140.9475  134.1821  157.4752 LP  0  0  0  0  0  0  0  0  0  0  0  0  # atno 17395 bound_to 11000

$$$$
