AV-unprocessed.smi:1022|AV-procd|sdf|4461|dock5
  -GOLD-   22720 2433D 1   1.00000     0.00000
 Structure written by MMmdl.
 32 33  0  0  0  0  0  0  0  0  2 V2000
  151.6826  139.6002  155.1655 C   0  0  0  0  0  0  0  0  0  0  0  0
  150.7963  140.6647  154.8706 O   0  0  0  0  0  0  0  0  0  0  0  0
  149.5029  140.2101  154.5024 C   0  0  0  0  0  0  0  0  0  0  0  0
  148.5038  141.3816  154.5217 C   0  0  1  0  0  0  0  0  0  0  0  0
  147.2514  141.0940  153.6815 C   0  0  0  0  0  0  0  0  0  0  0  0
  148.1177  141.7157  155.8911 N   0  0  0  0  0  0  0  0  0  0  0  0
  147.7081  140.8518  156.8316 C   0  0  0  0  0  0  0  0  0  0  0  0
  147.6359  139.6480  156.5732 O   0  0  0  0  0  0  0  0  0  0  0  0
  147.4034  141.4366  158.0125 N   0  5  0  0  0  0  0  0  0  0  0  0
  148.3565  142.0763  158.7101 C   0  0  0  0  0  0  0  0  0  0  0  0
  148.1336  142.5888  159.9286 N   0  0  0  0  0  0  0  0  0  0  0  0
  149.2510  143.2055  160.4724 N   0  0  0  0  0  0  0  0  0  0  0  0
  150.3070  143.1436  159.6579 C   0  0  0  0  0  0  0  0  0  0  0  0
  151.6277  143.7392  160.0151 C   0  0  0  0  0  0  0  0  0  0  0  0
  152.1394  144.9679  159.2988 C   0  0  0  0  0  0  0  0  0  0  0  0
  152.8195  143.6390  159.0880 C   0  0  0  0  0  0  0  0  0  0  0  0
  150.0106  142.3043  158.1435 S   0  0  0  0  0  0  0  0  0  0  0  0
  152.6565  140.0017  155.4453 H   0  0  0  0  0  0  0  0  0  0  0  0
  151.8221  138.9526  154.2989 H   0  0  0  0  0  0  0  0  0  0  0  0
  151.3140  138.9988  155.9974 H   0  0  0  0  0  0  0  0  0  0  0  0
  149.5350  139.7595  153.5090 H   0  0  0  0  0  0  0  0  0  0  0  0
  149.1751  139.4327  155.1943 H   0  0  0  0  0  0  0  0  0  0  0  0
  148.9933  142.2510  154.0793 H   0  0  0  0  0  0  0  0  0  0  0  0
  147.5165  140.8695  152.6482 H   0  0  0  0  0  0  0  0  0  0  0  0
  146.5818  141.9547  153.6703 H   0  0  0  0  0  0  0  0  0  0  0  0
  146.6928  140.2438  154.0745 H   0  0  0  0  0  0  0  0  0  0  0  0
  148.1555  142.6913  156.1473 H   0  0  0  0  0  0  0  0  0  0  0  0
  151.8079  143.6597  161.0856 H   0  0  0  0  0  0  0  0  0  0  0  0
  151.5408  145.3608  158.4792 H   0  0  0  0  0  0  0  0  0  0  0  0
  152.6634  145.7136  159.8933 H   0  0  0  0  0  0  0  0  0  0  0  0
  153.7973  143.4972  159.5433 H   0  0  0  0  0  0  0  0  0  0  0  0
  152.6817  143.1585  158.1214 H   0  0  0  0  0  0  0  0  0  0  0  0
  1  2  1  0  0  0  0
  1 18  1  0  0  0  0
  1 19  1  0  0  0  0
  1 20  1  0  0  0  0
  2  3  1  0  0  0  0
  3  4  1  0  0  0  0
  3 21  1  0  0  0  0
  3 22  1  0  0  0  0
  4  5  1  0  0  0  0
  4  6  1  0  0  0  0
  4 23  1  0  0  0  0
  5 24  1  0  0  0  0
  5 25  1  0  0  0  0
  5 26  1  0  0  0  0
  6  7  1  0  0  0  0
  6 27  1  0  0  0  0
  7  8  2  0  0  0  0
  7  9  1  0  0  0  0
  9 10  1  0  0  0  0
 10 17  1  0  0  0  0
 10 11  2  0  0  0  0
 11 12  1  0  0  0  0
 12 13  2  0  0  0  0
 13 14  1  0  0  0  0
 13 17  1  0  0  0  0
 14 16  1  0  0  0  0
 14 15  1  0  0  0  0
 14 28  1  0  0  0  0
 15 16  1  0  0  0  0
 15 29  1  0  0  0  0
 15 30  1  0  0  0  0
 16 31  1  0  0  0  0
 16 32  1  0  0  0  0
M  CHG  1   9  -1
M  END
> <s_m_source_file>
AV-unprocessed.smi

> <i_m_source_file_index>
1022

> <i_lp_mmshare_version>
43012

> <i_f3d_flags>
0

> <s_epik_input>
W0NIM11PW0NIMl1bQ0BIXShbQ0gzXSlbTkhdQyg9TylbTkhdYzFubmMoczEpW0NIXTJbQ0gyXVtDSDJdMg==

> <s_epik_cmdline>
J2VwaWtfcHl0aG9uJywgJy1waCcsICc3LjAnLCAnLXRuJywgJzgnLCAnLW1hJywgJzIwMCcsICctbWV0YWxfYmluZGluZycsICctaW1hZScsICc8aW5maWxlLm1hZT4nLCAnLW9tYWUnLCAnPG91dGZpbGUubWFlPic=

> <r_lp_tautomer_probability>
1

> <r_epik_Ionization_Penalty>
3.79487

> <r_epik_Ionization_Penalty_Charging>
3.64217

> <r_epik_Ionization_Penalty_Neutral>
0.152695

> <r_epik_State_Penalty>
3.6409

> <r_epik_Charging_Adjusted_Penalty>
7.28307

> <i_epik_Tot_Q>
-1

> <i_epik_Tot_abs_Q>
1

> <r_epik_Metal_State_Penalty>
0.534129

> <b_epik_Metal_Only>
1

> <s_lp_Force_Field>
OPLS_2005

> <r_lp_Energy>
0.506403

> <b_lp_Chiralities_Consistent>
1

> <s_lp_Variant>
AV-unprocessed.smi:1022-4

> <Gold.Version>
5.8.1

> <Gold.Id.Protein>
6NUR|6NUR_protein|mol2

> <Gold.PLP.Fitness>
37.4033

> <Gold.PLP.PLP>
-33.3078

> <Gold.PLP.part.hbond>
-3.7882

> <Gold.PLP.part.metal>
0.0000

> <Gold.PLP.part.buried>
-4.8555

> <Gold.PLP.part.nonpolar>
-25.6356

> <Gold.PLP.part.repulsive>
0.5606

> <Gold.PLP.ligand.clash>
0.0000

> <Gold.PLP.ligand.torsion>
1.0625

> <Gold.PLP.Chemscore.Hbond>
2.0000

> <Gold.PLP.Chemscore.CHOScore>
0.0000

> <Gold.PLP.Chemscore.Metal>
0.0000

> <Gold.Chemscore.Hbonds>
donor molecule, donor type, donor heavy atom, donor atom, acceptor molecule, acceptor atom, score
      L1  H     6    27       P1  8028  0.56
      P1  H  6934  6946       L1    11  0.12
      P1  H  7989  7998       L1     2  0.38

> <Gold.PLP.Chemscore.Internal.Correction>
0.2204

> <Gold.Rescore>
     Score         DG    S(hbond)    S(metal)    S(lipo)     H(rot)  DE(clash)    DE(int)     intcor
     14.06     -16.80       1.88        0.00      80.27       1.69       0.04       2.70       ----

> <Gold.Chemscore.Fitness>
14.0648

> <Gold.Chemscore.DG>
-16.8021

> <Gold.Chemscore.ZeroCoef>
-5.4800

> <Gold.Chemscore.Hbond>
1.8750

> <Gold.Chemscore.Metal>
0.0000

> <Gold.Chemscore.Lipo>
80.2672

> <Gold.Chemscore.Internal_Hbond>
0.0000

> <Gold.Chemscore.DEClash>
0.0368

> <Gold.Chemscore.DEInternal>
2.7005

> <Gold.Chemscore.Rot>
1.6921

> <Gold.Chemscore.Internal.Correction>
   9.000000E+99

> <Gold.Chemscore.Hbonds>
donor molecule, donor type, donor heavy atom, donor atom, acceptor molecule, acceptor atom, score
      L1  H     6    27       P1  8028  0.44
      P1  H  6934  6946       L1    11  0.02
      P1  H  7989  7998       L1     2  0.01

> <Gold.Chemscore.Hbond.Weighted>
-6.2625

> <Gold.Chemscore.Metal.Weighted>
-0.0000

> <Gold.Chemscore.Lipo.Weighted>
-9.3913

> <Gold.Chemscore.Internal_Hbond.Weighted>
0.0000

> <Gold.Chemscore.DEClash.Weighted>
0.0368

> <Gold.Chemscore.DEInternal.Weighted>
2.7005

> <Gold.Chemscore.Rot.Weighted>
4.3317

> <Gold.Chemscore.Internal.Correction.Weighted>
   9.000000E+99

> <Gold.Protein.RotatedTorsions>
[ 6907 6896 6895 6894 ] final    5.01 input  -60.11 | X-H torsion
[ 7974 7965 7964 7962 ] final   98.77 input  175.53 | X-H torsion
[ 8008 7997 7996 7995 ] final  -74.40 input   59.86 | X-H torsion
[ 10167 10162 10161 10158 ] final  -71.07 input  -65.29 | X-H torsion
[ 10718 10713 10712 10709 ] final  167.11 input   66.30 | X-H torsion
[ 10763 10752 10751 10750 ] final   73.95 input  -60.55 | X-H torsion
[ 11005 11000 10999 10996 ] final  128.19 input  -57.11 | X-H torsion

> <Gold.Protein.ActiveResidues>
 VAL166  LYS551  ARG553  GLY616  TRP617  ASP618  TYR619  PRO620  LYS621  CYS622 
 ASP623  PHE694  ASN695  SER759  ASP760  ASP761  ALA762  ILE779  LEU786  VAL792 
 PHE793  MET794  SER795  GLU796  ALA797  LYS798  CYS799  TRP800  GLU811  SER814 

> <Gold.Protein.RotatedAtoms>
  151.6506  135.1002  160.0159 H   0  0  0  0  0  0  0  0  0  0  0  0  # atno 6907 bound_to 6896
  152.4003  133.6803  159.6319 H   0  0  0  0  0  0  0  0  0  0  0  0  # atno 6908 bound_to 6896
  150.7904  133.8720  159.3302 H   0  0  0  0  0  0  0  0  0  0  0  0  # atno 6909 bound_to 6896
  145.4078  139.2338  143.3265 H   0  0  0  0  0  0  0  0  0  0  0  0  # atno 7974 bound_to 7965
  154.5328  140.0762  156.8374 H   0  0  0  0  0  0  0  0  0  0  0  0  # atno 8008 bound_to 7997
  155.3340  140.3403  155.4221 H   0  0  0  0  0  0  0  0  0  0  0  0  # atno 8009 bound_to 7997
  156.1798  140.1648  156.8282 H   0  0  0  0  0  0  0  0  0  0  0  0  # atno 8010 bound_to 7997
  140.5302  143.2322  151.7276 H   0  0  0  0  0  0  0  0  0  0  0  0  # atno 10167 bound_to 10162
  157.0562  131.0327  151.2663 H   0  0  0  0  0  0  0  0  0  0  0  0  # atno 10718 bound_to 10713
  153.0554  135.5044  154.7969 H   0  0  0  0  0  0  0  0  0  0  0  0  # atno 10763 bound_to 10752
  154.6799  135.2966  154.9630 H   0  0  0  0  0  0  0  0  0  0  0  0  # atno 10764 bound_to 10752
  154.0419  135.6715  153.4843 H   0  0  0  0  0  0  0  0  0  0  0  0  # atno 10765 bound_to 10752
  139.9547  134.9615  156.8966 H   0  0  0  0  0  0  0  0  0  0  0  0  # atno 11005 bound_to 11000
  146.2720  140.4785  142.8810 LP  0  0  0  0  0  0  0  0  0  0  0  0  # atno 17320 bound_to 7965
  144.8330  140.6737  143.6279 LP  0  0  0  0  0  0  0  0  0  0  0  0  # atno 17321 bound_to 7965
  139.4951  144.4126  152.0065 LP  0  0  0  0  0  0  0  0  0  0  0  0  # atno 17342 bound_to 10162
  140.3227  144.3409  150.6005 LP  0  0  0  0  0  0  0  0  0  0  0  0  # atno 17343 bound_to 10162
  157.4991  130.7869  149.7586 LP  0  0  0  0  0  0  0  0  0  0  0  0  # atno 17370 bound_to 10713
  155.9992  130.3890  150.2672 LP  0  0  0  0  0  0  0  0  0  0  0  0  # atno 17371 bound_to 10713
  140.5636  134.0511  155.7407 LP  0  0  0  0  0  0  0  0  0  0  0  0  # atno 17394 bound_to 11000
  141.1217  133.9450  157.2716 LP  0  0  0  0  0  0  0  0  0  0  0  0  # atno 17395 bound_to 11000

$$$$
