AV-unprocessed.smi:2717|AV-procd|sdf|10485|dock8
  -GOLD-   2272014533D 1   1.00000     0.00000
 Structure written by MMmdl.
 43 44  0  0  0  0  0  0  0  0  1 V2000
  150.9005  141.4946  157.5546 C   0  0  0  0  0  0  0  0  0  0  0  0
  150.8393  141.7822  156.0505 C   0  0  0  0  0  0  0  0  0  0  0  0
  150.1476  140.7023  155.2878 C   0  0  0  0  0  0  0  0  0  0  0  0
  148.9391  140.8475  154.7372 N   0  0  0  0  0  0  0  0  0  0  0  0
  148.5203  139.7039  154.0505 C   0  0  0  0  0  0  0  0  0  0  0  0
  147.1729  139.6762  153.3892 C   0  0  0  0  0  0  0  0  0  0  0  0
  146.3169  138.4563  153.7869 C   0  0  0  0  0  0  0  0  0  0  0  0
  146.6468  137.2555  153.0245 N   0  0  0  0  0  0  0  0  0  0  0  0
  145.8643  136.1733  152.9177 C   0  0  0  0  0  0  0  0  0  0  0  0
  144.7789  136.0475  153.4853 O   0  0  0  0  0  0  0  0  0  0  0  0
  146.3972  135.2551  152.0999 N   0  0  0  0  0  0  0  0  0  0  0  0
  145.7656  133.9934  151.7276 C   0  0  2  0  0  0  0  0  0  0  0  0
  146.5446  133.3498  150.5663 C   0  0  0  0  0  0  0  0  0  0  0  0
  145.8836  132.0412  150.0987 C   0  0  0  0  0  0  0  0  0  0  0  0
  144.4001  132.2354  149.7323 C   0  0  2  0  0  0  0  0  0  0  0  0
  144.2885  132.9950  148.5450 O   0  0  0  0  0  0  0  0  0  0  0  0
  143.6203  132.9204  150.8701 C   0  0  0  0  0  0  0  0  0  0  0  0
  144.2920  134.2242  151.3355 C   0  0  0  0  0  0  0  0  0  0  0  0
  149.4435  138.6882  154.0758 C   0  0  0  0  0  0  0  0  0  0  0  0
  150.8721  139.1306  154.9681 S   0  0  0  0  0  0  0  0  0  0  0  0
  151.4093  142.3004  158.0840 H   0  0  0  0  0  0  0  0  0  0  0  0
  151.4411  140.5695  157.7568 H   0  0  0  0  0  0  0  0  0  0  0  0
  149.8998  141.3978  157.9769 H   0  0  0  0  0  0  0  0  0  0  0  0
  150.3180  142.7232  155.8728 H   0  0  0  0  0  0  0  0  0  0  0  0
  151.8481  141.9038  155.6537 H   0  0  0  0  0  0  0  0  0  0  0  0
  146.6235  140.5882  153.6248 H   0  0  0  0  0  0  0  0  0  0  0  0
  147.2984  139.6869  152.3060 H   0  0  0  0  0  0  0  0  0  0  0  0
  146.4839  138.2260  154.8393 H   0  0  0  0  0  0  0  0  0  0  0  0
  145.2552  138.6858  153.6859 H   0  0  0  0  0  0  0  0  0  0  0  0
  147.5190  137.2652  152.5160 H   0  0  0  0  0  0  0  0  0  0  0  0
  147.2939  135.4548  151.6813 H   0  0  0  0  0  0  0  0  0  0  0  0
  145.8022  133.3112  152.5795 H   0  0  0  0  0  0  0  0  0  0  0  0
  146.6037  134.0467  149.7289 H   0  0  0  0  0  0  0  0  0  0  0  0
  147.5724  133.1498  150.8721 H   0  0  0  0  0  0  0  0  0  0  0  0
  146.4316  131.6255  149.2523 H   0  0  0  0  0  0  0  0  0  0  0  0
  145.9576  131.3036  150.8988 H   0  0  0  0  0  0  0  0  0  0  0  0
  143.9526  131.2618  149.5299 H   0  0  0  0  0  0  0  0  0  0  0  0
  145.1186  133.4137  148.3767 H   0  0  0  0  0  0  0  0  0  0  0  0
  142.5935  133.1182  150.5601 H   0  0  0  0  0  0  0  0  0  0  0  0
  143.5542  132.2362  151.7170 H   0  0  0  0  0  0  0  0  0  0  0  0
  143.7376  134.6361  152.1796 H   0  0  0  0  0  0  0  0  0  0  0  0
  144.2335  134.9680  150.5395 H   0  0  0  0  0  0  0  0  0  0  0  0
  149.3663  137.7082  153.6284 H   0  0  0  0  0  0  0  0  0  0  0  0
  1  2  1  0  0  0  0
  1 21  1  0  0  0  0
  1 22  1  0  0  0  0
  1 23  1  0  0  0  0
  2  3  1  0  0  0  0
  2 24  1  0  0  0  0
  2 25  1  0  0  0  0
  3 20  1  0  0  0  0
  3  4  2  0  0  0  0
  4  5  1  0  0  0  0
  5  6  1  0  0  0  0
  5 19  2  0  0  0  0
  6  7  1  0  0  0  0
  6 26  1  0  0  0  0
  6 27  1  0  0  0  0
  7  8  1  0  0  0  0
  7 28  1  0  0  0  0
  7 29  1  0  0  0  0
  8  9  1  0  0  0  0
  8 30  1  0  0  0  0
  9 10  2  0  0  0  0
  9 11  1  0  0  0  0
 11 12  1  0  0  0  0
 11 31  1  0  0  0  0
 12 18  1  0  0  0  0
 12 13  1  0  0  0  0
 12 32  1  0  0  0  0
 13 14  1  0  0  0  0
 13 33  1  0  0  0  0
 13 34  1  0  0  0  0
 14 15  1  0  0  0  0
 14 35  1  0  0  0  0
 14 36  1  0  0  0  0
 15 16  1  0  0  0  0
 15 17  1  0  0  0  0
 15 37  1  0  0  0  0
 16 38  1  0  0  0  0
 17 18  1  0  0  0  0
 17 39  1  0  0  0  0
 17 40  1  0  0  0  0
 18 41  1  0  0  0  0
 18 42  1  0  0  0  0
 19 20  1  0  0  0  0
 19 43  1  0  0  0  0
M  END
> <s_m_source_file>
AV-unprocessed.smi

> <i_m_source_file_index>
2717

> <i_lp_mmshare_version>
43012

> <i_f3d_flags>
0

> <s_epik_input>
W0NIM11bQ0gyXWMxbmMoW2NIXXMxKVtDSDJdW0NIMl1bTkhdQyg9TylbTkhdW0NAQEhdMltDSDJdW0NIMl1bQ0BASF0oW09IXSlbQ0gyXVtDSDJdMg==

> <s_epik_cmdline>
J2VwaWtfcHl0aG9uJywgJy1waCcsICc3LjAnLCAnLXRuJywgJzgnLCAnLW1hJywgJzIwMCcsICctbWV0YWxfYmluZGluZycsICctaW1hZScsICc8aW5maWxlLm1hZT4nLCAnLW9tYWUnLCAnPG91dGZpbGUubWFlPic=

> <r_epik_Ionization_Penalty>
0.00202099

> <r_epik_Ionization_Penalty_Charging>
0

> <r_epik_Ionization_Penalty_Neutral>
0.00202099

> <r_epik_State_Penalty>
0.00133629

> <r_epik_Charging_Adjusted_Penalty>
0.00133629

> <i_epik_Tot_Q>
0

> <i_epik_Tot_abs_Q>
0

> <r_epik_Metal_State_Penalty>
-0

> <b_epik_Metal_Only>
0

> <s_lp_Force_Field>
OPLS_2005

> <r_lp_Energy>
0.0101123

> <b_lp_Chiralities_Consistent>
1

> <s_lp_Variant>
AV-unprocessed.smi:2717-2

> <Gold.Version>
5.8.1

> <Gold.Id.Protein>
6NUR|6NUR_protein|mol2

> <Gold.PLP.Fitness>
49.3520

> <Gold.PLP.PLP>
-38.6387

> <Gold.PLP.part.hbond>
-3.4989

> <Gold.PLP.part.metal>
0.0000

> <Gold.PLP.part.buried>
-4.7231

> <Gold.PLP.part.nonpolar>
-30.7027

> <Gold.PLP.part.repulsive>
0.2320

> <Gold.PLP.ligand.clash>
0.0000

> <Gold.PLP.ligand.torsion>
0.5724

> <Gold.PLP.Chemscore.Hbond>
2.9440

> <Gold.PLP.Chemscore.CHOScore>
1.0000

> <Gold.PLP.Chemscore.Metal>
0.0000

> <Gold.Chemscore.Hbonds>
donor molecule, donor type, donor heavy atom, donor atom, acceptor molecule, acceptor atom, score
      L1  H     8    30       P1  7948  0.93
      L1  H    11    31       P1  7948  0.99
      L1  H    16    38       P1  7921  1.00
      L1  C    19    43       P1  7948  1.00

> <Gold.PLP.Chemscore.Internal.Correction>
0.0261

> <Gold.Rescore>
     Score         DG    S(hbond)    S(metal)    S(lipo)     H(rot)  DE(clash)    DE(int)     intcor
     18.59     -20.60       2.82        0.00      97.16       2.21       0.07       1.94       ----

> <Gold.Chemscore.Fitness>
18.5867

> <Gold.Chemscore.DG>
-20.5979

> <Gold.Chemscore.ZeroCoef>
-5.4800

> <Gold.Chemscore.Hbond>
2.8156

> <Gold.Chemscore.Metal>
0.0000

> <Gold.Chemscore.Lipo>
97.1568

> <Gold.Chemscore.Internal_Hbond>
0.0000

> <Gold.Chemscore.DEClash>
0.0679

> <Gold.Chemscore.DEInternal>
1.9433

> <Gold.Chemscore.Rot>
2.2084

> <Gold.Chemscore.Internal.Correction>
   9.000000E+99

> <Gold.Chemscore.Hbonds>
donor molecule, donor type, donor heavy atom, donor atom, acceptor molecule, acceptor atom, score
      L1  H     8    30       P1  7948  0.91
      L1  H    11    31       P1  7948  0.92
      L1  H    16    38       P1  7921  0.53

> <Gold.Chemscore.Hbond.Weighted>
-9.4041

> <Gold.Chemscore.Metal.Weighted>
-0.0000

> <Gold.Chemscore.Lipo.Weighted>
-11.3673

> <Gold.Chemscore.Internal_Hbond.Weighted>
0.0000

> <Gold.Chemscore.DEClash.Weighted>
0.0679

> <Gold.Chemscore.DEInternal.Weighted>
1.9433

> <Gold.Chemscore.Rot.Weighted>
5.6535

> <Gold.Chemscore.Internal.Correction.Weighted>
   9.000000E+99

> <Gold.Protein.RotatedTorsions>
[ 6907 6896 6895 6894 ] final   10.87 input  -60.11 | X-H torsion
[ 7974 7965 7964 7962 ] final   44.29 input  175.53 | X-H torsion
[ 8008 7997 7996 7995 ] final -142.02 input   59.86 | X-H torsion
[ 10167 10162 10161 10158 ] final   54.91 input  -65.29 | X-H torsion
[ 10718 10713 10712 10709 ] final   49.86 input   66.30 | X-H torsion
[ 10763 10752 10751 10750 ] final  100.65 input  -60.55 | X-H torsion
[ 11005 11000 10999 10996 ] final  -31.20 input  -57.11 | X-H torsion

> <Gold.Protein.ActiveResidues>
 VAL166  LYS551  ARG553  GLY616  TRP617  ASP618  TYR619  PRO620  LYS621  CYS622 
 ASP623  PHE694  ASN695  SER759  ASP760  ASP761  ALA762  ILE779  LEU786  VAL792 
 PHE793  MET794  SER795  GLU796  ALA797  LYS798  CYS799  TRP800  GLU811  SER814 

> <Gold.Protein.RotatedAtoms>
  151.7452  135.0845  160.0321 H   0  0  0  0  0  0  0  0  0  0  0  0  # atno 6907 bound_to 6896
  152.3453  133.6110  159.5914 H   0  0  0  0  0  0  0  0  0  0  0  0  # atno 6908 bound_to 6896
  150.7505  133.9575  159.3547 H   0  0  0  0  0  0  0  0  0  0  0  0  # atno 6909 bound_to 6896
  146.0582  139.5091  142.9675 H   0  0  0  0  0  0  0  0  0  0  0  0  # atno 7974 bound_to 7965
  155.4874  140.0565  157.2958 H   0  0  0  0  0  0  0  0  0  0  0  0  # atno 8008 bound_to 7997
  154.4636  140.2008  156.0129 H   0  0  0  0  0  0  0  0  0  0  0  0  # atno 8009 bound_to 7997
  156.0935  140.3230  155.7851 H   0  0  0  0  0  0  0  0  0  0  0  0  # atno 8010 bound_to 7997
  140.2251  144.3747  150.6435 H   0  0  0  0  0  0  0  0  0  0  0  0  # atno 10167 bound_to 10162
  157.4828  130.8326  149.8113 H   0  0  0  0  0  0  0  0  0  0  0  0  # atno 10718 bound_to 10713
  153.3166  135.4071  155.1381 H   0  0  0  0  0  0  0  0  0  0  0  0  # atno 10763 bound_to 10752
  154.8590  135.3577  154.5652 H   0  0  0  0  0  0  0  0  0  0  0  0  # atno 10764 bound_to 10752
  153.6083  135.7068  153.5415 H   0  0  0  0  0  0  0  0  0  0  0  0  # atno 10765 bound_to 10752
  140.9448  133.7257  156.1130 H   0  0  0  0  0  0  0  0  0  0  0  0  # atno 11005 bound_to 11000
  145.6607  141.0241  143.1710 LP  0  0  0  0  0  0  0  0  0  0  0  0  # atno 17320 bound_to 7965
  144.7160  139.8197  143.7398 LP  0  0  0  0  0  0  0  0  0  0  0  0  # atno 17321 bound_to 7965
  140.6226  143.2178  151.6662 LP  0  0  0  0  0  0  0  0  0  0  0  0  # atno 17342 bound_to 10162
  139.5130  144.3458  152.0698 LP  0  0  0  0  0  0  0  0  0  0  0  0  # atno 17343 bound_to 10162
  156.0131  130.3825  150.2200 LP  0  0  0  0  0  0  0  0  0  0  0  0  # atno 17370 bound_to 10713
  157.0387  131.0028  151.3290 LP  0  0  0  0  0  0  0  0  0  0  0  0  # atno 17371 bound_to 10713
  140.7685  134.3860  157.5512 LP  0  0  0  0  0  0  0  0  0  0  0  0  # atno 17394 bound_to 11000
  139.8830  134.9007  156.2793 LP  0  0  0  0  0  0  0  0  0  0  0  0  # atno 17395 bound_to 11000

$$$$
