AV-unprocessed.smi:3104|AV-procd|sdf|11818|dock10
  -GOLD-   2272017193D 1   1.00000     0.00000
 Structure written by MMmdl.
 37 38  0  0  0  0  0  0  0  0  2 V2000
  150.4511  136.3950  154.8785 C   0  0  0  0  0  0  0  0  0  0  0  0
  150.6194  137.8868  154.8861 C   0  0  0  0  0  0  0  0  0  0  0  0
  151.7734  138.6394  154.5277 C   0  0  0  0  0  0  0  0  0  0  0  0
  151.5921  139.9445  154.6445 N   0  0  0  0  0  0  0  0  0  0  0  0
  150.3197  140.0747  155.0771 N   0  0  0  0  0  0  0  0  0  0  0  0
  149.7735  141.4028  155.3261 C   0  0  1  0  0  0  0  0  0  0  0  0
  148.4823  141.5961  154.5098 C   0  0  0  0  0  0  0  0  0  0  0  0
  149.5808  141.6723  156.8424 C   0  0  1  0  0  0  0  0  0  0  0  0
  150.0371  140.5001  157.7300 C   0  0  0  0  0  0  0  0  0  0  0  0
  150.3180  142.8904  157.2468 N   0  3  0  0  0  0  0  0  0  0  0  0
  150.3726  143.1276  158.7030 C   0  0  0  0  0  0  0  0  0  0  0  0
  151.5397  144.0213  159.0656 C   0  0  0  0  0  0  0  0  0  0  0  0
  152.4141  144.6032  157.9791 C   0  0  0  0  0  0  0  0  0  0  0  0
  152.9640  143.5425  158.8998 C   0  0  0  0  0  0  0  0  0  0  0  0
  149.7110  138.8455  155.2341 C   0  0  0  0  0  0  0  0  0  0  0  0
  151.3537  135.8865  154.5388 H   0  0  0  0  0  0  0  0  0  0  0  0
  149.6409  136.0857  154.2178 H   0  0  0  0  0  0  0  0  0  0  0  0
  150.2212  136.0109  155.8724 H   0  0  0  0  0  0  0  0  0  0  0  0
  152.7327  138.2771  154.1880 H   0  0  0  0  0  0  0  0  0  0  0  0
  150.5016  142.1252  154.9513 H   0  0  0  0  0  0  0  0  0  0  0  0
  148.1284  142.6259  154.5575 H   0  0  0  0  0  0  0  0  0  0  0  0
  147.6800  140.9516  154.8703 H   0  0  0  0  0  0  0  0  0  0  0  0
  148.6475  141.3632  153.4572 H   0  0  0  0  0  0  0  0  0  0  0  0
  148.5165  141.8188  157.0353 H   0  0  0  0  0  0  0  0  0  0  0  0
  149.4483  139.6005  157.5497 H   0  0  0  0  0  0  0  0  0  0  0  0
  149.9273  140.7447  158.7871 H   0  0  0  0  0  0  0  0  0  0  0  0
  151.0847  140.2533  157.5530 H   0  0  0  0  0  0  0  0  0  0  0  0
  151.2664  142.8146  156.9073 H   0  0  0  0  0  0  0  0  0  0  0  0
  149.4430  143.5812  159.0489 H   0  0  0  0  0  0  0  0  0  0  0  0
  150.4833  142.1734  159.2192 H   0  0  0  0  0  0  0  0  0  0  0  0
  151.3441  144.6851  159.9060 H   0  0  0  0  0  0  0  0  0  0  0  0
  152.2047  144.3159  156.9503 H   0  0  0  0  0  0  0  0  0  0  0  0
  152.7747  145.6210  158.1143 H   0  0  0  0  0  0  0  0  0  0  0  0
  153.6896  143.8539  159.6486 H   0  0  0  0  0  0  0  0  0  0  0  0
  153.1223  142.5496  158.4831 H   0  0  0  0  0  0  0  0  0  0  0  0
  148.6909  138.7542  155.5772 H   0  0  0  0  0  0  0  0  0  0  0  0
  149.8830  143.6868  156.8031 H   0  0  0  0  0  0  0  0  0  0  0  0
  1  2  1  0  0  0  0
  1 16  1  0  0  0  0
  1 17  1  0  0  0  0
  1 18  1  0  0  0  0
  2 15  2  0  0  0  0
  2  3  1  0  0  0  0
  3  4  2  0  0  0  0
  3 19  1  0  0  0  0
  4  5  1  0  0  0  0
  5  6  1  0  0  0  0
  5 15  1  0  0  0  0
  6  7  1  0  0  0  0
  6  8  1  0  0  0  0
  6 20  1  0  0  0  0
  7 21  1  0  0  0  0
  7 22  1  0  0  0  0
  7 23  1  0  0  0  0
  8  9  1  0  0  0  0
  8 10  1  0  0  0  0
  8 24  1  0  0  0  0
  9 25  1  0  0  0  0
  9 26  1  0  0  0  0
  9 27  1  0  0  0  0
 10 11  1  0  0  0  0
 10 28  1  0  0  0  0
 10 37  1  0  0  0  0
 11 12  1  0  0  0  0
 11 29  1  0  0  0  0
 11 30  1  0  0  0  0
 12 14  1  0  0  0  0
 12 13  1  0  0  0  0
 12 31  1  0  0  0  0
 13 14  1  0  0  0  0
 13 32  1  0  0  0  0
 13 33  1  0  0  0  0
 14 34  1  0  0  0  0
 14 35  1  0  0  0  0
 15 36  1  0  0  0  0
M  CHG  1  10   1
M  END
> <s_m_source_file>
AV-unprocessed.smi

> <i_m_source_file_index>
3104

> <i_lp_mmshare_version>
43012

> <i_f3d_flags>
0

> <s_epik_input>
W0NIM11jMVtjSF1ubihbY0hdMSlbQ0BIXShbQ0gzXSlbQ0BIXShbQ0gzXSlbTkhdW0NIMl1bQ0hdMltDSDJdW0NIMl0y

> <s_epik_cmdline>
J2VwaWtfcHl0aG9uJywgJy1waCcsICc3LjAnLCAnLXRuJywgJzgnLCAnLW1hJywgJzIwMCcsICctbWV0YWxfYmluZGluZycsICctaW1hZScsICc8aW5maWxlLm1hZT4nLCAnLW9tYWUnLCAnPG91dGZpbGUubWFlPic=

> <r_lp_tautomer_probability>
1

> <r_epik_Ionization_Penalty>
0.00120445

> <r_epik_Ionization_Penalty_Charging>
0.00118273

> <r_epik_Ionization_Penalty_Neutral>
2.17265e-05

> <r_epik_State_Penalty>
-0

> <r_epik_Charging_Adjusted_Penalty>
0.00118273

> <i_epik_Tot_Q>
1

> <i_epik_Tot_abs_Q>
1

> <r_epik_Metal_State_Penalty>
-0

> <b_epik_Metal_Only>
0

> <s_lp_Force_Field>
OPLS_2005

> <r_lp_Energy>
22.3414

> <b_lp_Chiralities_Consistent>
1

> <s_lp_Variant>
AV-unprocessed.smi:3104-4

> <Gold.Version>
5.8.1

> <Gold.Id.Protein>
6NUR|6NUR_protein|mol2

> <Gold.PLP.Fitness>
41.8647

> <Gold.PLP.PLP>
-36.5542

> <Gold.PLP.part.hbond>
-1.8768

> <Gold.PLP.part.metal>
0.0000

> <Gold.PLP.part.buried>
-4.6515

> <Gold.PLP.part.nonpolar>
-30.6410

> <Gold.PLP.part.repulsive>
0.0761

> <Gold.PLP.ligand.clash>
0.0000

> <Gold.PLP.ligand.torsion>
2.1599

> <Gold.PLP.Chemscore.Hbond>
3.0000

> <Gold.PLP.Chemscore.CHOScore>
0.0000

> <Gold.PLP.Chemscore.Metal>
0.0000

> <Gold.Chemscore.Hbonds>
donor molecule, donor type, donor heavy atom, donor atom, acceptor molecule, acceptor atom, score
      L1  H    10    37       P1  8028  2.00
      P1  H  7989  7998       L1     4  0.84

> <Gold.PLP.Chemscore.Internal.Correction>
0.6304

> <Gold.Rescore>
     Score         DG    S(hbond)    S(metal)    S(lipo)     H(rot)  DE(clash)    DE(int)     intcor
     16.49     -18.95       1.89        0.00      93.80       1.49       0.15       2.31       ----

> <Gold.Chemscore.Fitness>
16.4880

> <Gold.Chemscore.DG>
-18.9480

> <Gold.Chemscore.ZeroCoef>
-5.4800

> <Gold.Chemscore.Hbond>
1.8903

> <Gold.Chemscore.Metal>
0.0000

> <Gold.Chemscore.Lipo>
93.8003

> <Gold.Chemscore.Internal_Hbond>
0.0000

> <Gold.Chemscore.DEClash>
0.1502

> <Gold.Chemscore.DEInternal>
2.3097

> <Gold.Chemscore.Rot>
1.4923

> <Gold.Chemscore.Internal.Correction>
   9.000000E+99

> <Gold.Chemscore.Hbonds>
donor molecule, donor type, donor heavy atom, donor atom, acceptor molecule, acceptor atom, score
      L1  H    10    37       P1  8028  0.99
      P1  H  7989  7998       L1     4  0.36

> <Gold.Chemscore.Hbond.Weighted>
-6.3137

> <Gold.Chemscore.Metal.Weighted>
-0.0000

> <Gold.Chemscore.Lipo.Weighted>
-10.9746

> <Gold.Chemscore.Internal_Hbond.Weighted>
0.0000

> <Gold.Chemscore.DEClash.Weighted>
0.1502

> <Gold.Chemscore.DEInternal.Weighted>
2.3097

> <Gold.Chemscore.Rot.Weighted>
3.8204

> <Gold.Chemscore.Internal.Correction.Weighted>
   9.000000E+99

> <Gold.Protein.RotatedTorsions>
[ 6907 6896 6895 6894 ] final   34.45 input  -60.11 | X-H torsion
[ 7974 7965 7964 7962 ] final -137.84 input  175.53 | X-H torsion
[ 8008 7997 7996 7995 ] final   97.59 input   59.86 | X-H torsion
[ 10167 10162 10161 10158 ] final   53.27 input  -65.29 | X-H torsion
[ 10718 10713 10712 10709 ] final  -76.97 input   66.30 | X-H torsion
[ 10763 10752 10751 10750 ] final -177.39 input  -60.55 | X-H torsion
[ 11005 11000 10999 10996 ] final  -52.71 input  -57.11 | X-H torsion

> <Gold.Protein.ActiveResidues>
 VAL166  LYS551  ARG553  GLY616  TRP617  ASP618  TYR619  PRO620  LYS621  CYS622 
 ASP623  PHE694  ASN695  SER759  ASP760  ASP761  ALA762  ILE779  LEU786  VAL792 
 PHE793  MET794  SER795  GLU796  ALA797  LYS798  CYS799  TRP800  GLU811  SER814 

> <Gold.Protein.RotatedAtoms>
  152.1025  134.9331  160.0568 H   0  0  0  0  0  0  0  0  0  0  0  0  # atno 6907 bound_to 6896
  152.0540  133.4027  159.4397 H   0  0  0  0  0  0  0  0  0  0  0  0  # atno 6908 bound_to 6896
  150.6840  134.3196  159.4824 H   0  0  0  0  0  0  0  0  0  0  0  0  # atno 6909 bound_to 6896
  144.8808  140.6505  143.5207 H   0  0  0  0  0  0  0  0  0  0  0  0  # atno 7974 bound_to 7965
  156.0917  140.3256  155.7824 H   0  0  0  0  0  0  0  0  0  0  0  0  # atno 8008 bound_to 7997
  155.4986  140.0567  157.2960 H   0  0  0  0  0  0  0  0  0  0  0  0  # atno 8009 bound_to 7997
  154.4641  140.1981  156.0180 H   0  0  0  0  0  0  0  0  0  0  0  0  # atno 8010 bound_to 7997
  140.2426  144.3567  150.6375 H   0  0  0  0  0  0  0  0  0  0  0  0  # atno 10167 bound_to 10162
  156.0159  130.4479  150.3275 H   0  0  0  0  0  0  0  0  0  0  0  0  # atno 10718 bound_to 10713
  154.5607  135.2820  155.0922 H   0  0  0  0  0  0  0  0  0  0  0  0  # atno 10763 bound_to 10752
  154.2332  135.6370  153.5186 H   0  0  0  0  0  0  0  0  0  0  0  0  # atno 10764 bound_to 10752
  153.0028  135.5542  154.6200 H   0  0  0  0  0  0  0  0  0  0  0  0  # atno 10765 bound_to 10752
  141.0938  133.6628  156.4064 H   0  0  0  0  0  0  0  0  0  0  0  0  # atno 11005 bound_to 11000
  145.3957  139.1607  143.4204 LP  0  0  0  0  0  0  0  0  0  0  0  0  # atno 17320 bound_to 7965
  146.2993  140.4050  142.8710 LP  0  0  0  0  0  0  0  0  0  0  0  0  # atno 17321 bound_to 7965
  140.6102  143.2169  151.6901 LP  0  0  0  0  0  0  0  0  0  0  0  0  # atno 17342 bound_to 10162
  139.5072  144.3654  152.0522 LP  0  0  0  0  0  0  0  0  0  0  0  0  # atno 17343 bound_to 10162
  157.1373  131.0287  151.2943 LP  0  0  0  0  0  0  0  0  0  0  0  0  # atno 17370 bound_to 10713
  157.4501  130.7593  149.7143 LP  0  0  0  0  0  0  0  0  0  0  0  0  # atno 17371 bound_to 10713
  140.5188  134.6324  157.5311 LP  0  0  0  0  0  0  0  0  0  0  0  0  # atno 17394 bound_to 11000
  139.9770  134.7199  155.9931 LP  0  0  0  0  0  0  0  0  0  0  0  0  # atno 17395 bound_to 11000

$$$$
