AV-unprocessed.smi:40|AV-procd|sdf|375|dock9
  -GOLD-   2262016223D 1   1.00000     0.00000
 Structure written by MMmdl.
 47 48  0  0  0  0  0  0  0  0  1 V2000
  150.9392  145.3684  160.2536 C   0  0  0  0  0  0  0  0  0  0  0  0
  151.8097  144.3360  160.9784 C   0  0  0  0  0  0  0  0  0  0  0  0
  152.4874  143.3537  160.0126 C   0  0  0  0  0  0  0  0  0  0  0  0
  153.3587  142.3176  160.7394 C   0  0  0  0  0  0  0  0  0  0  0  0
  153.6161  141.0569  159.8974 C   0  0  0  0  0  0  0  0  0  0  0  0
  152.3976  140.4068  159.5604 O   0  0  0  0  0  0  0  0  0  0  0  0
  152.3719  139.4027  158.6563 C   0  0  0  0  0  0  0  0  0  0  0  0
  153.2030  139.2514  157.7613 O   0  0  0  0  0  0  0  0  0  0  0  0
  151.2111  138.5589  158.8548 N   0  0  0  0  0  0  0  0  0  0  0  0
  150.8779  137.4691  158.1303 C   0  0  0  0  0  0  0  0  0  0  0  0
  151.3558  137.3842  156.9023 N   0  0  0  0  0  0  0  0  0  0  0  0
  151.0936  136.3404  156.0549 C   0  0  0  0  0  0  0  0  0  0  0  0
  151.5729  136.3158  154.9224 O   0  0  0  0  0  0  0  0  0  0  0  0
  150.2652  135.3016  156.5417 N   0  0  0  0  0  0  0  0  0  0  0  0
  149.9191  134.1325  155.6463 C   0  0  2  0  0  0  0  0  0  0  0  0
  148.5309  134.0050  155.6320 O   0  0  0  0  0  0  0  0  0  0  0  0
  148.1931  132.6277  155.6217 C   0  0  2  0  0  0  0  0  0  0  0  0
  146.7704  132.4313  156.1569 C   0  0  0  0  0  0  0  0  0  0  0  0
  149.2815  131.9781  156.4791 C   0  0  1  0  0  0  0  0  0  0  0  0
  149.4436  130.6206  156.1196 O   0  0  0  0  0  0  0  0  0  0  0  0
  150.5226  132.7905  156.1258 C   0  0  2  0  0  0  0  0  0  0  0  0
  151.3920  132.8981  157.2391 O   0  0  0  0  0  0  0  0  0  0  0  0
  149.7709  135.3633  157.8356 C   0  0  0  0  0  0  0  0  0  0  0  0
  150.0417  136.4031  158.6527 C   0  0  0  0  0  0  0  0  0  0  0  0
  149.5609  136.4252  159.9079 F   0  0  0  0  0  0  0  0  0  0  0  0
  150.2386  134.3911  154.6363 H   0  0  0  0  0  0  0  0  0  0  0  0
  148.2614  132.2759  154.5904 H   0  0  0  0  0  0  0  0  0  0  0  0
  149.0386  132.0736  157.5389 H   0  0  0  0  0  0  0  0  0  0  0  0
  151.0578  132.3489  155.2836 H   0  0  0  0  0  0  0  0  0  0  0  0
  150.4691  146.0479  160.9649 H   0  0  0  0  0  0  0  0  0  0  0  0
  150.1467  144.8840  159.6827 H   0  0  0  0  0  0  0  0  0  0  0  0
  151.5322  145.9684  159.5627 H   0  0  0  0  0  0  0  0  0  0  0  0
  152.5686  144.8554  161.5646 H   0  0  0  0  0  0  0  0  0  0  0  0
  151.1940  143.7841  161.6895 H   0  0  0  0  0  0  0  0  0  0  0  0
  151.7264  142.8386  159.4252 H   0  0  0  0  0  0  0  0  0  0  0  0
  153.0991  143.9119  159.3027 H   0  0  0  0  0  0  0  0  0  0  0  0
  154.3073  142.7693  161.0322 H   0  0  0  0  0  0  0  0  0  0  0  0
  152.8647  142.0230  161.6657 H   0  0  0  0  0  0  0  0  0  0  0  0
  154.1803  141.3063  158.9976 H   0  0  0  0  0  0  0  0  0  0  0  0
  154.2326  140.3575  160.4625 H   0  0  0  0  0  0  0  0  0  0  0  0
  150.6535  138.7850  159.6652 H   0  0  0  0  0  0  0  0  0  0  0  0
  146.5002  131.3751  156.1700 H   0  0  0  0  0  0  0  0  0  0  0  0
  146.0446  132.9537  155.5333 H   0  0  0  0  0  0  0  0  0  0  0  0
  146.6733  132.8149  157.1729 H   0  0  0  0  0  0  0  0  0  0  0  0
  148.8870  130.0939  156.6727 H   0  0  0  0  0  0  0  0  0  0  0  0
  152.1260  132.3193  157.1021 H   0  0  0  0  0  0  0  0  0  0  0  0
  149.1576  134.5572  158.2125 H   0  0  0  0  0  0  0  0  0  0  0  0
  1  2  1  0  0  0  0
  1 30  1  0  0  0  0
  1 31  1  0  0  0  0
  1 32  1  0  0  0  0
  2  3  1  0  0  0  0
  2 33  1  0  0  0  0
  2 34  1  0  0  0  0
  3  4  1  0  0  0  0
  3 35  1  0  0  0  0
  3 36  1  0  0  0  0
  4  5  1  0  0  0  0
  4 37  1  0  0  0  0
  4 38  1  0  0  0  0
  5  6  1  0  0  0  0
  5 39  1  0  0  0  0
  5 40  1  0  0  0  0
  6  7  1  0  0  0  0
  7  8  2  0  0  0  0
  7  9  1  0  0  0  0
  9 10  1  0  0  0  0
  9 41  1  0  0  0  0
 10 24  1  0  0  0  0
 10 11  2  0  0  0  0
 11 12  1  0  0  0  0
 12 13  2  0  0  0  0
 12 14  1  0  0  0  0
 14 15  1  0  0  0  0
 14 23  1  0  0  0  0
 15 26  1  0  0  0  0
 15 21  1  0  0  0  0
 15 16  1  0  0  0  0
 16 17  1  0  0  0  0
 17 27  1  0  0  0  0
 17 18  1  0  0  0  0
 17 19  1  0  0  0  0
 18 42  1  0  0  0  0
 18 43  1  0  0  0  0
 18 44  1  0  0  0  0
 19 28  1  0  0  0  0
 19 20  1  0  0  0  0
 19 21  1  0  0  0  0
 20 45  1  0  0  0  0
 21 29  1  0  0  0  0
 21 22  1  0  0  0  0
 22 46  1  0  0  0  0
 23 24  2  0  0  0  0
 23 47  1  0  0  0  0
 24 25  1  0  0  0  0
M  END
> <s_m_source_file>
AV-unprocessed.smi

> <i_m_source_file_index>
40

> <i_lp_mmshare_version>
43012

> <i_f3d_flags>
0

> <s_epik_input>
W0NIM11bQ0gyXVtDSDJdW0NIMl1bQ0gyXU9DKD1PKVtOSF1jMW5jKD1PKW4oW2NIXWMxRilbQ0BASF0yT1tDQEhdKFtDSDNdKVtDQEBIXShbT0hdKVtDQEhdMltPSF0=

> <s_epik_cmdline>
J2VwaWtfcHl0aG9uJywgJy1waCcsICc3LjAnLCAnLXRuJywgJzgnLCAnLW1hJywgJzIwMCcsICctbWV0YWxfYmluZGluZycsICctaW1hZScsICc8aW5maWxlLm1hZT4nLCAnLW9tYWUnLCAnPG91dGZpbGUubWFlPic=

> <r_lp_tautomer_probability>
1

> <r_epik_Ionization_Penalty>
2.29506e-06

> <r_epik_Ionization_Penalty_Charging>
8.26867e-09

> <r_epik_Ionization_Penalty_Neutral>
2.2868e-06

> <r_epik_State_Penalty>
-0

> <r_epik_Charging_Adjusted_Penalty>
8.26867e-09

> <i_epik_Tot_Q>
0

> <i_epik_Tot_abs_Q>
0

> <r_epik_Metal_State_Penalty>
-0

> <b_epik_Metal_Only>
0

> <s_epik_Chemistry_Notes>
This compound has an ester and may undergo hydrolysis at high or low pH. This compound contains an acetal/aminal-like group ( X-CH(R)-Y where X, Y are N, S, or O) that may be acid/base labile, releasing an aldehyde.

> <s_lp_Force_Field>
OPLS_2005

> <r_lp_Energy>
38.1616

> <b_lp_Chiralities_Consistent>
1

> <s_lp_Variant>
AV-unprocessed.smi:40-9

> <Gold.Version>
5.8.1

> <Gold.Id.Protein>
6NUR|6NUR_protein|mol2

> <Gold.PLP.Fitness>
43.8113

> <Gold.PLP.PLP>
-36.1706

> <Gold.PLP.part.hbond>
-3.0000

> <Gold.PLP.part.metal>
0.0000

> <Gold.PLP.part.buried>
-5.9897

> <Gold.PLP.part.nonpolar>
-27.9004

> <Gold.PLP.part.repulsive>
0.3216

> <Gold.PLP.ligand.clash>
0.0000

> <Gold.PLP.ligand.torsion>
0.6817

> <Gold.PLP.Chemscore.Hbond>
2.9199

> <Gold.PLP.Chemscore.CHOScore>
0.0000

> <Gold.PLP.Chemscore.Metal>
0.0000

> <Gold.Chemscore.Hbonds>
donor molecule, donor type, donor heavy atom, donor atom, acceptor molecule, acceptor atom, score
      P1  H  6896  6909       L1    22  0.48
      P1  H  7997  8008       L1     8  1.00
      P1  H 10752 10765       L1    13  1.00

> <Gold.PLP.Chemscore.Internal.Correction>
0.2445

> <Gold.Rescore>
     Score         DG    S(hbond)    S(metal)    S(lipo)     H(rot)  DE(clash)    DE(int)     intcor
     11.74     -14.19       2.84        0.00      74.20       3.70       0.12       2.34       ----

> <Gold.Chemscore.Fitness>
11.7417

> <Gold.Chemscore.DG>
-14.1946

> <Gold.Chemscore.ZeroCoef>
-5.4800

> <Gold.Chemscore.Hbond>
2.8424

> <Gold.Chemscore.Metal>
0.0000

> <Gold.Chemscore.Lipo>
74.2049

> <Gold.Chemscore.Internal_Hbond>
0.0000

> <Gold.Chemscore.DEClash>
0.1162

> <Gold.Chemscore.DEInternal>
2.3367

> <Gold.Chemscore.Rot>
3.6957

> <Gold.Chemscore.Internal.Correction>
   9.000000E+99

> <Gold.Chemscore.Hbonds>
donor molecule, donor type, donor heavy atom, donor atom, acceptor molecule, acceptor atom, score
      P1  H  6896  6909       L1    22  0.45
      P1  H  7997  8008       L1     8  0.98
      P1  H 10752 10765       L1    13  0.97

> <Gold.Chemscore.Hbond.Weighted>
-9.4935

> <Gold.Chemscore.Metal.Weighted>
-0.0000

> <Gold.Chemscore.Lipo.Weighted>
-8.6820

> <Gold.Chemscore.Internal_Hbond.Weighted>
0.0000

> <Gold.Chemscore.DEClash.Weighted>
0.1162

> <Gold.Chemscore.DEInternal.Weighted>
2.3367

> <Gold.Chemscore.Rot.Weighted>
9.4610

> <Gold.Chemscore.Internal.Correction.Weighted>
   9.000000E+99

> <Gold.Protein.RotatedTorsions>
[ 6907 6896 6895 6894 ] final  -13.49 input  -60.11 | X-H torsion
[ 7974 7965 7964 7962 ] final -163.45 input  175.53 | X-H torsion
[ 8008 7997 7996 7995 ] final  -95.93 input   59.86 | X-H torsion
[ 10167 10162 10161 10158 ] final  149.20 input  -65.29 | X-H torsion
[ 10718 10713 10712 10709 ] final  -91.86 input   66.30 | X-H torsion
[ 10763 10752 10751 10750 ] final  179.79 input  -60.55 | X-H torsion
[ 11005 11000 10999 10996 ] final  145.83 input  -57.11 | X-H torsion

> <Gold.Protein.ActiveResidues>
 VAL166  LYS551  ARG553  GLY616  TRP617  ASP618  TYR619  PRO620  LYS621  CYS622 
 ASP623  PHE694  ASN695  SER759  ASP760  ASP761  ALA762  ILE779  LEU786  VAL792 
 PHE793  MET794  SER795  GLU796  ALA797  LYS798  CYS799  TRP800  GLU811  SER814 

> <Gold.Protein.RotatedAtoms>
  151.3541  135.0890  159.9412 H   0  0  0  0  0  0  0  0  0  0  0  0  # atno 6907 bound_to 6896
  152.5179  133.9323  159.7597 H   0  0  0  0  0  0  0  0  0  0  0  0  # atno 6908 bound_to 6896
  150.9704  133.6296  159.2768 H   0  0  0  0  0  0  0  0  0  0  0  0  # atno 6909 bound_to 6896
  144.7326  140.3105  143.6189 H   0  0  0  0  0  0  0  0  0  0  0  0  # atno 7974 bound_to 7965
  154.7678  140.0476  157.1026 H   0  0  0  0  0  0  0  0  0  0  0  0  # atno 8008 bound_to 7997
  154.9858  140.3107  155.4907 H   0  0  0  0  0  0  0  0  0  0  0  0  # atno 8009 bound_to 7997
  156.2916  140.2227  156.4960 H   0  0  0  0  0  0  0  0  0  0  0  0  # atno 8010 bound_to 7997
  139.4864  144.5620  151.7214 H   0  0  0  0  0  0  0  0  0  0  0  0  # atno 10167 bound_to 10162
  155.9997  130.4964  150.5539 H   0  0  0  0  0  0  0  0  0  0  0  0  # atno 10718 bound_to 10713
  154.5252  135.2796  155.1228 H   0  0  0  0  0  0  0  0  0  0  0  0  # atno 10763 bound_to 10752
  154.2769  135.6293  153.5335 H   0  0  0  0  0  0  0  0  0  0  0  0  # atno 10764 bound_to 10752
  152.9945  135.5642  154.5752 H   0  0  0  0  0  0  0  0  0  0  0  0  # atno 10765 bound_to 10752
  140.0744  134.9133  157.1398 H   0  0  0  0  0  0  0  0  0  0  0  0  # atno 11005 bound_to 11000
  145.7669  139.1844  143.2235 LP  0  0  0  0  0  0  0  0  0  0  0  0  # atno 17320 bound_to 7965
  146.0942  140.7621  142.9580 LP  0  0  0  0  0  0  0  0  0  0  0  0  # atno 17321 bound_to 7965
  140.5192  144.0906  150.6017 LP  0  0  0  0  0  0  0  0  0  0  0  0  # atno 17342 bound_to 10162
  140.3858  143.2778  152.0118 LP  0  0  0  0  0  0  0  0  0  0  0  0  # atno 17343 bound_to 10162
  157.3458  131.0725  151.1752 LP  0  0  0  0  0  0  0  0  0  0  0  0  # atno 17370 bound_to 10713
  157.2585  130.6648  149.5964 LP  0  0  0  0  0  0  0  0  0  0  0  0  # atno 17371 bound_to 10713
  140.3580  134.2526  155.7190 LP  0  0  0  0  0  0  0  0  0  0  0  0  # atno 17394 bound_to 11000
  141.2024  133.7939  157.0393 LP  0  0  0  0  0  0  0  0  0  0  0  0  # atno 17395 bound_to 11000

$$$$
