AV-unprocessed.smi:2633|AV-procd|sdf|10252|dock8
  -GOLD-   2272014263D 1   1.00000     0.00000
 Structure written by MMmdl.
 35 37  0  0  0  0  0  0  0  0  1 V2000
  151.8677  136.9767  154.1146 O   0  0  0  0  0  0  0  0  0  0  0  0
  151.0348  137.8058  154.8979 C   0  0  0  0  0  0  0  0  0  0  0  0
  151.6024  139.2314  155.0053 C   0  0  0  0  0  0  0  0  0  0  0  0
  150.6131  140.1918  155.4767 N   0  0  0  0  0  0  0  0  0  0  0  0
  150.6821  141.0352  156.5401 C   0  0  0  0  0  0  0  0  0  0  0  0
  151.8843  141.0962  157.4432 C   0  0  0  0  0  0  0  0  0  0  0  0
  151.9329  142.3446  158.3081 C   0  0  0  0  0  0  0  0  0  0  0  0
  152.2775  142.2438  159.6725 C   0  0  0  0  0  0  0  0  0  0  0  0
  152.3286  143.3992  160.4764 C   0  0  0  0  0  0  0  0  0  0  0  0
  152.0354  144.6588  159.9192 C   0  0  0  0  0  0  0  0  0  0  0  0
  151.6907  144.7631  158.5576 C   0  0  0  0  0  0  0  0  0  0  0  0
  151.6392  143.6080  157.7530 C   0  0  0  0  0  0  0  0  0  0  0  0
  149.6019  141.7945  156.7407 N   0  0  0  0  0  0  0  0  0  0  0  0
  148.7667  141.4240  155.7066 C   0  0  0  0  0  0  0  0  0  0  0  0
  147.4720  141.8759  155.3647 C   0  0  0  0  0  0  0  0  0  0  0  0
  146.8025  141.3411  154.2447 C   0  0  0  0  0  0  0  0  0  0  0  0
  147.4161  140.3484  153.4533 C   0  0  0  0  0  0  0  0  0  0  0  0
  148.7052  139.8836  153.7781 C   0  0  0  0  0  0  0  0  0  0  0  0
  149.3695  140.4219  154.8965 C   0  0  0  0  0  0  0  0  0  0  0  0
  151.5358  136.9669  153.2299 H   0  0  0  0  0  0  0  0  0  0  0  0
  150.0389  137.8244  154.4544 H   0  0  0  0  0  0  0  0  0  0  0  0
  150.9352  137.3658  155.8903 H   0  0  0  0  0  0  0  0  0  0  0  0
  152.4384  139.2367  155.7054 H   0  0  0  0  0  0  0  0  0  0  0  0
  152.0155  139.5601  154.0521 H   0  0  0  0  0  0  0  0  0  0  0  0
  151.8899  140.2071  158.0744 H   0  0  0  0  0  0  0  0  0  0  0  0
  152.8029  141.0684  156.8590 H   0  0  0  0  0  0  0  0  0  0  0  0
  152.5069  141.2802  160.1039 H   0  0  0  0  0  0  0  0  0  0  0  0
  152.5944  143.3192  161.5201 H   0  0  0  0  0  0  0  0  0  0  0  0
  152.0763  145.5450  160.5354 H   0  0  0  0  0  0  0  0  0  0  0  0
  151.4678  145.7291  158.1293 H   0  0  0  0  0  0  0  0  0  0  0  0
  151.3788  143.6956  156.7083 H   0  0  0  0  0  0  0  0  0  0  0  0
  146.9941  142.6358  155.9651 H   0  0  0  0  0  0  0  0  0  0  0  0
  145.8136  141.6945  153.9919 H   0  0  0  0  0  0  0  0  0  0  0  0
  146.8964  139.9442  152.5970 H   0  0  0  0  0  0  0  0  0  0  0  0
  149.1782  139.1236  153.1744 H   0  0  0  0  0  0  0  0  0  0  0  0
  1  2  1  0  0  0  0
  1 20  1  0  0  0  0
  2  3  1  0  0  0  0
  2 21  1  0  0  0  0
  2 22  1  0  0  0  0
  3  4  1  0  0  0  0
  3 23  1  0  0  0  0
  3 24  1  0  0  0  0
  4 19  1  0  0  0  0
  4  5  1  0  0  0  0
  5  6  1  0  0  0  0
  5 13  2  0  0  0  0
  6  7  1  0  0  0  0
  6 25  1  0  0  0  0
  6 26  1  0  0  0  0
  7 12  1  0  0  0  0
  7  8  2  0  0  0  0
  8  9  1  0  0  0  0
  8 27  1  0  0  0  0
  9 10  2  0  0  0  0
  9 28  1  0  0  0  0
 10 11  1  0  0  0  0
 10 29  1  0  0  0  0
 11 12  2  0  0  0  0
 11 30  1  0  0  0  0
 12 31  1  0  0  0  0
 13 14  1  0  0  0  0
 14 19  2  0  0  0  0
 14 15  1  0  0  0  0
 15 16  2  0  0  0  0
 15 32  1  0  0  0  0
 16 17  1  0  0  0  0
 16 33  1  0  0  0  0
 17 18  2  0  0  0  0
 17 34  1  0  0  0  0
 18 19  1  0  0  0  0
 18 35  1  0  0  0  0
M  END
> <s_m_source_file>
AV-unprocessed.smi

> <i_m_source_file_index>
2633

> <i_lp_mmshare_version>
43012

> <i_f3d_flags>
0

> <s_epik_input>
W2NIXTFbY0hdW2NIXVtjSF1jKGMxMiluKFtDSDJdW0NIMl1bT0hdKWMobjIpW0NIMl1jM1tjSF1bY0hdW2NIXVtjSF1bY0hdMw==

> <s_epik_cmdline>
J2VwaWtfcHl0aG9uJywgJy1waCcsICc3LjAnLCAnLXRuJywgJzgnLCAnLW1hJywgJzIwMCcsICctbWV0YWxfYmluZGluZycsICctaW1hZScsICc8aW5maWxlLm1hZT4nLCAnLW9tYWUnLCAnPG91dGZpbGUubWFlPic=

> <r_epik_Ionization_Penalty>
0.0631471

> <r_epik_Ionization_Penalty_Charging>
0

> <r_epik_Ionization_Penalty_Neutral>
0.0631471

> <r_epik_State_Penalty>
0.0549237

> <r_epik_Charging_Adjusted_Penalty>
0.0549237

> <i_epik_Tot_Q>
0

> <i_epik_Tot_abs_Q>
0

> <r_epik_Metal_State_Penalty>
5.75471e-05

> <b_epik_Metal_Only>
0

> <s_lp_Force_Field>
OPLS_2005

> <r_lp_Energy>
13.1063

> <b_lp_Chiralities_Consistent>
1

> <s_lp_Variant>
AV-unprocessed.smi:2633-1

> <Gold.Version>
5.8.1

> <Gold.Id.Protein>
6NUR|6NUR_protein|mol2

> <Gold.PLP.Fitness>
50.3412

> <Gold.PLP.PLP>
-45.3615

> <Gold.PLP.part.hbond>
-2.0000

> <Gold.PLP.part.metal>
0.0000

> <Gold.PLP.part.buried>
-1.1017

> <Gold.PLP.part.nonpolar>
-42.4500

> <Gold.PLP.part.repulsive>
0.1212

> <Gold.PLP.ligand.clash>
0.0000

> <Gold.PLP.ligand.torsion>
0.5152

> <Gold.PLP.Chemscore.Hbond>
2.0000

> <Gold.PLP.Chemscore.CHOScore>
0.0000

> <Gold.PLP.Chemscore.Metal>
0.0000

> <Gold.Chemscore.Hbonds>
donor molecule, donor type, donor heavy atom, donor atom, acceptor molecule, acceptor atom, score
      L1  H     1    20       P1  7949  1.00
      P1  H 10752 10763       L1     1  1.00

> <Gold.PLP.Chemscore.Internal.Correction>
0.0101

> <Gold.Rescore>
     Score         DG    S(hbond)    S(metal)    S(lipo)     H(rot)  DE(clash)    DE(int)     intcor
     18.68     -21.23       1.70        0.00     128.89       1.96       1.58       0.97       ----

> <Gold.Chemscore.Fitness>
18.6834

> <Gold.Chemscore.DG>
-21.2279

> <Gold.Chemscore.ZeroCoef>
-5.4800

> <Gold.Chemscore.Hbond>
1.7018

> <Gold.Chemscore.Metal>
0.0000

> <Gold.Chemscore.Lipo>
128.8891

> <Gold.Chemscore.Internal_Hbond>
0.0000

> <Gold.Chemscore.DEClash>
1.5787

> <Gold.Chemscore.DEInternal>
0.9658

> <Gold.Chemscore.Rot>
1.9594

> <Gold.Chemscore.Internal.Correction>
   9.000000E+99

> <Gold.Chemscore.Hbonds>
donor molecule, donor type, donor heavy atom, donor atom, acceptor molecule, acceptor atom, score
      L1  H     1    20       P1  7949  0.80
      P1  H 10752 10763       L1     1  0.55

> <Gold.Chemscore.Hbond.Weighted>
-5.6839

> <Gold.Chemscore.Metal.Weighted>
-0.0000

> <Gold.Chemscore.Lipo.Weighted>
-15.0800

> <Gold.Chemscore.Internal_Hbond.Weighted>
0.0000

> <Gold.Chemscore.DEClash.Weighted>
1.5787

> <Gold.Chemscore.DEInternal.Weighted>
0.9658

> <Gold.Chemscore.Rot.Weighted>
5.0160

> <Gold.Chemscore.Internal.Correction.Weighted>
   9.000000E+99

> <Gold.Protein.RotatedTorsions>
[ 6907 6896 6895 6894 ] final  -39.34 input  -60.11 | X-H torsion
[ 7974 7965 7964 7962 ] final  -12.62 input  175.53 | X-H torsion
[ 8008 7997 7996 7995 ] final -164.30 input   59.86 | X-H torsion
[ 10167 10162 10161 10158 ] final   20.20 input  -65.29 | X-H torsion
[ 10718 10713 10712 10709 ] final   25.79 input   66.30 | X-H torsion
[ 10763 10752 10751 10750 ] final   38.00 input  -60.55 | X-H torsion
[ 11005 11000 10999 10996 ] final  -43.11 input  -57.11 | X-H torsion

> <Gold.Protein.ActiveResidues>
 VAL166  LYS551  ARG553  GLY616  TRP617  ASP618  TYR619  PRO620  LYS621  CYS622 
 ASP623  PHE694  ASN695  SER759  ASP760  ASP761  ALA762  ILE779  LEU786  VAL792 
 PHE793  MET794  SER795  GLU796  ALA797  LYS798  CYS799  TRP800  GLU811  SER814 

> <Gold.Protein.RotatedAtoms>
  150.9915  134.9249  159.7901 H   0  0  0  0  0  0  0  0  0  0  0  0  # atno 6907 bound_to 6896
  152.5252  134.3275  159.9181 H   0  0  0  0  0  0  0  0  0  0  0  0  # atno 6908 bound_to 6896
  151.3281  133.3970  159.2694 H   0  0  0  0  0  0  0  0  0  0  0  0  # atno 6909 bound_to 6896
  146.2145  140.3085  142.8380 H   0  0  0  0  0  0  0  0  0  0  0  0  # atno 7974 bound_to 7965
  155.8337  140.0938  157.1777 H   0  0  0  0  0  0  0  0  0  0  0  0  # atno 8008 bound_to 7997
  154.3980  140.1414  156.3706 H   0  0  0  0  0  0  0  0  0  0  0  0  # atno 8009 bound_to 7997
  155.8138  140.3449  155.5476 H   0  0  0  0  0  0  0  0  0  0  0  0  # atno 8010 bound_to 7997
  140.5522  143.9489  150.6585 H   0  0  0  0  0  0  0  0  0  0  0  0  # atno 10167 bound_to 10162
  157.1980  130.6877  149.6177 H   0  0  0  0  0  0  0  0  0  0  0  0  # atno 10718 bound_to 10713
  153.0017  135.6262  154.2234 H   0  0  0  0  0  0  0  0  0  0  0  0  # atno 10763 bound_to 10752
  154.1977  135.2805  155.3003 H   0  0  0  0  0  0  0  0  0  0  0  0  # atno 10764 bound_to 10752
  154.5709  135.5677  153.7153 H   0  0  0  0  0  0  0  0  0  0  0  0  # atno 10765 bound_to 10752
  141.0361  133.6799  156.2687 H   0  0  0  0  0  0  0  0  0  0  0  0  # atno 11005 bound_to 11000
  144.9006  140.7637  143.5869 LP  0  0  0  0  0  0  0  0  0  0  0  0  # atno 17320 bound_to 7965
  145.3010  139.1850  143.4689 LP  0  0  0  0  0  0  0  0  0  0  0  0  # atno 17321 bound_to 7965
  140.2918  143.3319  152.1055 LP  0  0  0  0  0  0  0  0  0  0  0  0  # atno 17342 bound_to 10162
  139.5032  144.6750  151.6149 LP  0  0  0  0  0  0  0  0  0  0  0  0  # atno 17343 bound_to 10162
  155.9703  130.4592  150.6028 LP  0  0  0  0  0  0  0  0  0  0  0  0  # atno 17370 bound_to 10713
  157.3795  131.0778  151.1489 LP  0  0  0  0  0  0  0  0  0  0  0  0  # atno 17371 bound_to 10713
  140.6319  134.5255  157.5560 LP  0  0  0  0  0  0  0  0  0  0  0  0  # atno 17394 bound_to 11000
  139.9242  134.8089  156.1119 LP  0  0  0  0  0  0  0  0  0  0  0  0  # atno 17395 bound_to 11000

$$$$
