AV-unprocessed.smi:467|AV-procd|sdf|2643|dock4
  -GOLD-   2262023 53D 1   1.00000     0.00000
 Structure written by MMmdl.
 44 46  0  0  0  0  0  0  0  0  1 V2000
  152.9846  143.0955  161.5096 C   0  0  0  0  0  0  0  0  0  0  0  0
  152.4659  142.7701  160.1199 C   0  0  0  0  0  0  0  0  0  0  0  0
  152.8950  141.5818  159.4871 C   0  0  0  0  0  0  0  0  0  0  0  0
  152.4387  141.2441  158.1940 C   0  0  0  0  0  0  0  0  0  0  0  0
  152.7260  140.1486  157.3977 N   0  0  0  0  0  0  0  0  0  0  0  0
  152.0018  140.4091  156.3131 C   0  0  0  0  0  0  0  0  0  0  0  0
  151.2776  141.5443  156.3129 N   0  0  0  0  0  0  0  0  0  0  0  0
  150.4250  142.0324  155.2437 C   0  0  0  0  0  0  0  0  0  0  0  0
  149.5094  140.9302  154.6734 C   0  0  2  0  0  0  0  0  0  0  0  0
  150.2572  140.1027  153.8048 O   0  0  0  0  0  0  0  0  0  0  0  0
  148.3202  141.4962  153.8721 C   0  0  0  0  0  0  0  0  0  0  0  0
  147.3333  142.2468  154.6495 N   0  0  0  0  0  0  0  0  0  0  0  0
  146.5690  141.3983  155.5623 C   0  0  0  0  0  0  0  0  0  0  0  0
  145.5119  142.1986  156.3438 C   0  0  0  0  0  0  0  0  0  0  0  0
  144.6512  142.8756  155.4341 O   0  0  0  0  0  0  0  0  0  0  0  0
  145.3575  143.7519  154.5628 C   0  0  0  0  0  0  0  0  0  0  0  0
  146.4059  142.9519  153.7710 C   0  0  0  0  0  0  0  0  0  0  0  0
  151.5336  142.1350  157.5459 C   0  0  0  0  0  0  0  0  0  0  0  0
  151.0983  143.3197  158.1660 C   0  0  0  0  0  0  0  0  0  0  0  0
  151.5637  143.6414  159.4582 C   0  0  0  0  0  0  0  0  0  0  0  0
  151.0887  144.9235  160.1189 C   0  0  0  0  0  0  0  0  0  0  0  0
  153.6905  142.3413  161.8585 H   0  0  0  0  0  0  0  0  0  0  0  0
  152.1613  143.1402  162.2230 H   0  0  0  0  0  0  0  0  0  0  0  0
  153.4973  144.0576  161.5113 H   0  0  0  0  0  0  0  0  0  0  0  0
  153.5826  140.9182  159.9903 H   0  0  0  0  0  0  0  0  0  0  0  0
  151.9983  139.7370  155.4673 H   0  0  0  0  0  0  0  0  0  0  0  0
  149.8269  142.8545  155.6388 H   0  0  0  0  0  0  0  0  0  0  0  0
  151.0527  142.4562  154.4589 H   0  0  0  0  0  0  0  0  0  0  0  0
  149.1526  140.2929  155.4819 H   0  0  0  0  0  0  0  0  0  0  0  0
  149.8312  140.0895  152.9616 H   0  0  0  0  0  0  0  0  0  0  0  0
  148.7214  142.1432  153.0905 H   0  0  0  0  0  0  0  0  0  0  0  0
  147.8177  140.6797  153.3507 H   0  0  0  0  0  0  0  0  0  0  0  0
  146.0765  140.6014  155.0030 H   0  0  0  0  0  0  0  0  0  0  0  0
  147.2332  140.9148  156.2775 H   0  0  0  0  0  0  0  0  0  0  0  0
  144.9172  141.5320  156.9684 H   0  0  0  0  0  0  0  0  0  0  0  0
  145.9890  142.9203  157.0085 H   0  0  0  0  0  0  0  0  0  0  0  0
  144.6493  144.2266  153.8836 H   0  0  0  0  0  0  0  0  0  0  0  0
  145.8321  144.5468  155.1400 H   0  0  0  0  0  0  0  0  0  0  0  0
  146.9567  143.6302  153.1184 H   0  0  0  0  0  0  0  0  0  0  0  0
  145.8968  142.2386  153.1208 H   0  0  0  0  0  0  0  0  0  0  0  0
  150.4143  143.9767  157.6496 H   0  0  0  0  0  0  0  0  0  0  0  0
  150.3956  145.4687  159.4777 H   0  0  0  0  0  0  0  0  0  0  0  0
  151.9337  145.5787  160.3312 H   0  0  0  0  0  0  0  0  0  0  0  0
  150.5760  144.7038  161.0557 H   0  0  0  0  0  0  0  0  0  0  0  0
  1  2  1  0  0  0  0
  1 22  1  0  0  0  0
  1 23  1  0  0  0  0
  1 24  1  0  0  0  0
  2 20  1  0  0  0  0
  2  3  2  0  0  0  0
  3  4  1  0  0  0  0
  3 25  1  0  0  0  0
  4 18  2  0  0  0  0
  4  5  1  0  0  0  0
  5  6  2  0  0  0  0
  6  7  1  0  0  0  0
  6 26  1  0  0  0  0
  7  8  1  0  0  0  0
  7 18  1  0  0  0  0
  8  9  1  0  0  0  0
  8 27  1  0  0  0  0
  8 28  1  0  0  0  0
  9 10  1  0  0  0  0
  9 11  1  0  0  0  0
  9 29  1  0  0  0  0
 10 30  1  0  0  0  0
 11 12  1  0  0  0  0
 11 31  1  0  0  0  0
 11 32  1  0  0  0  0
 12 17  1  0  0  0  0
 12 13  1  0  0  0  0
 13 14  1  0  0  0  0
 13 33  1  0  0  0  0
 13 34  1  0  0  0  0
 14 15  1  0  0  0  0
 14 35  1  0  0  0  0
 14 36  1  0  0  0  0
 15 16  1  0  0  0  0
 16 17  1  0  0  0  0
 16 37  1  0  0  0  0
 16 38  1  0  0  0  0
 17 39  1  0  0  0  0
 17 40  1  0  0  0  0
 18 19  1  0  0  0  0
 19 20  2  0  0  0  0
 19 41  1  0  0  0  0
 20 21  1  0  0  0  0
 21 42  1  0  0  0  0
 21 43  1  0  0  0  0
 21 44  1  0  0  0  0
M  END
> <s_m_source_file>
AV-unprocessed.smi

> <i_m_source_file_index>
467

> <i_lp_mmshare_version>
43012

> <i_f3d_flags>
0

> <s_epik_input>
W0NIM11jKFtjSF0xKWMoW0NIM10pW2NIXWMoYzEyKW4oW2NIXW4yKVtDSDJdW0NASF0oW09IXSlbQ0gyXU4zW0NIMl1bQ0gyXU9bQ0gyXVtDSDJdMw==

> <s_epik_cmdline>
J2VwaWtfcHl0aG9uJywgJy1waCcsICc3LjAnLCAnLXRuJywgJzgnLCAnLW1hJywgJzIwMCcsICctbWV0YWxfYmluZGluZycsICctaW1hZScsICc8aW5maWxlLm1hZT4nLCAnLW9tYWUnLCAnPG91dGZpbGUubWFlPic=

> <r_epik_Ionization_Penalty>
0.345029

> <r_epik_Ionization_Penalty_Charging>
0

> <r_epik_Ionization_Penalty_Neutral>
0.345029

> <r_epik_State_Penalty>
0.314465

> <r_epik_Charging_Adjusted_Penalty>
0.314465

> <i_epik_Tot_Q>
0

> <i_epik_Tot_abs_Q>
0

> <r_epik_Metal_State_Penalty>
0.239717

> <b_epik_Metal_Only>
0

> <s_lp_Force_Field>
OPLS_2005

> <r_lp_Energy>
28.2503

> <b_lp_Chiralities_Consistent>
1

> <s_lp_Variant>
AV-unprocessed.smi:467-1

> <Gold.Version>
5.8.1

> <Gold.Id.Protein>
6NUR|6NUR_protein|mol2

> <Gold.PLP.Fitness>
53.7024

> <Gold.PLP.PLP>
-45.7036

> <Gold.PLP.part.hbond>
-3.0000

> <Gold.PLP.part.metal>
0.0000

> <Gold.PLP.part.buried>
-6.1422

> <Gold.PLP.part.nonpolar>
-36.5882

> <Gold.PLP.part.repulsive>
0.2804

> <Gold.PLP.ligand.clash>
0.0000

> <Gold.PLP.ligand.torsion>
0.3938

> <Gold.PLP.Chemscore.Hbond>
2.9193

> <Gold.PLP.Chemscore.CHOScore>
0.0000

> <Gold.PLP.Chemscore.Metal>
0.0000

> <Gold.Chemscore.Hbonds>
donor molecule, donor type, donor heavy atom, donor atom, acceptor molecule, acceptor atom, score
      L1  H    10    30       P1  7957  1.00
      P1  H  7989  7998       L1    10  0.86
      P1  H  7997  8008       L1     5  1.00

> <Gold.PLP.Chemscore.Internal.Correction>
0.0287

> <Gold.Rescore>
     Score         DG    S(hbond)    S(metal)    S(lipo)     H(rot)  DE(clash)    DE(int)     intcor
     17.08     -19.81       1.66        0.00     119.46       2.02       1.47       1.26       ----

> <Gold.Chemscore.Fitness>
17.0838

> <Gold.Chemscore.DG>
-19.8124

> <Gold.Chemscore.ZeroCoef>
-5.4800

> <Gold.Chemscore.Hbond>
1.6567

> <Gold.Chemscore.Metal>
0.0000

> <Gold.Chemscore.Lipo>
119.4620

> <Gold.Chemscore.Internal_Hbond>
0.0000

> <Gold.Chemscore.DEClash>
1.4713

> <Gold.Chemscore.DEInternal>
1.2573

> <Gold.Chemscore.Rot>
2.0227

> <Gold.Chemscore.Internal.Correction>
   9.000000E+99

> <Gold.Chemscore.Hbonds>
donor molecule, donor type, donor heavy atom, donor atom, acceptor molecule, acceptor atom, score
      L1  H    10    30       P1  7957  1.00
      P1  H  7989  7998       L1    10  0.15
      P1  H  7997  8008       L1     5  0.35

> <Gold.Chemscore.Hbond.Weighted>
-5.5334

> <Gold.Chemscore.Metal.Weighted>
-0.0000

> <Gold.Chemscore.Lipo.Weighted>
-13.9771

> <Gold.Chemscore.Internal_Hbond.Weighted>
0.0000

> <Gold.Chemscore.DEClash.Weighted>
1.4713

> <Gold.Chemscore.DEInternal.Weighted>
1.2573

> <Gold.Chemscore.Rot.Weighted>
5.1780

> <Gold.Chemscore.Internal.Correction.Weighted>
   9.000000E+99

> <Gold.Protein.RotatedTorsions>
[ 6907 6896 6895 6894 ] final  143.24 input  -60.11 | X-H torsion
[ 7974 7965 7964 7962 ] final  -17.83 input  175.53 | X-H torsion
[ 8008 7997 7996 7995 ] final  -67.25 input   59.86 | X-H torsion
[ 10167 10162 10161 10158 ] final -135.31 input  -65.29 | X-H torsion
[ 10718 10713 10712 10709 ] final -120.14 input   66.30 | X-H torsion
[ 10763 10752 10751 10750 ] final  -32.56 input  -60.55 | X-H torsion
[ 11005 11000 10999 10996 ] final  135.03 input  -57.11 | X-H torsion

> <Gold.Protein.ActiveResidues>
 VAL166  LYS551  ARG553  GLY616  TRP617  ASP618  TYR619  PRO620  LYS621  CYS622 
 ASP623  PHE694  ASN695  SER759  ASP760  ASP761  ALA762  ILE779  LEU786  VAL792 
 PHE793  MET794  SER795  GLU796  ALA797  LYS798  CYS799  TRP800  GLU811  SER814 

> <Gold.Protein.RotatedAtoms>
  152.2087  133.4895  159.5097 H   0  0  0  0  0  0  0  0  0  0  0  0  # atno 6907 bound_to 6896
  150.6985  134.1495  159.4144 H   0  0  0  0  0  0  0  0  0  0  0  0  # atno 6908 bound_to 6896
  151.9414  135.0211  160.0587 H   0  0  0  0  0  0  0  0  0  0  0  0  # atno 6909 bound_to 6896
  146.1922  140.3835  142.8454 H   0  0  0  0  0  0  0  0  0  0  0  0  # atno 7974 bound_to 7965
  154.4787  140.0896  156.7326 H   0  0  0  0  0  0  0  0  0  0  0  0  # atno 8008 bound_to 7997
  155.4527  140.3458  155.4284 H   0  0  0  0  0  0  0  0  0  0  0  0  # atno 8009 bound_to 7997
  156.1158  140.1460  156.9263 H   0  0  0  0  0  0  0  0  0  0  0  0  # atno 8010 bound_to 7997
  139.8792  143.6860  152.2629 H   0  0  0  0  0  0  0  0  0  0  0  0  # atno 10167 bound_to 10162
  156.1235  130.6341  150.9504 H   0  0  0  0  0  0  0  0  0  0  0  0  # atno 10718 bound_to 10713
  153.8158  135.6878  153.4834 H   0  0  0  0  0  0  0  0  0  0  0  0  # atno 10763 bound_to 10752
  153.1600  135.4584  154.9756 H   0  0  0  0  0  0  0  0  0  0  0  0  # atno 10764 bound_to 10752
  154.7948  135.3315  154.7635 H   0  0  0  0  0  0  0  0  0  0  0  0  # atno 10765 bound_to 10752
  139.9953  134.9499  156.9950 H   0  0  0  0  0  0  0  0  0  0  0  0  # atno 11005 bound_to 11000
  144.8509  140.6999  143.6169 LP  0  0  0  0  0  0  0  0  0  0  0  0  # atno 17320 bound_to 7965
  145.3757  139.1648  143.4308 LP  0  0  0  0  0  0  0  0  0  0  0  0  # atno 17321 bound_to 7965
  139.7212  144.7602  151.0953 LP  0  0  0  0  0  0  0  0  0  0  0  0  # atno 17342 bound_to 10162
  140.7747  143.5206  150.9541 LP  0  0  0  0  0  0  0  0  0  0  0  0  # atno 17343 bound_to 10162
  157.6418  131.0909  150.8236 LP  0  0  0  0  0  0  0  0  0  0  0  0  # atno 17370 bound_to 10713
  156.8329  130.5022  149.5329 LP  0  0  0  0  0  0  0  0  0  0  0  0  # atno 17371 bound_to 10713
  140.4830  134.1270  155.7220 LP  0  0  0  0  0  0  0  0  0  0  0  0  # atno 17394 bound_to 11000
  141.1599  133.8812  157.1876 LP  0  0  0  0  0  0  0  0  0  0  0  0  # atno 17395 bound_to 11000

$$$$
