AV-unprocessed.smi:2063|AV-procd|sdf|8409|dock10
  -GOLD-   2272011103D 1   1.00000     0.00000
 Structure written by MMmdl.
 39 40  0  0  0  0  0  0  0  0  1 V2000
  149.2005  129.0663  153.2317 C   0  0  0  0  0  0  0  0  0  0  0  0
  148.0273  129.8129  153.8830 C   0  0  0  0  0  0  0  0  0  0  0  0
  146.7445  129.7360  153.0427 C   0  0  0  0  0  0  0  0  0  0  0  0
  148.3851  131.2262  154.2265 C   0  0  0  0  0  0  0  0  0  0  0  0
  148.4285  131.6714  155.4888 N   0  0  0  0  0  0  0  0  0  0  0  0
  148.7777  133.0122  155.5656 N   0  0  0  0  0  0  0  0  0  0  0  0
  148.9887  133.5444  154.3542 C   0  0  0  0  0  0  0  0  0  0  0  0
  149.3594  134.8983  154.1401 N   0  0  0  0  0  0  0  0  0  0  0  0
  149.9545  135.7460  154.9977 C   0  0  0  0  0  0  0  0  0  0  0  0
  150.2769  135.4770  156.1551 O   0  0  0  0  0  0  0  0  0  0  0  0
  150.1557  136.9444  154.4300 N   0  0  0  0  0  0  0  0  0  0  0  0
  150.7636  138.1040  155.0790 C   0  0  1  0  0  0  0  0  0  0  0  0
  152.0028  138.5204  154.2716 C   0  0  0  0  0  0  0  0  0  0  0  0
  149.7288  139.2426  155.1915 C   0  0  2  0  0  0  0  0  0  0  0  0
  148.6418  139.2292  154.1167 C   0  0  0  0  0  0  0  0  0  0  0  0
  148.1695  140.6731  154.0733 C   0  0  0  0  0  0  0  0  0  0  0  0
  149.3006  141.4543  154.7482 C   0  0  0  0  0  0  0  0  0  0  0  0
  150.3361  140.5057  154.9657 O   0  0  0  0  0  0  0  0  0  0  0  0
  148.7781  132.4382  153.0083 S   0  0  0  0  0  0  0  0  0  0  0  0
  150.0786  129.0765  153.8782 H   0  0  0  0  0  0  0  0  0  0  0  0
  149.4820  129.5175  152.2798 H   0  0  0  0  0  0  0  0  0  0  0  0
  148.9444  128.0240  153.0408 H   0  0  0  0  0  0  0  0  0  0  0  0
  147.8153  129.3009  154.8230 H   0  0  0  0  0  0  0  0  0  0  0  0
  145.9104  130.2147  153.5567 H   0  0  0  0  0  0  0  0  0  0  0  0
  146.4625  128.7003  152.8512 H   0  0  0  0  0  0  0  0  0  0  0  0
  146.8688  130.2291  152.0782 H   0  0  0  0  0  0  0  0  0  0  0  0
  149.1456  135.2655  153.2247 H   0  0  0  0  0  0  0  0  0  0  0  0
  149.8538  137.0709  153.4753 H   0  0  0  0  0  0  0  0  0  0  0  0
  151.0989  137.8332  156.0818 H   0  0  0  0  0  0  0  0  0  0  0  0
  152.5296  139.3469  154.7488 H   0  0  0  0  0  0  0  0  0  0  0  0
  151.7329  138.8356  153.2632 H   0  0  0  0  0  0  0  0  0  0  0  0
  152.7094  137.6942  154.1849 H   0  0  0  0  0  0  0  0  0  0  0  0
  149.2699  139.2451  156.1824 H   0  0  0  0  0  0  0  0  0  0  0  0
  149.0706  138.9568  153.1513 H   0  0  0  0  0  0  0  0  0  0  0  0
  147.8359  138.5291  154.3379 H   0  0  0  0  0  0  0  0  0  0  0  0
  148.0002  141.0019  153.0475 H   0  0  0  0  0  0  0  0  0  0  0  0
  147.2380  140.8005  154.6256 H   0  0  0  0  0  0  0  0  0  0  0  0
  149.6568  142.2847  154.1383 H   0  0  0  0  0  0  0  0  0  0  0  0
  148.9707  141.8537  155.7082 H   0  0  0  0  0  0  0  0  0  0  0  0
  1  2  1  0  0  0  0
  1 20  1  0  0  0  0
  1 21  1  0  0  0  0
  1 22  1  0  0  0  0
  2  3  1  0  0  0  0
  2  4  1  0  0  0  0
  2 23  1  0  0  0  0
  3 24  1  0  0  0  0
  3 25  1  0  0  0  0
  3 26  1  0  0  0  0
  4 19  1  0  0  0  0
  4  5  2  0  0  0  0
  5  6  1  0  0  0  0
  6  7  2  0  0  0  0
  7  8  1  0  0  0  0
  7 19  1  0  0  0  0
  8  9  1  0  0  0  0
  8 27  1  0  0  0  0
  9 10  2  0  0  0  0
  9 11  1  0  0  0  0
 11 12  1  0  0  0  0
 11 28  1  0  0  0  0
 12 13  1  0  0  0  0
 12 14  1  0  0  0  0
 12 29  1  0  0  0  0
 13 30  1  0  0  0  0
 13 31  1  0  0  0  0
 13 32  1  0  0  0  0
 14 18  1  0  0  0  0
 14 15  1  0  0  0  0
 14 33  1  0  0  0  0
 15 16  1  0  0  0  0
 15 34  1  0  0  0  0
 15 35  1  0  0  0  0
 16 17  1  0  0  0  0
 16 36  1  0  0  0  0
 16 37  1  0  0  0  0
 17 18  1  0  0  0  0
 17 38  1  0  0  0  0
 17 39  1  0  0  0  0
M  END
> <s_m_source_file>
AV-unprocessed.smi

> <i_m_source_file_index>
2063

> <i_lp_mmshare_version>
43012

> <i_f3d_flags>
0

> <s_epik_input>
W0NIM11bQ0hdKFtDSDNdKWMxbm5jKHMxKVtOSF1DKD1PKVtOSF1bQ0BIXShbQ0gzXSlbQ0BASF0yW0NIMl1bQ0gyXVtDSDJdTzI=

> <s_epik_cmdline>
J2VwaWtfcHl0aG9uJywgJy1waCcsICc3LjAnLCAnLXRuJywgJzgnLCAnLW1hJywgJzIwMCcsICctbWV0YWxfYmluZGluZycsICctaW1hZScsICc8aW5maWxlLm1hZT4nLCAnLW9tYWUnLCAnPG91dGZpbGUubWFlPic=

> <r_lp_tautomer_probability>
1

> <r_epik_Ionization_Penalty>
0.00050567

> <r_epik_Ionization_Penalty_Charging>
0

> <r_epik_Ionization_Penalty_Neutral>
0.00050567

> <r_epik_State_Penalty>
-0

> <r_epik_Charging_Adjusted_Penalty>
0

> <i_epik_Tot_Q>
0

> <i_epik_Tot_abs_Q>
0

> <r_epik_Metal_State_Penalty>
0.219912

> <b_epik_Metal_Only>
0

> <s_lp_Force_Field>
OPLS_2005

> <r_lp_Energy>
10.6095

> <b_lp_Chiralities_Consistent>
1

> <s_lp_Variant>
AV-unprocessed.smi:2063-2

> <Gold.Version>
5.8.1

> <Gold.Id.Protein>
6NUR|6NUR_protein|mol2

> <Gold.PLP.Fitness>
36.7620

> <Gold.PLP.PLP>
-30.0997

> <Gold.PLP.part.hbond>
-3.0448

> <Gold.PLP.part.metal>
0.0000

> <Gold.PLP.part.buried>
-2.2340

> <Gold.PLP.part.nonpolar>
-24.8023

> <Gold.PLP.part.repulsive>
0.1692

> <Gold.PLP.ligand.clash>
0.0000

> <Gold.PLP.ligand.torsion>
1.1130

> <Gold.PLP.Chemscore.Hbond>
2.9360

> <Gold.PLP.Chemscore.CHOScore>
0.0000

> <Gold.PLP.Chemscore.Metal>
0.0000

> <Gold.Chemscore.Hbonds>
donor molecule, donor type, donor heavy atom, donor atom, acceptor molecule, acceptor atom, score
      L1  H     8    27       P1  7948  0.95
      L1  H    11    28       P1  7948  0.94
      P1  H  7989  7998       L1    18  0.98

> <Gold.PLP.Chemscore.Internal.Correction>
0.0803

> <Gold.Rescore>
     Score         DG    S(hbond)    S(metal)    S(lipo)     H(rot)  DE(clash)    DE(int)     intcor
     13.27     -17.17       2.28        0.00      65.72       1.42       1.45       2.45       ----

> <Gold.Chemscore.Fitness>
13.2749

> <Gold.Chemscore.DG>
-17.1725

> <Gold.Chemscore.ZeroCoef>
-5.4800

> <Gold.Chemscore.Hbond>
2.2833

> <Gold.Chemscore.Metal>
0.0000

> <Gold.Chemscore.Lipo>
65.7195

> <Gold.Chemscore.Internal_Hbond>
0.0000

> <Gold.Chemscore.DEClash>
1.4481

> <Gold.Chemscore.DEInternal>
2.4495

> <Gold.Chemscore.Rot>
1.4152

> <Gold.Chemscore.Internal.Correction>
   9.000000E+99

> <Gold.Chemscore.Hbonds>
donor molecule, donor type, donor heavy atom, donor atom, acceptor molecule, acceptor atom, score
      L1  H     8    27       P1  7948  0.21
      L1  H    11    28       P1  7948  0.39
      P1  H  7989  7998       L1    18  0.36

> <Gold.Chemscore.Hbond.Weighted>
-7.6263

> <Gold.Chemscore.Metal.Weighted>
-0.0000

> <Gold.Chemscore.Lipo.Weighted>
-7.6892

> <Gold.Chemscore.Internal_Hbond.Weighted>
0.0000

> <Gold.Chemscore.DEClash.Weighted>
1.4481

> <Gold.Chemscore.DEInternal.Weighted>
2.4495

> <Gold.Chemscore.Rot.Weighted>
3.6229

> <Gold.Chemscore.Internal.Correction.Weighted>
   9.000000E+99

> <Gold.Protein.RotatedTorsions>
[ 6907 6896 6895 6894 ] final  114.95 input  -60.11 | X-H torsion
[ 7974 7965 7964 7962 ] final -156.13 input  175.53 | X-H torsion
[ 8008 7997 7996 7995 ] final   51.55 input   59.86 | X-H torsion
[ 10167 10162 10161 10158 ] final  -60.62 input  -65.29 | X-H torsion
[ 10718 10713 10712 10709 ] final  103.69 input   66.30 | X-H torsion
[ 10763 10752 10751 10750 ] final -160.04 input  -60.55 | X-H torsion
[ 11005 11000 10999 10996 ] final   93.44 input  -57.11 | X-H torsion

> <Gold.Protein.ActiveResidues>
 VAL166  LYS551  ARG553  GLY616  TRP617  ASP618  TYR619  PRO620  LYS621  CYS622 
 ASP623  PHE694  ASN695  SER759  ASP760  ASP761  ALA762  ILE779  LEU786  VAL792 
 PHE793  MET794  SER795  GLU796  ALA797  LYS798  CYS799  TRP800  GLU811  SER814 

> <Gold.Protein.RotatedAtoms>
  152.4772  133.8166  159.7030 H   0  0  0  0  0  0  0  0  0  0  0  0  # atno 6907 bound_to 6896
  150.8796  133.7381  159.2942 H   0  0  0  0  0  0  0  0  0  0  0  0  # atno 6908 bound_to 6896
  151.4889  135.1060  159.9850 H   0  0  0  0  0  0  0  0  0  0  0  0  # atno 6909 bound_to 6896
  144.7607  140.4153  143.5978 H   0  0  0  0  0  0  0  0  0  0  0  0  # atno 7974 bound_to 7965
  155.4371  140.3453  155.4286 H   0  0  0  0  0  0  0  0  0  0  0  0  # atno 8008 bound_to 7997
  156.1301  140.1512  156.9108 H   0  0  0  0  0  0  0  0  0  0  0  0  # atno 8009 bound_to 7997
  154.4888  140.0847  156.7528 H   0  0  0  0  0  0  0  0  0  0  0  0  # atno 8010 bound_to 7997
  140.6059  143.2373  151.5821 H   0  0  0  0  0  0  0  0  0  0  0  0  # atno 10167 bound_to 10162
  157.6764  131.0785  150.5593 H   0  0  0  0  0  0  0  0  0  0  0  0  # atno 10718 bound_to 10713
  154.7424  135.3072  154.8705 H   0  0  0  0  0  0  0  0  0  0  0  0  # atno 10763 bound_to 10752
  153.9516  135.6763  153.4748 H   0  0  0  0  0  0  0  0  0  0  0  0  # atno 10764 bound_to 10752
  153.1022  135.4906  154.8812 H   0  0  0  0  0  0  0  0  0  0  0  0  # atno 10765 bound_to 10752
  139.8810  134.8790  156.3719 H   0  0  0  0  0  0  0  0  0  0  0  0  # atno 11005 bound_to 11000
  145.6628  139.1584  143.2799 LP  0  0  0  0  0  0  0  0  0  0  0  0  # atno 17320 bound_to 7965
  146.1667  140.6707  142.9252 LP  0  0  0  0  0  0  0  0  0  0  0  0  # atno 17321 bound_to 7965
  139.5325  144.2875  152.1179 LP  0  0  0  0  0  0  0  0  0  0  0  0  # atno 17342 bound_to 10162
  140.2065  144.4605  150.6406 LP  0  0  0  0  0  0  0  0  0  0  0  0  # atno 17343 bound_to 10162
  156.5896  130.4326  149.5942 LP  0  0  0  0  0  0  0  0  0  0  0  0  # atno 17370 bound_to 10713
  156.2594  130.6953  151.1717 LP  0  0  0  0  0  0  0  0  0  0  0  0  # atno 17371 bound_to 10713
  140.9458  133.7484  156.0207 LP  0  0  0  0  0  0  0  0  0  0  0  0  # atno 17394 bound_to 11000
  140.8165  134.3339  157.5395 LP  0  0  0  0  0  0  0  0  0  0  0  0  # atno 17395 bound_to 11000

$$$$
