AV-unprocessed.smi:2683|AV-procd|sdf|10377|dock1
  -GOLD-   2272014403D 1   1.00000     0.00000
 Structure written by MMmdl.
 37 38  0  0  0  0  0  0  0  0  2 V2000
  149.4340  141.0290  157.9493 C   0  0  0  0  0  0  0  0  0  0  0  0
  150.5960  141.8357  157.3545 C   0  0  1  0  0  0  0  0  0  0  0  0
  150.6255  141.7013  155.8178 C   0  0  0  0  0  0  0  0  0  0  0  0
  150.9063  140.3470  155.3768 N   0  0  0  0  0  0  0  0  0  0  0  0
  152.0152  139.5712  155.6412 C   0  0  0  0  0  0  0  0  0  0  0  0
  151.8363  138.3776  155.0025 C   0  0  0  0  0  0  0  0  0  0  0  0
  150.5695  138.5182  154.3699 C   0  0  0  0  0  0  0  0  0  0  0  0
  150.0157  139.6988  154.5951 N   0  0  0  0  0  0  0  0  0  0  0  0
  150.4711  143.2534  157.7632 N   0  3  0  0  0  0  0  0  0  0  0  0
  151.7347  144.0200  157.7507 C   0  0  0  0  0  0  0  0  0  0  0  0
  152.3813  144.0457  159.1442 C   0  0  0  0  0  0  0  0  0  0  0  0
  152.6313  142.6589  159.7446 C   0  0  0  0  0  0  0  0  0  0  0  0
  152.7905  142.9023  161.2487 C   0  0  0  0  0  0  0  0  0  0  0  0
  152.0572  144.2188  161.5489 C   0  0  0  0  0  0  0  0  0  0  0  0
  151.5146  144.7249  160.2074 C   0  0  0  0  0  0  0  0  0  0  0  0
  149.5096  139.9750  157.6807 H   0  0  0  0  0  0  0  0  0  0  0  0
  148.4706  141.3948  157.5915 H   0  0  0  0  0  0  0  0  0  0  0  0
  149.4305  141.0895  159.0383 H   0  0  0  0  0  0  0  0  0  0  0  0
  151.5196  141.4217  157.7630 H   0  0  0  0  0  0  0  0  0  0  0  0
  149.6616  141.9937  155.3990 H   0  0  0  0  0  0  0  0  0  0  0  0
  151.3664  142.3771  155.3868 H   0  0  0  0  0  0  0  0  0  0  0  0
  152.8311  139.9295  156.2518 H   0  0  0  0  0  0  0  0  0  0  0  0
  152.5072  137.5314  154.9908 H   0  0  0  0  0  0  0  0  0  0  0  0
  150.0402  137.8034  153.7570 H   0  0  0  0  0  0  0  0  0  0  0  0
  149.8084  143.7041  157.1480 H   0  0  0  0  0  0  0  0  0  0  0  0
  152.4144  143.5531  157.0369 H   0  0  0  0  0  0  0  0  0  0  0  0
  151.5568  145.0371  157.4005 H   0  0  0  0  0  0  0  0  0  0  0  0
  153.3311  144.5811  159.0922 H   0  0  0  0  0  0  0  0  0  0  0  0
  151.7648  142.0182  159.5749 H   0  0  0  0  0  0  0  0  0  0  0  0
  153.4986  142.1612  159.3097 H   0  0  0  0  0  0  0  0  0  0  0  0
  152.3940  142.0705  161.8317 H   0  0  0  0  0  0  0  0  0  0  0  0
  153.8464  143.0039  161.5023 H   0  0  0  0  0  0  0  0  0  0  0  0
  151.2542  144.0814  162.2737 H   0  0  0  0  0  0  0  0  0  0  0  0
  152.7560  144.9423  161.9706 H   0  0  0  0  0  0  0  0  0  0  0  0
  151.5384  145.8127  160.1338 H   0  0  0  0  0  0  0  0  0  0  0  0
  150.4756  144.4102  160.0965 H   0  0  0  0  0  0  0  0  0  0  0  0
  150.1051  143.2814  158.7042 H   0  0  0  0  0  0  0  0  0  0  0  0
  1  2  1  0  0  0  0
  1 16  1  0  0  0  0
  1 17  1  0  0  0  0
  1 18  1  0  0  0  0
  2  3  1  0  0  0  0
  2  9  1  0  0  0  0
  2 19  1  0  0  0  0
  3  4  1  0  0  0  0
  3 20  1  0  0  0  0
  3 21  1  0  0  0  0
  4  8  1  0  0  0  0
  4  5  1  0  0  0  0
  5  6  2  0  0  0  0
  5 22  1  0  0  0  0
  6  7  1  0  0  0  0
  6 23  1  0  0  0  0
  7  8  2  0  0  0  0
  7 24  1  0  0  0  0
  9 10  1  0  0  0  0
  9 25  1  0  0  0  0
  9 37  1  0  0  0  0
 10 11  1  0  0  0  0
 10 26  1  0  0  0  0
 10 27  1  0  0  0  0
 11 15  1  0  0  0  0
 11 12  1  0  0  0  0
 11 28  1  0  0  0  0
 12 13  1  0  0  0  0
 12 29  1  0  0  0  0
 12 30  1  0  0  0  0
 13 14  1  0  0  0  0
 13 31  1  0  0  0  0
 13 32  1  0  0  0  0
 14 15  1  0  0  0  0
 14 33  1  0  0  0  0
 14 34  1  0  0  0  0
 15 35  1  0  0  0  0
 15 36  1  0  0  0  0
M  CHG  1   9   1
M  END
> <s_m_source_file>
AV-unprocessed.smi

> <i_m_source_file_index>
2683

> <i_lp_mmshare_version>
43012

> <i_f3d_flags>
0

> <s_epik_input>
bjFbY0hdW2NIXVtjSF1uMVtDSDJdW0NAQEhdKFtDSDNdKVtOSF1bQ0gyXVtDSF0yW0NIMl1bQ0gyXVtDSDJdW0NIMl0y

> <s_epik_cmdline>
J2VwaWtfcHl0aG9uJywgJy1waCcsICc3LjAnLCAnLXRuJywgJzgnLCAnLW1hJywgJzIwMCcsICctbWV0YWxfYmluZGluZycsICctaW1hZScsICc8aW5maWxlLm1hZT4nLCAnLW9tYWUnLCAnPG91dGZpbGUubWFlPic=

> <r_lp_tautomer_probability>
1

> <r_epik_Ionization_Penalty>
0.00170049

> <r_epik_Ionization_Penalty_Charging>
0.00169627

> <r_epik_Ionization_Penalty_Neutral>
4.21324e-06

> <r_epik_State_Penalty>
0.00114589

> <r_epik_Charging_Adjusted_Penalty>
0.00284216

> <i_epik_Tot_Q>
1

> <i_epik_Tot_abs_Q>
1

> <r_epik_Metal_State_Penalty>
-0

> <b_epik_Metal_Only>
0

> <s_lp_Force_Field>
OPLS_2005

> <r_lp_Energy>
26.2137

> <b_lp_Chiralities_Consistent>
1

> <s_lp_Variant>
AV-unprocessed.smi:2683-2

> <Gold.Version>
5.8.1

> <Gold.Id.Protein>
6NUR|6NUR_protein|mol2

> <Gold.PLP.Fitness>
50.8293

> <Gold.PLP.PLP>
-42.7844

> <Gold.PLP.part.hbond>
-1.0000

> <Gold.PLP.part.metal>
0.0000

> <Gold.PLP.part.buried>
-3.9837

> <Gold.PLP.part.nonpolar>
-38.3516

> <Gold.PLP.part.repulsive>
0.1348

> <Gold.PLP.ligand.clash>
0.0000

> <Gold.PLP.ligand.torsion>
0.4928

> <Gold.PLP.Chemscore.Hbond>
2.0000

> <Gold.PLP.Chemscore.CHOScore>
1.0000

> <Gold.PLP.Chemscore.Metal>
0.0000

> <Gold.Chemscore.Hbonds>
donor molecule, donor type, donor heavy atom, donor atom, acceptor molecule, acceptor atom, score
      L1  H     9    25       P1  8028  2.00
      L1  C     7    24       P1  7948  0.70

> <Gold.PLP.Chemscore.Internal.Correction>
0.0306

> <Gold.Rescore>
     Score         DG    S(hbond)    S(metal)    S(lipo)     H(rot)  DE(clash)    DE(int)     intcor
     17.45     -17.77       0.98        0.00     111.00       1.55       0.05       0.27       ----

> <Gold.Chemscore.Fitness>
17.4542

> <Gold.Chemscore.DG>
-17.7673

> <Gold.Chemscore.ZeroCoef>
-5.4800

> <Gold.Chemscore.Hbond>
0.9820

> <Gold.Chemscore.Metal>
0.0000

> <Gold.Chemscore.Lipo>
110.9957

> <Gold.Chemscore.Internal_Hbond>
0.0000

> <Gold.Chemscore.DEClash>
0.0465

> <Gold.Chemscore.DEInternal>
0.2666

> <Gold.Chemscore.Rot>
1.5543

> <Gold.Chemscore.Internal.Correction>
   9.000000E+99

> <Gold.Chemscore.Hbonds>
donor molecule, donor type, donor heavy atom, donor atom, acceptor molecule, acceptor atom, score
      L1  H     9    25       P1  8028  0.88

> <Gold.Chemscore.Hbond.Weighted>
-3.2798

> <Gold.Chemscore.Metal.Weighted>
-0.0000

> <Gold.Chemscore.Lipo.Weighted>
-12.9865

> <Gold.Chemscore.Internal_Hbond.Weighted>
0.0000

> <Gold.Chemscore.DEClash.Weighted>
0.0465

> <Gold.Chemscore.DEInternal.Weighted>
0.2666

> <Gold.Chemscore.Rot.Weighted>
3.9789

> <Gold.Chemscore.Internal.Correction.Weighted>
   9.000000E+99

> <Gold.Protein.RotatedTorsions>
[ 6907 6896 6895 6894 ] final -132.78 input  -60.11 | X-H torsion
[ 7974 7965 7964 7962 ] final  -43.05 input  175.53 | X-H torsion
[ 8008 7997 7996 7995 ] final   75.88 input   59.86 | X-H torsion
[ 10167 10162 10161 10158 ] final  -95.13 input  -65.29 | X-H torsion
[ 10718 10713 10712 10709 ] final  -74.58 input   66.30 | X-H torsion
[ 10763 10752 10751 10750 ] final   95.91 input  -60.55 | X-H torsion
[ 11005 11000 10999 10996 ] final   87.28 input  -57.11 | X-H torsion

> <Gold.Protein.ActiveResidues>
 VAL166  LYS551  ARG553  GLY616  TRP617  ASP618  TYR619  PRO620  LYS621  CYS622 
 ASP623  PHE694  ASN695  SER759  ASP760  ASP761  ALA762  ILE779  LEU786  VAL792 
 PHE793  MET794  SER795  GLU796  ALA797  LYS798  CYS799  TRP800  GLU811  SER814 

> <Gold.Protein.RotatedAtoms>
  150.9663  133.6391  159.2745 H   0  0  0  0  0  0  0  0  0  0  0  0  # atno 6907 bound_to 6896
  151.3695  135.0918  159.9470 H   0  0  0  0  0  0  0  0  0  0  0  0  # atno 6908 bound_to 6896
  152.5167  133.9220  159.7594 H   0  0  0  0  0  0  0  0  0  0  0  0  # atno 6909 bound_to 6896
  146.0056  140.7024  142.9249 H   0  0  0  0  0  0  0  0  0  0  0  0  # atno 7974 bound_to 7965
  155.8192  140.3470  155.5504 H   0  0  0  0  0  0  0  0  0  0  0  0  # atno 8008 bound_to 7997
  155.8359  140.0934  157.1784 H   0  0  0  0  0  0  0  0  0  0  0  0  # atno 8009 bound_to 7997
  154.4004  140.1403  156.3658 H   0  0  0  0  0  0  0  0  0  0  0  0  # atno 8010 bound_to 7997
  140.3073  143.3126  152.0186 H   0  0  0  0  0  0  0  0  0  0  0  0  # atno 10167 bound_to 10162
  156.0237  130.4420  150.2914 H   0  0  0  0  0  0  0  0  0  0  0  0  # atno 10718 bound_to 10713
  153.2587  135.4237  155.0872 H   0  0  0  0  0  0  0  0  0  0  0  0  # atno 10763 bound_to 10752
  154.8411  135.3444  154.6408 H   0  0  0  0  0  0  0  0  0  0  0  0  # atno 10764 bound_to 10752
  153.6828  135.7038  153.5170 H   0  0  0  0  0  0  0  0  0  0  0  0  # atno 10765 bound_to 10752
  139.8923  134.8412  156.2838 H   0  0  0  0  0  0  0  0  0  0  0  0  # atno 11005 bound_to 11000
  144.6934  140.3309  143.7216 LP  0  0  0  0  0  0  0  0  0  0  0  0  # atno 17320 bound_to 7965
  145.7421  139.1767  143.2370 LP  0  0  0  0  0  0  0  0  0  0  0  0  # atno 17321 bound_to 7965
  139.4901  144.6411  151.6874 LP  0  0  0  0  0  0  0  0  0  0  0  0  # atno 17342 bound_to 10162
  140.5599  144.0286  150.6165 LP  0  0  0  0  0  0  0  0  0  0  0  0  # atno 17343 bound_to 10162
  157.1018  131.0197  151.3082 LP  0  0  0  0  0  0  0  0  0  0  0  0  # atno 17370 bound_to 10713
  157.4774  130.7745  149.7381 LP  0  0  0  0  0  0  0  0  0  0  0  0  # atno 17371 bound_to 10713
  141.0021  133.7145  156.0977 LP  0  0  0  0  0  0  0  0  0  0  0  0  # atno 17394 bound_to 11000
  140.7483  134.4073  157.5545 LP  0  0  0  0  0  0  0  0  0  0  0  0  # atno 17395 bound_to 11000

$$$$
