AV-unprocessed.smi:1157|AV-procd|sdf|4910|dock10
  -GOLD-   22720 3483D 1   1.00000     0.00000
 Structure written by MMmdl.
 55 57  0  0  0  0  0  0  0  0  4 V2000
  144.1005  136.5172  152.4796 C   0  0  0  0  0  0  0  0  0  0  0  0
  145.6422  136.7372  152.4954 C   0  0  0  0  0  0  0  0  0  0  0  0
  145.9566  137.5752  151.2207 C   0  0  0  0  0  0  0  0  0  0  0  0
  146.0791  137.5190  153.7964 C   0  0  0  0  0  0  0  0  0  0  0  0
  147.4608  138.0048  153.7105 N   0  5  0  0  0  0  0  0  0  0  0  0
  147.8979  139.2063  154.1732 C   0  0  0  0  0  0  0  0  0  0  0  0
  147.5986  140.3298  153.7537 O   0  0  0  0  0  0  0  0  0  0  0  0
  148.7623  139.0683  155.1948 N   0  0  0  0  0  0  0  0  0  0  0  0
  149.4680  140.0710  155.9127 C   0  0  0  0  0  0  0  0  0  0  0  0
  150.4052  139.6510  156.8793 C   0  0  0  0  0  0  0  0  0  0  0  0
  151.1231  140.6102  157.6222 C   0  0  0  0  0  0  0  0  0  0  0  0
  150.8860  141.9873  157.4017 C   0  0  0  0  0  0  0  0  0  0  0  0
  151.5738  143.0004  158.0959 N   0  0  0  0  0  0  0  0  0  0  0  0
  151.1963  144.3998  157.9836 C   0  0  0  0  0  0  0  0  0  0  0  0
  152.1023  145.1218  158.9801 C   0  0  0  0  0  0  0  0  0  0  0  0
  152.2941  144.0858  160.0884 C   0  0  0  0  0  0  0  0  0  0  0  0
  152.2579  142.7398  159.3542 C   0  0  0  0  0  0  0  0  0  0  0  0
  149.9644  142.3452  156.4759 N   0  3  0  0  0  0  0  0  0  0  0  0
  149.2561  141.4595  155.7422 C   0  0  0  0  0  0  0  0  0  0  0  0
  146.3200  135.3840  152.3586 N   0  3  0  0  0  0  0  0  0  0  0  0
  146.4512  134.5478  153.5914 C   0  0  0  0  0  0  0  0  0  0  0  0
  147.4054  133.3685  153.3431 C   0  0  0  0  0  0  0  0  0  0  0  0
  146.9339  132.5892  152.2529 O   0  0  0  0  0  0  0  0  0  0  0  0
  146.8916  133.3415  151.0488 C   0  0  0  0  0  0  0  0  0  0  0  0
  145.9176  134.5208  151.2053 C   0  0  0  0  0  0  0  0  0  0  0  0
  143.5501  137.4515  152.3520 H   0  0  0  0  0  0  0  0  0  0  0  0
  143.7126  136.0579  153.3905 H   0  0  0  0  0  0  0  0  0  0  0  0
  143.8090  135.8763  151.6467 H   0  0  0  0  0  0  0  0  0  0  0  0
  145.3260  138.4631  151.1427 H   0  0  0  0  0  0  0  0  0  0  0  0
  145.7731  136.9915  150.3179 H   0  0  0  0  0  0  0  0  0  0  0  0
  146.9875  137.9303  151.1714 H   0  0  0  0  0  0  0  0  0  0  0  0
  145.3964  138.3550  153.9472 H   0  0  0  0  0  0  0  0  0  0  0  0
  145.9214  136.8724  154.6601 H   0  0  0  0  0  0  0  0  0  0  0  0
  149.0092  138.1158  155.4207 H   0  0  0  0  0  0  0  0  0  0  0  0
  150.5838  138.5984  157.0448 H   0  0  0  0  0  0  0  0  0  0  0  0
  151.8517  140.2764  158.3458 H   0  0  0  0  0  0  0  0  0  0  0  0
  151.3324  144.7759  156.9691 H   0  0  0  0  0  0  0  0  0  0  0  0
  150.1477  144.5175  158.2606 H   0  0  0  0  0  0  0  0  0  0  0  0
  153.0634  145.3428  158.5135 H   0  0  0  0  0  0  0  0  0  0  0  0
  151.6773  146.0598  159.3383 H   0  0  0  0  0  0  0  0  0  0  0  0
  153.2135  144.2345  160.6551 H   0  0  0  0  0  0  0  0  0  0  0  0
  151.4581  144.1434  160.7870 H   0  0  0  0  0  0  0  0  0  0  0  0
  151.7499  141.9821  159.9522 H   0  0  0  0  0  0  0  0  0  0  0  0
  153.2680  142.3891  159.1399 H   0  0  0  0  0  0  0  0  0  0  0  0
  148.5460  141.8990  155.0579 H   0  0  0  0  0  0  0  0  0  0  0  0
  146.8437  135.1200  154.4293 H   0  0  0  0  0  0  0  0  0  0  0  0
  145.4780  134.1610  153.8963 H   0  0  0  0  0  0  0  0  0  0  0  0
  148.4186  133.7221  153.1444 H   0  0  0  0  0  0  0  0  0  0  0  0
  147.4580  132.7361  154.2295 H   0  0  0  0  0  0  0  0  0  0  0  0
  147.8911  133.6926  150.7874 H   0  0  0  0  0  0  0  0  0  0  0  0
  146.5628  132.6896  150.2394 H   0  0  0  0  0  0  0  0  0  0  0  0
  144.9092  134.1326  151.3521 H   0  0  0  0  0  0  0  0  0  0  0  0
  145.9128  135.0738  150.2683 H   0  0  0  0  0  0  0  0  0  0  0  0
  147.2727  135.6394  152.1426 H   0  0  0  0  0  0  0  0  0  0  0  0
  149.7929  143.3388  156.3231 H   0  0  0  0  0  0  0  0  0  0  0  0
  1  2  1  0  0  0  0
  1 26  1  0  0  0  0
  1 27  1  0  0  0  0
  1 28  1  0  0  0  0
  2  3  1  0  0  0  0
  2  4  1  0  0  0  0
  2 20  1  0  0  0  0
  3 29  1  0  0  0  0
  3 30  1  0  0  0  0
  3 31  1  0  0  0  0
  4  5  1  0  0  0  0
  4 32  1  0  0  0  0
  4 33  1  0  0  0  0
  5  6  1  0  0  0  0
  6  7  2  0  0  0  0
  6  8  1  0  0  0  0
  8  9  1  0  0  0  0
  8 34  1  0  0  0  0
  9 19  1  0  0  0  0
  9 10  2  0  0  0  0
 10 11  1  0  0  0  0
 10 35  1  0  0  0  0
 11 12  2  0  0  0  0
 11 36  1  0  0  0  0
 12 13  1  0  0  0  0
 12 18  1  0  0  0  0
 13 17  1  0  0  0  0
 13 14  1  0  0  0  0
 14 15  1  0  0  0  0
 14 37  1  0  0  0  0
 14 38  1  0  0  0  0
 15 16  1  0  0  0  0
 15 39  1  0  0  0  0
 15 40  1  0  0  0  0
 16 17  1  0  0  0  0
 16 41  1  0  0  0  0
 16 42  1  0  0  0  0
 17 43  1  0  0  0  0
 17 44  1  0  0  0  0
 18 19  2  0  0  0  0
 18 55  1  0  0  0  0
 19 45  1  0  0  0  0
 20 25  1  0  0  0  0
 20 21  1  0  0  0  0
 20 54  1  0  0  0  0
 21 22  1  0  0  0  0
 21 46  1  0  0  0  0
 21 47  1  0  0  0  0
 22 23  1  0  0  0  0
 22 48  1  0  0  0  0
 22 49  1  0  0  0  0
 23 24  1  0  0  0  0
 24 25  1  0  0  0  0
 24 50  1  0  0  0  0
 24 51  1  0  0  0  0
 25 52  1  0  0  0  0
 25 53  1  0  0  0  0
M  CHG  1   5  -1
M  CHG  1  18   1
M  CHG  1  20   1
M  END
> <s_m_source_file>
AV-unprocessed.smi

> <i_m_source_file_index>
1157

> <i_lp_mmshare_version>
43012

> <i_f3d_flags>
0

> <s_epik_input>
W0NIMl0xW0NIMl1PW0NIMl1bQ0gyXU4xQyhbQ0gzXSkoW0NIM10pW0NIMl1bTkhdQyg9TylbTkhdYzJbY0hdW2NIXWMobltjSF0yKU4zW0NIMl1bQ0gyXVtDSDJdW0NIMl0z

> <s_epik_cmdline>
J2VwaWtfcHl0aG9uJywgJy1waCcsICc3LjAnLCAnLXRuJywgJzgnLCAnLW1hJywgJzIwMCcsICctbWV0YWxfYmluZGluZycsICctaW1hZScsICc8aW5maWxlLm1hZT4nLCAnLW9tYWUnLCAnPG91dGZpbGUubWFlPic=

> <r_lp_tautomer_probability>
0.999994

> <r_epik_Ionization_Penalty>
8.57565

> <r_epik_Ionization_Penalty_Charging>
8.57565

> <r_epik_Ionization_Penalty_Neutral>
3.57932e-06

> <r_epik_State_Penalty>
8.56988

> <r_epik_Charging_Adjusted_Penalty>
17.1455

> <i_epik_Tot_Q>
1

> <i_epik_Tot_abs_Q>
3

> <r_epik_Metal_State_Penalty>
4.56714

> <b_epik_Metal_Only>
1

> <s_lp_Force_Field>
OPLS_2005

> <r_lp_Energy>
57.9076

> <b_lp_Chiralities_Consistent>
1

> <s_lp_Variant>
AV-unprocessed.smi:1157-5

> <Gold.Version>
5.8.1

> <Gold.Id.Protein>
6NUR|6NUR_protein|mol2

> <Gold.PLP.Fitness>
51.0857

> <Gold.PLP.PLP>
-41.1479

> <Gold.PLP.part.hbond>
-2.0000

> <Gold.PLP.part.metal>
0.0000

> <Gold.PLP.part.buried>
-3.5532

> <Gold.PLP.part.nonpolar>
-38.6183

> <Gold.PLP.part.repulsive>
1.7190

> <Gold.PLP.ligand.clash>
0.0000

> <Gold.PLP.ligand.torsion>
1.2312

> <Gold.PLP.Chemscore.Hbond>
4.0000

> <Gold.PLP.Chemscore.CHOScore>
0.0000

> <Gold.PLP.Chemscore.Metal>
0.0000

> <Gold.Chemscore.Hbonds>
donor molecule, donor type, donor heavy atom, donor atom, acceptor molecule, acceptor atom, score
      L1  H    18    55       P1  8028  2.00
      L1  H    20    54       P1  7948  2.00

> <Gold.PLP.Chemscore.Internal.Correction>
0.4001

> <Gold.Rescore>
     Score         DG    S(hbond)    S(metal)    S(lipo)     H(rot)  DE(clash)    DE(int)     intcor
     17.38     -21.37       1.95        0.00     111.18       1.42       1.55       2.45       ----

> <Gold.Chemscore.Fitness>
17.3757

> <Gold.Chemscore.DG>
-21.3668

> <Gold.Chemscore.ZeroCoef>
-5.4800

> <Gold.Chemscore.Hbond>
1.9537

> <Gold.Chemscore.Metal>
0.0000

> <Gold.Chemscore.Lipo>
111.1758

> <Gold.Chemscore.Internal_Hbond>
0.0000

> <Gold.Chemscore.DEClash>
1.5452

> <Gold.Chemscore.DEInternal>
2.4460

> <Gold.Chemscore.Rot>
1.4243

> <Gold.Chemscore.Internal.Correction>
   9.000000E+99

> <Gold.Chemscore.Hbonds>
donor molecule, donor type, donor heavy atom, donor atom, acceptor molecule, acceptor atom, score
      L1  H    18    55       P1  8028  0.98
      L1  H    20    54       P1  7948  1.00

> <Gold.Chemscore.Hbond.Weighted>
-6.5254

> <Gold.Chemscore.Metal.Weighted>
-0.0000

> <Gold.Chemscore.Lipo.Weighted>
-13.0076

> <Gold.Chemscore.Internal_Hbond.Weighted>
0.0000

> <Gold.Chemscore.DEClash.Weighted>
1.5452

> <Gold.Chemscore.DEInternal.Weighted>
2.4460

> <Gold.Chemscore.Rot.Weighted>
3.6462

> <Gold.Chemscore.Internal.Correction.Weighted>
   9.000000E+99

> <Gold.Protein.RotatedTorsions>
[ 6907 6896 6895 6894 ] final   93.78 input  -60.11 | X-H torsion
[ 7974 7965 7964 7962 ] final  130.88 input  175.53 | X-H torsion
[ 8008 7997 7996 7995 ] final  135.18 input   59.86 | X-H torsion
[ 10167 10162 10161 10158 ] final   92.81 input  -65.29 | X-H torsion
[ 10718 10713 10712 10709 ] final -168.86 input   66.30 | X-H torsion
[ 10763 10752 10751 10750 ] final -102.05 input  -60.55 | X-H torsion
[ 11005 11000 10999 10996 ] final  176.36 input  -57.11 | X-H torsion

> <Gold.Protein.ActiveResidues>
 VAL166  LYS551  ARG553  GLY616  TRP617  ASP618  TYR619  PRO620  LYS621  CYS622 
 ASP623  PHE694  ASN695  SER759  ASP760  ASP761  ALA762  ILE779  LEU786  VAL792 
 PHE793  MET794  SER795  GLU796  ALA797  LYS798  CYS799  TRP800  GLU811  SER814 

> <Gold.Protein.RotatedAtoms>
  152.5451  134.1295  159.8432 H   0  0  0  0  0  0  0  0  0  0  0  0  # atno 6907 bound_to 6896
  151.1342  133.5008  159.2606 H   0  0  0  0  0  0  0  0  0  0  0  0  # atno 6908 bound_to 6896
  151.1642  135.0298  159.8778 H   0  0  0  0  0  0  0  0  0  0  0  0  # atno 6909 bound_to 6896
  145.0132  139.4201  143.5234 H   0  0  0  0  0  0  0  0  0  0  0  0  # atno 7974 bound_to 7965
  156.3002  140.2477  156.3540 H   0  0  0  0  0  0  0  0  0  0  0  0  # atno 8008 bound_to 7997
  154.8939  140.0408  157.1874 H   0  0  0  0  0  0  0  0  0  0  0  0  # atno 8009 bound_to 7997
  154.8569  140.2914  155.5567 H   0  0  0  0  0  0  0  0  0  0  0  0  # atno 8010 bound_to 7997
  139.8241  144.6718  150.9482 H   0  0  0  0  0  0  0  0  0  0  0  0  # atno 10167 bound_to 10162
  156.7031  130.9204  151.3082 H   0  0  0  0  0  0  0  0  0  0  0  0  # atno 10718 bound_to 10713
  154.7704  135.4875  153.9638 H   0  0  0  0  0  0  0  0  0  0  0  0  # atno 10763 bound_to 10752
  153.1361  135.6763  153.9108 H   0  0  0  0  0  0  0  0  0  0  0  0  # atno 10764 bound_to 10752
  153.8797  135.3133  155.3423 H   0  0  0  0  0  0  0  0  0  0  0  0  # atno 10765 bound_to 10752
  140.3723  134.7019  157.4400 H   0  0  0  0  0  0  0  0  0  0  0  0  # atno 11005 bound_to 11000
  146.3473  139.9588  142.8720 LP  0  0  0  0  0  0  0  0  0  0  0  0  # atno 17320 bound_to 7965
  145.1995  140.9848  143.4164 LP  0  0  0  0  0  0  0  0  0  0  0  0  # atno 17321 bound_to 7965
  140.7811  143.4064  151.1065 LP  0  0  0  0  0  0  0  0  0  0  0  0  # atno 17342 bound_to 10162
  139.7722  143.8477  152.3122 LP  0  0  0  0  0  0  0  0  0  0  0  0  # atno 17343 bound_to 10162
  157.6965  130.9288  150.0660 LP  0  0  0  0  0  0  0  0  0  0  0  0  # atno 17370 bound_to 10713
  156.1714  130.3646  149.9159 LP  0  0  0  0  0  0  0  0  0  0  0  0  # atno 17371 bound_to 10713
  140.0542  134.6087  155.8825 LP  0  0  0  0  0  0  0  0  0  0  0  0  # atno 17394 bound_to 11000
  141.1950  133.6585  156.5624 LP  0  0  0  0  0  0  0  0  0  0  0  0  # atno 17395 bound_to 11000

$$$$
