AV-unprocessed.smi:1787|AV-procd|sdf|7207|dock2
  -GOLD-   22720 8453D 1   1.00000     0.00000
 Structure written by MMmdl.
 44 46  0  0  0  0  0  0  0  0  1 V2000
  144.7172  136.2400  153.0561 O   0  0  0  0  0  0  0  0  0  0  0  0
  145.9148  136.1469  152.7880 C   0  0  0  0  0  0  0  0  0  0  0  0
  146.8461  136.9950  153.2455 N   0  0  0  0  0  0  0  0  0  0  0  0
  146.6037  138.1402  154.1225 C   0  0  0  0  0  0  0  0  0  0  0  0
  147.9079  138.9432  154.4454 C   0  0  2  0  0  0  0  0  0  0  0  0
  149.0812  138.0186  154.5229 N   0  0  0  0  0  0  0  0  0  0  0  0
  148.9739  136.9174  155.4913 C   0  0  0  0  0  0  0  0  0  0  0  0
  150.1898  135.9756  155.4477 C   0  0  0  0  0  0  0  0  0  0  0  0
  151.3825  136.7165  155.6664 O   0  0  0  0  0  0  0  0  0  0  0  0
  151.5617  137.7400  154.6974 C   0  0  0  0  0  0  0  0  0  0  0  0
  150.3640  138.7033  154.7354 C   0  0  0  0  0  0  0  0  0  0  0  0
  147.6674  139.7486  155.7555 C   0  0  0  0  0  0  0  0  0  0  0  0
  146.6673  140.8761  155.4780 C   0  0  0  0  0  0  0  0  0  0  0  0
  146.9341  141.4213  153.7748 S   0  0  0  0  0  0  0  0  0  0  0  0
  148.0639  140.0576  153.3789 C   0  0  0  0  0  0  0  0  0  0  0  0
  146.4683  135.1827  152.0331 N   0  0  0  0  0  0  0  0  0  0  0  0
  145.8230  134.1111  151.3594 C   0  0  0  0  0  0  0  0  0  0  0  0
  144.4175  134.1478  151.2515 C   0  0  0  0  0  0  0  0  0  0  0  0
  143.7508  133.0891  150.6063 C   0  0  0  0  0  0  0  0  0  0  0  0
  144.5200  132.0241  150.0988 C   0  0  0  0  0  0  0  0  0  0  0  0
  145.8642  131.9651  150.2061 N   0  0  0  0  0  0  0  0  0  0  0  0
  146.4976  132.9850  150.8250 C   0  0  0  0  0  0  0  0  0  0  0  0
  147.8064  136.8281  152.9831 H   0  0  0  0  0  0  0  0  0  0  0  0
  145.8646  138.7747  153.6355 H   0  0  0  0  0  0  0  0  0  0  0  0
  146.0922  137.8166  155.0288 H   0  0  0  0  0  0  0  0  0  0  0  0
  148.8678  137.3045  156.5040 H   0  0  0  0  0  0  0  0  0  0  0  0
  148.1011  136.3018  155.2879 H   0  0  0  0  0  0  0  0  0  0  0  0
  150.1015  135.2092  156.2178 H   0  0  0  0  0  0  0  0  0  0  0  0
  150.2441  135.4592  154.4878 H   0  0  0  0  0  0  0  0  0  0  0  0
  152.4854  138.2769  154.9141 H   0  0  0  0  0  0  0  0  0  0  0  0
  151.6726  137.3002  153.7050 H   0  0  0  0  0  0  0  0  0  0  0  0
  150.5366  139.4591  153.9725 H   0  0  0  0  0  0  0  0  0  0  0  0
  150.3564  139.2207  155.6954 H   0  0  0  0  0  0  0  0  0  0  0  0
  147.3511  139.1225  156.5893 H   0  0  0  0  0  0  0  0  0  0  0  0
  148.5753  140.2514  156.0805 H   0  0  0  0  0  0  0  0  0  0  0  0
  145.6419  140.5206  155.5778 H   0  0  0  0  0  0  0  0  0  0  0  0
  146.7906  141.7073  156.1726 H   0  0  0  0  0  0  0  0  0  0  0  0
  149.0672  140.4800  153.3872 H   0  0  0  0  0  0  0  0  0  0  0  0
  147.8802  139.6978  152.3660 H   0  0  0  0  0  0  0  0  0  0  0  0
  147.4764  135.1847  151.9785 H   0  0  0  0  0  0  0  0  0  0  0  0
  143.8548  134.9784  151.6526 H   0  0  0  0  0  0  0  0  0  0  0  0
  142.6757  133.0927  150.5035 H   0  0  0  0  0  0  0  0  0  0  0  0
  144.0426  131.1953  149.5975 H   0  0  0  0  0  0  0  0  0  0  0  0
  147.5673  132.8688  150.9045 H   0  0  0  0  0  0  0  0  0  0  0  0
  1  2  2  0  0  0  0
  2  3  1  0  0  0  0
  2 16  1  0  0  0  0
  3  4  1  0  0  0  0
  3 23  1  0  0  0  0
  4  5  1  0  0  0  0
  4 24  1  0  0  0  0
  4 25  1  0  0  0  0
  5 15  1  0  0  0  0
  5  6  1  0  0  0  0
  5 12  1  0  0  0  0
  6 11  1  0  0  0  0
  6  7  1  0  0  0  0
  7  8  1  0  0  0  0
  7 26  1  0  0  0  0
  7 27  1  0  0  0  0
  8  9  1  0  0  0  0
  8 28  1  0  0  0  0
  8 29  1  0  0  0  0
  9 10  1  0  0  0  0
 10 11  1  0  0  0  0
 10 30  1  0  0  0  0
 10 31  1  0  0  0  0
 11 32  1  0  0  0  0
 11 33  1  0  0  0  0
 12 13  1  0  0  0  0
 12 34  1  0  0  0  0
 12 35  1  0  0  0  0
 13 14  1  0  0  0  0
 13 36  1  0  0  0  0
 13 37  1  0  0  0  0
 14 15  1  0  0  0  0
 15 38  1  0  0  0  0
 15 39  1  0  0  0  0
 16 17  1  0  0  0  0
 16 40  1  0  0  0  0
 17 22  1  0  0  0  0
 17 18  2  0  0  0  0
 18 19  1  0  0  0  0
 18 41  1  0  0  0  0
 19 20  2  0  0  0  0
 19 42  1  0  0  0  0
 20 21  1  0  0  0  0
 20 43  1  0  0  0  0
 21 22  2  0  0  0  0
 22 44  1  0  0  0  0
M  END
> <s_m_source_file>
AV-unprocessed.smi

> <i_m_source_file_index>
1787

> <i_lp_mmshare_version>
43012

> <i_f3d_flags>
0

> <s_epik_input>
W2NIXTFuW2NIXVtjSF1bY0hdYzFbTkhdQyg9TylbTkhdW0NIMl1bQ0BdMihbQ0gyXVtDSDJdU1tDSDJdMilOM1tDSDJdW0NIMl1PW0NIMl1bQ0gyXTM=

> <s_epik_cmdline>
J2VwaWtfcHl0aG9uJywgJy1waCcsICc3LjAnLCAnLXRuJywgJzgnLCAnLW1hJywgJzIwMCcsICctbWV0YWxfYmluZGluZycsICctaW1hZScsICc8aW5maWxlLm1hZT4nLCAnLW9tYWUnLCAnPG91dGZpbGUubWFlPic=

> <r_epik_Ionization_Penalty>
0.024212

> <r_epik_Ionization_Penalty_Charging>
0

> <r_epik_Ionization_Penalty_Neutral>
0.024212

> <r_epik_State_Penalty>
0.0155843

> <r_epik_Charging_Adjusted_Penalty>
0.0155843

> <i_epik_Tot_Q>
0

> <i_epik_Tot_abs_Q>
0

> <r_epik_Metal_State_Penalty>
0.01557

> <b_epik_Metal_Only>
0

> <s_lp_Force_Field>
OPLS_2005

> <r_lp_Energy>
56.7438

> <b_lp_Chiralities_Consistent>
1

> <s_lp_Variant>
AV-unprocessed.smi:1787-2

> <Gold.Version>
5.8.1

> <Gold.Id.Protein>
6NUR|6NUR_protein|mol2

> <Gold.PLP.Fitness>
42.4154

> <Gold.PLP.PLP>
-31.5793

> <Gold.PLP.part.hbond>
-3.0000

> <Gold.PLP.part.metal>
0.0000

> <Gold.PLP.part.buried>
-3.6606

> <Gold.PLP.part.nonpolar>
-26.7661

> <Gold.PLP.part.repulsive>
0.7140

> <Gold.PLP.ligand.clash>
0.0000

> <Gold.PLP.ligand.torsion>
0.5135

> <Gold.PLP.Chemscore.Hbond>
2.9920

> <Gold.PLP.Chemscore.CHOScore>
0.9333

> <Gold.PLP.Chemscore.Metal>
0.0000

> <Gold.Chemscore.Hbonds>
donor molecule, donor type, donor heavy atom, donor atom, acceptor molecule, acceptor atom, score
      L1  H     3    23       P1  7948  0.99
      L1  H    16    40       P1  7948  0.91
      P1  H 10752 10764       L1     9  0.17
      L1  C    22    44       P1 10747  0.97

> <Gold.PLP.Chemscore.Internal.Correction>
0.0873

> <Gold.Rescore>
     Score         DG    S(hbond)    S(metal)    S(lipo)     H(rot)  DE(clash)    DE(int)     intcor
     16.10     -18.00       1.97        0.00      82.37       1.44       0.04       1.86       ----

> <Gold.Chemscore.Fitness>
16.1017

> <Gold.Chemscore.DG>
-17.9968

> <Gold.Chemscore.ZeroCoef>
-5.4800

> <Gold.Chemscore.Hbond>
1.9694

> <Gold.Chemscore.Metal>
0.0000

> <Gold.Chemscore.Lipo>
82.3659

> <Gold.Chemscore.Internal_Hbond>
0.0000

> <Gold.Chemscore.DEClash>
0.0384

> <Gold.Chemscore.DEInternal>
1.8566

> <Gold.Chemscore.Rot>
1.4445

> <Gold.Chemscore.Internal.Correction>
   9.000000E+99

> <Gold.Chemscore.Hbonds>
donor molecule, donor type, donor heavy atom, donor atom, acceptor molecule, acceptor atom, score
      L1  H     3    23       P1  7948  0.94
      L1  H    16    40       P1  7948  0.87

> <Gold.Chemscore.Hbond.Weighted>
-6.5779

> <Gold.Chemscore.Metal.Weighted>
-0.0000

> <Gold.Chemscore.Lipo.Weighted>
-9.6368

> <Gold.Chemscore.Internal_Hbond.Weighted>
0.0000

> <Gold.Chemscore.DEClash.Weighted>
0.0384

> <Gold.Chemscore.DEInternal.Weighted>
1.8566

> <Gold.Chemscore.Rot.Weighted>
3.6980

> <Gold.Chemscore.Internal.Correction.Weighted>
   9.000000E+99

> <Gold.Protein.RotatedTorsions>
[ 6907 6896 6895 6894 ] final  174.29 input  -60.11 | X-H torsion
[ 7974 7965 7964 7962 ] final  135.02 input  175.53 | X-H torsion
[ 8008 7997 7996 7995 ] final -108.74 input   59.86 | X-H torsion
[ 10167 10162 10161 10158 ] final -144.76 input  -65.29 | X-H torsion
[ 10718 10713 10712 10709 ] final   85.59 input   66.30 | X-H torsion
[ 10763 10752 10751 10750 ] final  -62.06 input  -60.55 | X-H torsion
[ 11005 11000 10999 10996 ] final   30.54 input  -57.11 | X-H torsion

> <Gold.Protein.ActiveResidues>
 VAL166  LYS551  ARG553  GLY616  TRP617  ASP618  TYR619  PRO620  LYS621  CYS622 
 ASP623  PHE694  ASN695  SER759  ASP760  ASP761  ALA762  ILE779  LEU786  VAL792 
 PHE793  MET794  SER795  GLU796  ALA797  LYS798  CYS799  TRP800  GLU811  SER814 

> <Gold.Protein.RotatedAtoms>
  151.7547  133.3329  159.3400 H   0  0  0  0  0  0  0  0  0  0  0  0  # atno 6907 bound_to 6896
  150.7521  134.6161  159.6120 H   0  0  0  0  0  0  0  0  0  0  0  0  # atno 6908 bound_to 6896
  152.3445  134.7091  160.0306 H   0  0  0  0  0  0  0  0  0  0  0  0  # atno 6909 bound_to 6896
  144.9705  139.4611  143.5435 H   0  0  0  0  0  0  0  0  0  0  0  0  # atno 7974 bound_to 7965
  154.9488  140.0401  157.2134 H   0  0  0  0  0  0  0  0  0  0  0  0  # atno 8008 bound_to 7997
  154.7998  140.2850  155.5908 H   0  0  0  0  0  0  0  0  0  0  0  0  # atno 8009 bound_to 7997
  156.2960  140.2557  156.2864 H   0  0  0  0  0  0  0  0  0  0  0  0  # atno 8010 bound_to 7997
  139.7869  143.8021  152.2645 H   0  0  0  0  0  0  0  0  0  0  0  0  # atno 10167 bound_to 10162
  157.6917  131.0181  150.2846 H   0  0  0  0  0  0  0  0  0  0  0  0  # atno 10718 bound_to 10713
  154.2941  135.6247  153.5397 H   0  0  0  0  0  0  0  0  0  0  0  0  # atno 10763 bound_to 10752
  152.9848  135.5663  154.5357 H   0  0  0  0  0  0  0  0  0  0  0  0  # atno 10764 bound_to 10752
  154.4974  135.2870  155.1424 H   0  0  0  0  0  0  0  0  0  0  0  0  # atno 10765 bound_to 10752
  140.2933  134.2840  155.7771 H   0  0  0  0  0  0  0  0  0  0  0  0  # atno 11005 bound_to 11000
  146.3380  139.8914  142.8808 LP  0  0  0  0  0  0  0  0  0  0  0  0  # atno 17320 bound_to 7965
  145.2566  141.0062  143.3850 LP  0  0  0  0  0  0  0  0  0  0  0  0  # atno 17321 bound_to 7965
  139.8101  144.7339  150.9709 LP  0  0  0  0  0  0  0  0  0  0  0  0  # atno 17342 bound_to 10162
  140.7820  143.4259  151.0769 LP  0  0  0  0  0  0  0  0  0  0  0  0  # atno 17343 bound_to 10162
  156.3387  130.3812  149.7428 LP  0  0  0  0  0  0  0  0  0  0  0  0  # atno 17370 bound_to 10713
  156.4944  130.8100  151.3107 LP  0  0  0  0  0  0  0  0  0  0  0  0  # atno 17371 bound_to 10713
  141.2142  133.7599  156.9657 LP  0  0  0  0  0  0  0  0  0  0  0  0  # atno 17394 bound_to 11000
  140.1176  134.9437  157.2156 LP  0  0  0  0  0  0  0  0  0  0  0  0  # atno 17395 bound_to 11000

$$$$
