AV-unprocessed.smi:249|AV-procd|sdf|1918|dock9
  -GOLD-   2262021 23D 1   1.00000     0.00000
 Structure written by MMmdl.
 64 67  0  0  0  0  0  0  0  0  2 V2000
  153.2159  143.0655  162.8411 C   0  0  0  0  0  0  0  0  0  0  0  0
  152.5647  143.7037  161.6062 C   0  0  0  0  0  0  0  0  0  0  0  0
  152.0942  142.6884  160.6288 N   0  3  2  0  0  0  0  0  0  0  0  0
  153.1339  141.6910  160.2568 C   0  0  0  0  0  0  0  0  0  0  0  0
  152.5292  140.5540  159.4190 C   0  0  0  0  0  0  0  0  0  0  0  0
  151.8344  141.1011  158.1556 C   0  0  1  0  0  0  0  0  0  0  0  0
  151.2916  140.0565  157.2769 N   0  0  0  0  0  0  0  0  0  0  0  0
  151.4854  140.2166  155.8407 C   0  0  0  0  0  0  0  0  0  0  0  0
  150.1044  139.4999  157.6162 C   0  0  0  0  0  0  0  0  0  0  0  0
  148.9785  140.1043  157.1603 N   0  0  0  0  0  0  0  0  0  0  0  0
  147.7775  139.6038  157.4655 C   0  0  0  0  0  0  0  0  0  0  0  0
  147.4837  138.5288  158.1996 N   0  0  0  0  0  0  0  0  0  0  0  0
  148.6134  137.9229  158.6646 C   0  0  0  0  0  0  0  0  0  0  0  0
  149.9535  138.3383  158.4266 C   0  0  0  0  0  0  0  0  0  0  0  0
  150.8364  137.4700  159.0592 N   0  0  0  0  0  0  0  0  0  0  0  0
  150.0621  136.5948  159.6411 C   0  0  0  0  0  0  0  0  0  0  0  0
  148.7133  136.7878  159.4478 N   0  0  0  0  0  0  0  0  0  0  0  0
  147.6307  135.9704  159.9653 C   0  0  0  0  0  0  0  0  0  0  0  0
  148.0727  135.0408  161.1228 C   0  0  1  0  0  0  0  0  0  0  0  0
  147.7140  135.6126  162.5159 C   0  0  0  0  0  0  0  0  0  0  0  0
  148.2328  136.9157  162.6886 O   0  0  0  0  0  0  0  0  0  0  0  0
  147.5509  133.5954  160.9248 C   0  0  2  0  0  0  0  0  0  0  0  0
  148.1756  132.5587  161.8422 C   0  0  0  0  0  0  0  0  0  0  0  0
  147.8545  131.2534  161.1228 C   0  0  0  0  0  0  0  0  0  0  0  0
  147.8462  131.5700  159.7354 O   0  0  0  0  0  0  0  0  0  0  0  0
  147.8737  132.9826  159.5580 C   0  0  0  0  0  0  0  0  0  0  0  0
  150.7844  142.1530  158.5751 C   0  0  0  0  0  0  0  0  0  0  0  0
  151.3971  143.2715  159.4437 C   0  0  2  0  0  0  0  0  0  0  0  0
  152.2811  144.2364  158.6234 C   0  0  0  0  0  0  0  0  0  0  0  0
  153.4752  143.8294  163.5745 H   0  0  0  0  0  0  0  0  0  0  0  0
  154.1331  142.5326  162.5925 H   0  0  0  0  0  0  0  0  0  0  0  0
  152.5377  142.3618  163.3248 H   0  0  0  0  0  0  0  0  0  0  0  0
  151.7153  144.2961  161.9490 H   0  0  0  0  0  0  0  0  0  0  0  0
  153.2549  144.3987  161.1258 H   0  0  0  0  0  0  0  0  0  0  0  0
  153.9463  142.1750  159.7141 H   0  0  0  0  0  0  0  0  0  0  0  0
  153.5779  141.2607  161.1537 H   0  0  0  0  0  0  0  0  0  0  0  0
  153.3115  139.8472  159.1399 H   0  0  0  0  0  0  0  0  0  0  0  0
  151.8194  140.0068  160.0407 H   0  0  0  0  0  0  0  0  0  0  0  0
  152.5979  141.6068  157.5637 H   0  0  0  0  0  0  0  0  0  0  0  0
  151.1096  139.3493  155.2960 H   0  0  0  0  0  0  0  0  0  0  0  0
  152.5475  140.3142  155.6153 H   0  0  0  0  0  0  0  0  0  0  0  0
  150.9777  141.1038  155.4633 H   0  0  0  0  0  0  0  0  0  0  0  0
  146.9308  140.1415  157.0646 H   0  0  0  0  0  0  0  0  0  0  0  0
  150.4555  135.7735  160.2229 H   0  0  0  0  0  0  0  0  0  0  0  0
  146.8250  136.6282  160.2934 H   0  0  0  0  0  0  0  0  0  0  0  0
  147.2332  135.3886  159.1335 H   0  0  0  0  0  0  0  0  0  0  0  0
  149.1620  134.9907  161.0873 H   0  0  0  0  0  0  0  0  0  0  0  0
  146.6339  135.6446  162.6566 H   0  0  0  0  0  0  0  0  0  0  0  0
  148.0985  134.9752  163.3122 H   0  0  0  0  0  0  0  0  0  0  0  0
  148.2937  137.0959  163.6143 H   0  0  0  0  0  0  0  0  0  0  0  0
  146.4688  133.5738  161.0645 H   0  0  0  0  0  0  0  0  0  0  0  0
  149.2562  132.6987  161.8968 H   0  0  0  0  0  0  0  0  0  0  0  0
  147.7760  132.5826  162.8565 H   0  0  0  0  0  0  0  0  0  0  0  0
  148.5736  130.4654  161.3480 H   0  0  0  0  0  0  0  0  0  0  0  0
  146.8622  130.8980  161.4034 H   0  0  0  0  0  0  0  0  0  0  0  0
  147.1695  133.2915  158.7851 H   0  0  0  0  0  0  0  0  0  0  0  0
  148.8759  133.2657  159.2328 H   0  0  0  0  0  0  0  0  0  0  0  0
  150.3056  142.5922  157.6996 H   0  0  0  0  0  0  0  0  0  0  0  0
  149.9899  141.6686  159.1438 H   0  0  0  0  0  0  0  0  0  0  0  0
  150.5609  143.8590  159.8256 H   0  0  0  0  0  0  0  0  0  0  0  0
  151.7236  144.6442  157.7799 H   0  0  0  0  0  0  0  0  0  0  0  0
  153.1669  143.7488  158.2181 H   0  0  0  0  0  0  0  0  0  0  0  0
  152.6150  145.0847  159.2207 H   0  0  0  0  0  0  0  0  0  0  0  0
  151.3789  142.1668  161.1151 H   0  0  0  0  0  0  0  0  0  0  0  0
  1  2  1  0  0  0  0
  1 30  1  0  0  0  0
  1 31  1  0  0  0  0
  1 32  1  0  0  0  0
  2  3  1  0  0  0  0
  2 33  1  0  0  0  0
  2 34  1  0  0  0  0
  3 28  1  0  0  0  0
  3  4  1  0  0  0  0
  3 64  1  0  0  0  0
  4  5  1  0  0  0  0
  4 35  1  0  0  0  0
  4 36  1  0  0  0  0
  5  6  1  0  0  0  0
  5 37  1  0  0  0  0
  5 38  1  0  0  0  0
  6  7  1  0  0  0  0
  6 27  1  0  0  0  0
  6 39  1  0  0  0  0
  7  8  1  0  0  0  0
  7  9  1  0  0  0  0
  8 40  1  0  0  0  0
  8 41  1  0  0  0  0
  8 42  1  0  0  0  0
  9 14  1  0  0  0  0
  9 10  2  0  0  0  0
 10 11  1  0  0  0  0
 11 12  2  0  0  0  0
 11 43  1  0  0  0  0
 12 13  1  0  0  0  0
 13 17  1  0  0  0  0
 13 14  2  0  0  0  0
 14 15  1  0  0  0  0
 15 16  2  0  0  0  0
 16 17  1  0  0  0  0
 16 44  1  0  0  0  0
 17 18  1  0  0  0  0
 18 19  1  0  0  0  0
 18 45  1  0  0  0  0
 18 46  1  0  0  0  0
 19 20  1  0  0  0  0
 19 22  1  0  0  0  0
 19 47  1  0  0  0  0
 20 21  1  0  0  0  0
 20 48  1  0  0  0  0
 20 49  1  0  0  0  0
 21 50  1  0  0  0  0
 22 26  1  0  0  0  0
 22 23  1  0  0  0  0
 22 51  1  0  0  0  0
 23 24  1  0  0  0  0
 23 52  1  0  0  0  0
 23 53  1  0  0  0  0
 24 25  1  0  0  0  0
 24 54  1  0  0  0  0
 24 55  1  0  0  0  0
 25 26  1  0  0  0  0
 26 56  1  0  0  0  0
 26 57  1  0  0  0  0
 27 28  1  0  0  0  0
 27 58  1  0  0  0  0
 27 59  1  0  0  0  0
 28 29  1  0  0  0  0
 28 60  1  0  0  0  0
 29 61  1  0  0  0  0
 29 62  1  0  0  0  0
 29 63  1  0  0  0  0
M  CHG  1   3   1
M  END
> <s_m_source_file>
AV-unprocessed.smi

> <i_m_source_file_index>
249

> <i_lp_mmshare_version>
43012

> <i_f3d_flags>
0

> <s_epik_input>
W0NIM11bQ0gyXU4xW0NIMl1bQ0gyXVtDQEhdKFtDSDJdW0NASF0xW0NIM10pTihbQ0gzXSljKG5bY0hdbjIpYyhjMjMpbltjSF1uM1tDSDJdW0NASF0oW0NIMl1bT0hdKVtDQEBIXTRbQ0gyXVtDSDJdT1tDSDJdNA==

> <s_epik_cmdline>
J2VwaWtfcHl0aG9uJywgJy1waCcsICc3LjAnLCAnLXRuJywgJzgnLCAnLW1hJywgJzIwMCcsICctbWV0YWxfYmluZGluZycsICctaW1hZScsICc8aW5maWxlLm1hZT4nLCAnLW9tYWUnLCAnPG91dGZpbGUubWFlPic=

> <r_lp_tautomer_probability>
1

> <r_epik_Ionization_Penalty>
0.00294688

> <r_epik_Ionization_Penalty_Charging>
0.00169971

> <r_epik_Ionization_Penalty_Neutral>
0.00124717

> <r_epik_State_Penalty>
-0

> <r_epik_Charging_Adjusted_Penalty>
0.00169971

> <i_epik_Tot_Q>
1

> <i_epik_Tot_abs_Q>
1

> <r_epik_Metal_State_Penalty>
-0

> <b_epik_Metal_Only>
0

> <s_lp_Force_Field>
OPLS_2005

> <r_lp_Energy>
53.4352

> <b_lp_Chiralities_Consistent>
1

> <s_lp_Variant>
AV-unprocessed.smi:249-21

> <Gold.Version>
5.8.1

> <Gold.Id.Protein>
6NUR|6NUR_protein|mol2

> <Gold.PLP.Fitness>
50.4349

> <Gold.PLP.PLP>
-50.7347

> <Gold.PLP.part.hbond>
-1.4929

> <Gold.PLP.part.metal>
0.0000

> <Gold.PLP.part.buried>
-6.7087

> <Gold.PLP.part.nonpolar>
-43.4295

> <Gold.PLP.part.repulsive>
0.1189

> <Gold.PLP.ligand.clash>
0.0000

> <Gold.PLP.ligand.torsion>
2.0093

> <Gold.PLP.Chemscore.Hbond>
0.8960

> <Gold.PLP.Chemscore.CHOScore>
0.0000

> <Gold.PLP.Chemscore.Metal>
0.0000

> <Gold.Chemscore.Hbonds>
donor molecule, donor type, donor heavy atom, donor atom, acceptor molecule, acceptor atom, score
      P1  H  6931  6943       L1    21  0.96

> <Gold.PLP.Chemscore.Internal.Correction>
1.0309

> <Gold.Rescore>
     Score         DG    S(hbond)    S(metal)    S(lipo)     H(rot)  DE(clash)    DE(int)     intcor
     14.80     -17.12       0.86        0.00     138.29       2.90       0.29       2.04       ----

> <Gold.Chemscore.Fitness>
14.7978

> <Gold.Chemscore.DG>
-17.1189

> <Gold.Chemscore.ZeroCoef>
-5.4800

> <Gold.Chemscore.Hbond>
0.8637

> <Gold.Chemscore.Metal>
0.0000

> <Gold.Chemscore.Lipo>
138.2882

> <Gold.Chemscore.Internal_Hbond>
0.0000

> <Gold.Chemscore.DEClash>
0.2851

> <Gold.Chemscore.DEInternal>
2.0360

> <Gold.Chemscore.Rot>
2.9006

> <Gold.Chemscore.Internal.Correction>
   9.000000E+99

> <Gold.Chemscore.Hbonds>
donor molecule, donor type, donor heavy atom, donor atom, acceptor molecule, acceptor atom, score
      P1  H  6931  6943       L1    21  0.41

> <Gold.Chemscore.Hbond.Weighted>
-2.8848

> <Gold.Chemscore.Metal.Weighted>
-0.0000

> <Gold.Chemscore.Lipo.Weighted>
-16.1797

> <Gold.Chemscore.Internal_Hbond.Weighted>
0.0000

> <Gold.Chemscore.DEClash.Weighted>
0.2851

> <Gold.Chemscore.DEInternal.Weighted>
2.0360

> <Gold.Chemscore.Rot.Weighted>
7.4256

> <Gold.Chemscore.Internal.Correction.Weighted>
   9.000000E+99

> <Gold.Protein.RotatedTorsions>
[ 6907 6896 6895 6894 ] final   82.30 input  -60.11 | X-H torsion
[ 7974 7965 7964 7962 ] final -130.08 input  175.53 | X-H torsion
[ 8008 7997 7996 7995 ] final -152.74 input   59.86 | X-H torsion
[ 10167 10162 10161 10158 ] final  -50.20 input  -65.29 | X-H torsion
[ 10718 10713 10712 10709 ] final   -0.81 input   66.30 | X-H torsion
[ 10763 10752 10751 10750 ] final   76.02 input  -60.55 | X-H torsion
[ 11005 11000 10999 10996 ] final -119.90 input  -57.11 | X-H torsion

> <Gold.Protein.ActiveResidues>
 VAL166  LYS551  ARG553  GLY616  TRP617  ASP618  TYR619  PRO620  LYS621  CYS622 
 ASP623  PHE694  ASN695  SER759  ASP760  ASP761  ALA762  ILE779  LEU786  VAL792 
 PHE793  MET794  SER795  GLU796  ALA797  LYS798  CYS799  TRP800  GLU811  SER814 

> <Gold.Protein.RotatedAtoms>
  152.5295  134.3071  159.9099 H   0  0  0  0  0  0  0  0  0  0  0  0  # atno 6907 bound_to 6896
  151.3021  133.4111  159.2648 H   0  0  0  0  0  0  0  0  0  0  0  0  # atno 6908 bound_to 6896
  151.0110  134.9413  159.8064 H   0  0  0  0  0  0  0  0  0  0  0  0  # atno 6909 bound_to 6896
  144.9510  140.7344  143.4788 H   0  0  0  0  0  0  0  0  0  0  0  0  # atno 7974 bound_to 7965
  155.6598  140.0721  157.2558 H   0  0  0  0  0  0  0  0  0  0  0  0  # atno 8008 bound_to 7997
  154.4145  140.1718  156.1815 H   0  0  0  0  0  0  0  0  0  0  0  0  # atno 8009 bound_to 7997
  155.9706  140.3362  155.6576 H   0  0  0  0  0  0  0  0  0  0  0  0  # atno 8010 bound_to 7997
  140.6649  143.2667  151.4325 H   0  0  0  0  0  0  0  0  0  0  0  0  # atno 10167 bound_to 10162
  156.8148  130.5437  149.5704 H   0  0  0  0  0  0  0  0  0  0  0  0  # atno 10718 bound_to 10713
  153.0696  135.4967  154.8275 H   0  0  0  0  0  0  0  0  0  0  0  0  # atno 10763 bound_to 10752
  154.7003  135.3000  154.9353 H   0  0  0  0  0  0  0  0  0  0  0  0  # atno 10764 bound_to 10752
  154.0079  135.6758  153.4816 H   0  0  0  0  0  0  0  0  0  0  0  0  # atno 10765 bound_to 10752
  141.0182  134.0163  157.3319 H   0  0  0  0  0  0  0  0  0  0  0  0  # atno 11005 bound_to 11000
  145.2844  139.1906  143.4773 LP  0  0  0  0  0  0  0  0  0  0  0  0  # atno 17320 bound_to 7965
  146.3321  140.2811  142.8610 LP  0  0  0  0  0  0  0  0  0  0  0  0  # atno 17321 bound_to 7965
  139.5894  144.1531  152.2070 LP  0  0  0  0  0  0  0  0  0  0  0  0  # atno 17342 bound_to 10162
  140.0881  144.5644  150.7074 LP  0  0  0  0  0  0  0  0  0  0  0  0  # atno 17343 bound_to 10162
  156.1023  130.5978  150.9914 LP  0  0  0  0  0  0  0  0  0  0  0  0  # atno 17370 bound_to 10713
  157.6487  131.0900  150.8098 LP  0  0  0  0  0  0  0  0  0  0  0  0  # atno 17371 bound_to 10713
  139.9130  135.0193  156.7769 LP  0  0  0  0  0  0  0  0  0  0  0  0  # atno 17394 bound_to 11000
  140.6617  133.9639  155.7808 LP  0  0  0  0  0  0  0  0  0  0  0  0  # atno 17395 bound_to 11000

$$$$
