AV-unprocessed.smi:2107|AV-procd|sdf|8600|dock9
  -GOLD-   2272011333D 1   1.00000     0.00000
 Structure written by MMmdl.
 46 47  0  0  0  0  0  0  0  0  1 V2000
  147.4563  133.3319  162.0152 C   0  0  0  0  0  0  0  0  0  0  0  0
  146.8445  134.6922  162.3762 C   0  0  0  0  0  0  0  0  0  0  0  0
  146.3293  135.3928  161.1819 N   0  0  0  0  0  0  0  0  0  0  0  0
  144.8649  135.5592  161.1370 C   0  0  0  0  0  0  0  0  0  0  0  0
  144.3435  136.3514  162.3448 C   0  0  0  0  0  0  0  0  0  0  0  0
  147.3172  136.6165  160.4409 S   0  0  0  0  0  0  0  0  0  0  0  0
  146.4440  137.6930  159.9470 O   0  0  0  0  0  0  0  0  0  0  0  0
  148.4483  136.9004  161.3371 O   0  0  0  0  0  0  0  0  0  0  0  0
  147.8998  135.7168  159.0879 N   0  0  0  0  0  0  0  0  0  0  0  0
  148.7119  136.3781  158.0639 C   0  0  0  0  0  0  0  0  0  0  0  0
  149.1163  135.4810  156.8929 C   0  0  0  0  0  0  0  0  0  0  0  0
  148.8142  134.0999  156.9123 C   0  0  0  0  0  0  0  0  0  0  0  0
  149.2132  133.2874  155.8363 C   0  0  0  0  0  0  0  0  0  0  0  0
  149.9134  133.8861  154.7748 C   0  0  0  0  0  0  0  0  0  0  0  0
  150.2204  135.1984  154.7423 N   0  0  0  0  0  0  0  0  0  0  0  0
  149.8363  135.9864  155.7766 C   0  0  0  0  0  0  0  0  0  0  0  0
  150.1615  137.3518  155.6968 N   0  0  0  0  0  0  0  0  0  0  0  0
  149.3603  138.0666  154.7117 C   0  0  0  0  0  0  0  0  0  0  0  0
  149.6156  139.5791  154.8254 C   0  0  0  0  0  0  0  0  0  0  0  0
  151.0098  139.8419  154.6896 O   0  0  0  0  0  0  0  0  0  0  0  0
  151.7786  139.1957  155.7008 C   0  0  0  0  0  0  0  0  0  0  0  0
  151.5815  137.6733  155.6033 C   0  0  0  0  0  0  0  0  0  0  0  0
  147.7428  132.7898  162.9163 H   0  0  0  0  0  0  0  0  0  0  0  0
  148.3530  133.4413  161.4071 H   0  0  0  0  0  0  0  0  0  0  0  0
  146.7505  132.7087  161.4658 H   0  0  0  0  0  0  0  0  0  0  0  0
  146.0457  134.5531  163.1054 H   0  0  0  0  0  0  0  0  0  0  0  0
  147.5929  135.3115  162.8707 H   0  0  0  0  0  0  0  0  0  0  0  0
  144.5812  136.0438  160.2022 H   0  0  0  0  0  0  0  0  0  0  0  0
  144.3827  134.5825  161.1343 H   0  0  0  0  0  0  0  0  0  0  0  0
  143.2546  136.3981  162.3312 H   0  0  0  0  0  0  0  0  0  0  0  0
  144.7123  137.3769  162.3504 H   0  0  0  0  0  0  0  0  0  0  0  0
  144.6428  135.8801  163.2814 H   0  0  0  0  0  0  0  0  0  0  0  0
  148.2362  134.7869  159.3374 H   0  0  0  0  0  0  0  0  0  0  0  0
  148.1747  137.2641  157.7277 H   0  0  0  0  0  0  0  0  0  0  0  0
  149.6274  136.7360  158.5345 H   0  0  0  0  0  0  0  0  0  0  0  0
  148.2842  133.6561  157.7399 H   0  0  0  0  0  0  0  0  0  0  0  0
  148.9902  132.2309  155.8277 H   0  0  0  0  0  0  0  0  0  0  0  0
  150.2383  133.2958  153.9311 H   0  0  0  0  0  0  0  0  0  0  0  0
  149.6216  137.7172  153.7120 H   0  0  0  0  0  0  0  0  0  0  0  0
  148.3009  137.8557  154.8568 H   0  0  0  0  0  0  0  0  0  0  0  0
  149.0747  140.1117  154.0432 H   0  0  0  0  0  0  0  0  0  0  0  0
  149.2546  139.9626  155.7812 H   0  0  0  0  0  0  0  0  0  0  0  0
  152.8302  139.4483  155.5646 H   0  0  0  0  0  0  0  0  0  0  0  0
  151.4861  139.5638  156.6856 H   0  0  0  0  0  0  0  0  0  0  0  0
  152.1279  137.1707  156.4024 H   0  0  0  0  0  0  0  0  0  0  0  0
  151.9842  137.3122  154.6559 H   0  0  0  0  0  0  0  0  0  0  0  0
  1  2  1  0  0  0  0
  1 23  1  0  0  0  0
  1 24  1  0  0  0  0
  1 25  1  0  0  0  0
  2  3  1  0  0  0  0
  2 26  1  0  0  0  0
  2 27  1  0  0  0  0
  3  4  1  0  0  0  0
  3  6  1  0  0  0  0
  4  5  1  0  0  0  0
  4 28  1  0  0  0  0
  4 29  1  0  0  0  0
  5 30  1  0  0  0  0
  5 31  1  0  0  0  0
  5 32  1  0  0  0  0
  6  7  2  0  0  0  0
  6  8  2  0  0  0  0
  6  9  1  0  0  0  0
  9 10  1  0  0  0  0
  9 33  1  0  0  0  0
 10 11  1  0  0  0  0
 10 34  1  0  0  0  0
 10 35  1  0  0  0  0
 11 16  1  0  0  0  0
 11 12  2  0  0  0  0
 12 13  1  0  0  0  0
 12 36  1  0  0  0  0
 13 14  2  0  0  0  0
 13 37  1  0  0  0  0
 14 15  1  0  0  0  0
 14 38  1  0  0  0  0
 15 16  2  0  0  0  0
 16 17  1  0  0  0  0
 17 22  1  0  0  0  0
 17 18  1  0  0  0  0
 18 19  1  0  0  0  0
 18 39  1  0  0  0  0
 18 40  1  0  0  0  0
 19 20  1  0  0  0  0
 19 41  1  0  0  0  0
 19 42  1  0  0  0  0
 20 21  1  0  0  0  0
 21 22  1  0  0  0  0
 21 43  1  0  0  0  0
 21 44  1  0  0  0  0
 22 45  1  0  0  0  0
 22 46  1  0  0  0  0
M  END
> <s_m_source_file>
AV-unprocessed.smi

> <i_m_source_file_index>
2107

> <i_lp_mmshare_version>
43012

> <i_f3d_flags>
0

> <s_epik_input>
W0NIM11bQ0gyXU4oW0NIMl1bQ0gzXSlTKD1PKSg9TylbTkhdW0NIMl1jMVtjSF1bY0hdW2NIXW5jMU4yW0NIMl1bQ0gyXU9bQ0gyXVtDSDJdMg==

> <s_epik_cmdline>
J2VwaWtfcHl0aG9uJywgJy1waCcsICc3LjAnLCAnLXRuJywgJzgnLCAnLW1hJywgJzIwMCcsICctbWV0YWxfYmluZGluZycsICctaW1hZScsICc8aW5maWxlLm1hZT4nLCAnLW9tYWUnLCAnPG91dGZpbGUubWFlPic=

> <r_lp_tautomer_probability>
1

> <r_epik_Ionization_Penalty>
0.0173886

> <r_epik_Ionization_Penalty_Charging>
0

> <r_epik_Ionization_Penalty_Neutral>
0.0173886

> <r_epik_State_Penalty>
0.0135122

> <r_epik_Charging_Adjusted_Penalty>
0.0135122

> <i_epik_Tot_Q>
0

> <i_epik_Tot_abs_Q>
0

> <r_epik_Metal_State_Penalty>
0.283451

> <b_epik_Metal_Only>
0

> <s_lp_Force_Field>
OPLS_2005

> <r_lp_Energy>
23.0208

> <b_lp_Chiralities_Consistent>
1

> <s_lp_Variant>
AV-unprocessed.smi:2107-1

> <Gold.Version>
5.8.1

> <Gold.Id.Protein>
6NUR|6NUR_protein|mol2

> <Gold.PLP.Fitness>
40.0011

> <Gold.PLP.PLP>
-31.2579

> <Gold.PLP.part.hbond>
-3.0890

> <Gold.PLP.part.metal>
0.0000

> <Gold.PLP.part.buried>
-6.8269

> <Gold.PLP.part.nonpolar>
-23.3793

> <Gold.PLP.part.repulsive>
0.3313

> <Gold.PLP.ligand.clash>
0.0000

> <Gold.PLP.ligand.torsion>
1.6203

> <Gold.PLP.Chemscore.Hbond>
2.9913

> <Gold.PLP.Chemscore.CHOScore>
0.0000

> <Gold.PLP.Chemscore.Metal>
0.0000

> <Gold.Chemscore.Hbonds>
donor molecule, donor type, donor heavy atom, donor atom, acceptor molecule, acceptor atom, score
      P1  H  6931  6943       L1     8  1.00
      P1  H  6934  6947       L1     7  0.90
      P1  H  7989  7998       L1    20  1.00

> <Gold.PLP.Chemscore.Internal.Correction>
3.0100

> <Gold.Rescore>
     Score         DG    S(hbond)    S(metal)    S(lipo)     H(rot)  DE(clash)    DE(int)     intcor
     15.79     -17.42       2.74        0.00      66.03       1.93       0.00       1.63       ----

> <Gold.Chemscore.Fitness>
15.7910

> <Gold.Chemscore.DG>
-17.4196

> <Gold.Chemscore.ZeroCoef>
-5.4800

> <Gold.Chemscore.Hbond>
2.7404

> <Gold.Chemscore.Metal>
0.0000

> <Gold.Chemscore.Lipo>
66.0348

> <Gold.Chemscore.Internal_Hbond>
0.0000

> <Gold.Chemscore.DEClash>
0.0000

> <Gold.Chemscore.DEInternal>
1.6286

> <Gold.Chemscore.Rot>
1.9295

> <Gold.Chemscore.Internal.Correction>
   9.000000E+99

> <Gold.Chemscore.Hbonds>
donor molecule, donor type, donor heavy atom, donor atom, acceptor molecule, acceptor atom, score
      P1  H  6931  6943       L1     8  0.97
      P1  H  6934  6947       L1     7  0.17
      P1  H  7989  7998       L1    20  0.99

> <Gold.Chemscore.Hbond.Weighted>
-9.1530

> <Gold.Chemscore.Metal.Weighted>
-0.0000

> <Gold.Chemscore.Lipo.Weighted>
-7.7261

> <Gold.Chemscore.Internal_Hbond.Weighted>
0.0000

> <Gold.Chemscore.DEClash.Weighted>
0.0000

> <Gold.Chemscore.DEInternal.Weighted>
1.6286

> <Gold.Chemscore.Rot.Weighted>
4.9395

> <Gold.Chemscore.Internal.Correction.Weighted>
   9.000000E+99

> <Gold.Protein.RotatedTorsions>
[ 6907 6896 6895 6894 ] final -120.50 input  -60.11 | X-H torsion
[ 7974 7965 7964 7962 ] final -172.81 input  175.53 | X-H torsion
[ 8008 7997 7996 7995 ] final   44.88 input   59.86 | X-H torsion
[ 10167 10162 10161 10158 ] final   44.73 input  -65.29 | X-H torsion
[ 10718 10713 10712 10709 ] final   21.88 input   66.30 | X-H torsion
[ 10763 10752 10751 10750 ] final -168.30 input  -60.55 | X-H torsion
[ 11005 11000 10999 10996 ] final -166.25 input  -57.11 | X-H torsion

> <Gold.Protein.ActiveResidues>
 VAL166  LYS551  ARG553  GLY616  TRP617  ASP618  TYR619  PRO620  LYS621  CYS622 
 ASP623  PHE694  ASN695  SER759  ASP760  ASP761  ALA762  ILE779  LEU786  VAL792 
 PHE793  MET794  SER795  GLU796  ALA797  LYS798  CYS799  TRP800  GLU811  SER814 

> <Gold.Protein.RotatedAtoms>
  150.8399  133.7953  159.3064 H   0  0  0  0  0  0  0  0  0  0  0  0  # atno 6907 bound_to 6896
  151.5658  135.1062  159.9993 H   0  0  0  0  0  0  0  0  0  0  0  0  # atno 6908 bound_to 6896
  152.4464  133.7503  159.6746 H   0  0  0  0  0  0  0  0  0  0  0  0  # atno 6909 bound_to 6896
  144.7143  140.1716  143.6367 H   0  0  0  0  0  0  0  0  0  0  0  0  # atno 7974 bound_to 7965
  155.3266  140.3400  155.4240 H   0  0  0  0  0  0  0  0  0  0  0  0  # atno 8008 bound_to 7997
  156.1882  140.1688  156.8180 H   0  0  0  0  0  0  0  0  0  0  0  0  # atno 8009 bound_to 7997
  154.5411  140.0724  156.8495 H   0  0  0  0  0  0  0  0  0  0  0  0  # atno 8010 bound_to 7997
  140.3313  144.2585  150.6167 H   0  0  0  0  0  0  0  0  0  0  0  0  # atno 10167 bound_to 10162
  157.1446  130.6647  149.5992 H   0  0  0  0  0  0  0  0  0  0  0  0  # atno 10718 bound_to 10713
  154.6643  135.2929  154.9826 H   0  0  0  0  0  0  0  0  0  0  0  0  # atno 10763 bound_to 10752
  154.0875  135.6595  153.4851 H   0  0  0  0  0  0  0  0  0  0  0  0  # atno 10764 bound_to 10752
  153.0448  135.5212  154.7608 H   0  0  0  0  0  0  0  0  0  0  0  0  # atno 10765 bound_to 10752
  140.5666  134.5280  157.5154 H   0  0  0  0  0  0  0  0  0  0  0  0  # atno 11005 bound_to 11000
  145.8939  139.2391  143.1533 LP  0  0  0  0  0  0  0  0  0  0  0  0  # atno 17320 bound_to 7965
  145.9877  140.8629  143.0082 LP  0  0  0  0  0  0  0  0  0  0  0  0  # atno 17321 bound_to 7965
  140.5394  143.2226  151.8109 LP  0  0  0  0  0  0  0  0  0  0  0  0  # atno 17342 bound_to 10162
  139.4856  144.4619  151.9530 LP  0  0  0  0  0  0  0  0  0  0  0  0  # atno 17343 bound_to 10162
  155.9782  130.4766  150.6640 LP  0  0  0  0  0  0  0  0  0  0  0  0  # atno 17370 bound_to 10713
  157.4276  131.0845  151.1070 LP  0  0  0  0  0  0  0  0  0  0  0  0  # atno 17371 bound_to 10713
  139.9382  134.7836  156.0748 LP  0  0  0  0  0  0  0  0  0  0  0  0  # atno 17394 bound_to 11000
  141.1082  133.6652  156.2914 LP  0  0  0  0  0  0  0  0  0  0  0  0  # atno 17395 bound_to 11000

$$$$
