AV-unprocessed.smi:3087|AV-procd|sdf|11766|dock3
  -GOLD-   2272017143D 1   1.00000     0.00000
 Structure written by MMmdl.
 31 32  0  0  0  0  0  0  0  0  2 V2000
  153.8318  140.7201  160.8021 C   0  0  0  0  0  0  0  0  0  0  0  0
  153.0175  141.7962  160.1469 C   0  0  0  0  0  0  0  0  0  0  0  0
  153.0618  143.1992  160.3743 C   0  0  0  0  0  0  0  0  0  0  0  0
  152.1162  143.7082  159.5292 C   0  0  0  0  0  0  0  0  0  0  0  0
  151.6773  145.1211  159.3241 C   0  0  0  0  0  0  0  0  0  0  0  0
  151.5761  142.6391  158.8340 N   0  0  0  0  0  0  0  0  0  0  0  0
  150.5008  142.6386  157.8473 C   0  0  2  0  0  0  0  0  0  0  0  0
  149.3288  141.7544  158.3141 C   0  0  0  0  0  0  0  0  0  0  0  0
  148.2044  141.7591  157.2670 C   0  0  0  0  0  0  0  0  0  0  0  0
  148.7382  141.3487  155.8841 C   0  0  0  0  0  0  0  0  0  0  0  0
  149.8638  142.2181  155.4775 N   0  3  0  0  0  0  0  0  0  0  0  0
  150.9827  142.2006  156.4450 C   0  0  0  0  0  0  0  0  0  0  0  0
  152.1196  141.4671  159.2341 N   0  0  0  0  0  0  0  0  0  0  0  0
  154.4788  141.1320  161.5769 H   0  0  0  0  0  0  0  0  0  0  0  0
  154.4657  140.2115  160.0755 H   0  0  0  0  0  0  0  0  0  0  0  0
  153.1916  139.9711  161.2691 H   0  0  0  0  0  0  0  0  0  0  0  0
  153.6869  143.7490  161.0625 H   0  0  0  0  0  0  0  0  0  0  0  0
  152.1258  145.7796  160.0681 H   0  0  0  0  0  0  0  0  0  0  0  0
  150.5940  145.2101  159.4105 H   0  0  0  0  0  0  0  0  0  0  0  0
  151.9722  145.4798  158.3379 H   0  0  0  0  0  0  0  0  0  0  0  0
  150.1383  143.6634  157.7586 H   0  0  0  0  0  0  0  0  0  0  0  0
  149.6729  140.7319  158.4756 H   0  0  0  0  0  0  0  0  0  0  0  0
  148.9458  142.1087  159.2718 H   0  0  0  0  0  0  0  0  0  0  0  0
  147.4054  141.0840  157.5753 H   0  0  0  0  0  0  0  0  0  0  0  0
  147.7624  142.7548  157.2087 H   0  0  0  0  0  0  0  0  0  0  0  0
  149.0737  140.3108  155.8998 H   0  0  0  0  0  0  0  0  0  0  0  0
  147.9469  141.4170  155.1374 H   0  0  0  0  0  0  0  0  0  0  0  0
  150.2053  141.9137  154.5768 H   0  0  0  0  0  0  0  0  0  0  0  0
  151.7691  142.8663  156.0881 H   0  0  0  0  0  0  0  0  0  0  0  0
  151.4018  141.1935  156.4674 H   0  0  0  0  0  0  0  0  0  0  0  0
  149.5249  143.1659  155.3944 H   0  0  0  0  0  0  0  0  0  0  0  0
  1  2  1  0  0  0  0
  1 14  1  0  0  0  0
  1 15  1  0  0  0  0
  1 16  1  0  0  0  0
  2 13  2  0  0  0  0
  2  3  1  0  0  0  0
  3  4  2  0  0  0  0
  3 17  1  0  0  0  0
  4  5  1  0  0  0  0
  4  6  1  0  0  0  0
  5 18  1  0  0  0  0
  5 19  1  0  0  0  0
  5 20  1  0  0  0  0
  6  7  1  0  0  0  0
  6 13  1  0  0  0  0
  7 12  1  0  0  0  0
  7  8  1  0  0  0  0
  7 21  1  0  0  0  0
  8  9  1  0  0  0  0
  8 22  1  0  0  0  0
  8 23  1  0  0  0  0
  9 10  1  0  0  0  0
  9 24  1  0  0  0  0
  9 25  1  0  0  0  0
 10 11  1  0  0  0  0
 10 26  1  0  0  0  0
 10 27  1  0  0  0  0
 11 12  1  0  0  0  0
 11 28  1  0  0  0  0
 11 31  1  0  0  0  0
 12 29  1  0  0  0  0
 12 30  1  0  0  0  0
M  CHG  1  11   1
M  END
> <s_m_source_file>
AV-unprocessed.smi

> <i_m_source_file_index>
3087

> <i_lp_mmshare_version>
43012

> <i_f3d_flags>
0

> <s_epik_input>
W0NIM11jMVtjSF1jKFtDSDNdKW4objEpW0NAQEhdMltDSDJdW0NIMl1bQ0gyXVtOSF1bQ0gyXTI=

> <s_epik_cmdline>
J2VwaWtfcHl0aG9uJywgJy1waCcsICc3LjAnLCAnLXRuJywgJzgnLCAnLW1hJywgJzIwMCcsICctbWV0YWxfYmluZGluZycsICctaW1hZScsICc8aW5maWxlLm1hZT4nLCAnLW9tYWUnLCAnPG91dGZpbGUubWFlPic=

> <r_lp_tautomer_probability>
1

> <r_epik_Ionization_Penalty>
0.000855662

> <r_epik_Ionization_Penalty_Charging>
0.000651447

> <r_epik_Ionization_Penalty_Neutral>
0.000204215

> <r_epik_State_Penalty>
-0

> <r_epik_Charging_Adjusted_Penalty>
0.000651447

> <i_epik_Tot_Q>
1

> <i_epik_Tot_abs_Q>
1

> <r_epik_Metal_State_Penalty>
-0

> <b_epik_Metal_Only>
0

> <s_lp_Force_Field>
OPLS_2005

> <r_lp_Energy>
14.514

> <b_lp_Chiralities_Consistent>
1

> <s_lp_Variant>
AV-unprocessed.smi:3087-1

> <Gold.Version>
5.8.1

> <Gold.Id.Protein>
6NUR|6NUR_protein|mol2

> <Gold.PLP.Fitness>
36.4484

> <Gold.PLP.PLP>
-30.5195

> <Gold.PLP.part.hbond>
-1.0000

> <Gold.PLP.part.metal>
0.0000

> <Gold.PLP.part.buried>
-4.2930

> <Gold.PLP.part.nonpolar>
-24.9535

> <Gold.PLP.part.repulsive>
0.1908

> <Gold.PLP.ligand.clash>
0.0000

> <Gold.PLP.ligand.torsion>
0.0540

> <Gold.PLP.Chemscore.Hbond>
2.0000

> <Gold.PLP.Chemscore.CHOScore>
0.0000

> <Gold.PLP.Chemscore.Metal>
0.0000

> <Gold.Chemscore.Hbonds>
donor molecule, donor type, donor heavy atom, donor atom, acceptor molecule, acceptor atom, score
      L1  H    11    31       P1  8028  2.00

> <Gold.PLP.Chemscore.Internal.Correction>
0.0370

> <Gold.Rescore>
     Score         DG    S(hbond)    S(metal)    S(lipo)     H(rot)  DE(clash)    DE(int)     intcor
     16.10     -16.33       1.00        0.00      86.15       1.00       0.05       0.18       ----

> <Gold.Chemscore.Fitness>
16.0997

> <Gold.Chemscore.DG>
-16.3348

> <Gold.Chemscore.ZeroCoef>
-5.4800

> <Gold.Chemscore.Hbond>
0.9986

> <Gold.Chemscore.Metal>
0.0000

> <Gold.Chemscore.Lipo>
86.1503

> <Gold.Chemscore.Internal_Hbond>
0.0000

> <Gold.Chemscore.DEClash>
0.0542

> <Gold.Chemscore.DEInternal>
0.1808

> <Gold.Chemscore.Rot>
1.0000

> <Gold.Chemscore.Internal.Correction>
   9.000000E+99

> <Gold.Chemscore.Hbonds>
donor molecule, donor type, donor heavy atom, donor atom, acceptor molecule, acceptor atom, score
      L1  H    11    31       P1  8028  1.00

> <Gold.Chemscore.Hbond.Weighted>
-3.3352

> <Gold.Chemscore.Metal.Weighted>
-0.0000

> <Gold.Chemscore.Lipo.Weighted>
-10.0796

> <Gold.Chemscore.Internal_Hbond.Weighted>
0.0000

> <Gold.Chemscore.DEClash.Weighted>
0.0542

> <Gold.Chemscore.DEInternal.Weighted>
0.1808

> <Gold.Chemscore.Rot.Weighted>
2.5600

> <Gold.Chemscore.Internal.Correction.Weighted>
   9.000000E+99

> <Gold.Protein.RotatedTorsions>
[ 6907 6896 6895 6894 ] final  152.16 input  -60.11 | X-H torsion
[ 7974 7965 7964 7962 ] final   82.43 input  175.53 | X-H torsion
[ 8008 7997 7996 7995 ] final   65.86 input   59.86 | X-H torsion
[ 10167 10162 10161 10158 ] final   88.69 input  -65.29 | X-H torsion
[ 10718 10713 10712 10709 ] final  -12.28 input   66.30 | X-H torsion
[ 10763 10752 10751 10750 ] final -144.48 input  -60.55 | X-H torsion
[ 11005 11000 10999 10996 ] final  -22.88 input  -57.11 | X-H torsion

> <Gold.Protein.ActiveResidues>
 VAL166  LYS551  ARG553  GLY616  TRP617  ASP618  TYR619  PRO620  LYS621  CYS622 
 ASP623  PHE694  ASN695  SER759  ASP760  ASP761  ALA762  ILE779  LEU786  VAL792 
 PHE793  MET794  SER795  GLU796  ALA797  LYS798  CYS799  TRP800  GLU811  SER814 

> <Gold.Protein.RotatedAtoms>
  152.0906  133.4198  159.4541 H   0  0  0  0  0  0  0  0  0  0  0  0  # atno 6907 bound_to 6896
  150.6862  134.2876  159.4662 H   0  0  0  0  0  0  0  0  0  0  0  0  # atno 6908 bound_to 6896
  152.0727  134.9522  160.0625 H   0  0  0  0  0  0  0  0  0  0  0  0  # atno 6909 bound_to 6896
  145.6252  139.2393  143.2116 H   0  0  0  0  0  0  0  0  0  0  0  0  # atno 7974 bound_to 7965
  155.6684  140.3497  155.4809 H   0  0  0  0  0  0  0  0  0  0  0  0  # atno 8008 bound_to 7997
  155.9709  140.1155  157.0835 H   0  0  0  0  0  0  0  0  0  0  0  0  # atno 8009 bound_to 7997
  154.4166  140.1157  156.5292 H   0  0  0  0  0  0  0  0  0  0  0  0  # atno 8010 bound_to 7997
  139.8647  144.6525  150.9018 H   0  0  0  0  0  0  0  0  0  0  0  0  # atno 10167 bound_to 10162
  156.6469  130.4944  149.6075 H   0  0  0  0  0  0  0  0  0  0  0  0  # atno 10718 bound_to 10713
  154.8426  135.3439  154.6352 H   0  0  0  0  0  0  0  0  0  0  0  0  # atno 10763 bound_to 10752
  153.6962  135.6972  153.5080 H   0  0  0  0  0  0  0  0  0  0  0  0  # atno 10764 bound_to 10752
  153.2557  135.4339  155.0798 H   0  0  0  0  0  0  0  0  0  0  0  0  # atno 10765 bound_to 10752
  140.8699  133.7728  156.0174 H   0  0  0  0  0  0  0  0  0  0  0  0  # atno 11005 bound_to 11000
  146.1400  140.7071  142.9371 LP  0  0  0  0  0  0  0  0  0  0  0  0  # atno 17320 bound_to 7965
  144.7215  140.4389  143.7004 LP  0  0  0  0  0  0  0  0  0  0  0  0  # atno 17321 bound_to 7965
  140.7770  143.3714  151.1642 LP  0  0  0  0  0  0  0  0  0  0  0  0  # atno 17342 bound_to 10162
  139.7340  143.9027  152.3029 LP  0  0  0  0  0  0  0  0  0  0  0  0  # atno 17343 bound_to 10162
  156.2115  130.6681  151.1274 LP  0  0  0  0  0  0  0  0  0  0  0  0  # atno 17370 bound_to 10713
  157.7153  131.0713  150.6349 LP  0  0  0  0  0  0  0  0  0  0  0  0  # atno 17371 bound_to 10713
  140.8585  134.2869  157.5245 LP  0  0  0  0  0  0  0  0  0  0  0  0  # atno 17394 bound_to 11000
  139.8711  134.9505  156.4059 LP  0  0  0  0  0  0  0  0  0  0  0  0  # atno 17395 bound_to 11000

$$$$
