AV-unprocessed.smi:243|AV-procd|sdf|1862|dock2
  -GOLD-   2262020493D 1   1.00000     0.00000
 Structure written by MMmdl.
 58 61  0  0  0  0  0  0  0  0  2 V2000
  146.5253  128.2136  151.4018 C   0  0  0  0  0  0  0  0  0  0  0  0
  145.7986  129.5421  151.6583 C   0  0  0  0  0  0  0  0  0  0  0  0
  146.7314  130.6531  151.9768 N   0  3  2  0  0  0  0  0  0  0  0  0
  147.3724  130.5114  153.3082 C   0  0  0  0  0  0  0  0  0  0  0  0
  148.4144  131.6197  153.5549 C   0  0  0  0  0  0  0  0  0  0  0  0
  147.8721  133.0528  153.3551 C   0  0  2  0  0  0  0  0  0  0  0  0
  147.2134  133.6287  154.5433 N   0  0  0  0  0  0  0  0  0  0  0  0
  145.7565  133.6428  154.6287 C   0  0  0  0  0  0  0  0  0  0  0  0
  147.8295  133.6356  155.7469 C   0  0  0  0  0  0  0  0  0  0  0  0
  148.4572  132.5125  156.1806 N   0  0  0  0  0  0  0  0  0  0  0  0
  149.0715  132.5052  157.3673 C   0  0  0  0  0  0  0  0  0  0  0  0
  149.1674  133.4900  158.2631 N   0  0  0  0  0  0  0  0  0  0  0  0
  148.5080  134.6080  157.8444 C   0  0  0  0  0  0  0  0  0  0  0  0
  147.8128  134.7623  156.6125 C   0  0  0  0  0  0  0  0  0  0  0  0
  147.2636  136.0352  156.5322 N   0  0  0  0  0  0  0  0  0  0  0  0
  147.6232  136.6064  157.6491 C   0  0  0  0  0  0  0  0  0  0  0  0
  148.3691  135.8198  158.4981 N   0  0  0  0  0  0  0  0  0  0  0  0
  148.8988  136.1990  159.7989 C   0  0  0  0  0  0  0  0  0  0  0  0
  147.9255  135.9167  160.9669 C   0  0  2  0  0  0  0  0  0  0  0  0
  146.9493  136.9426  161.0147 O   0  0  0  0  0  0  0  0  0  0  0  0
  148.5994  135.8258  162.3336 C   0  0  0  0  0  0  0  0  0  0  0  0
  147.7441  134.8027  163.0678 C   0  0  0  0  0  0  0  0  0  0  0  0
  147.4599  133.8564  162.0523 O   0  0  0  0  0  0  0  0  0  0  0  0
  147.2030  134.5603  160.8416 C   0  0  0  0  0  0  0  0  0  0  0  0
  147.0964  133.1333  152.0086 C   0  0  2  0  0  0  0  0  0  0  0  0
  146.4719  134.5024  151.6960 C   0  0  0  0  0  0  0  0  0  0  0  0
  146.0868  131.9813  151.8191 C   0  0  0  0  0  0  0  0  0  0  0  0
  145.8195  127.4491  151.0762 H   0  0  0  0  0  0  0  0  0  0  0  0
  147.0182  127.8344  152.2964 H   0  0  0  0  0  0  0  0  0  0  0  0
  147.2781  128.3207  150.6201 H   0  0  0  0  0  0  0  0  0  0  0  0
  145.2394  129.7913  150.7555 H   0  0  0  0  0  0  0  0  0  0  0  0
  145.0617  129.4314  152.4552 H   0  0  0  0  0  0  0  0  0  0  0  0
  146.6017  130.5071  154.0763 H   0  0  0  0  0  0  0  0  0  0  0  0
  147.8767  129.5488  153.3808 H   0  0  0  0  0  0  0  0  0  0  0  0
  148.8670  131.5129  154.5403 H   0  0  0  0  0  0  0  0  0  0  0  0
  149.2309  131.4674  152.8479 H   0  0  0  0  0  0  0  0  0  0  0  0
  148.7572  133.6774  153.2283 H   0  0  0  0  0  0  0  0  0  0  0  0
  145.3729  132.7893  155.1874 H   0  0  0  0  0  0  0  0  0  0  0  0
  145.3050  133.6275  153.6368 H   0  0  0  0  0  0  0  0  0  0  0  0
  145.4209  134.5510  155.1305 H   0  0  0  0  0  0  0  0  0  0  0  0
  149.5553  131.5783  157.6381 H   0  0  0  0  0  0  0  0  0  0  0  0
  147.3497  137.6243  157.8862 H   0  0  0  0  0  0  0  0  0  0  0  0
  149.8411  135.6722  159.9555 H   0  0  0  0  0  0  0  0  0  0  0  0
  149.1456  137.2610  159.7657 H   0  0  0  0  0  0  0  0  0  0  0  0
  146.0956  136.5419  161.0726 H   0  0  0  0  0  0  0  0  0  0  0  0
  149.6088  135.4253  162.2310 H   0  0  0  0  0  0  0  0  0  0  0  0
  148.6725  136.7812  162.8552 H   0  0  0  0  0  0  0  0  0  0  0  0
  148.2612  134.3461  163.9119 H   0  0  0  0  0  0  0  0  0  0  0  0
  146.8162  135.2495  163.4282 H   0  0  0  0  0  0  0  0  0  0  0  0
  146.1260  134.6790  160.7116 H   0  0  0  0  0  0  0  0  0  0  0  0
  147.5683  133.9701  160.0006 H   0  0  0  0  0  0  0  0  0  0  0  0
  147.8524  132.9838  151.2359 H   0  0  0  0  0  0  0  0  0  0  0  0
  145.6197  134.7133  152.3413 H   0  0  0  0  0  0  0  0  0  0  0  0
  146.1130  134.5395  150.6672 H   0  0  0  0  0  0  0  0  0  0  0  0
  147.1991  135.3058  151.8152 H   0  0  0  0  0  0  0  0  0  0  0  0
  145.6639  132.0499  150.8160 H   0  0  0  0  0  0  0  0  0  0  0  0
  145.2482  132.0647  152.5069 H   0  0  0  0  0  0  0  0  0  0  0  0
  147.4691  130.6153  151.2879 H   0  0  0  0  0  0  0  0  0  0  0  0
  1  2  1  0  0  0  0
  1 28  1  0  0  0  0
  1 29  1  0  0  0  0
  1 30  1  0  0  0  0
  2  3  1  0  0  0  0
  2 31  1  0  0  0  0
  2 32  1  0  0  0  0
  3 27  1  0  0  0  0
  3  4  1  0  0  0  0
  3 58  1  0  0  0  0
  4  5  1  0  0  0  0
  4 33  1  0  0  0  0
  4 34  1  0  0  0  0
  5  6  1  0  0  0  0
  5 35  1  0  0  0  0
  5 36  1  0  0  0  0
  6  7  1  0  0  0  0
  6 25  1  0  0  0  0
  6 37  1  0  0  0  0
  7  8  1  0  0  0  0
  7  9  1  0  0  0  0
  8 38  1  0  0  0  0
  8 39  1  0  0  0  0
  8 40  1  0  0  0  0
  9 14  1  0  0  0  0
  9 10  2  0  0  0  0
 10 11  1  0  0  0  0
 11 12  2  0  0  0  0
 11 41  1  0  0  0  0
 12 13  1  0  0  0  0
 13 17  1  0  0  0  0
 13 14  2  0  0  0  0
 14 15  1  0  0  0  0
 15 16  2  0  0  0  0
 16 17  1  0  0  0  0
 16 42  1  0  0  0  0
 17 18  1  0  0  0  0
 18 19  1  0  0  0  0
 18 43  1  0  0  0  0
 18 44  1  0  0  0  0
 19 24  1  0  0  0  0
 19 20  1  0  0  0  0
 19 21  1  0  0  0  0
 20 45  1  0  0  0  0
 21 22  1  0  0  0  0
 21 46  1  0  0  0  0
 21 47  1  0  0  0  0
 22 23  1  0  0  0  0
 22 48  1  0  0  0  0
 22 49  1  0  0  0  0
 23 24  1  0  0  0  0
 24 50  1  0  0  0  0
 24 51  1  0  0  0  0
 25 26  1  0  0  0  0
 25 27  1  0  0  0  0
 25 52  1  0  0  0  0
 26 53  1  0  0  0  0
 26 54  1  0  0  0  0
 26 55  1  0  0  0  0
 27 56  1  0  0  0  0
 27 57  1  0  0  0  0
M  CHG  1   3   1
M  END
> <s_m_source_file>
AV-unprocessed.smi

> <i_m_source_file_index>
243

> <i_lp_mmshare_version>
43012

> <i_f3d_flags>
0

> <s_epik_input>
W0NIM11bQ0gyXU4xW0NIMl1bQ0gyXVtDQEhdKFtDQEBIXShbQ0gzXSlbQ0gyXTEpTihbQ0gzXSljKG5bY0hdbjIpYyhjMjMpbltjSF1uM1tDSDJdW0NAQF00KFtPSF0pW0NIMl1bQ0gyXU9bQ0gyXTQ=

> <s_epik_cmdline>
J2VwaWtfcHl0aG9uJywgJy1waCcsICc3LjAnLCAnLXRuJywgJzgnLCAnLW1hJywgJzIwMCcsICctbWV0YWxfYmluZGluZycsICctaW1hZScsICc8aW5maWxlLm1hZT4nLCAnLW9tYWUnLCAnPG91dGZpbGUubWFlPic=

> <r_lp_tautomer_probability>
1

> <r_epik_Ionization_Penalty>
0.00253099

> <r_epik_Ionization_Penalty_Charging>
0.00137877

> <r_epik_Ionization_Penalty_Neutral>
0.00115221

> <r_epik_State_Penalty>
-0

> <r_epik_Charging_Adjusted_Penalty>
0.00137877

> <i_epik_Tot_Q>
1

> <i_epik_Tot_abs_Q>
1

> <r_epik_Metal_State_Penalty>
-0

> <b_epik_Metal_Only>
0

> <s_lp_Force_Field>
OPLS_2005

> <r_lp_Energy>
52.4668

> <b_lp_Chiralities_Consistent>
1

> <s_lp_Variant>
AV-unprocessed.smi:243-15

> <Gold.Version>
5.8.1

> <Gold.Id.Protein>
6NUR|6NUR_protein|mol2

> <Gold.PLP.Fitness>
45.1145

> <Gold.PLP.PLP>
-39.4060

> <Gold.PLP.part.hbond>
-3.0000

> <Gold.PLP.part.metal>
0.0000

> <Gold.PLP.part.buried>
-4.9480

> <Gold.PLP.part.nonpolar>
-32.1431

> <Gold.PLP.part.repulsive>
0.0094

> <Gold.PLP.ligand.clash>
0.0000

> <Gold.PLP.ligand.torsion>
2.1245

> <Gold.PLP.Chemscore.Hbond>
3.0000

> <Gold.PLP.Chemscore.CHOScore>
0.0000

> <Gold.PLP.Chemscore.Metal>
0.0000

> <Gold.Chemscore.Hbonds>
donor molecule, donor type, donor heavy atom, donor atom, acceptor molecule, acceptor atom, score
      L1  H     3    58       P1 10747  1.00
      P1  H  6896  6907       L1    12  1.00
      P1  H  6934  6947       L1    20  0.84

> <Gold.PLP.Chemscore.Internal.Correction>
0.9574

> <Gold.Rescore>
     Score         DG    S(hbond)    S(metal)    S(lipo)     H(rot)  DE(clash)    DE(int)     intcor
     16.26     -19.83       2.73        0.00      93.68       2.24       0.06       3.50       ----

> <Gold.Chemscore.Fitness>
16.2643

> <Gold.Chemscore.DG>
-19.8263

> <Gold.Chemscore.ZeroCoef>
-5.4800

> <Gold.Chemscore.Hbond>
2.7291

> <Gold.Chemscore.Metal>
0.0000

> <Gold.Chemscore.Lipo>
93.6762

> <Gold.Chemscore.Internal_Hbond>
0.0000

> <Gold.Chemscore.DEClash>
0.0639

> <Gold.Chemscore.DEInternal>
3.4981

> <Gold.Chemscore.Rot>
2.2379

> <Gold.Chemscore.Internal.Correction>
   9.000000E+99

> <Gold.Chemscore.Hbonds>
donor molecule, donor type, donor heavy atom, donor atom, acceptor molecule, acceptor atom, score
      L1  H     3    58       P1 10747  1.00
      P1  H  6896  6907       L1    12  0.78
      P1  H  6934  6947       L1    20  0.81

> <Gold.Chemscore.Hbond.Weighted>
-9.1153

> <Gold.Chemscore.Metal.Weighted>
-0.0000

> <Gold.Chemscore.Lipo.Weighted>
-10.9601

> <Gold.Chemscore.Internal_Hbond.Weighted>
0.0000

> <Gold.Chemscore.DEClash.Weighted>
0.0639

> <Gold.Chemscore.DEInternal.Weighted>
3.4981

> <Gold.Chemscore.Rot.Weighted>
5.7291

> <Gold.Chemscore.Internal.Correction.Weighted>
   9.000000E+99

> <Gold.Protein.RotatedTorsions>
[ 6907 6896 6895 6894 ] final -109.57 input  -60.11 | X-H torsion
[ 7974 7965 7964 7962 ] final  -33.31 input  175.53 | X-H torsion
[ 8008 7997 7996 7995 ] final -148.25 input   59.86 | X-H torsion
[ 10167 10162 10161 10158 ] final   98.90 input  -65.29 | X-H torsion
[ 10718 10713 10712 10709 ] final   48.82 input   66.30 | X-H torsion
[ 10763 10752 10751 10750 ] final   89.30 input  -60.55 | X-H torsion
[ 11005 11000 10999 10996 ] final   99.24 input  -57.11 | X-H torsion

> <Gold.Protein.ActiveResidues>
 VAL166  LYS551  ARG553  GLY616  TRP617  ASP618  TYR619  PRO620  LYS621  CYS622 
 ASP623  PHE694  ASN695  SER759  ASP760  ASP761  ALA762  ILE779  LEU786  VAL792 
 PHE793  MET794  SER795  GLU796  ALA797  LYS798  CYS799  TRP800  GLU811  SER814 

> <Gold.Protein.RotatedAtoms>
  150.7570  133.9510  159.3485 H   0  0  0  0  0  0  0  0  0  0  0  0  # atno 6907 bound_to 6896
  151.7428  135.0848  160.0328 H   0  0  0  0  0  0  0  0  0  0  0  0  # atno 6908 bound_to 6896
  152.3517  133.6151  159.5986 H   0  0  0  0  0  0  0  0  0  0  0  0  # atno 6909 bound_to 6896
  146.0921  140.5900  142.8860 H   0  0  0  0  0  0  0  0  0  0  0  0  # atno 7974 bound_to 7965
  155.5886  140.0650  157.2764 H   0  0  0  0  0  0  0  0  0  0  0  0  # atno 8008 bound_to 7997
  154.4311  140.1839  156.1098 H   0  0  0  0  0  0  0  0  0  0  0  0  # atno 8009 bound_to 7997
  156.0250  140.3312  155.7082 H   0  0  0  0  0  0  0  0  0  0  0  0  # atno 8010 bound_to 7997
  139.7666  144.6936  151.0215 H   0  0  0  0  0  0  0  0  0  0  0  0  # atno 10167 bound_to 10162
  157.4725  130.8264  149.8003 H   0  0  0  0  0  0  0  0  0  0  0  0  # atno 10718 bound_to 10713
  153.1857  135.4475  155.0085 H   0  0  0  0  0  0  0  0  0  0  0  0  # atno 10763 bound_to 10752
  154.8058  135.3274  154.7436 H   0  0  0  0  0  0  0  0  0  0  0  0  # atno 10764 bound_to 10752
  153.7895  135.6971  153.4929 H   0  0  0  0  0  0  0  0  0  0  0  0  # atno 10765 bound_to 10752
  139.8771  134.9086  156.4575 H   0  0  0  0  0  0  0  0  0  0  0  0  # atno 11005 bound_to 11000
  144.7368  140.4830  143.6898 LP  0  0  0  0  0  0  0  0  0  0  0  0  # atno 17320 bound_to 7965
  145.6019  139.1504  143.3124 LP  0  0  0  0  0  0  0  0  0  0  0  0  # atno 17321 bound_to 7965
  140.7811  143.4635  151.0244 LP  0  0  0  0  0  0  0  0  0  0  0  0  # atno 17342 bound_to 10162
  139.8320  143.7678  152.3180 LP  0  0  0  0  0  0  0  0  0  0  0  0  # atno 17343 bound_to 10162
  156.0080  130.3846  150.2362 LP  0  0  0  0  0  0  0  0  0  0  0  0  # atno 17370 bound_to 10713
  157.0545  131.0072  151.3243 LP  0  0  0  0  0  0  0  0  0  0  0  0  # atno 17371 bound_to 10713
  140.8887  133.7864  155.9548 LP  0  0  0  0  0  0  0  0  0  0  0  0  # atno 17394 bound_to 11000
  140.8776  134.2650  157.5160 LP  0  0  0  0  0  0  0  0  0  0  0  0  # atno 17395 bound_to 11000

$$$$
