AV-unprocessed.smi:2246|AV-procd|sdf|9083|dock2
  -GOLD-   2272012283D 1   1.00000     0.00000
 Structure written by MMmdl.
 29 30  0  0  0  0  0  0  0  0  1 V2000
  150.5259  143.0090  156.3828 O   0  0  0  0  0  0  0  0  0  0  0  0
  151.0072  141.9425  156.7640 C   0  0  0  0  0  0  0  0  0  0  0  0
  151.2704  140.7665  155.8261 C   0  0  2  0  0  0  0  0  0  0  0  0
  150.1283  140.3809  154.9620 N   0  0  0  0  0  0  0  0  0  0  0  0
  149.0607  141.2432  154.7641 C   0  0  0  0  0  0  0  0  0  0  0  0
  147.9884  140.9423  153.9928 C   0  0  0  0  0  0  0  0  0  0  0  0
  146.6986  142.0757  153.8036 Cl  0  0  0  0  0  0  0  0  0  0  0  0
  147.9150  139.6501  153.3138 C   0  0  0  0  0  0  0  0  0  0  0  0
  146.9916  139.2747  152.5942 O   0  0  0  0  0  0  0  0  0  0  0  0
  149.0107  138.8115  153.5345 N   0  0  0  0  0  0  0  0  0  0  0  0
  150.1189  139.1117  154.3266 C   0  0  0  0  0  0  0  0  0  0  0  0
  151.0235  138.2844  154.4392 O   0  0  0  0  0  0  0  0  0  0  0  0
  151.7582  139.6457  156.7663 C   0  0  0  0  0  0  0  0  0  0  0  0
  151.9465  140.3105  158.1394 C   0  0  0  0  0  0  0  0  0  0  0  0
  151.3832  141.6463  158.0129 N   0  0  0  0  0  0  0  0  0  0  0  0
  151.2843  142.5235  159.1776 C   0  0  0  0  0  0  0  0  0  0  0  0
  152.3288  143.6546  159.1513 C   0  0  0  0  0  0  0  0  0  0  0  0
  152.1343  144.4468  160.2048 F   0  0  0  0  0  0  0  0  0  0  0  0
  153.5690  143.1703  159.2110 F   0  0  0  0  0  0  0  0  0  0  0  0
  152.1959  144.3828  158.0426 F   0  0  0  0  0  0  0  0  0  0  0  0
  148.9988  137.9091  153.0818 H   0  0  0  0  0  0  0  0  0  0  0  0
  152.1121  141.0763  155.2046 H   0  0  0  0  0  0  0  0  0  0  0  0
  149.0771  142.2084  155.2502 H   0  0  0  0  0  0  0  0  0  0  0  0
  151.0467  138.8239  156.8463 H   0  0  0  0  0  0  0  0  0  0  0  0
  152.6921  139.2102  156.4093 H   0  0  0  0  0  0  0  0  0  0  0  0
  151.4429  139.7490  158.9271 H   0  0  0  0  0  0  0  0  0  0  0  0
  153.0041  140.3840  158.3962 H   0  0  0  0  0  0  0  0  0  0  0  0
  150.2820  142.9522  159.2145 H   0  0  0  0  0  0  0  0  0  0  0  0
  151.3942  141.9337  160.0891 H   0  0  0  0  0  0  0  0  0  0  0  0
  1  2  2  0  0  0  0
  2 15  1  0  0  0  0
  2  3  1  0  0  0  0
  3  4  1  0  0  0  0
  3 13  1  0  0  0  0
  3 22  1  0  0  0  0
  4 11  1  0  0  0  0
  4  5  1  0  0  0  0
  5  6  2  0  0  0  0
  5 23  1  0  0  0  0
  6  7  1  0  0  0  0
  6  8  1  0  0  0  0
  8  9  2  0  0  0  0
  8 10  1  0  0  0  0
 10 21  1  0  0  0  0
 10 11  1  0  0  0  0
 11 12  2  0  0  0  0
 13 14  1  0  0  0  0
 13 24  1  0  0  0  0
 13 25  1  0  0  0  0
 14 15  1  0  0  0  0
 14 26  1  0  0  0  0
 14 27  1  0  0  0  0
 15 16  1  0  0  0  0
 16 17  1  0  0  0  0
 16 28  1  0  0  0  0
 16 29  1  0  0  0  0
 17 18  1  0  0  0  0
 17 19  1  0  0  0  0
 17 20  1  0  0  0  0
M  END
> <s_m_source_file>
AV-unprocessed.smi

> <i_m_source_file_index>
2246

> <i_lp_mmshare_version>
43012

> <i_f3d_flags>
0

> <s_epik_input>
RkMoRikoRilbQ0gyXU4xW0NIMl1bQ0gyXVtDQEBIXShDMT1PKW4yW2NIXWMoQ2wpYyg9TylbbkhdYzI9Tw==

> <s_epik_cmdline>
J2VwaWtfcHl0aG9uJywgJy1waCcsICc3LjAnLCAnLXRuJywgJzgnLCAnLW1hJywgJzIwMCcsICctbWV0YWxfYmluZGluZycsICctaW1hZScsICc8aW5maWxlLm1hZT4nLCAnLW9tYWUnLCAnPG91dGZpbGUubWFlPic=

> <r_lp_tautomer_probability>
0.999537

> <r_epik_Ionization_Penalty>
0.0656354

> <r_epik_Ionization_Penalty_Charging>
0.0656354

> <r_epik_Ionization_Penalty_Neutral>
1.30579e-10

> <r_epik_State_Penalty>
0.0572525

> <r_epik_Charging_Adjusted_Penalty>
0.122888

> <i_epik_Tot_Q>
0

> <i_epik_Tot_abs_Q>
0

> <r_epik_Metal_State_Penalty>
2.74286

> <b_epik_Metal_Only>
0

> <s_lp_Force_Field>
OPLS_2005

> <r_lp_Energy>
22.3253

> <b_lp_Chiralities_Consistent>
1

> <s_lp_Variant>
AV-unprocessed.smi:2246-2

> <Gold.Version>
5.8.1

> <Gold.Id.Protein>
6NUR|6NUR_protein|mol2

> <Gold.PLP.Fitness>
47.2328

> <Gold.PLP.PLP>
-42.6543

> <Gold.PLP.part.hbond>
-1.9497

> <Gold.PLP.part.metal>
0.0000

> <Gold.PLP.part.buried>
-3.2577

> <Gold.PLP.part.nonpolar>
-41.0591

> <Gold.PLP.part.repulsive>
5.0507

> <Gold.PLP.ligand.clash>
0.0000

> <Gold.PLP.ligand.torsion>
0.6184

> <Gold.PLP.Chemscore.Hbond>
0.9588

> <Gold.PLP.Chemscore.CHOScore>
0.9448

> <Gold.PLP.Chemscore.Metal>
0.0000

> <Gold.Chemscore.Hbonds>
donor molecule, donor type, donor heavy atom, donor atom, acceptor molecule, acceptor atom, score
      L1  H    10    21       P1  7948  0.96
      L1  C     5    23       P1  8028  0.96

> <Gold.PLP.Chemscore.Internal.Correction>
0.1047

> <Gold.Rescore>
     Score         DG    S(hbond)    S(metal)    S(lipo)     H(rot)  DE(clash)    DE(int)     intcor
      5.23     -11.90       0.97        0.00      59.17       1.46       2.11       4.56       ----

> <Gold.Chemscore.Fitness>
5.2287

> <Gold.Chemscore.DG>
-11.8996

> <Gold.Chemscore.ZeroCoef>
-5.4800

> <Gold.Chemscore.Hbond>
0.9709

> <Gold.Chemscore.Metal>
0.0000

> <Gold.Chemscore.Lipo>
59.1682

> <Gold.Chemscore.Internal_Hbond>
0.0000

> <Gold.Chemscore.DEClash>
2.1074

> <Gold.Chemscore.DEInternal>
4.5634

> <Gold.Chemscore.Rot>
1.4632

> <Gold.Chemscore.Internal.Correction>
   9.000000E+99

> <Gold.Chemscore.Hbonds>
donor molecule, donor type, donor heavy atom, donor atom, acceptor molecule, acceptor atom, score
      L1  H    10    21       P1  7948  0.90

> <Gold.Chemscore.Hbond.Weighted>
-3.2427

> <Gold.Chemscore.Metal.Weighted>
-0.0000

> <Gold.Chemscore.Lipo.Weighted>
-6.9227

> <Gold.Chemscore.Internal_Hbond.Weighted>
0.0000

> <Gold.Chemscore.DEClash.Weighted>
2.1074

> <Gold.Chemscore.DEInternal.Weighted>
4.5634

> <Gold.Chemscore.Rot.Weighted>
3.7458

> <Gold.Chemscore.Internal.Correction.Weighted>
   9.000000E+99

> <Gold.Protein.RotatedTorsions>
[ 6907 6896 6895 6894 ] final -174.19 input  -60.11 | X-H torsion
[ 7974 7965 7964 7962 ] final  110.56 input  175.53 | X-H torsion
[ 8008 7997 7996 7995 ] final  -67.19 input   59.86 | X-H torsion
[ 10167 10162 10161 10158 ] final    2.45 input  -65.29 | X-H torsion
[ 10718 10713 10712 10709 ] final -165.89 input   66.30 | X-H torsion
[ 10763 10752 10751 10750 ] final   61.51 input  -60.55 | X-H torsion
[ 11005 11000 10999 10996 ] final  -96.37 input  -57.11 | X-H torsion

> <Gold.Protein.ActiveResidues>
 VAL166  LYS551  ARG553  GLY616  TRP617  ASP618  TYR619  PRO620  LYS621  CYS622 
 ASP623  PHE694  ASN695  SER759  ASP760  ASP761  ALA762  ILE779  LEU786  VAL792 
 PHE793  MET794  SER795  GLU796  ALA797  LYS798  CYS799  TRP800  GLU811  SER814 

> <Gold.Protein.RotatedAtoms>
  151.5683  133.3393  159.2984 H   0  0  0  0  0  0  0  0  0  0  0  0  # atno 6907 bound_to 6896
  150.8382  134.7667  159.6922 H   0  0  0  0  0  0  0  0  0  0  0  0  # atno 6908 bound_to 6896
  152.4455  134.5511  159.9918 H   0  0  0  0  0  0  0  0  0  0  0  0  # atno 6909 bound_to 6896
  145.2534  139.2730  143.4055 H   0  0  0  0  0  0  0  0  0  0  0  0  # atno 7974 bound_to 7965
  154.4783  140.0897  156.7317 H   0  0  0  0  0  0  0  0  0  0  0  0  # atno 8008 bound_to 7997
  155.4537  140.3458  155.4285 H   0  0  0  0  0  0  0  0  0  0  0  0  # atno 8009 bound_to 7997
  156.1152  140.1459  156.9271 H   0  0  0  0  0  0  0  0  0  0  0  0  # atno 8010 bound_to 7997
  140.6634  143.7243  150.7782 H   0  0  0  0  0  0  0  0  0  0  0  0  # atno 10167 bound_to 10162
  156.6600  130.9042  151.3027 H   0  0  0  0  0  0  0  0  0  0  0  0  # atno 10718 bound_to 10713
  152.9953  135.5498  154.6046 H   0  0  0  0  0  0  0  0  0  0  0  0  # atno 10763 bound_to 10752
  154.5380  135.2818  155.1123 H   0  0  0  0  0  0  0  0  0  0  0  0  # atno 10764 bound_to 10752
  154.2412  135.6416  153.5260 H   0  0  0  0  0  0  0  0  0  0  0  0  # atno 10765 bound_to 10752
  141.1413  133.8092  157.0561 H   0  0  0  0  0  0  0  0  0  0  0  0  # atno 11005 bound_to 11000
  146.3296  140.2931  142.8616 LP  0  0  0  0  0  0  0  0  0  0  0  0  # atno 17320 bound_to 7965
  144.9482  140.8151  143.5588 LP  0  0  0  0  0  0  0  0  0  0  0  0  # atno 17321 bound_to 7965
  140.0915  143.4873  152.2476 LP  0  0  0  0  0  0  0  0  0  0  0  0  # atno 17342 bound_to 10162
  139.5875  144.7537  151.3482 LP  0  0  0  0  0  0  0  0  0  0  0  0  # atno 17343 bound_to 10162
  157.7113  130.9443  150.1098 LP  0  0  0  0  0  0  0  0  0  0  0  0  # atno 17370 bound_to 10713
  156.2018  130.3661  149.8779 LP  0  0  0  0  0  0  0  0  0  0  0  0  # atno 17371 bound_to 10713
  140.0601  134.9759  157.1289 LP  0  0  0  0  0  0  0  0  0  0  0  0  # atno 17394 bound_to 11000
  140.3862  134.2234  155.7168 LP  0  0  0  0  0  0  0  0  0  0  0  0  # atno 17395 bound_to 11000

$$$$
