AV-unprocessed.smi:509|AV-procd|sdf|2760|dock7
  -GOLD-   2262023223D 1   1.00000     0.00000
 Structure written by MMmdl.
 46 48  0  0  0  0  0  0  0  0  2 V2000
  154.3400  137.2776  158.8471 C   0  0  0  0  0  0  0  0  0  0  0  0
  154.7212  138.4339  158.1237 O   0  0  0  0  0  0  0  0  0  0  0  0
  153.9505  138.6179  156.9473 C   0  0  0  0  0  0  0  0  0  0  0  0
  152.4610  138.6671  157.3134 C   0  0  0  0  0  0  0  0  0  0  0  0
  151.9679  140.0407  157.4081 N   0  0  0  0  0  0  0  0  0  0  0  0
  151.2664  140.7679  156.4938 C   0  0  0  0  0  0  0  0  0  0  0  0
  150.8666  140.2506  155.2597 N   0  0  0  0  0  0  0  0  0  0  0  0
  149.7342  140.7008  154.4510 C   0  0  0  0  0  0  0  0  0  0  0  0
  148.8761  139.5153  153.9722 C   0  0  0  0  0  0  0  0  0  0  0  0
  149.7050  138.5519  153.2185 N   0  3  0  0  0  0  0  0  0  0  0  0
  150.9096  138.1329  153.9645 C   0  0  0  0  0  0  0  0  0  0  0  0
  151.7010  139.3590  154.4561 C   0  0  0  0  0  0  0  0  0  0  0  0
  151.0378  142.0334  156.8530 N   0  0  0  0  0  0  0  0  0  0  0  0
  151.6177  142.1160  158.1089 C   0  0  0  0  0  0  0  0  0  0  0  0
  152.1876  140.9391  158.4568 C   0  0  0  0  0  0  0  0  0  0  0  0
  152.9161  140.7570  159.7192 C   0  0  0  0  0  0  0  0  0  0  0  0
  153.4587  139.6879  160.0018 O   0  0  0  0  0  0  0  0  0  0  0  0
  152.9393  141.8688  160.5188 N   0  0  0  0  0  0  0  0  0  0  0  0
  153.6544  141.7329  161.8021 C   0  0  0  0  0  0  0  0  0  0  0  0
  152.3805  143.0939  160.1965 C   0  0  0  0  0  0  0  0  0  0  0  0
  152.4786  144.0660  160.9501 O   0  0  0  0  0  0  0  0  0  0  0  0
  151.7126  143.2124  159.0038 N   0  0  0  0  0  0  0  0  0  0  0  0
  151.1009  144.4912  158.6306 C   0  0  0  0  0  0  0  0  0  0  0  0
  154.9649  137.1787  159.7347 H   0  0  0  0  0  0  0  0  0  0  0  0
  154.4644  136.3766  158.2452 H   0  0  0  0  0  0  0  0  0  0  0  0
  153.3008  137.3417  159.1726 H   0  0  0  0  0  0  0  0  0  0  0  0
  154.2402  139.5471  156.4550 H   0  0  0  0  0  0  0  0  0  0  0  0
  154.1382  137.8044  156.2449 H   0  0  0  0  0  0  0  0  0  0  0  0
  151.8920  138.1044  156.5816 H   0  0  0  0  0  0  0  0  0  0  0  0
  152.2813  138.1553  158.2576 H   0  0  0  0  0  0  0  0  0  0  0  0
  149.1313  141.4236  154.9992 H   0  0  0  0  0  0  0  0  0  0  0  0
  150.1210  141.2438  153.5876 H   0  0  0  0  0  0  0  0  0  0  0  0
  148.4221  139.0041  154.8220 H   0  0  0  0  0  0  0  0  0  0  0  0
  148.0626  139.8640  153.3360 H   0  0  0  0  0  0  0  0  0  0  0  0
  149.1518  137.7391  152.9881 H   0  0  0  0  0  0  0  0  0  0  0  0
  150.6059  137.5171  154.8116 H   0  0  0  0  0  0  0  0  0  0  0  0
  151.5317  137.5082  153.3234 H   0  0  0  0  0  0  0  0  0  0  0  0
  152.1069  139.9137  153.6089 H   0  0  0  0  0  0  0  0  0  0  0  0
  152.5556  139.0251  155.0461 H   0  0  0  0  0  0  0  0  0  0  0  0
  153.4158  142.5056  162.5337 H   0  0  0  0  0  0  0  0  0  0  0  0
  154.7316  141.7647  161.6331 H   0  0  0  0  0  0  0  0  0  0  0  0
  153.4209  140.7874  162.2951 H   0  0  0  0  0  0  0  0  0  0  0  0
  150.4247  144.8402  159.4123 H   0  0  0  0  0  0  0  0  0  0  0  0
  150.5191  144.4282  157.7111 H   0  0  0  0  0  0  0  0  0  0  0  0
  151.8697  145.2502  158.4809 H   0  0  0  0  0  0  0  0  0  0  0  0
  150.0056  138.9972  152.3632 H   0  0  0  0  0  0  0  0  0  0  0  0
  1  2  1  0  0  0  0
  1 24  1  0  0  0  0
  1 25  1  0  0  0  0
  1 26  1  0  0  0  0
  2  3  1  0  0  0  0
  3  4  1  0  0  0  0
  3 27  1  0  0  0  0
  3 28  1  0  0  0  0
  4  5  1  0  0  0  0
  4 29  1  0  0  0  0
  4 30  1  0  0  0  0
  5 15  1  0  0  0  0
  5  6  1  0  0  0  0
  6  7  1  0  0  0  0
  6 13  2  0  0  0  0
  7 12  1  0  0  0  0
  7  8  1  0  0  0  0
  8  9  1  0  0  0  0
  8 31  1  0  0  0  0
  8 32  1  0  0  0  0
  9 10  1  0  0  0  0
  9 33  1  0  0  0  0
  9 34  1  0  0  0  0
 10 11  1  0  0  0  0
 10 35  1  0  0  0  0
 10 46  1  0  0  0  0
 11 12  1  0  0  0  0
 11 36  1  0  0  0  0
 11 37  1  0  0  0  0
 12 38  1  0  0  0  0
 12 39  1  0  0  0  0
 13 14  1  0  0  0  0
 14 22  1  0  0  0  0
 14 15  2  0  0  0  0
 15 16  1  0  0  0  0
 16 17  2  0  0  0  0
 16 18  1  0  0  0  0
 18 19  1  0  0  0  0
 18 20  1  0  0  0  0
 19 40  1  0  0  0  0
 19 41  1  0  0  0  0
 19 42  1  0  0  0  0
 20 21  2  0  0  0  0
 20 22  1  0  0  0  0
 22 23  1  0  0  0  0
 23 43  1  0  0  0  0
 23 44  1  0  0  0  0
 23 45  1  0  0  0  0
M  CHG  1  10   1
M  END
> <s_m_source_file>
AV-unprocessed.smi

> <i_m_source_file_index>
509

> <i_lp_mmshare_version>
43012

> <i_f3d_flags>
0

> <s_epik_input>
W0NIM11uMWMoPU8pbihbQ0gzXSljKD1PKWMoYzEyKW4oW0NIMl1bQ0gyXU9bQ0gzXSljKG4yKU4zW0NIMl1bQ0gyXVtOSF1bQ0gyXVtDSDJdMw==

> <s_epik_cmdline>
J2VwaWtfcHl0aG9uJywgJy1waCcsICc3LjAnLCAnLXRuJywgJzgnLCAnLW1hJywgJzIwMCcsICctbWV0YWxfYmluZGluZycsICctaW1hZScsICc8aW5maWxlLm1hZT4nLCAnLW9tYWUnLCAnPG91dGZpbGUubWFlPic=

> <r_epik_Ionization_Penalty>
0.00857468

> <r_epik_Ionization_Penalty_Charging>
0.00857162

> <r_epik_Ionization_Penalty_Neutral>
3.06002e-06

> <r_epik_State_Penalty>
0.00646614

> <r_epik_Charging_Adjusted_Penalty>
0.0150378

> <i_epik_Tot_Q>
1

> <i_epik_Tot_abs_Q>
1

> <r_epik_Metal_State_Penalty>
0.00646904

> <b_epik_Metal_Only>
0

> <s_lp_Force_Field>
OPLS_2005

> <r_lp_Energy>
52.9694

> <b_lp_Chiralities_Consistent>
1

> <s_lp_Variant>
AV-unprocessed.smi:509-1

> <Gold.Version>
5.8.1

> <Gold.Id.Protein>
6NUR|6NUR_protein|mol2

> <Gold.PLP.Fitness>
47.7930

> <Gold.PLP.PLP>
-42.1805

> <Gold.PLP.part.hbond>
-3.0000

> <Gold.PLP.part.metal>
0.0000

> <Gold.PLP.part.buried>
3.9033

> <Gold.PLP.part.nonpolar>
-41.3613

> <Gold.PLP.part.repulsive>
0.2463

> <Gold.PLP.ligand.clash>
0.0000

> <Gold.PLP.ligand.torsion>
0.9825

> <Gold.PLP.Chemscore.Hbond>
2.4080

> <Gold.PLP.Chemscore.CHOScore>
0.0000

> <Gold.PLP.Chemscore.Metal>
0.0000

> <Gold.Chemscore.Hbonds>
donor molecule, donor type, donor heavy atom, donor atom, acceptor molecule, acceptor atom, score
      L1  H    10    35       P1  7948  1.79
      L1  H    10    46       P1  7957  0.94

> <Gold.PLP.Chemscore.Internal.Correction>
0.3535

> <Gold.Rescore>
     Score         DG    S(hbond)    S(metal)    S(lipo)     H(rot)  DE(clash)    DE(int)     intcor
      9.40     -15.13       1.51        0.00      72.44       1.51       2.43       3.30       ----

> <Gold.Chemscore.Fitness>
9.3996

> <Gold.Chemscore.DG>
-15.1329

> <Gold.Chemscore.ZeroCoef>
-5.4800

> <Gold.Chemscore.Hbond>
1.5088

> <Gold.Chemscore.Metal>
0.0000

> <Gold.Chemscore.Lipo>
72.4411

> <Gold.Chemscore.Internal_Hbond>
0.0000

> <Gold.Chemscore.DEClash>
2.4348

> <Gold.Chemscore.DEInternal>
3.2986

> <Gold.Chemscore.Rot>
1.5086

> <Gold.Chemscore.Internal.Correction>
   9.000000E+99

> <Gold.Chemscore.Hbonds>
donor molecule, donor type, donor heavy atom, donor atom, acceptor molecule, acceptor atom, score
      L1  H    10    35       P1  7948  0.87
      L1  H    10    46       P1  7957  0.36

> <Gold.Chemscore.Hbond.Weighted>
-5.0393

> <Gold.Chemscore.Metal.Weighted>
-0.0000

> <Gold.Chemscore.Lipo.Weighted>
-8.4756

> <Gold.Chemscore.Internal_Hbond.Weighted>
0.0000

> <Gold.Chemscore.DEClash.Weighted>
2.4348

> <Gold.Chemscore.DEInternal.Weighted>
3.2986

> <Gold.Chemscore.Rot.Weighted>
3.8620

> <Gold.Chemscore.Internal.Correction.Weighted>
   9.000000E+99

> <Gold.Protein.RotatedTorsions>
[ 6907 6896 6895 6894 ] final   18.68 input  -60.11 | X-H torsion
[ 7974 7965 7964 7962 ] final -119.77 input  175.53 | X-H torsion
[ 8008 7997 7996 7995 ] final  124.23 input   59.86 | X-H torsion
[ 10167 10162 10161 10158 ] final  134.32 input  -65.29 | X-H torsion
[ 10718 10713 10712 10709 ] final   11.06 input   66.30 | X-H torsion
[ 10763 10752 10751 10750 ] final  -62.49 input  -60.55 | X-H torsion
[ 11005 11000 10999 10996 ] final  147.48 input  -57.11 | X-H torsion

> <Gold.Protein.ActiveResidues>
 VAL166  LYS551  ARG553  GLY616  TRP617  ASP618  TYR619  PRO620  LYS621  CYS622 
 ASP623  PHE694  ASN695  SER759  ASP760  ASP761  ALA762  ILE779  LEU786  VAL792 
 PHE793  MET794  SER795  GLU796  ALA797  LYS798  CYS799  TRP800  GLU811  SER814 

> <Gold.Protein.RotatedAtoms>
  151.8690  135.0496  160.0477 H   0  0  0  0  0  0  0  0  0  0  0  0  # atno 6907 bound_to 6896
  152.2603  133.5287  159.5386 H   0  0  0  0  0  0  0  0  0  0  0  0  # atno 6908 bound_to 6896
  150.7114  134.0755  159.3922 H   0  0  0  0  0  0  0  0  0  0  0  0  # atno 6909 bound_to 6896
  145.0588  140.8274  143.4165 H   0  0  0  0  0  0  0  0  0  0  0  0  # atno 7974 bound_to 7965
  156.2794  140.2744  156.1754 H   0  0  0  0  0  0  0  0  0  0  0  0  # atno 8008 bound_to 7997
  155.0611  140.0386  157.2595 H   0  0  0  0  0  0  0  0  0  0  0  0  # atno 8009 bound_to 7997
  154.7116  140.2670  155.6629 H   0  0  0  0  0  0  0  0  0  0  0  0  # atno 8010 bound_to 7997
  139.5261  144.6573  151.5122 H   0  0  0  0  0  0  0  0  0  0  0  0  # atno 10167 bound_to 10162
  156.9901  130.6039  149.5685 H   0  0  0  0  0  0  0  0  0  0  0  0  # atno 10718 bound_to 10713
  154.3006  135.6235  153.5423 H   0  0  0  0  0  0  0  0  0  0  0  0  # atno 10763 bound_to 10752
  152.9841  135.5677  154.5288 H   0  0  0  0  0  0  0  0  0  0  0  0  # atno 10764 bound_to 10752
  154.4917  135.2867  155.1467 H   0  0  0  0  0  0  0  0  0  0  0  0  # atno 10765 bound_to 10752
  140.0879  134.9058  157.1605 H   0  0  0  0  0  0  0  0  0  0  0  0  # atno 11005 bound_to 11000
  145.1434  139.2558  143.5478 LP  0  0  0  0  0  0  0  0  0  0  0  0  # atno 17320 bound_to 7965
  146.3523  140.1118  142.8603 LP  0  0  0  0  0  0  0  0  0  0  0  0  # atno 17321 bound_to 7965
  140.6405  143.8899  150.6687 LP  0  0  0  0  0  0  0  0  0  0  0  0  # atno 17342 bound_to 10162
  140.2232  143.3793  152.1626 LP  0  0  0  0  0  0  0  0  0  0  0  0  # atno 17343 bound_to 10162
  156.0210  130.5305  150.8276 LP  0  0  0  0  0  0  0  0  0  0  0  0  # atno 17370 bound_to 10713
  157.5465  131.0942  150.9755 LP  0  0  0  0  0  0  0  0  0  0  0  0  # atno 17371 bound_to 10713
  140.3394  134.2721  155.7214 LP  0  0  0  0  0  0  0  0  0  0  0  0  # atno 17394 bound_to 11000
  141.2068  133.7822  157.0153 LP  0  0  0  0  0  0  0  0  0  0  0  0  # atno 17395 bound_to 11000

$$$$
