AV-unprocessed.smi:37|AV-procd|sdf|315|dock10
  -GOLD-   2262016133D 1   1.00000     0.00000
 Structure written by MMmdl.
 44 45  0  0  0  0  0  0  0  0  1 V2000
  143.6631  142.9077  161.3343 C   0  0  0  0  0  0  0  0  0  0  0  0
  143.5330  141.9850  160.1150 C   0  0  0  0  0  0  0  0  0  0  0  0
  144.3064  140.6807  160.2949 C   0  0  0  0  0  0  0  0  0  0  0  0
  145.0054  140.4812  161.2888 O   0  0  0  0  0  0  0  0  0  0  0  0
  144.1316  139.8297  159.2717 O   0  0  0  0  0  0  0  0  0  0  0  0
  144.7055  138.5349  159.3320 C   0  0  0  0  0  0  0  0  0  0  0  0
  146.0572  138.5468  158.5995 C   0  0  2  0  0  0  0  0  0  0  0  0
  145.8114  138.9787  157.2559 O   0  0  0  0  0  0  0  0  0  0  0  0
  146.3434  138.0817  156.3269 C   0  0  1  0  0  0  0  0  0  0  0  0
  147.7272  138.5322  155.8892 N   0  0  0  0  0  0  0  0  0  0  0  0
  148.7756  138.7284  156.7826 C   0  0  0  0  0  0  0  0  0  0  0  0
  150.0057  139.1441  156.3978 C   0  0  0  0  0  0  0  0  0  0  0  0
  150.9685  139.3090  157.3207 F   0  0  0  0  0  0  0  0  0  0  0  0
  150.2942  139.4227  154.9945 C   0  0  0  0  0  0  0  0  0  0  0  0
  151.3774  139.7969  154.5494 O   0  0  0  0  0  0  0  0  0  0  0  0
  149.2081  139.2361  154.1359 N   0  0  0  0  0  0  0  0  0  0  0  0
  147.9348  138.8126  154.5195 C   0  0  0  0  0  0  0  0  0  0  0  0
  147.0463  138.6971  153.6763 O   0  0  0  0  0  0  0  0  0  0  0  0
  146.4088  136.7354  157.0492 C   0  0  2  0  0  0  0  0  0  0  0  0
  144.6203  135.8549  156.9502 Br  0  0  0  0  0  0  0  0  0  0  0  0
  146.7348  137.1704  158.4709 C   0  0  2  0  0  0  0  0  0  0  0  0
  146.3157  136.2266  159.4498 O   0  0  0  0  0  0  0  0  0  0  0  0
  146.7616  136.3140  160.7157 C   0  0  0  0  0  0  0  0  0  0  0  0
  147.5225  137.1755  161.1566 O   0  0  0  0  0  0  0  0  0  0  0  0
  146.2230  135.1956  161.6041 C   0  0  0  0  0  0  0  0  0  0  0  0
  147.2301  134.7853  162.6872 C   0  0  0  0  0  0  0  0  0  0  0  0
  149.3565  139.4287  153.1559 H   0  0  0  0  0  0  0  0  0  0  0  0
  143.1559  143.8556  161.1544 H   0  0  0  0  0  0  0  0  0  0  0  0
  144.7080  143.1294  161.5548 H   0  0  0  0  0  0  0  0  0  0  0  0
  143.2183  142.4600  162.2237 H   0  0  0  0  0  0  0  0  0  0  0  0
  142.4838  141.7524  159.9316 H   0  0  0  0  0  0  0  0  0  0  0  0
  143.9047  142.4941  159.2254 H   0  0  0  0  0  0  0  0  0  0  0  0
  144.8434  138.2683  160.3805 H   0  0  0  0  0  0  0  0  0  0  0  0
  144.0332  137.7991  158.8900 H   0  0  0  0  0  0  0  0  0  0  0  0
  146.7346  139.2365  159.1041 H   0  0  0  0  0  0  0  0  0  0  0  0
  145.7457  138.0756  155.4134 H   0  0  0  0  0  0  0  0  0  0  0  0
  148.6333  138.5551  157.8376 H   0  0  0  0  0  0  0  0  0  0  0  0
  147.1443  136.0538  156.6225 H   0  0  0  0  0  0  0  0  0  0  0  0
  147.8115  137.3332  158.5447 H   0  0  0  0  0  0  0  0  0  0  0  0
  145.2946  135.5292  162.0682 H   0  0  0  0  0  0  0  0  0  0  0  0
  145.9747  134.3373  160.9794 H   0  0  0  0  0  0  0  0  0  0  0  0
  146.8086  134.0133  163.3308 H   0  0  0  0  0  0  0  0  0  0  0  0
  147.4998  135.6321  163.3193 H   0  0  0  0  0  0  0  0  0  0  0  0
  148.1465  134.3858  162.2512 H   0  0  0  0  0  0  0  0  0  0  0  0
  1  2  1  0  0  0  0
  1 28  1  0  0  0  0
  1 29  1  0  0  0  0
  1 30  1  0  0  0  0
  2  3  1  0  0  0  0
  2 31  1  0  0  0  0
  2 32  1  0  0  0  0
  3  4  2  0  0  0  0
  3  5  1  0  0  0  0
  5  6  1  0  0  0  0
  6  7  1  0  0  0  0
  6 33  1  0  0  0  0
  6 34  1  0  0  0  0
  7 21  1  0  0  0  0
  7  8  1  0  0  0  0
  7 35  1  0  0  0  0
  8  9  1  0  0  0  0
  9 10  1  0  0  0  0
  9 19  1  0  0  0  0
  9 36  1  0  0  0  0
 10 17  1  0  0  0  0
 10 11  1  0  0  0  0
 11 12  2  0  0  0  0
 11 37  1  0  0  0  0
 12 13  1  0  0  0  0
 12 14  1  0  0  0  0
 14 15  2  0  0  0  0
 14 16  1  0  0  0  0
 16 27  1  0  0  0  0
 16 17  1  0  0  0  0
 17 18  2  0  0  0  0
 19 20  1  0  0  0  0
 19 21  1  0  0  0  0
 19 38  1  0  0  0  0
 21 22  1  0  0  0  0
 21 39  1  0  0  0  0
 22 23  1  0  0  0  0
 23 24  2  0  0  0  0
 23 25  1  0  0  0  0
 25 26  1  0  0  0  0
 25 40  1  0  0  0  0
 25 41  1  0  0  0  0
 26 42  1  0  0  0  0
 26 43  1  0  0  0  0
 26 44  1  0  0  0  0
M  END
> <s_m_source_file>
AV-unprocessed.smi

> <i_m_source_file_index>
37

> <i_lp_mmshare_version>
43012

> <i_f3d_flags>
0

> <s_epik_input>
W0NIM11bQ0gyXUMoPU8pT1tDSDJdW0NAQEhdMU9bQ0BASF0objJbY0hdYyhGKWMoPU8pW25IXWMyPU8pW0NAQEhdKEJyKVtDQEhdMU9DKD1PKVtDSDJdW0NIM10=

> <s_epik_cmdline>
J2VwaWtfcHl0aG9uJywgJy1waCcsICc3LjAnLCAnLXRuJywgJzgnLCAnLW1hJywgJzIwMCcsICctbWV0YWxfYmluZGluZycsICctaW1hZScsICc8aW5maWxlLm1hZT4nLCAnLW9tYWUnLCAnPG91dGZpbGUubWFlPic=

> <r_lp_tautomer_probability>
0.999537

> <r_epik_Ionization_Penalty>
0.104106

> <r_epik_Ionization_Penalty_Charging>
0.104106

> <r_epik_Ionization_Penalty_Neutral>
3.94675e-16

> <r_epik_State_Penalty>
0.0940182

> <r_epik_Charging_Adjusted_Penalty>
0.198124

> <i_epik_Tot_Q>
0

> <i_epik_Tot_abs_Q>
0

> <r_epik_Metal_State_Penalty>
3.05314

> <b_epik_Metal_Only>
0

> <s_epik_Chemistry_Notes>
This compound has an ester and may undergo hydrolysis at high or low pH. This compound contains an acetal/aminal-like group ( X-CH(R)-Y where X, Y are N, S, or O) that may be acid/base labile, releasing an aldehyde.

> <s_lp_Force_Field>
OPLS_2005

> <r_lp_Energy>
24.3846

> <b_lp_Chiralities_Consistent>
1

> <s_lp_Variant>
AV-unprocessed.smi:37-13

> <Gold.Version>
5.8.1

> <Gold.Id.Protein>
6NUR|6NUR_protein|mol2

> <Gold.PLP.Fitness>
33.3296

> <Gold.PLP.PLP>
-23.0966

> <Gold.PLP.part.hbond>
-5.8482

> <Gold.PLP.part.metal>
0.0000

> <Gold.PLP.part.buried>
-3.6661

> <Gold.PLP.part.nonpolar>
-13.4496

> <Gold.PLP.part.repulsive>
0.3484

> <Gold.PLP.ligand.clash>
0.0000

> <Gold.PLP.ligand.torsion>
0.7748

> <Gold.PLP.Chemscore.Hbond>
3.8840

> <Gold.PLP.Chemscore.CHOScore>
0.0000

> <Gold.PLP.Chemscore.Metal>
0.0000

> <Gold.Chemscore.Hbonds>
donor molecule, donor type, donor heavy atom, donor atom, acceptor molecule, acceptor atom, score
      L1  H    16    27       P1  7957  0.83
      P1  H  6931  6943       L1    24  0.90
      P1  H  6934  6946       L1     4  0.19
      P1  H  6934  6947       L1    24  0.96
      P1  H  7989  7998       L1    15  0.98

> <Gold.PLP.Chemscore.Internal.Correction>
0.1307

> <Gold.Rescore>
     Score         DG    S(hbond)    S(metal)    S(lipo)     H(rot)  DE(clash)    DE(int)     intcor
     12.16     -13.73       4.02        0.00      28.46       3.33       0.07       1.50       ----

> <Gold.Chemscore.Fitness>
12.1575

> <Gold.Chemscore.DG>
-13.7272

> <Gold.Chemscore.ZeroCoef>
-5.4800

> <Gold.Chemscore.Hbond>
4.0248

> <Gold.Chemscore.Metal>
0.0000

> <Gold.Chemscore.Lipo>
28.4602

> <Gold.Chemscore.Internal_Hbond>
0.0000

> <Gold.Chemscore.DEClash>
0.0650

> <Gold.Chemscore.DEInternal>
1.5046

> <Gold.Chemscore.Rot>
3.3303

> <Gold.Chemscore.Internal.Correction>
   9.000000E+99

> <Gold.Chemscore.Hbonds>
donor molecule, donor type, donor heavy atom, donor atom, acceptor molecule, acceptor atom, score
      L1  H    16    27       P1  7957  0.80
      P1  H  6931  6943       L1    24  0.85
      P1  H  6934  6946       L1     4  0.11
      P1  H  6934  6947       L1    24  0.91
      P1  H  7989  7998       L1    15  0.91

> <Gold.Chemscore.Hbond.Weighted>
-13.4430

> <Gold.Chemscore.Metal.Weighted>
-0.0000

> <Gold.Chemscore.Lipo.Weighted>
-3.3298

> <Gold.Chemscore.Internal_Hbond.Weighted>
0.0000

> <Gold.Chemscore.DEClash.Weighted>
0.0650

> <Gold.Chemscore.DEInternal.Weighted>
1.5046

> <Gold.Chemscore.Rot.Weighted>
8.5256

> <Gold.Chemscore.Internal.Correction.Weighted>
   9.000000E+99

> <Gold.Protein.RotatedTorsions>
[ 6907 6896 6895 6894 ] final   63.31 input  -60.11 | X-H torsion
[ 7974 7965 7964 7962 ] final  -44.76 input  175.53 | X-H torsion
[ 8008 7997 7996 7995 ] final -148.30 input   59.86 | X-H torsion
[ 10167 10162 10161 10158 ] final  158.25 input  -65.29 | X-H torsion
[ 10718 10713 10712 10709 ] final  148.12 input   66.30 | X-H torsion
[ 10763 10752 10751 10750 ] final  135.01 input  -60.55 | X-H torsion
[ 11005 11000 10999 10996 ] final   41.89 input  -57.11 | X-H torsion

> <Gold.Protein.ActiveResidues>
 VAL166  LYS551  ARG553  GLY616  TRP617  ASP618  TYR619  PRO620  LYS621  CYS622 
 ASP623  PHE694  ASN695  SER759  ASP760  ASP761  ALA762  ILE779  LEU786  VAL792 
 PHE793  MET794  SER795  GLU796  ALA797  LYS798  CYS799  TRP800  GLU811  SER814 

> <Gold.Protein.RotatedAtoms>
  152.4243  134.5897  159.9970 H   0  0  0  0  0  0  0  0  0  0  0  0  # atno 6907 bound_to 6896
  151.6038  133.3348  159.3061 H   0  0  0  0  0  0  0  0  0  0  0  0  # atno 6908 bound_to 6896
  150.8132  134.7336  159.6772 H   0  0  0  0  0  0  0  0  0  0  0  0  # atno 6909 bound_to 6896
  145.9888  140.7203  142.9327 H   0  0  0  0  0  0  0  0  0  0  0  0  # atno 7974 bound_to 7965
  155.5894  140.0651  157.2762 H   0  0  0  0  0  0  0  0  0  0  0  0  # atno 8008 bound_to 7997
  154.4309  140.1838  156.1105 H   0  0  0  0  0  0  0  0  0  0  0  0  # atno 8009 bound_to 7997
  156.0244  140.3313  155.7077 H   0  0  0  0  0  0  0  0  0  0  0  0  # atno 8010 bound_to 7997
  139.4826  144.4842  151.8401 H   0  0  0  0  0  0  0  0  0  0  0  0  # atno 10167 bound_to 10162
  157.3126  131.0890  151.1304 H   0  0  0  0  0  0  0  0  0  0  0  0  # atno 10718 bound_to 10713
  153.8330  135.3101  155.3420 H   0  0  0  0  0  0  0  0  0  0  0  0  # atno 10763 bound_to 10752
  154.7965  135.4752  154.0176 H   0  0  0  0  0  0  0  0  0  0  0  0  # atno 10764 bound_to 10752
  153.1622  135.6863  153.8817 H   0  0  0  0  0  0  0  0  0  0  0  0  # atno 10765 bound_to 10752
  140.1791  134.4126  155.8210 H   0  0  0  0  0  0  0  0  0  0  0  0  # atno 11005 bound_to 11000
  144.6883  140.3034  143.7259 LP  0  0  0  0  0  0  0  0  0  0  0  0  # atno 17320 bound_to 7965
  145.7661  139.1841  143.2239 LP  0  0  0  0  0  0  0  0  0  0  0  0  # atno 17321 bound_to 7965
  140.4320  144.2103  150.5888 LP  0  0  0  0  0  0  0  0  0  0  0  0  # atno 17342 bound_to 10162
  140.4770  143.2392  151.9009 LP  0  0  0  0  0  0  0  0  0  0  0  0  # atno 17343 bound_to 10162
  157.2620  130.6663  149.5979 LP  0  0  0  0  0  0  0  0  0  0  0  0  # atno 17370 bound_to 10713
  155.9679  130.4505  150.5701 LP  0  0  0  0  0  0  0  0  0  0  0  0  # atno 17371 bound_to 10713
  141.2222  133.6992  156.7900 LP  0  0  0  0  0  0  0  0  0  0  0  0  # atno 17394 bound_to 11000
  140.2288  134.8702  157.3454 LP  0  0  0  0  0  0  0  0  0  0  0  0  # atno 17395 bound_to 11000

$$$$
