AV-unprocessed.smi:713|AV-procd|sdf|3481|dock9
  -GOLD-   22720 0473D 1   1.00000     0.00000
 Structure written by MMmdl.
 41 42  0  0  0  0  0  0  0  0  1 V2000
  152.3003  143.9993  160.8174 C   0  0  0  0  0  0  0  0  0  0  0  0
  153.0180  142.9554  159.9372 C   0  0  1  0  0  0  0  0  0  0  0  0
  153.5442  141.7493  160.7365 C   0  0  0  0  0  0  0  0  0  0  0  0
  153.3493  141.6612  161.9496 O   0  0  0  0  0  0  0  0  0  0  0  0
  154.2305  140.8290  160.0396 N   0  0  0  0  0  0  0  0  0  0  0  0
  154.8142  139.6108  160.5900 C   0  0  1  0  0  0  0  0  0  0  0  0
  155.8023  139.9828  161.7100 C   0  0  0  0  0  0  0  0  0  0  0  0
  156.4078  138.7364  162.3735 C   0  0  0  0  0  0  0  0  0  0  0  0
  155.3160  137.7750  162.8768 C   0  0  0  0  0  0  0  0  0  0  0  0
  154.2658  137.4112  161.8022 C   0  0  2  0  0  0  0  0  0  0  0  0
  154.8848  136.1965  160.5357 S   0  0  0  0  0  0  0  0  0  0  0  0
  155.2387  134.7052  161.5551 C   0  0  0  0  0  0  0  0  0  0  0  0
  153.7718  135.8772  159.6290 O   0  0  0  0  0  0  0  0  0  0  0  0
  156.1605  136.6615  159.9721 O   0  0  0  0  0  0  0  0  0  0  0  0
  153.7072  138.6811  161.1294 C   0  0  0  0  0  0  0  0  0  0  0  0
  152.1815  142.5185  158.8236 N   0  0  0  0  0  0  0  0  0  0  0  0
  151.6257  141.2718  158.6184 C   0  0  0  0  0  0  0  0  0  0  0  0
  150.8903  141.3337  157.4699 C   0  0  0  0  0  0  0  0  0  0  0  0
  151.0510  142.6794  157.0382 C   0  0  0  0  0  0  0  0  0  0  0  0
  151.8173  143.3870  157.8516 N   0  0  0  0  0  0  0  0  0  0  0  0
  152.9606  144.3786  161.5983 H   0  0  0  0  0  0  0  0  0  0  0  0
  151.4166  143.5842  161.3040 H   0  0  0  0  0  0  0  0  0  0  0  0
  151.9784  144.8535  160.2211 H   0  0  0  0  0  0  0  0  0  0  0  0
  153.8928  143.4449  159.5066 H   0  0  0  0  0  0  0  0  0  0  0  0
  154.3438  140.9778  159.0476 H   0  0  0  0  0  0  0  0  0  0  0  0
  155.3679  139.1017  159.8001 H   0  0  0  0  0  0  0  0  0  0  0  0
  156.6011  140.6092  161.3109 H   0  0  0  0  0  0  0  0  0  0  0  0
  155.2922  140.5793  162.4680 H   0  0  0  0  0  0  0  0  0  0  0  0
  157.0722  138.2322  161.6743 H   0  0  0  0  0  0  0  0  0  0  0  0
  157.0382  139.0394  163.2097 H   0  0  0  0  0  0  0  0  0  0  0  0
  155.7727  136.8783  163.2931 H   0  0  0  0  0  0  0  0  0  0  0  0
  154.8001  138.2536  163.7098 H   0  0  0  0  0  0  0  0  0  0  0  0
  153.4354  136.9066  162.2969 H   0  0  0  0  0  0  0  0  0  0  0  0
  155.5009  133.8764  160.8978 H   0  0  0  0  0  0  0  0  0  0  0  0
  154.3551  134.4384  162.1340 H   0  0  0  0  0  0  0  0  0  0  0  0
  156.0732  134.9008  162.2271 H   0  0  0  0  0  0  0  0  0  0  0  0
  153.1082  139.2279  161.8589 H   0  0  0  0  0  0  0  0  0  0  0  0
  153.0216  138.4046  160.3276 H   0  0  0  0  0  0  0  0  0  0  0  0
  151.7968  140.4525  159.3011 H   0  0  0  0  0  0  0  0  0  0  0  0
  150.3214  140.5395  157.0099 H   0  0  0  0  0  0  0  0  0  0  0  0
  150.6330  143.1611  156.1666 H   0  0  0  0  0  0  0  0  0  0  0  0
  1  2  1  0  0  0  0
  1 21  1  0  0  0  0
  1 22  1  0  0  0  0
  1 23  1  0  0  0  0
  2  3  1  0  0  0  0
  2 16  1  0  0  0  0
  2 24  1  0  0  0  0
  3  4  2  0  0  0  0
  3  5  1  0  0  0  0
  5  6  1  0  0  0  0
  5 25  1  0  0  0  0
  6 15  1  0  0  0  0
  6  7  1  0  0  0  0
  6 26  1  0  0  0  0
  7  8  1  0  0  0  0
  7 27  1  0  0  0  0
  7 28  1  0  0  0  0
  8  9  1  0  0  0  0
  8 29  1  0  0  0  0
  8 30  1  0  0  0  0
  9 10  1  0  0  0  0
  9 31  1  0  0  0  0
  9 32  1  0  0  0  0
 10 11  1  0  0  0  0
 10 15  1  0  0  0  0
 10 33  1  0  0  0  0
 11 12  1  0  0  0  0
 11 13  2  0  0  0  0
 11 14  2  0  0  0  0
 12 34  1  0  0  0  0
 12 35  1  0  0  0  0
 12 36  1  0  0  0  0
 15 37  1  0  0  0  0
 15 38  1  0  0  0  0
 16 20  1  0  0  0  0
 16 17  1  0  0  0  0
 17 18  2  0  0  0  0
 17 39  1  0  0  0  0
 18 19  1  0  0  0  0
 18 40  1  0  0  0  0
 19 20  2  0  0  0  0
 19 41  1  0  0  0  0
M  END
> <s_m_source_file>
AV-unprocessed.smi

> <i_m_source_file_index>
713

> <i_lp_mmshare_version>
43012

> <i_f3d_flags>
0

> <s_epik_input>
bjFbY0hdW2NIXVtjSF1uMVtDQEhdKFtDSDNdKUMoPU8pW05IXVtDQEBIXTJbQ0gyXVtDSDJdW0NIMl1bQ0BIXShbQ0gyXTIpUyg9TykoPU8pW0NIM10=

> <s_epik_cmdline>
J2VwaWtfcHl0aG9uJywgJy1waCcsICc3LjAnLCAnLXRuJywgJzgnLCAnLW1hJywgJzIwMCcsICctbWV0YWxfYmluZGluZycsICctaW1hZScsICc8aW5maWxlLm1hZT4nLCAnLW9tYWUnLCAnPG91dGZpbGUubWFlPic=

> <r_lp_tautomer_probability>
1

> <r_epik_Ionization_Penalty>
4.07816e-05

> <r_epik_Ionization_Penalty_Charging>
0

> <r_epik_Ionization_Penalty_Neutral>
4.07816e-05

> <r_epik_State_Penalty>
-0

> <r_epik_Charging_Adjusted_Penalty>
0

> <i_epik_Tot_Q>
0

> <i_epik_Tot_abs_Q>
0

> <r_epik_Metal_State_Penalty>
-0

> <b_epik_Metal_Only>
0

> <s_lp_Force_Field>
OPLS_2005

> <r_lp_Energy>
4.31355

> <b_lp_Chiralities_Consistent>
1

> <s_lp_Variant>
AV-unprocessed.smi:713-8

> <Gold.Version>
5.8.1

> <Gold.Id.Protein>
6NUR|6NUR_protein|mol2

> <Gold.PLP.Fitness>
37.3804

> <Gold.PLP.PLP>
-31.8714

> <Gold.PLP.part.hbond>
-1.0000

> <Gold.PLP.part.metal>
0.0000

> <Gold.PLP.part.buried>
-4.0127

> <Gold.PLP.part.nonpolar>
-26.6576

> <Gold.PLP.part.repulsive>
0.1669

> <Gold.PLP.ligand.clash>
0.0000

> <Gold.PLP.ligand.torsion>
0.3965

> <Gold.PLP.Chemscore.Hbond>
1.0000

> <Gold.PLP.Chemscore.CHOScore>
1.0000

> <Gold.PLP.Chemscore.Metal>
0.0000

> <Gold.Chemscore.Hbonds>
donor molecule, donor type, donor heavy atom, donor atom, acceptor molecule, acceptor atom, score
      P1  H  6896  6909       L1    13  1.00
      L1  C    19    41       P1  8028  1.00

> <Gold.PLP.Chemscore.Internal.Correction>
0.3020

> <Gold.Rescore>
     Score         DG    S(hbond)    S(metal)    S(lipo)     H(rot)  DE(clash)    DE(int)     intcor
     12.21     -13.76       1.00        0.00      79.96       1.72       0.08       1.47       ----

> <Gold.Chemscore.Fitness>
12.2111

> <Gold.Chemscore.DG>
-13.7595

> <Gold.Chemscore.ZeroCoef>
-5.4800

> <Gold.Chemscore.Hbond>
1.0000

> <Gold.Chemscore.Metal>
0.0000

> <Gold.Chemscore.Lipo>
79.9593

> <Gold.Chemscore.Internal_Hbond>
0.0000

> <Gold.Chemscore.DEClash>
0.0814

> <Gold.Chemscore.DEInternal>
1.4670

> <Gold.Chemscore.Rot>
1.7249

> <Gold.Chemscore.Internal.Correction>
   9.000000E+99

> <Gold.Chemscore.Hbonds>
donor molecule, donor type, donor heavy atom, donor atom, acceptor molecule, acceptor atom, score
      P1  H  6896  6909       L1    13  0.99

> <Gold.Chemscore.Hbond.Weighted>
-3.3400

> <Gold.Chemscore.Metal.Weighted>
-0.0000

> <Gold.Chemscore.Lipo.Weighted>
-9.3552

> <Gold.Chemscore.Internal_Hbond.Weighted>
0.0000

> <Gold.Chemscore.DEClash.Weighted>
0.0814

> <Gold.Chemscore.DEInternal.Weighted>
1.4670

> <Gold.Chemscore.Rot.Weighted>
4.4157

> <Gold.Chemscore.Internal.Correction.Weighted>
   9.000000E+99

> <Gold.Protein.RotatedTorsions>
[ 6907 6896 6895 6894 ] final  166.55 input  -60.11 | X-H torsion
[ 7974 7965 7964 7962 ] final  123.15 input  175.53 | X-H torsion
[ 8008 7997 7996 7995 ] final  -94.01 input   59.86 | X-H torsion
[ 10167 10162 10161 10158 ] final  156.95 input  -65.29 | X-H torsion
[ 10718 10713 10712 10709 ] final  178.47 input   66.30 | X-H torsion
[ 10763 10752 10751 10750 ] final -133.37 input  -60.55 | X-H torsion
[ 11005 11000 10999 10996 ] final  127.81 input  -57.11 | X-H torsion

> <Gold.Protein.ActiveResidues>
 VAL166  LYS551  ARG553  GLY616  TRP617  ASP618  TYR619  PRO620  LYS621  CYS622 
 ASP623  PHE694  ASN695  SER759  ASP760  ASP761  ALA762  ILE779  LEU786  VAL792 
 PHE793  MET794  SER795  GLU796  ALA797  LYS798  CYS799  TRP800  GLU811  SER814 

> <Gold.Protein.RotatedAtoms>
  151.8771  133.3487  159.3753 H   0  0  0  0  0  0  0  0  0  0  0  0  # atno 6907 bound_to 6896
  150.7137  134.5055  159.5591 H   0  0  0  0  0  0  0  0  0  0  0  0  # atno 6908 bound_to 6896
  152.2599  134.8045  160.0483 H   0  0  0  0  0  0  0  0  0  0  0  0  # atno 6909 bound_to 6896
  145.0993  139.3530  143.4820 H   0  0  0  0  0  0  0  0  0  0  0  0  # atno 7974 bound_to 7965
  154.7430  140.0493  157.0827 H   0  0  0  0  0  0  0  0  0  0  0  0  # atno 8008 bound_to 7997
  155.0154  140.3141  155.4794 H   0  0  0  0  0  0  0  0  0  0  0  0  # atno 8009 bound_to 7997
  156.2868  140.2176  156.5270 H   0  0  0  0  0  0  0  0  0  0  0  0  # atno 8010 bound_to 7997
  139.4822  144.4962  151.8236 H   0  0  0  0  0  0  0  0  0  0  0  0  # atno 10167 bound_to 10162
  156.8901  130.9844  151.3050 H   0  0  0  0  0  0  0  0  0  0  0  0  # atno 10718 bound_to 10713
  154.8733  135.3768  154.4561 H   0  0  0  0  0  0  0  0  0  0  0  0  # atno 10763 bound_to 10752
  153.5233  135.7028  153.5725 H   0  0  0  0  0  0  0  0  0  0  0  0  # atno 10764 bound_to 10752
  153.3962  135.3959  155.1922 H   0  0  0  0  0  0  0  0  0  0  0  0  # atno 10765 bound_to 10752
  139.9527  134.9619  156.8909 H   0  0  0  0  0  0  0  0  0  0  0  0  # atno 11005 bound_to 11000
  146.3530  140.0863  142.8615 LP  0  0  0  0  0  0  0  0  0  0  0  0  # atno 17320 bound_to 7965
  145.0974  140.9324  143.4733 LP  0  0  0  0  0  0  0  0  0  0  0  0  # atno 17321 bound_to 7965
  140.4451  144.1933  150.5893 LP  0  0  0  0  0  0  0  0  0  0  0  0  # atno 17342 bound_to 10162
  140.4643  143.2437  151.9177 LP  0  0  0  0  0  0  0  0  0  0  0  0  # atno 17343 bound_to 10162
  157.6089  130.8568  149.8919 LP  0  0  0  0  0  0  0  0  0  0  0  0  # atno 17370 bound_to 10713
  156.0633  130.3696  150.0933 LP  0  0  0  0  0  0  0  0  0  0  0  0  # atno 17371 bound_to 10713
  140.5681  134.0469  155.7421 LP  0  0  0  0  0  0  0  0  0  0  0  0  # atno 17394 bound_to 11000
  141.1193  133.9488  157.2761 LP  0  0  0  0  0  0  0  0  0  0  0  0  # atno 17395 bound_to 11000

$$$$
