AV-unprocessed.smi:2331|AV-procd|sdf|9315|dock10
  -GOLD-   2272012533D 1   1.00000     0.00000
 Structure written by MMmdl.
 49 50  0  0  0  0  0  0  0  0  1 V2000
  148.9962  140.8455  157.0020 C   0  0  0  0  0  0  0  0  0  0  0  0
  150.4664  140.4344  157.2265 C   0  0  0  0  0  0  0  0  0  0  0  0
  151.2844  141.7368  157.4014 C   0  0  0  0  0  0  0  0  0  0  0  0
  150.5652  139.6163  158.5400 C   0  0  0  0  0  0  0  0  0  0  0  0
  149.5197  138.6010  158.6268 N   0  0  0  0  0  0  0  0  0  0  0  0
  149.6232  137.4151  159.2471 C   0  0  0  0  0  0  0  0  0  0  0  0
  150.6352  137.0688  159.8571 O   0  0  0  0  0  0  0  0  0  0  0  0
  148.4880  136.6766  159.2015 N   0  0  0  0  0  0  0  0  0  0  0  0
  147.5924  136.6419  158.0363 C   0  0  0  0  0  0  0  0  0  0  0  0
  146.6762  135.4330  158.2154 C   0  0  0  0  0  0  0  0  0  0  0  0
  147.3974  134.5569  159.2299 C   0  0  0  0  0  0  0  0  0  0  0  0
  148.2098  135.5376  160.0949 C   0  0  2  0  0  0  0  0  0  0  0  0
  147.5333  135.9321  161.4539 C   0  0  0  0  0  0  0  0  0  0  0  0
  146.1712  136.6081  161.1998 C   0  0  0  0  0  0  0  0  0  0  0  0
  147.3283  134.7610  162.4355 C   0  0  0  0  0  0  0  0  0  0  0  0
  148.3269  136.8893  162.1297 O   0  0  0  0  0  0  0  0  0  0  0  0
  150.9527  139.5887  156.0330 C   0  0  0  0  0  0  0  0  0  0  0  0
  150.1159  139.2458  154.9423 C   0  0  0  0  0  0  0  0  0  0  0  0
  150.6494  138.4846  153.8833 C   0  0  0  0  0  0  0  0  0  0  0  0
  151.9277  138.0566  153.8449 N   0  0  0  0  0  0  0  0  0  0  0  0
  152.7271  138.3810  154.8811 C   0  0  0  0  0  0  0  0  0  0  0  0
  152.2928  139.1385  155.9864 C   0  0  0  0  0  0  0  0  0  0  0  0
  148.6284  141.4655  157.8204 H   0  0  0  0  0  0  0  0  0  0  0  0
  148.3340  139.9822  156.9342 H   0  0  0  0  0  0  0  0  0  0  0  0
  148.8825  141.4179  156.0806 H   0  0  0  0  0  0  0  0  0  0  0  0
  150.9190  142.3212  158.2467 H   0  0  0  0  0  0  0  0  0  0  0  0
  151.2158  142.3750  156.5198 H   0  0  0  0  0  0  0  0  0  0  0  0
  152.3399  141.5369  157.5889 H   0  0  0  0  0  0  0  0  0  0  0  0
  151.5546  139.1630  158.6228 H   0  0  0  0  0  0  0  0  0  0  0  0
  150.4581  140.2697  159.4066 H   0  0  0  0  0  0  0  0  0  0  0  0
  148.6427  138.8176  158.1757 H   0  0  0  0  0  0  0  0  0  0  0  0
  147.0145  137.5635  157.9521 H   0  0  0  0  0  0  0  0  0  0  0  0
  148.1781  136.5271  157.1222 H   0  0  0  0  0  0  0  0  0  0  0  0
  145.7152  135.7549  158.6176 H   0  0  0  0  0  0  0  0  0  0  0  0
  146.4809  134.9121  157.2778 H   0  0  0  0  0  0  0  0  0  0  0  0
  146.7105  133.9242  159.7907 H   0  0  0  0  0  0  0  0  0  0  0  0
  148.0832  133.8940  158.7006 H   0  0  0  0  0  0  0  0  0  0  0  0
  149.1562  135.0486  160.3349 H   0  0  0  0  0  0  0  0  0  0  0  0
  145.4908  135.9336  160.6789 H   0  0  0  0  0  0  0  0  0  0  0  0
  146.2629  137.5101  160.5955 H   0  0  0  0  0  0  0  0  0  0  0  0
  145.6890  136.8972  162.1345 H   0  0  0  0  0  0  0  0  0  0  0  0
  146.7199  133.9741  161.9895 H   0  0  0  0  0  0  0  0  0  0  0  0
  146.8167  135.0883  163.3413 H   0  0  0  0  0  0  0  0  0  0  0  0
  148.2741  134.3202  162.7510 H   0  0  0  0  0  0  0  0  0  0  0  0
  148.7403  136.4692  162.8683 H   0  0  0  0  0  0  0  0  0  0  0  0
  149.0821  139.5495  154.8890 H   0  0  0  0  0  0  0  0  0  0  0  0
  150.0299  138.2142  153.0411 H   0  0  0  0  0  0  0  0  0  0  0  0
  153.7466  138.0286  154.8278 H   0  0  0  0  0  0  0  0  0  0  0  0
  152.9873  139.3705  156.7801 H   0  0  0  0  0  0  0  0  0  0  0  0
  1  2  1  0  0  0  0
  1 23  1  0  0  0  0
  1 24  1  0  0  0  0
  1 25  1  0  0  0  0
  2  3  1  0  0  0  0
  2  4  1  0  0  0  0
  2 17  1  0  0  0  0
  3 26  1  0  0  0  0
  3 27  1  0  0  0  0
  3 28  1  0  0  0  0
  4  5  1  0  0  0  0
  4 29  1  0  0  0  0
  4 30  1  0  0  0  0
  5  6  1  0  0  0  0
  5 31  1  0  0  0  0
  6  7  2  0  0  0  0
  6  8  1  0  0  0  0
  8 12  1  0  0  0  0
  8  9  1  0  0  0  0
  9 10  1  0  0  0  0
  9 32  1  0  0  0  0
  9 33  1  0  0  0  0
 10 11  1  0  0  0  0
 10 34  1  0  0  0  0
 10 35  1  0  0  0  0
 11 12  1  0  0  0  0
 11 36  1  0  0  0  0
 11 37  1  0  0  0  0
 12 13  1  0  0  0  0
 12 38  1  0  0  0  0
 13 14  1  0  0  0  0
 13 15  1  0  0  0  0
 13 16  1  0  0  0  0
 14 39  1  0  0  0  0
 14 40  1  0  0  0  0
 14 41  1  0  0  0  0
 15 42  1  0  0  0  0
 15 43  1  0  0  0  0
 15 44  1  0  0  0  0
 16 45  1  0  0  0  0
 17 22  1  0  0  0  0
 17 18  2  0  0  0  0
 18 19  1  0  0  0  0
 18 46  1  0  0  0  0
 19 20  2  0  0  0  0
 19 47  1  0  0  0  0
 20 21  1  0  0  0  0
 21 22  2  0  0  0  0
 21 48  1  0  0  0  0
 22 49  1  0  0  0  0
M  END
> <s_m_source_file>
AV-unprocessed.smi

> <i_m_source_file_index>
2331

> <i_lp_mmshare_version>
43012

> <i_f3d_flags>
0

> <s_epik_input>
W2NIXTFbY0hdbltjSF1bY0hdYzFDKFtDSDNdKShbQ0gzXSlbQ0gyXVtOSF1DKD1PKU4yW0NIMl1bQ0gyXVtDSDJdW0NASF0yQyhbQ0gzXSkoW0NIM10pW09IXQ==

> <s_epik_cmdline>
J2VwaWtfcHl0aG9uJywgJy1waCcsICc3LjAnLCAnLXRuJywgJzgnLCAnLW1hJywgJzIwMCcsICctbWV0YWxfYmluZGluZycsICctaW1hZScsICc8aW5maWxlLm1hZT4nLCAnLW9tYWUnLCAnPG91dGZpbGUubWFlPic=

> <r_epik_Ionization_Penalty>
0.0581496

> <r_epik_Ionization_Penalty_Charging>
0

> <r_epik_Ionization_Penalty_Neutral>
0.0581496

> <r_epik_State_Penalty>
0.0501956

> <r_epik_Charging_Adjusted_Penalty>
0.0501956

> <i_epik_Tot_Q>
0

> <i_epik_Tot_abs_Q>
0

> <r_epik_Metal_State_Penalty>
0.0456895

> <b_epik_Metal_Only>
0

> <s_lp_Force_Field>
OPLS_2005

> <r_lp_Energy>
50.0165

> <b_lp_Chiralities_Consistent>
1

> <s_lp_Variant>
AV-unprocessed.smi:2331-2

> <Gold.Version>
5.8.1

> <Gold.Id.Protein>
6NUR|6NUR_protein|mol2

> <Gold.PLP.Fitness>
42.0615

> <Gold.PLP.PLP>
-31.8715

> <Gold.PLP.part.hbond>
-2.2655

> <Gold.PLP.part.metal>
0.0000

> <Gold.PLP.part.buried>
-2.3807

> <Gold.PLP.part.nonpolar>
-28.2969

> <Gold.PLP.part.repulsive>
0.4337

> <Gold.PLP.ligand.clash>
0.0000

> <Gold.PLP.ligand.torsion>
0.6828

> <Gold.PLP.Chemscore.Hbond>
2.0000

> <Gold.PLP.Chemscore.CHOScore>
1.7679

> <Gold.PLP.Chemscore.Metal>
0.0000

> <Gold.Chemscore.Hbonds>
donor molecule, donor type, donor heavy atom, donor atom, acceptor molecule, acceptor atom, score
      P1  H  6896  6909       L1     7  0.99
      P1  H  6931  6943       L1    16  1.00
      L1  C    19    47       P1  7948  1.00
      L1  C    19    47       P1  7957  0.58

> <Gold.PLP.Chemscore.Internal.Correction>
0.2519

> <Gold.Rescore>
     Score         DG    S(hbond)    S(metal)    S(lipo)     H(rot)  DE(clash)    DE(int)     intcor
     16.54     -17.40       1.99        0.00      87.38       1.94       0.23       0.63       ----

> <Gold.Chemscore.Fitness>
16.5387

> <Gold.Chemscore.DG>
-17.3988

> <Gold.Chemscore.ZeroCoef>
-5.4800

> <Gold.Chemscore.Hbond>
1.9905

> <Gold.Chemscore.Metal>
0.0000

> <Gold.Chemscore.Lipo>
87.3849

> <Gold.Chemscore.Internal_Hbond>
0.0000

> <Gold.Chemscore.DEClash>
0.2290

> <Gold.Chemscore.DEInternal>
0.6311

> <Gold.Chemscore.Rot>
1.9350

> <Gold.Chemscore.Internal.Correction>
   9.000000E+99

> <Gold.Chemscore.Hbonds>
donor molecule, donor type, donor heavy atom, donor atom, acceptor molecule, acceptor atom, score
      P1  H  6896  6909       L1     7  0.91
      P1  H  6931  6943       L1    16  0.57

> <Gold.Chemscore.Hbond.Weighted>
-6.6484

> <Gold.Chemscore.Metal.Weighted>
-0.0000

> <Gold.Chemscore.Lipo.Weighted>
-10.2240

> <Gold.Chemscore.Internal_Hbond.Weighted>
0.0000

> <Gold.Chemscore.DEClash.Weighted>
0.2290

> <Gold.Chemscore.DEInternal.Weighted>
0.6311

> <Gold.Chemscore.Rot.Weighted>
4.9536

> <Gold.Chemscore.Internal.Correction.Weighted>
   9.000000E+99

> <Gold.Protein.RotatedTorsions>
[ 6907 6896 6895 6894 ] final   97.14 input  -60.11 | X-H torsion
[ 7974 7965 7964 7962 ] final  178.58 input  175.53 | X-H torsion
[ 8008 7997 7996 7995 ] final  119.44 input   59.86 | X-H torsion
[ 10167 10162 10161 10158 ] final   90.00 input  -65.29 | X-H torsion
[ 10718 10713 10712 10709 ] final  -38.96 input   66.30 | X-H torsion
[ 10763 10752 10751 10750 ] final -112.38 input  -60.55 | X-H torsion
[ 11005 11000 10999 10996 ] final   68.02 input  -57.11 | X-H torsion

> <Gold.Protein.ActiveResidues>
 VAL166  LYS551  ARG553  GLY616  TRP617  ASP618  TYR619  PRO620  LYS621  CYS622 
 ASP623  PHE694  ASN695  SER759  ASP760  ASP761  ALA762  ILE779  LEU786  VAL792 
 PHE793  MET794  SER795  GLU796  ALA797  LYS798  CYS799  TRP800  GLU811  SER814 

> <Gold.Protein.RotatedAtoms>
  152.5427  134.0779  159.8222 H   0  0  0  0  0  0  0  0  0  0  0  0  # atno 6907 bound_to 6896
  151.0885  133.5327  159.2623 H   0  0  0  0  0  0  0  0  0  0  0  0  # atno 6908 bound_to 6896
  151.2127  135.0496  159.8972 H   0  0  0  0  0  0  0  0  0  0  0  0  # atno 6909 bound_to 6896
  144.7154  140.0419  143.6437 H   0  0  0  0  0  0  0  0  0  0  0  0  # atno 7974 bound_to 7965
  156.2596  140.2853  156.0991 H   0  0  0  0  0  0  0  0  0  0  0  0  # atno 8008 bound_to 7997
  155.1379  140.0395  157.2808 H   0  0  0  0  0  0  0  0  0  0  0  0  # atno 8009 bound_to 7997
  154.6551  140.2553  155.7176 H   0  0  0  0  0  0  0  0  0  0  0  0  # atno 8010 bound_to 7997
  139.8516  144.6590  150.9163 H   0  0  0  0  0  0  0  0  0  0  0  0  # atno 10167 bound_to 10162
  156.2978  130.4236  149.8173 H   0  0  0  0  0  0  0  0  0  0  0  0  # atno 10718 bound_to 10713
  154.8347  135.4493  154.1185 H   0  0  0  0  0  0  0  0  0  0  0  0  # atno 10763 bound_to 10752
  153.2427  135.6918  153.7771 H   0  0  0  0  0  0  0  0  0  0  0  0  # atno 10764 bound_to 10752
  153.7112  135.3356  155.3222 H   0  0  0  0  0  0  0  0  0  0  0  0  # atno 10765 bound_to 10752
  139.9736  134.6859  156.0398 H   0  0  0  0  0  0  0  0  0  0  0  0  # atno 11005 bound_to 11000
  146.0016  139.3096  143.0924 LP  0  0  0  0  0  0  0  0  0  0  0  0  # atno 17320 bound_to 7965
  145.8786  140.9376  143.0613 LP  0  0  0  0  0  0  0  0  0  0  0  0  # atno 17321 bound_to 7965
  140.7787  143.3822  151.1457 LP  0  0  0  0  0  0  0  0  0  0  0  0  # atno 17342 bound_to 10162
  139.7460  143.8852  152.3063 LP  0  0  0  0  0  0  0  0  0  0  0  0  # atno 17343 bound_to 10162
  156.5562  130.8363  151.3315 LP  0  0  0  0  0  0  0  0  0  0  0  0  # atno 17370 bound_to 10713
  157.7360  130.9771  150.2112 LP  0  0  0  0  0  0  0  0  0  0  0  0  # atno 17371 bound_to 10713
  141.1414  133.6564  156.3742 LP  0  0  0  0  0  0  0  0  0  0  0  0  # atno 17394 bound_to 11000
  140.5242  134.6275  157.5328 LP  0  0  0  0  0  0  0  0  0  0  0  0  # atno 17395 bound_to 11000

$$$$
