AV-unprocessed.smi:2896|AV-procd|sdf|11137|dock2
  -GOLD-   2272016 13D 1   1.00000     0.00000
 Structure written by MMmdl.
 50 51  0  0  0  0  0  0  0  0  2 V2000
  149.1043  134.5661  154.7858 C   0  0  0  0  0  0  0  0  0  0  0  0
  147.6596  134.0282  154.7670 C   0  0  1  0  0  0  0  0  0  0  0  0
  147.2415  133.4780  156.1481 C   0  0  0  0  0  0  0  0  0  0  0  0
  147.1871  134.5237  157.1637 N   0  0  0  0  0  0  0  0  0  0  0  0
  148.1736  134.8172  158.0291 C   0  0  0  0  0  0  0  0  0  0  0  0
  149.2227  134.1726  158.0727 O   0  0  0  0  0  0  0  0  0  0  0  0
  147.9456  136.0185  158.9803 C   0  0  0  0  0  0  0  0  0  0  0  0
  149.2203  136.8936  158.9372 C   0  0  0  0  0  0  0  0  0  0  0  0
  146.7700  136.8925  158.4782 C   0  0  0  0  0  0  0  0  0  0  0  0
  147.6142  135.4882  160.3912 C   0  0  0  0  0  0  0  0  0  0  0  0
  147.4310  136.3885  161.4689 C   0  0  0  0  0  0  0  0  0  0  0  0
  147.1131  135.8901  162.7456 C   0  0  0  0  0  0  0  0  0  0  0  0
  146.9912  134.4980  162.9079 C   0  0  0  0  0  0  0  0  0  0  0  0
  147.1628  133.6204  161.8983 N   0  0  0  0  0  0  0  0  0  0  0  0
  147.4677  134.1075  160.6763 C   0  0  0  0  0  0  0  0  0  0  0  0
  146.6636  135.1112  154.2982 C   0  0  0  0  0  0  0  0  0  0  0  0
  146.3322  135.0092  152.8536 N   0  3  0  0  0  0  0  0  0  0  0  0
  146.0785  133.6200  152.3965 C   0  0  0  0  0  0  0  0  0  0  0  0
  145.7864  133.5964  150.8867 C   0  0  0  0  0  0  0  0  0  0  0  0
  144.6819  134.4449  150.6001 O   0  0  0  0  0  0  0  0  0  0  0  0
  144.9449  135.7971  150.9526 C   0  0  0  0  0  0  0  0  0  0  0  0
  145.2083  135.8941  152.4650 C   0  0  0  0  0  0  0  0  0  0  0  0
  149.2077  135.3969  155.4845 H   0  0  0  0  0  0  0  0  0  0  0  0
  149.4111  134.9199  153.8015 H   0  0  0  0  0  0  0  0  0  0  0  0
  149.8167  133.7964  155.0812 H   0  0  0  0  0  0  0  0  0  0  0  0
  147.6225  133.1949  154.0660 H   0  0  0  0  0  0  0  0  0  0  0  0
  146.2562  133.0148  156.0843 H   0  0  0  0  0  0  0  0  0  0  0  0
  147.9269  132.6925  156.4716 H   0  0  0  0  0  0  0  0  0  0  0  0
  146.3530  135.0927  157.1909 H   0  0  0  0  0  0  0  0  0  0  0  0
  150.1076  136.3437  159.2545 H   0  0  0  0  0  0  0  0  0  0  0  0
  149.1240  137.7703  159.5787 H   0  0  0  0  0  0  0  0  0  0  0  0
  149.4179  137.2583  157.9281 H   0  0  0  0  0  0  0  0  0  0  0  0
  145.8471  136.3234  158.3632 H   0  0  0  0  0  0  0  0  0  0  0  0
  146.9884  137.3462  157.5102 H   0  0  0  0  0  0  0  0  0  0  0  0
  146.5652  137.7068  159.1741 H   0  0  0  0  0  0  0  0  0  0  0  0
  147.5189  137.4548  161.3219 H   0  0  0  0  0  0  0  0  0  0  0  0
  146.9654  136.5590  163.5805 H   0  0  0  0  0  0  0  0  0  0  0  0
  146.7480  134.0787  163.8730 H   0  0  0  0  0  0  0  0  0  0  0  0
  147.5882  133.3526  159.9151 H   0  0  0  0  0  0  0  0  0  0  0  0
  145.7408  135.0652  154.8788 H   0  0  0  0  0  0  0  0  0  0  0  0
  147.1009  136.0896  154.5039 H   0  0  0  0  0  0  0  0  0  0  0  0
  146.9381  132.9835  152.6029 H   0  0  0  0  0  0  0  0  0  0  0  0
  145.2329  133.2015  152.9446 H   0  0  0  0  0  0  0  0  0  0  0  0
  146.6610  133.9108  150.3151 H   0  0  0  0  0  0  0  0  0  0  0  0
  145.5449  132.5825  150.5672 H   0  0  0  0  0  0  0  0  0  0  0  0
  145.7953  136.1760  150.3833 H   0  0  0  0  0  0  0  0  0  0  0  0
  144.0829  136.4069  150.6812 H   0  0  0  0  0  0  0  0  0  0  0  0
  144.3118  135.6141  153.0205 H   0  0  0  0  0  0  0  0  0  0  0  0
  145.4409  136.9263  152.7289 H   0  0  0  0  0  0  0  0  0  0  0  0
  147.1407  135.3445  152.3494 H   0  0  0  0  0  0  0  0  0  0  0  0
  1  2  1  0  0  0  0
  1 23  1  0  0  0  0
  1 24  1  0  0  0  0
  1 25  1  0  0  0  0
  2  3  1  0  0  0  0
  2 16  1  0  0  0  0
  2 26  1  0  0  0  0
  3  4  1  0  0  0  0
  3 27  1  0  0  0  0
  3 28  1  0  0  0  0
  4  5  1  0  0  0  0
  4 29  1  0  0  0  0
  5  6  2  0  0  0  0
  5  7  1  0  0  0  0
  7  8  1  0  0  0  0
  7  9  1  0  0  0  0
  7 10  1  0  0  0  0
  8 30  1  0  0  0  0
  8 31  1  0  0  0  0
  8 32  1  0  0  0  0
  9 33  1  0  0  0  0
  9 34  1  0  0  0  0
  9 35  1  0  0  0  0
 10 15  1  0  0  0  0
 10 11  2  0  0  0  0
 11 12  1  0  0  0  0
 11 36  1  0  0  0  0
 12 13  2  0  0  0  0
 12 37  1  0  0  0  0
 13 14  1  0  0  0  0
 13 38  1  0  0  0  0
 14 15  2  0  0  0  0
 15 39  1  0  0  0  0
 16 17  1  0  0  0  0
 16 40  1  0  0  0  0
 16 41  1  0  0  0  0
 17 22  1  0  0  0  0
 17 18  1  0  0  0  0
 17 50  1  0  0  0  0
 18 19  1  0  0  0  0
 18 42  1  0  0  0  0
 18 43  1  0  0  0  0
 19 20  1  0  0  0  0
 19 44  1  0  0  0  0
 19 45  1  0  0  0  0
 20 21  1  0  0  0  0
 21 22  1  0  0  0  0
 21 46  1  0  0  0  0
 21 47  1  0  0  0  0
 22 48  1  0  0  0  0
 22 49  1  0  0  0  0
M  CHG  1  17   1
M  END
> <s_m_source_file>
AV-unprocessed.smi

> <i_m_source_file_index>
2896

> <i_lp_mmshare_version>
43012

> <i_f3d_flags>
0

> <s_epik_input>
W0NIMl0xW0NIMl1PW0NIMl1bQ0gyXU4xW0NIMl1bQ0BIXShbQ0gzXSlbQ0gyXVtOSF1DKD1PKUMoW0NIM10pKFtDSDNdKWMyW2NIXVtjSF1bY0hdbltjSF0y

> <s_epik_cmdline>
J2VwaWtfcHl0aG9uJywgJy1waCcsICc3LjAnLCAnLXRuJywgJzgnLCAnLW1hJywgJzIwMCcsICctbWV0YWxfYmluZGluZycsICctaW1hZScsICc8aW5maWxlLm1hZT4nLCAnLW9tYWUnLCAnPG91dGZpbGUubWFlPic=

> <r_epik_Ionization_Penalty>
0.378644

> <r_epik_Ionization_Penalty_Charging>
0.372108

> <r_epik_Ionization_Penalty_Neutral>
0.0065361

> <r_epik_State_Penalty>
0.380038

> <r_epik_Charging_Adjusted_Penalty>
0.752147

> <i_epik_Tot_Q>
1

> <i_epik_Tot_abs_Q>
1

> <r_epik_Metal_State_Penalty>
0.375202

> <b_epik_Metal_Only>
0

> <s_lp_Force_Field>
OPLS_2005

> <r_lp_Energy>
23.8301

> <b_lp_Chiralities_Consistent>
1

> <s_lp_Variant>
AV-unprocessed.smi:2896-2

> <Gold.Version>
5.8.1

> <Gold.Id.Protein>
6NUR|6NUR_protein|mol2

> <Gold.PLP.Fitness>
41.9384

> <Gold.PLP.PLP>
-35.3369

> <Gold.PLP.part.hbond>
-2.0000

> <Gold.PLP.part.metal>
0.0000

> <Gold.PLP.part.buried>
-5.0504

> <Gold.PLP.part.nonpolar>
-28.7808

> <Gold.PLP.part.repulsive>
0.7102

> <Gold.PLP.ligand.clash>
0.3267

> <Gold.PLP.ligand.torsion>
1.3981

> <Gold.PLP.Chemscore.Hbond>
3.0000

> <Gold.PLP.Chemscore.CHOScore>
0.0000

> <Gold.PLP.Chemscore.Metal>
0.0000

> <Gold.Chemscore.Hbonds>
donor molecule, donor type, donor heavy atom, donor atom, acceptor molecule, acceptor atom, score
      L1  H    17    50       P1  7948  1.89
      P1  H  6896  6909       L1     6  1.00

> <Gold.PLP.Chemscore.Internal.Correction>
0.7244

> <Gold.Rescore>
     Score         DG    S(hbond)    S(metal)    S(lipo)     H(rot)  DE(clash)    DE(int)     intcor
     16.03     -17.37       1.98        0.00      84.06       1.78       0.01       1.33       ----

> <Gold.Chemscore.Fitness>
16.0326

> <Gold.Chemscore.DG>
-17.3721

> <Gold.Chemscore.ZeroCoef>
-5.4800

> <Gold.Chemscore.Hbond>
1.9779

> <Gold.Chemscore.Metal>
0.0000

> <Gold.Chemscore.Lipo>
84.0631

> <Gold.Chemscore.Internal_Hbond>
0.0000

> <Gold.Chemscore.DEClash>
0.0088

> <Gold.Chemscore.DEInternal>
1.3307

> <Gold.Chemscore.Rot>
1.7771

> <Gold.Chemscore.Internal.Correction>
   9.000000E+99

> <Gold.Chemscore.Hbonds>
donor molecule, donor type, donor heavy atom, donor atom, acceptor molecule, acceptor atom, score
      L1  H    17    50       P1  7948  0.90
      P1  H  6896  6909       L1     6  1.00

> <Gold.Chemscore.Hbond.Weighted>
-6.6061

> <Gold.Chemscore.Metal.Weighted>
-0.0000

> <Gold.Chemscore.Lipo.Weighted>
-9.8354

> <Gold.Chemscore.Internal_Hbond.Weighted>
0.0000

> <Gold.Chemscore.DEClash.Weighted>
0.0088

> <Gold.Chemscore.DEInternal.Weighted>
1.3307

> <Gold.Chemscore.Rot.Weighted>
4.5494

> <Gold.Chemscore.Internal.Correction.Weighted>
   9.000000E+99

> <Gold.Protein.RotatedTorsions>
[ 6907 6896 6895 6894 ] final   24.13 input  -60.11 | X-H torsion
[ 7974 7965 7964 7962 ] final  173.80 input  175.53 | X-H torsion
[ 8008 7997 7996 7995 ] final  145.41 input   59.86 | X-H torsion
[ 10167 10162 10161 10158 ] final -167.54 input  -65.29 | X-H torsion
[ 10718 10713 10712 10709 ] final -147.06 input   66.30 | X-H torsion
[ 10763 10752 10751 10750 ] final -140.93 input  -60.55 | X-H torsion
[ 11005 11000 10999 10996 ] final  120.10 input  -57.11 | X-H torsion

> <Gold.Protein.ActiveResidues>
 VAL166  LYS551  ARG553  GLY616  TRP617  ASP618  TYR619  PRO620  LYS621  CYS622 
 ASP623  PHE694  ASN695  SER759  ASP760  ASP761  ALA762  ILE779  LEU786  VAL792 
 PHE793  MET794  SER795  GLU796  ALA797  LYS798  CYS799  TRP800  GLU811  SER814 

> <Gold.Protein.RotatedAtoms>
  151.9529  135.0160  160.0542 H   0  0  0  0  0  0  0  0  0  0  0  0  # atno 6907 bound_to 6896
  152.1937  133.4786  159.5030 H   0  0  0  0  0  0  0  0  0  0  0  0  # atno 6908 bound_to 6896
  150.6940  134.1597  159.4214 H   0  0  0  0  0  0  0  0  0  0  0  0  # atno 6909 bound_to 6896
  144.7235  139.9702  143.6437 H   0  0  0  0  0  0  0  0  0  0  0  0  # atno 7974 bound_to 7965
  156.2884  140.2210  156.5211 H   0  0  0  0  0  0  0  0  0  0  0  0  # atno 8008 bound_to 7997
  154.7528  140.0479  157.0929 H   0  0  0  0  0  0  0  0  0  0  0  0  # atno 8009 bound_to 7997
  155.0088  140.3110  155.4841 H   0  0  0  0  0  0  0  0  0  0  0  0  # atno 8010 bound_to 7997
  139.6043  144.0946  152.1776 H   0  0  0  0  0  0  0  0  0  0  0  0  # atno 10167 bound_to 10162
  156.4027  130.7942  151.2154 H   0  0  0  0  0  0  0  0  0  0  0  0  # atno 10718 bound_to 10713
  154.8562  135.3539  154.5787 H   0  0  0  0  0  0  0  0  0  0  0  0  # atno 10763 bound_to 10752
  153.6398  135.6999  153.5250 H   0  0  0  0  0  0  0  0  0  0  0  0  # atno 10764 bound_to 10752
  153.2980  135.4215  155.1186 H   0  0  0  0  0  0  0  0  0  0  0  0  # atno 10765 bound_to 10752
  139.9172  134.9633  156.7756 H   0  0  0  0  0  0  0  0  0  0  0  0  # atno 11005 bound_to 11000
  146.0569  139.3565  143.0605 LP  0  0  0  0  0  0  0  0  0  0  0  0  # atno 17320 bound_to 7965
  145.8143  140.9710  143.0932 LP  0  0  0  0  0  0  0  0  0  0  0  0  # atno 17321 bound_to 7965
  140.0549  144.5903  150.7307 LP  0  0  0  0  0  0  0  0  0  0  0  0  # atno 17342 bound_to 10162
  140.7273  143.2650  151.4076 LP  0  0  0  0  0  0  0  0  0  0  0  0  # atno 17343 bound_to 10162
  157.7504  131.0282  150.4037 LP  0  0  0  0  0  0  0  0  0  0  0  0  # atno 17370 bound_to 10713
  156.4320  130.3974  149.6754 LP  0  0  0  0  0  0  0  0  0  0  0  0  # atno 17371 bound_to 10713
  140.6586  133.9666  155.7792 LP  0  0  0  0  0  0  0  0  0  0  0  0  # atno 17394 bound_to 11000
  141.0659  134.0277  157.3594 LP  0  0  0  0  0  0  0  0  0  0  0  0  # atno 17395 bound_to 11000

$$$$
