AV-unprocessed.smi:437|AV-procd|sdf|2562|dock10
  -GOLD-   2262022533D 1   1.00000     0.00000
 Structure written by MMmdl.
 48 49  0  0  0  0  0  0  0  0  1 V2000
  154.4157  136.9960  164.5706 C   0  0  0  0  0  0  0  0  0  0  0  0
  154.6448  136.0506  163.4222 C   0  0  0  0  0  0  0  0  0  0  0  0
  154.9636  136.5823  162.2881 N   0  0  0  0  0  0  0  0  0  0  0  0
  155.1894  135.8064  161.1676 N   0  0  0  0  0  0  0  0  0  0  0  0
  155.5321  136.5793  159.9644 C   0  0  0  0  0  0  0  0  0  0  0  0
  155.9145  138.0369  160.2652 C   0  0  0  0  0  0  0  0  0  0  0  0
  157.0966  138.3501  160.4309 O   0  0  0  0  0  0  0  0  0  0  0  0
  154.8750  138.8942  160.3155 N   0  0  0  0  0  0  0  0  0  0  0  0
  154.9129  140.2188  160.5560 C   0  0  0  0  0  0  0  0  0  0  0  0
  155.9291  140.8828  160.7720 O   0  0  0  0  0  0  0  0  0  0  0  0
  153.6799  140.7458  160.5289 N   0  0  0  0  0  0  0  0  0  0  0  0
  153.3676  142.1660  160.3800 C   0  0  1  0  0  0  0  0  0  0  0  0
  152.6189  142.4042  159.0507 C   0  0  0  0  0  0  0  0  0  0  0  0
  152.2173  143.8764  158.8819 C   0  0  0  0  0  0  0  0  0  0  0  0
  151.3772  144.3570  160.0725 C   0  0  0  0  0  0  0  0  0  0  0  0
  152.1232  144.1369  161.3970 C   0  0  0  0  0  0  0  0  0  0  0  0
  152.5344  142.6627  161.5884 C   0  0  2  0  0  0  0  0  0  0  0  0
  153.2687  142.4777  162.9285 C   0  0  0  0  0  0  0  0  0  0  0  0
  155.1091  134.4450  161.1365 C   0  0  0  0  0  0  0  0  0  0  0  0
  155.3197  133.7923  160.1130 O   0  0  0  0  0  0  0  0  0  0  0  0
  154.7496  133.8490  162.4252 C   0  0  0  0  0  0  0  0  0  0  0  0
  154.6490  132.4253  162.4358 C   0  0  0  0  0  0  0  0  0  0  0  0
  154.5505  131.2720  162.4566 N   0  0  0  0  0  0  0  0  0  0  0  0
  154.5265  134.6002  163.5326 C   0  0  0  0  0  0  0  0  0  0  0  0
  154.1516  134.0298  164.8937 C   0  0  0  0  0  0  0  0  0  0  0  0
  155.1714  136.8543  165.3435 H   0  0  0  0  0  0  0  0  0  0  0  0
  153.4362  136.8309  165.0200 H   0  0  0  0  0  0  0  0  0  0  0  0
  154.4590  138.0393  164.2538 H   0  0  0  0  0  0  0  0  0  0  0  0
  156.3696  136.1094  159.4454 H   0  0  0  0  0  0  0  0  0  0  0  0
  154.7032  136.5613  159.2541 H   0  0  0  0  0  0  0  0  0  0  0  0
  153.9622  138.4960  160.1514 H   0  0  0  0  0  0  0  0  0  0  0  0
  152.8938  140.1202  160.6274 H   0  0  0  0  0  0  0  0  0  0  0  0
  154.3020  142.7307  160.3589 H   0  0  0  0  0  0  0  0  0  0  0  0
  153.2402  142.1013  158.2070 H   0  0  0  0  0  0  0  0  0  0  0  0
  151.7248  141.7800  159.0131 H   0  0  0  0  0  0  0  0  0  0  0  0
  153.1130  144.4923  158.7922 H   0  0  0  0  0  0  0  0  0  0  0  0
  151.6577  144.0058  157.9549 H   0  0  0  0  0  0  0  0  0  0  0  0
  151.1343  145.4132  159.9538 H   0  0  0  0  0  0  0  0  0  0  0  0
  150.4276  143.8208  160.0922 H   0  0  0  0  0  0  0  0  0  0  0  0
  153.0093  144.7725  161.4231 H   0  0  0  0  0  0  0  0  0  0  0  0
  151.4907  144.4580  162.2253 H   0  0  0  0  0  0  0  0  0  0  0  0
  151.6189  142.0703  161.6334 H   0  0  0  0  0  0  0  0  0  0  0  0
  154.2144  143.0205  162.9388 H   0  0  0  0  0  0  0  0  0  0  0  0
  153.4853  141.4283  163.1292 H   0  0  0  0  0  0  0  0  0  0  0  0
  152.6660  142.8464  163.7589 H   0  0  0  0  0  0  0  0  0  0  0  0
  154.1952  132.9411  164.9099 H   0  0  0  0  0  0  0  0  0  0  0  0
  153.1369  134.3249  165.1628 H   0  0  0  0  0  0  0  0  0  0  0  0
  154.8314  134.3924  165.6653 H   0  0  0  0  0  0  0  0  0  0  0  0
  1  2  1  0  0  0  0
  1 26  1  0  0  0  0
  1 27  1  0  0  0  0
  1 28  1  0  0  0  0
  2 24  1  0  0  0  0
  2  3  2  0  0  0  0
  3  4  1  0  0  0  0
  4  5  1  0  0  0  0
  4 19  1  0  0  0  0
  5  6  1  0  0  0  0
  5 29  1  0  0  0  0
  5 30  1  0  0  0  0
  6  7  2  0  0  0  0
  6  8  1  0  0  0  0
  8  9  1  0  0  0  0
  8 31  1  0  0  0  0
  9 10  2  0  0  0  0
  9 11  1  0  0  0  0
 11 12  1  0  0  0  0
 11 32  1  0  0  0  0
 12 17  1  0  0  0  0
 12 13  1  0  0  0  0
 12 33  1  0  0  0  0
 13 14  1  0  0  0  0
 13 34  1  0  0  0  0
 13 35  1  0  0  0  0
 14 15  1  0  0  0  0
 14 36  1  0  0  0  0
 14 37  1  0  0  0  0
 15 16  1  0  0  0  0
 15 38  1  0  0  0  0
 15 39  1  0  0  0  0
 16 17  1  0  0  0  0
 16 40  1  0  0  0  0
 16 41  1  0  0  0  0
 17 18  1  0  0  0  0
 17 42  1  0  0  0  0
 18 43  1  0  0  0  0
 18 44  1  0  0  0  0
 18 45  1  0  0  0  0
 19 20  2  0  0  0  0
 19 21  1  0  0  0  0
 21 22  1  0  0  0  0
 21 24  2  0  0  0  0
 22 23  3  0  0  0  0
 24 25  1  0  0  0  0
 25 46  1  0  0  0  0
 25 47  1  0  0  0  0
 25 48  1  0  0  0  0
M  END
> <s_m_source_file>
AV-unprocessed.smi

> <i_m_source_file_index>
437

> <i_lp_mmshare_version>
43012

> <i_f3d_flags>
0

> <s_epik_input>
TiNDYyhjMVtDSDNdKWMoPU8pbihuYzFbQ0gzXSlbQ0gyXUMoPU8pW05IXUMoPU8pW05IXVtDQEBIXTJbQ0gyXVtDSDJdW0NIMl1bQ0gyXVtDQEhdMltDSDNd

> <s_epik_cmdline>
J2VwaWtfcHl0aG9uJywgJy1waCcsICc3LjAnLCAnLXRuJywgJzgnLCAnLW1hJywgJzIwMCcsICctbWV0YWxfYmluZGluZycsICctaW1hZScsICc8aW5maWxlLm1hZT4nLCAnLW9tYWUnLCAnPG91dGZpbGUubWFlPic=

> <r_lp_tautomer_probability>
1

> <r_epik_Ionization_Penalty>
3.27035e-05

> <r_epik_Ionization_Penalty_Charging>
1.6965e-11

> <r_epik_Ionization_Penalty_Neutral>
3.27035e-05

> <r_epik_State_Penalty>
-0

> <r_epik_Charging_Adjusted_Penalty>
1.6965e-11

> <i_epik_Tot_Q>
0

> <i_epik_Tot_abs_Q>
0

> <r_epik_Metal_State_Penalty>
-0

> <b_epik_Metal_Only>
0

> <s_lp_Force_Field>
OPLS_2005

> <r_lp_Energy>
26.7465

> <b_lp_Chiralities_Consistent>
1

> <s_lp_Variant>
AV-unprocessed.smi:437-4

> <Gold.Version>
5.8.1

> <Gold.Id.Protein>
6NUR|6NUR_protein|mol2

> <Gold.PLP.Fitness>
47.6762

> <Gold.PLP.PLP>
-48.9116

> <Gold.PLP.part.hbond>
-1.0000

> <Gold.PLP.part.metal>
0.0000

> <Gold.PLP.part.buried>
-5.3559

> <Gold.PLP.part.nonpolar>
-42.8261

> <Gold.PLP.part.repulsive>
0.1363

> <Gold.PLP.ligand.clash>
0.0000

> <Gold.PLP.ligand.torsion>
0.6254

> <Gold.PLP.Chemscore.Hbond>
0.0000

> <Gold.PLP.Chemscore.CHOScore>
0.0000

> <Gold.PLP.Chemscore.Metal>
0.0000

> <Gold.PLP.Chemscore.Internal.Correction>
0.0154

> <Gold.Rescore>
     Score         DG    S(hbond)    S(metal)    S(lipo)     H(rot)  DE(clash)    DE(int)     intcor
     13.81     -16.24       0.05        0.00     124.89       1.57       0.45       1.97       ----

> <Gold.Chemscore.Fitness>
13.8145

> <Gold.Chemscore.DG>
-16.2412

> <Gold.Chemscore.ZeroCoef>
-5.4800

> <Gold.Chemscore.Hbond>
0.0469

> <Gold.Chemscore.Metal>
0.0000

> <Gold.Chemscore.Lipo>
124.8933

> <Gold.Chemscore.Internal_Hbond>
0.0000

> <Gold.Chemscore.DEClash>
0.4539

> <Gold.Chemscore.DEInternal>
1.9728

> <Gold.Chemscore.Rot>
1.5656

> <Gold.Chemscore.Internal.Correction>
   9.000000E+99

> <Gold.Chemscore.Hbond.Weighted>
-0.1565

> <Gold.Chemscore.Metal.Weighted>
-0.0000

> <Gold.Chemscore.Lipo.Weighted>
-14.6125

> <Gold.Chemscore.Internal_Hbond.Weighted>
0.0000

> <Gold.Chemscore.DEClash.Weighted>
0.4539

> <Gold.Chemscore.DEInternal.Weighted>
1.9728

> <Gold.Chemscore.Rot.Weighted>
4.0079

> <Gold.Chemscore.Internal.Correction.Weighted>
   9.000000E+99

> <Gold.Protein.RotatedTorsions>
[ 6907 6896 6895 6894 ] final   -8.16 input  -60.11 | X-H torsion
[ 7974 7965 7964 7962 ] final  141.48 input  175.53 | X-H torsion
[ 8008 7997 7996 7995 ] final  -63.12 input   59.86 | X-H torsion
[ 10167 10162 10161 10158 ] final   20.33 input  -65.29 | X-H torsion
[ 10718 10713 10712 10709 ] final   -9.62 input   66.30 | X-H torsion
[ 10763 10752 10751 10750 ] final -159.45 input  -60.55 | X-H torsion
[ 11005 11000 10999 10996 ] final -179.68 input  -57.11 | X-H torsion

> <Gold.Protein.ActiveResidues>
 VAL166  LYS551  ARG553  GLY616  TRP617  ASP618  TYR619  PRO620  LYS621  CYS622 
 ASP623  PHE694  ASN695  SER759  ASP760  ASP761  ALA762  ILE779  LEU786  VAL792 
 PHE793  MET794  SER795  GLU796  ALA797  LYS798  CYS799  TRP800  GLU811  SER814 

> <Gold.Protein.RotatedAtoms>
  151.4381  135.1017  159.9661 H   0  0  0  0  0  0  0  0  0  0  0  0  # atno 6907 bound_to 6896
  152.4932  133.8554  159.7233 H   0  0  0  0  0  0  0  0  0  0  0  0  # atno 6908 bound_to 6896
  150.9107  133.6942  159.2883 H   0  0  0  0  0  0  0  0  0  0  0  0  # atno 6909 bound_to 6896
  144.9093  139.5315  143.5716 H   0  0  0  0  0  0  0  0  0  0  0  0  # atno 7974 bound_to 7965
  154.4537  140.0981  156.6693 H   0  0  0  0  0  0  0  0  0  0  0  0  # atno 8008 bound_to 7997
  155.5205  140.3479  155.4387 H   0  0  0  0  0  0  0  0  0  0  0  0  # atno 8009 bound_to 7997
  156.0733  140.1355  156.9790 H   0  0  0  0  0  0  0  0  0  0  0  0  # atno 8010 bound_to 7997
  140.5512  143.9506  150.6579 H   0  0  0  0  0  0  0  0  0  0  0  0  # atno 10167 bound_to 10162
  156.6854  130.5049  149.5959 H   0  0  0  0  0  0  0  0  0  0  0  0  # atno 10718 bound_to 10713
  154.7474  135.3083  154.8620 H   0  0  0  0  0  0  0  0  0  0  0  0  # atno 10763 bound_to 10752
  153.9417  135.6774  153.4748 H   0  0  0  0  0  0  0  0  0  0  0  0  # atno 10764 bound_to 10752
  153.1070  135.4884  154.8895 H   0  0  0  0  0  0  0  0  0  0  0  0  # atno 10765 bound_to 10752
  140.4160  134.6649  157.4639 H   0  0  0  0  0  0  0  0  0  0  0  0  # atno 11005 bound_to 11000
  146.3150  139.7886  142.8990 LP  0  0  0  0  0  0  0  0  0  0  0  0  # atno 17320 bound_to 7965
  145.3482  141.0302  143.3353 LP  0  0  0  0  0  0  0  0  0  0  0  0  # atno 17321 bound_to 7965
  140.2933  143.3310  152.1042 LP  0  0  0  0  0  0  0  0  0  0  0  0  # atno 17342 bound_to 10162
  139.5028  144.6742  151.6169 LP  0  0  0  0  0  0  0  0  0  0  0  0  # atno 17343 bound_to 10162
  156.1837  130.6515  151.0981 LP  0  0  0  0  0  0  0  0  0  0  0  0  # atno 17370 bound_to 10713
  157.7028  131.0769  150.6764 LP  0  0  0  0  0  0  0  0  0  0  0  0  # atno 17371 bound_to 10713
  140.0234  134.6514  155.9207 LP  0  0  0  0  0  0  0  0  0  0  0  0  # atno 17394 bound_to 11000
  141.1803  133.6545  156.4992 LP  0  0  0  0  0  0  0  0  0  0  0  0  # atno 17395 bound_to 11000

$$$$
