AV-unprocessed.smi:1308|AV-procd|sdf|5443|dock1
  -GOLD-   22720 5 13D 1   1.00000     0.00000
 Structure written by MMmdl.
 44 44  0  0  0  0  0  0  0  0  2 V2000
  148.3847  136.0861  160.6719 C   0  0  0  0  0  0  0  0  0  0  0  0
  149.1029  136.4128  159.3802 C   0  0  0  0  0  0  0  0  0  0  0  0
  148.4981  136.2403  158.2676 N   0  0  0  0  0  0  0  0  0  0  0  0
  149.1584  136.5488  157.0665 C   0  0  0  0  0  0  0  0  0  0  0  0
  148.3505  136.3425  155.7971 C   0  0  0  0  0  0  0  0  0  0  0  0
  150.4374  137.0239  157.0655 C   0  0  0  0  0  0  0  0  0  0  0  0
  151.1865  137.4074  155.7878 C   0  0  0  0  0  0  0  0  0  0  0  0
  151.4169  138.9080  155.6090 C   0  0  0  0  0  0  0  0  0  0  0  0
  152.1595  139.3133  154.7154 O   0  0  0  0  0  0  0  0  0  0  0  0
  150.7340  139.7129  156.4415 N   0  0  0  0  0  0  0  0  0  0  0  0
  150.5647  141.1630  156.3353 C   0  0  1  0  0  0  0  0  0  0  0  0
  149.5011  141.5456  155.2909 C   0  0  0  0  0  0  0  0  0  0  0  0
  150.3102  141.8176  157.7127 C   0  0  0  0  0  0  0  0  0  0  0  0
  150.5627  143.3404  157.7352 C   0  0  0  0  0  0  0  0  0  0  0  0
  151.0114  143.8840  159.1059 C   0  0  0  0  0  0  0  0  0  0  0  0
  151.0531  145.4207  159.1433 C   0  0  0  0  0  0  0  0  0  0  0  0
  152.3751  143.2970  159.5019 C   0  0  0  0  0  0  0  0  0  0  0  0
  151.0994  137.2064  158.3698 C   0  0  0  0  0  0  0  0  0  0  0  0
  152.2470  137.6463  158.4276 O   0  0  0  0  0  0  0  0  0  0  0  0
  150.3915  136.8850  159.4894 N   0  5  0  0  0  0  0  0  0  0  0  0
  147.3404  135.8302  160.4878 H   0  0  0  0  0  0  0  0  0  0  0  0
  148.4114  136.9416  161.3476 H   0  0  0  0  0  0  0  0  0  0  0  0
  148.8639  135.2400  161.1651 H   0  0  0  0  0  0  0  0  0  0  0  0
  148.8620  135.6579  155.1206 H   0  0  0  0  0  0  0  0  0  0  0  0
  148.1969  137.2919  155.2838 H   0  0  0  0  0  0  0  0  0  0  0  0
  147.3687  135.9224  156.0183 H   0  0  0  0  0  0  0  0  0  0  0  0
  152.1479  136.8975  155.7227 H   0  0  0  0  0  0  0  0  0  0  0  0
  150.6201  137.0387  154.9323 H   0  0  0  0  0  0  0  0  0  0  0  0
  150.1731  139.2580  157.1481 H   0  0  0  0  0  0  0  0  0  0  0  0
  151.5203  141.5389  155.9685 H   0  0  0  0  0  0  0  0  0  0  0  0
  149.4943  142.6224  155.1217 H   0  0  0  0  0  0  0  0  0  0  0  0
  148.4978  141.2602  155.6065 H   0  0  0  0  0  0  0  0  0  0  0  0
  149.7004  141.0645  154.3328 H   0  0  0  0  0  0  0  0  0  0  0  0
  149.2790  141.6197  158.0049 H   0  0  0  0  0  0  0  0  0  0  0  0
  150.9317  141.3362  158.4684 H   0  0  0  0  0  0  0  0  0  0  0  0
  151.3388  143.5841  157.0101 H   0  0  0  0  0  0  0  0  0  0  0  0
  149.6686  143.8672  157.3999 H   0  0  0  0  0  0  0  0  0  0  0  0
  150.2908  143.5491  159.8532 H   0  0  0  0  0  0  0  0  0  0  0  0
  151.7306  145.8173  158.3864 H   0  0  0  0  0  0  0  0  0  0  0  0
  151.3951  145.7792  160.1145 H   0  0  0  0  0  0  0  0  0  0  0  0
  150.0683  145.8541  158.9707 H   0  0  0  0  0  0  0  0  0  0  0  0
  153.1523  143.5853  158.7937 H   0  0  0  0  0  0  0  0  0  0  0  0
  152.3414  142.2073  159.5326 H   0  0  0  0  0  0  0  0  0  0  0  0
  152.6798  143.6413  160.4904 H   0  0  0  0  0  0  0  0  0  0  0  0
  1  2  1  0  0  0  0
  1 21  1  0  0  0  0
  1 22  1  0  0  0  0
  1 23  1  0  0  0  0
  2 20  1  0  0  0  0
  2  3  2  0  0  0  0
  3  4  1  0  0  0  0
  4  5  1  0  0  0  0
  4  6  2  0  0  0  0
  5 24  1  0  0  0  0
  5 25  1  0  0  0  0
  5 26  1  0  0  0  0
  6  7  1  0  0  0  0
  6 18  1  0  0  0  0
  7  8  1  0  0  0  0
  7 27  1  0  0  0  0
  7 28  1  0  0  0  0
  8  9  2  0  0  0  0
  8 10  1  0  0  0  0
 10 11  1  0  0  0  0
 10 29  1  0  0  0  0
 11 12  1  0  0  0  0
 11 13  1  0  0  0  0
 11 30  1  0  0  0  0
 12 31  1  0  0  0  0
 12 32  1  0  0  0  0
 12 33  1  0  0  0  0
 13 14  1  0  0  0  0
 13 34  1  0  0  0  0
 13 35  1  0  0  0  0
 14 15  1  0  0  0  0
 14 36  1  0  0  0  0
 14 37  1  0  0  0  0
 15 16  1  0  0  0  0
 15 17  1  0  0  0  0
 15 38  1  0  0  0  0
 16 39  1  0  0  0  0
 16 40  1  0  0  0  0
 16 41  1  0  0  0  0
 17 42  1  0  0  0  0
 17 43  1  0  0  0  0
 17 44  1  0  0  0  0
 18 19  2  0  0  0  0
 18 20  1  0  0  0  0
M  CHG  1  20  -1
M  END
> <s_m_source_file>
AV-unprocessed.smi

> <i_m_source_file_index>
1308

> <i_lp_mmshare_version>
43012

> <i_f3d_flags>
0

> <s_epik_input>
W0NIM11jMW5jKFtDSDNdKWMoYyg9TylbbkhdMSlbQ0gyXUMoPU8pW05IXVtDQEhdKFtDSDNdKVtDSDJdW0NIMl1bQ0hdKFtDSDNdKVtDSDNd

> <s_epik_cmdline>
J2VwaWtfcHl0aG9uJywgJy1waCcsICc3LjAnLCAnLXRuJywgJzgnLCAnLW1hJywgJzIwMCcsICctbWV0YWxfYmluZGluZycsICctaW1hZScsICc8aW5maWxlLm1hZT4nLCAnLW9tYWUnLCAnPG91dGZpbGUubWFlPic=

> <r_lp_tautomer_probability>
0.839158

> <r_epik_Ionization_Penalty>
6.61719

> <r_epik_Ionization_Penalty_Charging>
7.20681e-08

> <r_epik_Ionization_Penalty_Neutral>
6.61719

> <r_epik_State_Penalty>
4.43758

> <r_epik_Charging_Adjusted_Penalty>
4.43758

> <i_epik_Tot_Q>
-1

> <i_epik_Tot_abs_Q>
1

> <r_epik_Metal_State_Penalty>
0.801586

> <b_epik_Metal_Only>
1

> <s_lp_Force_Field>
OPLS_2005

> <r_lp_Energy>
8.11692

> <b_lp_Chiralities_Consistent>
1

> <s_lp_Variant>
AV-unprocessed.smi:1308-6

> <Gold.Version>
5.8.1

> <Gold.Id.Protein>
6NUR|6NUR_protein|mol2

> <Gold.PLP.Fitness>
40.8529

> <Gold.PLP.PLP>
-33.7515

> <Gold.PLP.part.hbond>
-2.0000

> <Gold.PLP.part.metal>
0.0000

> <Gold.PLP.part.buried>
-3.6135

> <Gold.PLP.part.nonpolar>
-28.6520

> <Gold.PLP.part.repulsive>
0.1541

> <Gold.PLP.ligand.clash>
0.0000

> <Gold.PLP.ligand.torsion>
0.8076

> <Gold.PLP.Chemscore.Hbond>
2.8480

> <Gold.PLP.Chemscore.CHOScore>
0.0000

> <Gold.PLP.Chemscore.Metal>
0.0000

> <Gold.Chemscore.Hbonds>
donor molecule, donor type, donor heavy atom, donor atom, acceptor molecule, acceptor atom, score
      P1  H  6896  6908       L1    20  0.90
      P1  H  7989  7998       L1     9  0.83

> <Gold.PLP.Chemscore.Internal.Correction>
0.1726

> <Gold.Rescore>
     Score         DG    S(hbond)    S(metal)    S(lipo)     H(rot)  DE(clash)    DE(int)     intcor
     14.87     -16.09       1.85        0.00      79.76       1.91       0.52       0.70       ----

> <Gold.Chemscore.Fitness>
14.8690

> <Gold.Chemscore.DG>
-16.0863

> <Gold.Chemscore.ZeroCoef>
-5.4800

> <Gold.Chemscore.Hbond>
1.8469

> <Gold.Chemscore.Metal>
0.0000

> <Gold.Chemscore.Lipo>
79.7607

> <Gold.Chemscore.Internal_Hbond>
0.0000

> <Gold.Chemscore.DEClash>
0.5159

> <Gold.Chemscore.DEInternal>
0.7014

> <Gold.Chemscore.Rot>
1.9118

> <Gold.Chemscore.Internal.Correction>
   9.000000E+99

> <Gold.Chemscore.Hbonds>
donor molecule, donor type, donor heavy atom, donor atom, acceptor molecule, acceptor atom, score
      P1  H  7989  7998       L1     9  0.77

> <Gold.Chemscore.Hbond.Weighted>
-6.1687

> <Gold.Chemscore.Metal.Weighted>
-0.0000

> <Gold.Chemscore.Lipo.Weighted>
-9.3320

> <Gold.Chemscore.Internal_Hbond.Weighted>
0.0000

> <Gold.Chemscore.DEClash.Weighted>
0.5159

> <Gold.Chemscore.DEInternal.Weighted>
0.7014

> <Gold.Chemscore.Rot.Weighted>
4.8943

> <Gold.Chemscore.Internal.Correction.Weighted>
   9.000000E+99

> <Gold.Protein.RotatedTorsions>
[ 6907 6896 6895 6894 ] final -156.68 input  -60.11 | X-H torsion
[ 7974 7965 7964 7962 ] final   61.97 input  175.53 | X-H torsion
[ 8008 7997 7996 7995 ] final   44.28 input   59.86 | X-H torsion
[ 10167 10162 10161 10158 ] final  173.96 input  -65.29 | X-H torsion
[ 10718 10713 10712 10709 ] final    1.43 input   66.30 | X-H torsion
[ 10763 10752 10751 10750 ] final -167.13 input  -60.55 | X-H torsion
[ 11005 11000 10999 10996 ] final  108.52 input  -57.11 | X-H torsion

> <Gold.Protein.ActiveResidues>
 VAL166  LYS551  ARG553  GLY616  TRP617  ASP618  TYR619  PRO620  LYS621  CYS622 
 ASP623  PHE694  ASN695  SER759  ASP760  ASP761  ALA762  ILE779  LEU786  VAL792 
 PHE793  MET794  SER795  GLU796  ALA797  LYS798  CYS799  TRP800  GLU811  SER814 

> <Gold.Protein.RotatedAtoms>
  151.2913  133.4164  159.2633 H   0  0  0  0  0  0  0  0  0  0  0  0  # atno 6907 bound_to 6896
  151.0275  134.9515  159.8103 H   0  0  0  0  0  0  0  0  0  0  0  0  # atno 6908 bound_to 6896
  152.5338  134.2875  159.9083 H   0  0  0  0  0  0  0  0  0  0  0  0  # atno 6909 bound_to 6896
  145.8787  139.3428  143.0719 H   0  0  0  0  0  0  0  0  0  0  0  0  # atno 7974 bound_to 7965
  155.3167  140.3394  155.4242 H   0  0  0  0  0  0  0  0  0  0  0  0  # atno 8008 bound_to 7997
  156.1929  140.1704  156.8094 H   0  0  0  0  0  0  0  0  0  0  0  0  # atno 8009 bound_to 7997
  154.5463  140.0714  156.8578 H   0  0  0  0  0  0  0  0  0  0  0  0  # atno 8010 bound_to 7997
  139.5125  144.3201  152.0210 H   0  0  0  0  0  0  0  0  0  0  0  0  # atno 10167 bound_to 10162
  156.8481  130.5544  149.5672 H   0  0  0  0  0  0  0  0  0  0  0  0  # atno 10718 bound_to 10713
  154.6763  135.2947  154.9674 H   0  0  0  0  0  0  0  0  0  0  0  0  # atno 10763 bound_to 10752
  154.0684  135.6621  153.4825 H   0  0  0  0  0  0  0  0  0  0  0  0  # atno 10764 bound_to 10752
  153.0518  135.5169  154.7784 H   0  0  0  0  0  0  0  0  0  0  0  0  # atno 10765 bound_to 10752
  139.8845  134.9433  156.5985 H   0  0  0  0  0  0  0  0  0  0  0  0  # atno 11005 bound_to 11000
  145.9050  140.9218  143.0483 LP  0  0  0  0  0  0  0  0  0  0  0  0  # atno 17320 bound_to 7965
  144.6727  140.1083  143.7457 LP  0  0  0  0  0  0  0  0  0  0  0  0  # atno 17321 bound_to 7965
  140.2643  144.4033  150.6174 LP  0  0  0  0  0  0  0  0  0  0  0  0  # atno 17342 bound_to 10162
  140.6134  143.2171  151.6840 LP  0  0  0  0  0  0  0  0  0  0  0  0  # atno 17343 bound_to 10162
  156.0843  130.5846  150.9620 LP  0  0  0  0  0  0  0  0  0  0  0  0  # atno 17370 bound_to 10713
  157.6319  131.0920  150.8425 LP  0  0  0  0  0  0  0  0  0  0  0  0  # atno 17371 bound_to 10713
  140.7901  133.8589  155.8639 LP  0  0  0  0  0  0  0  0  0  0  0  0  # atno 17394 bound_to 11000
  140.9684  134.1563  157.4596 LP  0  0  0  0  0  0  0  0  0  0  0  0  # atno 17395 bound_to 11000

$$$$
