AV-unprocessed.smi:1040|AV-procd|sdf|4527|dock1
  -GOLD-   22720 2543D 1   1.00000     0.00000
 Structure written by MMmdl.
 55 56  0  0  0  0  0  0  0  0  2 V2000
  151.4140  137.7583  155.3616 C   0  0  0  0  0  0  0  0  0  0  0  0
  150.3849  138.2445  154.3278 C   0  0  1  0  0  0  0  0  0  0  0  0
  149.3386  137.2432  154.1333 N   0  0  0  0  0  0  0  0  0  0  0  0
  148.7393  136.5324  155.0983 C   0  0  0  0  0  0  0  0  0  0  0  0
  148.9731  136.6721  156.2985 O   0  0  0  0  0  0  0  0  0  0  0  0
  147.8789  135.6440  154.5758 N   0  0  0  0  0  0  0  0  0  0  0  0
  147.1003  134.6678  155.2589 C   0  0  0  0  0  0  0  0  0  0  0  0
  147.4304  134.2144  156.5613 C   0  0  0  0  0  0  0  0  0  0  0  0
  146.6214  133.2478  157.1900 C   0  0  0  0  0  0  0  0  0  0  0  0
  145.4931  132.7535  156.5106 C   0  0  0  0  0  0  0  0  0  0  0  0
  145.1984  133.2153  155.2774 N   0  3  0  0  0  0  0  0  0  0  0  0
  145.9386  134.1474  154.6280 C   0  0  0  0  0  0  0  0  0  0  0  0
  145.5267  134.5640  153.3472 N   0  0  0  0  0  0  0  0  0  0  0  0
  145.0334  135.9352  153.2240 C   0  0  0  0  0  0  0  0  0  0  0  0
  144.3075  136.1320  151.8820 C   0  0  0  0  0  0  0  0  0  0  0  0
  145.2055  135.7190  150.7042 C   0  0  0  0  0  0  0  0  0  0  0  0
  145.7217  134.2844  150.9027 C   0  0  0  0  0  0  0  0  0  0  0  0
  146.4126  134.1307  152.2685 C   0  0  0  0  0  0  0  0  0  0  0  0
  149.7726  139.6070  154.6743 C   0  0  0  0  0  0  0  0  0  0  0  0
  150.5006  140.5804  154.8750 O   0  0  0  0  0  0  0  0  0  0  0  0
  148.4292  139.6553  154.7240 N   0  0  0  0  0  0  0  0  0  0  0  0
  147.5685  140.8056  155.0258 C   0  0  0  0  0  0  0  0  0  0  0  0
  146.1144  140.3070  154.9535 C   0  0  0  0  0  0  0  0  0  0  0  0
  147.7677  141.9236  153.9806 C   0  0  0  0  0  0  0  0  0  0  0  0
  147.8458  141.3344  156.4491 C   0  0  0  0  0  0  0  0  0  0  0  0
  152.2098  138.4911  155.5002 H   0  0  0  0  0  0  0  0  0  0  0  0
  151.8821  136.8256  155.0459 H   0  0  0  0  0  0  0  0  0  0  0  0
  150.9494  137.5856  156.3332 H   0  0  0  0  0  0  0  0  0  0  0  0
  150.9052  138.3720  153.3760 H   0  0  0  0  0  0  0  0  0  0  0  0
  149.0803  137.0557  153.1753 H   0  0  0  0  0  0  0  0  0  0  0  0
  147.8655  135.5834  153.5682 H   0  0  0  0  0  0  0  0  0  0  0  0
  148.2870  134.6011  157.0925 H   0  0  0  0  0  0  0  0  0  0  0  0
  146.8628  132.8930  158.1815 H   0  0  0  0  0  0  0  0  0  0  0  0
  144.8177  132.0138  156.9158 H   0  0  0  0  0  0  0  0  0  0  0  0
  144.3530  136.1607  154.0463 H   0  0  0  0  0  0  0  0  0  0  0  0
  145.8709  136.6307  153.2968 H   0  0  0  0  0  0  0  0  0  0  0  0
  143.3940  135.5356  151.8708 H   0  0  0  0  0  0  0  0  0  0  0  0
  143.9999  137.1722  151.7727 H   0  0  0  0  0  0  0  0  0  0  0  0
  144.6555  135.7951  149.7657 H   0  0  0  0  0  0  0  0  0  0  0  0
  146.0496  136.4053  150.6279 H   0  0  0  0  0  0  0  0  0  0  0  0
  144.8887  133.5832  150.8349 H   0  0  0  0  0  0  0  0  0  0  0  0
  146.4137  134.0219  150.1022 H   0  0  0  0  0  0  0  0  0  0  0  0
  147.3202  134.7351  152.2954 H   0  0  0  0  0  0  0  0  0  0  0  0
  146.7225  133.0950  152.4093 H   0  0  0  0  0  0  0  0  0  0  0  0
  147.9427  138.7918  154.5308 H   0  0  0  0  0  0  0  0  0  0  0  0
  145.4083  141.1101  155.1681 H   0  0  0  0  0  0  0  0  0  0  0  0
  145.9303  139.5089  155.6739 H   0  0  0  0  0  0  0  0  0  0  0  0
  145.8751  139.9177  153.9631 H   0  0  0  0  0  0  0  0  0  0  0  0
  147.6103  141.5527  152.9671 H   0  0  0  0  0  0  0  0  0  0  0  0
  148.7687  142.3526  154.0226 H   0  0  0  0  0  0  0  0  0  0  0  0
  147.0645  142.7414  154.1418 H   0  0  0  0  0  0  0  0  0  0  0  0
  147.1463  142.1275  156.7152 H   0  0  0  0  0  0  0  0  0  0  0  0
  148.8487  141.7498  156.5464 H   0  0  0  0  0  0  0  0  0  0  0  0
  147.7429  140.5439  157.1935 H   0  0  0  0  0  0  0  0  0  0  0  0
  144.3695  132.8464  154.8112 H   0  0  0  0  0  0  0  0  0  0  0  0
  1  2  1  0  0  0  0
  1 26  1  0  0  0  0
  1 27  1  0  0  0  0
  1 28  1  0  0  0  0
  2  3  1  0  0  0  0
  2 19  1  0  0  0  0
  2 29  1  0  0  0  0
  3  4  1  0  0  0  0
  3 30  1  0  0  0  0
  4  5  2  0  0  0  0
  4  6  1  0  0  0  0
  6  7  1  0  0  0  0
  6 31  1  0  0  0  0
  7 12  1  0  0  0  0
  7  8  2  0  0  0  0
  8  9  1  0  0  0  0
  8 32  1  0  0  0  0
  9 10  2  0  0  0  0
  9 33  1  0  0  0  0
 10 11  1  0  0  0  0
 10 34  1  0  0  0  0
 11 12  2  0  0  0  0
 11 55  1  0  0  0  0
 12 13  1  0  0  0  0
 13 18  1  0  0  0  0
 13 14  1  0  0  0  0
 14 15  1  0  0  0  0
 14 35  1  0  0  0  0
 14 36  1  0  0  0  0
 15 16  1  0  0  0  0
 15 37  1  0  0  0  0
 15 38  1  0  0  0  0
 16 17  1  0  0  0  0
 16 39  1  0  0  0  0
 16 40  1  0  0  0  0
 17 18  1  0  0  0  0
 17 41  1  0  0  0  0
 17 42  1  0  0  0  0
 18 43  1  0  0  0  0
 18 44  1  0  0  0  0
 19 20  2  0  0  0  0
 19 21  1  0  0  0  0
 21 22  1  0  0  0  0
 21 45  1  0  0  0  0
 22 23  1  0  0  0  0
 22 24  1  0  0  0  0
 22 25  1  0  0  0  0
 23 46  1  0  0  0  0
 23 47  1  0  0  0  0
 23 48  1  0  0  0  0
 24 49  1  0  0  0  0
 24 50  1  0  0  0  0
 24 51  1  0  0  0  0
 25 52  1  0  0  0  0
 25 53  1  0  0  0  0
 25 54  1  0  0  0  0
M  CHG  1  11   1
M  END
> <s_m_source_file>
AV-unprocessed.smi

> <i_m_source_file_index>
1040

> <i_lp_mmshare_version>
43012

> <i_f3d_flags>
0

> <s_epik_input>
W0NIM11DKFtDSDNdKShbQ0gzXSlbTkhdQyg9TylbQ0BIXShbQ0gzXSlbTkhdQyg9TylbTkhdYzFbY0hdW2NIXVtjSF1uYzFOMltDSDJdW0NIMl1bQ0gyXVtDSDJdW0NIMl0y

> <s_epik_cmdline>
J2VwaWtfcHl0aG9uJywgJy1waCcsICc3LjAnLCAnLXRuJywgJzgnLCAnLW1hJywgJzIwMCcsICctbWV0YWxfYmluZGluZycsICctaW1hZScsICc8aW5maWxlLm1hZT4nLCAnLW9tYWUnLCAnPG91dGZpbGUubWFlPic=

> <r_lp_tautomer_probability>
0.999994

> <r_epik_Ionization_Penalty>
1.20468

> <r_epik_Ionization_Penalty_Charging>
1.20466

> <r_epik_Ionization_Penalty_Neutral>
1.88859e-05

> <r_epik_State_Penalty>
1.27057

> <r_epik_Charging_Adjusted_Penalty>
2.47523

> <i_epik_Tot_Q>
1

> <i_epik_Tot_abs_Q>
1

> <r_epik_Metal_State_Penalty>
1.34448

> <b_epik_Metal_Only>
0

> <s_lp_Force_Field>
OPLS_2005

> <r_lp_Energy>
27.4215

> <b_lp_Chiralities_Consistent>
1

> <s_lp_Variant>
AV-unprocessed.smi:1040-4

> <Gold.Version>
5.8.1

> <Gold.Id.Protein>
6NUR|6NUR_protein|mol2

> <Gold.PLP.Fitness>
41.5769

> <Gold.PLP.PLP>
-28.0664

> <Gold.PLP.part.hbond>
-3.8356

> <Gold.PLP.part.metal>
0.0000

> <Gold.PLP.part.buried>
-4.6375

> <Gold.PLP.part.nonpolar>
-20.5298

> <Gold.PLP.part.repulsive>
0.2227

> <Gold.PLP.ligand.clash>
0.0000

> <Gold.PLP.ligand.torsion>
0.5694

> <Gold.PLP.Chemscore.Hbond>
4.6973

> <Gold.PLP.Chemscore.CHOScore>
0.0000

> <Gold.PLP.Chemscore.Metal>
0.0000

> <Gold.Chemscore.Hbonds>
donor molecule, donor type, donor heavy atom, donor atom, acceptor molecule, acceptor atom, score
      L1  H     3    30       P1  7948  1.00
      L1  H     6    31       P1  7948  0.65
      L1  H    11    55       P1 10957  2.00
      P1  H  7989  7998       L1    20  0.96

> <Gold.PLP.Chemscore.Internal.Correction>
0.5572

> <Gold.Rescore>
     Score         DG    S(hbond)    S(metal)    S(lipo)     H(rot)  DE(clash)    DE(int)     intcor
     16.46     -19.76       3.48        0.00      58.65       1.64       0.00       3.29       ----

> <Gold.Chemscore.Fitness>
16.4622

> <Gold.Chemscore.DG>
-19.7554

> <Gold.Chemscore.ZeroCoef>
-5.4800

> <Gold.Chemscore.Hbond>
3.4788

> <Gold.Chemscore.Metal>
0.0000

> <Gold.Chemscore.Lipo>
58.6464

> <Gold.Chemscore.Internal_Hbond>
0.0000

> <Gold.Chemscore.DEClash>
0.0048

> <Gold.Chemscore.DEInternal>
3.2884

> <Gold.Chemscore.Rot>
1.6428

> <Gold.Chemscore.Internal.Correction>
   9.000000E+99

> <Gold.Chemscore.Hbonds>
donor molecule, donor type, donor heavy atom, donor atom, acceptor molecule, acceptor atom, score
      L1  H     3    30       P1  7948  0.92
      L1  H     6    31       P1  7948  0.64
      L1  H    11    55       P1 10957  0.91
      P1  H  7989  7998       L1    20  0.76

> <Gold.Chemscore.Hbond.Weighted>
-11.6192

> <Gold.Chemscore.Metal.Weighted>
-0.0000

> <Gold.Chemscore.Lipo.Weighted>
-6.8616

> <Gold.Chemscore.Internal_Hbond.Weighted>
0.0000

> <Gold.Chemscore.DEClash.Weighted>
0.0048

> <Gold.Chemscore.DEInternal.Weighted>
3.2884

> <Gold.Chemscore.Rot.Weighted>
4.2055

> <Gold.Chemscore.Internal.Correction.Weighted>
   9.000000E+99

> <Gold.Protein.RotatedTorsions>
[ 6907 6896 6895 6894 ] final   11.25 input  -60.11 | X-H torsion
[ 7974 7965 7964 7962 ] final  -99.97 input  175.53 | X-H torsion
[ 8008 7997 7996 7995 ] final   17.28 input   59.86 | X-H torsion
[ 10167 10162 10161 10158 ] final -161.63 input  -65.29 | X-H torsion
[ 10718 10713 10712 10709 ] final   77.26 input   66.30 | X-H torsion
[ 10763 10752 10751 10750 ] final  123.23 input  -60.55 | X-H torsion
[ 11005 11000 10999 10996 ] final  -88.05 input  -57.11 | X-H torsion

> <Gold.Protein.ActiveResidues>
 VAL166  LYS551  ARG553  GLY616  TRP617  ASP618  TYR619  PRO620  LYS621  CYS622 
 ASP623  PHE694  ASN695  SER759  ASP760  ASP761  ALA762  ILE779  LEU786  VAL792 
 PHE793  MET794  SER795  GLU796  ALA797  LYS798  CYS799  TRP800  GLU811  SER814 

> <Gold.Protein.RotatedAtoms>
  151.7513  135.0832  160.0331 H   0  0  0  0  0  0  0  0  0  0  0  0  # atno 6907 bound_to 6896
  152.3415  133.6067  159.5888 H   0  0  0  0  0  0  0  0  0  0  0  0  # atno 6908 bound_to 6896
  150.7482  133.9632  159.3564 H   0  0  0  0  0  0  0  0  0  0  0  0  # atno 6909 bound_to 6896
  145.3006  140.9376  143.2826 H   0  0  0  0  0  0  0  0  0  0  0  0  # atno 7974 bound_to 7965
  154.8891  140.2984  155.5381 H   0  0  0  0  0  0  0  0  0  0  0  0  # atno 8008 bound_to 7997
  156.3021  140.2428  156.3839 H   0  0  0  0  0  0  0  0  0  0  0  0  # atno 8009 bound_to 7997
  154.8637  140.0404  157.1670 H   0  0  0  0  0  0  0  0  0  0  0  0  # atno 8010 bound_to 7997
  139.6451  144.0188  152.2121 H   0  0  0  0  0  0  0  0  0  0  0  0  # atno 10167 bound_to 10162
  157.6704  130.9813  150.1616 H   0  0  0  0  0  0  0  0  0  0  0  0  # atno 10718 bound_to 10713
  153.6422  135.3377  155.3075 H   0  0  0  0  0  0  0  0  0  0  0  0  # atno 10763 bound_to 10752
  154.8557  135.4321  154.1992 H   0  0  0  0  0  0  0  0  0  0  0  0  # atno 10764 bound_to 10752
  153.2914  135.7017  153.7364 H   0  0  0  0  0  0  0  0  0  0  0  0  # atno 10765 bound_to 10752
  141.1608  133.7547  156.9396 H   0  0  0  0  0  0  0  0  0  0  0  0  # atno 11005 bound_to 11000
  144.9097  139.4544  143.6593 LP  0  0  0  0  0  0  0  0  0  0  0  0  # atno 17320 bound_to 7965
  146.3153  139.7898  142.8988 LP  0  0  0  0  0  0  0  0  0  0  0  0  # atno 17321 bound_to 7965
  139.9887  144.6377  150.7834 LP  0  0  0  0  0  0  0  0  0  0  0  0  # atno 17342 bound_to 10162
  140.7510  143.2965  151.3190 LP  0  0  0  0  0  0  0  0  0  0  0  0  # atno 17343 bound_to 10162
  156.2391  130.3689  149.8357 LP  0  0  0  0  0  0  0  0  0  0  0  0  # atno 17370 bound_to 10713
  156.6162  130.8607  151.3465 LP  0  0  0  0  0  0  0  0  0  0  0  0  # atno 17371 bound_to 10713
  140.1331  134.9343  157.2364 LP  0  0  0  0  0  0  0  0  0  0  0  0  # atno 17394 bound_to 11000
  140.2929  134.3220  155.7310 LP  0  0  0  0  0  0  0  0  0  0  0  0  # atno 17395 bound_to 11000

$$$$
