AV-unprocessed.smi:1369|AV-procd|sdf|5579|dock6
  -GOLD-   22720 5173D 1   1.00000     0.00000
 Structure written by MMmdl.
 39 41  0  0  0  0  0  0  0  0  1 V2000
  149.4489  135.1830  154.8894 C   0  0  0  0  0  0  0  0  0  0  0  0
  148.6445  136.4752  154.8007 C   0  0  0  0  0  0  0  0  0  0  0  0
  147.4582  136.4723  155.1266 O   0  0  0  0  0  0  0  0  0  0  0  0
  149.3139  137.5448  154.3341 N   0  0  0  0  0  0  0  0  0  0  0  0
  148.8453  138.8750  154.1405 C   0  0  0  0  0  0  0  0  0  0  0  0
  147.5552  139.1652  153.6327 C   0  0  0  0  0  0  0  0  0  0  0  0
  147.1323  140.4983  153.4841 C   0  0  0  0  0  0  0  0  0  0  0  0
  147.9879  141.5509  153.8508 C   0  0  0  0  0  0  0  0  0  0  0  0
  149.2645  141.2718  154.3721 C   0  0  0  0  0  0  0  0  0  0  0  0
  149.7037  139.9323  154.5272 C   0  0  0  0  0  0  0  0  0  0  0  0
  150.9415  139.5916  155.0330 O   0  0  0  0  0  0  0  0  0  0  0  0
  151.6250  140.5298  155.8529 C   0  0  0  0  0  0  0  0  0  0  0  0
  150.8247  140.7247  157.1478 C   0  0  0  0  0  0  0  0  0  0  0  0
  151.6274  141.3846  158.1737 N   0  0  0  0  0  0  0  0  0  0  0  0
  152.8219  140.8918  158.7054 C   0  0  0  0  0  0  0  0  0  0  0  0
  153.3972  139.8396  158.4330 O   0  0  0  0  0  0  0  0  0  0  0  0
  153.2633  141.8198  159.6130 O   0  0  0  0  0  0  0  0  0  0  0  0
  152.3833  142.8619  159.6430 C   0  0  0  0  0  0  0  0  0  0  0  0
  152.4235  144.0387  160.4093 C   0  0  0  0  0  0  0  0  0  0  0  0
  151.3709  144.9686  160.2402 C   0  0  0  0  0  0  0  0  0  0  0  0
  150.3174  144.7132  159.3254 C   0  0  0  0  0  0  0  0  0  0  0  0
  150.2982  143.5247  158.5601 C   0  0  0  0  0  0  0  0  0  0  0  0
  151.3560  142.6202  158.7559 C   0  0  0  0  0  0  0  0  0  0  0  0
  150.3914  135.3520  155.4110 H   0  0  0  0  0  0  0  0  0  0  0  0
  149.6666  134.8050  153.8905 H   0  0  0  0  0  0  0  0  0  0  0  0
  148.8939  134.4165  155.4310 H   0  0  0  0  0  0  0  0  0  0  0  0
  150.2549  137.3705  154.0114 H   0  0  0  0  0  0  0  0  0  0  0  0
  146.8656  138.3801  153.3641 H   0  0  0  0  0  0  0  0  0  0  0  0
  146.1482  140.7125  153.0941 H   0  0  0  0  0  0  0  0  0  0  0  0
  147.6631  142.5748  153.7374 H   0  0  0  0  0  0  0  0  0  0  0  0
  149.8904  142.1074  154.6455 H   0  0  0  0  0  0  0  0  0  0  0  0
  152.6202  140.1552  156.0964 H   0  0  0  0  0  0  0  0  0  0  0  0
  151.7399  141.4847  155.3369 H   0  0  0  0  0  0  0  0  0  0  0  0
  149.9214  141.3020  156.9495 H   0  0  0  0  0  0  0  0  0  0  0  0
  150.4897  139.7566  157.5228 H   0  0  0  0  0  0  0  0  0  0  0  0
  153.2298  144.2265  161.1029 H   0  0  0  0  0  0  0  0  0  0  0  0
  151.3697  145.8839  160.8138 H   0  0  0  0  0  0  0  0  0  0  0  0
  149.5229  145.4358  159.2103 H   0  0  0  0  0  0  0  0  0  0  0  0
  149.5032  143.3256  157.8567 H   0  0  0  0  0  0  0  0  0  0  0  0
  1  2  1  0  0  0  0
  1 24  1  0  0  0  0
  1 25  1  0  0  0  0
  1 26  1  0  0  0  0
  2  3  2  0  0  0  0
  2  4  1  0  0  0  0
  4  5  1  0  0  0  0
  4 27  1  0  0  0  0
  5 10  1  0  0  0  0
  5  6  2  0  0  0  0
  6  7  1  0  0  0  0
  6 28  1  0  0  0  0
  7  8  2  0  0  0  0
  7 29  1  0  0  0  0
  8  9  1  0  0  0  0
  8 30  1  0  0  0  0
  9 10  2  0  0  0  0
  9 31  1  0  0  0  0
 10 11  1  0  0  0  0
 11 12  1  0  0  0  0
 12 13  1  0  0  0  0
 12 32  1  0  0  0  0
 12 33  1  0  0  0  0
 13 14  1  0  0  0  0
 13 34  1  0  0  0  0
 13 35  1  0  0  0  0
 14 23  1  0  0  0  0
 14 15  1  0  0  0  0
 15 16  2  0  0  0  0
 15 17  1  0  0  0  0
 17 18  1  0  0  0  0
 18 23  2  0  0  0  0
 18 19  1  0  0  0  0
 19 20  2  0  0  0  0
 19 36  1  0  0  0  0
 20 21  1  0  0  0  0
 20 37  1  0  0  0  0
 21 22  2  0  0  0  0
 21 38  1  0  0  0  0
 22 23  1  0  0  0  0
 22 39  1  0  0  0  0
M  END
> <s_m_source_file>
AV-unprocessed.smi

> <i_m_source_file_index>
1369

> <i_lp_mmshare_version>
43012

> <i_f3d_flags>
0

> <s_epik_input>
W0NIM11DKD1PKVtOSF1jMVtjSF1bY0hdW2NIXVtjSF1jMU9bQ0gyXVtDSDJdbihjKD1PKW8yKWMoYzIzKVtjSF1bY0hdW2NIXVtjSF0z

> <s_epik_cmdline>
J2VwaWtfcHl0aG9uJywgJy1waCcsICc3LjAnLCAnLXRuJywgJzgnLCAnLW1hJywgJzIwMCcsICctbWV0YWxfYmluZGluZycsICctaW1hZScsICc8aW5maWxlLm1hZT4nLCAnLW9tYWUnLCAnPG91dGZpbGUubWFlPic=

> <r_lp_tautomer_probability>
1

> <r_epik_Ionization_Penalty>
9.24277e-08

> <r_epik_Ionization_Penalty_Charging>
1.02615e-14

> <r_epik_Ionization_Penalty_Neutral>
9.24277e-08

> <r_epik_State_Penalty>
-0

> <r_epik_Charging_Adjusted_Penalty>
1.02615e-14

> <i_epik_Tot_Q>
0

> <i_epik_Tot_abs_Q>
0

> <r_epik_Metal_State_Penalty>
-0

> <b_epik_Metal_Only>
0

> <s_lp_Force_Field>
OPLS_2005

> <r_lp_Energy>
36.4772

> <b_lp_Chiralities_Consistent>
1

> <s_lp_Variant>
AV-unprocessed.smi:1369-1

> <Gold.Version>
5.8.1

> <Gold.Id.Protein>
6NUR|6NUR_protein|mol2

> <Gold.PLP.Fitness>
46.4794

> <Gold.PLP.PLP>
-44.8390

> <Gold.PLP.part.hbond>
-2.3404

> <Gold.PLP.part.metal>
0.0000

> <Gold.PLP.part.buried>
-4.7627

> <Gold.PLP.part.nonpolar>
-37.1745

> <Gold.PLP.part.repulsive>
0.1065

> <Gold.PLP.ligand.clash>
0.0000

> <Gold.PLP.ligand.torsion>
0.7088

> <Gold.PLP.Chemscore.Hbond>
1.0026

> <Gold.PLP.Chemscore.CHOScore>
0.0000

> <Gold.PLP.Chemscore.Metal>
0.0000

> <Gold.Chemscore.Hbonds>
donor molecule, donor type, donor heavy atom, donor atom, acceptor molecule, acceptor atom, score
      P1  H  7989  7998       L1    11  0.01
      P1  H  7997  8010       L1    16  1.00

> <Gold.PLP.Chemscore.Internal.Correction>
0.0501

> <Gold.Rescore>
     Score         DG    S(hbond)    S(metal)    S(lipo)     H(rot)  DE(clash)    DE(int)     intcor
     16.20     -17.76       0.91        0.00     116.25       1.70       0.06       1.49       ----

> <Gold.Chemscore.Fitness>
16.2042

> <Gold.Chemscore.DG>
-17.7564

> <Gold.Chemscore.ZeroCoef>
-5.4800

> <Gold.Chemscore.Hbond>
0.9079

> <Gold.Chemscore.Metal>
0.0000

> <Gold.Chemscore.Lipo>
116.2465

> <Gold.Chemscore.Internal_Hbond>
0.0000

> <Gold.Chemscore.DEClash>
0.0629

> <Gold.Chemscore.DEInternal>
1.4893

> <Gold.Chemscore.Rot>
1.7019

> <Gold.Chemscore.Internal.Correction>
   9.000000E+99

> <Gold.Chemscore.Hbonds>
donor molecule, donor type, donor heavy atom, donor atom, acceptor molecule, acceptor atom, score
      P1  H  7997  8010       L1    16  0.86

> <Gold.Chemscore.Hbond.Weighted>
-3.0325

> <Gold.Chemscore.Metal.Weighted>
-0.0000

> <Gold.Chemscore.Lipo.Weighted>
-13.6008

> <Gold.Chemscore.Internal_Hbond.Weighted>
0.0000

> <Gold.Chemscore.DEClash.Weighted>
0.0629

> <Gold.Chemscore.DEInternal.Weighted>
1.4893

> <Gold.Chemscore.Rot.Weighted>
4.3569

> <Gold.Chemscore.Internal.Correction.Weighted>
   9.000000E+99

> <Gold.Protein.RotatedTorsions>
[ 6907 6896 6895 6894 ] final  154.62 input  -60.11 | X-H torsion
[ 7974 7965 7964 7962 ] final   63.35 input  175.53 | X-H torsion
[ 8008 7997 7996 7995 ] final   19.77 input   59.86 | X-H torsion
[ 10167 10162 10161 10158 ] final   81.93 input  -65.29 | X-H torsion
[ 10718 10713 10712 10709 ] final -108.69 input   66.30 | X-H torsion
[ 10763 10752 10751 10750 ] final   58.63 input  -60.55 | X-H torsion
[ 11005 11000 10999 10996 ] final  -71.32 input  -57.11 | X-H torsion

> <Gold.Protein.ActiveResidues>
 VAL166  LYS551  ARG553  GLY616  TRP617  ASP618  TYR619  PRO620  LYS621  CYS622 
 ASP623  PHE694  ASN695  SER759  ASP760  ASP761  ALA762  ILE779  LEU786  VAL792 
 PHE793  MET794  SER795  GLU796  ALA797  LYS798  CYS799  TRP800  GLU811  SER814 

> <Gold.Protein.RotatedAtoms>
  152.0558  133.4039  159.4396 H   0  0  0  0  0  0  0  0  0  0  0  0  # atno 6907 bound_to 6896
  150.6868  134.3256  159.4814 H   0  0  0  0  0  0  0  0  0  0  0  0  # atno 6908 bound_to 6896
  152.1071  134.9300  160.0618 H   0  0  0  0  0  0  0  0  0  0  0  0  # atno 6909 bound_to 6896
  145.8628  139.3326  143.0808 H   0  0  0  0  0  0  0  0  0  0  0  0  # atno 7974 bound_to 7965
  154.9256  140.3033  155.5194 H   0  0  0  0  0  0  0  0  0  0  0  0  # atno 8008 bound_to 7997
  156.3007  140.2363  156.4247 H   0  0  0  0  0  0  0  0  0  0  0  0  # atno 8009 bound_to 7997
  154.8288  140.0419  157.1451 H   0  0  0  0  0  0  0  0  0  0  0  0  # atno 8010 bound_to 7997
  139.9341  144.6133  150.8316 H   0  0  0  0  0  0  0  0  0  0  0  0  # atno 10167 bound_to 10162
  156.0499  130.5726  150.7997 H   0  0  0  0  0  0  0  0  0  0  0  0  # atno 10718 bound_to 10713
  152.9875  135.5600  154.5584 H   0  0  0  0  0  0  0  0  0  0  0  0  # atno 10763 bound_to 10752
  154.5007  135.2797  155.1425 H   0  0  0  0  0  0  0  0  0  0  0  0  # atno 10764 bound_to 10752
  154.2856  135.6336  153.5417 H   0  0  0  0  0  0  0  0  0  0  0  0  # atno 10765 bound_to 10752
  141.1590  133.6814  156.6887 H   0  0  0  0  0  0  0  0  0  0  0  0  # atno 11005 bound_to 11000
  145.9228  140.9103  143.0396 LP  0  0  0  0  0  0  0  0  0  0  0  0  # atno 17320 bound_to 7965
  144.6726  140.1311  143.7443 LP  0  0  0  0  0  0  0  0  0  0  0  0  # atno 17321 bound_to 7965
  140.7629  143.3210  151.2622 LP  0  0  0  0  0  0  0  0  0  0  0  0  # atno 17342 bound_to 10162
  139.6758  143.9940  152.2780 LP  0  0  0  0  0  0  0  0  0  0  0  0  # atno 17343 bound_to 10162
  157.5413  131.0941  150.9823 LP  0  0  0  0  0  0  0  0  0  0  0  0  # atno 17370 bound_to 10713
  157.0105  130.5635  149.5320 LP  0  0  0  0  0  0  0  0  0  0  0  0  # atno 17371 bound_to 10713
  140.3047  134.8135  157.4127 LP  0  0  0  0  0  0  0  0  0  0  0  0  # atno 17394 bound_to 11000
  140.1231  134.5193  155.8167 LP  0  0  0  0  0  0  0  0  0  0  0  0  # atno 17395 bound_to 11000

$$$$
