AV-unprocessed.smi:1177|AV-procd|sdf|4955|dock7
  -GOLD-   22720 3543D 1   1.00000     0.00000
 Structure written by MMmdl.
 31 32  0  0  0  0  0  0  0  0  2 V2000
  146.9701  141.7247  159.1235 O   0  0  0  0  0  0  0  0  0  0  0  0
  147.3627  142.6947  158.4741 C   0  0  0  0  0  0  0  0  0  0  0  0
  148.2711  142.6172  157.4913 N   0  0  0  0  0  0  0  0  0  0  0  0
  148.9194  141.3864  157.0542 C   0  0  0  0  0  0  0  0  0  0  0  0
  150.3265  141.6558  156.4945 C   0  0  0  0  0  0  0  0  0  0  0  0
  151.1788  142.4657  157.4513 C   0  0  0  0  0  0  0  0  0  0  0  0
  151.9884  141.8592  158.4363 C   0  0  0  0  0  0  0  0  0  0  0  0
  152.7535  142.6747  159.2962 C   0  0  0  0  0  0  0  0  0  0  0  0
  152.6911  144.0766  159.1550 C   0  0  0  0  0  0  0  0  0  0  0  0
  151.8642  144.6289  158.1555 C   0  0  0  0  0  0  0  0  0  0  0  0
  151.1474  143.8144  157.3503 N   0  3  0  0  0  0  0  0  0  0  0  0
  146.9418  143.9520  158.6646 N   0  0  0  0  0  0  0  0  0  0  0  0
  145.9838  144.3640  159.6390 C   0  0  0  0  0  0  0  0  0  0  0  0
  146.4123  145.4072  160.6481 C   0  0  0  0  0  0  0  0  0  0  0  0
  146.2363  143.9778  161.0804 C   0  0  0  0  0  0  0  0  0  0  0  0
  148.5309  143.4672  157.0121 H   0  0  0  0  0  0  0  0  0  0  0  0
  148.9631  140.6775  157.8828 H   0  0  0  0  0  0  0  0  0  0  0  0
  148.2955  140.9282  156.2863 H   0  0  0  0  0  0  0  0  0  0  0  0
  150.8286  140.7117  156.2784 H   0  0  0  0  0  0  0  0  0  0  0  0
  150.2634  142.1928  155.5469 H   0  0  0  0  0  0  0  0  0  0  0  0
  152.0238  140.7839  158.5342 H   0  0  0  0  0  0  0  0  0  0  0  0
  153.3797  142.2300  160.0558 H   0  0  0  0  0  0  0  0  0  0  0  0
  153.2689  144.7185  159.8039 H   0  0  0  0  0  0  0  0  0  0  0  0
  151.7550  145.6887  157.9773 H   0  0  0  0  0  0  0  0  0  0  0  0
  147.3273  144.6759  158.0758 H   0  0  0  0  0  0  0  0  0  0  0  0
  144.9399  144.4006  159.3299 H   0  0  0  0  0  0  0  0  0  0  0  0
  147.4292  145.7907  160.5851 H   0  0  0  0  0  0  0  0  0  0  0  0
  145.6637  146.1263  160.9740 H   0  0  0  0  0  0  0  0  0  0  0  0
  145.3697  143.7419  161.6949 H   0  0  0  0  0  0  0  0  0  0  0  0
  147.1356  143.4079  161.3061 H   0  0  0  0  0  0  0  0  0  0  0  0
  150.5551  144.2354  156.6336 H   0  0  0  0  0  0  0  0  0  0  0  0
  1  2  2  0  0  0  0
  2  3  1  0  0  0  0
  2 12  1  0  0  0  0
  3  4  1  0  0  0  0
  3 16  1  0  0  0  0
  4  5  1  0  0  0  0
  4 17  1  0  0  0  0
  4 18  1  0  0  0  0
  5  6  1  0  0  0  0
  5 19  1  0  0  0  0
  5 20  1  0  0  0  0
  6 11  1  0  0  0  0
  6  7  2  0  0  0  0
  7  8  1  0  0  0  0
  7 21  1  0  0  0  0
  8  9  2  0  0  0  0
  8 22  1  0  0  0  0
  9 10  1  0  0  0  0
  9 23  1  0  0  0  0
 10 11  2  0  0  0  0
 10 24  1  0  0  0  0
 11 31  1  0  0  0  0
 12 13  1  0  0  0  0
 12 25  1  0  0  0  0
 13 15  1  0  0  0  0
 13 14  1  0  0  0  0
 13 26  1  0  0  0  0
 14 15  1  0  0  0  0
 14 27  1  0  0  0  0
 14 28  1  0  0  0  0
 15 29  1  0  0  0  0
 15 30  1  0  0  0  0
M  CHG  1  11   1
M  END
> <s_m_source_file>
AV-unprocessed.smi

> <i_m_source_file_index>
1177

> <i_lp_mmshare_version>
43012

> <i_f3d_flags>
0

> <s_epik_input>
W0NIMl0xW0NIMl1bQ0hdMVtOSF1DKD1PKVtOSF1bQ0gyXVtDSDJdYzJbY0hdW2NIXVtjSF1bY0hdbjI=

> <s_epik_cmdline>
J2VwaWtfcHl0aG9uJywgJy1waCcsICc3LjAnLCAnLXRuJywgJzgnLCAnLW1hJywgJzIwMCcsICctbWV0YWxfYmluZGluZycsICctaW1hZScsICc8aW5maWxlLm1hZT4nLCAnLW9tYWUnLCAnPG91dGZpbGUubWFlPic=

> <r_epik_Ionization_Penalty>
1.56288

> <r_epik_Ionization_Penalty_Charging>
1.56282

> <r_epik_Ionization_Penalty_Neutral>
5.89877e-05

> <r_epik_State_Penalty>
1.65797

> <r_epik_Charging_Adjusted_Penalty>
3.22079

> <i_epik_Tot_Q>
1

> <i_epik_Tot_abs_Q>
1

> <r_epik_Metal_State_Penalty>
1.69932

> <b_epik_Metal_Only>
0

> <s_lp_Force_Field>
OPLS_2005

> <r_lp_Energy>
17.5296

> <b_lp_Chiralities_Consistent>
1

> <s_lp_Variant>
AV-unprocessed.smi:1177-2

> <Gold.Version>
5.8.1

> <Gold.Id.Protein>
6NUR|6NUR_protein|mol2

> <Gold.PLP.Fitness>
44.9784

> <Gold.PLP.PLP>
-32.3144

> <Gold.PLP.part.hbond>
-4.0439

> <Gold.PLP.part.metal>
0.0000

> <Gold.PLP.part.buried>
-4.1501

> <Gold.PLP.part.nonpolar>
-24.2682

> <Gold.PLP.part.repulsive>
0.1140

> <Gold.PLP.ligand.clash>
0.0000

> <Gold.PLP.ligand.torsion>
0.5995

> <Gold.PLP.Chemscore.Hbond>
4.6080

> <Gold.PLP.Chemscore.CHOScore>
0.0000

> <Gold.PLP.Chemscore.Metal>
0.0000

> <Gold.Chemscore.Hbonds>
donor molecule, donor type, donor heavy atom, donor atom, acceptor molecule, acceptor atom, score
      L1  H     3    16       P1  8028  0.90
      L1  H    11    31       P1  8028  2.00
      L1  H    12    25       P1  8029  1.00
      P1  H  6934  6946       L1     1  0.61

> <Gold.PLP.Chemscore.Internal.Correction>
0.0389

> <Gold.Rescore>
     Score         DG    S(hbond)    S(metal)    S(lipo)     H(rot)  DE(clash)    DE(int)     intcor
     19.47     -20.16       2.86        0.00      81.13       1.70       0.10       0.59       ----

> <Gold.Chemscore.Fitness>
19.4679

> <Gold.Chemscore.DG>
-20.1585

> <Gold.Chemscore.ZeroCoef>
-5.4800

> <Gold.Chemscore.Hbond>
2.8571

> <Gold.Chemscore.Metal>
0.0000

> <Gold.Chemscore.Lipo>
81.1318

> <Gold.Chemscore.Internal_Hbond>
0.0000

> <Gold.Chemscore.DEClash>
0.0997

> <Gold.Chemscore.DEInternal>
0.5909

> <Gold.Chemscore.Rot>
1.7019

> <Gold.Chemscore.Internal.Correction>
   9.000000E+99

> <Gold.Chemscore.Hbonds>
donor molecule, donor type, donor heavy atom, donor atom, acceptor molecule, acceptor atom, score
      L1  H     3    16       P1  8028  0.18
      L1  H    11    31       P1  8028  0.97
      L1  H    12    25       P1  8029  0.68
      P1  H  6934  6946       L1     1  0.60

> <Gold.Chemscore.Hbond.Weighted>
-9.5429

> <Gold.Chemscore.Metal.Weighted>
-0.0000

> <Gold.Chemscore.Lipo.Weighted>
-9.4924

> <Gold.Chemscore.Internal_Hbond.Weighted>
0.0000

> <Gold.Chemscore.DEClash.Weighted>
0.0997

> <Gold.Chemscore.DEInternal.Weighted>
0.5909

> <Gold.Chemscore.Rot.Weighted>
4.3568

> <Gold.Chemscore.Internal.Correction.Weighted>
   9.000000E+99

> <Gold.Protein.RotatedTorsions>
[ 6907 6896 6895 6894 ] final -101.50 input  -60.11 | X-H torsion
[ 7974 7965 7964 7962 ] final  -94.33 input  175.53 | X-H torsion
[ 8008 7997 7996 7995 ] final -153.59 input   59.86 | X-H torsion
[ 10167 10162 10161 10158 ] final  -71.42 input  -65.29 | X-H torsion
[ 10718 10713 10712 10709 ] final  -86.03 input   66.30 | X-H torsion
[ 10763 10752 10751 10750 ] final    8.84 input  -60.55 | X-H torsion
[ 11005 11000 10999 10996 ] final  160.32 input  -57.11 | X-H torsion

> <Gold.Protein.ActiveResidues>
 VAL166  LYS551  ARG553  GLY616  TRP617  ASP618  TYR619  PRO620  LYS621  CYS622 
 ASP623  PHE694  ASN695  SER759  ASP760  ASP761  ALA762  ILE779  LEU786  VAL792 
 PHE793  MET794  SER795  GLU796  ALA797  LYS798  CYS799  TRP800  GLU811  SER814 

> <Gold.Protein.RotatedAtoms>
  150.7157  134.0724  159.3868 H   0  0  0  0  0  0  0  0  0  0  0  0  # atno 6907 bound_to 6896
  151.8707  135.0488  160.0488 H   0  0  0  0  0  0  0  0  0  0  0  0  # atno 6908 bound_to 6896
  152.2645  133.5291  159.5438 H   0  0  0  0  0  0  0  0  0  0  0  0  # atno 6909 bound_to 6896
  145.3748  140.9510  143.2427 H   0  0  0  0  0  0  0  0  0  0  0  0  # atno 7974 bound_to 7965
  155.6731  140.0735  157.2512 H   0  0  0  0  0  0  0  0  0  0  0  0  # atno 8008 bound_to 7997
  154.4119  140.1695  156.1952 H   0  0  0  0  0  0  0  0  0  0  0  0  # atno 8009 bound_to 7997
  155.9599  140.3370  155.6484 H   0  0  0  0  0  0  0  0  0  0  0  0  # atno 8010 bound_to 7997
  140.5274  143.2325  151.7322 H   0  0  0  0  0  0  0  0  0  0  0  0  # atno 10167 bound_to 10162
  155.9992  130.4751  150.4653 H   0  0  0  0  0  0  0  0  0  0  0  0  # atno 10718 bound_to 10713
  153.2205  135.6880  153.8005 H   0  0  0  0  0  0  0  0  0  0  0  0  # atno 10763 bound_to 10752
  153.7206  135.3268  155.3266 H   0  0  0  0  0  0  0  0  0  0  0  0  # atno 10764 bound_to 10752
  154.8267  135.4612  154.1051 H   0  0  0  0  0  0  0  0  0  0  0  0  # atno 10765 bound_to 10752
  140.2048  134.8311  157.3057 H   0  0  0  0  0  0  0  0  0  0  0  0  # atno 11005 bound_to 11000
  144.8550  139.5263  143.6838 LP  0  0  0  0  0  0  0  0  0  0  0  0  # atno 17320 bound_to 7965
  146.2869  139.7029  142.9189 LP  0  0  0  0  0  0  0  0  0  0  0  0  # atno 17321 bound_to 7965
  139.4943  144.4165  152.0024 LP  0  0  0  0  0  0  0  0  0  0  0  0  # atno 17342 bound_to 10162
  140.3265  144.3367  150.5997 LP  0  0  0  0  0  0  0  0  0  0  0  0  # atno 17343 bound_to 10162
  157.2673  131.0579  151.2282 LP  0  0  0  0  0  0  0  0  0  0  0  0  # atno 17370 bound_to 10713
  157.3375  130.7016  149.6361 LP  0  0  0  0  0  0  0  0  0  0  0  0  # atno 17371 bound_to 10713
  140.2015  134.4249  155.7660 LP  0  0  0  0  0  0  0  0  0  0  0  0  # atno 17394 bound_to 11000
  141.2227  133.7074  156.8191 LP  0  0  0  0  0  0  0  0  0  0  0  0  # atno 17395 bound_to 11000

$$$$
