AV-unprocessed.smi:215|AV-procd|sdf|1654|dock7
  -GOLD-   2262020 43D 1   1.00000     0.00000
 Structure written by MMmdl.
 59 62  0  0  0  0  0  0  0  0  2 V2000
  145.7514  133.9592  152.8163 C   0  0  0  0  0  0  0  0  0  0  0  0
  144.3974  134.5375  153.2749 C   0  0  2  0  0  0  0  0  0  0  0  0
  143.1699  134.1137  152.4456 C   0  0  2  0  0  0  0  0  0  0  0  0
  143.4406  133.8512  150.9958 N   0  3  1  0  0  0  0  0  0  0  0  0
  144.2680  134.9245  150.3912 C   0  0  0  0  0  0  0  0  0  0  0  0
  143.9369  132.4826  150.6713 C   0  0  0  0  0  0  0  0  0  0  0  0
  143.9621  132.1869  149.1609 C   0  0  0  0  0  0  0  0  0  0  0  0
  142.6528  131.9654  148.6812 O   0  0  0  0  0  0  0  0  0  0  0  0
  142.1556  135.2357  152.7175 C   0  0  0  0  0  0  0  0  0  0  0  0
  142.9940  136.4674  153.0838 C   0  0  0  0  0  0  0  0  0  0  0  0
  144.3530  135.9979  153.3310 N   0  0  0  0  0  0  0  0  0  0  0  0
  145.0808  136.7031  154.2362 C   0  0  0  0  0  0  0  0  0  0  0  0
  144.8086  136.5897  155.5631 N   0  0  0  0  0  0  0  0  0  0  0  0
  145.5119  137.2849  156.4613 C   0  0  0  0  0  0  0  0  0  0  0  0
  146.5190  138.1343  156.2546 N   0  0  0  0  0  0  0  0  0  0  0  0
  146.8040  138.2494  154.9261 C   0  0  0  0  0  0  0  0  0  0  0  0
  146.1356  137.5831  153.8598 C   0  0  0  0  0  0  0  0  0  0  0  0
  146.6972  137.9581  152.6447 N   0  0  0  0  0  0  0  0  0  0  0  0
  147.6365  138.8029  152.9737 C   0  0  0  0  0  0  0  0  0  0  0  0
  147.7901  139.0122  154.3256 N   0  0  0  0  0  0  0  0  0  0  0  0
  148.7169  139.9028  154.9606 C   0  0  0  0  0  0  0  0  0  0  0  0
  148.9325  139.8820  156.4759 C   0  0  0  0  0  0  0  0  0  0  0  0
  149.1933  141.4045  156.4534 C   0  0  0  0  0  0  0  0  0  0  0  0
  148.5559  142.1948  157.6083 C   0  0  0  0  0  0  0  0  0  0  0  0
  148.5719  143.5839  157.3496 O   0  0  0  0  0  0  0  0  0  0  0  0
  150.6729  141.8161  156.3134 C   0  0  0  0  0  0  0  0  0  0  0  0
  150.8158  143.2211  156.2548 O   0  0  0  0  0  0  0  0  0  0  0  0
  148.3876  141.3870  155.1350 C   0  0  0  0  0  0  0  0  0  0  0  0
  144.2171  134.1799  154.2899 H   0  0  0  0  0  0  0  0  0  0  0  0
  142.8008  133.1808  152.8746 H   0  0  0  0  0  0  0  0  0  0  0  0
  145.6982  132.8744  152.7218 H   0  0  0  0  0  0  0  0  0  0  0  0
  146.5459  134.1802  153.5281 H   0  0  0  0  0  0  0  0  0  0  0  0
  146.0615  134.3650  151.8545 H   0  0  0  0  0  0  0  0  0  0  0  0
  145.2856  134.9041  150.7823 H   0  0  0  0  0  0  0  0  0  0  0  0
  143.8452  135.9078  150.5991 H   0  0  0  0  0  0  0  0  0  0  0  0
  144.3187  134.8332  149.3075 H   0  0  0  0  0  0  0  0  0  0  0  0
  144.9355  132.3464  151.0878 H   0  0  0  0  0  0  0  0  0  0  0  0
  143.3054  131.7286  151.1379 H   0  0  0  0  0  0  0  0  0  0  0  0
  144.4374  132.9818  148.5879 H   0  0  0  0  0  0  0  0  0  0  0  0
  144.5455  131.2840  148.9779 H   0  0  0  0  0  0  0  0  0  0  0  0
  142.1128  132.7020  148.9260 H   0  0  0  0  0  0  0  0  0  0  0  0
  141.4638  135.4218  151.8959 H   0  0  0  0  0  0  0  0  0  0  0  0
  141.5505  134.9594  153.5818 H   0  0  0  0  0  0  0  0  0  0  0  0
  143.0105  137.1729  152.2528 H   0  0  0  0  0  0  0  0  0  0  0  0
  142.5757  136.9824  153.9502 H   0  0  0  0  0  0  0  0  0  0  0  0
  145.2287  137.1377  157.4932 H   0  0  0  0  0  0  0  0  0  0  0  0
  148.2526  139.2917  152.2327 H   0  0  0  0  0  0  0  0  0  0  0  0
  149.6641  139.7776  154.4335 H   0  0  0  0  0  0  0  0  0  0  0  0
  148.0265  139.6168  157.0246 H   0  0  0  0  0  0  0  0  0  0  0  0
  149.7782  139.2766  156.8037 H   0  0  0  0  0  0  0  0  0  0  0  0
  147.5288  141.8794  157.7933 H   0  0  0  0  0  0  0  0  0  0  0  0
  149.0985  142.0251  158.5385 H   0  0  0  0  0  0  0  0  0  0  0  0
  148.7051  143.7146  156.4231 H   0  0  0  0  0  0  0  0  0  0  0  0
  151.2730  141.4372  157.1409 H   0  0  0  0  0  0  0  0  0  0  0  0
  151.1138  141.4002  155.4073 H   0  0  0  0  0  0  0  0  0  0  0  0
  150.0325  143.5863  155.8724 H   0  0  0  0  0  0  0  0  0  0  0  0
  148.7774  142.0287  154.3444 H   0  0  0  0  0  0  0  0  0  0  0  0
  147.3201  141.5601  155.2836 H   0  0  0  0  0  0  0  0  0  0  0  0
  142.5378  133.9217  150.5476 H   0  0  0  0  0  0  0  0  0  0  0  0
  1  2  1  0  0  0  0
  1 31  1  0  0  0  0
  1 32  1  0  0  0  0
  1 33  1  0  0  0  0
  2 29  1  0  0  0  0
  2 11  1  0  0  0  0
  2  3  1  0  0  0  0
  3 30  1  0  0  0  0
  3  4  1  0  0  0  0
  3  9  1  0  0  0  0
  4  5  1  0  0  0  0
  4  6  1  0  0  0  0
  4 59  1  0  0  0  0
  5 34  1  0  0  0  0
  5 35  1  0  0  0  0
  5 36  1  0  0  0  0
  6  7  1  0  0  0  0
  6 37  1  0  0  0  0
  6 38  1  0  0  0  0
  7  8  1  0  0  0  0
  7 39  1  0  0  0  0
  7 40  1  0  0  0  0
  8 41  1  0  0  0  0
  9 10  1  0  0  0  0
  9 42  1  0  0  0  0
  9 43  1  0  0  0  0
 10 11  1  0  0  0  0
 10 44  1  0  0  0  0
 10 45  1  0  0  0  0
 11 12  1  0  0  0  0
 12 17  1  0  0  0  0
 12 13  2  0  0  0  0
 13 14  1  0  0  0  0
 14 15  2  0  0  0  0
 14 46  1  0  0  0  0
 15 16  1  0  0  0  0
 16 20  1  0  0  0  0
 16 17  2  0  0  0  0
 17 18  1  0  0  0  0
 18 19  2  0  0  0  0
 19 20  1  0  0  0  0
 19 47  1  0  0  0  0
 20 21  1  0  0  0  0
 21 28  1  0  0  0  0
 21 22  1  0  0  0  0
 21 48  1  0  0  0  0
 22 23  1  0  0  0  0
 22 49  1  0  0  0  0
 22 50  1  0  0  0  0
 23 24  1  0  0  0  0
 23 26  1  0  0  0  0
 23 28  1  0  0  0  0
 24 25  1  0  0  0  0
 24 51  1  0  0  0  0
 24 52  1  0  0  0  0
 25 53  1  0  0  0  0
 26 27  1  0  0  0  0
 26 54  1  0  0  0  0
 26 55  1  0  0  0  0
 27 56  1  0  0  0  0
 28 57  1  0  0  0  0
 28 58  1  0  0  0  0
M  CHG  1   4   1
M  END
> <s_m_source_file>
AV-unprocessed.smi

> <i_m_source_file_index>
215

> <i_lp_mmshare_version>
43012

> <i_f3d_flags>
0

> <s_epik_input>
W09IXVtDSDJdW0NIMl1OKFtDSDNdKVtDQEBIXShbQ0BIXTFbQ0gzXSlbQ0gyXVtDSDJdTjFjKG5bY0hdbjIpYyhjMjMpbltjSF1uM1tDSF0oW0NIMl00KVtDSDJdQzQoW0NIMl1bT0hdKVtDSDJdW09IXQ==

> <s_epik_cmdline>
J2VwaWtfcHl0aG9uJywgJy1waCcsICc3LjAnLCAnLXRuJywgJzgnLCAnLW1hJywgJzIwMCcsICctbWV0YWxfYmluZGluZycsICctaW1hZScsICc8aW5maWxlLm1hZT4nLCAnLW9tYWUnLCAnPG91dGZpbGUubWFlPic=

> <r_lp_tautomer_probability>
1

> <r_epik_Ionization_Penalty>
0.0036237

> <r_epik_Ionization_Penalty_Charging>
0.0032725

> <r_epik_Ionization_Penalty_Neutral>
0.000351196

> <r_epik_State_Penalty>
-0

> <r_epik_Charging_Adjusted_Penalty>
0.0032725

> <i_epik_Tot_Q>
1

> <i_epik_Tot_abs_Q>
1

> <r_epik_Metal_State_Penalty>
-0

> <b_epik_Metal_Only>
0

> <s_lp_Force_Field>
OPLS_2005

> <r_lp_Energy>
70.2974

> <b_lp_Chiralities_Consistent>
1

> <s_lp_Variant>
AV-unprocessed.smi:215-5

> <Gold.Version>
5.8.1

> <Gold.Id.Protein>
6NUR|6NUR_protein|mol2

> <Gold.PLP.Fitness>
54.7133

> <Gold.PLP.PLP>
-38.3148

> <Gold.PLP.part.hbond>
-7.0367

> <Gold.PLP.part.metal>
0.0000

> <Gold.PLP.part.buried>
-6.4395

> <Gold.PLP.part.nonpolar>
-26.5385

> <Gold.PLP.part.repulsive>
0.3429

> <Gold.PLP.ligand.clash>
0.0000

> <Gold.PLP.ligand.torsion>
1.3086

> <Gold.PLP.Chemscore.Hbond>
5.0175

> <Gold.PLP.Chemscore.CHOScore>
0.9945

> <Gold.PLP.Chemscore.Metal>
0.0000

> <Gold.Chemscore.Hbonds>
donor molecule, donor type, donor heavy atom, donor atom, acceptor molecule, acceptor atom, score
      L1  H     4    59       P1 10186  2.00
      L1  H     8    41       P1 10186  0.78
      L1  H    25    53       P1  8028  0.22
      L1  H    27    56       P1  8028  1.00
      P1  H 10785 10796       L1     8  0.20
      L1  C    19    47       P1  7957  0.59

> <Gold.PLP.Chemscore.Internal.Correction>
0.9797

> <Gold.Rescore>
     Score         DG    S(hbond)    S(metal)    S(lipo)     H(rot)  DE(clash)    DE(int)     intcor
      8.46     -11.55       3.05        0.00      70.08       4.81       0.17       2.92       ----

> <Gold.Chemscore.Fitness>
8.4646

> <Gold.Chemscore.DG>
-11.5545

> <Gold.Chemscore.ZeroCoef>
-5.4800

> <Gold.Chemscore.Hbond>
3.0505

> <Gold.Chemscore.Metal>
0.0000

> <Gold.Chemscore.Lipo>
70.0772

> <Gold.Chemscore.Internal_Hbond>
0.0000

> <Gold.Chemscore.DEClash>
0.1671

> <Gold.Chemscore.DEInternal>
2.9229

> <Gold.Chemscore.Rot>
4.8098

> <Gold.Chemscore.Internal.Correction>
   9.000000E+99

> <Gold.Chemscore.Hbonds>
donor molecule, donor type, donor heavy atom, donor atom, acceptor molecule, acceptor atom, score
      L1  H     4    59       P1 10186  0.88
      L1  H     8    41       P1 10186  0.77
      L1  H    25    53       P1  8028  0.15
      L1  H    27    56       P1  8028  0.97

> <Gold.Chemscore.Hbond.Weighted>
-10.1885

> <Gold.Chemscore.Metal.Weighted>
-0.0000

> <Gold.Chemscore.Lipo.Weighted>
-8.1990

> <Gold.Chemscore.Internal_Hbond.Weighted>
0.0000

> <Gold.Chemscore.DEClash.Weighted>
0.1671

> <Gold.Chemscore.DEInternal.Weighted>
2.9229

> <Gold.Chemscore.Rot.Weighted>
12.3130

> <Gold.Chemscore.Internal.Correction.Weighted>
   9.000000E+99

> <Gold.Protein.RotatedTorsions>
[ 6907 6896 6895 6894 ] final  -49.02 input  -60.11 | X-H torsion
[ 7974 7965 7964 7962 ] final  -40.21 input  175.53 | X-H torsion
[ 8008 7997 7996 7995 ] final   76.98 input   59.86 | X-H torsion
[ 10167 10162 10161 10158 ] final   75.30 input  -65.29 | X-H torsion
[ 10718 10713 10712 10709 ] final   96.69 input   66.30 | X-H torsion
[ 10763 10752 10751 10750 ] final  166.60 input  -60.55 | X-H torsion
[ 11005 11000 10999 10996 ] final   76.52 input  -57.11 | X-H torsion

> <Gold.Protein.ActiveResidues>
 VAL166  LYS551  ARG553  GLY616  TRP617  ASP618  TYR619  PRO620  LYS621  CYS622 
 ASP623  PHE694  ASN695  SER759  ASP760  ASP761  ALA762  ILE779  LEU786  VAL792 
 PHE793  MET794  SER795  GLU796  ALA797  LYS798  CYS799  TRP800  GLU811  SER814 

> <Gold.Protein.RotatedAtoms>
  150.8847  134.8243  159.7250 H   0  0  0  0  0  0  0  0  0  0  0  0  # atno 6907 bound_to 6896
  152.4800  134.4741  159.9654 H   0  0  0  0  0  0  0  0  0  0  0  0  # atno 6908 bound_to 6896
  151.4811  133.3507  159.2874 H   0  0  0  0  0  0  0  0  0  0  0  0  # atno 6909 bound_to 6896
  146.0325  140.6713  142.9126 H   0  0  0  0  0  0  0  0  0  0  0  0  # atno 7974 bound_to 7965
  155.8351  140.3464  155.5596 H   0  0  0  0  0  0  0  0  0  0  0  0  # atno 8008 bound_to 7997
  155.8201  140.0911  157.1874 H   0  0  0  0  0  0  0  0  0  0  0  0  # atno 8009 bound_to 7997
  154.4004  140.1431  156.3477 H   0  0  0  0  0  0  0  0  0  0  0  0  # atno 8010 bound_to 7997
  140.0044  144.5662  150.7710 H   0  0  0  0  0  0  0  0  0  0  0  0  # atno 10167 bound_to 10162
  157.6923  131.0586  150.4530 H   0  0  0  0  0  0  0  0  0  0  0  0  # atno 10718 bound_to 10713
  154.3413  135.2754  155.2421 H   0  0  0  0  0  0  0  0  0  0  0  0  # atno 10763 bound_to 10752
  154.4690  135.5888  153.6312 H   0  0  0  0  0  0  0  0  0  0  0  0  # atno 10764 bound_to 10752
  152.9857  135.6083  154.3615 H   0  0  0  0  0  0  0  0  0  0  0  0  # atno 10765 bound_to 10752
  139.9295  134.7607  156.1406 H   0  0  0  0  0  0  0  0  0  0  0  0  # atno 11005 bound_to 11000
  144.7037  140.3762  143.7135 LP  0  0  0  0  0  0  0  0  0  0  0  0  # atno 17320 bound_to 7965
  145.7017  139.1663  143.2589 LP  0  0  0  0  0  0  0  0  0  0  0  0  # atno 17321 bound_to 7965
  140.7406  143.2807  151.3608 LP  0  0  0  0  0  0  0  0  0  0  0  0  # atno 17342 bound_to 10162
  139.6249  144.0834  152.2425 LP  0  0  0  0  0  0  0  0  0  0  0  0  # atno 17343 bound_to 10162
  156.4880  130.4088  149.6423 LP  0  0  0  0  0  0  0  0  0  0  0  0  # atno 17370 bound_to 10713
  156.3444  130.7399  151.2349 LP  0  0  0  0  0  0  0  0  0  0  0  0  # atno 17371 bound_to 10713
  141.0874  133.6728  156.2466 LP  0  0  0  0  0  0  0  0  0  0  0  0  # atno 17394 bound_to 11000
  140.6243  134.5330  157.5551 LP  0  0  0  0  0  0  0  0  0  0  0  0  # atno 17395 bound_to 11000

$$$$
