AV-unprocessed.smi:3335|AV-procd|sdf|12846|dock3
  -GOLD-   2272019233D 1   1.00000     0.00000
 Structure written by MMmdl.
 46 47  0  0  0  0  0  0  0  0  1 V2000
  146.6196  133.9176  162.2955 C   0  0  0  0  0  0  0  0  0  0  0  0
  147.3031  134.9631  161.4625 C   0  0  0  0  0  0  0  0  0  0  0  0
  147.1932  136.3780  161.5699 C   0  0  0  0  0  0  0  0  0  0  0  0
  147.9382  137.0190  160.6854 N   0  0  0  0  0  0  0  0  0  0  0  0
  148.5458  136.0419  159.9744 N   0  0  0  0  0  0  0  0  0  0  0  0
  149.4896  136.3684  158.9073 C   0  0  1  0  0  0  0  0  0  0  0  0
  149.2245  135.5558  157.6240 C   0  0  0  0  0  0  0  0  0  0  0  0
  149.6195  137.8932  158.6424 C   0  0  2  0  0  0  0  0  0  0  0  0
  148.4778  138.4603  157.7805 C   0  0  0  0  0  0  0  0  0  0  0  0
  150.8825  138.1890  157.9683 N   0  0  0  0  0  0  0  0  0  0  0  0
  151.0787  139.6073  157.6268 C   0  0  2  0  0  0  0  0  0  0  0  0
  151.9776  139.7645  156.3858 C   0  0  0  0  0  0  0  0  0  0  0  0
  151.6985  140.3648  158.8181 C   0  0  0  0  0  0  0  0  0  0  0  0
  152.2182  139.7191  159.7305 O   0  0  0  0  0  0  0  0  0  0  0  0
  151.6644  141.7157  158.8366 N   0  0  0  0  0  0  0  0  0  0  0  0
  151.0830  142.5143  157.7586 C   0  0  0  0  0  0  0  0  0  0  0  0
  151.4514  143.9656  158.0667 C   0  0  0  0  0  0  0  0  0  0  0  0
  151.6464  143.9855  159.5757 C   0  0  0  0  0  0  0  0  0  0  0  0
  152.1622  142.5843  159.9037 C   0  0  0  0  0  0  0  0  0  0  0  0
  148.1813  134.7915  160.4305 C   0  0  0  0  0  0  0  0  0  0  0  0
  145.8149  134.3401  162.8975 H   0  0  0  0  0  0  0  0  0  0  0  0
  147.3150  133.4347  162.9821 H   0  0  0  0  0  0  0  0  0  0  0  0
  146.1805  133.1343  161.6773 H   0  0  0  0  0  0  0  0  0  0  0  0
  146.6000  136.9551  162.2637 H   0  0  0  0  0  0  0  0  0  0  0  0
  150.4653  136.0381  159.2669 H   0  0  0  0  0  0  0  0  0  0  0  0
  149.9979  135.7423  156.8786 H   0  0  0  0  0  0  0  0  0  0  0  0
  148.2655  135.8085  157.1703 H   0  0  0  0  0  0  0  0  0  0  0  0
  149.2201  134.4857  157.8326 H   0  0  0  0  0  0  0  0  0  0  0  0
  149.5794  138.3924  159.6117 H   0  0  0  0  0  0  0  0  0  0  0  0
  147.5075  138.2439  158.2280 H   0  0  0  0  0  0  0  0  0  0  0  0
  148.4803  138.0416  156.7737 H   0  0  0  0  0  0  0  0  0  0  0  0
  148.5565  139.5433  157.6835 H   0  0  0  0  0  0  0  0  0  0  0  0
  151.0067  137.5838  157.1691 H   0  0  0  0  0  0  0  0  0  0  0  0
  150.0974  140.0305  157.4144 H   0  0  0  0  0  0  0  0  0  0  0  0
  152.1695  140.8148  156.1642 H   0  0  0  0  0  0  0  0  0  0  0  0
  151.5155  139.3324  155.4984 H   0  0  0  0  0  0  0  0  0  0  0  0
  152.9423  139.2754  156.5275 H   0  0  0  0  0  0  0  0  0  0  0  0
  151.4545  142.2115  156.7782 H   0  0  0  0  0  0  0  0  0  0  0  0
  149.9997  142.3848  157.7658 H   0  0  0  0  0  0  0  0  0  0  0  0
  152.3916  144.2174  157.5741 H   0  0  0  0  0  0  0  0  0  0  0  0
  150.6959  144.6748  157.7274 H   0  0  0  0  0  0  0  0  0  0  0  0
  152.3241  144.7736  159.9054 H   0  0  0  0  0  0  0  0  0  0  0  0
  150.6845  144.1448  160.0650 H   0  0  0  0  0  0  0  0  0  0  0  0
  151.8230  142.2655  160.8899 H   0  0  0  0  0  0  0  0  0  0  0  0
  153.2530  142.5708  159.8944 H   0  0  0  0  0  0  0  0  0  0  0  0
  148.5783  133.8890  159.9891 H   0  0  0  0  0  0  0  0  0  0  0  0
  1  2  1  0  0  0  0
  1 21  1  0  0  0  0
  1 22  1  0  0  0  0
  1 23  1  0  0  0  0
  2 20  2  0  0  0  0
  2  3  1  0  0  0  0
  3  4  2  0  0  0  0
  3 24  1  0  0  0  0
  4  5  1  0  0  0  0
  5  6  1  0  0  0  0
  5 20  1  0  0  0  0
  6  7  1  0  0  0  0
  6  8  1  0  0  0  0
  6 25  1  0  0  0  0
  7 26  1  0  0  0  0
  7 27  1  0  0  0  0
  7 28  1  0  0  0  0
  8  9  1  0  0  0  0
  8 10  1  0  0  0  0
  8 29  1  0  0  0  0
  9 30  1  0  0  0  0
  9 31  1  0  0  0  0
  9 32  1  0  0  0  0
 10 11  1  0  0  0  0
 10 33  1  0  0  0  0
 11 12  1  0  0  0  0
 11 13  1  0  0  0  0
 11 34  1  0  0  0  0
 12 35  1  0  0  0  0
 12 36  1  0  0  0  0
 12 37  1  0  0  0  0
 13 14  2  0  0  0  0
 13 15  1  0  0  0  0
 15 19  1  0  0  0  0
 15 16  1  0  0  0  0
 16 17  1  0  0  0  0
 16 38  1  0  0  0  0
 16 39  1  0  0  0  0
 17 18  1  0  0  0  0
 17 40  1  0  0  0  0
 17 41  1  0  0  0  0
 18 19  1  0  0  0  0
 18 42  1  0  0  0  0
 18 43  1  0  0  0  0
 19 44  1  0  0  0  0
 19 45  1  0  0  0  0
 20 46  1  0  0  0  0
M  END
> <s_m_source_file>
AV-unprocessed.smi

> <i_m_source_file_index>
3335

> <i_lp_mmshare_version>
43012

> <i_f3d_flags>
0

> <s_epik_input>
W0NIM11jMVtjSF1ubihbY0hdMSlbQ0BIXShbQ0gzXSlbQ0BIXShbQ0gzXSlbTkhdW0NASF0oW0NIM10pQyg9TylOMltDSDJdW0NIMl1bQ0gyXVtDSDJdMg==

> <s_epik_cmdline>
J2VwaWtfcHl0aG9uJywgJy1waCcsICc3LjAnLCAnLXRuJywgJzgnLCAnLW1hJywgJzIwMCcsICctbWV0YWxfYmluZGluZycsICctaW1hZScsICc8aW5maWxlLm1hZT4nLCAnLW9tYWUnLCAnPG91dGZpbGUubWFlPic=

> <r_lp_tautomer_probability>
1

> <r_epik_Ionization_Penalty>
0.918803

> <r_epik_Ionization_Penalty_Charging>
0

> <r_epik_Ionization_Penalty_Neutral>
0.918803

> <r_epik_State_Penalty>
0.958258

> <r_epik_Charging_Adjusted_Penalty>
0.958258

> <i_epik_Tot_Q>
0

> <i_epik_Tot_abs_Q>
0

> <r_epik_Metal_State_Penalty>
0.956786

> <b_epik_Metal_Only>
0

> <s_lp_Force_Field>
OPLS_2005

> <r_lp_Energy>
40.4571

> <b_lp_Chiralities_Consistent>
1

> <s_lp_Variant>
AV-unprocessed.smi:3335-10

> <Gold.Version>
5.8.1

> <Gold.Id.Protein>
6NUR|6NUR_protein|mol2

> <Gold.PLP.Fitness>
43.9338

> <Gold.PLP.PLP>
-41.2168

> <Gold.PLP.part.hbond>
-2.0000

> <Gold.PLP.part.metal>
0.0000

> <Gold.PLP.part.buried>
-4.4634

> <Gold.PLP.part.nonpolar>
-35.4822

> <Gold.PLP.part.repulsive>
0.0000

> <Gold.PLP.ligand.clash>
0.0000

> <Gold.PLP.ligand.torsion>
1.0939

> <Gold.PLP.Chemscore.Hbond>
1.5712

> <Gold.PLP.Chemscore.CHOScore>
0.0000

> <Gold.PLP.Chemscore.Metal>
0.0000

> <Gold.Chemscore.Hbonds>
donor molecule, donor type, donor heavy atom, donor atom, acceptor molecule, acceptor atom, score
      P1  H  6931  6943       L1     4  0.86
      P1  H  6934  6947       L1     4  0.57

> <Gold.PLP.Chemscore.Internal.Correction>
0.1911

> <Gold.Rescore>
     Score         DG    S(hbond)    S(metal)    S(lipo)     H(rot)  DE(clash)    DE(int)     intcor
     13.88     -14.92       0.78        0.00      94.00       1.62       0.08       0.97       ----

> <Gold.Chemscore.Fitness>
13.8764

> <Gold.Chemscore.DG>
-14.9246

> <Gold.Chemscore.ZeroCoef>
-5.4800

> <Gold.Chemscore.Hbond>
0.7768

> <Gold.Chemscore.Metal>
0.0000

> <Gold.Chemscore.Lipo>
94.0019

> <Gold.Chemscore.Internal_Hbond>
0.0000

> <Gold.Chemscore.DEClash>
0.0801

> <Gold.Chemscore.DEInternal>
0.9682

> <Gold.Chemscore.Rot>
1.6204

> <Gold.Chemscore.Internal.Correction>
   9.000000E+99

> <Gold.Chemscore.Hbonds>
donor molecule, donor type, donor heavy atom, donor atom, acceptor molecule, acceptor atom, score
      P1  H  6931  6943       L1     4  0.27
      P1  H  6934  6947       L1     4  0.17

> <Gold.Chemscore.Hbond.Weighted>
-2.5945

> <Gold.Chemscore.Metal.Weighted>
-0.0000

> <Gold.Chemscore.Lipo.Weighted>
-10.9982

> <Gold.Chemscore.Internal_Hbond.Weighted>
0.0000

> <Gold.Chemscore.DEClash.Weighted>
0.0801

> <Gold.Chemscore.DEInternal.Weighted>
0.9682

> <Gold.Chemscore.Rot.Weighted>
4.1482

> <Gold.Chemscore.Internal.Correction.Weighted>
   9.000000E+99

> <Gold.Protein.RotatedTorsions>
[ 6907 6896 6895 6894 ] final -171.65 input  -60.11 | X-H torsion
[ 7974 7965 7964 7962 ] final  159.28 input  175.53 | X-H torsion
[ 8008 7997 7996 7995 ] final   52.20 input   59.86 | X-H torsion
[ 10167 10162 10161 10158 ] final -111.49 input  -65.29 | X-H torsion
[ 10718 10713 10712 10709 ] final   50.47 input   66.30 | X-H torsion
[ 10763 10752 10751 10750 ] final  -89.59 input  -60.55 | X-H torsion
[ 11005 11000 10999 10996 ] final -157.17 input  -57.11 | X-H torsion

> <Gold.Protein.ActiveResidues>
 VAL166  LYS551  ARG553  GLY616  TRP617  ASP618  TYR619  PRO620  LYS621  CYS622 
 ASP623  PHE694  ASN695  SER759  ASP760  ASP761  ALA762  ILE779  LEU786  VAL792 
 PHE793  MET794  SER795  GLU796  ALA797  LYS798  CYS799  TRP800  GLU811  SER814 

> <Gold.Protein.RotatedAtoms>
  151.5272  133.3455  159.2911 H   0  0  0  0  0  0  0  0  0  0  0  0  # atno 6907 bound_to 6896
  150.8615  134.7971  159.7098 H   0  0  0  0  0  0  0  0  0  0  0  0  # atno 6908 bound_to 6896
  152.4633  134.5142  159.9815 H   0  0  0  0  0  0  0  0  0  0  0  0  # atno 6909 bound_to 6896
  144.7799  139.7595  143.6264 H   0  0  0  0  0  0  0  0  0  0  0  0  # atno 7974 bound_to 7965
  155.4479  140.3457  155.4297 H   0  0  0  0  0  0  0  0  0  0  0  0  # atno 8008 bound_to 7997
  156.1238  140.1495  156.9195 H   0  0  0  0  0  0  0  0  0  0  0  0  # atno 8009 bound_to 7997
  154.4843  140.0860  156.7430 H   0  0  0  0  0  0  0  0  0  0  0  0  # atno 8010 bound_to 7997
  140.1330  143.4344  152.1614 H   0  0  0  0  0  0  0  0  0  0  0  0  # atno 10167 bound_to 10162
  157.4888  130.8362  149.8178 H   0  0  0  0  0  0  0  0  0  0  0  0  # atno 10718 bound_to 10713
  154.6569  135.5335  153.7970 H   0  0  0  0  0  0  0  0  0  0  0  0  # atno 10763 bound_to 10752
  153.0419  135.6496  154.0931 H   0  0  0  0  0  0  0  0  0  0  0  0  # atno 10764 bound_to 10752
  154.0844  135.2944  155.3264 H   0  0  0  0  0  0  0  0  0  0  0  0  # atno 10765 bound_to 10752
  140.6675  134.4282  157.5233 H   0  0  0  0  0  0  0  0  0  0  0  0  # atno 11005 bound_to 11000
  146.2001  139.5291  142.9749 LP  0  0  0  0  0  0  0  0  0  0  0  0  # atno 17320 bound_to 7965
  145.6080  141.0344  143.1982 LP  0  0  0  0  0  0  0  0  0  0  0  0  # atno 17321 bound_to 7965
  139.5510  144.7337  151.4436 LP  0  0  0  0  0  0  0  0  0  0  0  0  # atno 17342 bound_to 10162
  140.6806  143.8091  150.7116 LP  0  0  0  0  0  0  0  0  0  0  0  0  # atno 17343 bound_to 10162
  156.0162  130.3813  150.2105 LP  0  0  0  0  0  0  0  0  0  0  0  0  # atno 17370 bound_to 10713
  157.0293  131.0002  151.3317 LP  0  0  0  0  0  0  0  0  0  0  0  0  # atno 17371 bound_to 10713
  139.8992  134.8596  156.1969 LP  0  0  0  0  0  0  0  0  0  0  0  0  # atno 17394 bound_to 11000
  141.0417  133.6934  156.1610 LP  0  0  0  0  0  0  0  0  0  0  0  0  # atno 17395 bound_to 11000

$$$$
