AV-unprocessed.smi:1809|AV-procd|sdf|7332|dock5
  -GOLD-   22720 8593D 1   1.00000     0.00000
 Structure written by MMmdl.
 38 40  0  0  0  0  0  0  0  0  2 V2000
  145.2702  133.3696  162.5890 C   0  0  0  0  0  0  0  0  0  0  0  0
  145.9975  134.3417  161.7244 C   0  0  0  0  0  0  0  0  0  0  0  0
  145.8890  134.3460  160.3935 N   0  0  0  0  0  0  0  0  0  0  0  0
  146.6597  135.3412  159.8095 N   0  0  0  0  0  0  0  0  0  0  0  0
  147.3300  136.0805  160.7049 C   0  0  0  0  0  0  0  0  0  0  0  0
  148.1375  137.0920  160.3453 N   0  5  0  0  0  0  0  0  0  0  0  0
  148.9759  136.9470  159.2939 C   0  0  0  0  0  0  0  0  0  0  0  0
  149.4071  135.8827  158.8437 O   0  0  0  0  0  0  0  0  0  0  0  0
  149.3367  138.1052  158.7265 N   0  0  0  0  0  0  0  0  0  0  0  0
  150.2260  138.2360  157.5794 C   0  0  0  0  0  0  0  0  0  0  0  0
  151.3189  139.2784  157.8528 C   0  0  1  0  0  0  0  0  0  0  0  0
  150.7474  140.7149  157.8847 C   0  0  0  0  0  0  0  0  0  0  0  0
  151.7845  141.6522  158.2719 N   0  0  0  0  0  0  0  0  0  0  0  0
  151.3927  143.0335  158.4287 C   0  0  0  0  0  0  0  0  0  0  0  0
  152.5509  143.6682  159.2190 C   0  0  0  0  0  0  0  0  0  0  0  0
  153.2608  142.4712  159.8907 C   0  0  0  0  0  0  0  0  0  0  0  0
  152.3398  141.2984  159.5503 C   0  0  2  0  0  0  0  0  0  0  0  0
  152.9592  139.8947  159.5033 C   0  0  0  0  0  0  0  0  0  0  0  0
  151.9352  138.9772  159.1123 O   0  0  0  0  0  0  0  0  0  0  0  0
  147.0645  135.5752  162.3736 S   0  0  0  0  0  0  0  0  0  0  0  0
  144.2207  133.6536  162.6671 H   0  0  0  0  0  0  0  0  0  0  0  0
  145.7041  133.3536  163.5890 H   0  0  0  0  0  0  0  0  0  0  0  0
  145.3336  132.3668  162.1659 H   0  0  0  0  0  0  0  0  0  0  0  0
  148.9613  138.9570  159.1171 H   0  0  0  0  0  0  0  0  0  0  0  0
  150.6799  137.2650  157.3758 H   0  0  0  0  0  0  0  0  0  0  0  0
  149.6514  138.5162  156.6953 H   0  0  0  0  0  0  0  0  0  0  0  0
  152.0771  139.2154  157.0701 H   0  0  0  0  0  0  0  0  0  0  0  0
  150.3501  140.9840  156.9056 H   0  0  0  0  0  0  0  0  0  0  0  0
  149.9165  140.7669  158.5901 H   0  0  0  0  0  0  0  0  0  0  0  0
  151.2252  143.5169  157.4660 H   0  0  0  0  0  0  0  0  0  0  0  0
  150.4692  143.0995  159.0065 H   0  0  0  0  0  0  0  0  0  0  0  0
  153.2382  144.1906  158.5527 H   0  0  0  0  0  0  0  0  0  0  0  0
  152.1805  144.3879  159.9497 H   0  0  0  0  0  0  0  0  0  0  0  0
  154.2494  142.3260  159.4530 H   0  0  0  0  0  0  0  0  0  0  0  0
  153.3811  142.6014  160.9666 H   0  0  0  0  0  0  0  0  0  0  0  0
  151.5368  141.2846  160.2905 H   0  0  0  0  0  0  0  0  0  0  0  0
  153.7892  139.8510  158.7962 H   0  0  0  0  0  0  0  0  0  0  0  0
  153.3464  139.6093  160.4816 H   0  0  0  0  0  0  0  0  0  0  0  0
  1  2  1  0  0  0  0
  1 21  1  0  0  0  0
  1 22  1  0  0  0  0
  1 23  1  0  0  0  0
  2 20  1  0  0  0  0
  2  3  2  0  0  0  0
  3  4  1  0  0  0  0
  4  5  2  0  0  0  0
  5  6  1  0  0  0  0
  5 20  1  0  0  0  0
  6  7  1  0  0  0  0
  7  8  2  0  0  0  0
  7  9  1  0  0  0  0
  9 10  1  0  0  0  0
  9 24  1  0  0  0  0
 10 11  1  0  0  0  0
 10 25  1  0  0  0  0
 10 26  1  0  0  0  0
 11 19  1  0  0  0  0
 11 12  1  0  0  0  0
 11 27  1  0  0  0  0
 12 13  1  0  0  0  0
 12 28  1  0  0  0  0
 12 29  1  0  0  0  0
 13 17  1  0  0  0  0
 13 14  1  0  0  0  0
 14 15  1  0  0  0  0
 14 30  1  0  0  0  0
 14 31  1  0  0  0  0
 15 16  1  0  0  0  0
 15 32  1  0  0  0  0
 15 33  1  0  0  0  0
 16 17  1  0  0  0  0
 16 34  1  0  0  0  0
 16 35  1  0  0  0  0
 17 18  1  0  0  0  0
 17 36  1  0  0  0  0
 18 19  1  0  0  0  0
 18 37  1  0  0  0  0
 18 38  1  0  0  0  0
M  CHG  1   6  -1
M  END
> <s_m_source_file>
AV-unprocessed.smi

> <i_m_source_file_index>
1809

> <i_lp_mmshare_version>
43012

> <i_f3d_flags>
0

> <s_epik_input>
W0NIM11jMW5uYyhzMSlbTkhdQyg9TylbTkhdW0NIMl1bQ0BIXShbQ0gyXTIpT1tDSDJdW0NAQEhdKE4yMylbQ0gyXVtDSDJdW0NIMl0z

> <s_epik_cmdline>
J2VwaWtfcHl0aG9uJywgJy1waCcsICc3LjAnLCAnLXRuJywgJzgnLCAnLW1hJywgJzIwMCcsICctbWV0YWxfYmluZGluZycsICctaW1hZScsICc8aW5maWxlLm1hZT4nLCAnLW9tYWUnLCAnPG91dGZpbGUubWFlPic=

> <r_lp_tautomer_probability>
1

> <r_epik_Ionization_Penalty>
4.48809

> <r_epik_Ionization_Penalty_Charging>
3.27284

> <r_epik_Ionization_Penalty_Neutral>
1.21525

> <r_epik_State_Penalty>
4.69427

> <r_epik_Charging_Adjusted_Penalty>
7.96711

> <i_epik_Tot_Q>
-1

> <i_epik_Tot_abs_Q>
1

> <r_epik_Metal_State_Penalty>
1.91976

> <b_epik_Metal_Only>
1

> <s_lp_Force_Field>
OPLS_2005

> <r_lp_Energy>
45.7242

> <b_lp_Chiralities_Consistent>
1

> <s_lp_Variant>
AV-unprocessed.smi:1809-24

> <Gold.Version>
5.8.1

> <Gold.Id.Protein>
6NUR|6NUR_protein|mol2

> <Gold.PLP.Fitness>
44.4004

> <Gold.PLP.PLP>
-34.4059

> <Gold.PLP.part.hbond>
-3.0000

> <Gold.PLP.part.metal>
0.0000

> <Gold.PLP.part.buried>
-4.1652

> <Gold.PLP.part.nonpolar>
-28.3331

> <Gold.PLP.part.repulsive>
0.2214

> <Gold.PLP.ligand.clash>
0.0000

> <Gold.PLP.ligand.torsion>
0.5753

> <Gold.PLP.Chemscore.Hbond>
3.7067

> <Gold.PLP.Chemscore.CHOScore>
0.0000

> <Gold.PLP.Chemscore.Metal>
0.0000

> <Gold.Chemscore.Hbonds>
donor molecule, donor type, donor heavy atom, donor atom, acceptor molecule, acceptor atom, score
      P1  H  6896  6909       L1     8  1.00
      P1  H  6931  6943       L1     6  1.12
      P1  H  6934  6947       L1     6  0.75

> <Gold.PLP.Chemscore.Internal.Correction>
0.0250

> <Gold.Rescore>
     Score         DG    S(hbond)    S(metal)    S(lipo)     H(rot)  DE(clash)    DE(int)     intcor
     18.12     -18.88       1.93        0.00      87.93       1.31       0.05       0.72       ----

> <Gold.Chemscore.Fitness>
18.1173

> <Gold.Chemscore.DG>
-18.8848

> <Gold.Chemscore.ZeroCoef>
-5.4800

> <Gold.Chemscore.Hbond>
1.9335

> <Gold.Chemscore.Metal>
0.0000

> <Gold.Chemscore.Lipo>
87.9312

> <Gold.Chemscore.Internal_Hbond>
0.0000

> <Gold.Chemscore.DEClash>
0.0485

> <Gold.Chemscore.DEInternal>
0.7190

> <Gold.Chemscore.Rot>
1.3051

> <Gold.Chemscore.Internal.Correction>
   9.000000E+99

> <Gold.Chemscore.Hbonds>
donor molecule, donor type, donor heavy atom, donor atom, acceptor molecule, acceptor atom, score
      P1  H  6896  6909       L1     8  0.97
      P1  H  6931  6943       L1     6  0.41
      P1  H  6934  6947       L1     6  0.28

> <Gold.Chemscore.Hbond.Weighted>
-6.4580

> <Gold.Chemscore.Metal.Weighted>
-0.0000

> <Gold.Chemscore.Lipo.Weighted>
-10.2880

> <Gold.Chemscore.Internal_Hbond.Weighted>
0.0000

> <Gold.Chemscore.DEClash.Weighted>
0.0485

> <Gold.Chemscore.DEInternal.Weighted>
0.7190

> <Gold.Chemscore.Rot.Weighted>
3.3412

> <Gold.Chemscore.Internal.Correction.Weighted>
   9.000000E+99

> <Gold.Protein.RotatedTorsions>
[ 6907 6896 6895 6894 ] final   43.89 input  -60.11 | X-H torsion
[ 7974 7965 7964 7962 ] final  -84.09 input  175.53 | X-H torsion
[ 8008 7997 7996 7995 ] final  126.83 input   59.86 | X-H torsion
[ 10167 10162 10161 10158 ] final   30.77 input  -65.29 | X-H torsion
[ 10718 10713 10712 10709 ] final   36.62 input   66.30 | X-H torsion
[ 10763 10752 10751 10750 ] final -150.17 input  -60.55 | X-H torsion
[ 11005 11000 10999 10996 ] final  -68.32 input  -57.11 | X-H torsion

> <Gold.Protein.ActiveResidues>
 VAL166  LYS551  ARG553  GLY616  TRP617  ASP618  TYR619  PRO620  LYS621  CYS622 
 ASP623  PHE694  ASN695  SER759  ASP760  ASP761  ALA762  ILE779  LEU786  VAL792 
 PHE793  MET794  SER795  GLU796  ALA797  LYS798  CYS799  TRP800  GLU811  SER814 

> <Gold.Protein.RotatedAtoms>
  152.2258  134.8369  160.0479 H   0  0  0  0  0  0  0  0  0  0  0  0  # atno 6907 bound_to 6896
  151.9136  133.3562  159.3880 H   0  0  0  0  0  0  0  0  0  0  0  0  # atno 6908 bound_to 6896
  150.7012  134.4632  159.5434 H   0  0  0  0  0  0  0  0  0  0  0  0  # atno 6909 bound_to 6896
  145.5113  140.9539  143.1706 H   0  0  0  0  0  0  0  0  0  0  0  0  # atno 7974 bound_to 7965
  156.2874  140.2683  156.2174 H   0  0  0  0  0  0  0  0  0  0  0  0  # atno 8008 bound_to 7997
  155.0203  140.0386  157.2452 H   0  0  0  0  0  0  0  0  0  0  0  0  # atno 8009 bound_to 7997
  154.7442  140.2730  155.6352 H   0  0  0  0  0  0  0  0  0  0  0  0  # atno 8010 bound_to 7997
  140.4648  144.0852  150.6222 H   0  0  0  0  0  0  0  0  0  0  0  0  # atno 10167 bound_to 10162
  157.3371  130.7528  149.6886 H   0  0  0  0  0  0  0  0  0  0  0  0  # atno 10718 bound_to 10713
  154.8135  135.3291  154.7241 H   0  0  0  0  0  0  0  0  0  0  0  0  # atno 10763 bound_to 10752
  153.7886  135.6913  153.4880 H   0  0  0  0  0  0  0  0  0  0  0  0  # atno 10764 bound_to 10752
  153.1932  135.4543  155.0122 H   0  0  0  0  0  0  0  0  0  0  0  0  # atno 10765 bound_to 10752
  141.1529  133.6738  156.6428 H   0  0  0  0  0  0  0  0  0  0  0  0  # atno 11005 bound_to 11000
  144.7726  139.6701  143.7188 LP  0  0  0  0  0  0  0  0  0  0  0  0  # atno 17320 bound_to 7965
  146.2165  139.5558  142.9647 LP  0  0  0  0  0  0  0  0  0  0  0  0  # atno 17321 bound_to 7965
  140.4049  143.2685  151.9903 LP  0  0  0  0  0  0  0  0  0  0  0  0  # atno 17342 bound_to 10162
  139.4810  144.5966  151.7680 LP  0  0  0  0  0  0  0  0  0  0  0  0  # atno 17343 bound_to 10162
  155.9703  130.4178  150.4298 LP  0  0  0  0  0  0  0  0  0  0  0  0  # atno 17370 bound_to 10713
  157.2340  131.0510  151.2476 LP  0  0  0  0  0  0  0  0  0  0  0  0  # atno 17371 bound_to 10713
  140.3380  134.7873  157.4376 LP  0  0  0  0  0  0  0  0  0  0  0  0  # atno 17394 bound_to 11000
  140.0962  134.5535  155.8397 LP  0  0  0  0  0  0  0  0  0  0  0  0  # atno 17395 bound_to 11000

$$$$
