AV-unprocessed.smi:2193|AV-procd|sdf|8899|dock2
  -GOLD-   2272012113D 1   1.00000     0.00000
 Structure written by MMmdl.
 40 42  0  0  0  0  0  0  0  0  1 V2000
  152.5114  137.8563  155.2087 O   0  0  0  0  0  0  0  0  0  0  0  0
  151.7466  139.0448  155.1859 C   0  0  0  0  0  0  0  0  0  0  0  0
  151.9261  139.9116  156.4007 C   0  0  0  0  0  0  0  0  0  0  0  0
  152.7536  139.6019  157.4020 N   0  0  0  0  0  0  0  0  0  0  0  0
  152.6016  140.6674  158.2668 C   0  0  0  0  0  0  0  0  0  0  0  0
  153.2115  140.9320  159.5141 C   0  0  0  0  0  0  0  0  0  0  0  0
  152.8968  142.1069  160.2280 C   0  0  0  0  0  0  0  0  0  0  0  0
  151.9691  143.0315  159.7061 C   0  0  0  0  0  0  0  0  0  0  0  0
  151.3501  142.7871  158.4650 C   0  0  0  0  0  0  0  0  0  0  0  0
  151.6682  141.6129  157.7561 C   0  0  0  0  0  0  0  0  0  0  0  0
  151.2509  141.0806  156.5393 N   0  0  0  0  0  0  0  0  0  0  0  0
  150.2911  141.6767  155.6189 C   0  0  0  0  0  0  0  0  0  0  0  0
  148.8265  141.4267  156.0348 C   0  0  1  0  0  0  0  0  0  0  0  0
  148.4422  142.3447  157.0391 O   0  0  0  0  0  0  0  0  0  0  0  0
  147.8503  141.5612  154.8572 C   0  0  0  0  0  0  0  0  0  0  0  0
  146.5264  141.6704  155.3632 O   0  0  0  0  0  0  0  0  0  0  0  0
  145.7693  142.7571  154.9814 C   0  0  0  0  0  0  0  0  0  0  0  0
  144.8029  143.2174  155.8998 C   0  0  0  0  0  0  0  0  0  0  0  0
  143.9875  144.3241  155.5943 C   0  0  0  0  0  0  0  0  0  0  0  0
  144.1319  144.9848  154.3606 C   0  0  0  0  0  0  0  0  0  0  0  0
  143.3505  146.0504  154.0656 F   0  0  0  0  0  0  0  0  0  0  0  0
  145.0909  144.5357  153.4341 C   0  0  0  0  0  0  0  0  0  0  0  0
  145.9060  143.4282  153.7394 C   0  0  0  0  0  0  0  0  0  0  0  0
  153.2695  137.9760  154.6578 H   0  0  0  0  0  0  0  0  0  0  0  0
  152.0216  139.6150  154.2983 H   0  0  0  0  0  0  0  0  0  0  0  0
  150.6963  138.7722  155.0879 H   0  0  0  0  0  0  0  0  0  0  0  0
  153.9228  140.2294  159.9223 H   0  0  0  0  0  0  0  0  0  0  0  0
  153.3690  142.2991  161.1804 H   0  0  0  0  0  0  0  0  0  0  0  0
  151.7327  143.9285  160.2594 H   0  0  0  0  0  0  0  0  0  0  0  0
  150.6385  143.4932  158.0641 H   0  0  0  0  0  0  0  0  0  0  0  0
  150.4888  142.7476  155.5588 H   0  0  0  0  0  0  0  0  0  0  0  0
  150.4750  141.2845  154.6185 H   0  0  0  0  0  0  0  0  0  0  0  0
  148.7288  140.4269  156.4579 H   0  0  0  0  0  0  0  0  0  0  0  0
  148.5999  143.2209  156.7224 H   0  0  0  0  0  0  0  0  0  0  0  0
  148.0935  142.4573  154.2834 H   0  0  0  0  0  0  0  0  0  0  0  0
  147.9403  140.6990  154.1940 H   0  0  0  0  0  0  0  0  0  0  0  0
  144.6851  142.7166  156.8497 H   0  0  0  0  0  0  0  0  0  0  0  0
  143.2518  144.6663  156.3070 H   0  0  0  0  0  0  0  0  0  0  0  0
  145.2030  145.0419  152.4867 H   0  0  0  0  0  0  0  0  0  0  0  0
  146.6305  143.1148  153.0034 H   0  0  0  0  0  0  0  0  0  0  0  0
  1  2  1  0  0  0  0
  1 24  1  0  0  0  0
  2  3  1  0  0  0  0
  2 25  1  0  0  0  0
  2 26  1  0  0  0  0
  3 11  1  0  0  0  0
  3  4  2  0  0  0  0
  4  5  1  0  0  0  0
  5 10  2  0  0  0  0
  5  6  1  0  0  0  0
  6  7  2  0  0  0  0
  6 27  1  0  0  0  0
  7  8  1  0  0  0  0
  7 28  1  0  0  0  0
  8  9  2  0  0  0  0
  8 29  1  0  0  0  0
  9 10  1  0  0  0  0
  9 30  1  0  0  0  0
 10 11  1  0  0  0  0
 11 12  1  0  0  0  0
 12 13  1  0  0  0  0
 12 31  1  0  0  0  0
 12 32  1  0  0  0  0
 13 14  1  0  0  0  0
 13 15  1  0  0  0  0
 13 33  1  0  0  0  0
 14 34  1  0  0  0  0
 15 16  1  0  0  0  0
 15 35  1  0  0  0  0
 15 36  1  0  0  0  0
 16 17  1  0  0  0  0
 17 23  1  0  0  0  0
 17 18  2  0  0  0  0
 18 19  1  0  0  0  0
 18 37  1  0  0  0  0
 19 20  2  0  0  0  0
 19 38  1  0  0  0  0
 20 21  1  0  0  0  0
 20 22  1  0  0  0  0
 22 23  2  0  0  0  0
 22 39  1  0  0  0  0
 23 40  1  0  0  0  0
M  END
> <s_m_source_file>
AV-unprocessed.smi

> <i_m_source_file_index>
2193

> <i_lp_mmshare_version>
43012

> <i_f3d_flags>
0

> <s_epik_input>
W2NIXTFbY0hdW2NIXVtjSF1jKGMxMiluKGMobjIpW0NIMl1bT0hdKVtDSDJdW0NASF0oW09IXSlbQ0gyXU9jM1tjSF1bY0hdYyhGKVtjSF1bY0hdMw==

> <s_epik_cmdline>
J2VwaWtfcHl0aG9uJywgJy1waCcsICc3LjAnLCAnLXRuJywgJzgnLCAnLW1hJywgJzIwMCcsICctbWV0YWxfYmluZGluZycsICctaW1hZScsICc8aW5maWxlLm1hZT4nLCAnLW9tYWUnLCAnPG91dGZpbGUubWFlPic=

> <r_lp_tautomer_probability>
1

> <r_epik_Ionization_Penalty>
0.0549747

> <r_epik_Ionization_Penalty_Charging>
0

> <r_epik_Ionization_Penalty_Neutral>
0.0549747

> <r_epik_State_Penalty>
0.0472568

> <r_epik_Charging_Adjusted_Penalty>
0.0472568

> <i_epik_Tot_Q>
0

> <i_epik_Tot_abs_Q>
0

> <r_epik_Metal_State_Penalty>
4.91905e-05

> <b_epik_Metal_Only>
0

> <s_lp_Force_Field>
OPLS_2005

> <r_lp_Energy>
14.6926

> <b_lp_Chiralities_Consistent>
1

> <s_lp_Variant>
AV-unprocessed.smi:2193-2

> <Gold.Version>
5.8.1

> <Gold.Id.Protein>
6NUR|6NUR_protein|mol2

> <Gold.PLP.Fitness>
53.2743

> <Gold.PLP.PLP>
-49.6884

> <Gold.PLP.part.hbond>
-2.7912

> <Gold.PLP.part.metal>
0.0000

> <Gold.PLP.part.buried>
-7.5545

> <Gold.PLP.part.nonpolar>
-40.2674

> <Gold.PLP.part.repulsive>
0.1045

> <Gold.PLP.ligand.clash>
0.0000

> <Gold.PLP.ligand.torsion>
1.3704

> <Gold.PLP.Chemscore.Hbond>
2.0075

> <Gold.PLP.Chemscore.CHOScore>
0.0000

> <Gold.PLP.Chemscore.Metal>
0.0000

> <Gold.Chemscore.Hbonds>
donor molecule, donor type, donor heavy atom, donor atom, acceptor molecule, acceptor atom, score
      L1  H    14    34       P1  8028  1.00
      P1  H  7997  8010       L1     4  0.90

> <Gold.PLP.Chemscore.Internal.Correction>
0.3043

> <Gold.Rescore>
     Score         DG    S(hbond)    S(metal)    S(lipo)     H(rot)  DE(clash)    DE(int)     intcor
     12.41     -13.90       0.88        0.00     117.32       3.22       0.06       1.42       ----

> <Gold.Chemscore.Fitness>
12.4118

> <Gold.Chemscore.DG>
-13.9003

> <Gold.Chemscore.ZeroCoef>
-5.4800

> <Gold.Chemscore.Hbond>
0.8789

> <Gold.Chemscore.Metal>
0.0000

> <Gold.Chemscore.Lipo>
117.3250

> <Gold.Chemscore.Internal_Hbond>
0.0000

> <Gold.Chemscore.DEClash>
0.0637

> <Gold.Chemscore.DEInternal>
1.4248

> <Gold.Chemscore.Rot>
3.2196

> <Gold.Chemscore.Internal.Correction>
   9.000000E+99

> <Gold.Chemscore.Hbonds>
donor molecule, donor type, donor heavy atom, donor atom, acceptor molecule, acceptor atom, score
      L1  H    14    34       P1  8028  0.65
      P1  H  7997  8010       L1     4  0.06

> <Gold.Chemscore.Hbond.Weighted>
-2.9355

> <Gold.Chemscore.Metal.Weighted>
-0.0000

> <Gold.Chemscore.Lipo.Weighted>
-13.7270

> <Gold.Chemscore.Internal_Hbond.Weighted>
0.0000

> <Gold.Chemscore.DEClash.Weighted>
0.0637

> <Gold.Chemscore.DEInternal.Weighted>
1.4248

> <Gold.Chemscore.Rot.Weighted>
8.2422

> <Gold.Chemscore.Internal.Correction.Weighted>
   9.000000E+99

> <Gold.Protein.RotatedTorsions>
[ 6907 6896 6895 6894 ] final  170.99 input  -60.11 | X-H torsion
[ 7974 7965 7964 7962 ] final -116.57 input  175.53 | X-H torsion
[ 8008 7997 7996 7995 ] final   55.51 input   59.86 | X-H torsion
[ 10167 10162 10161 10158 ] final  -67.25 input  -65.29 | X-H torsion
[ 10718 10713 10712 10709 ] final -123.16 input   66.30 | X-H torsion
[ 10763 10752 10751 10750 ] final -175.05 input  -60.55 | X-H torsion
[ 11005 11000 10999 10996 ] final  126.88 input  -57.11 | X-H torsion

> <Gold.Protein.ActiveResidues>
 VAL166  LYS551  ARG553  GLY616  TRP617  ASP618  TYR619  PRO620  LYS621  CYS622 
 ASP623  PHE694  ASN695  SER759  ASP760  ASP761  ALA762  ILE779  LEU786  VAL792 
 PHE793  MET794  SER795  GLU796  ALA797  LYS798  CYS799  TRP800  GLU811  SER814 

> <Gold.Protein.RotatedAtoms>
  151.8073  133.3377  159.3544 H   0  0  0  0  0  0  0  0  0  0  0  0  # atno 6907 bound_to 6896
  150.7338  134.5697  159.5893 H   0  0  0  0  0  0  0  0  0  0  0  0  # atno 6908 bound_to 6896
  152.3100  134.7509  160.0390 H   0  0  0  0  0  0  0  0  0  0  0  0  # atno 6909 bound_to 6896
  145.0952  140.8516  143.3959 H   0  0  0  0  0  0  0  0  0  0  0  0  # atno 7974 bound_to 7965
  155.5023  140.3475  155.4373 H   0  0  0  0  0  0  0  0  0  0  0  0  # atno 8008 bound_to 7997
  156.0905  140.1409  156.9626 H   0  0  0  0  0  0  0  0  0  0  0  0  # atno 8009 bound_to 7997
  154.4632  140.0927  156.6927 H   0  0  0  0  0  0  0  0  0  0  0  0  # atno 8010 bound_to 7997
  140.5597  143.2312  151.6752 H   0  0  0  0  0  0  0  0  0  0  0  0  # atno 10167 bound_to 10162
  156.1479  130.6513  150.9869 H   0  0  0  0  0  0  0  0  0  0  0  0  # atno 10718 bound_to 10713
  154.5890  135.2843  155.0655 H   0  0  0  0  0  0  0  0  0  0  0  0  # atno 10763 bound_to 10752
  154.1963  135.6432  153.5078 H   0  0  0  0  0  0  0  0  0  0  0  0  # atno 10764 bound_to 10752
  153.0114  135.5458  154.6569 H   0  0  0  0  0  0  0  0  0  0  0  0  # atno 10765 bound_to 10752
  139.9478  134.9627  156.8772 H   0  0  0  0  0  0  0  0  0  0  0  0  # atno 11005 bound_to 11000
  145.1020  139.2816  143.5681 LP  0  0  0  0  0  0  0  0  0  0  0  0  # atno 17320 bound_to 7965
  146.3531  140.0589  142.8630 LP  0  0  0  0  0  0  0  0  0  0  0  0  # atno 17321 bound_to 7965
  139.5064  144.3682  152.0496 LP  0  0  0  0  0  0  0  0  0  0  0  0  # atno 17342 bound_to 10162
  140.2807  144.3862  150.6120 LP  0  0  0  0  0  0  0  0  0  0  0  0  # atno 17343 bound_to 10162
  157.6632  131.0877  150.7790 LP  0  0  0  0  0  0  0  0  0  0  0  0  # atno 17370 bound_to 10713
  156.7860  130.4874  149.5393 LP  0  0  0  0  0  0  0  0  0  0  0  0  # atno 17371 bound_to 10713
  140.5791  134.0369  155.7457 LP  0  0  0  0  0  0  0  0  0  0  0  0  # atno 17394 bound_to 11000
  141.1134  133.9580  157.2868 LP  0  0  0  0  0  0  0  0  0  0  0  0  # atno 17395 bound_to 11000

$$$$
