AV-unprocessed.smi:1381|AV-procd|sdf|5615|dock1
  -GOLD-   22720 5223D 1   1.00000     0.00000
 Structure written by MMmdl.
 42 43  0  0  0  0  0  0  0  0  3 V2000
  151.9591  140.6371  156.6229 C   0  0  0  0  0  0  0  0  0  0  0  0
  151.7218  139.4526  155.7498 C   0  0  0  0  0  0  0  0  0  0  0  0
  152.1530  138.1576  155.8056 C   0  0  0  0  0  0  0  0  0  0  0  0
  151.5546  137.5665  154.6592 C   0  0  0  0  0  0  0  0  0  0  0  0
  151.6728  136.2845  154.2800 N   0  5  0  0  0  0  0  0  0  0  0  0
  150.9258  135.3273  154.8753 C   0  0  0  0  0  0  0  0  0  0  0  0
  151.2507  134.6447  155.8497 O   0  0  0  0  0  0  0  0  0  0  0  0
  149.7214  135.1546  154.3121 N   0  0  0  0  0  0  0  0  0  0  0  0
  148.7022  134.2112  154.7564 C   0  0  0  0  0  0  0  0  0  0  0  0
  148.1739  133.3662  153.5822 C   0  0  0  0  0  0  0  0  0  0  0  0
  147.4519  134.1883  152.5760 N   0  3  1  0  0  0  0  0  0  0  0  0
  147.0806  133.4370  151.3525 C   0  0  0  0  0  0  0  0  0  0  0  0
  145.8532  132.5371  151.6006 C   0  0  2  0  0  0  0  0  0  0  0  0
  145.4030  131.8117  150.3278 C   0  0  0  0  0  0  0  0  0  0  0  0
  144.7740  133.3481  152.0531 O   0  0  0  0  0  0  0  0  0  0  0  0
  145.0537  134.0063  153.2843 C   0  0  2  0  0  0  0  0  0  0  0  0
  143.8015  134.7872  153.6978 C   0  0  0  0  0  0  0  0  0  0  0  0
  146.2781  134.9301  153.1032 C   0  0  0  0  0  0  0  0  0  0  0  0
  150.8126  138.4230  153.9775 N   0  0  0  0  0  0  0  0  0  0  0  0
  150.9190  139.6367  154.6673 O   0  0  0  0  0  0  0  0  0  0  0  0
  151.3243  140.5956  157.5080 H   0  0  0  0  0  0  0  0  0  0  0  0
  151.7418  141.5648  156.0932 H   0  0  0  0  0  0  0  0  0  0  0  0
  152.9977  140.6729  156.9521 H   0  0  0  0  0  0  0  0  0  0  0  0
  152.7959  137.7055  156.5456 H   0  0  0  0  0  0  0  0  0  0  0  0
  149.4979  135.7304  153.5134 H   0  0  0  0  0  0  0  0  0  0  0  0
  149.1583  133.5789  155.5169 H   0  0  0  0  0  0  0  0  0  0  0  0
  147.8854  134.7454  155.2448 H   0  0  0  0  0  0  0  0  0  0  0  0
  149.0251  132.8886  153.0954 H   0  0  0  0  0  0  0  0  0  0  0  0
  147.5430  132.5563  153.9478 H   0  0  0  0  0  0  0  0  0  0  0  0
  146.8509  134.1577  150.5664 H   0  0  0  0  0  0  0  0  0  0  0  0
  147.9273  132.8522  150.9908 H   0  0  0  0  0  0  0  0  0  0  0  0
  146.0844  131.7870  152.3589 H   0  0  0  0  0  0  0  0  0  0  0  0
  146.1957  131.1708  149.9403 H   0  0  0  0  0  0  0  0  0  0  0  0
  145.1301  132.5190  149.5440 H   0  0  0  0  0  0  0  0  0  0  0  0
  144.5346  131.1824  150.5248 H   0  0  0  0  0  0  0  0  0  0  0  0
  145.2544  133.2578  154.0517 H   0  0  0  0  0  0  0  0  0  0  0  0
  143.9558  135.3023  154.6463 H   0  0  0  0  0  0  0  0  0  0  0  0
  142.9483  134.1191  153.8184 H   0  0  0  0  0  0  0  0  0  0  0  0
  143.5358  135.5345  152.9497 H   0  0  0  0  0  0  0  0  0  0  0  0
  146.5209  135.4358  154.0369 H   0  0  0  0  0  0  0  0  0  0  0  0
  146.0332  135.7178  152.3892 H   0  0  0  0  0  0  0  0  0  0  0  0
  148.1236  134.8818  152.2784 H   0  0  0  0  0  0  0  0  0  0  0  0
  1  2  1  0  0  0  0
  1 21  1  0  0  0  0
  1 22  1  0  0  0  0
  1 23  1  0  0  0  0
  2 20  1  0  0  0  0
  2  3  2  0  0  0  0
  3  4  1  0  0  0  0
  3 24  1  0  0  0  0
  4  5  1  0  0  0  0
  4 19  2  0  0  0  0
  5  6  1  0  0  0  0
  6  7  2  0  0  0  0
  6  8  1  0  0  0  0
  8  9  1  0  0  0  0
  8 25  1  0  0  0  0
  9 10  1  0  0  0  0
  9 26  1  0  0  0  0
  9 27  1  0  0  0  0
 10 11  1  0  0  0  0
 10 28  1  0  0  0  0
 10 29  1  0  0  0  0
 11 18  1  0  0  0  0
 11 12  1  0  0  0  0
 11 42  1  0  0  0  0
 12 13  1  0  0  0  0
 12 30  1  0  0  0  0
 12 31  1  0  0  0  0
 13 14  1  0  0  0  0
 13 15  1  0  0  0  0
 13 32  1  0  0  0  0
 14 33  1  0  0  0  0
 14 34  1  0  0  0  0
 14 35  1  0  0  0  0
 15 16  1  0  0  0  0
 16 17  1  0  0  0  0
 16 18  1  0  0  0  0
 16 36  1  0  0  0  0
 17 37  1  0  0  0  0
 17 38  1  0  0  0  0
 17 39  1  0  0  0  0
 18 40  1  0  0  0  0
 18 41  1  0  0  0  0
 19 20  1  0  0  0  0
M  CHG  1   5  -1
M  CHG  1  11   1
M  END
> <s_m_source_file>
AV-unprocessed.smi

> <i_m_source_file_index>
1381

> <i_lp_mmshare_version>
43012

> <i_f3d_flags>
0

> <s_epik_input>
W0NIM11jMVtjSF1jKG5vMSlbTkhdQyg9TylbTkhdW0NIMl1bQ0gyXU4yW0NIMl1bQ0BASF0oW0NIM10pT1tDQEBIXShbQ0gzXSlbQ0gyXTI=

> <s_epik_cmdline>
J2VwaWtfcHl0aG9uJywgJy1waCcsICc3LjAnLCAnLXRuJywgJzgnLCAnLW1hJywgJzIwMCcsICctbWV0YWxfYmluZGluZycsICctaW1hZScsICc8aW5maWxlLm1hZT4nLCAnLW9tYWUnLCAnPG91dGZpbGUubWFlPic=

> <r_epik_Ionization_Penalty>
6.73511

> <r_epik_Ionization_Penalty_Charging>
6.73502

> <r_epik_Ionization_Penalty_Neutral>
9.26583e-05

> <r_epik_State_Penalty>
6.93549

> <r_epik_Charging_Adjusted_Penalty>
13.6705

> <i_epik_Tot_Q>
0

> <i_epik_Tot_abs_Q>
2

> <r_epik_Metal_State_Penalty>
2.87211

> <b_epik_Metal_Only>
1

> <s_lp_Force_Field>
OPLS_2005

> <r_lp_Energy>
4.17006

> <b_lp_Chiralities_Consistent>
1

> <s_lp_Variant>
AV-unprocessed.smi:1381-14

> <Gold.Version>
5.8.1

> <Gold.Id.Protein>
6NUR|6NUR_protein|mol2

> <Gold.PLP.Fitness>
45.9295

> <Gold.PLP.PLP>
-30.7517

> <Gold.PLP.part.hbond>
-4.0000

> <Gold.PLP.part.metal>
0.0000

> <Gold.PLP.part.buried>
-4.8793

> <Gold.PLP.part.nonpolar>
-22.3088

> <Gold.PLP.part.repulsive>
1.3180

> <Gold.PLP.ligand.clash>
0.0000

> <Gold.PLP.ligand.torsion>
1.5467

> <Gold.PLP.Chemscore.Hbond>
6.0000

> <Gold.PLP.Chemscore.CHOScore>
0.0000

> <Gold.PLP.Chemscore.Metal>
0.0000

> <Gold.Chemscore.Hbonds>
donor molecule, donor type, donor heavy atom, donor atom, acceptor molecule, acceptor atom, score
      L1  H     8    25       P1  7948  1.00
      L1  H    11    42       P1  7948  2.00
      P1  H  7989  7998       L1    20  1.00
      P1  H 10752 10763       L1     5  1.11

> <Gold.PLP.Chemscore.Internal.Correction>
0.2712

> <Gold.Rescore>
     Score         DG    S(hbond)    S(metal)    S(lipo)     H(rot)  DE(clash)    DE(int)     intcor
     17.86     -19.50       3.37        0.00      58.27       1.58       0.16       1.49       ----

> <Gold.Chemscore.Fitness>
17.8552

> <Gold.Chemscore.DG>
-19.5044

> <Gold.Chemscore.ZeroCoef>
-5.4800

> <Gold.Chemscore.Hbond>
3.3680

> <Gold.Chemscore.Metal>
0.0000

> <Gold.Chemscore.Lipo>
58.2735

> <Gold.Chemscore.Internal_Hbond>
0.0000

> <Gold.Chemscore.DEClash>
0.1628

> <Gold.Chemscore.DEInternal>
1.4863

> <Gold.Chemscore.Rot>
1.5792

> <Gold.Chemscore.Internal.Correction>
   9.000000E+99

> <Gold.Chemscore.Hbonds>
donor molecule, donor type, donor heavy atom, donor atom, acceptor molecule, acceptor atom, score
      L1  H     8    25       P1  7948  0.26
      L1  H    11    42       P1  7948  0.49
      P1  H  7989  7998       L1    20  0.50
      P1  H 10752 10763       L1     5  0.06

> <Gold.Chemscore.Hbond.Weighted>
-11.2492

> <Gold.Chemscore.Metal.Weighted>
-0.0000

> <Gold.Chemscore.Lipo.Weighted>
-6.8180

> <Gold.Chemscore.Internal_Hbond.Weighted>
0.0000

> <Gold.Chemscore.DEClash.Weighted>
0.1628

> <Gold.Chemscore.DEInternal.Weighted>
1.4863

> <Gold.Chemscore.Rot.Weighted>
4.0428

> <Gold.Chemscore.Internal.Correction.Weighted>
   9.000000E+99

> <Gold.Protein.RotatedTorsions>
[ 6907 6896 6895 6894 ] final -120.98 input  -60.11 | X-H torsion
[ 7974 7965 7964 7962 ] final   23.73 input  175.53 | X-H torsion
[ 8008 7997 7996 7995 ] final -130.01 input   59.86 | X-H torsion
[ 10167 10162 10161 10158 ] final -162.57 input  -65.29 | X-H torsion
[ 10718 10713 10712 10709 ] final  156.83 input   66.30 | X-H torsion
[ 10763 10752 10751 10750 ] final   57.74 input  -60.55 | X-H torsion
[ 11005 11000 10999 10996 ] final -170.21 input  -57.11 | X-H torsion

> <Gold.Protein.ActiveResidues>
 VAL166  LYS551  ARG553  GLY616  TRP617  ASP618  TYR619  PRO620  LYS621  CYS622 
 ASP623  PHE694  ASN695  SER759  ASP760  ASP761  ALA762  ILE779  LEU786  VAL792 
 PHE793  MET794  SER795  GLU796  ALA797  LYS798  CYS799  TRP800  GLU811  SER814 

> <Gold.Protein.RotatedAtoms>
  150.8442  133.7888  159.3049 H   0  0  0  0  0  0  0  0  0  0  0  0  # atno 6907 bound_to 6896
  151.5580  135.1064  159.9975 H   0  0  0  0  0  0  0  0  0  0  0  0  # atno 6908 bound_to 6896
  152.4499  133.7567  159.6780 H   0  0  0  0  0  0  0  0  0  0  0  0  # atno 6909 bound_to 6896
  146.1971  139.7703  142.8789 H   0  0  0  0  0  0  0  0  0  0  0  0  # atno 7974 bound_to 7965
  155.2887  140.0447  157.3021 H   0  0  0  0  0  0  0  0  0  0  0  0  # atno 8008 bound_to 7997
  154.5554  140.2330  155.8386 H   0  0  0  0  0  0  0  0  0  0  0  0  # atno 8009 bound_to 7997
  156.2003  140.3027  155.9519 H   0  0  0  0  0  0  0  0  0  0  0  0  # atno 8010 bound_to 7997
  139.6383  144.0308  152.2071 H   0  0  0  0  0  0  0  0  0  0  0  0  # atno 10167 bound_to 10162
  157.1997  131.0673  151.2032 H   0  0  0  0  0  0  0  0  0  0  0  0  # atno 10718 bound_to 10713
  152.9856  135.5631  154.5439 H   0  0  0  0  0  0  0  0  0  0  0  0  # atno 10763 bound_to 10752
  154.4889  135.2792  155.1514 H   0  0  0  0  0  0  0  0  0  0  0  0  # atno 10764 bound_to 10752
  154.2992  135.6311  153.5471 H   0  0  0  0  0  0  0  0  0  0  0  0  # atno 10765 bound_to 10752
  140.5220  134.5700  157.5050 H   0  0  0  0  0  0  0  0  0  0  0  0  # atno 11005 bound_to 11000
  145.3609  141.0325  143.3285 LP  0  0  0  0  0  0  0  0  0  0  0  0  # atno 17320 bound_to 7965
  144.8603  139.5188  143.6815 LP  0  0  0  0  0  0  0  0  0  0  0  0  # atno 17321 bound_to 7965
  139.9991  144.6306  150.7745 LP  0  0  0  0  0  0  0  0  0  0  0  0  # atno 17342 bound_to 10162
  140.7477  143.2910  151.3330 LP  0  0  0  0  0  0  0  0  0  0  0  0  # atno 17343 bound_to 10162
  157.3780  130.7216  149.6610 LP  0  0  0  0  0  0  0  0  0  0  0  0  # atno 17370 bound_to 10713
  155.9702  130.4180  150.4308 LP  0  0  0  0  0  0  0  0  0  0  0  0  # atno 17371 bound_to 10713
  139.9600  134.7468  156.0257 LP  0  0  0  0  0  0  0  0  0  0  0  0  # atno 17394 bound_to 11000
  141.1329  133.6582  156.3513 LP  0  0  0  0  0  0  0  0  0  0  0  0  # atno 17395 bound_to 11000

$$$$
