AV-unprocessed.smi:2655|AV-procd|sdf|10298|dock5
  -GOLD-   2272014313D 1   1.00000     0.00000
 Structure written by MMmdl.
 33 34  0  0  0  0  0  0  0  0  2 V2000
  143.6316  132.7910  148.5136 C   0  0  0  0  0  0  0  0  0  0  0  0
  144.8671  132.7368  149.3651 C   0  0  0  0  0  0  0  0  0  0  0  0
  145.8082  131.8404  149.0863 N   0  0  0  0  0  0  0  0  0  0  0  0
  146.7556  132.0520  150.0195 N   0  0  0  0  0  0  0  0  0  0  0  0
  146.4128  133.0698  150.8715 C   0  0  0  0  0  0  0  0  0  0  0  0
  147.2220  133.4396  151.8810 O   0  5  0  0  0  0  0  0  0  0  0  0
  145.1953  133.5547  150.4907 C   0  0  0  0  0  0  0  0  0  0  0  0
  144.3878  134.6668  151.1013 C   0  0  0  0  0  0  0  0  0  0  0  0
  143.7474  134.2278  152.4273 C   0  0  0  0  0  0  0  0  0  0  0  0
  142.3617  134.6702  152.5244 N   0  0  0  0  0  0  0  0  0  0  0  0
  141.8263  135.3000  153.5797 C   0  0  0  0  0  0  0  0  0  0  0  0
  142.4631  135.5887  154.5929 O   0  0  0  0  0  0  0  0  0  0  0  0
  140.5239  135.5614  153.3773 N   0  0  0  0  0  0  0  0  0  0  0  0
  139.6060  136.1999  154.2504 C   0  0  0  0  0  0  0  0  0  0  0  0
  138.4232  136.8976  153.8691 C   0  0  0  0  0  0  0  0  0  0  0  0
  137.9119  137.3107  155.0670 C   0  0  0  0  0  0  0  0  0  0  0  0
  136.6971  138.0910  155.4360 C   0  0  0  0  0  0  0  0  0  0  0  0
  138.7108  136.9026  156.0893 O   0  0  0  0  0  0  0  0  0  0  0  0
  139.7926  136.1913  155.5575 N   0  0  0  0  0  0  0  0  0  0  0  0
  142.7589  133.0680  149.1050 H   0  0  0  0  0  0  0  0  0  0  0  0
  143.4217  131.8263  148.0504 H   0  0  0  0  0  0  0  0  0  0  0  0
  143.7406  133.5271  147.7174 H   0  0  0  0  0  0  0  0  0  0  0  0
  147.6049  131.5072  150.0588 H   0  0  0  0  0  0  0  0  0  0  0  0
  143.6113  134.9961  150.4102 H   0  0  0  0  0  0  0  0  0  0  0  0
  145.0157  135.5412  151.2761 H   0  0  0  0  0  0  0  0  0  0  0  0
  143.8065  133.1440  152.5418 H   0  0  0  0  0  0  0  0  0  0  0  0
  144.2979  134.6588  153.2642 H   0  0  0  0  0  0  0  0  0  0  0  0
  141.7670  134.4710  151.7334 H   0  0  0  0  0  0  0  0  0  0  0  0
  140.1401  135.2608  152.4935 H   0  0  0  0  0  0  0  0  0  0  0  0
  138.0053  137.0752  152.8899 H   0  0  0  0  0  0  0  0  0  0  0  0
  136.0288  138.1982  154.5814 H   0  0  0  0  0  0  0  0  0  0  0  0
  136.9699  139.0890  155.7797 H   0  0  0  0  0  0  0  0  0  0  0  0
  136.1460  137.5954  156.2353 H   0  0  0  0  0  0  0  0  0  0  0  0
  1 20  1  0  0  0  0
  1 21  1  0  0  0  0
  1 22  1  0  0  0  0
  1  2  1  0  0  0  0
  2  7  1  0  0  0  0
  2  3  2  0  0  0  0
  3  4  1  0  0  0  0
  4 23  1  0  0  0  0
  4  5  1  0  0  0  0
  5  7  2  0  0  0  0
  5  6  1  0  0  0  0
  7  8  1  0  0  0  0
  8  9  1  0  0  0  0
  8 24  1  0  0  0  0
  8 25  1  0  0  0  0
  9 10  1  0  0  0  0
  9 26  1  0  0  0  0
  9 27  1  0  0  0  0
 10 11  1  0  0  0  0
 10 28  1  0  0  0  0
 11 12  2  0  0  0  0
 11 13  1  0  0  0  0
 13 14  1  0  0  0  0
 13 29  1  0  0  0  0
 14 19  2  0  0  0  0
 14 15  1  0  0  0  0
 15 16  2  0  0  0  0
 15 30  1  0  0  0  0
 16 17  1  0  0  0  0
 16 18  1  0  0  0  0
 17 31  1  0  0  0  0
 17 32  1  0  0  0  0
 17 33  1  0  0  0  0
 18 19  1  0  0  0  0
M  CHG  1   6  -1
M  END
> <s_m_source_file>
AV-unprocessed.smi

> <i_m_source_file_index>
2655

> <i_lp_mmshare_version>
43012

> <i_f3d_flags>
0

> <s_epik_input>
W0NIM11DMT1OW05IXUMoPU8pW0NASF0xW0NIMl1bQ0gyXVtOSF1DKD1PKVtOSF1jMltjSF1jKFtDSDNdKW9uMg==

> <s_epik_cmdline>
J2VwaWtfcHl0aG9uJywgJy1waCcsICc3LjAnLCAnLXRuJywgJzgnLCAnLW1hJywgJzIwMCcsICctbWV0YWxfYmluZGluZycsICctaW1hZScsICc8aW5maWxlLm1hZT4nLCAnLW9tYWUnLCAnPG91dGZpbGUubWFlPic=

> <r_lp_tautomer_probability>
0.99495

> <r_epik_Ionization_Penalty>
1.68606

> <r_epik_Ionization_Penalty_Charging>
0.00156442

> <r_epik_Ionization_Penalty_Neutral>
1.68449

> <r_epik_State_Penalty>
0.315845

> <r_epik_Charging_Adjusted_Penalty>
0.31741

> <i_epik_Tot_Q>
-1

> <i_epik_Tot_abs_Q>
1

> <r_epik_Metal_State_Penalty>
0.0445802

> <b_epik_Metal_Only>
0

> <s_lp_Force_Field>
OPLS_2005

> <r_lp_Energy>
-3.25288

> <b_lp_Chiralities_Consistent>
1

> <s_lp_Variant>
AV-unprocessed.smi:2655-1

> <Gold.Version>
5.8.1

> <Gold.Id.Protein>
6NUR|6NUR_protein|mol2

> <Gold.PLP.Fitness>
39.4023

> <Gold.PLP.PLP>
-33.0837

> <Gold.PLP.part.hbond>
-3.5586

> <Gold.PLP.part.metal>
0.0000

> <Gold.PLP.part.buried>
-4.2866

> <Gold.PLP.part.nonpolar>
-25.9813

> <Gold.PLP.part.repulsive>
0.8536

> <Gold.PLP.ligand.clash>
0.0000

> <Gold.PLP.ligand.torsion>
0.6736

> <Gold.PLP.Chemscore.Hbond>
2.5500

> <Gold.PLP.Chemscore.CHOScore>
0.0000

> <Gold.PLP.Chemscore.Metal>
0.0000

> <Gold.Chemscore.Hbonds>
donor molecule, donor type, donor heavy atom, donor atom, acceptor molecule, acceptor atom, score
      L1  H     4    23       P1 10747  0.98
      L1  H    13    29       P1 10187  0.60
      P1  H 11000 11005       L1    19  0.86

> <Gold.PLP.Chemscore.Internal.Correction>
0.0159

> <Gold.Rescore>
     Score         DG    S(hbond)    S(metal)    S(lipo)     H(rot)  DE(clash)    DE(int)     intcor
     12.28     -14.60       1.88        0.00      64.64       1.85       0.35       1.97       ----

> <Gold.Chemscore.Fitness>
12.2768

> <Gold.Chemscore.DG>
-14.6003

> <Gold.Chemscore.ZeroCoef>
-5.4800

> <Gold.Chemscore.Hbond>
1.8845

> <Gold.Chemscore.Metal>
0.0000

> <Gold.Chemscore.Lipo>
64.6398

> <Gold.Chemscore.Internal_Hbond>
0.0000

> <Gold.Chemscore.DEClash>
0.3495

> <Gold.Chemscore.DEInternal>
1.9740

> <Gold.Chemscore.Rot>
1.8504

> <Gold.Chemscore.Internal.Correction>
   9.000000E+99

> <Gold.Chemscore.Hbonds>
donor molecule, donor type, donor heavy atom, donor atom, acceptor molecule, acceptor atom, score
      L1  H     4    23       P1 10747  0.91
      L1  H    13    29       P1 10187  0.04
      P1  H 11000 11005       L1    19  0.49

> <Gold.Chemscore.Hbond.Weighted>
-6.2944

> <Gold.Chemscore.Metal.Weighted>
-0.0000

> <Gold.Chemscore.Lipo.Weighted>
-7.5629

> <Gold.Chemscore.Internal_Hbond.Weighted>
0.0000

> <Gold.Chemscore.DEClash.Weighted>
0.3495

> <Gold.Chemscore.DEInternal.Weighted>
1.9740

> <Gold.Chemscore.Rot.Weighted>
4.7369

> <Gold.Chemscore.Internal.Correction.Weighted>
   9.000000E+99

> <Gold.Protein.RotatedTorsions>
[ 6907 6896 6895 6894 ] final   51.54 input  -60.11 | X-H torsion
[ 7974 7965 7964 7962 ] final   99.17 input  175.53 | X-H torsion
[ 8008 7997 7996 7995 ] final   11.23 input   59.86 | X-H torsion
[ 10167 10162 10161 10158 ] final -175.24 input  -65.29 | X-H torsion
[ 10718 10713 10712 10709 ] final -167.68 input   66.30 | X-H torsion
[ 10763 10752 10751 10750 ] final -132.94 input  -60.55 | X-H torsion
[ 11005 11000 10999 10996 ] final   91.37 input  -57.11 | X-H torsion

> <Gold.Protein.ActiveResidues>
 VAL166  LYS551  ARG553  GLY616  TRP617  ASP618  TYR619  PRO620  LYS621  CYS622 
 ASP623  PHE694  ASN695  SER759  ASP760  ASP761  ALA762  ILE779  LEU786  VAL792 
 PHE793  MET794  SER795  GLU796  ALA797  LYS798  CYS799  TRP800  GLU811  SER814 

> <Gold.Protein.RotatedAtoms>
  152.3137  134.7466  160.0330 H   0  0  0  0  0  0  0  0  0  0  0  0  # atno 6907 bound_to 6896
  151.7938  133.3357  159.3515 H   0  0  0  0  0  0  0  0  0  0  0  0  # atno 6908 bound_to 6896
  150.7333  134.5748  159.5953 H   0  0  0  0  0  0  0  0  0  0  0  0  # atno 6909 bound_to 6896
  145.4025  139.2345  143.3292 H   0  0  0  0  0  0  0  0  0  0  0  0  # atno 7974 bound_to 7965
  154.8041  140.2857  155.5900 H   0  0  0  0  0  0  0  0  0  0  0  0  # atno 8008 bound_to 7997
  156.2980  140.2581  156.2845 H   0  0  0  0  0  0  0  0  0  0  0  0  # atno 8009 bound_to 7997
  154.9524  140.0379  157.2140 H   0  0  0  0  0  0  0  0  0  0  0  0  # atno 8010 bound_to 7997
  139.5591  144.1914  152.1209 H   0  0  0  0  0  0  0  0  0  0  0  0  # atno 10167 bound_to 10162
  156.6859  130.9140  151.3063 H   0  0  0  0  0  0  0  0  0  0  0  0  # atno 10718 bound_to 10713
  154.8738  135.3782  154.4491 H   0  0  0  0  0  0  0  0  0  0  0  0  # atno 10763 bound_to 10752
  153.5169  135.7029  153.5756 H   0  0  0  0  0  0  0  0  0  0  0  0  # atno 10764 bound_to 10752
  153.4021  135.3946  155.1960 H   0  0  0  0  0  0  0  0  0  0  0  0  # atno 10765 bound_to 10752
  139.8840  134.8670  156.3418 H   0  0  0  0  0  0  0  0  0  0  0  0  # atno 11005 bound_to 11000
  146.2745  140.4724  142.8801 LP  0  0  0  0  0  0  0  0  0  0  0  0  # atno 17320 bound_to 7965
  144.8364  140.6789  143.6257 LP  0  0  0  0  0  0  0  0  0  0  0  0  # atno 17321 bound_to 7965
  140.1424  144.5190  150.6736 LP  0  0  0  0  0  0  0  0  0  0  0  0  # atno 17342 bound_to 10162
  140.6868  143.2354  151.5237 LP  0  0  0  0  0  0  0  0  0  0  0  0  # atno 17343 bound_to 10162
  157.7026  130.9350  150.0833 LP  0  0  0  0  0  0  0  0  0  0  0  0  # atno 17370 bound_to 10713
  156.1833  130.3651  149.9006 LP  0  0  0  0  0  0  0  0  0  0  0  0  # atno 17371 bound_to 10713
  140.9653  133.7362  156.0459 LP  0  0  0  0  0  0  0  0  0  0  0  0  # atno 17394 bound_to 11000
  140.7938  134.3587  157.5458 LP  0  0  0  0  0  0  0  0  0  0  0  0  # atno 17395 bound_to 11000

$$$$
