AV-unprocessed.smi:960|AV-procd|sdf|4272|dock6
  -GOLD-   22720 2183D 1   1.00000     0.00000
 Structure written by MMmdl.
 46 47  0  0  0  0  0  0  0  0  2 V2000
  143.6721  132.0993  150.4290 C   0  0  0  0  0  0  0  0  0  0  0  0
  145.0146  132.0799  150.4671 C   0  0  0  0  0  0  0  0  0  0  0  0
  145.8419  131.5501  149.3091 C   0  0  0  0  0  0  0  0  0  0  0  0
  145.7885  132.6184  151.6610 C   0  0  0  0  0  0  0  0  0  0  0  0
  145.2652  133.9177  152.1608 N   0  3  2  0  0  0  0  0  0  0  0  0
  145.5538  135.0184  151.2043 C   0  0  0  0  0  0  0  0  0  0  0  0
  144.9045  136.3428  151.6449 C   0  0  0  0  0  0  0  0  0  0  0  0
  145.3276  136.7442  153.0671 C   0  0  2  0  0  0  0  0  0  0  0  0
  146.7320  137.1532  153.0898 N   0  0  0  0  0  0  0  0  0  0  0  0
  147.1980  138.2937  153.6185 C   0  0  0  0  0  0  0  0  0  0  0  0
  146.4801  139.1455  154.1408 O   0  0  0  0  0  0  0  0  0  0  0  0
  148.5299  138.3871  153.4870 N   0  0  0  0  0  0  0  0  0  0  0  0
  149.3611  139.4315  153.9644 C   0  0  0  0  0  0  0  0  0  0  0  0
  150.7088  139.3799  154.4281 C   0  0  0  0  0  0  0  0  0  0  0  0
  151.6672  138.2287  154.5567 C   0  0  0  0  0  0  0  0  0  0  0  0
  151.1225  140.5977  154.7460 N   0  0  0  0  0  0  0  0  0  0  0  0
  150.0614  141.4712  154.4632 O   0  0  0  0  0  0  0  0  0  0  0  0
  149.0176  140.7513  153.9763 C   0  0  0  0  0  0  0  0  0  0  0  0
  147.7921  141.5097  153.5932 C   0  0  0  0  0  0  0  0  0  0  0  0
  145.0543  135.5711  154.0276 C   0  0  0  0  0  0  0  0  0  0  0  0
  145.6979  134.2596  153.5427 C   0  0  0  0  0  0  0  0  0  0  0  0
  143.1289  131.7260  149.5727 H   0  0  0  0  0  0  0  0  0  0  0  0
  143.0946  132.4895  151.2543 H   0  0  0  0  0  0  0  0  0  0  0  0
  146.4389  132.3549  148.8797 H   0  0  0  0  0  0  0  0  0  0  0  0
  145.2065  131.1468  148.5199 H   0  0  0  0  0  0  0  0  0  0  0  0
  146.5216  130.7615  149.6283 H   0  0  0  0  0  0  0  0  0  0  0  0
  145.8046  131.8799  152.4641 H   0  0  0  0  0  0  0  0  0  0  0  0
  146.8245  132.7535  151.3458 H   0  0  0  0  0  0  0  0  0  0  0  0
  146.6337  135.1407  151.1067 H   0  0  0  0  0  0  0  0  0  0  0  0
  145.1783  134.7520  150.2155 H   0  0  0  0  0  0  0  0  0  0  0  0
  145.1524  137.1358  150.9383 H   0  0  0  0  0  0  0  0  0  0  0  0
  143.8194  136.2357  151.6102 H   0  0  0  0  0  0  0  0  0  0  0  0
  144.7233  137.6005  153.3729 H   0  0  0  0  0  0  0  0  0  0  0  0
  147.3982  136.5226  152.6686 H   0  0  0  0  0  0  0  0  0  0  0  0
  148.9841  137.6838  152.9231 H   0  0  0  0  0  0  0  0  0  0  0  0
  151.4918  137.4801  153.7843 H   0  0  0  0  0  0  0  0  0  0  0  0
  151.5667  137.7427  155.5273 H   0  0  0  0  0  0  0  0  0  0  0  0
  152.7021  138.5580  154.4579 H   0  0  0  0  0  0  0  0  0  0  0  0
  147.0868  140.8730  153.0594 H   0  0  0  0  0  0  0  0  0  0  0  0
  148.0441  142.3500  152.9462 H   0  0  0  0  0  0  0  0  0  0  0  0
  147.2902  141.9019  154.4776 H   0  0  0  0  0  0  0  0  0  0  0  0
  145.4013  135.8066  155.0343 H   0  0  0  0  0  0  0  0  0  0  0  0
  143.9765  135.4260  154.1118 H   0  0  0  0  0  0  0  0  0  0  0  0
  145.4026  133.4713  154.2332 H   0  0  0  0  0  0  0  0  0  0  0  0
  146.7861  134.3301  153.5813 H   0  0  0  0  0  0  0  0  0  0  0  0
  144.2597  133.8245  152.1906 H   0  0  0  0  0  0  0  0  0  0  0  0
  1  2  2  0  0  0  0
  1 22  1  0  0  0  0
  1 23  1  0  0  0  0
  2  3  1  0  0  0  0
  2  4  1  0  0  0  0
  3 24  1  0  0  0  0
  3 25  1  0  0  0  0
  3 26  1  0  0  0  0
  4  5  1  0  0  0  0
  4 27  1  0  0  0  0
  4 28  1  0  0  0  0
  5 21  1  0  0  0  0
  5  6  1  0  0  0  0
  5 46  1  0  0  0  0
  6  7  1  0  0  0  0
  6 29  1  0  0  0  0
  6 30  1  0  0  0  0
  7  8  1  0  0  0  0
  7 31  1  0  0  0  0
  7 32  1  0  0  0  0
  8  9  1  0  0  0  0
  8 20  1  0  0  0  0
  8 33  1  0  0  0  0
  9 10  1  0  0  0  0
  9 34  1  0  0  0  0
 10 11  2  0  0  0  0
 10 12  1  0  0  0  0
 12 13  1  0  0  0  0
 12 35  1  0  0  0  0
 13 18  2  0  0  0  0
 13 14  1  0  0  0  0
 14 15  1  0  0  0  0
 14 16  2  0  0  0  0
 15 36  1  0  0  0  0
 15 37  1  0  0  0  0
 15 38  1  0  0  0  0
 16 17  1  0  0  0  0
 17 18  1  0  0  0  0
 18 19  1  0  0  0  0
 19 39  1  0  0  0  0
 19 40  1  0  0  0  0
 19 41  1  0  0  0  0
 20 21  1  0  0  0  0
 20 42  1  0  0  0  0
 20 43  1  0  0  0  0
 21 44  1  0  0  0  0
 21 45  1  0  0  0  0
M  CHG  1   5   1
M  END
> <s_m_source_file>
AV-unprocessed.smi

> <i_m_source_file_index>
960

> <i_lp_mmshare_version>
43012

> <i_f3d_flags>
0

> <s_epik_input>
W0NIMl09QyhbQ0gzXSlbQ0gyXU4xW0NIMl1bQ0gyXVtDSF0oW0NIMl1bQ0gyXTEpW05IXUMoPU8pW05IXWMyYyhbQ0gzXSlub2MyW0NIM10=

> <s_epik_cmdline>
J2VwaWtfcHl0aG9uJywgJy1waCcsICc3LjAnLCAnLXRuJywgJzgnLCAnLW1hJywgJzIwMCcsICctbWV0YWxfYmluZGluZycsICctaW1hZScsICc8aW5maWxlLm1hZT4nLCAnLW9tYWUnLCAnPG91dGZpbGUubWFlPic=

> <r_epik_Ionization_Penalty>
0.01938

> <r_epik_Ionization_Penalty_Charging>
0.0193505

> <r_epik_Ionization_Penalty_Neutral>
2.94909e-05

> <r_epik_State_Penalty>
0.0154499

> <r_epik_Charging_Adjusted_Penalty>
0.0348004

> <i_epik_Tot_Q>
1

> <i_epik_Tot_abs_Q>
1

> <r_epik_Metal_State_Penalty>
0.0154499

> <b_epik_Metal_Only>
0

> <s_lp_Force_Field>
OPLS_2005

> <r_lp_Energy>
21.0262

> <b_lp_Chiralities_Consistent>
1

> <s_lp_Variant>
AV-unprocessed.smi:960-2

> <Gold.Version>
5.8.1

> <Gold.Id.Protein>
6NUR|6NUR_protein|mol2

> <Gold.PLP.Fitness>
44.5332

> <Gold.PLP.PLP>
-38.5163

> <Gold.PLP.part.hbond>
-4.2343

> <Gold.PLP.part.metal>
0.0000

> <Gold.PLP.part.buried>
-3.6873

> <Gold.PLP.part.nonpolar>
-30.4723

> <Gold.PLP.part.repulsive>
0.3199

> <Gold.PLP.ligand.clash>
0.0000

> <Gold.PLP.ligand.torsion>
0.6339

> <Gold.PLP.Chemscore.Hbond>
2.3001

> <Gold.PLP.Chemscore.CHOScore>
0.0000

> <Gold.PLP.Chemscore.Metal>
0.0000

> <Gold.Chemscore.Hbonds>
donor molecule, donor type, donor heavy atom, donor atom, acceptor molecule, acceptor atom, score
      L1  H     9    34       P1  7948  1.00
      L1  H    12    35       P1  7948  1.00
      P1  H  7989  7998       L1    16  0.19

> <Gold.PLP.Chemscore.Internal.Correction>
0.3845

> <Gold.Rescore>
     Score         DG    S(hbond)    S(metal)    S(lipo)     H(rot)  DE(clash)    DE(int)     intcor
     17.37     -19.45       1.94        0.00      93.58       1.35       0.01       2.07       ----

> <Gold.Chemscore.Fitness>
17.3730

> <Gold.Chemscore.DG>
-19.4540

> <Gold.Chemscore.ZeroCoef>
-5.4800

> <Gold.Chemscore.Hbond>
1.9389

> <Gold.Chemscore.Metal>
0.0000

> <Gold.Chemscore.Lipo>
93.5823

> <Gold.Chemscore.Internal_Hbond>
0.0000

> <Gold.Chemscore.DEClash>
0.0126

> <Gold.Chemscore.DEInternal>
2.0684

> <Gold.Chemscore.Rot>
1.3480

> <Gold.Chemscore.Internal.Correction>
   9.000000E+99

> <Gold.Chemscore.Hbonds>
donor molecule, donor type, donor heavy atom, donor atom, acceptor molecule, acceptor atom, score
      L1  H     9    34       P1  7948  0.95
      L1  H    12    35       P1  7948  0.97

> <Gold.Chemscore.Hbond.Weighted>
-6.4758

> <Gold.Chemscore.Metal.Weighted>
-0.0000

> <Gold.Chemscore.Lipo.Weighted>
-10.9491

> <Gold.Chemscore.Internal_Hbond.Weighted>
0.0000

> <Gold.Chemscore.DEClash.Weighted>
0.0126

> <Gold.Chemscore.DEInternal.Weighted>
2.0684

> <Gold.Chemscore.Rot.Weighted>
3.4509

> <Gold.Chemscore.Internal.Correction.Weighted>
   9.000000E+99

> <Gold.Protein.RotatedTorsions>
[ 6907 6896 6895 6894 ] final   74.73 input  -60.11 | X-H torsion
[ 7974 7965 7964 7962 ] final   49.86 input  175.53 | X-H torsion
[ 8008 7997 7996 7995 ] final  -60.24 input   59.86 | X-H torsion
[ 10167 10162 10161 10158 ] final -134.44 input  -65.29 | X-H torsion
[ 10718 10713 10712 10709 ] final -136.82 input   66.30 | X-H torsion
[ 10763 10752 10751 10750 ] final  -52.38 input  -60.55 | X-H torsion
[ 11005 11000 10999 10996 ] final  -66.77 input  -57.11 | X-H torsion

> <Gold.Protein.ActiveResidues>
 VAL166  LYS551  ARG553  GLY616  TRP617  ASP618  TYR619  PRO620  LYS621  CYS622 
 ASP623  PHE694  ASN695  SER759  ASP760  ASP761  ALA762  ILE779  LEU786  VAL792 
 PHE793  MET794  SER795  GLU796  ALA797  LYS798  CYS799  TRP800  GLU811  SER814 

> <Gold.Protein.RotatedAtoms>
  152.4990  134.4228  159.9485 H   0  0  0  0  0  0  0  0  0  0  0  0  # atno 6907 bound_to 6896
  151.4202  133.3694  159.2763 H   0  0  0  0  0  0  0  0  0  0  0  0  # atno 6908 bound_to 6896
  150.9228  134.8668  159.7560 H   0  0  0  0  0  0  0  0  0  0  0  0  # atno 6909 bound_to 6896
  146.0068  139.4499  142.9981 H   0  0  0  0  0  0  0  0  0  0  0  0  # atno 7974 bound_to 7965
  154.4389  140.1044  156.6243 H   0  0  0  0  0  0  0  0  0  0  0  0  # atno 8008 bound_to 7997
  155.5673  140.3488  155.4488 H   0  0  0  0  0  0  0  0  0  0  0  0  # atno 8009 bound_to 7997
  156.0415  140.1283  157.0139 H   0  0  0  0  0  0  0  0  0  0  0  0  # atno 8010 bound_to 7997
  139.8880  143.6757  152.2617 H   0  0  0  0  0  0  0  0  0  0  0  0  # atno 10167 bound_to 10162
  156.2813  130.7322  151.1320 H   0  0  0  0  0  0  0  0  0  0  0  0  # atno 10718 bound_to 10713
  154.1418  135.6504  153.4944 H   0  0  0  0  0  0  0  0  0  0  0  0  # atno 10763 bound_to 10752
  153.0163  135.5317  154.6897 H   0  0  0  0  0  0  0  0  0  0  0  0  # atno 10764 bound_to 10752
  154.6160  135.2959  155.0350 H   0  0  0  0  0  0  0  0  0  0  0  0  # atno 10765 bound_to 10752
  141.1491  133.6706  156.6191 H   0  0  0  0  0  0  0  0  0  0  0  0  # atno 11005 bound_to 11000
  145.7403  141.0010  143.1304 LP  0  0  0  0  0  0  0  0  0  0  0  0  # atno 17320 bound_to 7965
  144.6938  139.9091  143.7462 LP  0  0  0  0  0  0  0  0  0  0  0  0  # atno 17321 bound_to 7965
  139.7135  144.7616  151.1073 LP  0  0  0  0  0  0  0  0  0  0  0  0  # atno 17342 bound_to 10162
  140.7732  143.5300  150.9435 LP  0  0  0  0  0  0  0  0  0  0  0  0  # atno 17343 bound_to 10162
  157.7315  131.0607  150.5674 LP  0  0  0  0  0  0  0  0  0  0  0  0  # atno 17370 bound_to 10713
  156.5780  130.4297  149.5990 LP  0  0  0  0  0  0  0  0  0  0  0  0  # atno 17371 bound_to 10713
  140.3555  134.7732  157.4497 LP  0  0  0  0  0  0  0  0  0  0  0  0  # atno 17394 bound_to 11000
  140.0827  134.5709  155.8524 LP  0  0  0  0  0  0  0  0  0  0  0  0  # atno 17395 bound_to 11000

$$$$
