AV-unprocessed.smi:224|AV-procd|sdf|1720|dock5
  -GOLD-   2262020193D 1   1.00000     0.00000
 Structure written by MMmdl.
 56 59  0  0  0  0  0  0  0  0  2 V2000
  143.2999  135.4769  152.8097 C   0  0  0  0  0  0  0  0  0  0  0  0
  144.0469  136.7951  152.5686 C   0  0  1  0  0  0  0  0  0  0  0  0
  143.0861  137.7869  152.2665 O   0  0  0  0  0  0  0  0  0  0  0  0
  144.8588  137.2256  153.8070 C   0  0  0  0  0  0  0  0  0  0  0  0
  145.4212  138.5963  153.6823 N   0  3  2  0  0  0  0  0  0  0  0  0
  146.6581  138.6679  152.8581 C   0  0  0  0  0  0  0  0  0  0  0  0
  147.0974  140.1285  152.6510 C   0  0  0  0  0  0  0  0  0  0  0  0
  147.2155  140.8323  153.9265 N   0  0  0  0  0  0  0  0  0  0  0  0
  148.4161  140.8629  154.5656 C   0  0  0  0  0  0  0  0  0  0  0  0
  149.5093  140.3178  153.9678 N   0  0  0  0  0  0  0  0  0  0  0  0
  150.6928  140.3175  154.5873 C   0  0  0  0  0  0  0  0  0  0  0  0
  151.0046  140.8074  155.7874 N   0  0  0  0  0  0  0  0  0  0  0  0
  149.9199  141.3750  156.3875 C   0  0  0  0  0  0  0  0  0  0  0  0
  148.6010  141.4428  155.8543 C   0  0  0  0  0  0  0  0  0  0  0  0
  147.7654  142.0980  156.7518 N   0  0  0  0  0  0  0  0  0  0  0  0
  148.5412  142.3879  157.7602 C   0  0  0  0  0  0  0  0  0  0  0  0
  149.8545  142.0013  157.6201 N   0  0  0  0  0  0  0  0  0  0  0  0
  150.9283  142.2015  158.5810 C   0  0  0  0  0  0  0  0  0  0  0  0
  151.2642  143.6914  158.8482 C   0  0  2  0  0  0  0  0  0  0  0  0
  151.2148  144.4182  157.6353 O   0  0  0  0  0  0  0  0  0  0  0  0
  152.6330  143.8640  159.4863 C   0  0  0  0  0  0  0  0  0  0  0  0
  152.3413  143.6759  160.9736 C   0  0  0  0  0  0  0  0  0  0  0  0
  150.9850  144.0694  161.1620 O   0  0  0  0  0  0  0  0  0  0  0  0
  150.3782  144.3601  159.9070 C   0  0  0  0  0  0  0  0  0  0  0  0
  146.0150  140.7729  154.7590 C   0  0  0  0  0  0  0  0  0  0  0  0
  145.5417  139.3192  154.9839 C   0  0  2  0  0  0  0  0  0  0  0  0
  146.4131  138.5751  156.0191 C   0  0  0  0  0  0  0  0  0  0  0  0
  143.9962  134.6666  153.0273 H   0  0  0  0  0  0  0  0  0  0  0  0
  142.7220  135.1855  151.9319 H   0  0  0  0  0  0  0  0  0  0  0  0
  142.6098  135.5570  153.6506 H   0  0  0  0  0  0  0  0  0  0  0  0
  144.6934  136.6661  151.7014 H   0  0  0  0  0  0  0  0  0  0  0  0
  143.4565  138.6386  152.4390 H   0  0  0  0  0  0  0  0  0  0  0  0
  144.2069  137.1723  154.6807 H   0  0  0  0  0  0  0  0  0  0  0  0
  145.6724  136.5218  153.9903 H   0  0  0  0  0  0  0  0  0  0  0  0
  147.4534  138.0945  153.3350 H   0  0  0  0  0  0  0  0  0  0  0  0
  146.4936  138.2117  151.8831 H   0  0  0  0  0  0  0  0  0  0  0  0
  148.0268  140.1779  152.0824 H   0  0  0  0  0  0  0  0  0  0  0  0
  146.3522  140.6499  152.0490 H   0  0  0  0  0  0  0  0  0  0  0  0
  151.5062  139.8590  154.0444 H   0  0  0  0  0  0  0  0  0  0  0  0
  148.1764  142.9039  158.6368 H   0  0  0  0  0  0  0  0  0  0  0  0
  150.6443  141.7031  159.5084 H   0  0  0  0  0  0  0  0  0  0  0  0
  151.8128  141.6779  158.2156 H   0  0  0  0  0  0  0  0  0  0  0  0
  150.3806  144.2570  157.2218 H   0  0  0  0  0  0  0  0  0  0  0  0
  153.3845  143.1709  159.1065 H   0  0  0  0  0  0  0  0  0  0  0  0
  153.0041  144.8775  159.3235 H   0  0  0  0  0  0  0  0  0  0  0  0
  152.4419  142.6276  161.2565 H   0  0  0  0  0  0  0  0  0  0  0  0
  153.0137  144.2597  161.6025 H   0  0  0  0  0  0  0  0  0  0  0  0
  150.3929  145.4444  159.7851 H   0  0  0  0  0  0  0  0  0  0  0  0
  149.3349  144.0487  159.8801 H   0  0  0  0  0  0  0  0  0  0  0  0
  146.1497  141.2671  155.7195 H   0  0  0  0  0  0  0  0  0  0  0  0
  145.2325  141.3318  154.2447 H   0  0  0  0  0  0  0  0  0  0  0  0
  144.5379  139.3813  155.4064 H   0  0  0  0  0  0  0  0  0  0  0  0
  146.4892  139.1501  156.9425 H   0  0  0  0  0  0  0  0  0  0  0  0
  147.4272  138.4034  155.6606 H   0  0  0  0  0  0  0  0  0  0  0  0
  145.9896  137.6062  156.2834 H   0  0  0  0  0  0  0  0  0  0  0  0
  144.7263  139.1198  153.1695 H   0  0  0  0  0  0  0  0  0  0  0  0
  1  2  1  0  0  0  0
  1 28  1  0  0  0  0
  1 29  1  0  0  0  0
  1 30  1  0  0  0  0
  2  3  1  0  0  0  0
  2  4  1  0  0  0  0
  2 31  1  0  0  0  0
  3 32  1  0  0  0  0
  4  5  1  0  0  0  0
  4 33  1  0  0  0  0
  4 34  1  0  0  0  0
  5 26  1  0  0  0  0
  5  6  1  0  0  0  0
  5 56  1  0  0  0  0
  6  7  1  0  0  0  0
  6 35  1  0  0  0  0
  6 36  1  0  0  0  0
  7  8  1  0  0  0  0
  7 37  1  0  0  0  0
  7 38  1  0  0  0  0
  8  9  1  0  0  0  0
  8 25  1  0  0  0  0
  9 14  1  0  0  0  0
  9 10  2  0  0  0  0
 10 11  1  0  0  0  0
 11 12  2  0  0  0  0
 11 39  1  0  0  0  0
 12 13  1  0  0  0  0
 13 17  1  0  0  0  0
 13 14  2  0  0  0  0
 14 15  1  0  0  0  0
 15 16  2  0  0  0  0
 16 17  1  0  0  0  0
 16 40  1  0  0  0  0
 17 18  1  0  0  0  0
 18 19  1  0  0  0  0
 18 41  1  0  0  0  0
 18 42  1  0  0  0  0
 19 24  1  0  0  0  0
 19 20  1  0  0  0  0
 19 21  1  0  0  0  0
 20 43  1  0  0  0  0
 21 22  1  0  0  0  0
 21 44  1  0  0  0  0
 21 45  1  0  0  0  0
 22 23  1  0  0  0  0
 22 46  1  0  0  0  0
 22 47  1  0  0  0  0
 23 24  1  0  0  0  0
 24 48  1  0  0  0  0
 24 49  1  0  0  0  0
 25 26  1  0  0  0  0
 25 50  1  0  0  0  0
 25 51  1  0  0  0  0
 26 27  1  0  0  0  0
 26 52  1  0  0  0  0
 27 53  1  0  0  0  0
 27 54  1  0  0  0  0
 27 55  1  0  0  0  0
M  CHG  1   5   1
M  END
> <s_m_source_file>
AV-unprocessed.smi

> <i_m_source_file_index>
224

> <i_lp_mmshare_version>
43012

> <i_f3d_flags>
0

> <s_epik_input>
W0NIM11bQ0BIXShbT0hdKVtDSDJdTjFbQ0gyXVtDSDJdTihbQ0gyXVtDQEhdMVtDSDNdKWMobltjSF1uMiljKGMyMyluW2NIXW4zW0NIMl1bQ0BAXTQoW09IXSlbQ0gyXVtDSDJdT1tDSDJdNA==

> <s_epik_cmdline>
J2VwaWtfcHl0aG9uJywgJy1waCcsICc3LjAnLCAnLXRuJywgJzgnLCAnLW1hJywgJzIwMCcsICctbWV0YWxfYmluZGluZycsICctaW1hZScsICc8aW5maWxlLm1hZT4nLCAnLW9tYWUnLCAnPG91dGZpbGUubWFlPic=

> <r_lp_tautomer_probability>
1

> <r_epik_Ionization_Penalty>
0.00516958

> <r_epik_Ionization_Penalty_Charging>
0.00509693

> <r_epik_Ionization_Penalty_Neutral>
7.26542e-05

> <r_epik_State_Penalty>
-0

> <r_epik_Charging_Adjusted_Penalty>
0.00509693

> <i_epik_Tot_Q>
1

> <i_epik_Tot_abs_Q>
1

> <r_epik_Metal_State_Penalty>
-0

> <b_epik_Metal_Only>
0

> <s_lp_Force_Field>
OPLS_2005

> <r_lp_Energy>
52.1704

> <b_lp_Chiralities_Consistent>
1

> <s_lp_Variant>
AV-unprocessed.smi:224-14

> <Gold.Version>
5.8.1

> <Gold.Id.Protein>
6NUR|6NUR_protein|mol2

> <Gold.PLP.Fitness>
49.1310

> <Gold.PLP.PLP>
-39.6302

> <Gold.PLP.part.hbond>
-5.9331

> <Gold.PLP.part.metal>
0.0000

> <Gold.PLP.part.buried>
-1.3411

> <Gold.PLP.part.nonpolar>
-35.0585

> <Gold.PLP.part.repulsive>
3.2725

> <Gold.PLP.ligand.clash>
0.0000

> <Gold.PLP.ligand.torsion>
0.8403

> <Gold.PLP.Chemscore.Hbond>
3.6175

> <Gold.PLP.Chemscore.CHOScore>
0.0000

> <Gold.PLP.Chemscore.Metal>
0.0000

> <Gold.Chemscore.Hbonds>
donor molecule, donor type, donor heavy atom, donor atom, acceptor molecule, acceptor atom, score
      L1  H     3    32       P1 10175  1.00
      L1  H     5    56       P1 10175  2.00
      L1  H    20    43       P1  8028  0.61

> <Gold.PLP.Chemscore.Internal.Correction>
0.3290

> <Gold.Rescore>
     Score         DG    S(hbond)    S(metal)    S(lipo)     H(rot)  DE(clash)    DE(int)     intcor
     10.82     -17.02       2.73        0.00      86.98       3.02       4.20       2.00       ----

> <Gold.Chemscore.Fitness>
10.8173

> <Gold.Chemscore.DG>
-17.0188

> <Gold.Chemscore.ZeroCoef>
-5.4800

> <Gold.Chemscore.Hbond>
2.7250

> <Gold.Chemscore.Metal>
0.0000

> <Gold.Chemscore.Lipo>
86.9768

> <Gold.Chemscore.Internal_Hbond>
0.0000

> <Gold.Chemscore.DEClash>
4.2041

> <Gold.Chemscore.DEInternal>
1.9974

> <Gold.Chemscore.Rot>
3.0231

> <Gold.Chemscore.Internal.Correction>
   9.000000E+99

> <Gold.Chemscore.Hbonds>
donor molecule, donor type, donor heavy atom, donor atom, acceptor molecule, acceptor atom, score
      L1  H     3    32       P1 10175  0.99
      L1  H     5    56       P1 10175  1.00
      L1  H    20    43       P1  8028  0.48

> <Gold.Chemscore.Hbond.Weighted>
-9.1016

> <Gold.Chemscore.Metal.Weighted>
-0.0000

> <Gold.Chemscore.Lipo.Weighted>
-10.1763

> <Gold.Chemscore.Internal_Hbond.Weighted>
0.0000

> <Gold.Chemscore.DEClash.Weighted>
4.2041

> <Gold.Chemscore.DEInternal.Weighted>
1.9974

> <Gold.Chemscore.Rot.Weighted>
7.7391

> <Gold.Chemscore.Internal.Correction.Weighted>
   9.000000E+99

> <Gold.Protein.RotatedTorsions>
[ 6907 6896 6895 6894 ] final -101.59 input  -60.11 | X-H torsion
[ 7974 7965 7964 7962 ] final -161.16 input  175.53 | X-H torsion
[ 8008 7997 7996 7995 ] final   48.69 input   59.86 | X-H torsion
[ 10167 10162 10161 10158 ] final   45.10 input  -65.29 | X-H torsion
[ 10718 10713 10712 10709 ] final  -22.63 input   66.30 | X-H torsion
[ 10763 10752 10751 10750 ] final  102.38 input  -60.55 | X-H torsion
[ 11005 11000 10999 10996 ] final  -66.38 input  -57.11 | X-H torsion

> <Gold.Protein.ActiveResidues>
 VAL166  LYS551  ARG553  GLY616  TRP617  ASP618  TYR619  PRO620  LYS621  CYS622 
 ASP623  PHE694  ASN695  SER759  ASP760  ASP761  ALA762  ILE779  LEU786  VAL792 
 PHE793  MET794  SER795  GLU796  ALA797  LYS798  CYS799  TRP800  GLU811  SER814 

> <Gold.Protein.RotatedAtoms>
  150.7161  134.0711  159.3864 H   0  0  0  0  0  0  0  0  0  0  0  0  # atno 6907 bound_to 6896
  151.8693  135.0493  160.0487 H   0  0  0  0  0  0  0  0  0  0  0  0  # atno 6908 bound_to 6896
  152.2655  133.5300  159.5444 H   0  0  0  0  0  0  0  0  0  0  0  0  # atno 6909 bound_to 6896
  144.7401  140.3438  143.6129 H   0  0  0  0  0  0  0  0  0  0  0  0  # atno 7974 bound_to 7965
  155.3898  140.3433  155.4251 H   0  0  0  0  0  0  0  0  0  0  0  0  # atno 8008 bound_to 7997
  156.1564  140.1587  156.8719 H   0  0  0  0  0  0  0  0  0  0  0  0  # atno 8009 bound_to 7997
  154.5098  140.0793  156.7950 H   0  0  0  0  0  0  0  0  0  0  0  0  # atno 8010 bound_to 7997
  140.3276  144.2628  150.6173 H   0  0  0  0  0  0  0  0  0  0  0  0  # atno 10167 bound_to 10162
  156.5019  130.4590  149.6696 H   0  0  0  0  0  0  0  0  0  0  0  0  # atno 10718 bound_to 10713
  153.3388  135.4012  155.1555 H   0  0  0  0  0  0  0  0  0  0  0  0  # atno 10763 bound_to 10752
  154.8639  135.3628  154.5373 H   0  0  0  0  0  0  0  0  0  0  0  0  # atno 10764 bound_to 10752
  153.5816  135.7076  153.5520 H   0  0  0  0  0  0  0  0  0  0  0  0  # atno 10765 bound_to 10752
  141.1480  133.6698  156.6130 H   0  0  0  0  0  0  0  0  0  0  0  0  # atno 11005 bound_to 11000
  145.7347  139.1746  143.2410 LP  0  0  0  0  0  0  0  0  0  0  0  0  # atno 17320 bound_to 7965
  146.1180  140.7346  142.9471 LP  0  0  0  0  0  0  0  0  0  0  0  0  # atno 17321 bound_to 7965
  140.5427  143.2220  151.8059 LP  0  0  0  0  0  0  0  0  0  0  0  0  # atno 17342 bound_to 10162
  139.4862  144.4580  151.9575 LP  0  0  0  0  0  0  0  0  0  0  0  0  # atno 17343 bound_to 10162
  156.3324  130.7339  151.2270 LP  0  0  0  0  0  0  0  0  0  0  0  0  # atno 17370 bound_to 10713
  157.7462  131.0426  150.4703 LP  0  0  0  0  0  0  0  0  0  0  0  0  # atno 17371 bound_to 10713
  140.3599  134.7696  157.4527 LP  0  0  0  0  0  0  0  0  0  0  0  0  # atno 17394 bound_to 11000
  140.0793  134.5753  155.8557 LP  0  0  0  0  0  0  0  0  0  0  0  0  # atno 17395 bound_to 11000

$$$$
