AV-unprocessed.smi:466|AV-procd|sdf|2641|dock4
  -GOLD-   2262023 53D 1   1.00000     0.00000
 Structure written by MMmdl.
 43 45  0  0  0  0  0  0  0  0  1 V2000
  153.7086  141.5240  161.4731 C   0  0  0  0  0  0  0  0  0  0  0  0
  152.9585  141.6026  160.2699 O   0  0  0  0  0  0  0  0  0  0  0  0
  152.3049  142.7833  159.9815 C   0  0  0  0  0  0  0  0  0  0  0  0
  152.2985  143.9078  160.8457 C   0  0  0  0  0  0  0  0  0  0  0  0
  151.6076  145.0796  160.4884 C   0  0  0  0  0  0  0  0  0  0  0  0
  150.9171  145.1426  159.2665 C   0  0  0  0  0  0  0  0  0  0  0  0
  150.9173  144.0340  158.4009 C   0  0  0  0  0  0  0  0  0  0  0  0
  151.6097  142.8467  158.7512 C   0  0  0  0  0  0  0  0  0  0  0  0
  151.6511  141.7219  157.9530 O   0  0  0  0  0  0  0  0  0  0  0  0
  151.0840  141.7930  156.6528 C   0  0  0  0  0  0  0  0  0  0  0  0
  151.6925  140.6789  155.7934 C   0  0  0  0  0  0  0  0  0  0  0  0
  150.6721  139.7646  155.3055 N   0  0  0  0  0  0  0  0  0  0  0  0
  150.6437  138.4090  155.3785 C   0  0  0  0  0  0  0  0  0  0  0  0
  151.7336  137.6067  156.0285 C   0  0  0  0  0  0  0  0  0  0  0  0
  151.4915  136.0903  155.9667 C   0  0  0  0  0  0  0  0  0  0  0  0
  151.3999  135.6460  154.6295 O   0  0  0  0  0  0  0  0  0  0  0  0
  149.5740  137.8232  154.8377 N   0  0  0  0  0  0  0  0  0  0  0  0
  148.8435  138.8963  154.3667 C   0  0  0  0  0  0  0  0  0  0  0  0
  147.6041  138.9370  153.6885 C   0  0  0  0  0  0  0  0  0  0  0  0
  147.0462  140.1710  153.2946 C   0  0  0  0  0  0  0  0  0  0  0  0
  147.7183  141.3791  153.5718 C   0  0  0  0  0  0  0  0  0  0  0  0
  148.9534  141.3608  154.2477 C   0  0  0  0  0  0  0  0  0  0  0  0
  149.5049  140.1265  154.6406 C   0  0  0  0  0  0  0  0  0  0  0  0
  154.1496  140.5308  161.5568 H   0  0  0  0  0  0  0  0  0  0  0  0
  153.0762  141.6778  162.3485 H   0  0  0  0  0  0  0  0  0  0  0  0
  154.5240  142.2483  161.4829 H   0  0  0  0  0  0  0  0  0  0  0  0
  152.8172  143.8967  161.7920 H   0  0  0  0  0  0  0  0  0  0  0  0
  151.6077  145.9308  161.1533 H   0  0  0  0  0  0  0  0  0  0  0  0
  150.3861  146.0422  158.9917 H   0  0  0  0  0  0  0  0  0  0  0  0
  150.3771  144.1208  157.4707 H   0  0  0  0  0  0  0  0  0  0  0  0
  150.0017  141.6639  156.7076 H   0  0  0  0  0  0  0  0  0  0  0  0
  151.2908  142.7648  156.2021 H   0  0  0  0  0  0  0  0  0  0  0  0
  152.2448  141.0968  154.9523 H   0  0  0  0  0  0  0  0  0  0  0  0
  152.4163  140.1105  156.3783 H   0  0  0  0  0  0  0  0  0  0  0  0
  152.6627  137.8320  155.5037 H   0  0  0  0  0  0  0  0  0  0  0  0
  151.8965  137.9319  157.0555 H   0  0  0  0  0  0  0  0  0  0  0  0
  152.2791  135.5452  156.4880 H   0  0  0  0  0  0  0  0  0  0  0  0
  150.5513  135.8480  156.4625 H   0  0  0  0  0  0  0  0  0  0  0  0
  150.7591  136.1751  154.1793 H   0  0  0  0  0  0  0  0  0  0  0  0
  147.0826  138.0168  153.4702 H   0  0  0  0  0  0  0  0  0  0  0  0
  146.0986  140.1909  152.7766 H   0  0  0  0  0  0  0  0  0  0  0  0
  147.2854  142.3203  153.2657 H   0  0  0  0  0  0  0  0  0  0  0  0
  149.4708  142.2844  154.4611 H   0  0  0  0  0  0  0  0  0  0  0  0
  1  2  1  0  0  0  0
  1 24  1  0  0  0  0
  1 25  1  0  0  0  0
  1 26  1  0  0  0  0
  2  3  1  0  0  0  0
  3  8  1  0  0  0  0
  3  4  2  0  0  0  0
  4  5  1  0  0  0  0
  4 27  1  0  0  0  0
  5  6  2  0  0  0  0
  5 28  1  0  0  0  0
  6  7  1  0  0  0  0
  6 29  1  0  0  0  0
  7  8  2  0  0  0  0
  7 30  1  0  0  0  0
  8  9  1  0  0  0  0
  9 10  1  0  0  0  0
 10 11  1  0  0  0  0
 10 31  1  0  0  0  0
 10 32  1  0  0  0  0
 11 12  1  0  0  0  0
 11 33  1  0  0  0  0
 11 34  1  0  0  0  0
 12 23  1  0  0  0  0
 12 13  1  0  0  0  0
 13 14  1  0  0  0  0
 13 17  2  0  0  0  0
 14 15  1  0  0  0  0
 14 35  1  0  0  0  0
 14 36  1  0  0  0  0
 15 16  1  0  0  0  0
 15 37  1  0  0  0  0
 15 38  1  0  0  0  0
 16 39  1  0  0  0  0
 17 18  1  0  0  0  0
 18 23  2  0  0  0  0
 18 19  1  0  0  0  0
 19 20  2  0  0  0  0
 19 40  1  0  0  0  0
 20 21  1  0  0  0  0
 20 41  1  0  0  0  0
 21 22  2  0  0  0  0
 21 42  1  0  0  0  0
 22 23  1  0  0  0  0
 22 43  1  0  0  0  0
M  END
> <s_m_source_file>
AV-unprocessed.smi

> <i_m_source_file_index>
466

> <i_lp_mmshare_version>
43012

> <i_f3d_flags>
0

> <s_epik_input>
W0NIM11PYzFbY0hdW2NIXVtjSF1bY0hdYzFPW0NIMl1bQ0gyXW4oYyhuMilbQ0gyXVtDSDJdW09IXSljKGMyMylbY0hdW2NIXVtjSF1bY0hdMw==

> <s_epik_cmdline>
J2VwaWtfcHl0aG9uJywgJy1waCcsICc3LjAnLCAnLXRuJywgJzgnLCAnLW1hJywgJzIwMCcsICctbWV0YWxfYmluZGluZycsICctaW1hZScsICc8aW5maWxlLm1hZT4nLCAnLW9tYWUnLCAnPG91dGZpbGUubWFlPic=

> <r_lp_tautomer_probability>
1

> <r_epik_Ionization_Penalty>
0.20808

> <r_epik_Ionization_Penalty_Charging>
0

> <r_epik_Ionization_Penalty_Neutral>
0.20808

> <r_epik_State_Penalty>
0.198097

> <r_epik_Charging_Adjusted_Penalty>
0.198097

> <i_epik_Tot_Q>
0

> <i_epik_Tot_abs_Q>
0

> <r_epik_Metal_State_Penalty>
0.000235189

> <b_epik_Metal_Only>
0

> <s_lp_Force_Field>
OPLS_2005

> <r_lp_Energy>
20.5556

> <b_lp_Chiralities_Consistent>
1

> <s_lp_Variant>
AV-unprocessed.smi:466-1

> <Gold.Version>
5.8.1

> <Gold.Id.Protein>
6NUR|6NUR_protein|mol2

> <Gold.PLP.Fitness>
50.2277

> <Gold.PLP.PLP>
-48.2459

> <Gold.PLP.part.hbond>
-1.0000

> <Gold.PLP.part.metal>
0.0000

> <Gold.PLP.part.buried>
-4.9977

> <Gold.PLP.part.nonpolar>
-40.6747

> <Gold.PLP.part.repulsive>
0.1379

> <Gold.PLP.ligand.clash>
0.0000

> <Gold.PLP.ligand.torsion>
0.6010

> <Gold.PLP.Chemscore.Hbond>
1.0000

> <Gold.PLP.Chemscore.CHOScore>
0.0000

> <Gold.PLP.Chemscore.Metal>
0.0000

> <Gold.Chemscore.Hbonds>
donor molecule, donor type, donor heavy atom, donor atom, acceptor molecule, acceptor atom, score
      P1  H 10752 10765       L1    16  0.59

> <Gold.PLP.Chemscore.Internal.Correction>
0.1838

> <Gold.Rescore>
     Score         DG    S(hbond)    S(metal)    S(lipo)     H(rot)  DE(clash)    DE(int)     intcor
     15.33     -17.64       0.75        0.00     139.12       2.59       0.38       1.93       ----

> <Gold.Chemscore.Fitness>
15.3251

> <Gold.Chemscore.DG>
-17.6358

> <Gold.Chemscore.ZeroCoef>
-5.4800

> <Gold.Chemscore.Hbond>
0.7526

> <Gold.Chemscore.Metal>
0.0000

> <Gold.Chemscore.Lipo>
139.1163

> <Gold.Chemscore.Internal_Hbond>
0.0000

> <Gold.Chemscore.DEClash>
0.3823

> <Gold.Chemscore.DEInternal>
1.9284

> <Gold.Chemscore.Rot>
2.5916

> <Gold.Chemscore.Internal.Correction>
   9.000000E+99

> <Gold.Chemscore.Hbonds>
donor molecule, donor type, donor heavy atom, donor atom, acceptor molecule, acceptor atom, score
      P1  H 10752 10765       L1    16  0.04

> <Gold.Chemscore.Hbond.Weighted>
-2.5138

> <Gold.Chemscore.Metal.Weighted>
-0.0000

> <Gold.Chemscore.Lipo.Weighted>
-16.2766

> <Gold.Chemscore.Internal_Hbond.Weighted>
0.0000

> <Gold.Chemscore.DEClash.Weighted>
0.3823

> <Gold.Chemscore.DEInternal.Weighted>
1.9284

> <Gold.Chemscore.Rot.Weighted>
6.6346

> <Gold.Chemscore.Internal.Correction.Weighted>
   9.000000E+99

> <Gold.Protein.RotatedTorsions>
[ 6907 6896 6895 6894 ] final  -79.90 input  -60.11 | X-H torsion
[ 7974 7965 7964 7962 ] final    3.30 input  175.53 | X-H torsion
[ 8008 7997 7996 7995 ] final  176.21 input   59.86 | X-H torsion
[ 10167 10162 10161 10158 ] final -137.19 input  -65.29 | X-H torsion
[ 10718 10713 10712 10709 ] final  -47.97 input   66.30 | X-H torsion
[ 10763 10752 10751 10750 ] final  173.93 input  -60.55 | X-H torsion
[ 11005 11000 10999 10996 ] final   63.63 input  -57.11 | X-H torsion

> <Gold.Protein.ActiveResidues>
 VAL166  LYS551  ARG553  GLY616  TRP617  ASP618  TYR619  PRO620  LYS621  CYS622 
 ASP623  PHE694  ASN695  SER759  ASP760  ASP761  ALA762  ILE779  LEU786  VAL792 
 PHE793  MET794  SER795  GLU796  ALA797  LYS798  CYS799  TRP800  GLU811  SER814 

> <Gold.Protein.RotatedAtoms>
  150.6940  134.4051  159.5136 H   0  0  0  0  0  0  0  0  0  0  0  0  # atno 6907 bound_to 6896
  152.1818  134.8744  160.0535 H   0  0  0  0  0  0  0  0  0  0  0  0  # atno 6908 bound_to 6896
  151.9732  133.3698  159.4116 H   0  0  0  0  0  0  0  0  0  0  0  0  # atno 6909 bound_to 6896
  146.2445  140.0706  142.8363 H   0  0  0  0  0  0  0  0  0  0  0  0  # atno 7974 bound_to 7965
  156.0788  140.1389  156.9738 H   0  0  0  0  0  0  0  0  0  0  0  0  # atno 8008 bound_to 7997
  154.4573  140.0956  156.6844 H   0  0  0  0  0  0  0  0  0  0  0  0  # atno 8009 bound_to 7997
  155.5109  140.3453  155.4390 H   0  0  0  0  0  0  0  0  0  0  0  0  # atno 8010 bound_to 7997
  139.8603  143.7086  152.2650 H   0  0  0  0  0  0  0  0  0  0  0  0  # atno 10167 bound_to 10162
  156.2033  130.4157  149.9212 H   0  0  0  0  0  0  0  0  0  0  0  0  # atno 10718 bound_to 10713
  154.4469  135.2763  155.1809 H   0  0  0  0  0  0  0  0  0  0  0  0  # atno 10763 bound_to 10752
  154.3652  135.6121  153.5715 H   0  0  0  0  0  0  0  0  0  0  0  0  # atno 10764 bound_to 10752
  152.9844  135.5844  154.4806 H   0  0  0  0  0  0  0  0  0  0  0  0  # atno 10765 bound_to 10752
  140.0012  134.6440  155.9928 H   0  0  0  0  0  0  0  0  0  0  0  0  # atno 11005 bound_to 11000
  145.0819  140.9227  143.4820 LP  0  0  0  0  0  0  0  0  0  0  0  0  # atno 17320 bound_to 7965
  145.0861  139.2924  143.5759 LP  0  0  0  0  0  0  0  0  0  0  0  0  # atno 17321 bound_to 7965
  139.7380  144.7566  151.0697 LP  0  0  0  0  0  0  0  0  0  0  0  0  # atno 17342 bound_to 10162
  140.7776  143.5007  150.9776 LP  0  0  0  0  0  0  0  0  0  0  0  0  # atno 17343 bound_to 10162
  156.6914  130.8897  151.3588 LP  0  0  0  0  0  0  0  0  0  0  0  0  # atno 17370 bound_to 10713
  157.6998  130.9320  150.0751 LP  0  0  0  0  0  0  0  0  0  0  0  0  # atno 17371 bound_to 10713
  141.1643  133.6537  156.4424 LP  0  0  0  0  0  0  0  0  0  0  0  0  # atno 17394 bound_to 11000
  140.4725  134.6740  157.5135 LP  0  0  0  0  0  0  0  0  0  0  0  0  # atno 17395 bound_to 11000

$$$$
