AV-unprocessed.smi:1604|AV-procd|sdf|6449|dock7
  -GOLD-   22720 7103D 1   1.00000     0.00000
 Structure written by MMmdl.
 47 49  0  0  0  0  0  0  0  0  2 V2000
  149.2847  134.5529  155.8529 O   0  0  0  0  0  0  0  0  0  0  0  0
  149.0865  135.0127  154.7282 C   0  0  0  0  0  0  0  0  0  0  0  0
  148.6763  134.2995  153.6674 N   0  0  0  0  0  0  0  0  0  0  0  0
  148.4978  132.8908  153.5987 C   0  0  0  0  0  0  0  0  0  0  0  0
  149.3508  132.0173  154.3196 C   0  0  0  0  0  0  0  0  0  0  0  0
  149.1134  130.6302  154.2991 C   0  0  0  0  0  0  0  0  0  0  0  0
  148.0169  130.1390  153.5700 C   0  0  0  0  0  0  0  0  0  0  0  0
  147.2179  130.9974  152.9028 N   0  3  0  0  0  0  0  0  0  0  0  0
  147.4029  132.3413  152.8710 C   0  0  0  0  0  0  0  0  0  0  0  0
  146.4946  133.1167  152.1142 N   0  0  0  0  0  0  0  0  0  0  0  0
  145.1412  133.3536  152.6026 C   0  0  0  0  0  0  0  0  0  0  0  0
  144.3767  133.9001  151.4001 C   0  0  0  0  0  0  0  0  0  0  0  0
  145.0024  133.1337  150.2387 C   0  0  0  0  0  0  0  0  0  0  0  0
  146.4647  132.9595  150.6627 C   0  0  0  0  0  0  0  0  0  0  0  0
  149.2845  136.2985  154.4019 N   0  0  0  0  0  0  0  0  0  0  0  0
  149.8291  137.3253  155.2931 C   0  0  2  0  0  0  0  0  0  0  0  0
  150.1258  138.5777  154.4369 C   0  0  0  0  0  0  0  0  0  0  0  0
  150.1912  139.8830  155.2486 C   0  0  0  0  0  0  0  0  0  0  0  0
  151.3451  139.9620  156.2599 C   0  0  0  0  0  0  0  0  0  0  0  0
  151.2751  138.8927  157.3636 C   0  0  0  0  0  0  0  0  0  0  0  0
  151.7204  137.5880  156.8922 N   0  0  0  0  0  0  0  0  0  0  0  0
  151.1423  136.8329  155.9458 C   0  0  0  0  0  0  0  0  0  0  0  0
  151.6544  135.7673  155.6008 O   0  0  0  0  0  0  0  0  0  0  0  0
  148.6441  134.7900  152.7856 H   0  0  0  0  0  0  0  0  0  0  0  0
  150.1741  132.3974  154.9065 H   0  0  0  0  0  0  0  0  0  0  0  0
  149.7566  129.9554  154.8451 H   0  0  0  0  0  0  0  0  0  0  0  0
  147.7536  129.0933  153.5023 H   0  0  0  0  0  0  0  0  0  0  0  0
  144.6863  132.4180  152.9303 H   0  0  0  0  0  0  0  0  0  0  0  0
  145.1340  134.0531  153.4391 H   0  0  0  0  0  0  0  0  0  0  0  0
  143.2993  133.7538  151.4785 H   0  0  0  0  0  0  0  0  0  0  0  0
  144.5683  134.9683  151.2878 H   0  0  0  0  0  0  0  0  0  0  0  0
  144.5272  132.1558  150.1489 H   0  0  0  0  0  0  0  0  0  0  0  0
  144.8967  133.6469  149.2823 H   0  0  0  0  0  0  0  0  0  0  0  0
  147.0774  133.7406  150.2120 H   0  0  0  0  0  0  0  0  0  0  0  0
  146.8567  131.9924  150.3442 H   0  0  0  0  0  0  0  0  0  0  0  0
  149.0974  136.5825  153.4516 H   0  0  0  0  0  0  0  0  0  0  0  0
  149.0909  137.5602  156.0623 H   0  0  0  0  0  0  0  0  0  0  0  0
  151.0416  138.4481  153.8570 H   0  0  0  0  0  0  0  0  0  0  0  0
  149.3306  138.7012  153.6999 H   0  0  0  0  0  0  0  0  0  0  0  0
  150.2835  140.7183  154.5537 H   0  0  0  0  0  0  0  0  0  0  0  0
  149.2439  140.0340  155.7678 H   0  0  0  0  0  0  0  0  0  0  0  0
  152.3044  139.9082  155.7433 H   0  0  0  0  0  0  0  0  0  0  0  0
  151.3152  140.9453  156.7307 H   0  0  0  0  0  0  0  0  0  0  0  0
  151.9346  139.1797  158.1828 H   0  0  0  0  0  0  0  0  0  0  0  0
  150.2719  138.8256  157.7868 H   0  0  0  0  0  0  0  0  0  0  0  0
  152.5706  137.2328  157.3056 H   0  0  0  0  0  0  0  0  0  0  0  0
  146.4310  130.6096  152.3823 H   0  0  0  0  0  0  0  0  0  0  0  0
  1  2  2  0  0  0  0
  2  3  1  0  0  0  0
  2 15  1  0  0  0  0
  3  4  1  0  0  0  0
  3 24  1  0  0  0  0
  4  9  1  0  0  0  0
  4  5  2  0  0  0  0
  5  6  1  0  0  0  0
  5 25  1  0  0  0  0
  6  7  2  0  0  0  0
  6 26  1  0  0  0  0
  7  8  1  0  0  0  0
  7 27  1  0  0  0  0
  8  9  2  0  0  0  0
  8 47  1  0  0  0  0
  9 10  1  0  0  0  0
 10 14  1  0  0  0  0
 10 11  1  0  0  0  0
 11 12  1  0  0  0  0
 11 28  1  0  0  0  0
 11 29  1  0  0  0  0
 12 13  1  0  0  0  0
 12 30  1  0  0  0  0
 12 31  1  0  0  0  0
 13 14  1  0  0  0  0
 13 32  1  0  0  0  0
 13 33  1  0  0  0  0
 14 34  1  0  0  0  0
 14 35  1  0  0  0  0
 15 16  1  0  0  0  0
 15 36  1  0  0  0  0
 16 22  1  0  0  0  0
 16 17  1  0  0  0  0
 16 37  1  0  0  0  0
 17 18  1  0  0  0  0
 17 38  1  0  0  0  0
 17 39  1  0  0  0  0
 18 19  1  0  0  0  0
 18 40  1  0  0  0  0
 18 41  1  0  0  0  0
 19 20  1  0  0  0  0
 19 42  1  0  0  0  0
 19 43  1  0  0  0  0
 20 21  1  0  0  0  0
 20 44  1  0  0  0  0
 20 45  1  0  0  0  0
 21 22  1  0  0  0  0
 21 46  1  0  0  0  0
 22 23  2  0  0  0  0
M  CHG  1   8   1
M  END
> <s_m_source_file>
AV-unprocessed.smi

> <i_m_source_file_index>
1604

> <i_lp_mmshare_version>
43012

> <i_f3d_flags>
0

> <s_epik_input>
Tz1DMVtOSF1bQ0gyXVtDSDJdW0NIMl1bQ0gyXVtDQEhdMVtOSF1DKD1PKVtOSF1jMltjSF1bY0hdW2NIXW5jMk4zW0NIMl1bQ0gyXVtDSDJdW0NIMl0z

> <s_epik_cmdline>
J2VwaWtfcHl0aG9uJywgJy1waCcsICc3LjAnLCAnLXRuJywgJzgnLCAnLW1hJywgJzIwMCcsICctbWV0YWxfYmluZGluZycsICctaW1hZScsICc8aW5maWxlLm1hZT4nLCAnLW9tYWUnLCAnPG91dGZpbGUubWFlPic=

> <r_lp_tautomer_probability>
0.999994

> <r_epik_Ionization_Penalty>
1.20452

> <r_epik_Ionization_Penalty_Charging>
1.2045

> <r_epik_Ionization_Penalty_Neutral>
1.88134e-05

> <r_epik_State_Penalty>
1.2704

> <r_epik_Charging_Adjusted_Penalty>
2.4749

> <i_epik_Tot_Q>
1

> <i_epik_Tot_abs_Q>
1

> <r_epik_Metal_State_Penalty>
1.34433

> <b_epik_Metal_Only>
0

> <s_lp_Force_Field>
OPLS_2005

> <r_lp_Energy>
45.117

> <b_lp_Chiralities_Consistent>
1

> <s_lp_Variant>
AV-unprocessed.smi:1604-3

> <Gold.Version>
5.8.1

> <Gold.Id.Protein>
6NUR|6NUR_protein|mol2

> <Gold.PLP.Fitness>
41.5413

> <Gold.PLP.PLP>
-33.4331

> <Gold.PLP.part.hbond>
-3.5737

> <Gold.PLP.part.metal>
0.0000

> <Gold.PLP.part.buried>
-2.6752

> <Gold.PLP.part.nonpolar>
-28.2400

> <Gold.PLP.part.repulsive>
0.3268

> <Gold.PLP.ligand.clash>
0.0000

> <Gold.PLP.ligand.torsion>
0.5603

> <Gold.PLP.Chemscore.Hbond>
2.9500

> <Gold.PLP.Chemscore.CHOScore>
0.0000

> <Gold.PLP.Chemscore.Metal>
0.0000

> <Gold.Chemscore.Hbonds>
donor molecule, donor type, donor heavy atom, donor atom, acceptor molecule, acceptor atom, score
      L1  H     3    24       P1  7948  0.90
      L1  H    15    36       P1  7948  1.00
      P1  H 10752 10764       L1    23  1.00

> <Gold.PLP.Chemscore.Internal.Correction>
0.3788

> <Gold.Rescore>
     Score         DG    S(hbond)    S(metal)    S(lipo)     H(rot)  DE(clash)    DE(int)     intcor
     15.83     -17.69       2.26        0.00      67.27       1.26       0.13       1.72       ----

> <Gold.Chemscore.Fitness>
15.8345

> <Gold.Chemscore.DG>
-17.6854

> <Gold.Chemscore.ZeroCoef>
-5.4800

> <Gold.Chemscore.Hbond>
2.2609

> <Gold.Chemscore.Metal>
0.0000

> <Gold.Chemscore.Lipo>
67.2722

> <Gold.Chemscore.Internal_Hbond>
0.0000

> <Gold.Chemscore.DEClash>
0.1274

> <Gold.Chemscore.DEInternal>
1.7235

> <Gold.Chemscore.Rot>
1.2566

> <Gold.Chemscore.Internal.Correction>
   9.000000E+99

> <Gold.Chemscore.Hbonds>
donor molecule, donor type, donor heavy atom, donor atom, acceptor molecule, acceptor atom, score
      L1  H     3    24       P1  7948  0.17
      L1  H    15    36       P1  7948  0.93
      P1  H 10752 10764       L1    23  0.98

> <Gold.Chemscore.Hbond.Weighted>
-7.5514

> <Gold.Chemscore.Metal.Weighted>
-0.0000

> <Gold.Chemscore.Lipo.Weighted>
-7.8708

> <Gold.Chemscore.Internal_Hbond.Weighted>
0.0000

> <Gold.Chemscore.DEClash.Weighted>
0.1274

> <Gold.Chemscore.DEInternal.Weighted>
1.7235

> <Gold.Chemscore.Rot.Weighted>
3.2168

> <Gold.Chemscore.Internal.Correction.Weighted>
   9.000000E+99

> <Gold.Protein.RotatedTorsions>
[ 6907 6896 6895 6894 ] final  138.30 input  -60.11 | X-H torsion
[ 7974 7965 7964 7962 ] final -117.41 input  175.53 | X-H torsion
[ 8008 7997 7996 7995 ] final    1.82 input   59.86 | X-H torsion
[ 10167 10162 10161 10158 ] final -123.13 input  -65.29 | X-H torsion
[ 10718 10713 10712 10709 ] final   43.51 input   66.30 | X-H torsion
[ 10763 10752 10751 10750 ] final  -34.03 input  -60.55 | X-H torsion
[ 11005 11000 10999 10996 ] final  -47.89 input  -57.11 | X-H torsion

> <Gold.Protein.ActiveResidues>
 VAL166  LYS551  ARG553  GLY616  TRP617  ASP618  TYR619  PRO620  LYS621  CYS622 
 ASP623  PHE694  ASN695  SER759  ASP760  ASP761  ALA762  ILE779  LEU786  VAL792 
 PHE793  MET794  SER795  GLU796  ALA797  LYS798  CYS799  TRP800  GLU811  SER814 

> <Gold.Protein.RotatedAtoms>
  152.2682  133.5358  159.5422 H   0  0  0  0  0  0  0  0  0  0  0  0  # atno 6907 bound_to 6896
  150.7149  134.0735  159.3882 H   0  0  0  0  0  0  0  0  0  0  0  0  # atno 6908 bound_to 6896
  151.8651  135.0510  160.0524 H   0  0  0  0  0  0  0  0  0  0  0  0  # atno 6909 bound_to 6896
  145.0855  140.8455  143.4013 H   0  0  0  0  0  0  0  0  0  0  0  0  # atno 7974 bound_to 7965
  154.6842  140.2639  155.6877 H   0  0  0  0  0  0  0  0  0  0  0  0  # atno 8008 bound_to 7997
  156.2708  140.2804  156.1321 H   0  0  0  0  0  0  0  0  0  0  0  0  # atno 8009 bound_to 7997
  155.0987  140.0374  157.2680 H   0  0  0  0  0  0  0  0  0  0  0  0  # atno 8010 bound_to 7997
  140.0068  143.5483  152.2280 H   0  0  0  0  0  0  0  0  0  0  0  0  # atno 10167 bound_to 10162
  157.4167  130.7945  149.7478 H   0  0  0  0  0  0  0  0  0  0  0  0  # atno 10718 bound_to 10713
  153.8399  135.6858  153.4804 H   0  0  0  0  0  0  0  0  0  0  0  0  # atno 10763 bound_to 10752
  153.1460  135.4638  154.9564 H   0  0  0  0  0  0  0  0  0  0  0  0  # atno 10764 bound_to 10752
  154.7849  135.3281  154.7854 H   0  0  0  0  0  0  0  0  0  0  0  0  # atno 10765 bound_to 10752
  141.0668  133.6691  156.3362 H   0  0  0  0  0  0  0  0  0  0  0  0  # atno 11005 bound_to 11000
  145.1127  139.2746  143.5629 LP  0  0  0  0  0  0  0  0  0  0  0  0  # atno 17320 bound_to 7965
  146.3531  140.0728  142.8622 LP  0  0  0  0  0  0  0  0  0  0  0  0  # atno 17321 bound_to 7965
  139.6233  144.7633  151.2693 LP  0  0  0  0  0  0  0  0  0  0  0  0  # atno 17342 bound_to 10162
  140.7397  143.6609  150.8165 LP  0  0  0  0  0  0  0  0  0  0  0  0  # atno 17343 bound_to 10162
  155.9867  130.3972  150.3198 LP  0  0  0  0  0  0  0  0  0  0  0  0  # atno 17370 bound_to 10713
  157.1342  131.0279  151.2956 LP  0  0  0  0  0  0  0  0  0  0  0  0  # atno 17371 bound_to 10713
  140.5757  134.5796  157.5468 LP  0  0  0  0  0  0  0  0  0  0  0  0  # atno 17394 bound_to 11000
  139.9484  134.7661  156.0507 LP  0  0  0  0  0  0  0  0  0  0  0  0  # atno 17395 bound_to 11000

$$$$
