AV-unprocessed.smi:1795|AV-procd|sdf|7249|dock3
  -GOLD-   22720 8503D 1   1.00000     0.00000
 Structure written by MMmdl.
 48 49  0  0  0  0  0  0  0  0  2 V2000
  150.2716  134.0314  155.7794 C   0  0  0  0  0  0  0  0  0  0  0  0
  149.2788  134.8310  154.9281 C   0  0  2  0  0  0  0  0  0  0  0  0
  149.3576  136.3424  155.2096 C   0  0  0  0  0  0  0  0  0  0  0  0
  148.3451  137.0894  154.4151 N   0  3  2  0  0  0  0  0  0  0  0  0
  148.4742  138.5756  154.5726 C   0  0  1  0  0  0  0  0  0  0  0  0
  147.8050  139.0203  155.8934 C   0  0  0  0  0  0  0  0  0  0  0  0
  149.9391  139.0899  154.4927 C   0  0  0  0  0  0  0  0  0  0  0  0
  150.6344  139.0183  155.7753 N   0  0  0  0  0  0  0  0  0  0  0  0
  151.8931  139.4248  156.0029 C   0  0  0  0  0  0  0  0  0  0  0  0
  152.6032  139.9417  155.1397 O   0  0  0  0  0  0  0  0  0  0  0  0
  152.4238  139.2146  157.4274 C   0  0  0  0  0  0  0  0  0  0  0  0
  152.4691  140.4613  158.2095 N   0  0  0  0  0  0  0  0  0  0  0  0
  151.3949  141.3599  158.0521 C   0  0  0  0  0  0  0  0  0  0  0  0
  151.3400  142.5241  158.7183 C   0  0  0  0  0  0  0  0  0  0  0  0
  152.4217  142.8475  159.6183 C   0  0  0  0  0  0  0  0  0  0  0  0
  153.4558  141.9969  159.7738 C   0  0  0  0  0  0  0  0  0  0  0  0
  153.5212  140.7244  159.0458 C   0  0  0  0  0  0  0  0  0  0  0  0
  154.4641  139.9428  159.1784 O   0  0  0  0  0  0  0  0  0  0  0  0
  146.9952  136.5184  154.6764 C   0  0  0  0  0  0  0  0  0  0  0  0
  146.9785  134.9978  154.4260 C   0  0  2  0  0  0  0  0  0  0  0  0
  145.6219  134.3712  154.7675 C   0  0  0  0  0  0  0  0  0  0  0  0
  147.9678  134.3756  155.2348 O   0  0  0  0  0  0  0  0  0  0  0  0
  151.2979  134.3424  155.5826 H   0  0  0  0  0  0  0  0  0  0  0  0
  150.2012  132.9652  155.5619 H   0  0  0  0  0  0  0  0  0  0  0  0
  150.0790  134.1667  156.8441 H   0  0  0  0  0  0  0  0  0  0  0  0
  149.4929  134.6400  153.8749 H   0  0  0  0  0  0  0  0  0  0  0  0
  149.1943  136.5313  156.2722 H   0  0  0  0  0  0  0  0  0  0  0  0
  150.3647  136.6865  154.9818 H   0  0  0  0  0  0  0  0  0  0  0  0
  147.9348  139.0410  153.7458 H   0  0  0  0  0  0  0  0  0  0  0  0
  147.7820  140.1053  155.9893 H   0  0  0  0  0  0  0  0  0  0  0  0
  148.3413  138.6249  156.7565 H   0  0  0  0  0  0  0  0  0  0  0  0
  146.7696  138.6950  155.9736 H   0  0  0  0  0  0  0  0  0  0  0  0
  150.4910  138.5505  153.7209 H   0  0  0  0  0  0  0  0  0  0  0  0
  149.9598  140.1426  154.2117 H   0  0  0  0  0  0  0  0  0  0  0  0
  150.1250  138.6118  156.5467 H   0  0  0  0  0  0  0  0  0  0  0  0
  151.7939  138.4706  157.9169 H   0  0  0  0  0  0  0  0  0  0  0  0
  153.4193  138.7674  157.3902 H   0  0  0  0  0  0  0  0  0  0  0  0
  150.6294  141.0476  157.3566 H   0  0  0  0  0  0  0  0  0  0  0  0
  150.5103  143.2021  158.5827 H   0  0  0  0  0  0  0  0  0  0  0  0
  152.4021  143.7769  160.1684 H   0  0  0  0  0  0  0  0  0  0  0  0
  154.2563  142.2564  160.4511 H   0  0  0  0  0  0  0  0  0  0  0  0
  146.6994  136.7376  155.7038 H   0  0  0  0  0  0  0  0  0  0  0  0
  146.2517  136.9650  154.0169 H   0  0  0  0  0  0  0  0  0  0  0  0
  147.1963  134.7967  153.3754 H   0  0  0  0  0  0  0  0  0  0  0  0
  144.8257  134.8011  154.1591 H   0  0  0  0  0  0  0  0  0  0  0  0
  145.3655  134.5302  155.8155 H   0  0  0  0  0  0  0  0  0  0  0  0
  145.6330  133.2959  154.5873 H   0  0  0  0  0  0  0  0  0  0  0  0
  148.5358  136.8971  153.4418 H   0  0  0  0  0  0  0  0  0  0  0  0
  1  2  1  0  0  0  0
  1 23  1  0  0  0  0
  1 24  1  0  0  0  0
  1 25  1  0  0  0  0
  2 22  1  0  0  0  0
  2  3  1  0  0  0  0
  2 26  1  0  0  0  0
  3  4  1  0  0  0  0
  3 27  1  0  0  0  0
  3 28  1  0  0  0  0
  4  5  1  0  0  0  0
  4 19  1  0  0  0  0
  4 48  1  0  0  0  0
  5  6  1  0  0  0  0
  5  7  1  0  0  0  0
  5 29  1  0  0  0  0
  6 30  1  0  0  0  0
  6 31  1  0  0  0  0
  6 32  1  0  0  0  0
  7  8  1  0  0  0  0
  7 33  1  0  0  0  0
  7 34  1  0  0  0  0
  8  9  1  0  0  0  0
  8 35  1  0  0  0  0
  9 10  2  0  0  0  0
  9 11  1  0  0  0  0
 11 12  1  0  0  0  0
 11 36  1  0  0  0  0
 11 37  1  0  0  0  0
 12 17  1  0  0  0  0
 12 13  1  0  0  0  0
 13 14  2  0  0  0  0
 13 38  1  0  0  0  0
 14 15  1  0  0  0  0
 14 39  1  0  0  0  0
 15 16  2  0  0  0  0
 15 40  1  0  0  0  0
 16 17  1  0  0  0  0
 16 41  1  0  0  0  0
 17 18  2  0  0  0  0
 19 20  1  0  0  0  0
 19 42  1  0  0  0  0
 19 43  1  0  0  0  0
 20 21  1  0  0  0  0
 20 22  1  0  0  0  0
 20 44  1  0  0  0  0
 21 45  1  0  0  0  0
 21 46  1  0  0  0  0
 21 47  1  0  0  0  0
M  CHG  1   4   1
M  END
> <s_m_source_file>
AV-unprocessed.smi

> <i_m_source_file_index>
1795

> <i_lp_mmshare_version>
43012

> <i_f3d_flags>
0

> <s_epik_input>
W0NIM11bQ0BASF0xW0NIMl1OKFtDSDJdW0NASF0oTzEpW0NIM10pW0NASF0oW0NIM10pW0NIMl1bTkhdQyg9TylbQ0gyXW4yW2NIXVtjSF1bY0hdW2NIXWMyPU8=

> <s_epik_cmdline>
J2VwaWtfcHl0aG9uJywgJy1waCcsICc3LjAnLCAnLXRuJywgJzgnLCAnLW1hJywgJzIwMCcsICctbWV0YWxfYmluZGluZycsICctaW1hZScsICc8aW5maWxlLm1hZT4nLCAnLW9tYWUnLCAnPG91dGZpbGUubWFlPic=

> <r_lp_tautomer_probability>
1

> <r_epik_Ionization_Penalty>
0.656654

> <r_epik_Ionization_Penalty_Charging>
0.656654

> <r_epik_Ionization_Penalty_Neutral>
8.90321e-08

> <r_epik_State_Penalty>
0.675641

> <r_epik_Charging_Adjusted_Penalty>
1.33229

> <i_epik_Tot_Q>
1

> <i_epik_Tot_abs_Q>
1

> <r_epik_Metal_State_Penalty>
0.675691

> <b_epik_Metal_Only>
0

> <s_lp_Force_Field>
OPLS_2005

> <r_lp_Energy>
27.2799

> <b_lp_Chiralities_Consistent>
1

> <s_lp_Variant>
AV-unprocessed.smi:1795-13

> <Gold.Version>
5.8.1

> <Gold.Id.Protein>
6NUR|6NUR_protein|mol2

> <Gold.PLP.Fitness>
43.1253

> <Gold.PLP.PLP>
-31.5818

> <Gold.PLP.part.hbond>
-4.0000

> <Gold.PLP.part.metal>
0.0000

> <Gold.PLP.part.buried>
-2.4167

> <Gold.PLP.part.nonpolar>
-24.9880

> <Gold.PLP.part.repulsive>
0.1141

> <Gold.PLP.ligand.clash>
0.0000

> <Gold.PLP.ligand.torsion>
0.9425

> <Gold.PLP.Chemscore.Hbond>
4.4288

> <Gold.PLP.Chemscore.CHOScore>
0.0000

> <Gold.PLP.Chemscore.Metal>
0.0000

> <Gold.Chemscore.Hbonds>
donor molecule, donor type, donor heavy atom, donor atom, acceptor molecule, acceptor atom, score
      L1  H     4    48       P1  7948  2.00
      P1  H  7989  7998       L1    10  0.47
      P1  H  7997  8009       L1    18  0.96
      P1  H  7997  8010       L1    10  0.99

> <Gold.PLP.Chemscore.Internal.Correction>
0.1422

> <Gold.Rescore>
     Score         DG    S(hbond)    S(metal)    S(lipo)     H(rot)  DE(clash)    DE(int)     intcor
     16.44     -17.86       2.53        0.00      74.84       1.89       0.28       1.14       ----

> <Gold.Chemscore.Fitness>
16.4391

> <Gold.Chemscore.DG>
-17.8610

> <Gold.Chemscore.ZeroCoef>
-5.4800

> <Gold.Chemscore.Hbond>
2.5316

> <Gold.Chemscore.Metal>
0.0000

> <Gold.Chemscore.Lipo>
74.8397

> <Gold.Chemscore.Internal_Hbond>
0.0000

> <Gold.Chemscore.DEClash>
0.2839

> <Gold.Chemscore.DEInternal>
1.1380

> <Gold.Chemscore.Rot>
1.8870

> <Gold.Chemscore.Internal.Correction>
   9.000000E+99

> <Gold.Chemscore.Hbonds>
donor molecule, donor type, donor heavy atom, donor atom, acceptor molecule, acceptor atom, score
      L1  H     4    48       P1  7948  1.00
      P1  H  7989  7998       L1    10  0.45
      P1  H  7997  8009       L1    18  0.23
      P1  H  7997  8010       L1    10  0.76

> <Gold.Chemscore.Hbond.Weighted>
-8.4555

> <Gold.Chemscore.Metal.Weighted>
-0.0000

> <Gold.Chemscore.Lipo.Weighted>
-8.7562

> <Gold.Chemscore.Internal_Hbond.Weighted>
0.0000

> <Gold.Chemscore.DEClash.Weighted>
0.2839

> <Gold.Chemscore.DEInternal.Weighted>
1.1380

> <Gold.Chemscore.Rot.Weighted>
4.8308

> <Gold.Chemscore.Internal.Correction.Weighted>
   9.000000E+99

> <Gold.Protein.RotatedTorsions>
[ 6907 6896 6895 6894 ] final  -20.64 input  -60.11 | X-H torsion
[ 7974 7965 7964 7962 ] final   58.45 input  175.53 | X-H torsion
[ 8008 7997 7996 7995 ] final  110.96 input   59.86 | X-H torsion
[ 10167 10162 10161 10158 ] final   53.78 input  -65.29 | X-H torsion
[ 10718 10713 10712 10709 ] final   25.84 input   66.30 | X-H torsion
[ 10763 10752 10751 10750 ] final  115.68 input  -60.55 | X-H torsion
[ 11005 11000 10999 10996 ] final  139.50 input  -57.11 | X-H torsion

> <Gold.Protein.ActiveResidues>
 VAL166  LYS551  ARG553  GLY616  TRP617  ASP618  TYR619  PRO620  LYS621  CYS622 
 ASP623  PHE694  ASN695  SER759  ASP760  ASP761  ALA762  ILE779  LEU786  VAL792 
 PHE793  MET794  SER795  GLU796  ALA797  LYS798  CYS799  TRP800  GLU811  SER814 

> <Gold.Protein.RotatedAtoms>
  151.2451  135.0602  159.9039 H   0  0  0  0  0  0  0  0  0  0  0  0  # atno 6907 bound_to 6896
  152.5388  134.0392  159.8070 H   0  0  0  0  0  0  0  0  0  0  0  0  # atno 6908 bound_to 6896
  151.0592  133.5509  159.2667 H   0  0  0  0  0  0  0  0  0  0  0  0  # atno 6909 bound_to 6896
  145.9181  139.3707  143.0495 H   0  0  0  0  0  0  0  0  0  0  0  0  # atno 7974 bound_to 7965
  156.2090  140.3028  155.9691 H   0  0  0  0  0  0  0  0  0  0  0  0  # atno 8008 bound_to 7997
  155.2770  140.0436  157.3029 H   0  0  0  0  0  0  0  0  0  0  0  0  # atno 8009 bound_to 7997
  154.5673  140.2338  155.8252 H   0  0  0  0  0  0  0  0  0  0  0  0  # atno 8010 bound_to 7997
  140.2371  144.3623  150.6393 H   0  0  0  0  0  0  0  0  0  0  0  0  # atno 10167 bound_to 10162
  157.1988  130.6880  149.6180 H   0  0  0  0  0  0  0  0  0  0  0  0  # atno 10718 bound_to 10713
  153.5259  135.3588  155.2653 H   0  0  0  0  0  0  0  0  0  0  0  0  # atno 10763 bound_to 10752
  154.8731  135.4056  154.3207 H   0  0  0  0  0  0  0  0  0  0  0  0  # atno 10764 bound_to 10752
  153.3886  135.7071  153.6579 H   0  0  0  0  0  0  0  0  0  0  0  0  # atno 10765 bound_to 10752
  140.0259  134.9375  157.0568 H   0  0  0  0  0  0  0  0  0  0  0  0  # atno 11005 bound_to 11000
  145.8586  140.9488  143.0712 LP  0  0  0  0  0  0  0  0  0  0  0  0  # atno 17320 bound_to 7965
  144.6750  140.0500  143.7479 LP  0  0  0  0  0  0  0  0  0  0  0  0  # atno 17321 bound_to 7965
  140.6141  143.2171  151.6827 LP  0  0  0  0  0  0  0  0  0  0  0  0  # atno 17342 bound_to 10162
  139.5090  144.3593  152.0578 LP  0  0  0  0  0  0  0  0  0  0  0  0  # atno 17343 bound_to 10162
  155.9703  130.4590  150.6019 LP  0  0  0  0  0  0  0  0  0  0  0  0  # atno 17370 bound_to 10713
  157.3788  131.0777  151.1495 LP  0  0  0  0  0  0  0  0  0  0  0  0  # atno 17371 bound_to 10713
  140.4307  134.1784  155.7168 LP  0  0  0  0  0  0  0  0  0  0  0  0  # atno 17394 bound_to 11000
  141.1802  133.8429  157.1282 LP  0  0  0  0  0  0  0  0  0  0  0  0  # atno 17395 bound_to 11000

$$$$
