AV-unprocessed.smi:177|AV-procd|sdf|1441|dock5
  -GOLD-   2262019223D 1   1.00000     0.00000
 Structure written by MMmdl.
 61 65  0  0  0  0  0  0  0  0  1 V2000
  147.1172  138.0979  153.9660 C   0  0  0  0  0  0  0  0  0  0  0  0
  147.9559  139.2388  153.8683 O   0  0  0  0  0  0  0  0  0  0  0  0
  148.9334  139.3346  154.8960 C   0  0  2  0  0  0  0  0  0  0  0  0
  149.7092  140.6632  154.7915 C   0  0  0  0  0  0  0  0  0  0  0  0
  150.8592  140.7261  155.8089 C   0  0  0  0  0  0  0  0  0  0  0  0
  151.8189  139.5327  155.6311 C   0  0  1  0  0  0  0  0  0  0  0  0
  152.9389  139.5827  156.5171 O   0  0  0  0  0  0  0  0  0  0  0  0
  152.6506  139.2305  157.8660 C   0  0  0  0  0  0  0  0  0  0  0  0
  152.0709  137.8067  157.9176 C   0  0  0  0  0  0  0  0  0  0  0  0
  150.8905  137.6974  157.0682 N   0  0  0  0  0  0  0  0  0  0  0  0
  149.6913  137.8508  157.6791 C   0  0  0  0  0  0  0  0  0  0  0  0
  149.0541  139.0492  157.6309 N   0  0  0  0  0  0  0  0  0  0  0  0
  147.8584  139.1980  158.2071 C   0  0  0  0  0  0  0  0  0  0  0  0
  147.1415  138.2984  158.8824 N   0  0  0  0  0  0  0  0  0  0  0  0
  147.7931  137.1034  158.9646 C   0  0  0  0  0  0  0  0  0  0  0  0
  149.0611  136.7974  158.3957 C   0  0  0  0  0  0  0  0  0  0  0  0
  149.4052  135.4826  158.6815 N   0  0  0  0  0  0  0  0  0  0  0  0
  148.3879  135.0294  159.3608 C   0  0  0  0  0  0  0  0  0  0  0  0
  147.3835  135.9421  159.5977 N   0  0  0  0  0  0  0  0  0  0  0  0
  146.1444  135.6999  160.3222 C   0  0  0  0  0  0  0  0  0  0  0  0
  146.2836  135.4871  161.8646 C   0  0  0  0  0  0  0  0  0  0  0  0
  146.9196  136.7309  162.5482 C   0  0  0  0  0  0  0  0  0  0  0  0
  148.2503  136.9845  162.1419 O   0  0  0  0  0  0  0  0  0  0  0  0
  144.9375  135.1405  162.5518 C   0  0  0  0  0  0  0  0  0  0  0  0
  144.4118  133.7452  162.1678 C   0  0  0  0  0  0  0  0  0  0  0  0
  145.3841  132.7563  162.4789 O   0  0  0  0  0  0  0  0  0  0  0  0
  146.5955  132.9292  161.7560 C   0  0  0  0  0  0  0  0  0  0  0  0
  147.2304  134.2854  162.1155 C   0  0  0  0  0  0  0  0  0  0  0  0
  151.1093  138.1555  155.6868 C   0  0  1  0  0  0  0  0  0  0  0  0
  149.8841  138.1279  154.7370 C   0  0  0  0  0  0  0  0  0  0  0  0
  146.4072  138.0986  153.1391 H   0  0  0  0  0  0  0  0  0  0  0  0
  146.5456  138.0910  154.8939 H   0  0  0  0  0  0  0  0  0  0  0  0
  147.6977  137.1764  153.9050 H   0  0  0  0  0  0  0  0  0  0  0  0
  148.4359  139.2793  155.8632 H   0  0  0  0  0  0  0  0  0  0  0  0
  150.1100  140.7738  153.7830 H   0  0  0  0  0  0  0  0  0  0  0  0
  149.0428  141.5102  154.9522 H   0  0  0  0  0  0  0  0  0  0  0  0
  151.4087  141.6588  155.6807 H   0  0  0  0  0  0  0  0  0  0  0  0
  150.4475  140.7548  156.8154 H   0  0  0  0  0  0  0  0  0  0  0  0
  152.2440  139.6317  154.6314 H   0  0  0  0  0  0  0  0  0  0  0  0
  153.5756  139.2731  158.4411 H   0  0  0  0  0  0  0  0  0  0  0  0
  151.9756  139.9571  158.3168 H   0  0  0  0  0  0  0  0  0  0  0  0
  152.8151  137.0905  157.5684 H   0  0  0  0  0  0  0  0  0  0  0  0
  151.8328  137.5298  158.9457 H   0  0  0  0  0  0  0  0  0  0  0  0
  147.4120  140.1766  158.1116 H   0  0  0  0  0  0  0  0  0  0  0  0
  148.3486  134.0126  159.7240 H   0  0  0  0  0  0  0  0  0  0  0  0
  145.4731  136.5275  160.0975 H   0  0  0  0  0  0  0  0  0  0  0  0
  145.6752  134.8219  159.8762 H   0  0  0  0  0  0  0  0  0  0  0  0
  146.3502  137.6309  162.3135 H   0  0  0  0  0  0  0  0  0  0  0  0
  146.8951  136.6257  163.6333 H   0  0  0  0  0  0  0  0  0  0  0  0
  148.7617  136.2020  162.2814 H   0  0  0  0  0  0  0  0  0  0  0  0
  145.0726  135.1617  163.6342 H   0  0  0  0  0  0  0  0  0  0  0  0
  144.1798  135.8933  162.3367 H   0  0  0  0  0  0  0  0  0  0  0  0
  143.5028  133.5265  162.7279 H   0  0  0  0  0  0  0  0  0  0  0  0
  144.1465  133.6896  161.1121 H   0  0  0  0  0  0  0  0  0  0  0  0
  147.2756  132.1209  162.0255 H   0  0  0  0  0  0  0  0  0  0  0  0
  146.4147  132.8367  160.6850 H   0  0  0  0  0  0  0  0  0  0  0  0
  148.1647  134.4146  161.5677 H   0  0  0  0  0  0  0  0  0  0  0  0
  147.5064  134.2474  163.1701 H   0  0  0  0  0  0  0  0  0  0  0  0
  151.8136  137.4258  155.2853 H   0  0  0  0  0  0  0  0  0  0  0  0
  149.3390  137.1899  154.8231 H   0  0  0  0  0  0  0  0  0  0  0  0
  150.2618  138.1401  153.7137 H   0  0  0  0  0  0  0  0  0  0  0  0
  1  2  1  0  0  0  0
  1 31  1  0  0  0  0
  1 32  1  0  0  0  0
  1 33  1  0  0  0  0
  2  3  1  0  0  0  0
  3 30  1  0  0  0  0
  3  4  1  0  0  0  0
  3 34  1  0  0  0  0
  4  5  1  0  0  0  0
  4 35  1  0  0  0  0
  4 36  1  0  0  0  0
  5  6  1  0  0  0  0
  5 37  1  0  0  0  0
  5 38  1  0  0  0  0
  6 29  1  0  0  0  0
  6  7  1  0  0  0  0
  6 39  1  0  0  0  0
  7  8  1  0  0  0  0
  8  9  1  0  0  0  0
  8 40  1  0  0  0  0
  8 41  1  0  0  0  0
  9 10  1  0  0  0  0
  9 42  1  0  0  0  0
  9 43  1  0  0  0  0
 10 11  1  0  0  0  0
 10 29  1  0  0  0  0
 11 16  1  0  0  0  0
 11 12  2  0  0  0  0
 12 13  1  0  0  0  0
 13 14  2  0  0  0  0
 13 44  1  0  0  0  0
 14 15  1  0  0  0  0
 15 19  1  0  0  0  0
 15 16  2  0  0  0  0
 16 17  1  0  0  0  0
 17 18  2  0  0  0  0
 18 19  1  0  0  0  0
 18 45  1  0  0  0  0
 19 20  1  0  0  0  0
 20 21  1  0  0  0  0
 20 46  1  0  0  0  0
 20 47  1  0  0  0  0
 21 28  1  0  0  0  0
 21 22  1  0  0  0  0
 21 24  1  0  0  0  0
 22 23  1  0  0  0  0
 22 48  1  0  0  0  0
 22 49  1  0  0  0  0
 23 50  1  0  0  0  0
 24 25  1  0  0  0  0
 24 51  1  0  0  0  0
 24 52  1  0  0  0  0
 25 26  1  0  0  0  0
 25 53  1  0  0  0  0
 25 54  1  0  0  0  0
 26 27  1  0  0  0  0
 27 28  1  0  0  0  0
 27 55  1  0  0  0  0
 27 56  1  0  0  0  0
 28 57  1  0  0  0  0
 28 58  1  0  0  0  0
 29 30  1  0  0  0  0
 29 59  1  0  0  0  0
 30 60  1  0  0  0  0
 30 61  1  0  0  0  0
M  END
> <s_m_source_file>
AV-unprocessed.smi

> <i_m_source_file_index>
177

> <i_lp_mmshare_version>
43012

> <i_f3d_flags>
0

> <s_epik_input>
W0NIM11PW0NASF0oW0NIMl1bQ0gyXTEpW0NIMl1bQ0BIXShbQ0BASF0xMilOKFtDSDJdW0NIMl1PMiljKG5bY0hdbjMpYyhjMzQpbltjSF1uNFtDSDJdQzUoW0NIMl1bT0hdKVtDSDJdW0NIMl1PW0NIMl1bQ0gyXTU=

> <s_epik_cmdline>
J2VwaWtfcHl0aG9uJywgJy1waCcsICc3LjAnLCAnLXRuJywgJzgnLCAnLW1hJywgJzIwMCcsICctbWV0YWxfYmluZGluZycsICctaW1hZScsICc8aW5maWxlLm1hZT4nLCAnLW9tYWUnLCAnPG91dGZpbGUubWFlPic=

> <r_lp_tautomer_probability>
1

> <r_epik_Ionization_Penalty>
0.0065899

> <r_epik_Ionization_Penalty_Charging>
0

> <r_epik_Ionization_Penalty_Neutral>
0.0065899

> <r_epik_State_Penalty>
0.00470042

> <r_epik_Charging_Adjusted_Penalty>
0.00470042

> <i_epik_Tot_Q>
0

> <i_epik_Tot_abs_Q>
0

> <r_epik_Metal_State_Penalty>
-0

> <b_epik_Metal_Only>
0

> <s_lp_Force_Field>
OPLS_2005

> <r_lp_Energy>
52.4416

> <b_lp_Chiralities_Consistent>
1

> <s_lp_Variant>
AV-unprocessed.smi:177-5

> <Gold.Version>
5.8.1

> <Gold.Id.Protein>
6NUR|6NUR_protein|mol2

> <Gold.PLP.Fitness>
46.7987

> <Gold.PLP.PLP>
-38.3691

> <Gold.PLP.part.hbond>
-3.9009

> <Gold.PLP.part.metal>
0.0000

> <Gold.PLP.part.buried>
-3.5698

> <Gold.PLP.part.nonpolar>
-31.9261

> <Gold.PLP.part.repulsive>
0.2539

> <Gold.PLP.ligand.clash>
0.0000

> <Gold.PLP.ligand.torsion>
1.2696

> <Gold.PLP.Chemscore.Hbond>
3.3146

> <Gold.PLP.Chemscore.CHOScore>
0.0000

> <Gold.PLP.Chemscore.Metal>
0.0000

> <Gold.Chemscore.Hbonds>
donor molecule, donor type, donor heavy atom, donor atom, acceptor molecule, acceptor atom, score
      P1  H  6896  6909       L1    17  0.95
      P1  H  6931  6943       L1    23  0.93
      P1  H  6934  6947       L1    14  0.26
      P1  H  7997  8010       L1     7  0.76

> <Gold.PLP.Chemscore.Internal.Correction>
1.0250

> <Gold.Rescore>
     Score         DG    S(hbond)    S(metal)    S(lipo)     H(rot)  DE(clash)    DE(int)     intcor
     12.84     -19.99       2.83        0.00      93.84       2.32       1.59       5.56       ----

> <Gold.Chemscore.Fitness>
12.8430

> <Gold.Chemscore.DG>
-19.9945

> <Gold.Chemscore.ZeroCoef>
-5.4800

> <Gold.Chemscore.Hbond>
2.8342

> <Gold.Chemscore.Metal>
0.0000

> <Gold.Chemscore.Lipo>
93.8416

> <Gold.Chemscore.Internal_Hbond>
0.0000

> <Gold.Chemscore.DEClash>
1.5880

> <Gold.Chemscore.DEInternal>
5.5634

> <Gold.Chemscore.Rot>
2.3169

> <Gold.Chemscore.Internal.Correction>
   9.000000E+99

> <Gold.Chemscore.Hbonds>
donor molecule, donor type, donor heavy atom, donor atom, acceptor molecule, acceptor atom, score
      P1  H  6896  6909       L1    17  0.22
      P1  H  6931  6943       L1    23  0.80
      P1  H  6934  6947       L1    14  0.05
      P1  H  7997  8010       L1     7  0.11

> <Gold.Chemscore.Hbond.Weighted>
-9.4663

> <Gold.Chemscore.Metal.Weighted>
-0.0000

> <Gold.Chemscore.Lipo.Weighted>
-10.9795

> <Gold.Chemscore.Internal_Hbond.Weighted>
0.0000

> <Gold.Chemscore.DEClash.Weighted>
1.5880

> <Gold.Chemscore.DEInternal.Weighted>
5.5634

> <Gold.Chemscore.Rot.Weighted>
5.9313

> <Gold.Chemscore.Internal.Correction.Weighted>
   9.000000E+99

> <Gold.Protein.RotatedTorsions>
[ 6907 6896 6895 6894 ] final   61.11 input  -60.11 | X-H torsion
[ 7974 7965 7964 7962 ] final -147.82 input  175.53 | X-H torsion
[ 8008 7997 7996 7995 ] final   48.99 input   59.86 | X-H torsion
[ 10167 10162 10161 10158 ] final   86.63 input  -65.29 | X-H torsion
[ 10718 10713 10712 10709 ] final -162.59 input   66.30 | X-H torsion
[ 10763 10752 10751 10750 ] final  178.17 input  -60.55 | X-H torsion
[ 11005 11000 10999 10996 ] final  -47.49 input  -57.11 | X-H torsion

> <Gold.Protein.ActiveResidues>
 VAL166  LYS551  ARG553  GLY616  TRP617  ASP618  TYR619  PRO620  LYS621  CYS622 
 ASP623  PHE694  ASN695  SER759  ASP760  ASP761  ALA762  ILE779  LEU786  VAL792 
 PHE793  MET794  SER795  GLU796  ALA797  LYS798  CYS799  TRP800  GLU811  SER814 

> <Gold.Protein.RotatedAtoms>
  152.4061  134.6205  160.0049 H   0  0  0  0  0  0  0  0  0  0  0  0  # atno 6907 bound_to 6896
  151.6396  133.3321  159.3135 H   0  0  0  0  0  0  0  0  0  0  0  0  # atno 6908 bound_to 6896
  150.7956  134.7054  159.6618 H   0  0  0  0  0  0  0  0  0  0  0  0  # atno 6909 bound_to 6896
  144.8069  140.5277  143.5669 H   0  0  0  0  0  0  0  0  0  0  0  0  # atno 7974 bound_to 7965
  155.3947  140.3435  155.4253 H   0  0  0  0  0  0  0  0  0  0  0  0  # atno 8008 bound_to 7997
  156.1537  140.1579  156.8760 H   0  0  0  0  0  0  0  0  0  0  0  0  # atno 8009 bound_to 7997
  154.5076  140.0798  156.7906 H   0  0  0  0  0  0  0  0  0  0  0  0  # atno 8010 bound_to 7997
  139.8856  144.6415  150.8795 H   0  0  0  0  0  0  0  0  0  0  0  0  # atno 10167 bound_to 10162
  156.6127  130.8857  151.2940 H   0  0  0  0  0  0  0  0  0  0  0  0  # atno 10718 bound_to 10713
  154.5041  135.2785  155.1397 H   0  0  0  0  0  0  0  0  0  0  0  0  # atno 10763 bound_to 10752
  154.3018  135.6246  153.5432 H   0  0  0  0  0  0  0  0  0  0  0  0  # atno 10764 bound_to 10752
  152.9907  135.5699  154.5490 H   0  0  0  0  0  0  0  0  0  0  0  0  # atno 10765 bound_to 10752
  141.0644  133.6698  156.3306 H   0  0  0  0  0  0  0  0  0  0  0  0  # atno 11005 bound_to 11000
  145.5417  139.1475  143.3443 LP  0  0  0  0  0  0  0  0  0  0  0  0  # atno 17320 bound_to 7965
  146.2361  140.5557  142.8954 LP  0  0  0  0  0  0  0  0  0  0  0  0  # atno 17321 bound_to 7965
  140.7736  143.3551  151.1937 LP  0  0  0  0  0  0  0  0  0  0  0  0  # atno 17342 bound_to 10162
  139.7156  143.9305  152.2965 LP  0  0  0  0  0  0  0  0  0  0  0  0  # atno 17343 bound_to 10162
  157.7250  130.9610  150.1595 LP  0  0  0  0  0  0  0  0  0  0  0  0  # atno 17370 bound_to 10713
  156.2377  130.3688  149.8373 LP  0  0  0  0  0  0  0  0  0  0  0  0  # atno 17371 bound_to 10713
  140.5803  134.5752  157.5478 LP  0  0  0  0  0  0  0  0  0  0  0  0  # atno 17394 bound_to 11000
  139.9462  134.7697  156.0556 LP  0  0  0  0  0  0  0  0  0  0  0  0  # atno 17395 bound_to 11000

$$$$
