AV-unprocessed.smi:232|AV-procd|sdf|1769|dock4
  -GOLD-   2262020303D 1   1.00000     0.00000
 Structure written by MMmdl.
 52 55  0  0  0  0  0  0  0  0  1 V2000
  153.0688  141.9127  160.0654 C   0  0  0  0  0  0  0  0  0  0  0  0
  152.2783  140.8100  159.3507 C   0  0  0  0  0  0  0  0  0  0  0  0
  152.1298  141.0584  157.8357 C   0  0  2  0  0  0  0  0  0  0  0  0
  151.3344  142.3229  157.4863 C   0  0  0  0  0  0  0  0  0  0  0  0
  150.6639  142.0020  156.1457 C   0  0  0  0  0  0  0  0  0  0  0  0
  151.0465  140.5448  155.8545 C   0  0  2  0  0  0  0  0  0  0  0  0
  149.9373  139.7575  155.1363 C   0  0  0  0  0  0  0  0  0  0  0  0
  151.4162  139.9856  157.1497 N   0  0  0  0  0  0  0  0  0  0  0  0
  152.0348  138.7820  157.0820 C   0  0  0  0  0  0  0  0  0  0  0  0
  153.3814  138.6863  157.2458 N   0  0  0  0  0  0  0  0  0  0  0  0
  153.9826  137.4957  157.1603 C   0  0  0  0  0  0  0  0  0  0  0  0
  153.4388  136.3007  156.9177 N   0  0  0  0  0  0  0  0  0  0  0  0
  152.0885  136.3973  156.7497 C   0  0  0  0  0  0  0  0  0  0  0  0
  151.3138  137.5881  156.8171 C   0  0  0  0  0  0  0  0  0  0  0  0
  149.9732  137.2995  156.5945 N   0  0  0  0  0  0  0  0  0  0  0  0
  149.9566  136.0085  156.4004 C   0  0  0  0  0  0  0  0  0  0  0  0
  151.1839  135.3886  156.4730 N   0  0  0  0  0  0  0  0  0  0  0  0
  151.4598  133.9748  156.2908 C   0  0  0  0  0  0  0  0  0  0  0  0
  150.2619  133.0913  156.6896 C   0  0  2  0  0  0  0  0  0  0  0  0
  150.5026  132.4575  157.9321 O   0  0  0  0  0  0  0  0  0  0  0  0
  149.8973  132.0540  155.6083 C   0  0  2  0  0  0  0  0  0  0  0  0
  149.6574  132.5951  154.1961 C   0  0  0  0  0  0  0  0  0  0  0  0
  148.8025  131.4975  153.6032 C   0  0  0  0  0  0  0  0  0  0  0  0
  147.9267  131.1096  154.7923 C   0  0  0  0  0  0  0  0  0  0  0  0
  148.7327  131.3062  155.9511 O   0  0  0  0  0  0  0  0  0  0  0  0
  153.1776  141.6858  161.1261 H   0  0  0  0  0  0  0  0  0  0  0  0
  152.5695  142.8785  159.9848 H   0  0  0  0  0  0  0  0  0  0  0  0
  154.0687  142.0148  159.6432 H   0  0  0  0  0  0  0  0  0  0  0  0
  152.7887  139.8614  159.5202 H   0  0  0  0  0  0  0  0  0  0  0  0
  151.2937  140.7102  159.8090 H   0  0  0  0  0  0  0  0  0  0  0  0
  153.1230  141.1561  157.3939 H   0  0  0  0  0  0  0  0  0  0  0  0
  150.5675  142.5176  158.2373 H   0  0  0  0  0  0  0  0  0  0  0  0
  151.9756  143.2030  157.4309 H   0  0  0  0  0  0  0  0  0  0  0  0
  149.5830  142.1167  156.2392 H   0  0  0  0  0  0  0  0  0  0  0  0
  150.9994  142.6652  155.3479 H   0  0  0  0  0  0  0  0  0  0  0  0
  151.9359  140.5470  155.2214 H   0  0  0  0  0  0  0  0  0  0  0  0
  149.6577  140.2464  154.2030 H   0  0  0  0  0  0  0  0  0  0  0  0
  149.0421  139.6812  155.7542 H   0  0  0  0  0  0  0  0  0  0  0  0
  150.2592  138.7457  154.8893 H   0  0  0  0  0  0  0  0  0  0  0  0
  155.0531  137.5022  157.3025 H   0  0  0  0  0  0  0  0  0  0  0  0
  149.0438  135.4693  156.1919 H   0  0  0  0  0  0  0  0  0  0  0  0
  151.7198  133.8111  155.2443 H   0  0  0  0  0  0  0  0  0  0  0  0
  152.3419  133.7132  156.8768 H   0  0  0  0  0  0  0  0  0  0  0  0
  149.3932  133.7345  156.8359 H   0  0  0  0  0  0  0  0  0  0  0  0
  149.6803  132.1349  158.2677 H   0  0  0  0  0  0  0  0  0  0  0  0
  150.7085  131.3265  155.5489 H   0  0  0  0  0  0  0  0  0  0  0  0
  149.0929  133.5280  154.2104 H   0  0  0  0  0  0  0  0  0  0  0  0
  150.5816  132.7642  153.6429 H   0  0  0  0  0  0  0  0  0  0  0  0
  148.2263  131.8209  152.7359 H   0  0  0  0  0  0  0  0  0  0  0  0
  149.4278  130.6547  153.3051 H   0  0  0  0  0  0  0  0  0  0  0  0
  147.0622  131.7714  154.8576 H   0  0  0  0  0  0  0  0  0  0  0  0
  147.5636  130.0838  154.7268 H   0  0  0  0  0  0  0  0  0  0  0  0
  1  2  1  0  0  0  0
  1 26  1  0  0  0  0
  1 27  1  0  0  0  0
  1 28  1  0  0  0  0
  2  3  1  0  0  0  0
  2 29  1  0  0  0  0
  2 30  1  0  0  0  0
  3  8  1  0  0  0  0
  3  4  1  0  0  0  0
  3 31  1  0  0  0  0
  4  5  1  0  0  0  0
  4 32  1  0  0  0  0
  4 33  1  0  0  0  0
  5  6  1  0  0  0  0
  5 34  1  0  0  0  0
  5 35  1  0  0  0  0
  6  7  1  0  0  0  0
  6  8  1  0  0  0  0
  6 36  1  0  0  0  0
  7 37  1  0  0  0  0
  7 38  1  0  0  0  0
  7 39  1  0  0  0  0
  8  9  1  0  0  0  0
  9 14  1  0  0  0  0
  9 10  2  0  0  0  0
 10 11  1  0  0  0  0
 11 12  2  0  0  0  0
 11 40  1  0  0  0  0
 12 13  1  0  0  0  0
 13 17  1  0  0  0  0
 13 14  2  0  0  0  0
 14 15  1  0  0  0  0
 15 16  2  0  0  0  0
 16 17  1  0  0  0  0
 16 41  1  0  0  0  0
 17 18  1  0  0  0  0
 18 19  1  0  0  0  0
 18 42  1  0  0  0  0
 18 43  1  0  0  0  0
 19 20  1  0  0  0  0
 19 21  1  0  0  0  0
 19 44  1  0  0  0  0
 20 45  1  0  0  0  0
 21 25  1  0  0  0  0
 21 22  1  0  0  0  0
 21 46  1  0  0  0  0
 22 23  1  0  0  0  0
 22 47  1  0  0  0  0
 22 48  1  0  0  0  0
 23 24  1  0  0  0  0
 23 49  1  0  0  0  0
 23 50  1  0  0  0  0
 24 25  1  0  0  0  0
 24 51  1  0  0  0  0
 24 52  1  0  0  0  0
M  END
> <s_m_source_file>
AV-unprocessed.smi

> <i_m_source_file_index>
232

> <i_lp_mmshare_version>
43012

> <i_f3d_flags>
0

> <s_epik_input>
W0NIM11bQ0gyXVtDQEBIXTFbQ0gyXVtDSDJdW0NAQEhdKFtDSDNdKU4xYyhuW2NIXW4yKWMoYzIzKW5bY0hdbjNbQ0gyXVtDQEhdKFtPSF0pW0NAQEhdNFtDSDJdW0NIMl1bQ0gyXU80

> <s_epik_cmdline>
J2VwaWtfcHl0aG9uJywgJy1waCcsICc3LjAnLCAnLXRuJywgJzgnLCAnLW1hJywgJzIwMCcsICctbWV0YWxfYmluZGluZycsICctaW1hZScsICc8aW5maWxlLm1hZT4nLCAnLW9tYWUnLCAnPG91dGZpbGUubWFlPic=

> <r_lp_tautomer_probability>
1

> <r_epik_Ionization_Penalty>
0.00258048

> <r_epik_Ionization_Penalty_Charging>
0

> <r_epik_Ionization_Penalty_Neutral>
0.00258048

> <r_epik_State_Penalty>
0.00168551

> <r_epik_Charging_Adjusted_Penalty>
0.00168551

> <i_epik_Tot_Q>
0

> <i_epik_Tot_abs_Q>
0

> <r_epik_Metal_State_Penalty>
-0

> <b_epik_Metal_Only>
0

> <s_lp_Force_Field>
OPLS_2005

> <r_lp_Energy>
54.2743

> <b_lp_Chiralities_Consistent>
1

> <s_lp_Variant>
AV-unprocessed.smi:232-3

> <Gold.Version>
5.8.1

> <Gold.Id.Protein>
6NUR|6NUR_protein|mol2

> <Gold.PLP.Fitness>
41.7479

> <Gold.PLP.PLP>
-35.7549

> <Gold.PLP.part.hbond>
-3.0000

> <Gold.PLP.part.metal>
0.0000

> <Gold.PLP.part.buried>
-4.8061

> <Gold.PLP.part.nonpolar>
-28.3884

> <Gold.PLP.part.repulsive>
0.0004

> <Gold.PLP.ligand.clash>
0.0000

> <Gold.PLP.ligand.torsion>
1.5555

> <Gold.PLP.Chemscore.Hbond>
3.0000

> <Gold.PLP.Chemscore.CHOScore>
0.0000

> <Gold.PLP.Chemscore.Metal>
0.0000

> <Gold.Chemscore.Hbonds>
donor molecule, donor type, donor heavy atom, donor atom, acceptor molecule, acceptor atom, score
      P1  H  6896  6907       L1    20  1.00
      P1  H  7997  8010       L1    10  1.00
      P1  H 10752 10763       L1    12  1.00

> <Gold.PLP.Chemscore.Internal.Correction>
0.1041

> <Gold.Rescore>
     Score         DG    S(hbond)    S(metal)    S(lipo)     H(rot)  DE(clash)    DE(int)     intcor
     16.43     -18.06       2.54        0.00      88.00       2.43       0.00       1.63       ----

> <Gold.Chemscore.Fitness>
16.4311

> <Gold.Chemscore.DG>
-18.0604

> <Gold.Chemscore.ZeroCoef>
-5.4800

> <Gold.Chemscore.Hbond>
2.5434

> <Gold.Chemscore.Metal>
0.0000

> <Gold.Chemscore.Lipo>
88.0001

> <Gold.Chemscore.Internal_Hbond>
0.0000

> <Gold.Chemscore.DEClash>
0.0015

> <Gold.Chemscore.DEInternal>
1.6279

> <Gold.Chemscore.Rot>
2.4260

> <Gold.Chemscore.Internal.Correction>
   9.000000E+99

> <Gold.Chemscore.Hbonds>
donor molecule, donor type, donor heavy atom, donor atom, acceptor molecule, acceptor atom, score
      P1  H  6896  6907       L1    20  0.47
      P1  H  7997  8010       L1    10  0.81
      P1  H 10752 10763       L1    12  0.24

> <Gold.Chemscore.Hbond.Weighted>
-8.4951

> <Gold.Chemscore.Metal.Weighted>
-0.0000

> <Gold.Chemscore.Lipo.Weighted>
-10.2960

> <Gold.Chemscore.Internal_Hbond.Weighted>
0.0000

> <Gold.Chemscore.DEClash.Weighted>
0.0015

> <Gold.Chemscore.DEInternal.Weighted>
1.6279

> <Gold.Chemscore.Rot.Weighted>
6.2107

> <Gold.Chemscore.Internal.Correction.Weighted>
   9.000000E+99

> <Gold.Protein.RotatedTorsions>
[ 6907 6896 6895 6894 ] final -147.97 input  -60.11 | X-H torsion
[ 7974 7965 7964 7962 ] final  170.48 input  175.53 | X-H torsion
[ 8008 7997 7996 7995 ] final   43.89 input   59.86 | X-H torsion
[ 10167 10162 10161 10158 ] final -130.06 input  -65.29 | X-H torsion
[ 10718 10713 10712 10709 ] final  -79.02 input   66.30 | X-H torsion
[ 10763 10752 10751 10750 ] final  138.56 input  -60.55 | X-H torsion
[ 11005 11000 10999 10996 ] final  -61.78 input  -57.11 | X-H torsion

> <Gold.Protein.ActiveResidues>
 VAL166  LYS551  ARG553  GLY616  TRP617  ASP618  TYR619  PRO620  LYS621  CYS622 
 ASP623  PHE694  ASN695  SER759  ASP760  ASP761  ALA762  ILE779  LEU786  VAL792 
 PHE793  MET794  SER795  GLU796  ALA797  LYS798  CYS799  TRP800  GLU811  SER814 

> <Gold.Protein.RotatedAtoms>
  151.1631  133.4832  159.2593 H   0  0  0  0  0  0  0  0  0  0  0  0  # atno 6907 bound_to 6896
  151.1433  135.0190  159.8645 H   0  0  0  0  0  0  0  0  0  0  0  0  # atno 6908 bound_to 6896
  152.5463  134.1523  159.8576 H   0  0  0  0  0  0  0  0  0  0  0  0  # atno 6909 bound_to 6896
  144.7322  139.9208  143.6420 H   0  0  0  0  0  0  0  0  0  0  0  0  # atno 7974 bound_to 7965
  155.3102  140.3390  155.4244 H   0  0  0  0  0  0  0  0  0  0  0  0  # atno 8008 bound_to 7997
  156.1959  140.1715  156.8037 H   0  0  0  0  0  0  0  0  0  0  0  0  # atno 8009 bound_to 7997
  154.5498  140.0708  156.8633 H   0  0  0  0  0  0  0  0  0  0  0  0  # atno 8010 bound_to 7997
  139.9332  143.6248  152.2524 H   0  0  0  0  0  0  0  0  0  0  0  0  # atno 10167 bound_to 10162
  156.0103  130.4534  150.3585 H   0  0  0  0  0  0  0  0  0  0  0  0  # atno 10718 bound_to 10713
  153.8917  135.3032  155.3447 H   0  0  0  0  0  0  0  0  0  0  0  0  # atno 10763 bound_to 10752
  154.7713  135.4884  153.9658 H   0  0  0  0  0  0  0  0  0  0  0  0  # atno 10764 bound_to 10752
  153.1294  135.6800  153.9302 H   0  0  0  0  0  0  0  0  0  0  0  0  # atno 10765 bound_to 10752
  141.1336  133.6633  156.5427 H   0  0  0  0  0  0  0  0  0  0  0  0  # atno 11005 bound_to 11000
  146.0931  139.3922  143.0393 LP  0  0  0  0  0  0  0  0  0  0  0  0  # atno 17320 bound_to 7965
  145.7684  140.9907  143.1163 LP  0  0  0  0  0  0  0  0  0  0  0  0  # atno 17321 bound_to 7965
  139.6765  144.7658  151.1687 LP  0  0  0  0  0  0  0  0  0  0  0  0  # atno 17342 bound_to 10162
  140.7631  143.5788  150.8917 LP  0  0  0  0  0  0  0  0  0  0  0  0  # atno 17343 bound_to 10162
  157.1675  131.0360  151.2811 LP  0  0  0  0  0  0  0  0  0  0  0  0  # atno 17370 bound_to 10713
  157.4258  130.7463  149.6950 LP  0  0  0  0  0  0  0  0  0  0  0  0  # atno 17371 bound_to 10713
  140.4127  134.7258  157.4845 LP  0  0  0  0  0  0  0  0  0  0  0  0  # atno 17394 bound_to 11000
  140.0416  134.6259  155.8974 LP  0  0  0  0  0  0  0  0  0  0  0  0  # atno 17395 bound_to 11000

$$$$
