AV-unprocessed.smi:1576|AV-procd|sdf|6345|dock10
  -GOLD-   22720 6563D 1   1.00000     0.00000
 Structure written by MMmdl.
 46 48  0  0  0  0  0  0  0  0  2 V2000
  147.1188  137.8378  154.7415 O   0  0  0  0  0  0  0  0  0  0  0  0
  147.3852  138.4579  153.7124 C   0  0  0  0  0  0  0  0  0  0  0  0
  148.2813  139.4553  153.6164 N   0  0  0  0  0  0  0  0  0  0  0  0
  149.0745  140.0334  154.6442 C   0  0  0  0  0  0  0  0  0  0  0  0
  149.6579  139.2994  155.7054 C   0  0  0  0  0  0  0  0  0  0  0  0
  150.4154  139.9739  156.6852 C   0  0  0  0  0  0  0  0  0  0  0  0
  150.5845  141.3797  156.6090 C   0  0  0  0  0  0  0  0  0  0  0  0
  151.3210  142.1385  157.5474 N   0  0  0  0  0  0  0  0  0  0  0  0
  151.9656  141.3853  158.6286 C   0  0  0  0  0  0  0  0  0  0  0  0
  153.0564  142.2173  159.3239 C   0  0  0  0  0  0  0  0  0  0  0  0
  152.5068  143.5722  159.7895 C   0  0  0  0  0  0  0  0  0  0  0  0
  151.8854  144.3163  158.6002 C   0  0  0  0  0  0  0  0  0  0  0  0
  150.8086  143.4621  157.9091 C   0  0  0  0  0  0  0  0  0  0  0  0
  149.9919  142.0349  155.5811 N   0  3  0  0  0  0  0  0  0  0  0  0
  149.2581  141.4302  154.6227 C   0  0  0  0  0  0  0  0  0  0  0  0
  146.8157  138.2000  152.5267 N   0  0  0  0  0  0  0  0  0  0  0  0
  145.8097  137.1692  152.2878 C   0  0  2  0  0  0  0  0  0  0  0  0
  144.4505  137.5687  152.8916 C   0  0  0  0  0  0  0  0  0  0  0  0
  143.5476  136.3299  152.9299 C   0  0  0  0  0  0  0  0  0  0  0  0
  144.6634  134.8963  153.1735 S   0  0  0  0  0  0  0  0  0  0  0  0
  144.6071  134.4611  154.5771 O   0  0  0  0  0  0  0  0  0  0  0  0
  144.4586  133.9402  152.0751 O   0  0  0  0  0  0  0  0  0  0  0  0
  146.2220  135.8199  152.8981 C   0  0  0  0  0  0  0  0  0  0  0  0
  148.4516  139.8098  152.6866 H   0  0  0  0  0  0  0  0  0  0  0  0
  149.5314  138.2320  155.7979 H   0  0  0  0  0  0  0  0  0  0  0  0
  150.8589  139.3902  157.4774 H   0  0  0  0  0  0  0  0  0  0  0  0
  151.2020  141.0959  159.3518 H   0  0  0  0  0  0  0  0  0  0  0  0
  152.4185  140.4635  158.2649 H   0  0  0  0  0  0  0  0  0  0  0  0
  153.4599  141.6657  160.1735 H   0  0  0  0  0  0  0  0  0  0  0  0
  153.8878  142.3773  158.6360 H   0  0  0  0  0  0  0  0  0  0  0  0
  151.7558  143.4212  160.5658 H   0  0  0  0  0  0  0  0  0  0  0  0
  153.3030  144.1700  160.2340 H   0  0  0  0  0  0  0  0  0  0  0  0
  151.4543  145.2608  158.9330 H   0  0  0  0  0  0  0  0  0  0  0  0
  152.6663  144.5695  157.8819 H   0  0  0  0  0  0  0  0  0  0  0  0
  150.4724  143.9941  157.0188 H   0  0  0  0  0  0  0  0  0  0  0  0
  149.9453  143.3436  158.5649 H   0  0  0  0  0  0  0  0  0  0  0  0
  148.8464  142.0838  153.8669 H   0  0  0  0  0  0  0  0  0  0  0  0
  147.0972  138.7533  151.7305 H   0  0  0  0  0  0  0  0  0  0  0  0
  145.6689  137.0370  151.2132 H   0  0  0  0  0  0  0  0  0  0  0  0
  144.6004  137.9206  153.9133 H   0  0  0  0  0  0  0  0  0  0  0  0
  143.9848  138.3853  152.3389 H   0  0  0  0  0  0  0  0  0  0  0  0
  142.8027  136.3686  153.7248 H   0  0  0  0  0  0  0  0  0  0  0  0
  143.0340  136.1970  151.9775 H   0  0  0  0  0  0  0  0  0  0  0  0
  146.8889  135.2467  152.2538 H   0  0  0  0  0  0  0  0  0  0  0  0
  146.7038  135.9529  153.8673 H   0  0  0  0  0  0  0  0  0  0  0  0
  150.1043  143.0476  155.5297 H   0  0  0  0  0  0  0  0  0  0  0  0
  1  2  2  0  0  0  0
  2  3  1  0  0  0  0
  2 16  1  0  0  0  0
  3  4  1  0  0  0  0
  3 24  1  0  0  0  0
  4 15  1  0  0  0  0
  4  5  2  0  0  0  0
  5  6  1  0  0  0  0
  5 25  1  0  0  0  0
  6  7  2  0  0  0  0
  6 26  1  0  0  0  0
  7  8  1  0  0  0  0
  7 14  1  0  0  0  0
  8 13  1  0  0  0  0
  8  9  1  0  0  0  0
  9 10  1  0  0  0  0
  9 27  1  0  0  0  0
  9 28  1  0  0  0  0
 10 11  1  0  0  0  0
 10 29  1  0  0  0  0
 10 30  1  0  0  0  0
 11 12  1  0  0  0  0
 11 31  1  0  0  0  0
 11 32  1  0  0  0  0
 12 13  1  0  0  0  0
 12 33  1  0  0  0  0
 12 34  1  0  0  0  0
 13 35  1  0  0  0  0
 13 36  1  0  0  0  0
 14 15  2  0  0  0  0
 14 46  1  0  0  0  0
 15 37  1  0  0  0  0
 16 17  1  0  0  0  0
 16 38  1  0  0  0  0
 17 23  1  0  0  0  0
 17 18  1  0  0  0  0
 17 39  1  0  0  0  0
 18 19  1  0  0  0  0
 18 40  1  0  0  0  0
 18 41  1  0  0  0  0
 19 20  1  0  0  0  0
 19 42  1  0  0  0  0
 19 43  1  0  0  0  0
 20 21  2  0  0  0  0
 20 22  2  0  0  0  0
 20 23  1  0  0  0  0
 23 44  1  0  0  0  0
 23 45  1  0  0  0  0
M  CHG  1  14   1
M  END
> <s_m_source_file>
AV-unprocessed.smi

> <i_m_source_file_index>
1576

> <i_lp_mmshare_version>
43012

> <i_f3d_flags>
0

> <s_epik_input>
Tz1TMSg9TylbQ0gyXVtDSDJdW0NASF0oW0NIMl0xKVtOSF1DKD1PKVtOSF1jMltjSF1bY0hdYyhuW2NIXTIpTjNbQ0gyXVtDSDJdW0NIMl1bQ0gyXVtDSDJdMw==

> <s_epik_cmdline>
J2VwaWtfcHl0aG9uJywgJy1waCcsICc3LjAnLCAnLXRuJywgJzgnLCAnLW1hJywgJzIwMCcsICctbWV0YWxfYmluZGluZycsICctaW1hZScsICc8aW5maWxlLm1hZT4nLCAnLW9tYWUnLCAnPG91dGZpbGUubWFlPic=

> <r_lp_tautomer_probability>
0.999994

> <r_epik_Ionization_Penalty>
1.19724

> <r_epik_Ionization_Penalty_Charging>
1.19722

> <r_epik_Ionization_Penalty_Neutral>
2.11505e-05

> <r_epik_State_Penalty>
1.26251

> <r_epik_Charging_Adjusted_Penalty>
2.45973

> <i_epik_Tot_Q>
1

> <i_epik_Tot_abs_Q>
1

> <r_epik_Metal_State_Penalty>
1.33857

> <b_epik_Metal_Only>
0

> <s_lp_Force_Field>
OPLS_2005

> <r_lp_Energy>
26.9885

> <b_lp_Chiralities_Consistent>
1

> <s_lp_Variant>
AV-unprocessed.smi:1576-3

> <Gold.Version>
5.8.1

> <Gold.Id.Protein>
6NUR|6NUR_protein|mol2

> <Gold.PLP.Fitness>
40.6296

> <Gold.PLP.PLP>
-33.8773

> <Gold.PLP.part.hbond>
-3.0000

> <Gold.PLP.part.metal>
0.0000

> <Gold.PLP.part.buried>
-1.2771

> <Gold.PLP.part.nonpolar>
-30.8547

> <Gold.PLP.part.repulsive>
0.5889

> <Gold.PLP.ligand.clash>
0.0000

> <Gold.PLP.ligand.torsion>
0.7493

> <Gold.PLP.Chemscore.Hbond>
2.5760

> <Gold.PLP.Chemscore.CHOScore>
0.0000

> <Gold.PLP.Chemscore.Metal>
0.0000

> <Gold.Chemscore.Hbonds>
donor molecule, donor type, donor heavy atom, donor atom, acceptor molecule, acceptor atom, score
      L1  H     3    24       P1  7957  1.00
      L1  H    14    46       P1  8028  1.37

> <Gold.PLP.Chemscore.Internal.Correction>
0.5229

> <Gold.Rescore>
     Score         DG    S(hbond)    S(metal)    S(lipo)     H(rot)  DE(clash)    DE(int)     intcor
     15.49     -19.20       1.70        0.00      96.04       1.25       1.41       2.30       ----

> <Gold.Chemscore.Fitness>
15.4942

> <Gold.Chemscore.DG>
-19.2039

> <Gold.Chemscore.ZeroCoef>
-5.4800

> <Gold.Chemscore.Hbond>
1.7006

> <Gold.Chemscore.Metal>
0.0000

> <Gold.Chemscore.Lipo>
96.0447

> <Gold.Chemscore.Internal_Hbond>
0.0000

> <Gold.Chemscore.DEClash>
1.4123

> <Gold.Chemscore.DEInternal>
2.2975

> <Gold.Chemscore.Rot>
1.2473

> <Gold.Chemscore.Internal.Correction>
   9.000000E+99

> <Gold.Chemscore.Hbonds>
donor molecule, donor type, donor heavy atom, donor atom, acceptor molecule, acceptor atom, score
      L1  H     3    24       P1  7957  0.95
      L1  H    14    46       P1  8028  0.66

> <Gold.Chemscore.Hbond.Weighted>
-5.6798

> <Gold.Chemscore.Metal.Weighted>
-0.0000

> <Gold.Chemscore.Lipo.Weighted>
-11.2372

> <Gold.Chemscore.Internal_Hbond.Weighted>
0.0000

> <Gold.Chemscore.DEClash.Weighted>
1.4123

> <Gold.Chemscore.DEInternal.Weighted>
2.2975

> <Gold.Chemscore.Rot.Weighted>
3.1931

> <Gold.Chemscore.Internal.Correction.Weighted>
   9.000000E+99

> <Gold.Protein.RotatedTorsions>
[ 6907 6896 6895 6894 ] final   13.35 input  -60.11 | X-H torsion
[ 7974 7965 7964 7962 ] final  172.58 input  175.53 | X-H torsion
[ 8008 7997 7996 7995 ] final  145.52 input   59.86 | X-H torsion
[ 10167 10162 10161 10158 ] final   84.64 input  -65.29 | X-H torsion
[ 10718 10713 10712 10709 ] final   69.47 input   66.30 | X-H torsion
[ 10763 10752 10751 10750 ] final  -76.79 input  -60.55 | X-H torsion
[ 11005 11000 10999 10996 ] final   -0.25 input  -57.11 | X-H torsion

> <Gold.Protein.ActiveResidues>
 VAL166  LYS551  ARG553  GLY616  TRP617  ASP618  TYR619  PRO620  LYS621  CYS622 
 ASP623  PHE694  ASN695  SER759  ASP760  ASP761  ALA762  ILE779  LEU786  VAL792 
 PHE793  MET794  SER795  GLU796  ALA797  LYS798  CYS799  TRP800  GLU811  SER814 

> <Gold.Protein.RotatedAtoms>
  151.7848  135.0752  160.0378 H   0  0  0  0  0  0  0  0  0  0  0  0  # atno 6907 bound_to 6896
  152.3198  133.5836  159.5745 H   0  0  0  0  0  0  0  0  0  0  0  0  # atno 6908 bound_to 6896
  150.7363  133.9945  159.3660 H   0  0  0  0  0  0  0  0  0  0  0  0  # atno 6909 bound_to 6896
  144.7264  139.9520  143.6432 H   0  0  0  0  0  0  0  0  0  0  0  0  # atno 7974 bound_to 7965
  156.2881  140.2207  156.5228 H   0  0  0  0  0  0  0  0  0  0  0  0  # atno 8008 bound_to 7997
  154.7514  140.0480  157.0918 H   0  0  0  0  0  0  0  0  0  0  0  0  # atno 8009 bound_to 7997
  155.0105  140.3112  155.4835 H   0  0  0  0  0  0  0  0  0  0  0  0  # atno 8010 bound_to 7997
  139.9060  144.6301  150.8587 H   0  0  0  0  0  0  0  0  0  0  0  0  # atno 10167 bound_to 10162
  157.6348  130.9427  150.0518 H   0  0  0  0  0  0  0  0  0  0  0  0  # atno 10718 bound_to 10713
  154.5045  135.5785  153.6557 H   0  0  0  0  0  0  0  0  0  0  0  0  # atno 10763 bound_to 10752
  152.9885  135.6144  154.2959 H   0  0  0  0  0  0  0  0  0  0  0  0  # atno 10764 bound_to 10752
  154.2869  135.2849  155.2652 H   0  0  0  0  0  0  0  0  0  0  0  0  # atno 10765 bound_to 10752
  140.6342  133.9547  155.8291 H   0  0  0  0  0  0  0  0  0  0  0  0  # atno 11005 bound_to 11000
  146.0704  139.3693  143.0526 LP  0  0  0  0  0  0  0  0  0  0  0  0  # atno 17320 bound_to 7965
  145.7975  140.9786  143.1016 LP  0  0  0  0  0  0  0  0  0  0  0  0  # atno 17321 bound_to 7965
  140.7696  143.3401  151.2226 LP  0  0  0  0  0  0  0  0  0  0  0  0  # atno 17342 bound_to 10162
  139.6984  143.9574  152.2893 LP  0  0  0  0  0  0  0  0  0  0  0  0  # atno 17343 bound_to 10162
  156.1578  130.3643  149.9343 LP  0  0  0  0  0  0  0  0  0  0  0  0  # atno 17370 bound_to 10713
  156.7348  130.9057  151.3628 LP  0  0  0  0  0  0  0  0  0  0  0  0  # atno 17371 bound_to 10713
  141.0653  134.0285  157.3602 LP  0  0  0  0  0  0  0  0  0  0  0  0  # atno 17394 bound_to 11000
  139.9104  135.0189  156.7668 LP  0  0  0  0  0  0  0  0  0  0  0  0  # atno 17395 bound_to 11000

$$$$
