AV-unprocessed.smi:95|AV-procd|sdf|858|dock5
  -GOLD-   2262017303D 1   1.00000     0.00000
 Structure written by MMmdl.
 42 45  0  0  0  0  0  0  0  0  2 V2000
  147.9358  142.0411  153.3851 O   0  0  0  0  0  0  0  0  0  0  0  0
  147.3046  142.2750  154.4177 C   0  0  0  0  0  0  0  0  0  0  0  0
  146.1052  143.1026  154.4589 C   0  0  0  0  0  0  0  0  0  0  0  0
  145.6266  143.6351  153.3220 F   0  0  0  0  0  0  0  0  0  0  0  0
  145.4517  143.3260  155.6196 C   0  0  0  0  0  0  0  0  0  0  0  0
  145.8716  142.8181  156.8394 N   0  0  0  0  0  0  0  0  0  0  0  0
  145.0542  142.9978  158.1031 C   0  0  1  0  0  0  0  0  0  0  0  0
  145.7902  143.7367  159.2347 C   0  0  0  0  0  0  0  0  0  0  0  0
  145.1549  145.1127  159.1891 C   0  0  0  0  0  0  0  0  0  0  0  0
  143.7433  144.7829  158.7202 C   0  0  0  0  0  0  0  0  0  0  0  0
  143.9236  143.7450  157.7652 O   0  0  0  0  0  0  0  0  0  0  0  0
  146.9835  141.9456  156.8780 C   0  0  0  0  0  0  0  0  0  0  0  0
  147.3155  141.3893  157.9273 O   0  0  0  0  0  0  0  0  0  0  0  0
  147.6849  141.7303  155.6673 N   0  0  0  0  0  0  0  0  0  0  0  0
  148.8395  140.8469  155.6781 C   0  0  0  0  0  0  0  0  0  0  0  0
  149.8547  141.1424  156.7727 C   0  0  0  0  0  0  0  0  0  0  0  0
  150.4394  140.1327  157.5693 C   0  0  0  0  0  0  0  0  0  0  0  0
  151.3814  140.4898  158.5554 C   0  0  0  0  0  0  0  0  0  0  0  0
  151.7188  141.8491  158.7267 C   0  0  0  0  0  0  0  0  0  0  0  0
  152.6560  142.2477  159.7016 C   0  0  0  0  0  0  0  0  0  0  0  0
  152.9748  143.6122  159.8537 C   0  0  0  0  0  0  0  0  0  0  0  0
  152.3600  144.5801  159.0342 C   0  0  0  0  0  0  0  0  0  0  0  0
  151.4230  144.1887  158.0573 C   0  0  0  0  0  0  0  0  0  0  0  0
  151.1030  142.8252  157.9034 C   0  0  0  0  0  0  0  0  0  0  0  0
  150.2070  142.4328  156.9710 N   0  3  0  0  0  0  0  0  0  0  0  0
  144.5560  143.9241  155.5679 H   0  0  0  0  0  0  0  0  0  0  0  0
  144.7760  141.9939  158.4279 H   0  0  0  0  0  0  0  0  0  0  0  0
  145.5389  143.2475  160.1768 H   0  0  0  0  0  0  0  0  0  0  0  0
  146.8751  143.7231  159.1319 H   0  0  0  0  0  0  0  0  0  0  0  0
  145.1747  145.6239  160.1519 H   0  0  0  0  0  0  0  0  0  0  0  0
  145.6548  145.7469  158.4567 H   0  0  0  0  0  0  0  0  0  0  0  0
  143.1424  144.4054  159.5490 H   0  0  0  0  0  0  0  0  0  0  0  0
  143.2296  145.6419  158.2878 H   0  0  0  0  0  0  0  0  0  0  0  0
  148.4524  139.8291  155.7611 H   0  0  0  0  0  0  0  0  0  0  0  0
  149.3223  140.8797  154.7012 H   0  0  0  0  0  0  0  0  0  0  0  0
  150.1732  139.0951  157.4304 H   0  0  0  0  0  0  0  0  0  0  0  0
  151.8363  139.7265  159.1699 H   0  0  0  0  0  0  0  0  0  0  0  0
  153.1326  141.5132  160.3348 H   0  0  0  0  0  0  0  0  0  0  0  0
  153.6927  143.9174  160.6011 H   0  0  0  0  0  0  0  0  0  0  0  0
  152.6079  145.6245  159.1555 H   0  0  0  0  0  0  0  0  0  0  0  0
  150.9561  144.9364  157.4324 H   0  0  0  0  0  0  0  0  0  0  0  0
  149.7761  143.1468  156.3838 H   0  0  0  0  0  0  0  0  0  0  0  0
  1  2  2  0  0  0  0
  2 14  1  0  0  0  0
  2  3  1  0  0  0  0
  3  4  1  0  0  0  0
  3  5  2  0  0  0  0
  5  6  1  0  0  0  0
  5 26  1  0  0  0  0
  6  7  1  0  0  0  0
  6 12  1  0  0  0  0
  7 11  1  0  0  0  0
  7  8  1  0  0  0  0
  7 27  1  0  0  0  0
  8  9  1  0  0  0  0
  8 28  1  0  0  0  0
  8 29  1  0  0  0  0
  9 10  1  0  0  0  0
  9 30  1  0  0  0  0
  9 31  1  0  0  0  0
 10 11  1  0  0  0  0
 10 32  1  0  0  0  0
 10 33  1  0  0  0  0
 12 13  2  0  0  0  0
 12 14  1  0  0  0  0
 14 15  1  0  0  0  0
 15 16  1  0  0  0  0
 15 34  1  0  0  0  0
 15 35  1  0  0  0  0
 16 25  1  0  0  0  0
 16 17  2  0  0  0  0
 17 18  1  0  0  0  0
 17 36  1  0  0  0  0
 18 19  2  0  0  0  0
 18 37  1  0  0  0  0
 19 24  1  0  0  0  0
 19 20  1  0  0  0  0
 20 21  2  0  0  0  0
 20 38  1  0  0  0  0
 21 22  1  0  0  0  0
 21 39  1  0  0  0  0
 22 23  2  0  0  0  0
 22 40  1  0  0  0  0
 23 24  1  0  0  0  0
 23 41  1  0  0  0  0
 24 25  2  0  0  0  0
 25 42  1  0  0  0  0
M  CHG  1  25   1
M  END
> <s_m_source_file>
AV-unprocessed.smi

> <i_m_source_file_index>
95

> <i_lp_mmshare_version>
43012

> <i_f3d_flags>
0

> <s_epik_input>
TzFbQ0gyXVtDSDJdW0NIMl1bQ0BIXTFuKFtjSF1jKEYpYzI9TyljKD1PKW4yW0NIMl1jKFtjSF1bY0hdMyluYyhjMzQpW2NIXVtjSF1bY0hdW2NIXTQ=

> <s_epik_cmdline>
J2VwaWtfcHl0aG9uJywgJy1waCcsICc3LjAnLCAnLXRuJywgJzgnLCAnLW1hJywgJzIwMCcsICctbWV0YWxfYmluZGluZycsICctaW1hZScsICc8aW5maWxlLm1hZT4nLCAnLW9tYWUnLCAnPG91dGZpbGUubWFlPic=

> <r_lp_tautomer_probability>
1

> <r_epik_Ionization_Penalty>
1.83445

> <r_epik_Ionization_Penalty_Charging>
1.83445

> <r_epik_Ionization_Penalty_Neutral>
6.33322e-12

> <r_epik_State_Penalty>
1.95069

> <r_epik_Charging_Adjusted_Penalty>
3.78513

> <i_epik_Tot_Q>
1

> <i_epik_Tot_abs_Q>
1

> <r_epik_Metal_State_Penalty>
6.02102

> <b_epik_Metal_Only>
0

> <s_epik_Chemistry_Notes>
This compound contains an acetal/aminal-like group ( X-CH(R)-Y where X, Y are N, S, or O) that may be acid/base labile, releasing an aldehyde.

> <s_lp_Force_Field>
OPLS_2005

> <r_lp_Energy>
36.6829

> <b_lp_Chiralities_Consistent>
1

> <s_lp_Variant>
AV-unprocessed.smi:95-4

> <Gold.Version>
5.8.1

> <Gold.Id.Protein>
6NUR|6NUR_protein|mol2

> <Gold.PLP.Fitness>
49.2411

> <Gold.PLP.PLP>
-43.1532

> <Gold.PLP.part.hbond>
-2.0000

> <Gold.PLP.part.metal>
0.0000

> <Gold.PLP.part.buried>
-1.4383

> <Gold.PLP.part.nonpolar>
-38.9045

> <Gold.PLP.part.repulsive>
0.3131

> <Gold.PLP.ligand.clash>
0.0000

> <Gold.PLP.ligand.torsion>
0.3689

> <Gold.PLP.Chemscore.Hbond>
2.2434

> <Gold.PLP.Chemscore.CHOScore>
0.0000

> <Gold.PLP.Chemscore.Metal>
0.0000

> <Gold.Chemscore.Hbonds>
donor molecule, donor type, donor heavy atom, donor atom, acceptor molecule, acceptor atom, score
      L1  H    25    42       P1  8028  2.00
      P1  H  8011  8017       L1     1  0.26

> <Gold.PLP.Chemscore.Internal.Correction>
0.0957

> <Gold.Rescore>
     Score         DG    S(hbond)    S(metal)    S(lipo)     H(rot)  DE(clash)    DE(int)     intcor
     15.58     -19.15       1.45        0.00     109.20       1.54       1.77       1.80       ----

> <Gold.Chemscore.Fitness>
15.5830

> <Gold.Chemscore.DG>
-19.1506

> <Gold.Chemscore.ZeroCoef>
-5.4800

> <Gold.Chemscore.Hbond>
1.4488

> <Gold.Chemscore.Metal>
0.0000

> <Gold.Chemscore.Lipo>
109.1961

> <Gold.Chemscore.Internal_Hbond>
0.0000

> <Gold.Chemscore.DEClash>
1.7701

> <Gold.Chemscore.DEInternal>
1.7975

> <Gold.Chemscore.Rot>
1.5407

> <Gold.Chemscore.Internal.Correction>
   9.000000E+99

> <Gold.Chemscore.Hbonds>
donor molecule, donor type, donor heavy atom, donor atom, acceptor molecule, acceptor atom, score
      L1  H    25    42       P1  8028  0.99
      P1  H  8011  8017       L1     1  0.27

> <Gold.Chemscore.Hbond.Weighted>
-4.8389

> <Gold.Chemscore.Metal.Weighted>
-0.0000

> <Gold.Chemscore.Lipo.Weighted>
-12.7759

> <Gold.Chemscore.Internal_Hbond.Weighted>
0.0000

> <Gold.Chemscore.DEClash.Weighted>
1.7701

> <Gold.Chemscore.DEInternal.Weighted>
1.7975

> <Gold.Chemscore.Rot.Weighted>
3.9443

> <Gold.Chemscore.Internal.Correction.Weighted>
   9.000000E+99

> <Gold.Protein.RotatedTorsions>
[ 6907 6896 6895 6894 ] final   -5.77 input  -60.11 | X-H torsion
[ 7974 7965 7964 7962 ] final  -50.69 input  175.53 | X-H torsion
[ 8008 7997 7996 7995 ] final -151.31 input   59.86 | X-H torsion
[ 10167 10162 10161 10158 ] final   59.28 input  -65.29 | X-H torsion
[ 10718 10713 10712 10709 ] final   66.00 input   66.30 | X-H torsion
[ 10763 10752 10751 10750 ] final  154.78 input  -60.55 | X-H torsion
[ 11005 11000 10999 10996 ] final   -8.26 input  -57.11 | X-H torsion

> <Gold.Protein.ActiveResidues>
 VAL166  LYS551  ARG553  GLY616  TRP617  ASP618  TYR619  PRO620  LYS621  CYS622 
 ASP623  PHE694  ASN695  SER759  ASP760  ASP761  ALA762  ILE779  LEU786  VAL792 
 PHE793  MET794  SER795  GLU796  ALA797  LYS798  CYS799  TRP800  GLU811  SER814 

> <Gold.Protein.RotatedAtoms>
  151.4762  135.1049  159.9764 H   0  0  0  0  0  0  0  0  0  0  0  0  # atno 6907 bound_to 6896
  152.4797  133.8220  159.7069 H   0  0  0  0  0  0  0  0  0  0  0  0  # atno 6908 bound_to 6896
  150.8860  133.7246  159.2945 H   0  0  0  0  0  0  0  0  0  0  0  0  # atno 6909 bound_to 6896
  145.9271  140.7782  142.9618 H   0  0  0  0  0  0  0  0  0  0  0  0  # atno 7974 bound_to 7965
  155.6374  140.0698  157.2629 H   0  0  0  0  0  0  0  0  0  0  0  0  # atno 8008 bound_to 7997
  154.4191  140.1756  156.1586 H   0  0  0  0  0  0  0  0  0  0  0  0  # atno 8009 bound_to 7997
  155.9883  140.3347  155.6732 H   0  0  0  0  0  0  0  0  0  0  0  0  # atno 8010 bound_to 7997
  140.1781  144.4209  150.6628 H   0  0  0  0  0  0  0  0  0  0  0  0  # atno 10167 bound_to 10162
  157.6141  130.9244  150.0050 H   0  0  0  0  0  0  0  0  0  0  0  0  # atno 10718 bound_to 10713
  154.1578  135.2811  155.3117 H   0  0  0  0  0  0  0  0  0  0  0  0  # atno 10763 bound_to 10752
  154.6169  135.5480  153.7536 H   0  0  0  0  0  0  0  0  0  0  0  0  # atno 10764 bound_to 10752
  153.0201  135.6429  154.1721 H   0  0  0  0  0  0  0  0  0  0  0  0  # atno 10765 bound_to 10752
  140.7216  133.8823  155.8825 H   0  0  0  0  0  0  0  0  0  0  0  0  # atno 11005 bound_to 11000
  144.6760  140.2068  143.7381 LP  0  0  0  0  0  0  0  0  0  0  0  0  # atno 17320 bound_to 7965
  145.8475  139.2159  143.1792 LP  0  0  0  0  0  0  0  0  0  0  0  0  # atno 17321 bound_to 7965
  140.6537  143.2232  151.6017 LP  0  0  0  0  0  0  0  0  0  0  0  0  # atno 17342 bound_to 10162
  139.5308  144.2922  152.1142 LP  0  0  0  0  0  0  0  0  0  0  0  0  # atno 17343 bound_to 10162
  156.1256  130.3644  149.9815 LP  0  0  0  0  0  0  0  0  0  0  0  0  # atno 17370 bound_to 10713
  156.7887  130.9248  151.3646 LP  0  0  0  0  0  0  0  0  0  0  0  0  # atno 17371 bound_to 10713
  140.9998  134.1165  157.4328 LP  0  0  0  0  0  0  0  0  0  0  0  0  # atno 17394 bound_to 11000
  139.8847  135.0065  156.6384 LP  0  0  0  0  0  0  0  0  0  0  0  0  # atno 17395 bound_to 11000

$$$$
