AV-unprocessed.smi:1995|AV-procd|sdf|8078|dock9
  -GOLD-   2272010293D 1   1.00000     0.00000
 Structure written by MMmdl.
 43 44  0  0  0  0  0  0  0  0  2 V2000
  144.9684  140.8770  155.9281 C   0  0  0  0  0  0  0  0  0  0  0  0
  146.4957  140.8777  155.7384 C   0  0  0  0  0  0  0  0  0  0  0  0
  147.0044  141.0687  154.2764 C   0  0  1  0  0  0  0  0  0  0  0  0
  146.5611  142.4634  153.7629 C   0  0  0  0  0  0  0  0  0  0  0  0
  148.5654  141.0334  154.2582 C   0  0  0  0  0  0  0  0  0  0  0  0
  149.1950  141.9932  155.1671 N   0  0  0  0  0  0  0  0  0  0  0  0
  150.1207  141.7016  156.0924 C   0  0  0  0  0  0  0  0  0  0  0  0
  150.5383  140.5624  156.2994 O   0  0  0  0  0  0  0  0  0  0  0  0
  150.5177  142.8065  156.7475 N   0  0  0  0  0  0  0  0  0  0  0  0
  151.4567  142.9070  157.8077 C   0  0  0  0  0  0  0  0  0  0  0  0
  151.8129  141.8887  158.5996 N   0  0  0  0  0  0  0  0  0  0  0  0
  152.7523  142.2747  159.5592 C   0  0  0  0  0  0  0  0  0  0  0  0
  153.0994  143.6007  159.4851 C   0  0  0  0  0  0  0  0  0  0  0  0
  152.2566  144.4222  158.1988 S   0  0  0  0  0  0  0  0  0  0  0  0
  146.4505  139.9977  153.3673 N   0  3  0  0  0  0  0  0  0  0  0  0
  147.0788  139.9061  152.0189 C   0  0  0  0  0  0  0  0  0  0  0  0
  146.2863  138.9415  151.1221 C   0  0  0  0  0  0  0  0  0  0  0  0
  146.2370  137.6596  151.7324 O   0  0  0  0  0  0  0  0  0  0  0  0
  145.5745  137.6989  152.9886 C   0  0  0  0  0  0  0  0  0  0  0  0
  146.3308  138.6310  153.9507 C   0  0  0  0  0  0  0  0  0  0  0  0
  144.7186  140.7476  156.9813 H   0  0  0  0  0  0  0  0  0  0  0  0
  144.4900  140.0633  155.3839 H   0  0  0  0  0  0  0  0  0  0  0  0
  144.5159  141.8141  155.6054 H   0  0  0  0  0  0  0  0  0  0  0  0
  146.8972  141.6623  156.3789 H   0  0  0  0  0  0  0  0  0  0  0  0
  146.8739  139.9402  156.1447 H   0  0  0  0  0  0  0  0  0  0  0  0
  147.1343  143.2666  154.2265 H   0  0  0  0  0  0  0  0  0  0  0  0
  145.5133  142.6688  153.9826 H   0  0  0  0  0  0  0  0  0  0  0  0
  146.6983  142.5591  152.6856 H   0  0  0  0  0  0  0  0  0  0  0  0
  148.9351  140.0294  154.4725 H   0  0  0  0  0  0  0  0  0  0  0  0
  148.9359  141.2526  153.2567 H   0  0  0  0  0  0  0  0  0  0  0  0
  148.9252  142.9602  155.0610 H   0  0  0  0  0  0  0  0  0  0  0  0
  150.1024  143.6788  156.4549 H   0  0  0  0  0  0  0  0  0  0  0  0
  153.1211  141.5389  160.2588 H   0  0  0  0  0  0  0  0  0  0  0  0
  153.7973  144.1415  160.1068 H   0  0  0  0  0  0  0  0  0  0  0  0
  147.1159  140.8760  151.5270 H   0  0  0  0  0  0  0  0  0  0  0  0
  148.1057  139.5497  152.1035 H   0  0  0  0  0  0  0  0  0  0  0  0
  145.2770  139.3151  150.9415 H   0  0  0  0  0  0  0  0  0  0  0  0
  146.7707  138.8490  150.1498 H   0  0  0  0  0  0  0  0  0  0  0  0
  144.5422  138.0285  152.8589 H   0  0  0  0  0  0  0  0  0  0  0  0
  145.5360  136.6889  153.3972 H   0  0  0  0  0  0  0  0  0  0  0  0
  147.3195  138.2189  154.1534 H   0  0  0  0  0  0  0  0  0  0  0  0
  145.7861  138.6394  154.8927 H   0  0  0  0  0  0  0  0  0  0  0  0
  145.4984  140.2885  153.1967 H   0  0  0  0  0  0  0  0  0  0  0  0
  1  2  1  0  0  0  0
  1 21  1  0  0  0  0
  1 22  1  0  0  0  0
  1 23  1  0  0  0  0
  2  3  1  0  0  0  0
  2 24  1  0  0  0  0
  2 25  1  0  0  0  0
  3  4  1  0  0  0  0
  3  5  1  0  0  0  0
  3 15  1  0  0  0  0
  4 26  1  0  0  0  0
  4 27  1  0  0  0  0
  4 28  1  0  0  0  0
  5  6  1  0  0  0  0
  5 29  1  0  0  0  0
  5 30  1  0  0  0  0
  6  7  1  0  0  0  0
  6 31  1  0  0  0  0
  7  8  2  0  0  0  0
  7  9  1  0  0  0  0
  9 10  1  0  0  0  0
  9 32  1  0  0  0  0
 10 14  1  0  0  0  0
 10 11  2  0  0  0  0
 11 12  1  0  0  0  0
 12 13  2  0  0  0  0
 12 33  1  0  0  0  0
 13 14  1  0  0  0  0
 13 34  1  0  0  0  0
 15 20  1  0  0  0  0
 15 16  1  0  0  0  0
 15 43  1  0  0  0  0
 16 17  1  0  0  0  0
 16 35  1  0  0  0  0
 16 36  1  0  0  0  0
 17 18  1  0  0  0  0
 17 37  1  0  0  0  0
 17 38  1  0  0  0  0
 18 19  1  0  0  0  0
 19 20  1  0  0  0  0
 19 39  1  0  0  0  0
 19 40  1  0  0  0  0
 20 41  1  0  0  0  0
 20 42  1  0  0  0  0
M  CHG  1  15   1
M  END
> <s_m_source_file>
AV-unprocessed.smi

> <i_m_source_file_index>
1995

> <i_lp_mmshare_version>
43012

> <i_f3d_flags>
0

> <s_epik_input>
W0NIMl0xW0NIMl1PW0NIMl1bQ0gyXU4xW0NAQF0oW0NIM10pKFtDSDJdW0NIM10pW0NIMl1bTkhdQyg9TylbTkhdYzJuW2NIXVtjSF1zMg==

> <s_epik_cmdline>
J2VwaWtfcHl0aG9uJywgJy1waCcsICc3LjAnLCAnLXRuJywgJzgnLCAnLW1hJywgJzIwMCcsICctbWV0YWxfYmluZGluZycsICctaW1hZScsICc8aW5maWxlLm1hZT4nLCAnLW9tYWUnLCAnPG91dGZpbGUubWFlPic=

> <r_lp_tautomer_probability>
0.999

> <r_epik_Ionization_Penalty>
0.55406

> <r_epik_Ionization_Penalty_Charging>
0.553838

> <r_epik_Ionization_Penalty_Neutral>
0.000222147

> <r_epik_State_Penalty>
0.564424

> <r_epik_Charging_Adjusted_Penalty>
1.11826

> <i_epik_Tot_Q>
1

> <i_epik_Tot_abs_Q>
1

> <r_epik_Metal_State_Penalty>
0.573776

> <b_epik_Metal_Only>
0

> <s_lp_Force_Field>
OPLS_2005

> <r_lp_Energy>
32.5614

> <b_lp_Chiralities_Consistent>
1

> <s_lp_Variant>
AV-unprocessed.smi:1995-3

> <Gold.Version>
5.8.1

> <Gold.Id.Protein>
6NUR|6NUR_protein|mol2

> <Gold.PLP.Fitness>
47.1477

> <Gold.PLP.PLP>
-36.2256

> <Gold.PLP.part.hbond>
-3.0000

> <Gold.PLP.part.metal>
0.0000

> <Gold.PLP.part.buried>
-0.6722

> <Gold.PLP.part.nonpolar>
-34.9669

> <Gold.PLP.part.repulsive>
1.1875

> <Gold.PLP.ligand.clash>
0.0000

> <Gold.PLP.ligand.torsion>
0.6065

> <Gold.PLP.Chemscore.Hbond>
4.0000

> <Gold.PLP.Chemscore.CHOScore>
0.0000

> <Gold.PLP.Chemscore.Metal>
0.0000

> <Gold.Chemscore.Hbonds>
donor molecule, donor type, donor heavy atom, donor atom, acceptor molecule, acceptor atom, score
      L1  H     6    31       P1  8028  1.00
      L1  H     9    32       P1  8028  1.00
      L1  H    15    43       P1 10175  2.00

> <Gold.PLP.Chemscore.Internal.Correction>
0.1352

> <Gold.Rescore>
     Score         DG    S(hbond)    S(metal)    S(lipo)     H(rot)  DE(clash)    DE(int)     intcor
     17.09     -21.70       2.94        0.00      93.93       1.79       2.95       1.65       ----

> <Gold.Chemscore.Fitness>
17.0923

> <Gold.Chemscore.DG>
-21.6958

> <Gold.Chemscore.ZeroCoef>
-5.4800

> <Gold.Chemscore.Hbond>
2.9400

> <Gold.Chemscore.Metal>
0.0000

> <Gold.Chemscore.Lipo>
93.9257

> <Gold.Chemscore.Internal_Hbond>
0.0000

> <Gold.Chemscore.DEClash>
2.9486

> <Gold.Chemscore.DEInternal>
1.6549

> <Gold.Chemscore.Rot>
1.7942

> <Gold.Chemscore.Internal.Correction>
   9.000000E+99

> <Gold.Chemscore.Hbonds>
donor molecule, donor type, donor heavy atom, donor atom, acceptor molecule, acceptor atom, score
      L1  H     6    31       P1  8028  0.97
      L1  H     9    32       P1  8028  0.99
      L1  H    15    43       P1 10175  0.97

> <Gold.Chemscore.Hbond.Weighted>
-9.8195

> <Gold.Chemscore.Metal.Weighted>
-0.0000

> <Gold.Chemscore.Lipo.Weighted>
-10.9893

> <Gold.Chemscore.Internal_Hbond.Weighted>
0.0000

> <Gold.Chemscore.DEClash.Weighted>
2.9486

> <Gold.Chemscore.DEInternal.Weighted>
1.6549

> <Gold.Chemscore.Rot.Weighted>
4.5931

> <Gold.Chemscore.Internal.Correction.Weighted>
   9.000000E+99

> <Gold.Protein.RotatedTorsions>
[ 6907 6896 6895 6894 ] final  127.17 input  -60.11 | X-H torsion
[ 7974 7965 7964 7962 ] final  -85.60 input  175.53 | X-H torsion
[ 8008 7997 7996 7995 ] final -122.84 input   59.86 | X-H torsion
[ 10167 10162 10161 10158 ] final   18.49 input  -65.29 | X-H torsion
[ 10718 10713 10712 10709 ] final  -60.97 input   66.30 | X-H torsion
[ 10763 10752 10751 10750 ] final  139.78 input  -60.55 | X-H torsion
[ 11005 11000 10999 10996 ] final   68.65 input  -57.11 | X-H torsion

> <Gold.Protein.ActiveResidues>
 VAL166  LYS551  ARG553  GLY616  TRP617  ASP618  TYR619  PRO620  LYS621  CYS622 
 ASP623  PHE694  ASN695  SER759  ASP760  ASP761  ALA762  ILE779  LEU786  VAL792 
 PHE793  MET794  SER795  GLU796  ALA797  LYS798  CYS799  TRP800  GLU811  SER814 

> <Gold.Protein.RotatedAtoms>
  152.3837  133.6581  159.6181 H   0  0  0  0  0  0  0  0  0  0  0  0  # atno 6907 bound_to 6896
  150.7761  133.9071  159.3367 H   0  0  0  0  0  0  0  0  0  0  0  0  # atno 6908 bound_to 6896
  151.6871  135.0954  160.0278 H   0  0  0  0  0  0  0  0  0  0  0  0  # atno 6909 bound_to 6896
  145.4911  140.9552  143.1811 H   0  0  0  0  0  0  0  0  0  0  0  0  # atno 7974 bound_to 7965
  155.1708  140.0408  157.2862 H   0  0  0  0  0  0  0  0  0  0  0  0  # atno 8008 bound_to 7997
  154.6270  140.2515  155.7452 H   0  0  0  0  0  0  0  0  0  0  0  0  # atno 8009 bound_to 7997
  156.2465  140.2883  156.0605 H   0  0  0  0  0  0  0  0  0  0  0  0  # atno 8010 bound_to 7997
  140.5649  143.9269  150.6669 H   0  0  0  0  0  0  0  0  0  0  0  0  # atno 10167 bound_to 10162
  156.0954  130.4194  150.0929 H   0  0  0  0  0  0  0  0  0  0  0  0  # atno 10718 bound_to 10713
  153.9118  135.3010  155.3448 H   0  0  0  0  0  0  0  0  0  0  0  0  # atno 10763 bound_to 10752
  154.7619  135.4929  153.9484 H   0  0  0  0  0  0  0  0  0  0  0  0  # atno 10764 bound_to 10752
  153.1188  135.6777  153.9472 H   0  0  0  0  0  0  0  0  0  0  0  0  # atno 10765 bound_to 10752
  139.9699  134.6917  156.0468 H   0  0  0  0  0  0  0  0  0  0  0  0  # atno 11005 bound_to 11000
  144.7833  139.6480  143.7145 LP  0  0  0  0  0  0  0  0  0  0  0  0  # atno 17320 bound_to 7965
  146.2283  139.5765  142.9572 LP  0  0  0  0  0  0  0  0  0  0  0  0  # atno 17321 bound_to 7965
  140.2729  143.3443  152.1221 LP  0  0  0  0  0  0  0  0  0  0  0  0  # atno 17342 bound_to 10162
  139.5088  144.6856  151.5896 LP  0  0  0  0  0  0  0  0  0  0  0  0  # atno 17343 bound_to 10162
  156.8929  130.9594  151.3586 LP  0  0  0  0  0  0  0  0  0  0  0  0  # atno 17370 bound_to 10713
  157.6113  130.8585  149.8956 LP  0  0  0  0  0  0  0  0  0  0  0  0  # atno 17371 bound_to 10713
  141.1379  133.6571  156.3645 LP  0  0  0  0  0  0  0  0  0  0  0  0  # atno 17394 bound_to 11000
  140.5315  134.6208  157.5351 LP  0  0  0  0  0  0  0  0  0  0  0  0  # atno 17395 bound_to 11000

$$$$
