AV-unprocessed.smi:3325|AV-procd|sdf|12784|dock9
  -GOLD-   2272019133D 1   1.00000     0.00000
 Structure written by MMmdl.
 44 45  0  0  0  0  0  0  0  0  2 V2000
  145.5544  137.0271  161.7013 C   0  0  0  0  0  0  0  0  0  0  0  0
  146.7822  136.1328  161.9289 C   0  0  0  0  0  0  0  0  0  0  0  0
  147.5589  136.4943  163.2035 C   0  0  0  0  0  0  0  0  0  0  0  0
  147.6770  136.0991  160.7278 C   0  0  0  0  0  0  0  0  0  0  0  0
  147.9635  134.9570  160.1136 N   0  0  0  0  0  0  0  0  0  0  0  0
  148.8260  135.3491  159.0803 O   0  0  0  0  0  0  0  0  0  0  0  0
  148.9426  136.6937  159.1877 C   0  0  0  0  0  0  0  0  0  0  0  0
  149.8583  137.4161  158.2552 C   0  0  0  0  0  0  0  0  0  0  0  0
  149.7214  138.9435  158.3434 C   0  0  0  0  0  0  0  0  0  0  0  0
  150.7245  139.6302  157.5038 N   0  3  0  0  0  0  0  0  0  0  0  0
  151.9088  140.1065  158.2454 C   0  0  0  0  0  0  0  0  0  0  0  0
  151.6393  141.4550  158.9380 C   0  0  0  0  0  0  0  0  0  0  0  0
  151.4316  142.5986  157.9204 C   0  0  0  0  0  0  0  0  0  0  0  0
  151.1802  143.9442  158.6201 C   0  0  0  0  0  0  0  0  0  0  0  0
  152.3182  144.2883  159.5925 C   0  0  0  0  0  0  0  0  0  0  0  0
  152.5348  143.1590  160.6103 C   0  0  0  0  0  0  0  0  0  0  0  0
  152.7850  141.8153  159.9061 C   0  0  0  0  0  0  0  0  0  0  0  0
  148.2694  137.2127  160.2110 N   0  0  0  0  0  0  0  0  0  0  0  0
  144.9861  136.6996  160.8301 H   0  0  0  0  0  0  0  0  0  0  0  0
  145.8432  138.0661  161.5400 H   0  0  0  0  0  0  0  0  0  0  0  0
  144.8849  136.9994  162.5612 H   0  0  0  0  0  0  0  0  0  0  0  0
  146.4005  135.1211  162.0775 H   0  0  0  0  0  0  0  0  0  0  0  0
  148.3760  135.7932  163.3764 H   0  0  0  0  0  0  0  0  0  0  0  0
  146.9102  136.4665  164.0795 H   0  0  0  0  0  0  0  0  0  0  0  0
  147.9861  137.4954  163.1389 H   0  0  0  0  0  0  0  0  0  0  0  0
  150.8837  137.1249  158.4855 H   0  0  0  0  0  0  0  0  0  0  0  0
  149.6628  137.0775  157.2369 H   0  0  0  0  0  0  0  0  0  0  0  0
  148.7195  139.2456  158.0350 H   0  0  0  0  0  0  0  0  0  0  0  0
  149.8486  139.2631  159.3783 H   0  0  0  0  0  0  0  0  0  0  0  0
  151.0331  138.9918  156.7841 H   0  0  0  0  0  0  0  0  0  0  0  0
  152.1707  139.3539  158.9907 H   0  0  0  0  0  0  0  0  0  0  0  0
  152.7586  140.1919  157.5668 H   0  0  0  0  0  0  0  0  0  0  0  0
  150.7281  141.3541  159.5304 H   0  0  0  0  0  0  0  0  0  0  0  0
  152.3088  142.6843  157.2771 H   0  0  0  0  0  0  0  0  0  0  0  0
  150.5900  142.3757  157.2640 H   0  0  0  0  0  0  0  0  0  0  0  0
  151.0758  144.7355  157.8771 H   0  0  0  0  0  0  0  0  0  0  0  0
  150.2349  143.9037  159.1628 H   0  0  0  0  0  0  0  0  0  0  0  0
  153.2393  144.4579  159.0331 H   0  0  0  0  0  0  0  0  0  0  0  0
  152.0953  145.2206  160.1122 H   0  0  0  0  0  0  0  0  0  0  0  0
  153.3766  143.4014  161.2599 H   0  0  0  0  0  0  0  0  0  0  0  0
  151.6602  143.0766  161.2568 H   0  0  0  0  0  0  0  0  0  0  0  0
  152.9023  141.0316  160.6553 H   0  0  0  0  0  0  0  0  0  0  0  0
  153.7284  141.8624  159.3604 H   0  0  0  0  0  0  0  0  0  0  0  0
  150.2840  140.4244  157.0609 H   0  0  0  0  0  0  0  0  0  0  0  0
  1  2  1  0  0  0  0
  1 19  1  0  0  0  0
  1 20  1  0  0  0  0
  1 21  1  0  0  0  0
  2  3  1  0  0  0  0
  2  4  1  0  0  0  0
  2 22  1  0  0  0  0
  3 23  1  0  0  0  0
  3 24  1  0  0  0  0
  3 25  1  0  0  0  0
  4 18  1  0  0  0  0
  4  5  2  0  0  0  0
  5  6  1  0  0  0  0
  6  7  1  0  0  0  0
  7  8  1  0  0  0  0
  7 18  2  0  0  0  0
  8  9  1  0  0  0  0
  8 26  1  0  0  0  0
  8 27  1  0  0  0  0
  9 10  1  0  0  0  0
  9 28  1  0  0  0  0
  9 29  1  0  0  0  0
 10 11  1  0  0  0  0
 10 30  1  0  0  0  0
 10 44  1  0  0  0  0
 11 12  1  0  0  0  0
 11 31  1  0  0  0  0
 11 32  1  0  0  0  0
 12 17  1  0  0  0  0
 12 13  1  0  0  0  0
 12 33  1  0  0  0  0
 13 14  1  0  0  0  0
 13 34  1  0  0  0  0
 13 35  1  0  0  0  0
 14 15  1  0  0  0  0
 14 36  1  0  0  0  0
 14 37  1  0  0  0  0
 15 16  1  0  0  0  0
 15 38  1  0  0  0  0
 15 39  1  0  0  0  0
 16 17  1  0  0  0  0
 16 40  1  0  0  0  0
 16 41  1  0  0  0  0
 17 42  1  0  0  0  0
 17 43  1  0  0  0  0
M  CHG  1  10   1
M  END
> <s_m_source_file>
AV-unprocessed.smi

> <i_m_source_file_index>
3325

> <i_lp_mmshare_version>
43012

> <i_f3d_flags>
0

> <s_epik_input>
W0NIM11bQ0hdKFtDSDNdKWMxbm9jKG4xKVtDSDJdW0NIMl1bTkhdW0NIMl1bQ0hdMltDSDJdW0NIMl1bQ0gyXVtDSDJdW0NIMl0y

> <s_epik_cmdline>
J2VwaWtfcHl0aG9uJywgJy1waCcsICc3LjAnLCAnLXRuJywgJzgnLCAnLW1hJywgJzIwMCcsICctbWV0YWxfYmluZGluZycsICctaW1hZScsICc8aW5maWxlLm1hZT4nLCAnLW9tYWUnLCAnPG91dGZpbGUubWFlPic=

> <r_lp_tautomer_probability>
1

> <r_epik_Ionization_Penalty>
0.00142412

> <r_epik_Ionization_Penalty_Charging>
0.00142412

> <r_epik_Ionization_Penalty_Neutral>
2.66011e-13

> <r_epik_State_Penalty>
0.000950746

> <r_epik_Charging_Adjusted_Penalty>
0.00237487

> <i_epik_Tot_Q>
1

> <i_epik_Tot_abs_Q>
1

> <r_epik_Metal_State_Penalty>
-0

> <b_epik_Metal_Only>
0

> <s_lp_Force_Field>
OPLS_2005

> <r_lp_Energy>
7.21373

> <b_lp_Chiralities_Consistent>
1

> <s_lp_Variant>
AV-unprocessed.smi:3325-1

> <Gold.Version>
5.8.1

> <Gold.Id.Protein>
6NUR|6NUR_protein|mol2

> <Gold.PLP.Fitness>
45.0749

> <Gold.PLP.PLP>
-40.2172

> <Gold.PLP.part.hbond>
-3.0000

> <Gold.PLP.part.metal>
0.0000

> <Gold.PLP.part.buried>
-4.6849

> <Gold.PLP.part.nonpolar>
-33.0962

> <Gold.PLP.part.repulsive>
0.0310

> <Gold.PLP.ligand.clash>
0.0000

> <Gold.PLP.ligand.torsion>
0.6180

> <Gold.PLP.Chemscore.Hbond>
1.9810

> <Gold.PLP.Chemscore.CHOScore>
0.0000

> <Gold.PLP.Chemscore.Metal>
0.0000

> <Gold.Chemscore.Hbonds>
donor molecule, donor type, donor heavy atom, donor atom, acceptor molecule, acceptor atom, score
      P1  H  6896  6908       L1     6  0.94
      P1  H  6931  6943       L1    18  0.50
      P1  H  6934  6947       L1    18  0.33

> <Gold.PLP.Chemscore.Internal.Correction>
0.1509

> <Gold.Rescore>
     Score         DG    S(hbond)    S(metal)    S(lipo)     H(rot)  DE(clash)    DE(int)     intcor
     17.23     -18.13       1.76        0.00      98.45       1.86       0.33       0.56       ----

> <Gold.Chemscore.Fitness>
17.2322

> <Gold.Chemscore.DG>
-18.1275

> <Gold.Chemscore.ZeroCoef>
-5.4800

> <Gold.Chemscore.Hbond>
1.7633

> <Gold.Chemscore.Metal>
0.0000

> <Gold.Chemscore.Lipo>
98.4520

> <Gold.Chemscore.Internal_Hbond>
0.0000

> <Gold.Chemscore.DEClash>
0.3350

> <Gold.Chemscore.DEInternal>
0.5603

> <Gold.Chemscore.Rot>
1.8597

> <Gold.Chemscore.Internal.Correction>
   9.000000E+99

> <Gold.Chemscore.Hbonds>
donor molecule, donor type, donor heavy atom, donor atom, acceptor molecule, acceptor atom, score
      P1  H  6896  6908       L1     6  0.25
      P1  H  6931  6943       L1    18  0.27
      P1  H  6934  6947       L1    18  0.24

> <Gold.Chemscore.Hbond.Weighted>
-5.8895

> <Gold.Chemscore.Metal.Weighted>
-0.0000

> <Gold.Chemscore.Lipo.Weighted>
-11.5189

> <Gold.Chemscore.Internal_Hbond.Weighted>
0.0000

> <Gold.Chemscore.DEClash.Weighted>
0.3350

> <Gold.Chemscore.DEInternal.Weighted>
0.5603

> <Gold.Chemscore.Rot.Weighted>
4.7610

> <Gold.Chemscore.Internal.Correction.Weighted>
   9.000000E+99

> <Gold.Protein.RotatedTorsions>
[ 6907 6896 6895 6894 ] final  172.65 input  -60.11 | X-H torsion
[ 7974 7965 7964 7962 ] final  -19.19 input  175.53 | X-H torsion
[ 8008 7997 7996 7995 ] final   42.24 input   59.86 | X-H torsion
[ 10167 10162 10161 10158 ] final   83.09 input  -65.29 | X-H torsion
[ 10718 10713 10712 10709 ] final  -83.19 input   66.30 | X-H torsion
[ 10763 10752 10751 10750 ] final  149.54 input  -60.55 | X-H torsion
[ 11005 11000 10999 10996 ] final -174.77 input  -57.11 | X-H torsion

> <Gold.Protein.ActiveResidues>
 VAL166  LYS551  ARG553  GLY616  TRP617  ASP618  TYR619  PRO620  LYS621  CYS622 
 ASP623  PHE694  ASN695  SER759  ASP760  ASP761  ALA762  ILE779  LEU786  VAL792 
 PHE793  MET794  SER795  GLU796  ALA797  LYS798  CYS799  TRP800  GLU811  SER814 

> <Gold.Protein.RotatedAtoms>
  151.7809  133.3349  159.3471 H   0  0  0  0  0  0  0  0  0  0  0  0  # atno 6907 bound_to 6896
  150.7426  134.5931  159.6007 H   0  0  0  0  0  0  0  0  0  0  0  0  # atno 6908 bound_to 6896
  152.3276  134.7302  160.0349 H   0  0  0  0  0  0  0  0  0  0  0  0  # atno 6909 bound_to 6896
  146.1854  140.4027  142.8478 H   0  0  0  0  0  0  0  0  0  0  0  0  # atno 7974 bound_to 7965
  155.2829  140.3373  155.4257 H   0  0  0  0  0  0  0  0  0  0  0  0  # atno 8008 bound_to 7997
  156.2081  140.1759  156.7795 H   0  0  0  0  0  0  0  0  0  0  0  0  # atno 8009 bound_to 7997
  154.5649  140.0680  156.8860 H   0  0  0  0  0  0  0  0  0  0  0  0  # atno 8010 bound_to 7997
  139.9220  144.6206  150.8430 H   0  0  0  0  0  0  0  0  0  0  0  0  # atno 10167 bound_to 10162
  156.0022  130.4658  150.4220 H   0  0  0  0  0  0  0  0  0  0  0  0  # atno 10718 bound_to 10713
  154.0729  135.2865  155.3305 H   0  0  0  0  0  0  0  0  0  0  0  0  # atno 10763 bound_to 10752
  154.6735  135.5290  153.8172 H   0  0  0  0  0  0  0  0  0  0  0  0  # atno 10764 bound_to 10752
  153.0478  135.6563  154.0909 H   0  0  0  0  0  0  0  0  0  0  0  0  # atno 10765 bound_to 10752
  140.4707  134.6168  157.4881 H   0  0  0  0  0  0  0  0  0  0  0  0  # atno 11005 bound_to 11000
  144.8388  140.6824  143.6243 LP  0  0  0  0  0  0  0  0  0  0  0  0  # atno 17320 bound_to 7965
  145.3954  139.1608  143.4206 LP  0  0  0  0  0  0  0  0  0  0  0  0  # atno 17321 bound_to 7965
  140.7660  143.3290  151.2452 LP  0  0  0  0  0  0  0  0  0  0  0  0  # atno 17342 bound_to 10162
  139.6853  143.9784  152.2831 LP  0  0  0  0  0  0  0  0  0  0  0  0  # atno 17343 bound_to 10162
  157.2275  131.0496  151.2511 LP  0  0  0  0  0  0  0  0  0  0  0  0  # atno 17370 bound_to 10713
  157.3742  130.7197  149.6586 LP  0  0  0  0  0  0  0  0  0  0  0  0  # atno 17371 bound_to 10713
  139.9887  134.7020  155.9728 LP  0  0  0  0  0  0  0  0  0  0  0  0  # atno 17394 bound_to 11000
  141.1578  133.6541  156.4218 LP  0  0  0  0  0  0  0  0  0  0  0  0  # atno 17395 bound_to 11000

$$$$
