AV-unprocessed.smi:249|AV-procd|sdf|1921|dock8
  -GOLD-   2262021 23D 1   1.00000     0.00000
 Structure written by MMmdl.
 64 67  0  0  0  0  0  0  0  0  2 V2000
  144.1899  132.8774  150.7357 C   0  0  0  0  0  0  0  0  0  0  0  0
  145.4981  132.4207  150.0688 C   0  0  0  0  0  0  0  0  0  0  0  0
  146.6163  132.2015  151.0324 N   0  3  1  0  0  0  0  0  0  0  0  0
  147.1013  133.4855  151.6185 C   0  0  0  0  0  0  0  0  0  0  0  0
  148.3256  133.2862  152.5227 C   0  0  0  0  0  0  0  0  0  0  0  0
  148.0009  132.2952  153.6456 C   0  0  2  0  0  0  0  0  0  0  0  0
  149.1275  132.1046  154.5632 N   0  0  0  0  0  0  0  0  0  0  0  0
  150.3109  131.3457  154.1653 C   0  0  0  0  0  0  0  0  0  0  0  0
  149.2057  132.8779  155.6769 C   0  0  0  0  0  0  0  0  0  0  0  0
  148.9612  132.3097  156.8872 N   0  0  0  0  0  0  0  0  0  0  0  0
  149.0401  133.0373  158.0050 C   0  0  0  0  0  0  0  0  0  0  0  0
  149.3343  134.3315  158.1387 N   0  0  0  0  0  0  0  0  0  0  0  0
  149.5617  134.9142  156.9273 C   0  0  0  0  0  0  0  0  0  0  0  0
  149.5219  134.2678  155.6588 C   0  0  0  0  0  0  0  0  0  0  0  0
  149.7993  135.1886  154.6537 N   0  0  0  0  0  0  0  0  0  0  0  0
  150.0051  136.3082  155.2911 C   0  0  0  0  0  0  0  0  0  0  0  0
  149.8637  136.2380  156.6584 N   0  0  0  0  0  0  0  0  0  0  0  0
  150.0369  137.3260  157.6044 C   0  0  0  0  0  0  0  0  0  0  0  0
  151.4265  138.0146  157.5566 C   0  0  1  0  0  0  0  0  0  0  0  0
  152.4791  136.9984  157.0559 C   0  0  0  0  0  0  0  0  0  0  0  0
  152.7716  136.0247  158.0377 O   0  0  0  0  0  0  0  0  0  0  0  0
  151.4585  139.3488  156.7543 C   0  0  2  0  0  0  0  0  0  0  0  0
  150.4883  140.4102  157.2502 C   0  0  0  0  0  0  0  0  0  0  0  0
  150.4107  141.3549  156.0604 C   0  0  0  0  0  0  0  0  0  0  0  0
  150.4321  140.4981  154.9294 O   0  0  0  0  0  0  0  0  0  0  0  0
  151.0364  139.2559  155.2783 C   0  0  0  0  0  0  0  0  0  0  0  0
  147.5237  130.9761  153.0251 C   0  0  0  0  0  0  0  0  0  0  0  0
  146.3078  131.1894  152.0970 C   0  0  2  0  0  0  0  0  0  0  0  0
  145.8768  129.8204  151.5304 C   0  0  0  0  0  0  0  0  0  0  0  0
  143.4641  133.1766  149.9791 H   0  0  0  0  0  0  0  0  0  0  0  0
  144.3556  133.7352  151.3880 H   0  0  0  0  0  0  0  0  0  0  0  0
  143.7224  132.0867  151.3214 H   0  0  0  0  0  0  0  0  0  0  0  0
  145.3302  131.5165  149.4821 H   0  0  0  0  0  0  0  0  0  0  0  0
  145.7562  133.2058  149.3618 H   0  0  0  0  0  0  0  0  0  0  0  0
  147.3856  134.1845  150.8341 H   0  0  0  0  0  0  0  0  0  0  0  0
  146.2935  133.9556  152.1819 H   0  0  0  0  0  0  0  0  0  0  0  0
  149.1640  132.9296  151.9231 H   0  0  0  0  0  0  0  0  0  0  0  0
  148.6297  134.2441  152.9464 H   0  0  0  0  0  0  0  0  0  0  0  0
  147.1637  132.7259  154.1936 H   0  0  0  0  0  0  0  0  0  0  0  0
  150.7648  130.8572  155.0284 H   0  0  0  0  0  0  0  0  0  0  0  0
  151.0526  132.0043  153.7127 H   0  0  0  0  0  0  0  0  0  0  0  0
  150.0620  130.5710  153.4413 H   0  0  0  0  0  0  0  0  0  0  0  0
  148.8379  132.5065  158.9236 H   0  0  0  0  0  0  0  0  0  0  0  0
  150.2522  137.2256  154.7765 H   0  0  0  0  0  0  0  0  0  0  0  0
  149.2532  138.0564  157.4001 H   0  0  0  0  0  0  0  0  0  0  0  0
  149.8428  136.9438  158.6074 H   0  0  0  0  0  0  0  0  0  0  0  0
  151.7107  138.2501  158.5826 H   0  0  0  0  0  0  0  0  0  0  0  0
  152.1422  136.4955  156.1497 H   0  0  0  0  0  0  0  0  0  0  0  0
  153.4039  137.5112  156.7893 H   0  0  0  0  0  0  0  0  0  0  0  0
  153.6521  136.1672  158.3503 H   0  0  0  0  0  0  0  0  0  0  0  0
  152.4645  139.7698  156.7981 H   0  0  0  0  0  0  0  0  0  0  0  0
  149.5074  139.9732  157.4441 H   0  0  0  0  0  0  0  0  0  0  0  0
  150.8259  140.9136  158.1566 H   0  0  0  0  0  0  0  0  0  0  0  0
  149.5183  141.9810  156.0740 H   0  0  0  0  0  0  0  0  0  0  0  0
  151.2862  142.0049  156.0305 H   0  0  0  0  0  0  0  0  0  0  0  0
  151.8824  139.0584  154.6214 H   0  0  0  0  0  0  0  0  0  0  0  0
  150.2972  138.4690  155.1251 H   0  0  0  0  0  0  0  0  0  0  0  0
  148.3310  130.5073  152.4614 H   0  0  0  0  0  0  0  0  0  0  0  0
  147.2614  130.2799  153.8230 H   0  0  0  0  0  0  0  0  0  0  0  0
  145.4858  131.5779  152.7007 H   0  0  0  0  0  0  0  0  0  0  0  0
  145.8234  129.0714  152.3211 H   0  0  0  0  0  0  0  0  0  0  0  0
  146.5837  129.4573  150.7838 H   0  0  0  0  0  0  0  0  0  0  0  0
  144.8855  129.8498  151.0796 H   0  0  0  0  0  0  0  0  0  0  0  0
  147.3830  131.8202  150.4967 H   0  0  0  0  0  0  0  0  0  0  0  0
  1  2  1  0  0  0  0
  1 30  1  0  0  0  0
  1 31  1  0  0  0  0
  1 32  1  0  0  0  0
  2  3  1  0  0  0  0
  2 33  1  0  0  0  0
  2 34  1  0  0  0  0
  3 28  1  0  0  0  0
  3  4  1  0  0  0  0
  3 64  1  0  0  0  0
  4  5  1  0  0  0  0
  4 35  1  0  0  0  0
  4 36  1  0  0  0  0
  5  6  1  0  0  0  0
  5 37  1  0  0  0  0
  5 38  1  0  0  0  0
  6  7  1  0  0  0  0
  6 27  1  0  0  0  0
  6 39  1  0  0  0  0
  7  8  1  0  0  0  0
  7  9  1  0  0  0  0
  8 40  1  0  0  0  0
  8 41  1  0  0  0  0
  8 42  1  0  0  0  0
  9 14  1  0  0  0  0
  9 10  2  0  0  0  0
 10 11  1  0  0  0  0
 11 12  2  0  0  0  0
 11 43  1  0  0  0  0
 12 13  1  0  0  0  0
 13 17  1  0  0  0  0
 13 14  2  0  0  0  0
 14 15  1  0  0  0  0
 15 16  2  0  0  0  0
 16 17  1  0  0  0  0
 16 44  1  0  0  0  0
 17 18  1  0  0  0  0
 18 19  1  0  0  0  0
 18 45  1  0  0  0  0
 18 46  1  0  0  0  0
 19 20  1  0  0  0  0
 19 22  1  0  0  0  0
 19 47  1  0  0  0  0
 20 21  1  0  0  0  0
 20 48  1  0  0  0  0
 20 49  1  0  0  0  0
 21 50  1  0  0  0  0
 22 26  1  0  0  0  0
 22 23  1  0  0  0  0
 22 51  1  0  0  0  0
 23 24  1  0  0  0  0
 23 52  1  0  0  0  0
 23 53  1  0  0  0  0
 24 25  1  0  0  0  0
 24 54  1  0  0  0  0
 24 55  1  0  0  0  0
 25 26  1  0  0  0  0
 26 56  1  0  0  0  0
 26 57  1  0  0  0  0
 27 28  1  0  0  0  0
 27 58  1  0  0  0  0
 27 59  1  0  0  0  0
 28 29  1  0  0  0  0
 28 60  1  0  0  0  0
 29 61  1  0  0  0  0
 29 62  1  0  0  0  0
 29 63  1  0  0  0  0
M  CHG  1   3   1
M  END
> <s_m_source_file>
AV-unprocessed.smi

> <i_m_source_file_index>
249

> <i_lp_mmshare_version>
43012

> <i_f3d_flags>
0

> <s_epik_input>
W0NIM11bQ0gyXU4xW0NIMl1bQ0gyXVtDQEhdKFtDSDJdW0NASF0xW0NIM10pTihbQ0gzXSljKG5bY0hdbjIpYyhjMjMpbltjSF1uM1tDSDJdW0NASF0oW0NIMl1bT0hdKVtDQEBIXTRbQ0gyXVtDSDJdT1tDSDJdNA==

> <s_epik_cmdline>
J2VwaWtfcHl0aG9uJywgJy1waCcsICc3LjAnLCAnLXRuJywgJzgnLCAnLW1hJywgJzIwMCcsICctbWV0YWxfYmluZGluZycsICctaW1hZScsICc8aW5maWxlLm1hZT4nLCAnLW9tYWUnLCAnPG91dGZpbGUubWFlPic=

> <r_lp_tautomer_probability>
1

> <r_epik_Ionization_Penalty>
0.00294688

> <r_epik_Ionization_Penalty_Charging>
0.00169971

> <r_epik_Ionization_Penalty_Neutral>
0.00124717

> <r_epik_State_Penalty>
-0

> <r_epik_Charging_Adjusted_Penalty>
0.00169971

> <i_epik_Tot_Q>
1

> <i_epik_Tot_abs_Q>
1

> <r_epik_Metal_State_Penalty>
-0

> <b_epik_Metal_Only>
0

> <s_lp_Force_Field>
OPLS_2005

> <r_lp_Energy>
53.8216

> <b_lp_Chiralities_Consistent>
1

> <s_lp_Variant>
AV-unprocessed.smi:249-24

> <Gold.Version>
5.8.1

> <Gold.Id.Protein>
6NUR|6NUR_protein|mol2

> <Gold.PLP.Fitness>
49.7340

> <Gold.PLP.PLP>
-45.1433

> <Gold.PLP.part.hbond>
-4.0000

> <Gold.PLP.part.metal>
0.0000

> <Gold.PLP.part.buried>
-7.5095

> <Gold.PLP.part.nonpolar>
-34.0625

> <Gold.PLP.part.repulsive>
0.2584

> <Gold.PLP.ligand.clash>
0.0000

> <Gold.PLP.ligand.torsion>
2.5556

> <Gold.PLP.Chemscore.Hbond>
3.0790

> <Gold.PLP.Chemscore.CHOScore>
0.0000

> <Gold.PLP.Chemscore.Metal>
0.0000

> <Gold.Chemscore.Hbonds>
donor molecule, donor type, donor heavy atom, donor atom, acceptor molecule, acceptor atom, score
      L1  H     3    64       P1 10747  1.00
      P1  H  6896  6908       L1    12  0.70
      P1  H  6896  6909       L1    21  0.05
      P1  H  7989  7998       L1    25  0.80

> <Gold.PLP.Chemscore.Internal.Correction>
0.4649

> <Gold.Rescore>
     Score         DG    S(hbond)    S(metal)    S(lipo)     H(rot)  DE(clash)    DE(int)     intcor
     14.42     -17.26       1.90        0.00     104.45       2.65       0.04       2.80       ----

> <Gold.Chemscore.Fitness>
14.4184

> <Gold.Chemscore.DG>
-17.2622

> <Gold.Chemscore.ZeroCoef>
-5.4800

> <Gold.Chemscore.Hbond>
1.9012

> <Gold.Chemscore.Metal>
0.0000

> <Gold.Chemscore.Lipo>
104.4454

> <Gold.Chemscore.Internal_Hbond>
0.0000

> <Gold.Chemscore.DEClash>
0.0436

> <Gold.Chemscore.DEInternal>
2.8003

> <Gold.Chemscore.Rot>
2.6515

> <Gold.Chemscore.Internal.Correction>
   9.000000E+99

> <Gold.Chemscore.Hbonds>
donor molecule, donor type, donor heavy atom, donor atom, acceptor molecule, acceptor atom, score
      L1  H     3    64       P1 10747  0.98
      P1  H  6896  6908       L1    12  0.07
      P1  H  6896  6909       L1    21  0.01
      P1  H  7989  7998       L1    25  0.11

> <Gold.Chemscore.Hbond.Weighted>
-6.3501

> <Gold.Chemscore.Metal.Weighted>
-0.0000

> <Gold.Chemscore.Lipo.Weighted>
-12.2201

> <Gold.Chemscore.Internal_Hbond.Weighted>
0.0000

> <Gold.Chemscore.DEClash.Weighted>
0.0436

> <Gold.Chemscore.DEInternal.Weighted>
2.8003

> <Gold.Chemscore.Rot.Weighted>
6.7880

> <Gold.Chemscore.Internal.Correction.Weighted>
   9.000000E+99

> <Gold.Protein.RotatedTorsions>
[ 6907 6896 6895 6894 ] final  135.03 input  -60.11 | X-H torsion
[ 7974 7965 7964 7962 ] final -155.12 input  175.53 | X-H torsion
[ 8008 7997 7996 7995 ] final   99.06 input   59.86 | X-H torsion
[ 10167 10162 10161 10158 ] final   55.46 input  -65.29 | X-H torsion
[ 10718 10713 10712 10709 ] final   78.01 input   66.30 | X-H torsion
[ 10763 10752 10751 10750 ] final -133.31 input  -60.55 | X-H torsion
[ 11005 11000 10999 10996 ] final  -69.08 input  -57.11 | X-H torsion

> <Gold.Protein.ActiveResidues>
 VAL166  LYS551  ARG553  GLY616  TRP617  ASP618  TYR619  PRO620  LYS621  CYS622 
 ASP623  PHE694  ASN695  SER759  ASP760  ASP761  ALA762  ILE779  LEU786  VAL792 
 PHE793  MET794  SER795  GLU796  ALA797  LYS798  CYS799  TRP800  GLU811  SER814 

> <Gold.Protein.RotatedAtoms>
  152.3049  133.5693  159.5642 H   0  0  0  0  0  0  0  0  0  0  0  0  # atno 6907 bound_to 6896
  150.7295  134.0237  159.3719 H   0  0  0  0  0  0  0  0  0  0  0  0  # atno 6908 bound_to 6896
  151.8134  135.0674  160.0467 H   0  0  0  0  0  0  0  0  0  0  0  0  # atno 6909 bound_to 6896
  144.7655  140.4293  143.5945 H   0  0  0  0  0  0  0  0  0  0  0  0  # atno 7974 bound_to 7965
  156.1067  140.3234  155.8015 H   0  0  0  0  0  0  0  0  0  0  0  0  # atno 8008 bound_to 7997
  155.4744  140.0549  157.2992 H   0  0  0  0  0  0  0  0  0  0  0  0  # atno 8009 bound_to 7997
  154.4732  140.2021  155.9957 H   0  0  0  0  0  0  0  0  0  0  0  0  # atno 8010 bound_to 7997
  140.2192  144.3807  150.6457 H   0  0  0  0  0  0  0  0  0  0  0  0  # atno 10167 bound_to 10162
  157.6730  130.9848  150.1724 H   0  0  0  0  0  0  0  0  0  0  0  0  # atno 10718 bound_to 10713
  154.8734  135.3770  154.4552 H   0  0  0  0  0  0  0  0  0  0  0  0  # atno 10763 bound_to 10752
  153.5225  135.7028  153.5729 H   0  0  0  0  0  0  0  0  0  0  0  0  # atno 10764 bound_to 10752
  153.3970  135.3958  155.1927 H   0  0  0  0  0  0  0  0  0  0  0  0  # atno 10765 bound_to 10752
  141.1546  133.6756  156.6545 H   0  0  0  0  0  0  0  0  0  0  0  0  # atno 11005 bound_to 11000
  145.6482  139.1560  143.2877 LP  0  0  0  0  0  0  0  0  0  0  0  0  # atno 17320 bound_to 7965
  146.1759  140.6573  142.9211 LP  0  0  0  0  0  0  0  0  0  0  0  0  # atno 17321 bound_to 7965
  140.6268  143.2182  151.6580 LP  0  0  0  0  0  0  0  0  0  0  0  0  # atno 17342 bound_to 10162
  139.5151  144.3390  152.0757 LP  0  0  0  0  0  0  0  0  0  0  0  0  # atno 17343 bound_to 10162
  156.2475  130.3697  149.8269 LP  0  0  0  0  0  0  0  0  0  0  0  0  # atno 17370 bound_to 10713
  156.6051  130.8563  151.3441 LP  0  0  0  0  0  0  0  0  0  0  0  0  # atno 17371 bound_to 10713
  140.3295  134.7941  157.4315 LP  0  0  0  0  0  0  0  0  0  0  0  0  # atno 17394 bound_to 11000
  140.1029  134.5449  155.8336 LP  0  0  0  0  0  0  0  0  0  0  0  0  # atno 17395 bound_to 11000

$$$$
