AV-unprocessed.smi:2763|AV-procd|sdf|10639|dock7
  -GOLD-   2272015 93D 1   1.00000     0.00000
 Structure written by MMmdl.
 37 38  0  0  0  0  0  0  0  0  1 V2000
  151.1135  141.0671  157.6643 O   0  0  0  0  0  0  0  0  0  0  0  0
  150.8332  142.2541  157.4953 C   0  0  0  0  0  0  0  0  0  0  0  0
  150.2316  142.7256  156.3937 N   0  0  0  0  0  0  0  0  0  0  0  0
  149.8214  141.9252  155.2453 C   0  0  0  0  0  0  0  0  0  0  0  0
  149.2218  140.5886  155.7077 C   0  0  0  0  0  0  0  0  0  0  0  0
  150.2235  139.4243  155.6379 C   0  0  1  0  0  0  0  0  0  0  0  0
  149.6818  138.2480  154.8018 C   0  0  0  0  0  0  0  0  0  0  0  0
  150.7325  137.1377  154.6847 C   0  0  0  0  0  0  0  0  0  0  0  0
  152.0503  137.7244  154.1676 C   0  0  0  0  0  0  0  0  0  0  0  0
  152.4730  138.9260  155.0272 C   0  0  0  0  0  0  0  0  0  0  0  0
  151.4318  139.8977  155.0456 O   0  0  0  0  0  0  0  0  0  0  0  0
  151.0772  143.2423  158.3742 N   0  0  0  0  0  0  0  0  0  0  0  0
  151.7086  143.1541  159.6438 C   0  0  0  0  0  0  0  0  0  0  0  0
  152.5519  142.0327  159.8154 C   0  0  0  0  0  0  0  0  0  0  0  0
  153.2239  141.8513  161.0402 C   0  0  0  0  0  0  0  0  0  0  0  0
  153.0324  142.7975  162.0624 C   0  0  0  0  0  0  0  0  0  0  0  0
  153.6563  142.6649  163.2568 F   0  0  0  0  0  0  0  0  0  0  0  0
  152.1758  143.8854  161.8116 C   0  0  0  0  0  0  0  0  0  0  0  0
  151.5319  144.0606  160.6380 N   0  0  0  0  0  0  0  0  0  0  0  0
  150.0396  143.7154  156.3461 H   0  0  0  0  0  0  0  0  0  0  0  0
  149.0944  142.4606  154.6324 H   0  0  0  0  0  0  0  0  0  0  0  0
  150.6957  141.7494  154.6177 H   0  0  0  0  0  0  0  0  0  0  0  0
  148.8695  140.6932  156.7348 H   0  0  0  0  0  0  0  0  0  0  0  0
  148.3442  140.3521  155.1043 H   0  0  0  0  0  0  0  0  0  0  0  0
  150.4317  139.0802  156.6527 H   0  0  0  0  0  0  0  0  0  0  0  0
  148.7713  137.8504  155.2513 H   0  0  0  0  0  0  0  0  0  0  0  0
  149.4113  138.5987  153.8049 H   0  0  0  0  0  0  0  0  0  0  0  0
  150.8926  136.6790  155.6613 H   0  0  0  0  0  0  0  0  0  0  0  0
  150.3806  136.3480  154.0204 H   0  0  0  0  0  0  0  0  0  0  0  0
  152.8305  136.9628  154.1716 H   0  0  0  0  0  0  0  0  0  0  0  0
  151.9288  138.0439  153.1318 H   0  0  0  0  0  0  0  0  0  0  0  0
  152.7117  138.6130  156.0449 H   0  0  0  0  0  0  0  0  0  0  0  0
  153.3735  139.3827  154.6159 H   0  0  0  0  0  0  0  0  0  0  0  0
  150.7774  144.1668  158.1025 H   0  0  0  0  0  0  0  0  0  0  0  0
  152.6861  141.3153  159.0187 H   0  0  0  0  0  0  0  0  0  0  0  0
  153.8729  141.0015  161.1912 H   0  0  0  0  0  0  0  0  0  0  0  0
  152.0023  144.6335  162.5709 H   0  0  0  0  0  0  0  0  0  0  0  0
  1  2  2  0  0  0  0
  2  3  1  0  0  0  0
  2 12  1  0  0  0  0
  3  4  1  0  0  0  0
  3 20  1  0  0  0  0
  4  5  1  0  0  0  0
  4 21  1  0  0  0  0
  4 22  1  0  0  0  0
  5  6  1  0  0  0  0
  5 23  1  0  0  0  0
  5 24  1  0  0  0  0
  6 11  1  0  0  0  0
  6  7  1  0  0  0  0
  6 25  1  0  0  0  0
  7  8  1  0  0  0  0
  7 26  1  0  0  0  0
  7 27  1  0  0  0  0
  8  9  1  0  0  0  0
  8 28  1  0  0  0  0
  8 29  1  0  0  0  0
  9 10  1  0  0  0  0
  9 30  1  0  0  0  0
  9 31  1  0  0  0  0
 10 11  1  0  0  0  0
 10 32  1  0  0  0  0
 10 33  1  0  0  0  0
 12 13  1  0  0  0  0
 12 34  1  0  0  0  0
 13 19  1  0  0  0  0
 13 14  2  0  0  0  0
 14 15  1  0  0  0  0
 14 35  1  0  0  0  0
 15 16  2  0  0  0  0
 15 36  1  0  0  0  0
 16 17  1  0  0  0  0
 16 18  1  0  0  0  0
 18 19  2  0  0  0  0
 18 37  1  0  0  0  0
M  END
> <s_m_source_file>
AV-unprocessed.smi

> <i_m_source_file_index>
2763

> <i_lp_mmshare_version>
43012

> <i_f3d_flags>
0

> <s_epik_input>
bjFbY0hdYyhGKVtjSF1bY0hdYzFbTkhdQyg9TylbTkhdW0NIMl1bQ0gyXVtDQEBIXTJbQ0gyXVtDSDJdW0NIMl1bQ0gyXU8y

> <s_epik_cmdline>
J2VwaWtfcHl0aG9uJywgJy1waCcsICc3LjAnLCAnLXRuJywgJzgnLCAnLW1hJywgJzIwMCcsICctbWV0YWxfYmluZGluZycsICctaW1hZScsICc8aW5maWxlLm1hZT4nLCAnLW9tYWUnLCAnPG91dGZpbGUubWFlPic=

> <r_lp_tautomer_probability>
1

> <r_epik_Ionization_Penalty>
3.67849e-05

> <r_epik_Ionization_Penalty_Charging>
0

> <r_epik_Ionization_Penalty_Neutral>
3.67849e-05

> <r_epik_State_Penalty>
-0

> <r_epik_Charging_Adjusted_Penalty>
0

> <i_epik_Tot_Q>
0

> <i_epik_Tot_abs_Q>
0

> <r_epik_Metal_State_Penalty>
-0

> <b_epik_Metal_Only>
0

> <s_lp_Force_Field>
OPLS_2005

> <r_lp_Energy>
13.3257

> <b_lp_Chiralities_Consistent>
1

> <s_lp_Variant>
AV-unprocessed.smi:2763-2

> <Gold.Version>
5.8.1

> <Gold.Id.Protein>
6NUR|6NUR_protein|mol2

> <Gold.PLP.Fitness>
44.4949

> <Gold.PLP.PLP>
-41.5979

> <Gold.PLP.part.hbond>
-1.8981

> <Gold.PLP.part.metal>
0.0000

> <Gold.PLP.part.buried>
-4.0519

> <Gold.PLP.part.nonpolar>
-36.7023

> <Gold.PLP.part.repulsive>
0.2974

> <Gold.PLP.ligand.clash>
0.0000

> <Gold.PLP.ligand.torsion>
1.2561

> <Gold.PLP.Chemscore.Hbond>
1.8000

> <Gold.PLP.Chemscore.CHOScore>
0.0000

> <Gold.PLP.Chemscore.Metal>
0.0000

> <Gold.Chemscore.Hbonds>
donor molecule, donor type, donor heavy atom, donor atom, acceptor molecule, acceptor atom, score
      L1  H     3    20       P1  8028  0.77
      P1  H  7989  7998       L1    11  1.00

> <Gold.PLP.Chemscore.Internal.Correction>
0.0093

> <Gold.Rescore>
     Score         DG    S(hbond)    S(metal)    S(lipo)     H(rot)  DE(clash)    DE(int)     intcor
     10.68     -19.15       1.87        0.00      97.13       1.54       1.66       6.81       ----

> <Gold.Chemscore.Fitness>
10.6828

> <Gold.Chemscore.DG>
-19.1525

> <Gold.Chemscore.ZeroCoef>
-5.4800

> <Gold.Chemscore.Hbond>
1.8703

> <Gold.Chemscore.Metal>
0.0000

> <Gold.Chemscore.Lipo>
97.1287

> <Gold.Chemscore.Internal_Hbond>
0.0000

> <Gold.Chemscore.DEClash>
1.6561

> <Gold.Chemscore.DEInternal>
6.8137

> <Gold.Chemscore.Rot>
1.5384

> <Gold.Chemscore.Internal.Correction>
   9.000000E+99

> <Gold.Chemscore.Hbonds>
donor molecule, donor type, donor heavy atom, donor atom, acceptor molecule, acceptor atom, score
      L1  H     3    20       P1  8028  0.78
      P1  H  7989  7998       L1    11  0.50

> <Gold.Chemscore.Hbond.Weighted>
-6.2466

> <Gold.Chemscore.Metal.Weighted>
-0.0000

> <Gold.Chemscore.Lipo.Weighted>
-11.3641

> <Gold.Chemscore.Internal_Hbond.Weighted>
0.0000

> <Gold.Chemscore.DEClash.Weighted>
1.6561

> <Gold.Chemscore.DEInternal.Weighted>
6.8137

> <Gold.Chemscore.Rot.Weighted>
3.9382

> <Gold.Chemscore.Internal.Correction.Weighted>
   9.000000E+99

> <Gold.Protein.RotatedTorsions>
[ 6907 6896 6895 6894 ] final -111.56 input  -60.11 | X-H torsion
[ 7974 7965 7964 7962 ] final   40.70 input  175.53 | X-H torsion
[ 8008 7997 7996 7995 ] final   57.74 input   59.86 | X-H torsion
[ 10167 10162 10161 10158 ] final  -35.94 input  -65.29 | X-H torsion
[ 10718 10713 10712 10709 ] final   56.86 input   66.30 | X-H torsion
[ 10763 10752 10751 10750 ] final  -35.28 input  -60.55 | X-H torsion
[ 11005 11000 10999 10996 ] final  -12.34 input  -57.11 | X-H torsion

> <Gold.Protein.ActiveResidues>
 VAL166  LYS551  ARG553  GLY616  TRP617  ASP618  TYR619  PRO620  LYS621  CYS622 
 ASP623  PHE694  ASN695  SER759  ASP760  ASP761  ALA762  ILE779  LEU786  VAL792 
 PHE793  MET794  SER795  GLU796  ALA797  LYS798  CYS799  TRP800  GLU811  SER814 

> <Gold.Protein.RotatedAtoms>
  150.7699  133.9217  159.3399 H   0  0  0  0  0  0  0  0  0  0  0  0  # atno 6907 bound_to 6896
  151.7106  135.0911  160.0276 H   0  0  0  0  0  0  0  0  0  0  0  0  # atno 6908 bound_to 6896
  152.3711  133.6383  159.6124 H   0  0  0  0  0  0  0  0  0  0  0  0  # atno 6909 bound_to 6896
  146.0884  139.5502  142.9492 H   0  0  0  0  0  0  0  0  0  0  0  0  # atno 7974 bound_to 7965
  155.5387  140.3484  155.4442 H   0  0  0  0  0  0  0  0  0  0  0  0  # atno 8008 bound_to 7997
  156.0667  140.1353  156.9904 H   0  0  0  0  0  0  0  0  0  0  0  0  # atno 8009 bound_to 7997
  154.4507  140.0974  156.6582 H   0  0  0  0  0  0  0  0  0  0  0  0  # atno 8010 bound_to 7997
  140.7154  143.3443  151.2290 H   0  0  0  0  0  0  0  0  0  0  0  0  # atno 10167 bound_to 10162
  157.5466  130.8735  149.8901 H   0  0  0  0  0  0  0  0  0  0  0  0  # atno 10718 bound_to 10713
  153.8605  135.6840  153.4783 H   0  0  0  0  0  0  0  0  0  0  0  0  # atno 10763 bound_to 10752
  153.1344  135.4684  154.9398 H   0  0  0  0  0  0  0  0  0  0  0  0  # atno 10764 bound_to 10752
  154.7761  135.3253  154.8039 H   0  0  0  0  0  0  0  0  0  0  0  0  # atno 10765 bound_to 10752
  140.7647  133.8486  155.9155 H   0  0  0  0  0  0  0  0  0  0  0  0  # atno 11005 bound_to 11000
  145.6087  141.0343  143.1979 LP  0  0  0  0  0  0  0  0  0  0  0  0  # atno 17320 bound_to 7965
  144.7342  139.7635  143.7335 LP  0  0  0  0  0  0  0  0  0  0  0  0  # atno 17321 bound_to 7965
  139.6958  143.9615  152.2882 LP  0  0  0  0  0  0  0  0  0  0  0  0  # atno 17342 bound_to 10162
  139.9292  144.6752  150.8381 LP  0  0  0  0  0  0  0  0  0  0  0  0  # atno 17343 bound_to 10162
  156.0541  130.3712  150.1132 LP  0  0  0  0  0  0  0  0  0  0  0  0  # atno 17370 bound_to 10713
  156.9308  130.9713  151.3533 LP  0  0  0  0  0  0  0  0  0  0  0  0  # atno 17371 bound_to 10713
  140.9630  134.1631  157.4639 LP  0  0  0  0  0  0  0  0  0  0  0  0  # atno 17394 bound_to 11000
  139.8765  134.9951  156.5729 LP  0  0  0  0  0  0  0  0  0  0  0  0  # atno 17395 bound_to 11000

$$$$
