AV-unprocessed.smi:994|AV-procd|sdf|4340|dock3
  -GOLD-   22720 2243D 1   1.00000     0.00000
 Structure written by MMmdl.
 38 39  0  0  0  0  0  0  0  0  3 V2000
  151.6203  139.7793  158.8619 O   0  0  0  0  0  0  0  0  0  0  0  0
  151.7849  140.5967  157.9559 C   0  0  0  0  0  0  0  0  0  0  0  0
  151.5861  140.3110  156.6598 N   0  0  0  0  0  0  0  0  0  0  0  0
  151.2079  139.0026  156.1248 C   0  0  1  0  0  0  0  0  0  0  0  0
  150.9896  139.1240  154.6011 C   0  0  0  0  0  0  0  0  0  0  0  0
  149.5992  139.5429  154.1819 C   0  0  0  0  0  0  0  0  0  0  0  0
  148.8920  140.7154  154.3862 C   0  0  0  0  0  0  0  0  0  0  0  0
  147.6515  140.5634  153.7894 N   0  0  0  0  0  0  0  0  0  0  0  0
  147.6278  139.3424  153.2594 C   0  0  0  0  0  0  0  0  0  0  0  0
  148.7700  138.6904  153.4691 N   0  3  0  0  0  0  0  0  0  0  0  0
  152.3492  138.0072  156.3742 C   0  0  0  0  0  0  0  0  0  0  0  0
  153.3696  138.4483  156.9456 O   0  0  0  0  0  0  0  0  0  0  0  0
  152.1810  136.8242  156.0013 O   0  5  0  0  0  0  0  0  0  0  0  0
  152.2222  142.0316  158.2782 C   0  0  0  0  0  0  0  0  0  0  0  0
  152.2761  142.2664  159.8032 C   0  0  0  0  0  0  0  0  0  0  0  0
  152.6902  143.7099  160.1343 C   0  0  0  0  0  0  0  0  0  0  0  0
  151.7567  144.7266  159.4580 C   0  0  0  0  0  0  0  0  0  0  0  0
  151.6941  144.4985  157.9394 C   0  0  0  0  0  0  0  0  0  0  0  0
  151.2797  143.0551  157.6094 C   0  0  0  0  0  0  0  0  0  0  0  0
  146.9077  141.2466  153.7650 H   0  0  0  0  0  0  0  0  0  0  0  0
  151.7657  141.0385  155.9833 H   0  0  0  0  0  0  0  0  0  0  0  0
  150.2958  138.6301  156.5957 H   0  0  0  0  0  0  0  0  0  0  0  0
  151.6991  139.8340  154.1722 H   0  0  0  0  0  0  0  0  0  0  0  0
  151.1909  138.1637  154.1238 H   0  0  0  0  0  0  0  0  0  0  0  0
  149.1550  141.6324  154.8933 H   0  0  0  0  0  0  0  0  0  0  0  0
  146.7848  138.9300  152.7243 H   0  0  0  0  0  0  0  0  0  0  0  0
  153.2266  142.1825  157.8777 H   0  0  0  0  0  0  0  0  0  0  0  0
  151.3024  142.0621  160.2516 H   0  0  0  0  0  0  0  0  0  0  0  0
  152.9788  141.5717  160.2654 H   0  0  0  0  0  0  0  0  0  0  0  0
  152.6821  143.8599  161.2141 H   0  0  0  0  0  0  0  0  0  0  0  0
  153.7162  143.8804  159.8061 H   0  0  0  0  0  0  0  0  0  0  0  0
  150.7552  144.6408  159.8818 H   0  0  0  0  0  0  0  0  0  0  0  0
  152.0959  145.7412  159.6684 H   0  0  0  0  0  0  0  0  0  0  0  0
  150.9920  145.1995  157.4870 H   0  0  0  0  0  0  0  0  0  0  0  0
  152.6694  144.7085  157.4980 H   0  0  0  0  0  0  0  0  0  0  0  0
  151.2808  142.9149  156.5276 H   0  0  0  0  0  0  0  0  0  0  0  0
  150.2523  142.8932  157.9398 H   0  0  0  0  0  0  0  0  0  0  0  0
  148.9926  137.7526  153.1659 H   0  0  0  0  0  0  0  0  0  0  0  0
  1  2  2  0  0  0  0
  2  3  1  0  0  0  0
  2 14  1  0  0  0  0
  3  4  1  0  0  0  0
  3 21  1  0  0  0  0
  4  5  1  0  0  0  0
  4 11  1  0  0  0  0
  4 22  1  0  0  0  0
  5  6  1  0  0  0  0
  5 23  1  0  0  0  0
  5 24  1  0  0  0  0
  6 10  1  0  0  0  0
  6  7  2  0  0  0  0
  7  8  1  0  0  0  0
  7 25  1  0  0  0  0
  8 20  1  0  0  0  0
  8  9  1  0  0  0  0
  9 10  2  0  0  0  0
  9 26  1  0  0  0  0
 10 38  1  0  0  0  0
 11 12  2  0  0  0  0
 11 13  1  0  0  0  0
 14 19  1  0  0  0  0
 14 15  1  0  0  0  0
 14 27  1  0  0  0  0
 15 16  1  0  0  0  0
 15 28  1  0  0  0  0
 15 29  1  0  0  0  0
 16 17  1  0  0  0  0
 16 30  1  0  0  0  0
 16 31  1  0  0  0  0
 17 18  1  0  0  0  0
 17 32  1  0  0  0  0
 17 33  1  0  0  0  0
 18 19  1  0  0  0  0
 18 34  1  0  0  0  0
 18 35  1  0  0  0  0
 19 36  1  0  0  0  0
 19 37  1  0  0  0  0
M  CHG  1  10   1
M  CHG  1  13  -1
M  END
> <s_m_source_file>
AV-unprocessed.smi

> <i_m_source_file_index>
994

> <i_lp_mmshare_version>
43012

> <i_f3d_flags>
0

> <s_epik_input>
W0NIMl0xW0NIMl1bQ0gyXVtDSDJdW0NIMl1bQ0hdMUMoPU8pW05IXVtDQEBIXShDKD1PKVtPSF0pW0NIMl1jMltjSF1bbkhdW2NIXW4y

> <s_epik_cmdline>
J2VwaWtfcHl0aG9uJywgJy1waCcsICc3LjAnLCAnLXRuJywgJzgnLCAnLW1hJywgJzIwMCcsICctbWV0YWxfYmluZGluZycsICctaW1hZScsICc8aW5maWxlLm1hZT4nLCAnLW9tYWUnLCAnPG91dGZpbGUubWFlPic=

> <r_lp_tautomer_probability>
1

> <r_epik_Ionization_Penalty>
0.469853

> <r_epik_Ionization_Penalty_Charging>
5.5863e-05

> <r_epik_Ionization_Penalty_Neutral>
0.469797

> <r_epik_State_Penalty>
0.377582

> <r_epik_Charging_Adjusted_Penalty>
0.377638

> <i_epik_Tot_Q>
0

> <i_epik_Tot_abs_Q>
2

> <r_epik_Metal_State_Penalty>
0.796804

> <b_epik_Metal_Only>
0

> <s_lp_Force_Field>
OPLS_2005

> <r_lp_Energy>
8.41083

> <b_lp_Chiralities_Consistent>
1

> <s_lp_Variant>
AV-unprocessed.smi:994-2

> <Gold.Version>
5.8.1

> <Gold.Id.Protein>
6NUR|6NUR_protein|mol2

> <Gold.PLP.Fitness>
55.6855

> <Gold.PLP.PLP>
-38.6888

> <Gold.PLP.part.hbond>
-4.0000

> <Gold.PLP.part.metal>
0.0000

> <Gold.PLP.part.buried>
-2.8492

> <Gold.PLP.part.nonpolar>
-31.6490

> <Gold.PLP.part.repulsive>
0.2550

> <Gold.PLP.ligand.clash>
0.0000

> <Gold.PLP.ligand.torsion>
0.4561

> <Gold.PLP.Chemscore.Hbond>
5.9520

> <Gold.PLP.Chemscore.CHOScore>
0.0000

> <Gold.PLP.Chemscore.Metal>
0.0000

> <Gold.Chemscore.Hbonds>
donor molecule, donor type, donor heavy atom, donor atom, acceptor molecule, acceptor atom, score
      L1  H    10    38       P1  7948  2.00
      P1  H  7997  8009       L1    12  1.95
      P1  H 10752 10764       L1    13  2.00

> <Gold.PLP.Chemscore.Internal.Correction>
0.0530

> <Gold.Rescore>
     Score         DG    S(hbond)    S(metal)    S(lipo)     H(rot)  DE(clash)    DE(int)     intcor
     17.14     -19.05       2.80        0.00      95.46       2.72       0.16       1.75       ----

> <Gold.Chemscore.Fitness>
17.1373

> <Gold.Chemscore.DG>
-19.0469

> <Gold.Chemscore.ZeroCoef>
-5.4800

> <Gold.Chemscore.Hbond>
2.8034

> <Gold.Chemscore.Metal>
0.0000

> <Gold.Chemscore.Lipo>
95.4605

> <Gold.Chemscore.Internal_Hbond>
0.0000

> <Gold.Chemscore.DEClash>
0.1642

> <Gold.Chemscore.DEInternal>
1.7454

> <Gold.Chemscore.Rot>
2.7208

> <Gold.Chemscore.Internal.Correction>
   9.000000E+99

> <Gold.Chemscore.Hbonds>
donor molecule, donor type, donor heavy atom, donor atom, acceptor molecule, acceptor atom, score
      L1  H    10    38       P1  7948  0.94
      P1  H  7997  8009       L1    12  0.93
      P1  H 10752 10764       L1    13  0.96

> <Gold.Chemscore.Hbond.Weighted>
-9.3632

> <Gold.Chemscore.Metal.Weighted>
-0.0000

> <Gold.Chemscore.Lipo.Weighted>
-11.1689

> <Gold.Chemscore.Internal_Hbond.Weighted>
0.0000

> <Gold.Chemscore.DEClash.Weighted>
0.1642

> <Gold.Chemscore.DEInternal.Weighted>
1.7454

> <Gold.Chemscore.Rot.Weighted>
6.9652

> <Gold.Chemscore.Internal.Correction.Weighted>
   9.000000E+99

> <Gold.Protein.RotatedTorsions>
[ 6907 6896 6895 6894 ] final -109.86 input  -60.11 | X-H torsion
[ 7974 7965 7964 7962 ] final   52.63 input  175.53 | X-H torsion
[ 8008 7997 7996 7995 ] final  177.43 input   59.86 | X-H torsion
[ 10167 10162 10161 10158 ] final  -58.97 input  -65.29 | X-H torsion
[ 10718 10713 10712 10709 ] final  -52.67 input   66.30 | X-H torsion
[ 10763 10752 10751 10750 ] final  -40.73 input  -60.55 | X-H torsion
[ 11005 11000 10999 10996 ] final   54.02 input  -57.11 | X-H torsion

> <Gold.Protein.ActiveResidues>
 VAL166  LYS551  ARG553  GLY616  TRP617  ASP618  TYR619  PRO620  LYS621  CYS622 
 ASP623  PHE694  ASN695  SER759  ASP760  ASP761  ALA762  ILE779  LEU786  VAL792 
 PHE793  MET794  SER795  GLU796  ALA797  LYS798  CYS799  TRP800  GLU811  SER814 

> <Gold.Protein.RotatedAtoms>
  150.7588  133.9467  159.3472 H   0  0  0  0  0  0  0  0  0  0  0  0  # atno 6907 bound_to 6896
  151.7381  135.0858  160.0320 H   0  0  0  0  0  0  0  0  0  0  0  0  # atno 6908 bound_to 6896
  152.3546  133.6184  159.6006 H   0  0  0  0  0  0  0  0  0  0  0  0  # atno 6909 bound_to 6896
  145.9793  139.4227  143.0141 H   0  0  0  0  0  0  0  0  0  0  0  0  # atno 7974 bound_to 7965
  156.0657  140.1358  156.9889 H   0  0  0  0  0  0  0  0  0  0  0  0  # atno 8008 bound_to 7997
  154.4505  140.0982  156.6654 H   0  0  0  0  0  0  0  0  0  0  0  0  # atno 8009 bound_to 7997
  155.5308  140.3458  155.4428 H   0  0  0  0  0  0  0  0  0  0  0  0  # atno 8010 bound_to 7997
  140.6164  143.2404  151.5586 H   0  0  0  0  0  0  0  0  0  0  0  0  # atno 10167 bound_to 10162
  156.1601  130.4150  149.9807 H   0  0  0  0  0  0  0  0  0  0  0  0  # atno 10718 bound_to 10713
  153.9508  135.6751  153.4744 H   0  0  0  0  0  0  0  0  0  0  0  0  # atno 10763 bound_to 10752
  153.0885  135.4886  154.8641 H   0  0  0  0  0  0  0  0  0  0  0  0  # atno 10764 bound_to 10752
  154.7326  135.3142  154.8824 H   0  0  0  0  0  0  0  0  0  0  0  0  # atno 10765 bound_to 10752
  140.0720  134.5457  155.9037 H   0  0  0  0  0  0  0  0  0  0  0  0  # atno 11005 bound_to 11000
  145.7792  140.9863  143.1108 LP  0  0  0  0  0  0  0  0  0  0  0  0  # atno 17320 bound_to 7965
  144.6857  139.9543  143.7479 LP  0  0  0  0  0  0  0  0  0  0  0  0  # atno 17321 bound_to 7965
  139.5402  144.2668  152.1335 LP  0  0  0  0  0  0  0  0  0  0  0  0  # atno 17342 bound_to 10162
  140.1879  144.4781  150.6494 LP  0  0  0  0  0  0  0  0  0  0  0  0  # atno 17343 bound_to 10162
  156.7638  130.9161  151.3642 LP  0  0  0  0  0  0  0  0  0  0  0  0  # atno 17370 bound_to 10713
  157.6726  130.9065  150.0075 LP  0  0  0  0  0  0  0  0  0  0  0  0  # atno 17371 bound_to 10713
  141.2015  133.6619  156.5956 LP  0  0  0  0  0  0  0  0  0  0  0  0  # atno 17394 bound_to 11000
  140.3613  134.7685  157.4536 LP  0  0  0  0  0  0  0  0  0  0  0  0  # atno 17395 bound_to 11000

$$$$
