AV-unprocessed.smi:1796|AV-procd|sdf|7253|dock5
  -GOLD-   22720 8503D 1   1.00000     0.00000
 Structure written by MMmdl.
 42 43  0  0  0  0  0  0  0  0  1 V2000
  152.8352  142.9131  162.1327 C   0  0  0  0  0  0  0  0  0  0  0  0
  153.0799  141.9817  160.9432 C   0  0  0  0  0  0  0  0  0  0  0  0
  153.5824  140.8801  161.1653 O   0  0  0  0  0  0  0  0  0  0  0  0
  152.7460  142.3967  159.6974 N   0  0  0  0  0  0  0  0  0  0  0  0
  152.0681  143.6732  159.4413 C   0  0  0  0  0  0  0  0  0  0  0  0
  150.6177  143.3846  159.0137 C   0  0  0  0  0  0  0  0  0  0  0  0
  150.5766  142.4433  157.7947 C   0  0  0  0  0  0  0  0  0  0  0  0
  151.4461  141.1822  158.0128 C   0  0  1  0  0  0  0  0  0  0  0  0
  151.5053  140.3321  156.7382 C   0  0  0  0  0  0  0  0  0  0  0  0
  152.5827  139.8882  156.3404 O   0  0  0  0  0  0  0  0  0  0  0  0
  150.3407  140.1275  156.1018 N   0  0  0  0  0  0  0  0  0  0  0  0
  150.1711  139.3974  154.8458 C   0  0  1  0  0  0  0  0  0  0  0  0
  151.0173  138.1181  154.8947 C   0  0  0  0  0  0  0  0  0  0  0  0
  148.6816  139.0771  154.5952 C   0  0  0  0  0  0  0  0  0  0  0  0
  147.8445  140.2639  154.5889 N   0  0  0  0  0  0  0  0  0  0  0  0
  147.9554  141.3863  153.7948 C   0  0  0  0  0  0  0  0  0  0  0  0
  146.9332  142.2255  154.1330 C   0  0  0  0  0  0  0  0  0  0  0  0
  146.2448  141.5219  155.1608 C   0  0  0  0  0  0  0  0  0  0  0  0
  146.7949  140.3498  155.4341 N   0  0  0  0  0  0  0  0  0  0  0  0
  152.8628  141.5913  158.4749 C   0  0  0  0  0  0  0  0  0  0  0  0
  153.3613  143.8587  161.9990 H   0  0  0  0  0  0  0  0  0  0  0  0
  153.1965  142.4599  163.0564 H   0  0  0  0  0  0  0  0  0  0  0  0
  151.7701  143.1125  162.2542 H   0  0  0  0  0  0  0  0  0  0  0  0
  152.0756  144.3378  160.3062 H   0  0  0  0  0  0  0  0  0  0  0  0
  152.5930  144.2101  158.6499 H   0  0  0  0  0  0  0  0  0  0  0  0
  150.0779  142.9289  159.8450 H   0  0  0  0  0  0  0  0  0  0  0  0
  150.1015  144.3169  158.7834 H   0  0  0  0  0  0  0  0  0  0  0  0
  149.5450  142.1600  157.5821 H   0  0  0  0  0  0  0  0  0  0  0  0
  150.9298  142.9908  156.9192 H   0  0  0  0  0  0  0  0  0  0  0  0
  150.9900  140.5858  158.8055 H   0  0  0  0  0  0  0  0  0  0  0  0
  149.5073  140.5286  156.5070 H   0  0  0  0  0  0  0  0  0  0  0  0
  150.5456  139.9973  154.0143 H   0  0  0  0  0  0  0  0  0  0  0  0
  150.9448  137.5649  153.9578 H   0  0  0  0  0  0  0  0  0  0  0  0
  150.6920  137.4558  155.6978 H   0  0  0  0  0  0  0  0  0  0  0  0
  152.0704  138.3495  155.0583 H   0  0  0  0  0  0  0  0  0  0  0  0
  148.5619  138.5749  153.6341 H   0  0  0  0  0  0  0  0  0  0  0  0
  148.3053  138.3888  155.3532 H   0  0  0  0  0  0  0  0  0  0  0  0
  148.7379  141.4880  153.0575 H   0  0  0  0  0  0  0  0  0  0  0  0
  146.7098  143.1934  153.7097 H   0  0  0  0  0  0  0  0  0  0  0  0
  145.3676  141.8257  155.7128 H   0  0  0  0  0  0  0  0  0  0  0  0
  153.3560  142.1907  157.7074 H   0  0  0  0  0  0  0  0  0  0  0  0
  153.4917  140.7100  158.5968 H   0  0  0  0  0  0  0  0  0  0  0  0
  1  2  1  0  0  0  0
  1 21  1  0  0  0  0
  1 22  1  0  0  0  0
  1 23  1  0  0  0  0
  2  3  2  0  0  0  0
  2  4  1  0  0  0  0
  4 20  1  0  0  0  0
  4  5  1  0  0  0  0
  5  6  1  0  0  0  0
  5 24  1  0  0  0  0
  5 25  1  0  0  0  0
  6  7  1  0  0  0  0
  6 26  1  0  0  0  0
  6 27  1  0  0  0  0
  7  8  1  0  0  0  0
  7 28  1  0  0  0  0
  7 29  1  0  0  0  0
  8  9  1  0  0  0  0
  8 20  1  0  0  0  0
  8 30  1  0  0  0  0
  9 10  2  0  0  0  0
  9 11  1  0  0  0  0
 11 12  1  0  0  0  0
 11 31  1  0  0  0  0
 12 13  1  0  0  0  0
 12 14  1  0  0  0  0
 12 32  1  0  0  0  0
 13 33  1  0  0  0  0
 13 34  1  0  0  0  0
 13 35  1  0  0  0  0
 14 15  1  0  0  0  0
 14 36  1  0  0  0  0
 14 37  1  0  0  0  0
 15 19  1  0  0  0  0
 15 16  1  0  0  0  0
 16 17  2  0  0  0  0
 16 38  1  0  0  0  0
 17 18  1  0  0  0  0
 17 39  1  0  0  0  0
 18 19  2  0  0  0  0
 18 40  1  0  0  0  0
 20 41  1  0  0  0  0
 20 42  1  0  0  0  0
M  END
> <s_m_source_file>
AV-unprocessed.smi

> <i_m_source_file_index>
1796

> <i_lp_mmshare_version>
43012

> <i_f3d_flags>
0

> <s_epik_input>
W0NIM11DKD1PKU4xW0NIMl1bQ0gyXVtDSDJdW0NASF0oW0NIMl0xKUMoPU8pW05IXVtDQEhdKFtDSDNdKVtDSDJdbjJbY0hdW2NIXVtjSF1uMg==

> <s_epik_cmdline>
J2VwaWtfcHl0aG9uJywgJy1waCcsICc3LjAnLCAnLXRuJywgJzgnLCAnLW1hJywgJzIwMCcsICctbWV0YWxfYmluZGluZycsICctaW1hZScsICc8aW5maWxlLm1hZT4nLCAnLW9tYWUnLCAnPG91dGZpbGUubWFlPic=

> <r_lp_tautomer_probability>
1

> <r_epik_Ionization_Penalty>
0.000315051

> <r_epik_Ionization_Penalty_Charging>
0

> <r_epik_Ionization_Penalty_Neutral>
0.000315051

> <r_epik_State_Penalty>
-0

> <r_epik_Charging_Adjusted_Penalty>
0

> <i_epik_Tot_Q>
0

> <i_epik_Tot_abs_Q>
0

> <r_epik_Metal_State_Penalty>
-0

> <b_epik_Metal_Only>
0

> <s_lp_Force_Field>
OPLS_2005

> <r_lp_Energy>
22.8088

> <b_lp_Chiralities_Consistent>
1

> <s_lp_Variant>
AV-unprocessed.smi:1796-3

> <Gold.Version>
5.8.1

> <Gold.Id.Protein>
6NUR|6NUR_protein|mol2

> <Gold.PLP.Fitness>
45.3367

> <Gold.PLP.PLP>
-40.3299

> <Gold.PLP.part.hbond>
-1.0000

> <Gold.PLP.part.metal>
0.0000

> <Gold.PLP.part.buried>
-5.8858

> <Gold.PLP.part.nonpolar>
-33.8006

> <Gold.PLP.part.repulsive>
0.1040

> <Gold.PLP.ligand.clash>
0.0000

> <Gold.PLP.ligand.torsion>
0.5102

> <Gold.PLP.Chemscore.Hbond>
1.0000

> <Gold.PLP.Chemscore.CHOScore>
1.0000

> <Gold.PLP.Chemscore.Metal>
0.0000

> <Gold.Chemscore.Hbonds>
donor molecule, donor type, donor heavy atom, donor atom, acceptor molecule, acceptor atom, score
      P1  H  7997  8009       L1    10  1.00
      L1  C    16    38       P1  7957  1.00

> <Gold.PLP.Chemscore.Internal.Correction>
0.0272

> <Gold.Rescore>
     Score         DG    S(hbond)    S(metal)    S(lipo)     H(rot)  DE(clash)    DE(int)     intcor
     13.38     -15.79       1.00        0.00      95.31       1.63       0.76       1.66       ----

> <Gold.Chemscore.Fitness>
13.3752

> <Gold.Chemscore.DG>
-15.7888

> <Gold.Chemscore.ZeroCoef>
-5.4800

> <Gold.Chemscore.Hbond>
0.9998

> <Gold.Chemscore.Metal>
0.0000

> <Gold.Chemscore.Lipo>
95.3115

> <Gold.Chemscore.Internal_Hbond>
0.0000

> <Gold.Chemscore.DEClash>
0.7566

> <Gold.Chemscore.DEInternal>
1.6570

> <Gold.Chemscore.Rot>
1.6336

> <Gold.Chemscore.Internal.Correction>
   9.000000E+99

> <Gold.Chemscore.Hbonds>
donor molecule, donor type, donor heavy atom, donor atom, acceptor molecule, acceptor atom, score
      P1  H  7997  8009       L1    10  1.00

> <Gold.Chemscore.Hbond.Weighted>
-3.3395

> <Gold.Chemscore.Metal.Weighted>
-0.0000

> <Gold.Chemscore.Lipo.Weighted>
-11.1514

> <Gold.Chemscore.Internal_Hbond.Weighted>
0.0000

> <Gold.Chemscore.DEClash.Weighted>
0.7566

> <Gold.Chemscore.DEInternal.Weighted>
1.6570

> <Gold.Chemscore.Rot.Weighted>
4.1821

> <Gold.Chemscore.Internal.Correction.Weighted>
   9.000000E+99

> <Gold.Protein.RotatedTorsions>
[ 6907 6896 6895 6894 ] final  120.02 input  -60.11 | X-H torsion
[ 7974 7965 7964 7962 ] final -107.98 input  175.53 | X-H torsion
[ 8008 7997 7996 7995 ] final -165.57 input   59.86 | X-H torsion
[ 10167 10162 10161 10158 ] final -151.21 input  -65.29 | X-H torsion
[ 10718 10713 10712 10709 ] final  121.59 input   66.30 | X-H torsion
[ 10763 10752 10751 10750 ] final   64.32 input  -60.55 | X-H torsion
[ 11005 11000 10999 10996 ] final  -71.73 input  -57.11 | X-H torsion

> <Gold.Protein.ActiveResidues>
 VAL166  LYS551  ARG553  GLY616  TRP617  ASP618  TYR619  PRO620  LYS621  CYS622 
 ASP623  PHE694  ASN695  SER759  ASP760  ASP761  ALA762  ILE779  LEU786  VAL792 
 PHE793  MET794  SER795  GLU796  ALA797  LYS798  CYS799  TRP800  GLU811  SER814 

> <Gold.Protein.RotatedAtoms>
  152.4429  133.7481  159.6678 H   0  0  0  0  0  0  0  0  0  0  0  0  # atno 6907 bound_to 6896
  150.8323  133.8060  159.3100 H   0  0  0  0  0  0  0  0  0  0  0  0  # atno 6908 bound_to 6896
  151.5711  135.1065  160.0047 H   0  0  0  0  0  0  0  0  0  0  0  0  # atno 6909 bound_to 6896
  145.1985  140.9046  143.3383 H   0  0  0  0  0  0  0  0  0  0  0  0  # atno 7974 bound_to 7965
  155.8516  140.0964  157.1671 H   0  0  0  0  0  0  0  0  0  0  0  0  # atno 8008 bound_to 7997
  154.3986  140.1382  156.3913 H   0  0  0  0  0  0  0  0  0  0  0  0  # atno 8009 bound_to 7997
  155.7955  140.3454  155.5375 H   0  0  0  0  0  0  0  0  0  0  0  0  # atno 8010 bound_to 7997
  139.7287  143.8842  152.2528 H   0  0  0  0  0  0  0  0  0  0  0  0  # atno 10167 bound_to 10162
  157.5806  131.1075  150.8194 H   0  0  0  0  0  0  0  0  0  0  0  0  # atno 10718 bound_to 10713
  153.0051  135.5397  154.6491 H   0  0  0  0  0  0  0  0  0  0  0  0  # atno 10763 bound_to 10752
  154.5727  135.2843  155.0813 H   0  0  0  0  0  0  0  0  0  0  0  0  # atno 10764 bound_to 10752
  154.1972  135.6490  153.5129 H   0  0  0  0  0  0  0  0  0  0  0  0  # atno 10765 bound_to 10752
  141.1597  133.6826  156.6951 H   0  0  0  0  0  0  0  0  0  0  0  0  # atno 11005 bound_to 11000
  144.9971  139.3634  143.6186 LP  0  0  0  0  0  0  0  0  0  0  0  0  # atno 17320 bound_to 7965
  146.3422  139.9178  142.8771 LP  0  0  0  0  0  0  0  0  0  0  0  0  # atno 17321 bound_to 7965
  139.8759  144.7044  150.8934 LP  0  0  0  0  0  0  0  0  0  0  0  0  # atno 17342 bound_to 10162
  140.7767  143.3700  151.1666 LP  0  0  0  0  0  0  0  0  0  0  0  0  # atno 17343 bound_to 10162
  156.8642  130.5123  149.5301 LP  0  0  0  0  0  0  0  0  0  0  0  0  # atno 17370 bound_to 10713
  156.0852  130.5852  150.9635 LP  0  0  0  0  0  0  0  0  0  0  0  0  # atno 17371 bound_to 10713
  140.3001  134.8171  157.4090 LP  0  0  0  0  0  0  0  0  0  0  0  0  # atno 17394 bound_to 11000
  140.1270  134.5145  155.8137 LP  0  0  0  0  0  0  0  0  0  0  0  0  # atno 17395 bound_to 11000

$$$$
