AV-unprocessed.smi:1046|AV-procd|sdf|4558|dock10
  -GOLD-   22720 2593D 1   1.00000     0.00000
 Structure written by MMmdl.
 54 56  0  0  0  0  0  0  0  0  3 V2000
  152.8339  143.3358  161.6358 C   0  0  0  0  0  0  0  0  0  0  0  0
  152.3251  142.7671  160.3221 C   0  0  0  0  0  0  0  0  0  0  0  0
  152.4933  141.3860  160.0748 C   0  0  0  0  0  0  0  0  0  0  0  0
  152.0203  140.8960  158.8633 C   0  0  0  0  0  0  0  0  0  0  0  0
  152.0380  139.6057  158.3299 N   0  3  0  0  0  0  0  0  0  0  0  0
  151.4532  139.6139  157.1003 C   0  0  0  0  0  0  0  0  0  0  0  0
  151.0631  140.8912  156.8393 N   0  0  0  0  0  0  0  0  0  0  0  0
  150.3807  141.4398  155.6580 C   0  0  0  0  0  0  0  0  0  0  0  0
  149.8151  140.3468  154.7273 C   0  0  2  0  0  0  0  0  0  0  0  0
  149.7947  140.8203  153.3963 O   0  0  0  0  0  0  0  0  0  0  0  0
  148.3742  139.9424  155.0967 C   0  0  0  0  0  0  0  0  0  0  0  0
  147.3899  140.0525  154.0137 N   0  0  0  0  0  0  0  0  0  0  0  0
  146.2517  139.1506  154.1899 C   0  0  0  0  0  0  0  0  0  0  0  0
  145.3006  139.5827  155.3247 C   0  0  0  0  0  0  0  0  0  0  0  0
  144.8048  140.9631  155.0882 N   0  3  0  0  0  0  0  0  0  0  0  0
  143.8262  141.3977  156.1171 C   0  0  0  0  0  0  0  0  0  0  0  0
  142.6231  140.4461  156.2324 C   0  0  0  0  0  0  0  0  0  0  0  0
  142.1300  140.1294  154.9475 O   0  0  0  0  0  0  0  0  0  0  0  0
  145.9420  141.9046  154.9081 C   0  0  0  0  0  0  0  0  0  0  0  0
  146.8776  141.4066  153.7871 C   0  0  0  0  0  0  0  0  0  0  0  0
  151.3952  141.7267  157.9129 C   0  0  0  0  0  0  0  0  0  0  0  0
  151.2208  143.0900  158.1418 C   0  0  0  0  0  0  0  0  0  0  0  0
  151.6959  143.6079  159.3678 C   0  0  0  0  0  0  0  0  0  0  0  0
  151.5202  145.0917  159.6435 C   0  0  0  0  0  0  0  0  0  0  0  0
  153.3420  142.5752  162.2296 H   0  0  0  0  0  0  0  0  0  0  0  0
  152.0064  143.7253  162.2292 H   0  0  0  0  0  0  0  0  0  0  0  0
  153.5429  144.1442  161.4559 H   0  0  0  0  0  0  0  0  0  0  0  0
  152.9706  140.7396  160.7969 H   0  0  0  0  0  0  0  0  0  0  0  0
  151.3216  138.7605  156.4508 H   0  0  0  0  0  0  0  0  0  0  0  0
  149.5706  142.0705  156.0258 H   0  0  0  0  0  0  0  0  0  0  0  0
  151.0608  142.1032  155.1234 H   0  0  0  0  0  0  0  0  0  0  0  0
  150.4711  139.4769  154.7403 H   0  0  0  0  0  0  0  0  0  0  0  0
  149.5840  140.0980  152.8246 H   0  0  0  0  0  0  0  0  0  0  0  0
  148.3998  138.9079  155.4432 H   0  0  0  0  0  0  0  0  0  0  0  0
  148.0505  140.5283  155.9566 H   0  0  0  0  0  0  0  0  0  0  0  0
  145.6884  139.1040  153.2569 H   0  0  0  0  0  0  0  0  0  0  0  0
  146.6072  138.1354  154.3709 H   0  0  0  0  0  0  0  0  0  0  0  0
  144.4557  138.8940  155.3643 H   0  0  0  0  0  0  0  0  0  0  0  0
  145.7975  139.5255  156.2940 H   0  0  0  0  0  0  0  0  0  0  0  0
  144.3162  141.4504  157.0907 H   0  0  0  0  0  0  0  0  0  0  0  0
  143.4883  142.4102  155.8915 H   0  0  0  0  0  0  0  0  0  0  0  0
  142.9335  139.5190  156.7150 H   0  0  0  0  0  0  0  0  0  0  0  0
  141.8227  140.8638  156.8424 H   0  0  0  0  0  0  0  0  0  0  0  0
  142.6983  140.5207  154.3006 H   0  0  0  0  0  0  0  0  0  0  0  0
  145.5714  142.8932  154.6402 H   0  0  0  0  0  0  0  0  0  0  0  0
  146.4854  142.0197  155.8465 H   0  0  0  0  0  0  0  0  0  0  0  0
  147.6979  142.1092  153.6469 H   0  0  0  0  0  0  0  0  0  0  0  0
  146.3266  141.4185  152.8458 H   0  0  0  0  0  0  0  0  0  0  0  0
  150.7474  143.7331  157.4147 H   0  0  0  0  0  0  0  0  0  0  0  0
  150.9692  145.5841  158.8417 H   0  0  0  0  0  0  0  0  0  0  0  0
  152.4904  145.5812  159.7316 H   0  0  0  0  0  0  0  0  0  0  0  0
  150.9674  145.2483  160.5703 H   0  0  0  0  0  0  0  0  0  0  0  0
  144.3019  140.9346  154.2123 H   0  0  0  0  0  0  0  0  0  0  0  0
  152.4193  138.7784  158.7709 H   0  0  0  0  0  0  0  0  0  0  0  0
  1  2  1  0  0  0  0
  1 25  1  0  0  0  0
  1 26  1  0  0  0  0
  1 27  1  0  0  0  0
  2 23  1  0  0  0  0
  2  3  2  0  0  0  0
  3  4  1  0  0  0  0
  3 28  1  0  0  0  0
  4 21  2  0  0  0  0
  4  5  1  0  0  0  0
  5  6  2  0  0  0  0
  5 54  1  0  0  0  0
  6  7  1  0  0  0  0
  6 29  1  0  0  0  0
  7  8  1  0  0  0  0
  7 21  1  0  0  0  0
  8  9  1  0  0  0  0
  8 30  1  0  0  0  0
  8 31  1  0  0  0  0
  9 10  1  0  0  0  0
  9 11  1  0  0  0  0
  9 32  1  0  0  0  0
 10 33  1  0  0  0  0
 11 12  1  0  0  0  0
 11 34  1  0  0  0  0
 11 35  1  0  0  0  0
 12 20  1  0  0  0  0
 12 13  1  0  0  0  0
 13 14  1  0  0  0  0
 13 36  1  0  0  0  0
 13 37  1  0  0  0  0
 14 15  1  0  0  0  0
 14 38  1  0  0  0  0
 14 39  1  0  0  0  0
 15 16  1  0  0  0  0
 15 19  1  0  0  0  0
 15 53  1  0  0  0  0
 16 17  1  0  0  0  0
 16 40  1  0  0  0  0
 16 41  1  0  0  0  0
 17 18  1  0  0  0  0
 17 42  1  0  0  0  0
 17 43  1  0  0  0  0
 18 44  1  0  0  0  0
 19 20  1  0  0  0  0
 19 45  1  0  0  0  0
 19 46  1  0  0  0  0
 20 47  1  0  0  0  0
 20 48  1  0  0  0  0
 21 22  1  0  0  0  0
 22 23  2  0  0  0  0
 22 49  1  0  0  0  0
 23 24  1  0  0  0  0
 24 50  1  0  0  0  0
 24 51  1  0  0  0  0
 24 52  1  0  0  0  0
M  CHG  1   5   1
M  CHG  1  15   1
M  END
> <s_m_source_file>
AV-unprocessed.smi

> <i_m_source_file_index>
1046

> <i_lp_mmshare_version>
43012

> <i_f3d_flags>
0

> <s_epik_input>
W0NIM11jKFtjSF0xKWMoW0NIM10pW2NIXWMoYzEyKW4oW2NIXW4yKVtDSDJdW0NASF0oW09IXSlbQ0gyXU4zW0NIMl1bQ0gyXU4oW0NIMl1bQ0gyXTMpW0NIMl1bQ0gyXVtPSF0=

> <s_epik_cmdline>
J2VwaWtfcHl0aG9uJywgJy1waCcsICc3LjAnLCAnLXRuJywgJzgnLCAnLW1hJywgJzIwMCcsICctbWV0YWxfYmluZGluZycsICctaW1hZScsICc8aW5maWxlLm1hZT4nLCAnLW9tYWUnLCAnPG91dGZpbGUubWFlPic=

> <r_epik_Ionization_Penalty>
1.37806

> <r_epik_Ionization_Penalty_Charging>
1.32954

> <r_epik_Ionization_Penalty_Neutral>
0.0485178

> <r_epik_State_Penalty>
2.26587

> <r_epik_Charging_Adjusted_Penalty>
3.59541

> <i_epik_Tot_Q>
2

> <i_epik_Tot_abs_Q>
2

> <r_epik_Metal_State_Penalty>
6.27317

> <b_epik_Metal_Only>
0

> <s_lp_Force_Field>
OPLS_2005

> <r_lp_Energy>
41.5641

> <b_lp_Chiralities_Consistent>
1

> <s_lp_Variant>
AV-unprocessed.smi:1046-11

> <Gold.Version>
5.8.1

> <Gold.Id.Protein>
6NUR|6NUR_protein|mol2

> <Gold.PLP.Fitness>
55.5011

> <Gold.PLP.PLP>
-44.4036

> <Gold.PLP.part.hbond>
-4.0272

> <Gold.PLP.part.metal>
0.0000

> <Gold.PLP.part.buried>
-4.6587

> <Gold.PLP.part.nonpolar>
-34.8418

> <Gold.PLP.part.repulsive>
0.2315

> <Gold.PLP.ligand.clash>
0.0000

> <Gold.PLP.ligand.torsion>
1.5421

> <Gold.PLP.Chemscore.Hbond>
4.7128

> <Gold.PLP.Chemscore.CHOScore>
0.0000

> <Gold.PLP.Chemscore.Metal>
0.0000

> <Gold.Chemscore.Hbonds>
donor molecule, donor type, donor heavy atom, donor atom, acceptor molecule, acceptor atom, score
      L1  H    10    33       P1  7957  0.58
      L1  H    15    53       P1 10175  2.00
      L1  H    18    44       P1 10175  1.00
      P1  H  7989  7998       L1    10  0.14
      P1  H  8011  8017       L1    10  1.00

> <Gold.PLP.Chemscore.Internal.Correction>
0.0433

> <Gold.Rescore>
     Score         DG    S(hbond)    S(metal)    S(lipo)     H(rot)  DE(clash)    DE(int)     intcor
     19.49     -21.25       3.23        0.00     114.47       3.29       0.18       1.58       ----

> <Gold.Chemscore.Fitness>
19.4876

> <Gold.Chemscore.DG>
-21.2481

> <Gold.Chemscore.ZeroCoef>
-5.4800

> <Gold.Chemscore.Hbond>
3.2326

> <Gold.Chemscore.Metal>
0.0000

> <Gold.Chemscore.Lipo>
114.4682

> <Gold.Chemscore.Internal_Hbond>
0.0000

> <Gold.Chemscore.DEClash>
0.1772

> <Gold.Chemscore.DEInternal>
1.5834

> <Gold.Chemscore.Rot>
3.2896

> <Gold.Chemscore.Internal.Correction>
   9.000000E+99

> <Gold.Chemscore.Hbonds>
donor molecule, donor type, donor heavy atom, donor atom, acceptor molecule, acceptor atom, score
      L1  H    10    33       P1  7957  0.58
      L1  H    15    53       P1 10175  0.93
      L1  H    18    44       P1 10175  0.80
      P1  H  8011  8017       L1    10  0.59

> <Gold.Chemscore.Hbond.Weighted>
-10.7968

> <Gold.Chemscore.Metal.Weighted>
-0.0000

> <Gold.Chemscore.Lipo.Weighted>
-13.3928

> <Gold.Chemscore.Internal_Hbond.Weighted>
0.0000

> <Gold.Chemscore.DEClash.Weighted>
0.1772

> <Gold.Chemscore.DEInternal.Weighted>
1.5834

> <Gold.Chemscore.Rot.Weighted>
8.4215

> <Gold.Chemscore.Internal.Correction.Weighted>
   9.000000E+99

> <Gold.Protein.RotatedTorsions>
[ 6907 6896 6895 6894 ] final  -56.97 input  -60.11 | X-H torsion
[ 7974 7965 7964 7962 ] final  -13.29 input  175.53 | X-H torsion
[ 8008 7997 7996 7995 ] final  -71.34 input   59.86 | X-H torsion
[ 10167 10162 10161 10158 ] final  -75.65 input  -65.29 | X-H torsion
[ 10718 10713 10712 10709 ] final -179.73 input   66.30 | X-H torsion
[ 10763 10752 10751 10750 ] final   35.51 input  -60.55 | X-H torsion
[ 11005 11000 10999 10996 ] final  -96.73 input  -57.11 | X-H torsion

> <Gold.Protein.ActiveResidues>
 VAL166  LYS551  ARG553  GLY616  TRP617  ASP618  TYR619  PRO620  LYS621  CYS622 
 ASP623  PHE694  ASN695  SER759  ASP760  ASP761  ALA762  ILE779  LEU786  VAL792 
 PHE793  MET794  SER795  GLU796  ALA797  LYS798  CYS799  TRP800  GLU811  SER814 

> <Gold.Protein.RotatedAtoms>
  150.8124  134.7287  159.6699 H   0  0  0  0  0  0  0  0  0  0  0  0  # atno 6907 bound_to 6896
  152.4244  134.5893  159.9979 H   0  0  0  0  0  0  0  0  0  0  0  0  # atno 6908 bound_to 6896
  151.6099  133.3311  159.3101 H   0  0  0  0  0  0  0  0  0  0  0  0  # atno 6909 bound_to 6896
  146.2120  140.3181  142.8388 H   0  0  0  0  0  0  0  0  0  0  0  0  # atno 7974 bound_to 7965
  154.5080  140.0817  156.7933 H   0  0  0  0  0  0  0  0  0  0  0  0  # atno 8008 bound_to 7997
  155.3850  140.3429  155.4230 H   0  0  0  0  0  0  0  0  0  0  0  0  # atno 8009 bound_to 7997
  156.1539  140.1567  156.8712 H   0  0  0  0  0  0  0  0  0  0  0  0  # atno 8010 bound_to 7997
  140.4924  143.2377  151.7885 H   0  0  0  0  0  0  0  0  0  0  0  0  # atno 10167 bound_to 10162
  156.8634  130.9759  151.3081 H   0  0  0  0  0  0  0  0  0  0  0  0  # atno 10718 bound_to 10713
  153.0116  135.6331  154.1838 H   0  0  0  0  0  0  0  0  0  0  0  0  # atno 10763 bound_to 10752
  154.1580  135.2825  155.3118 H   0  0  0  0  0  0  0  0  0  0  0  0  # atno 10764 bound_to 10752
  154.6003  135.5589  153.7428 H   0  0  0  0  0  0  0  0  0  0  0  0  # atno 10765 bound_to 10752
  141.1402  133.8119  157.0611 H   0  0  0  0  0  0  0  0  0  0  0  0  # atno 11005 bound_to 11000
  144.8939  140.7559  143.5909 LP  0  0  0  0  0  0  0  0  0  0  0  0  # atno 17320 bound_to 7965
  145.3105  139.1820  143.4641 LP  0  0  0  0  0  0  0  0  0  0  0  0  # atno 17321 bound_to 7965
  139.4854  144.4631  151.9517 LP  0  0  0  0  0  0  0  0  0  0  0  0  # atno 17342 bound_to 10162
  140.3718  144.2846  150.5919 LP  0  0  0  0  0  0  0  0  0  0  0  0  # atno 17343 bound_to 10162
  157.6237  130.8675  149.9152 LP  0  0  0  0  0  0  0  0  0  0  0  0  # atno 17370 bound_to 10713
  156.0764  130.3678  150.0668 LP  0  0  0  0  0  0  0  0  0  0  0  0  # atno 17371 bound_to 10713
  140.0571  134.9775  157.1239 LP  0  0  0  0  0  0  0  0  0  0  0  0  # atno 17394 bound_to 11000
  140.3904  134.2191  155.7166 LP  0  0  0  0  0  0  0  0  0  0  0  0  # atno 17395 bound_to 11000

$$$$
