AV-unprocessed.smi:1843|AV-procd|sdf|7503|dock2
  -GOLD-   22720 9203D 1   1.00000     0.00000
 Structure written by MMmdl.
 37 39  0  0  0  0  0  0  0  0  1 V2000
  146.8755  134.0591  155.2442 O   0  0  0  0  0  0  0  0  0  0  0  0
  147.4835  134.5863  154.3123 C   0  0  0  0  0  0  0  0  0  0  0  0
  148.5447  135.4024  154.4382 N   0  0  0  0  0  0  0  0  0  0  0  0
  149.1890  135.8315  155.6286 C   0  0  0  0  0  0  0  0  0  0  0  0
  149.1064  135.1807  156.7970 N   0  0  0  0  0  0  0  0  0  0  0  0
  149.8293  135.8166  157.7963 N   0  0  0  0  0  0  0  0  0  0  0  0
  150.4368  136.9255  157.3571 C   0  0  0  0  0  0  0  0  0  0  0  0
  151.2736  137.7810  158.2491 C   0  0  0  0  0  0  0  0  0  0  0  0
  150.8283  139.1655  158.6674 C   0  0  0  0  0  0  0  0  0  0  0  0
  151.9791  139.0027  157.7073 C   0  0  0  0  0  0  0  0  0  0  0  0
  150.1676  137.2884  155.6553 S   0  0  0  0  0  0  0  0  0  0  0  0
  147.1574  134.4117  153.0237 N   0  0  0  0  0  0  0  0  0  0  0  0
  146.0585  133.5796  152.5369 C   0  0  1  0  0  0  0  0  0  0  0  0
  145.1282  134.4449  151.6577 C   0  0  0  0  0  0  0  0  0  0  0  0
  144.0348  133.6133  150.9716 C   0  0  0  0  0  0  0  0  0  0  0  0
  144.6483  132.4752  150.1457 C   0  0  0  0  0  0  0  0  0  0  0  0
  145.5282  131.5807  151.0287 C   0  0  0  0  0  0  0  0  0  0  0  0
  146.6335  132.3874  151.7363 C   0  0  2  0  0  0  0  0  0  0  0  0
  147.3026  131.5056  152.6157 O   0  0  0  0  0  0  0  0  0  0  0  0
  148.9382  135.7605  153.5807 H   0  0  0  0  0  0  0  0  0  0  0  0
  151.7997  137.1723  158.9819 H   0  0  0  0  0  0  0  0  0  0  0  0
  149.8957  139.5530  158.2620 H   0  0  0  0  0  0  0  0  0  0  0  0
  151.0616  139.4819  159.6819 H   0  0  0  0  0  0  0  0  0  0  0  0
  152.9801  139.2097  158.0806 H   0  0  0  0  0  0  0  0  0  0  0  0
  151.8054  139.2670  156.6659 H   0  0  0  0  0  0  0  0  0  0  0  0
  147.7088  134.8871  152.3245 H   0  0  0  0  0  0  0  0  0  0  0  0
  145.4816  133.1901  153.3786 H   0  0  0  0  0  0  0  0  0  0  0  0
  144.6652  135.2278  152.2601 H   0  0  0  0  0  0  0  0  0  0  0  0
  145.7159  134.9551  150.8929 H   0  0  0  0  0  0  0  0  0  0  0  0
  143.3611  133.2008  151.7238 H   0  0  0  0  0  0  0  0  0  0  0  0
  143.4286  134.2530  150.3298 H   0  0  0  0  0  0  0  0  0  0  0  0
  143.8583  131.8817  149.6848 H   0  0  0  0  0  0  0  0  0  0  0  0
  145.2432  132.8886  149.3302 H   0  0  0  0  0  0  0  0  0  0  0  0
  144.8994  131.0860  151.7710 H   0  0  0  0  0  0  0  0  0  0  0  0
  145.9719  130.7883  150.4248 H   0  0  0  0  0  0  0  0  0  0  0  0
  147.3454  132.7481  150.9923 H   0  0  0  0  0  0  0  0  0  0  0  0
  148.1125  131.2356  152.2107 H   0  0  0  0  0  0  0  0  0  0  0  0
  1  2  2  0  0  0  0
  2  3  1  0  0  0  0
  2 12  1  0  0  0  0
  3  4  1  0  0  0  0
  3 20  1  0  0  0  0
  4 11  1  0  0  0  0
  4  5  2  0  0  0  0
  5  6  1  0  0  0  0
  6  7  2  0  0  0  0
  7  8  1  0  0  0  0
  7 11  1  0  0  0  0
  8 10  1  0  0  0  0
  8  9  1  0  0  0  0
  8 21  1  0  0  0  0
  9 10  1  0  0  0  0
  9 22  1  0  0  0  0
  9 23  1  0  0  0  0
 10 24  1  0  0  0  0
 10 25  1  0  0  0  0
 12 13  1  0  0  0  0
 12 26  1  0  0  0  0
 13 18  1  0  0  0  0
 13 14  1  0  0  0  0
 13 27  1  0  0  0  0
 14 15  1  0  0  0  0
 14 28  1  0  0  0  0
 14 29  1  0  0  0  0
 15 16  1  0  0  0  0
 15 30  1  0  0  0  0
 15 31  1  0  0  0  0
 16 17  1  0  0  0  0
 16 32  1  0  0  0  0
 16 33  1  0  0  0  0
 17 18  1  0  0  0  0
 17 34  1  0  0  0  0
 17 35  1  0  0  0  0
 18 19  1  0  0  0  0
 18 36  1  0  0  0  0
 19 37  1  0  0  0  0
M  END
> <s_m_source_file>
AV-unprocessed.smi

> <i_m_source_file_index>
1843

> <i_lp_mmshare_version>
43012

> <i_f3d_flags>
0

> <s_epik_input>
W09IXVtDQEBIXTFbQ0gyXVtDSDJdW0NIMl1bQ0gyXVtDQEhdMVtOSF1DKD1PKVtOSF1jMm5uYyhzMilbQ0hdM1tDSDJdW0NIMl0z

> <s_epik_cmdline>
J2VwaWtfcHl0aG9uJywgJy1waCcsICc3LjAnLCAnLXRuJywgJzgnLCAnLW1hJywgJzIwMCcsICctbWV0YWxfYmluZGluZycsICctaW1hZScsICc8aW5maWxlLm1hZT4nLCAnLW9tYWUnLCAnPG91dGZpbGUubWFlPic=

> <r_lp_tautomer_probability>
1

> <r_epik_Ionization_Penalty>
0.000257313

> <r_epik_Ionization_Penalty_Charging>
0

> <r_epik_Ionization_Penalty_Neutral>
0.000257313

> <r_epik_State_Penalty>
-0

> <r_epik_Charging_Adjusted_Penalty>
0

> <i_epik_Tot_Q>
0

> <i_epik_Tot_abs_Q>
0

> <r_epik_Metal_State_Penalty>
0.147479

> <b_epik_Metal_Only>
0

> <s_lp_Force_Field>
OPLS_2005

> <r_lp_Energy>
8.53895

> <b_lp_Chiralities_Consistent>
1

> <s_lp_Variant>
AV-unprocessed.smi:1843-4

> <Gold.Version>
5.8.1

> <Gold.Id.Protein>
6NUR|6NUR_protein|mol2

> <Gold.PLP.Fitness>
35.6589

> <Gold.PLP.PLP>
-24.8865

> <Gold.PLP.part.hbond>
-4.0000

> <Gold.PLP.part.metal>
0.0000

> <Gold.PLP.part.buried>
-4.4703

> <Gold.PLP.part.nonpolar>
-16.7777

> <Gold.PLP.part.repulsive>
0.0269

> <Gold.PLP.ligand.clash>
0.0000

> <Gold.PLP.ligand.torsion>
0.2101

> <Gold.PLP.Chemscore.Hbond>
3.6880

> <Gold.PLP.Chemscore.CHOScore>
0.0000

> <Gold.PLP.Chemscore.Metal>
0.0000

> <Gold.Chemscore.Hbonds>
donor molecule, donor type, donor heavy atom, donor atom, acceptor molecule, acceptor atom, score
      L1  H     3    20       P1  7948  1.00
      L1  H    12    26       P1  7948  1.00
      L1  H    19    37       P1 10747  0.61
      P1  H  6896  6909       L1     6  0.15

> <Gold.PLP.Chemscore.Internal.Correction>
0.1285

> <Gold.Rescore>
     Score         DG    S(hbond)    S(metal)    S(lipo)     H(rot)  DE(clash)    DE(int)     intcor
     18.69     -20.17       3.64        0.00      59.63       1.74       0.00       1.48       ----

> <Gold.Chemscore.Fitness>
18.6860

> <Gold.Chemscore.DG>
-20.1701

> <Gold.Chemscore.ZeroCoef>
-5.4800

> <Gold.Chemscore.Hbond>
3.6435

> <Gold.Chemscore.Metal>
0.0000

> <Gold.Chemscore.Lipo>
59.6267

> <Gold.Chemscore.Internal_Hbond>
0.0000

> <Gold.Chemscore.DEClash>
0.0048

> <Gold.Chemscore.DEInternal>
1.4794

> <Gold.Chemscore.Rot>
1.7404

> <Gold.Chemscore.Internal.Correction>
   9.000000E+99

> <Gold.Chemscore.Hbonds>
donor molecule, donor type, donor heavy atom, donor atom, acceptor molecule, acceptor atom, score
      L1  H     3    20       P1  7948  0.92
      L1  H    12    26       P1  7948  0.84
      L1  H    19    37       P1 10747  0.59
      P1  H  6896  6909       L1     6  0.14

> <Gold.Chemscore.Hbond.Weighted>
-12.1693

> <Gold.Chemscore.Metal.Weighted>
-0.0000

> <Gold.Chemscore.Lipo.Weighted>
-6.9763

> <Gold.Chemscore.Internal_Hbond.Weighted>
0.0000

> <Gold.Chemscore.DEClash.Weighted>
0.0048

> <Gold.Chemscore.DEInternal.Weighted>
1.4794

> <Gold.Chemscore.Rot.Weighted>
4.4555

> <Gold.Chemscore.Internal.Correction.Weighted>
   9.000000E+99

> <Gold.Protein.RotatedTorsions>
[ 6907 6896 6895 6894 ] final   32.46 input  -60.11 | X-H torsion
[ 7974 7965 7964 7962 ] final  142.51 input  175.53 | X-H torsion
[ 8008 7997 7996 7995 ] final -170.20 input   59.86 | X-H torsion
[ 10167 10162 10161 10158 ] final  -41.59 input  -65.29 | X-H torsion
[ 10718 10713 10712 10709 ] final -166.39 input   66.30 | X-H torsion
[ 10763 10752 10751 10750 ] final    4.75 input  -60.55 | X-H torsion
[ 11005 11000 10999 10996 ] final  129.71 input  -57.11 | X-H torsion

> <Gold.Protein.ActiveResidues>
 VAL166  LYS551  ARG553  GLY616  TRP617  ASP618  TYR619  PRO620  LYS621  CYS622 
 ASP623  PHE694  ASN695  SER759  ASP760  ASP761  ALA762  ILE779  LEU786  VAL792 
 PHE793  MET794  SER795  GLU796  ALA797  LYS798  CYS799  TRP800  GLU811  SER814 

> <Gold.Protein.RotatedAtoms>
  152.0748  134.9510  160.0573 H   0  0  0  0  0  0  0  0  0  0  0  0  # atno 6907 bound_to 6896
  152.0822  133.4153  159.4514 H   0  0  0  0  0  0  0  0  0  0  0  0  # atno 6908 bound_to 6896
  150.6836  134.2889  159.4702 H   0  0  0  0  0  0  0  0  0  0  0  0  # atno 6909 bound_to 6896
  144.9001  139.5435  143.5758 H   0  0  0  0  0  0  0  0  0  0  0  0  # atno 7974 bound_to 7965
  155.9152  140.1064  157.1249 H   0  0  0  0  0  0  0  0  0  0  0  0  # atno 8008 bound_to 7997
  154.4045  140.1266  156.4673 H   0  0  0  0  0  0  0  0  0  0  0  0  # atno 8009 bound_to 7997
  155.7263  140.3469  155.5041 H   0  0  0  0  0  0  0  0  0  0  0  0  # atno 8010 bound_to 7997
  140.6998  143.3086  151.3087 H   0  0  0  0  0  0  0  0  0  0  0  0  # atno 10167 bound_to 10162
  156.6672  130.9069  151.3038 H   0  0  0  0  0  0  0  0  0  0  0  0  # atno 10718 bound_to 10713
  153.2676  135.6929  153.7514 H   0  0  0  0  0  0  0  0  0  0  0  0  # atno 10763 bound_to 10752
  153.6549  135.3370  155.3111 H   0  0  0  0  0  0  0  0  0  0  0  0  # atno 10764 bound_to 10752
  154.8452  135.4463  154.1688 H   0  0  0  0  0  0  0  0  0  0  0  0  # atno 10765 bound_to 10752
  139.9631  134.9597  156.9188 H   0  0  0  0  0  0  0  0  0  0  0  0  # atno 11005 bound_to 11000
  146.3103  139.7724  142.9024 LP  0  0  0  0  0  0  0  0  0  0  0  0  # atno 17320 bound_to 7965
  145.3631  141.0329  143.3273 LP  0  0  0  0  0  0  0  0  0  0  0  0  # atno 17321 bound_to 7965
  139.6501  144.0379  152.2620 LP  0  0  0  0  0  0  0  0  0  0  0  0  # atno 17342 bound_to 10162
  139.9912  144.6360  150.7813 LP  0  0  0  0  0  0  0  0  0  0  0  0  # atno 17343 bound_to 10162
  157.7089  130.9417  150.1024 LP  0  0  0  0  0  0  0  0  0  0  0  0  # atno 17370 bound_to 10713
  156.1966  130.3657  149.8841 LP  0  0  0  0  0  0  0  0  0  0  0  0  # atno 17371 bound_to 10713
  140.5456  134.0677  155.7354 LP  0  0  0  0  0  0  0  0  0  0  0  0  # atno 17394 bound_to 11000
  141.1309  133.9303  157.2537 LP  0  0  0  0  0  0  0  0  0  0  0  0  # atno 17395 bound_to 11000

$$$$
