AV-unprocessed.smi:2528|AV-procd|sdf|9951|dock7
  -GOLD-   2272013593D 1   1.00000     0.00000
 Structure written by MMmdl.
 44 46  0  0  0  0  0  0  0  0  2 V2000
  148.5208  134.2095  158.6606 O   0  0  0  0  0  0  0  0  0  0  0  0
  148.3698  135.4117  158.4416 C   0  0  0  0  0  0  0  0  0  0  0  0
  148.7236  136.0014  157.2904 N   0  0  0  0  0  0  0  0  0  0  0  0
  149.3047  135.3153  156.1410 C   0  0  0  0  0  0  0  0  0  0  0  0
  149.7558  136.3092  155.0559 C   0  0  1  0  0  0  0  0  0  0  0  0
  148.7249  137.4326  154.8440 C   0  0  0  0  0  0  0  0  0  0  0  0
  149.2145  138.4045  153.8354 N   0  3  1  0  0  0  0  0  0  0  0  0
  148.2457  139.4875  153.5230 C   0  0  0  0  0  0  0  0  0  0  0  0
  148.1732  140.5458  154.6401 C   0  0  0  0  0  0  0  0  0  0  0  0
  149.5655  141.1061  154.9606 C   0  0  0  0  0  0  0  0  0  0  0  0
  150.5382  139.9649  155.2904 C   0  0  0  0  0  0  0  0  0  0  0  0
  150.5748  138.9204  154.1532 C   0  0  1  0  0  0  0  0  0  0  0  0
  151.5323  137.7498  154.4508 C   0  0  0  0  0  0  0  0  0  0  0  0
  150.9846  136.9070  155.4563 O   0  0  0  0  0  0  0  0  0  0  0  0
  147.8295  136.2973  159.2967 N   0  0  0  0  0  0  0  0  0  0  0  0
  147.3274  136.0601  160.6041 C   0  0  0  0  0  0  0  0  0  0  0  0
  146.9694  134.7198  160.8733 C   0  0  0  0  0  0  0  0  0  0  0  0
  146.4624  134.3797  162.1425 C   0  0  0  0  0  0  0  0  0  0  0  0
  146.3231  135.3907  163.1098 C   0  0  0  0  0  0  0  0  0  0  0  0
  146.6997  136.7003  162.7595 C   0  0  0  0  0  0  0  0  0  0  0  0
  147.1884  137.0281  161.5446 N   0  0  0  0  0  0  0  0  0  0  0  0
  148.5690  136.9947  157.1976 H   0  0  0  0  0  0  0  0  0  0  0  0
  150.1651  134.7511  156.5014 H   0  0  0  0  0  0  0  0  0  0  0  0
  148.6080  134.5824  155.7302 H   0  0  0  0  0  0  0  0  0  0  0  0
  149.8999  135.7663  154.1194 H   0  0  0  0  0  0  0  0  0  0  0  0
  147.7797  137.0078  154.5043 H   0  0  0  0  0  0  0  0  0  0  0  0
  148.5232  137.9338  155.7907 H   0  0  0  0  0  0  0  0  0  0  0  0
  148.5571  139.9651  152.5932 H   0  0  0  0  0  0  0  0  0  0  0  0
  147.2590  139.0625  153.3339 H   0  0  0  0  0  0  0  0  0  0  0  0
  147.5102  141.3568  154.3373 H   0  0  0  0  0  0  0  0  0  0  0  0
  147.7328  140.1148  155.5395 H   0  0  0  0  0  0  0  0  0  0  0  0
  149.9387  141.6717  154.1058 H   0  0  0  0  0  0  0  0  0  0  0  0
  149.5074  141.8055  155.7951 H   0  0  0  0  0  0  0  0  0  0  0  0
  151.5361  140.3742  155.4514 H   0  0  0  0  0  0  0  0  0  0  0  0
  150.2487  139.4947  156.2308 H   0  0  0  0  0  0  0  0  0  0  0  0
  150.9437  139.4251  153.2591 H   0  0  0  0  0  0  0  0  0  0  0  0
  151.7214  137.1676  153.5473 H   0  0  0  0  0  0  0  0  0  0  0  0
  152.4994  138.1239  154.7876 H   0  0  0  0  0  0  0  0  0  0  0  0
  147.7589  137.2503  158.9723 H   0  0  0  0  0  0  0  0  0  0  0  0
  147.0825  133.9552  160.1184 H   0  0  0  0  0  0  0  0  0  0  0  0
  146.1853  133.3606  162.3686 H   0  0  0  0  0  0  0  0  0  0  0  0
  145.9373  135.1689  164.0938 H   0  0  0  0  0  0  0  0  0  0  0  0
  146.6065  137.5058  163.4727 H   0  0  0  0  0  0  0  0  0  0  0  0
  149.3148  137.8703  152.9841 H   0  0  0  0  0  0  0  0  0  0  0  0
  1  2  2  0  0  0  0
  2  3  1  0  0  0  0
  2 15  1  0  0  0  0
  3  4  1  0  0  0  0
  3 22  1  0  0  0  0
  4  5  1  0  0  0  0
  4 23  1  0  0  0  0
  4 24  1  0  0  0  0
  5 14  1  0  0  0  0
  5  6  1  0  0  0  0
  5 25  1  0  0  0  0
  6  7  1  0  0  0  0
  6 26  1  0  0  0  0
  6 27  1  0  0  0  0
  7 12  1  0  0  0  0
  7  8  1  0  0  0  0
  7 44  1  0  0  0  0
  8  9  1  0  0  0  0
  8 28  1  0  0  0  0
  8 29  1  0  0  0  0
  9 10  1  0  0  0  0
  9 30  1  0  0  0  0
  9 31  1  0  0  0  0
 10 11  1  0  0  0  0
 10 32  1  0  0  0  0
 10 33  1  0  0  0  0
 11 12  1  0  0  0  0
 11 34  1  0  0  0  0
 11 35  1  0  0  0  0
 12 13  1  0  0  0  0
 12 36  1  0  0  0  0
 13 14  1  0  0  0  0
 13 37  1  0  0  0  0
 13 38  1  0  0  0  0
 15 16  1  0  0  0  0
 15 39  1  0  0  0  0
 16 21  1  0  0  0  0
 16 17  2  0  0  0  0
 17 18  1  0  0  0  0
 17 40  1  0  0  0  0
 18 19  2  0  0  0  0
 18 41  1  0  0  0  0
 19 20  1  0  0  0  0
 19 42  1  0  0  0  0
 20 21  2  0  0  0  0
 20 43  1  0  0  0  0
M  CHG  1   7   1
M  END
> <s_m_source_file>
AV-unprocessed.smi

> <i_m_source_file_index>
2528

> <i_lp_mmshare_version>
43012

> <i_f3d_flags>
0

> <s_epik_input>
bjFbY0hdW2NIXVtjSF1bY0hdYzFbTkhdQyg9TylbTkhdW0NIMl1bQ0BIXShbQ0gyXTIpT1tDSDJdW0NAQEhdKE4yMylbQ0gyXVtDSDJdW0NIMl1bQ0gyXTM=

> <s_epik_cmdline>
J2VwaWtfcHl0aG9uJywgJy1waCcsICc3LjAnLCAnLXRuJywgJzgnLCAnLW1hJywgJzIwMCcsICctbWV0YWxfYmluZGluZycsICctaW1hZScsICc8aW5maWxlLm1hZT4nLCAnLW9tYWUnLCAnPG91dGZpbGUubWFlPic=

> <r_epik_Ionization_Penalty>
0.0932337

> <r_epik_Ionization_Penalty_Charging>
0.0931942

> <r_epik_Ionization_Penalty_Neutral>
3.9565e-05

> <r_epik_State_Penalty>
0.0834605

> <r_epik_Charging_Adjusted_Penalty>
0.176655

> <i_epik_Tot_Q>
1

> <i_epik_Tot_abs_Q>
1

> <r_epik_Metal_State_Penalty>
0.0834607

> <b_epik_Metal_Only>
0

> <s_lp_Force_Field>
OPLS_2005

> <r_lp_Energy>
26.7775

> <b_lp_Chiralities_Consistent>
1

> <s_lp_Variant>
AV-unprocessed.smi:2528-4

> <Gold.Version>
5.8.1

> <Gold.Id.Protein>
6NUR|6NUR_protein|mol2

> <Gold.PLP.Fitness>
48.8229

> <Gold.PLP.PLP>
-35.5313

> <Gold.PLP.part.hbond>
-4.5447

> <Gold.PLP.part.metal>
0.0000

> <Gold.PLP.part.buried>
0.8440

> <Gold.PLP.part.nonpolar>
-31.8276

> <Gold.PLP.part.repulsive>
0.3465

> <Gold.PLP.ligand.clash>
0.0000

> <Gold.PLP.ligand.torsion>
0.2718

> <Gold.PLP.Chemscore.Hbond>
4.6115

> <Gold.PLP.Chemscore.CHOScore>
0.0000

> <Gold.PLP.Chemscore.Metal>
0.0000

> <Gold.Chemscore.Hbonds>
donor molecule, donor type, donor heavy atom, donor atom, acceptor molecule, acceptor atom, score
      L1  H     7    44       P1  7948  2.00
      P1  H  6896  6909       L1     1  0.41
      P1  H  6931  6943       L1    21  0.45
      P1  H  6934  6947       L1    21  0.86

> <Gold.PLP.Chemscore.Internal.Correction>
0.0006

> <Gold.Rescore>
     Score         DG    S(hbond)    S(metal)    S(lipo)     H(rot)  DE(clash)    DE(int)     intcor
     20.93     -23.19       3.13        0.00      90.26       1.29       0.46       1.80       ----

> <Gold.Chemscore.Fitness>
20.9256

> <Gold.Chemscore.DG>
-23.1873

> <Gold.Chemscore.ZeroCoef>
-5.4800

> <Gold.Chemscore.Hbond>
3.1264

> <Gold.Chemscore.Metal>
0.0000

> <Gold.Chemscore.Lipo>
90.2561

> <Gold.Chemscore.Internal_Hbond>
0.0000

> <Gold.Chemscore.DEClash>
0.4624

> <Gold.Chemscore.DEInternal>
1.7993

> <Gold.Chemscore.Rot>
1.2870

> <Gold.Chemscore.Internal.Correction>
   9.000000E+99

> <Gold.Chemscore.Hbonds>
donor molecule, donor type, donor heavy atom, donor atom, acceptor molecule, acceptor atom, score
      L1  H     7    44       P1  7948  0.90
      P1  H  6896  6909       L1     1  0.21
      P1  H  6931  6943       L1    21  0.21
      P1  H  6934  6947       L1    21  0.75

> <Gold.Chemscore.Hbond.Weighted>
-10.4422

> <Gold.Chemscore.Metal.Weighted>
-0.0000

> <Gold.Chemscore.Lipo.Weighted>
-10.5600

> <Gold.Chemscore.Internal_Hbond.Weighted>
0.0000

> <Gold.Chemscore.DEClash.Weighted>
0.4624

> <Gold.Chemscore.DEInternal.Weighted>
1.7993

> <Gold.Chemscore.Rot.Weighted>
3.2948

> <Gold.Chemscore.Internal.Correction.Weighted>
   9.000000E+99

> <Gold.Protein.RotatedTorsions>
[ 6907 6896 6895 6894 ] final   13.48 input  -60.11 | X-H torsion
[ 7974 7965 7964 7962 ] final   37.70 input  175.53 | X-H torsion
[ 8008 7997 7996 7995 ] final  -42.90 input   59.86 | X-H torsion
[ 10167 10162 10161 10158 ] final  -84.14 input  -65.29 | X-H torsion
[ 10718 10713 10712 10709 ] final   93.39 input   66.30 | X-H torsion
[ 10763 10752 10751 10750 ] final  -19.69 input  -60.55 | X-H torsion
[ 11005 11000 10999 10996 ] final  166.12 input  -57.11 | X-H torsion

> <Gold.Protein.ActiveResidues>
 VAL166  LYS551  ARG553  GLY616  TRP617  ASP618  TYR619  PRO620  LYS621  CYS622 
 ASP623  PHE694  ASN695  SER759  ASP760  ASP761  ALA762  ILE779  LEU786  VAL792 
 PHE793  MET794  SER795  GLU796  ALA797  LYS798  CYS799  TRP800  GLU811  SER814 

> <Gold.Protein.RotatedAtoms>
  151.7870  135.0746  160.0381 H   0  0  0  0  0  0  0  0  0  0  0  0  # atno 6907 bound_to 6896
  152.3183  133.5822  159.5735 H   0  0  0  0  0  0  0  0  0  0  0  0  # atno 6908 bound_to 6896
  150.7356  133.9965  159.3666 H   0  0  0  0  0  0  0  0  0  0  0  0  # atno 6909 bound_to 6896
  146.1117  139.5861  142.9347 H   0  0  0  0  0  0  0  0  0  0  0  0  # atno 7974 bound_to 7965
  154.3997  140.1461  156.3430 H   0  0  0  0  0  0  0  0  0  0  0  0  # atno 8008 bound_to 7997
  155.8339  140.3464  155.5568 H   0  0  0  0  0  0  0  0  0  0  0  0  # atno 8009 bound_to 7997
  155.8159  140.0891  157.1867 H   0  0  0  0  0  0  0  0  0  0  0  0  # atno 8010 bound_to 7997
  140.4160  143.2603  151.8954 H   0  0  0  0  0  0  0  0  0  0  0  0  # atno 10167 bound_to 10162
  157.6955  131.0476  150.4027 H   0  0  0  0  0  0  0  0  0  0  0  0  # atno 10718 bound_to 10713
  153.6087  135.6997  153.5355 H   0  0  0  0  0  0  0  0  0  0  0  0  # atno 10763 bound_to 10752
  153.3035  135.4122  155.1273 H   0  0  0  0  0  0  0  0  0  0  0  0  # atno 10764 bound_to 10752
  154.8568  135.3654  154.5625 H   0  0  0  0  0  0  0  0  0  0  0  0  # atno 10765 bound_to 10752
  140.2631  134.7886  157.3608 H   0  0  0  0  0  0  0  0  0  0  0  0  # atno 11005 bound_to 11000
  145.5649  141.0400  143.2206 LP  0  0  0  0  0  0  0  0  0  0  0  0  # atno 17320 bound_to 7965
  144.7518  139.7175  143.7270 LP  0  0  0  0  0  0  0  0  0  0  0  0  # atno 17321 bound_to 7965
  139.4782  144.5487  151.8419 LP  0  0  0  0  0  0  0  0  0  0  0  0  # atno 17342 bound_to 10162
  140.4586  144.1754  150.5904 LP  0  0  0  0  0  0  0  0  0  0  0  0  # atno 17343 bound_to 10162
  156.4419  130.3993  149.6692 LP  0  0  0  0  0  0  0  0  0  0  0  0  # atno 17370 bound_to 10713
  156.3872  130.7609  151.2607 LP  0  0  0  0  0  0  0  0  0  0  0  0  # atno 17371 bound_to 10713
  140.1445  134.4929  155.8006 LP  0  0  0  0  0  0  0  0  0  0  0  0  # atno 17394 bound_to 11000
  141.2187  133.6838  156.7269 LP  0  0  0  0  0  0  0  0  0  0  0  0  # atno 17395 bound_to 11000

$$$$
