AV-unprocessed.smi:1138|AV-procd|sdf|4868|dock4
  -GOLD-   22720 3433D 1   1.00000     0.00000
 Structure written by MMmdl.
 49 51  0  0  0  0  0  0  0  0  1 V2000
  145.5798  131.7459  151.7853 C   0  0  0  0  0  0  0  0  0  0  0  0
  144.6409  132.7450  151.2850 N   0  0  0  0  0  0  0  0  0  0  0  0
  143.4870  132.3224  150.5006 C   0  0  0  0  0  0  0  0  0  0  0  0
  144.7460  134.0857  151.7217 C   0  0  0  0  0  0  0  0  0  0  0  0
  143.6362  134.9658  151.6814 C   0  0  0  0  0  0  0  0  0  0  0  0
  143.7913  136.2893  152.1350 C   0  0  0  0  0  0  0  0  0  0  0  0
  145.0418  136.7089  152.6267 C   0  0  0  0  0  0  0  0  0  0  0  0
  145.1702  138.0535  153.0681 N   0  0  0  0  0  0  0  0  0  0  0  0
  146.2186  138.6361  153.6749 C   0  0  0  0  0  0  0  0  0  0  0  0
  147.2777  138.0771  153.9596 O   0  0  0  0  0  0  0  0  0  0  0  0
  145.9621  139.9212  153.9580 N   0  0  0  0  0  0  0  0  0  0  0  0
  146.8771  140.8309  154.6412 C   0  0  0  0  0  0  0  0  0  0  0  0
  148.1845  140.9601  153.8308 C   0  0  0  0  0  0  0  0  0  0  0  0
  149.2458  141.7649  154.6029 C   0  0  0  0  0  0  0  0  0  0  0  0
  149.4685  141.1244  155.9053 N   0  0  0  0  0  0  0  0  0  0  0  0
  150.6262  140.4905  156.2194 C   0  0  0  0  0  0  0  0  0  0  0  0
  151.6056  140.5045  155.4720 O   0  0  0  0  0  0  0  0  0  0  0  0
  150.6648  139.7409  157.5163 C   0  0  0  0  0  0  0  0  0  0  0  0
  151.6128  140.2588  158.5777 C   0  0  0  0  0  0  0  0  0  0  0  0
  151.9237  138.9680  157.8670 C   0  0  0  0  0  0  0  0  0  0  0  0
  148.2624  141.1885  156.7430 C   0  0  0  0  0  0  0  0  0  0  0  0
  147.1540  140.3490  156.0838 C   0  0  0  0  0  0  0  0  0  0  0  0
  146.0983  135.7687  152.6131 C   0  0  0  0  0  0  0  0  0  0  0  0
  145.9540  134.4995  152.1771 N   0  0  0  0  0  0  0  0  0  0  0  0
  146.6050  132.0245  151.5399 H   0  0  0  0  0  0  0  0  0  0  0  0
  145.3891  130.7662  151.3475 H   0  0  0  0  0  0  0  0  0  0  0  0
  145.4962  131.6515  152.8687 H   0  0  0  0  0  0  0  0  0  0  0  0
  143.4731  132.8294  149.5354 H   0  0  0  0  0  0  0  0  0  0  0  0
  142.5601  132.5479  151.0290 H   0  0  0  0  0  0  0  0  0  0  0  0
  143.5083  131.2491  150.3109 H   0  0  0  0  0  0  0  0  0  0  0  0
  142.6709  134.6540  151.3126 H   0  0  0  0  0  0  0  0  0  0  0  0
  142.9532  136.9706  152.1097 H   0  0  0  0  0  0  0  0  0  0  0  0
  144.3413  138.6215  152.9716 H   0  0  0  0  0  0  0  0  0  0  0  0
  145.0639  140.2967  153.6912 H   0  0  0  0  0  0  0  0  0  0  0  0
  146.4235  141.8228  154.6916 H   0  0  0  0  0  0  0  0  0  0  0  0
  148.5825  139.9685  153.6089 H   0  0  0  0  0  0  0  0  0  0  0  0
  147.9842  141.4350  152.8697 H   0  0  0  0  0  0  0  0  0  0  0  0
  150.1549  141.8431  154.0052 H   0  0  0  0  0  0  0  0  0  0  0  0
  148.9039  142.7897  154.7556 H   0  0  0  0  0  0  0  0  0  0  0  0
  149.7303  139.2900  157.8455 H   0  0  0  0  0  0  0  0  0  0  0  0
  152.2296  141.1235  158.3376 H   0  0  0  0  0  0  0  0  0  0  0  0
  151.2729  140.2077  159.6097 H   0  0  0  0  0  0  0  0  0  0  0  0
  151.7945  138.0393  158.4191 H   0  0  0  0  0  0  0  0  0  0  0  0
  152.7643  138.9754  157.1756 H   0  0  0  0  0  0  0  0  0  0  0  0
  148.4203  140.8658  157.7711 H   0  0  0  0  0  0  0  0  0  0  0  0
  147.9387  142.2274  156.8210 H   0  0  0  0  0  0  0  0  0  0  0  0
  146.2432  140.4047  156.6811 H   0  0  0  0  0  0  0  0  0  0  0  0
  147.4551  139.3002  156.0749 H   0  0  0  0  0  0  0  0  0  0  0  0
  147.0957  136.0220  152.9363 H   0  0  0  0  0  0  0  0  0  0  0  0
  1  2  1  0  0  0  0
  1 25  1  0  0  0  0
  1 26  1  0  0  0  0
  1 27  1  0  0  0  0
  2  3  1  0  0  0  0
  2  4  1  0  0  0  0
  3 28  1  0  0  0  0
  3 29  1  0  0  0  0
  3 30  1  0  0  0  0
  4 24  1  0  0  0  0
  4  5  2  0  0  0  0
  5  6  1  0  0  0  0
  5 31  1  0  0  0  0
  6  7  2  0  0  0  0
  6 32  1  0  0  0  0
  7  8  1  0  0  0  0
  7 23  1  0  0  0  0
  8  9  1  0  0  0  0
  8 33  1  0  0  0  0
  9 10  2  0  0  0  0
  9 11  1  0  0  0  0
 11 12  1  0  0  0  0
 11 34  1  0  0  0  0
 12 22  1  0  0  0  0
 12 13  1  0  0  0  0
 12 35  1  0  0  0  0
 13 14  1  0  0  0  0
 13 36  1  0  0  0  0
 13 37  1  0  0  0  0
 14 15  1  0  0  0  0
 14 38  1  0  0  0  0
 14 39  1  0  0  0  0
 15 16  1  0  0  0  0
 15 21  1  0  0  0  0
 16 17  2  0  0  0  0
 16 18  1  0  0  0  0
 18 20  1  0  0  0  0
 18 19  1  0  0  0  0
 18 40  1  0  0  0  0
 19 20  1  0  0  0  0
 19 41  1  0  0  0  0
 19 42  1  0  0  0  0
 20 43  1  0  0  0  0
 20 44  1  0  0  0  0
 21 22  1  0  0  0  0
 21 45  1  0  0  0  0
 21 46  1  0  0  0  0
 22 47  1  0  0  0  0
 22 48  1  0  0  0  0
 23 24  2  0  0  0  0
 23 49  1  0  0  0  0
M  END
> <s_m_source_file>
AV-unprocessed.smi

> <i_m_source_file_index>
1138

> <i_lp_mmshare_version>
43012

> <i_f3d_flags>
0

> <s_epik_input>
W0NIM11OKFtDSDNdKWMxW2NIXVtjSF1jKFtjSF1uMSlbTkhdQyg9TylbTkhdW0NIXTJbQ0gyXVtDSDJdTihbQ0gyXVtDSDJdMilDKD1PKVtDSF0zW0NIMl1bQ0gyXTM=

> <s_epik_cmdline>
J2VwaWtfcHl0aG9uJywgJy1waCcsICc3LjAnLCAnLXRuJywgJzgnLCAnLW1hJywgJzIwMCcsICctbWV0YWxfYmluZGluZycsICctaW1hZScsICc8aW5maWxlLm1hZT4nLCAnLW9tYWUnLCAnPG91dGZpbGUubWFlPic=

> <r_lp_tautomer_probability>
1

> <r_epik_Ionization_Penalty>
0.622325

> <r_epik_Ionization_Penalty_Charging>
0

> <r_epik_Ionization_Penalty_Neutral>
0.622325

> <r_epik_State_Penalty>
0.637335

> <r_epik_Charging_Adjusted_Penalty>
0.637335

> <i_epik_Tot_Q>
0

> <i_epik_Tot_abs_Q>
0

> <r_epik_Metal_State_Penalty>
0.306682

> <b_epik_Metal_Only>
0

> <s_lp_Force_Field>
OPLS_2005

> <r_lp_Energy>
33.2088

> <b_lp_Chiralities_Consistent>
1

> <s_lp_Variant>
AV-unprocessed.smi:1138-2

> <Gold.Version>
5.8.1

> <Gold.Id.Protein>
6NUR|6NUR_protein|mol2

> <Gold.PLP.Fitness>
44.8286

> <Gold.PLP.PLP>
-34.0358

> <Gold.PLP.part.hbond>
-3.0000

> <Gold.PLP.part.metal>
0.0000

> <Gold.PLP.part.buried>
-1.8645

> <Gold.PLP.part.nonpolar>
-29.1354

> <Gold.PLP.part.repulsive>
0.2684

> <Gold.PLP.ligand.clash>
0.0000

> <Gold.PLP.ligand.torsion>
0.2356

> <Gold.PLP.Chemscore.Hbond>
2.7120

> <Gold.PLP.Chemscore.CHOScore>
1.0000

> <Gold.PLP.Chemscore.Metal>
0.0000

> <Gold.Chemscore.Hbonds>
donor molecule, donor type, donor heavy atom, donor atom, acceptor molecule, acceptor atom, score
      L1  H     8    33       P1 10175  0.90
      L1  H    11    34       P1 10175  1.00
      P1  H  7989  7998       L1    17  0.78
      L1  C    23    49       P1  7948  1.00

> <Gold.PLP.Chemscore.Internal.Correction>
0.1281

> <Gold.Rescore>
     Score         DG    S(hbond)    S(metal)    S(lipo)     H(rot)  DE(clash)    DE(int)     intcor
     17.18     -19.98       2.73        0.00      72.25       1.20       0.52       2.28       ----

> <Gold.Chemscore.Fitness>
17.1830

> <Gold.Chemscore.DG>
-19.9775

> <Gold.Chemscore.ZeroCoef>
-5.4800

> <Gold.Chemscore.Hbond>
2.7271

> <Gold.Chemscore.Metal>
0.0000

> <Gold.Chemscore.Lipo>
72.2474

> <Gold.Chemscore.Internal_Hbond>
0.0000

> <Gold.Chemscore.DEClash>
0.5165

> <Gold.Chemscore.DEInternal>
2.2779

> <Gold.Chemscore.Rot>
1.1969

> <Gold.Chemscore.Internal.Correction>
   9.000000E+99

> <Gold.Chemscore.Hbonds>
donor molecule, donor type, donor heavy atom, donor atom, acceptor molecule, acceptor atom, score
      L1  H     8    33       P1 10175  0.84
      L1  H    11    34       P1 10175  0.96
      P1  H  7989  7998       L1    17  0.75

> <Gold.Chemscore.Hbond.Weighted>
-9.1087

> <Gold.Chemscore.Metal.Weighted>
-0.0000

> <Gold.Chemscore.Lipo.Weighted>
-8.4529

> <Gold.Chemscore.Internal_Hbond.Weighted>
0.0000

> <Gold.Chemscore.DEClash.Weighted>
0.5165

> <Gold.Chemscore.DEInternal.Weighted>
2.2779

> <Gold.Chemscore.Rot.Weighted>
3.0641

> <Gold.Chemscore.Internal.Correction.Weighted>
   9.000000E+99

> <Gold.Protein.RotatedTorsions>
[ 6907 6896 6895 6894 ] final  171.72 input  -60.11 | X-H torsion
[ 7974 7965 7964 7962 ] final  -18.46 input  175.53 | X-H torsion
[ 8008 7997 7996 7995 ] final   45.79 input   59.86 | X-H torsion
[ 10167 10162 10161 10158 ] final -103.83 input  -65.29 | X-H torsion
[ 10718 10713 10712 10709 ] final   43.15 input   66.30 | X-H torsion
[ 10763 10752 10751 10750 ] final   25.91 input  -60.55 | X-H torsion
[ 11005 11000 10999 10996 ] final   93.79 input  -57.11 | X-H torsion

> <Gold.Protein.ActiveResidues>
 VAL166  LYS551  ARG553  GLY616  TRP617  ASP618  TYR619  PRO620  LYS621  CYS622 
 ASP623  PHE694  ASN695  SER759  ASP760  ASP761  ALA762  ILE779  LEU786  VAL792 
 PHE793  MET794  SER795  GLU796  ALA797  LYS798  CYS799  TRP800  GLU811  SER814 

> <Gold.Protein.RotatedAtoms>
  151.7958  133.3364  159.3512 H   0  0  0  0  0  0  0  0  0  0  0  0  # atno 6907 bound_to 6896
  150.7376  134.5800  159.5943 H   0  0  0  0  0  0  0  0  0  0  0  0  # atno 6908 bound_to 6896
  152.3178  134.7419  160.0372 H   0  0  0  0  0  0  0  0  0  0  0  0  # atno 6909 bound_to 6896
  146.1891  140.3925  142.8465 H   0  0  0  0  0  0  0  0  0  0  0  0  # atno 7974 bound_to 7965
  155.3418  140.3408  155.4239 H   0  0  0  0  0  0  0  0  0  0  0  0  # atno 8008 bound_to 7997
  156.1809  140.1664  156.8311 H   0  0  0  0  0  0  0  0  0  0  0  0  # atno 8009 bound_to 7997
  154.5333  140.0740  156.8366 H   0  0  0  0  0  0  0  0  0  0  0  0  # atno 8010 bound_to 7997
  140.2158  143.3712  152.1012 H   0  0  0  0  0  0  0  0  0  0  0  0  # atno 10167 bound_to 10162
  157.4127  130.7923  149.7444 H   0  0  0  0  0  0  0  0  0  0  0  0  # atno 10718 bound_to 10713
  153.0659  135.6572  154.0356 H   0  0  0  0  0  0  0  0  0  0  0  0  # atno 10763 bound_to 10752
  154.0013  135.2937  155.3404 H   0  0  0  0  0  0  0  0  0  0  0  0  # atno 10764 bound_to 10752
  154.7016  135.5242  153.8604 H   0  0  0  0  0  0  0  0  0  0  0  0  # atno 10765 bound_to 10752
  139.8806  134.8810  156.3770 H   0  0  0  0  0  0  0  0  0  0  0  0  # atno 11005 bound_to 11000
  144.8452  140.6918  143.6204 LP  0  0  0  0  0  0  0  0  0  0  0  0  # atno 17320 bound_to 7965
  145.3849  139.1629  143.4260 LP  0  0  0  0  0  0  0  0  0  0  0  0  # atno 17321 bound_to 7965
  139.5162  144.6975  151.5589 LP  0  0  0  0  0  0  0  0  0  0  0  0  # atno 17342 bound_to 10162
  140.6291  143.9111  150.6590 LP  0  0  0  0  0  0  0  0  0  0  0  0  # atno 17343 bound_to 10162
  155.9855  130.3982  150.3256 LP  0  0  0  0  0  0  0  0  0  0  0  0  # atno 17370 bound_to 10713
  157.1396  131.0293  151.2934 LP  0  0  0  0  0  0  0  0  0  0  0  0  # atno 17371 bound_to 10713
  140.9425  133.7505  156.0165 LP  0  0  0  0  0  0  0  0  0  0  0  0  # atno 17394 bound_to 11000
  140.8202  134.3298  157.5384 LP  0  0  0  0  0  0  0  0  0  0  0  0  # atno 17395 bound_to 11000

$$$$
