AV-unprocessed.smi:1484|AV-procd|sdf|6000|dock7
  -GOLD-   22720 6 93D 1   1.00000     0.00000
 Structure written by MMmdl.
 38 39  0  0  0  0  0  0  0  0  1 V2000
  153.0998  142.6633  162.4958 C   0  0  0  0  0  0  0  0  0  0  0  0
  152.4428  142.9970  161.1494 C   0  0  1  0  0  0  0  0  0  0  0  0
  151.9345  144.4510  161.1140 C   0  0  0  0  0  0  0  0  0  0  0  0
  151.2818  144.7921  159.7645 C   0  0  0  0  0  0  0  0  0  0  0  0
  152.2352  144.5101  158.5890 C   0  0  0  0  0  0  0  0  0  0  0  0
  152.7615  143.0618  158.6037 C   0  0  2  0  0  0  0  0  0  0  0  0
  151.6759  142.1346  158.2934 N   0  0  0  0  0  0  0  0  0  0  0  0
  151.7984  140.8089  158.1310 C   0  0  0  0  0  0  0  0  0  0  0  0
  152.8774  140.2174  158.1433 O   0  0  0  0  0  0  0  0  0  0  0  0
  150.4925  140.0327  157.9398 C   0  0  0  0  0  0  0  0  0  0  0  0
  149.8441  140.4050  156.6760 N   0  0  0  0  0  0  0  0  0  0  0  0
  150.0171  139.4717  155.6639 N   0  0  0  0  0  0  0  0  0  0  0  0
  149.5375  139.6978  154.4882 C   0  0  0  0  0  0  0  0  0  0  0  0
  149.7393  138.7496  153.5157 O   0  0  0  0  0  0  0  0  0  0  0  0
  148.8086  140.9126  154.1986 C   0  0  0  0  0  0  0  0  0  0  0  0
  148.6412  141.8139  155.1910 C   0  0  0  0  0  0  0  0  0  0  0  0
  149.1779  141.5922  156.5351 C   0  0  0  0  0  0  0  0  0  0  0  0
  149.0480  142.4016  157.4528 O   0  0  0  0  0  0  0  0  0  0  0  0
  153.4051  142.7365  159.9714 C   0  0  0  0  0  0  0  0  0  0  0  0
  149.9140  139.2353  152.7244 H   0  0  0  0  0  0  0  0  0  0  0  0
  153.9719  143.2917  162.6793 H   0  0  0  0  0  0  0  0  0  0  0  0
  153.4258  141.6232  162.5252 H   0  0  0  0  0  0  0  0  0  0  0  0
  152.4017  142.8122  163.3201 H   0  0  0  0  0  0  0  0  0  0  0  0
  151.5820  142.3355  161.0398 H   0  0  0  0  0  0  0  0  0  0  0  0
  151.2159  144.6148  161.9179 H   0  0  0  0  0  0  0  0  0  0  0  0
  152.7637  145.1354  161.2979 H   0  0  0  0  0  0  0  0  0  0  0  0
  150.3653  144.2130  159.6457 H   0  0  0  0  0  0  0  0  0  0  0  0
  150.9835  145.8409  159.7541 H   0  0  0  0  0  0  0  0  0  0  0  0
  151.7352  144.7213  157.6428 H   0  0  0  0  0  0  0  0  0  0  0  0
  153.0802  145.1974  158.6447 H   0  0  0  0  0  0  0  0  0  0  0  0
  153.5195  142.9663  157.8242 H   0  0  0  0  0  0  0  0  0  0  0  0
  150.7460  142.5263  158.2580 H   0  0  0  0  0  0  0  0  0  0  0  0
  150.6943  138.9598  157.9584 H   0  0  0  0  0  0  0  0  0  0  0  0
  149.8353  140.2184  158.7911 H   0  0  0  0  0  0  0  0  0  0  0  0
  148.4109  141.0861  153.2094 H   0  0  0  0  0  0  0  0  0  0  0  0
  148.0984  142.7254  154.9884 H   0  0  0  0  0  0  0  0  0  0  0  0
  154.2996  143.3485  160.0955 H   0  0  0  0  0  0  0  0  0  0  0  0
  153.7495  141.7021  159.9922 H   0  0  0  0  0  0  0  0  0  0  0  0
  1  2  1  0  0  0  0
  1 21  1  0  0  0  0
  1 22  1  0  0  0  0
  1 23  1  0  0  0  0
  2 19  1  0  0  0  0
  2  3  1  0  0  0  0
  2 24  1  0  0  0  0
  3  4  1  0  0  0  0
  3 25  1  0  0  0  0
  3 26  1  0  0  0  0
  4  5  1  0  0  0  0
  4 27  1  0  0  0  0
  4 28  1  0  0  0  0
  5  6  1  0  0  0  0
  5 29  1  0  0  0  0
  5 30  1  0  0  0  0
  6  7  1  0  0  0  0
  6 19  1  0  0  0  0
  6 31  1  0  0  0  0
  7  8  1  0  0  0  0
  7 32  1  0  0  0  0
  8  9  2  0  0  0  0
  8 10  1  0  0  0  0
 10 33  1  0  0  0  0
 10 34  1  0  0  0  0
 10 11  1  0  0  0  0
 11 12  1  0  0  0  0
 11 17  1  0  0  0  0
 12 13  2  0  0  0  0
 13 14  1  0  0  0  0
 13 15  1  0  0  0  0
 14 20  1  0  0  0  0
 15 35  1  0  0  0  0
 15 16  2  0  0  0  0
 16 36  1  0  0  0  0
 16 17  1  0  0  0  0
 17 18  2  0  0  0  0
 19 37  1  0  0  0  0
 19 38  1  0  0  0  0
M  END
> <s_m_source_file>
AV-unprocessed.smi

> <i_m_source_file_index>
1484

> <i_lp_mmshare_version>
43012

> <i_f3d_flags>
0

> <s_epik_input>
W0NIM11bQ0BASF0xW0NIMl1bQ0gyXVtDSDJdW0NASF0oW0NIMl0xKVtOSF1DKD1PKVtDSDJdbjJbbkhdYyg9TylbY0hdW2NIXWMyPU8=

> <s_epik_cmdline>
J2VwaWtfcHl0aG9uJywgJy1waCcsICc3LjAnLCAnLXRuJywgJzgnLCAnLW1hJywgJzIwMCcsICctbWV0YWxfYmluZGluZycsICctaW1hZScsICc8aW5maWxlLm1hZT4nLCAnLW9tYWUnLCAnPG91dGZpbGUubWFlPic=

> <r_lp_tautomer_probability>
0.9996

> <r_epik_Ionization_Penalty>
2.10343

> <r_epik_Ionization_Penalty_Charging>
3.97871e-08

> <r_epik_Ionization_Penalty_Neutral>
2.10343

> <r_epik_State_Penalty>
1.67966

> <r_epik_Charging_Adjusted_Penalty>
1.67966

> <i_epik_Tot_Q>
0

> <i_epik_Tot_abs_Q>
0

> <r_epik_Metal_State_Penalty>
1.67966

> <b_epik_Metal_Only>
0

> <s_lp_Force_Field>
OPLS_2005

> <r_lp_Energy>
21.1153

> <b_lp_Chiralities_Consistent>
1

> <s_lp_Variant>
AV-unprocessed.smi:1484-8

> <Gold.Version>
5.8.1

> <Gold.Id.Protein>
6NUR|6NUR_protein|mol2

> <Gold.PLP.Fitness>
49.2791

> <Gold.PLP.PLP>
-43.8243

> <Gold.PLP.part.hbond>
-3.0000

> <Gold.PLP.part.metal>
0.0000

> <Gold.PLP.part.buried>
-3.3956

> <Gold.PLP.part.nonpolar>
-36.5299

> <Gold.PLP.part.repulsive>
0.6684

> <Gold.PLP.ligand.clash>
0.0000

> <Gold.PLP.ligand.torsion>
0.2645

> <Gold.PLP.Chemscore.Hbond>
1.9920

> <Gold.PLP.Chemscore.CHOScore>
0.0000

> <Gold.PLP.Chemscore.Metal>
0.0000

> <Gold.Chemscore.Hbonds>
donor molecule, donor type, donor heavy atom, donor atom, acceptor molecule, acceptor atom, score
      L1  H    14    20       P1  7957  1.00
      P1  H  7997  8010       L1     9  0.94

> <Gold.PLP.Chemscore.Internal.Correction>
0.0079

> <Gold.Rescore>
     Score         DG    S(hbond)    S(metal)    S(lipo)     H(rot)  DE(clash)    DE(int)     intcor
     16.22     -18.02       1.94        0.00     100.71       2.24       0.20       1.60       ----

> <Gold.Chemscore.Fitness>
16.2223

> <Gold.Chemscore.DG>
-18.0171

> <Gold.Chemscore.ZeroCoef>
-5.4800

> <Gold.Chemscore.Hbond>
1.9441

> <Gold.Chemscore.Metal>
0.0000

> <Gold.Chemscore.Lipo>
100.7146

> <Gold.Chemscore.Internal_Hbond>
0.0000

> <Gold.Chemscore.DEClash>
0.1964

> <Gold.Chemscore.DEInternal>
1.5985

> <Gold.Chemscore.Rot>
2.2421

> <Gold.Chemscore.Internal.Correction>
   9.000000E+99

> <Gold.Chemscore.Hbonds>
donor molecule, donor type, donor heavy atom, donor atom, acceptor molecule, acceptor atom, score
      L1  H    14    20       P1  7957  0.92
      P1  H  7997  8010       L1     9  0.84

> <Gold.Chemscore.Hbond.Weighted>
-6.4933

> <Gold.Chemscore.Metal.Weighted>
-0.0000

> <Gold.Chemscore.Lipo.Weighted>
-11.7836

> <Gold.Chemscore.Internal_Hbond.Weighted>
0.0000

> <Gold.Chemscore.DEClash.Weighted>
0.1964

> <Gold.Chemscore.DEInternal.Weighted>
1.5985

> <Gold.Chemscore.Rot.Weighted>
5.7398

> <Gold.Chemscore.Internal.Correction.Weighted>
   9.000000E+99

> <Gold.Protein.RotatedTorsions>
[ 6907 6896 6895 6894 ] final   49.90 input  -60.11 | X-H torsion
[ 7974 7965 7964 7962 ] final   25.03 input  175.53 | X-H torsion
[ 8008 7997 7996 7995 ] final   36.99 input   59.86 | X-H torsion
[ 10167 10162 10161 10158 ] final  -33.17 input  -65.29 | X-H torsion
[ 10718 10713 10712 10709 ] final  178.46 input   66.30 | X-H torsion
[ 10763 10752 10751 10750 ] final   46.07 input  -60.55 | X-H torsion
[ 11005 11000 10999 10996 ] final  174.64 input  -57.11 | X-H torsion

> <Gold.Protein.ActiveResidues>
 VAL166  LYS551  ARG553  GLY616  TRP617  ASP618  TYR619  PRO620  LYS621  CYS622 
 ASP623  PHE694  ASN695  SER759  ASP760  ASP761  ALA762  ILE779  LEU786  VAL792 
 PHE793  MET794  SER795  GLU796  ALA797  LYS798  CYS799  TRP800  GLU811  SER814 

> <Gold.Protein.RotatedAtoms>
  152.2959  134.7668  160.0367 H   0  0  0  0  0  0  0  0  0  0  0  0  # atno 6907 bound_to 6896
  151.8198  133.3388  159.3589 H   0  0  0  0  0  0  0  0  0  0  0  0  # atno 6908 bound_to 6896
  150.7251  134.5514  159.5841 H   0  0  0  0  0  0  0  0  0  0  0  0  # atno 6909 bound_to 6896
  146.1909  139.7522  142.8833 H   0  0  0  0  0  0  0  0  0  0  0  0  # atno 7974 bound_to 7965
  155.1964  140.3312  155.4350 H   0  0  0  0  0  0  0  0  0  0  0  0  # atno 8008 bound_to 7997
  156.2423  140.1901  156.7003 H   0  0  0  0  0  0  0  0  0  0  0  0  # atno 8009 bound_to 7997
  154.6171  140.0600  156.9554 H   0  0  0  0  0  0  0  0  0  0  0  0  # atno 8010 bound_to 7997
  140.7209  143.3640  151.1907 H   0  0  0  0  0  0  0  0  0  0  0  0  # atno 10167 bound_to 10162
  156.8902  130.9845  151.3050 H   0  0  0  0  0  0  0  0  0  0  0  0  # atno 10718 bound_to 10713
  152.9815  135.6020  154.3539 H   0  0  0  0  0  0  0  0  0  0  0  0  # atno 10763 bound_to 10752
  154.3226  135.2769  155.2513 H   0  0  0  0  0  0  0  0  0  0  0  0  # atno 10764 bound_to 10752
  154.4673  135.5950  153.6353 H   0  0  0  0  0  0  0  0  0  0  0  0  # atno 10765 bound_to 10752
  140.3535  134.7174  157.4284 H   0  0  0  0  0  0  0  0  0  0  0  0  # atno 11005 bound_to 11000
  145.3796  141.0356  143.3185 LP  0  0  0  0  0  0  0  0  0  0  0  0  # atno 17320 bound_to 7965
  144.8484  139.5360  143.6868 LP  0  0  0  0  0  0  0  0  0  0  0  0  # atno 17321 bound_to 7965
  139.7198  143.9242  152.2981 LP  0  0  0  0  0  0  0  0  0  0  0  0  # atno 17342 bound_to 10162
  139.8995  144.6920  150.8681 LP  0  0  0  0  0  0  0  0  0  0  0  0  # atno 17343 bound_to 10162
  157.6088  130.8567  149.8918 LP  0  0  0  0  0  0  0  0  0  0  0  0  # atno 17370 bound_to 10713
  156.0633  130.3696  150.0935 LP  0  0  0  0  0  0  0  0  0  0  0  0  # atno 17371 bound_to 10713
  140.0684  134.5898  155.8670 LP  0  0  0  0  0  0  0  0  0  0  0  0  # atno 17394 bound_to 11000
  141.2005  133.6613  156.5900 LP  0  0  0  0  0  0  0  0  0  0  0  0  # atno 17395 bound_to 11000

$$$$
