AV-unprocessed.smi:1990|AV-procd|sdf|8065|dock8
  -GOLD-   2272010273D 1   1.00000     0.00000
 Structure written by MMmdl.
 46 47  0  0  0  0  0  0  0  0  1 V2000
  153.7912  141.5273  160.4599 C   0  0  0  0  0  0  0  0  0  0  0  0
  152.9315  141.7206  159.2064 C   0  0  1  0  0  0  0  0  0  0  0  0
  152.3459  140.3890  158.7017 C   0  0  0  0  0  0  0  0  0  0  0  0
  151.4248  140.6253  157.5954 N   0  0  0  0  0  0  0  0  0  0  0  0
  151.0735  139.4851  156.8425 C   0  0  0  0  0  0  0  0  0  0  0  0
  151.3394  139.4433  155.4541 C   0  0  0  0  0  0  0  0  0  0  0  0
  150.9783  138.2995  154.7162 C   0  0  0  0  0  0  0  0  0  0  0  0
  150.3638  137.2162  155.3878 C   0  0  0  0  0  0  0  0  0  0  0  0
  149.9339  136.0097  154.7703 N   0  0  0  0  0  0  0  0  0  0  0  0
  149.9050  134.7564  155.2621 C   0  0  0  0  0  0  0  0  0  0  0  0
  150.2148  134.4477  156.4120 O   0  0  0  0  0  0  0  0  0  0  0  0
  149.4194  133.6752  154.2858 C   0  0  2  0  0  0  0  0  0  0  0  0
  147.9931  133.9518  153.7822 C   0  0  0  0  0  0  0  0  0  0  0  0
  149.4892  132.0091  155.0971 S   0  0  0  0  0  0  0  0  0  0  0  0
  148.8795  130.8733  153.7804 C   0  0  0  0  0  0  0  0  0  0  0  0
  150.8935  131.6709  155.3760 O   0  0  0  0  0  0  0  0  0  0  0  0
  148.5139  131.9996  156.1982 O   0  0  0  0  0  0  0  0  0  0  0  0
  150.1322  137.3564  156.7707 C   0  0  0  0  0  0  0  0  0  0  0  0
  150.4727  138.4516  157.4805 N   0  0  0  0  0  0  0  0  0  0  0  0
  150.3721  141.5858  157.9173 C   0  0  0  0  0  0  0  0  0  0  0  0
  150.9696  142.8979  158.4612 C   0  0  2  0  0  0  0  0  0  0  0  0
  151.6123  143.7768  157.3728 C   0  0  0  0  0  0  0  0  0  0  0  0
  151.8722  142.6195  159.5338 O   0  0  0  0  0  0  0  0  0  0  0  0
  154.6293  140.8590  160.2615 H   0  0  0  0  0  0  0  0  0  0  0  0
  153.2083  141.1003  161.2766 H   0  0  0  0  0  0  0  0  0  0  0  0
  154.1984  142.4786  160.8032 H   0  0  0  0  0  0  0  0  0  0  0  0
  153.5603  142.1606  158.4322 H   0  0  0  0  0  0  0  0  0  0  0  0
  153.1601  139.7259  158.4111 H   0  0  0  0  0  0  0  0  0  0  0  0
  151.8036  139.8887  159.5052 H   0  0  0  0  0  0  0  0  0  0  0  0
  151.7967  140.2798  154.9467 H   0  0  0  0  0  0  0  0  0  0  0  0
  151.1706  138.2915  153.6556 H   0  0  0  0  0  0  0  0  0  0  0  0
  149.5895  136.1159  153.8272 H   0  0  0  0  0  0  0  0  0  0  0  0
  150.0882  133.6409  153.4248 H   0  0  0  0  0  0  0  0  0  0  0  0
  147.9155  134.9416  153.3309 H   0  0  0  0  0  0  0  0  0  0  0  0
  147.2637  133.8933  154.5910 H   0  0  0  0  0  0  0  0  0  0  0  0
  147.7015  133.2232  153.0255 H   0  0  0  0  0  0  0  0  0  0  0  0
  148.7762  129.8696  154.1919 H   0  0  0  0  0  0  0  0  0  0  0  0
  149.5898  130.8452  152.9546 H   0  0  0  0  0  0  0  0  0  0  0  0
  147.9101  131.2159  153.4197 H   0  0  0  0  0  0  0  0  0  0  0  0
  149.6558  136.5638  157.3294 H   0  0  0  0  0  0  0  0  0  0  0  0
  149.7635  141.7968  157.0369 H   0  0  0  0  0  0  0  0  0  0  0  0
  149.7132  141.1449  158.6667 H   0  0  0  0  0  0  0  0  0  0  0  0
  150.1540  143.4786  158.8930 H   0  0  0  0  0  0  0  0  0  0  0  0
  150.8687  144.0848  156.6378 H   0  0  0  0  0  0  0  0  0  0  0  0
  152.4023  143.2562  156.8322 H   0  0  0  0  0  0  0  0  0  0  0  0
  152.0413  144.6804  157.8059 H   0  0  0  0  0  0  0  0  0  0  0  0
  1  2  1  0  0  0  0
  1 24  1  0  0  0  0
  1 25  1  0  0  0  0
  1 26  1  0  0  0  0
  2 23  1  0  0  0  0
  2  3  1  0  0  0  0
  2 27  1  0  0  0  0
  3  4  1  0  0  0  0
  3 28  1  0  0  0  0
  3 29  1  0  0  0  0
  4  5  1  0  0  0  0
  4 20  1  0  0  0  0
  5 19  1  0  0  0  0
  5  6  2  0  0  0  0
  6  7  1  0  0  0  0
  6 30  1  0  0  0  0
  7  8  2  0  0  0  0
  7 31  1  0  0  0  0
  8  9  1  0  0  0  0
  8 18  1  0  0  0  0
  9 10  1  0  0  0  0
  9 32  1  0  0  0  0
 10 11  2  0  0  0  0
 10 12  1  0  0  0  0
 12 13  1  0  0  0  0
 12 14  1  0  0  0  0
 12 33  1  0  0  0  0
 13 34  1  0  0  0  0
 13 35  1  0  0  0  0
 13 36  1  0  0  0  0
 14 15  1  0  0  0  0
 14 16  2  0  0  0  0
 14 17  2  0  0  0  0
 15 37  1  0  0  0  0
 15 38  1  0  0  0  0
 15 39  1  0  0  0  0
 18 19  2  0  0  0  0
 18 40  1  0  0  0  0
 20 21  1  0  0  0  0
 20 41  1  0  0  0  0
 20 42  1  0  0  0  0
 21 22  1  0  0  0  0
 21 23  1  0  0  0  0
 21 43  1  0  0  0  0
 22 44  1  0  0  0  0
 22 45  1  0  0  0  0
 22 46  1  0  0  0  0
M  END
> <s_m_source_file>
AV-unprocessed.smi

> <i_m_source_file_index>
1990

> <i_lp_mmshare_version>
43012

> <i_f3d_flags>
0

> <s_epik_input>
W0NIM11bQ0BASF0xW0NIMl1OKFtDSDJdW0NASF0oTzEpW0NIM10pYzJbY0hdW2NIXWMoW2NIXW4yKVtOSF1DKD1PKVtDQEhdKFtDSDNdKVMoPU8pKD1PKVtDSDNd

> <s_epik_cmdline>
J2VwaWtfcHl0aG9uJywgJy1waCcsICc3LjAnLCAnLXRuJywgJzgnLCAnLW1hJywgJzIwMCcsICctbWV0YWxfYmluZGluZycsICctaW1hZScsICc8aW5maWxlLm1hZT4nLCAnLW9tYWUnLCAnPG91dGZpbGUubWFlPic=

> <r_lp_tautomer_probability>
1

> <r_epik_Ionization_Penalty>
0.000334888

> <r_epik_Ionization_Penalty_Charging>
0

> <r_epik_Ionization_Penalty_Neutral>
0.000334888

> <r_epik_State_Penalty>
0.000200905

> <r_epik_Charging_Adjusted_Penalty>
0.000200905

> <i_epik_Tot_Q>
0

> <i_epik_Tot_abs_Q>
0

> <r_epik_Metal_State_Penalty>
-0

> <b_epik_Metal_Only>
0

> <s_lp_Force_Field>
OPLS_2005

> <r_lp_Energy>
21.5774

> <b_lp_Chiralities_Consistent>
1

> <s_lp_Variant>
AV-unprocessed.smi:1990-5

> <Gold.Version>
5.8.1

> <Gold.Id.Protein>
6NUR|6NUR_protein|mol2

> <Gold.PLP.Fitness>
38.1370

> <Gold.PLP.PLP>
-35.8645

> <Gold.PLP.part.hbond>
-0.9508

> <Gold.PLP.part.metal>
0.0000

> <Gold.PLP.part.buried>
-4.1850

> <Gold.PLP.part.nonpolar>
-30.7648

> <Gold.PLP.part.repulsive>
0.0559

> <Gold.PLP.ligand.clash>
0.0000

> <Gold.PLP.ligand.torsion>
0.5896

> <Gold.PLP.Chemscore.Hbond>
0.9913

> <Gold.PLP.Chemscore.CHOScore>
0.0000

> <Gold.PLP.Chemscore.Metal>
0.0000

> <Gold.Chemscore.Hbonds>
donor molecule, donor type, donor heavy atom, donor atom, acceptor molecule, acceptor atom, score
      L1  H     9    32       P1  7948  0.99

> <Gold.PLP.Chemscore.Internal.Correction>
0.4778

> <Gold.Rescore>
     Score         DG    S(hbond)    S(metal)    S(lipo)     H(rot)  DE(clash)    DE(int)     intcor
     12.09     -15.22       0.93        0.00      89.78       1.52       0.11       3.01       ----

> <Gold.Chemscore.Fitness>
12.0932

> <Gold.Chemscore.DG>
-15.2165

> <Gold.Chemscore.ZeroCoef>
-5.4800

> <Gold.Chemscore.Hbond>
0.9334

> <Gold.Chemscore.Metal>
0.0000

> <Gold.Chemscore.Lipo>
89.7801

> <Gold.Chemscore.Internal_Hbond>
0.0000

> <Gold.Chemscore.DEClash>
0.1086

> <Gold.Chemscore.DEInternal>
3.0146

> <Gold.Chemscore.Rot>
1.5177

> <Gold.Chemscore.Internal.Correction>
   9.000000E+99

> <Gold.Chemscore.Hbonds>
donor molecule, donor type, donor heavy atom, donor atom, acceptor molecule, acceptor atom, score
      L1  H     9    32       P1  7948  0.46

> <Gold.Chemscore.Hbond.Weighted>
-3.1174

> <Gold.Chemscore.Metal.Weighted>
-0.0000

> <Gold.Chemscore.Lipo.Weighted>
-10.5043

> <Gold.Chemscore.Internal_Hbond.Weighted>
0.0000

> <Gold.Chemscore.DEClash.Weighted>
0.1086

> <Gold.Chemscore.DEInternal.Weighted>
3.0146

> <Gold.Chemscore.Rot.Weighted>
3.8853

> <Gold.Chemscore.Internal.Correction.Weighted>
   9.000000E+99

> <Gold.Protein.RotatedTorsions>
[ 6907 6896 6895 6894 ] final   62.48 input  -60.11 | X-H torsion
[ 7974 7965 7964 7962 ] final   52.59 input  175.53 | X-H torsion
[ 8008 7997 7996 7995 ] final   35.84 input   59.86 | X-H torsion
[ 10167 10162 10161 10158 ] final    7.68 input  -65.29 | X-H torsion
[ 10718 10713 10712 10709 ] final  -55.19 input   66.30 | X-H torsion
[ 10763 10752 10751 10750 ] final  -57.94 input  -60.55 | X-H torsion
[ 11005 11000 10999 10996 ] final  -81.80 input  -57.11 | X-H torsion

> <Gold.Protein.ActiveResidues>
 VAL166  LYS551  ARG553  GLY616  TRP617  ASP618  TYR619  PRO620  LYS621  CYS622 
 ASP623  PHE694  ASN695  SER759  ASP760  ASP761  ALA762  ILE779  LEU786  VAL792 
 PHE793  MET794  SER795  GLU796  ALA797  LYS798  CYS799  TRP800  GLU811  SER814 

> <Gold.Protein.RotatedAtoms>
  152.4175  134.6014  160.0000 H   0  0  0  0  0  0  0  0  0  0  0  0  # atno 6907 bound_to 6896
  151.6174  133.3336  159.3088 H   0  0  0  0  0  0  0  0  0  0  0  0  # atno 6908 bound_to 6896
  150.8064  134.7230  159.6714 H   0  0  0  0  0  0  0  0  0  0  0  0  # atno 6909 bound_to 6896
  145.9798  139.4231  143.0139 H   0  0  0  0  0  0  0  0  0  0  0  0  # atno 7974 bound_to 7965
  155.1777  140.3297  155.4381 H   0  0  0  0  0  0  0  0  0  0  0  0  # atno 8008 bound_to 7997
  156.2488  140.1932  156.6827 H   0  0  0  0  0  0  0  0  0  0  0  0  # atno 8009 bound_to 7997
  154.6293  140.0585  156.9698 H   0  0  0  0  0  0  0  0  0  0  0  0  # atno 8010 bound_to 7997
  140.6358  143.7889  150.7357 H   0  0  0  0  0  0  0  0  0  0  0  0  # atno 10167 bound_to 10162
  156.1389  130.4155  150.0137 H   0  0  0  0  0  0  0  0  0  0  0  0  # atno 10718 bound_to 10713
  154.2304  135.6362  153.5173 H   0  0  0  0  0  0  0  0  0  0  0  0  # atno 10763 bound_to 10752
  152.9950  135.5518  154.6019 H   0  0  0  0  0  0  0  0  0  0  0  0  # atno 10764 bound_to 10752
  154.5501  135.2901  155.0991 H   0  0  0  0  0  0  0  0  0  0  0  0  # atno 10765 bound_to 10752
  141.1665  133.7214  156.8477 H   0  0  0  0  0  0  0  0  0  0  0  0  # atno 11005 bound_to 11000
  145.7786  140.9866  143.1111 LP  0  0  0  0  0  0  0  0  0  0  0  0  # atno 17320 bound_to 7965
  144.6858  139.9536  143.7478 LP  0  0  0  0  0  0  0  0  0  0  0  0  # atno 17321 bound_to 7965
  140.1510  143.4357  152.2131 LP  0  0  0  0  0  0  0  0  0  0  0  0  # atno 17342 bound_to 10162
  139.5569  144.7379  151.4269 LP  0  0  0  0  0  0  0  0  0  0  0  0  # atno 17343 bound_to 10162
  156.8028  130.9297  151.3645 LP  0  0  0  0  0  0  0  0  0  0  0  0  # atno 17370 bound_to 10713
  157.6558  130.8923  149.9725 LP  0  0  0  0  0  0  0  0  0  0  0  0  # atno 17371 bound_to 10713
  140.1938  134.8946  157.3091 LP  0  0  0  0  0  0  0  0  0  0  0  0  # atno 17394 bound_to 11000
  140.2261  134.3965  155.7543 LP  0  0  0  0  0  0  0  0  0  0  0  0  # atno 17395 bound_to 11000

$$$$
