AV-unprocessed.smi:48|AV-procd|sdf|454|dock1
  -GOLD-   2262016323D 1   1.00000     0.00000
 Structure written by MMmdl.
 30 32  0  0  0  0  0  0  0  0  1 V2000
  147.1250  136.5362  154.0952 O   0  0  0  0  0  0  0  0  0  0  0  0
  148.1657  136.8666  154.9898 C   0  0  0  0  0  0  0  0  0  0  0  0
  148.9307  138.1005  154.4795 C   0  0  2  0  0  0  0  0  0  0  0  0
  150.2081  138.1976  155.0921 O   0  0  0  0  0  0  0  0  0  0  0  0
  150.6832  139.4974  154.9437 C   0  0  2  0  0  0  0  0  0  0  0  0
  151.4641  139.8506  156.1668 N   0  0  0  0  0  0  0  0  0  0  0  0
  152.3852  139.0908  156.7932 C   0  0  0  0  0  0  0  0  0  0  0  0
  152.9729  139.6037  157.8734 N   0  0  0  0  0  0  0  0  0  0  0  0
  152.3588  140.8422  157.9597 C   0  0  0  0  0  0  0  0  0  0  0  0
  152.4963  141.9194  158.8685 C   0  0  0  0  0  0  0  0  0  0  0  0
  153.6066  141.8333  160.1867 Cl  0  0  0  0  0  0  0  0  0  0  0  0
  151.7352  143.0238  158.6806 N   0  0  0  0  0  0  0  0  0  0  0  0
  150.8818  143.0637  157.6500 C   0  0  0  0  0  0  0  0  0  0  0  0
  150.6448  142.1328  156.7191 N   0  0  0  0  0  0  0  0  0  0  0  0
  151.4139  141.0201  156.9089 C   0  0  0  0  0  0  0  0  0  0  0  0
  149.4691  140.4281  154.7775 C   0  0  1  0  0  0  0  0  0  0  0  0
  149.5127  141.0984  153.5341 O   0  0  0  0  0  0  0  0  0  0  0  0
  148.2877  139.4604  154.7929 C   0  0  2  0  0  0  0  0  0  0  0  0
  147.6642  139.4644  156.0636 O   0  0  0  0  0  0  0  0  0  0  0  0
  149.0726  138.0351  153.3987 H   0  0  0  0  0  0  0  0  0  0  0  0
  151.3983  139.5536  154.1212 H   0  0  0  0  0  0  0  0  0  0  0  0
  149.4182  141.1659  155.5804 H   0  0  0  0  0  0  0  0  0  0  0  0
  147.5252  139.7163  154.0556 H   0  0  0  0  0  0  0  0  0  0  0  0
  147.4923  136.4360  153.2303 H   0  0  0  0  0  0  0  0  0  0  0  0
  147.7070  137.0810  155.9554 H   0  0  0  0  0  0  0  0  0  0  0  0
  148.8325  136.0143  155.1261 H   0  0  0  0  0  0  0  0  0  0  0  0
  152.6421  138.1053  156.4333 H   0  0  0  0  0  0  0  0  0  0  0  0
  150.3048  143.9719  157.5573 H   0  0  0  0  0  0  0  0  0  0  0  0
  149.3838  140.4625  152.8470 H   0  0  0  0  0  0  0  0  0  0  0  0
  146.7923  139.1116  155.9724 H   0  0  0  0  0  0  0  0  0  0  0  0
  1  2  1  0  0  0  0
  1 24  1  0  0  0  0
  2  3  1  0  0  0  0
  2 25  1  0  0  0  0
  2 26  1  0  0  0  0
  3 20  1  0  0  0  0
  3 18  1  0  0  0  0
  3  4  1  0  0  0  0
  4  5  1  0  0  0  0
  5 21  1  0  0  0  0
  5  6  1  0  0  0  0
  5 16  1  0  0  0  0
  6 15  1  0  0  0  0
  6  7  1  0  0  0  0
  7  8  2  0  0  0  0
  7 27  1  0  0  0  0
  8  9  1  0  0  0  0
  9 15  2  0  0  0  0
  9 10  1  0  0  0  0
 10 11  1  0  0  0  0
 10 12  2  0  0  0  0
 12 13  1  0  0  0  0
 13 14  2  0  0  0  0
 13 28  1  0  0  0  0
 14 15  1  0  0  0  0
 16 22  1  0  0  0  0
 16 17  1  0  0  0  0
 16 18  1  0  0  0  0
 17 29  1  0  0  0  0
 18 23  1  0  0  0  0
 18 19  1  0  0  0  0
 19 30  1  0  0  0  0
M  END
> <s_m_source_file>
AV-unprocessed.smi

> <i_m_source_file_index>
48

> <i_lp_mmshare_version>
43012

> <i_f3d_flags>
0

> <s_epik_input>
W09IXVtDSDJdW0NASF0xT1tDQEhdKFtDQEhdKFtPSF0pW0NAQEhdMVtPSF0pbihbY0hdbjIpYyhjMjMpbltjSF1uYzNDbA==

> <s_epik_cmdline>
J2VwaWtfcHl0aG9uJywgJy1waCcsICc3LjAnLCAnLXRuJywgJzgnLCAnLW1hJywgJzIwMCcsICctbWV0YWxfYmluZGluZycsICctaW1hZScsICc8aW5maWxlLm1hZT4nLCAnLW9tYWUnLCAnPG91dGZpbGUubWFlPic=

> <r_lp_tautomer_probability>
1

> <r_epik_Ionization_Penalty>
3.45505e-06

> <r_epik_Ionization_Penalty_Charging>
0

> <r_epik_Ionization_Penalty_Neutral>
3.45505e-06

> <r_epik_State_Penalty>
-0

> <r_epik_Charging_Adjusted_Penalty>
0

> <i_epik_Tot_Q>
0

> <i_epik_Tot_abs_Q>
0

> <r_epik_Metal_State_Penalty>
-0

> <b_epik_Metal_Only>
0

> <s_epik_Chemistry_Notes>
This compound contains an acetal/aminal-like group ( X-CH(R)-Y where X, Y are N, S, or O) that may be acid/base labile, releasing an aldehyde.

> <s_lp_Force_Field>
OPLS_2005

> <r_lp_Energy>
33.2989

> <b_lp_Chiralities_Consistent>
1

> <s_lp_Variant>
AV-unprocessed.smi:48-8

> <Gold.Version>
5.8.1

> <Gold.Id.Protein>
6NUR|6NUR_protein|mol2

> <Gold.PLP.Fitness>
40.9874

> <Gold.PLP.PLP>
-28.3386

> <Gold.PLP.part.hbond>
-5.0000

> <Gold.PLP.part.metal>
0.0000

> <Gold.PLP.part.buried>
-1.7539

> <Gold.PLP.part.nonpolar>
-21.0451

> <Gold.PLP.part.repulsive>
0.2473

> <Gold.PLP.ligand.clash>
0.0000

> <Gold.PLP.ligand.torsion>
0.5965

> <Gold.PLP.Chemscore.Hbond>
3.6165

> <Gold.PLP.Chemscore.CHOScore>
0.9954

> <Gold.PLP.Chemscore.Metal>
0.0000

> <Gold.Chemscore.Hbonds>
donor molecule, donor type, donor heavy atom, donor atom, acceptor molecule, acceptor atom, score
      L1  H     1    24       P1  7948  1.00
      L1  H    17    29       P1  7957  0.94
      P1  H  7989  7998       L1    17  0.07
      P1  H  7997  8010       L1     8  1.00
      P1  H  8011  8017       L1    17  0.60
      L1  C    13    28       P1  8028  0.99

> <Gold.PLP.Chemscore.Internal.Correction>
0.0059

> <Gold.Rescore>
     Score         DG    S(hbond)    S(metal)    S(lipo)     H(rot)  DE(clash)    DE(int)     intcor
      6.34      -8.22       2.17        0.00      44.66       3.80       0.05       1.83       ----

> <Gold.Chemscore.Fitness>
6.3411

> <Gold.Chemscore.DG>
-8.2171

> <Gold.Chemscore.ZeroCoef>
-5.4800

> <Gold.Chemscore.Hbond>
2.1689

> <Gold.Chemscore.Metal>
0.0000

> <Gold.Chemscore.Lipo>
44.6620

> <Gold.Chemscore.Internal_Hbond>
0.0000

> <Gold.Chemscore.DEClash>
0.0473

> <Gold.Chemscore.DEInternal>
1.8287

> <Gold.Chemscore.Rot>
3.8017

> <Gold.Chemscore.Internal.Correction>
   9.000000E+99

> <Gold.Chemscore.Hbonds>
donor molecule, donor type, donor heavy atom, donor atom, acceptor molecule, acceptor atom, score
      L1  H     1    24       P1  7948  0.94
      L1  H    17    29       P1  7957  0.91
      P1  H  7997  8010       L1     8  0.10
      P1  H  8011  8017       L1    17  0.04

> <Gold.Chemscore.Hbond.Weighted>
-7.2440

> <Gold.Chemscore.Metal.Weighted>
-0.0000

> <Gold.Chemscore.Lipo.Weighted>
-5.2255

> <Gold.Chemscore.Internal_Hbond.Weighted>
0.0000

> <Gold.Chemscore.DEClash.Weighted>
0.0473

> <Gold.Chemscore.DEInternal.Weighted>
1.8287

> <Gold.Chemscore.Rot.Weighted>
9.7324

> <Gold.Chemscore.Internal.Correction.Weighted>
   9.000000E+99

> <Gold.Protein.RotatedTorsions>
[ 6907 6896 6895 6894 ] final   30.01 input  -60.11 | X-H torsion
[ 7974 7965 7964 7962 ] final    2.62 input  175.53 | X-H torsion
[ 8008 7997 7996 7995 ] final   24.40 input   59.86 | X-H torsion
[ 10167 10162 10161 10158 ] final  -13.36 input  -65.29 | X-H torsion
[ 10718 10713 10712 10709 ] final  -81.42 input   66.30 | X-H torsion
[ 10763 10752 10751 10750 ] final   45.33 input  -60.55 | X-H torsion
[ 11005 11000 10999 10996 ] final  157.58 input  -57.11 | X-H torsion

> <Gold.Protein.ActiveResidues>
 VAL166  LYS551  ARG553  GLY616  TRP617  ASP618  TYR619  PRO620  LYS621  CYS622 
 ASP623  PHE694  ASN695  SER759  ASP760  ASP761  ALA762  ILE779  LEU786  VAL792 
 PHE793  MET794  SER795  GLU796  ALA797  LYS798  CYS799  TRP800  GLU811  SER814 

> <Gold.Protein.RotatedAtoms>
  152.0397  134.9718  160.0573 H   0  0  0  0  0  0  0  0  0  0  0  0  # atno 6907 bound_to 6896
  152.1162  133.4323  159.4662 H   0  0  0  0  0  0  0  0  0  0  0  0  # atno 6908 bound_to 6896
  150.6846  134.2508  159.4553 H   0  0  0  0  0  0  0  0  0  0  0  0  # atno 6909 bound_to 6896
  146.2444  140.0809  142.8357 H   0  0  0  0  0  0  0  0  0  0  0  0  # atno 7974 bound_to 7965
  154.9958  140.3119  155.4887 H   0  0  0  0  0  0  0  0  0  0  0  0  # atno 8008 bound_to 7997
  156.2933  140.2241  156.5005 H   0  0  0  0  0  0  0  0  0  0  0  0  # atno 8009 bound_to 7997
  154.7663  140.0455  157.1003 H   0  0  0  0  0  0  0  0  0  0  0  0  # atno 8010 bound_to 7997
  140.7180  143.5434  150.9383 H   0  0  0  0  0  0  0  0  0  0  0  0  # atno 10167 bound_to 10162
  156.0051  130.4603  150.3949 H   0  0  0  0  0  0  0  0  0  0  0  0  # atno 10718 bound_to 10713
  152.9826  135.6043  154.3420 H   0  0  0  0  0  0  0  0  0  0  0  0  # atno 10763 bound_to 10752
  154.3116  135.2771  155.2565 H   0  0  0  0  0  0  0  0  0  0  0  0  # atno 10764 bound_to 10752
  154.4772  135.5926  153.6419 H   0  0  0  0  0  0  0  0  0  0  0  0  # atno 10765 bound_to 10752
  140.1783  134.8494  157.2772 H   0  0  0  0  0  0  0  0  0  0  0  0  # atno 11005 bound_to 11000
  145.0734  140.9171  143.4868 LP  0  0  0  0  0  0  0  0  0  0  0  0  # atno 17320 bound_to 7965
  145.0947  139.2865  143.5717 LP  0  0  0  0  0  0  0  0  0  0  0  0  # atno 17321 bound_to 7965
  139.9157  143.6666  152.3107 LP  0  0  0  0  0  0  0  0  0  0  0  0  # atno 17342 bound_to 10162
  139.7065  144.7627  151.1184 LP  0  0  0  0  0  0  0  0  0  0  0  0  # atno 17343 bound_to 10162
  157.2022  131.0440  151.2644 LP  0  0  0  0  0  0  0  0  0  0  0  0  # atno 17370 bound_to 10713
  157.3965  130.7310  149.6736 LP  0  0  0  0  0  0  0  0  0  0  0  0  # atno 17371 bound_to 10713
  140.2297  134.3924  155.7527 LP  0  0  0  0  0  0  0  0  0  0  0  0  # atno 17394 bound_to 11000
  141.2221  133.7208  156.8621 LP  0  0  0  0  0  0  0  0  0  0  0  0  # atno 17395 bound_to 11000

$$$$
