AV-unprocessed.smi:334|AV-procd|sdf|2363|dock5
  -GOLD-   2262022273D 1   1.00000     0.00000
 Structure written by MMmdl.
 44 46  0  0  0  0  0  0  0  0  3 V2000
  153.4830  141.2467  161.5829 C   0  0  0  0  0  0  0  0  0  0  0  0
  152.9745  141.4894  160.1520 C   0  0  1  0  0  0  0  0  0  0  0  0
  152.3073  140.2732  159.6895 N   0  0  0  0  0  0  0  0  0  0  0  0
  152.8336  139.3450  158.8756 C   0  0  0  0  0  0  0  0  0  0  0  0
  153.9894  139.3861  158.4528 O   0  0  0  0  0  0  0  0  0  0  0  0
  151.9056  138.1864  158.4882 C   0  0  0  0  0  0  0  0  0  0  0  0
  151.4260  138.2841  157.0996 N   0  0  0  0  0  0  0  0  0  0  0  0
  150.8323  139.5005  156.7081 C   0  0  0  0  0  0  0  0  0  0  0  0
  150.3522  139.6949  155.4642 C   0  0  0  0  0  0  0  0  0  0  0  0
  149.7401  140.9483  155.0811 N   0  3  0  0  0  0  0  0  0  0  0  0
  149.2596  141.6602  155.9571 O   0  0  0  0  0  0  0  0  0  0  0  0
  149.7179  141.2624  153.8947 O   0  5  0  0  0  0  0  0  0  0  0  0
  150.4654  138.6008  154.5191 C   0  0  0  0  0  0  0  0  0  0  0  0
  151.0290  137.4339  154.8882 C   0  0  0  0  0  0  0  0  0  0  0  0
  151.5479  137.2232  156.2435 C   0  0  0  0  0  0  0  0  0  0  0  0
  152.0607  136.1582  156.5883 O   0  0  0  0  0  0  0  0  0  0  0  0
  151.9960  142.6866  160.0517 C   0  0  2  0  0  0  0  0  0  0  0  0
  151.2871  142.8039  158.6774 C   0  0  0  0  0  0  0  0  0  0  0  0
  151.5734  144.2537  158.2512 C   0  0  1  0  0  0  0  0  0  0  0  0
  150.8003  145.2245  159.1620 C   0  0  0  0  0  0  0  0  0  0  0  0
  151.5725  145.1274  160.4906 C   0  0  0  0  0  0  0  0  0  0  0  0
  152.6598  144.0816  160.1774 C   0  0  2  0  0  0  0  0  0  0  0  0
  153.0058  144.4329  158.7336 C   0  0  0  0  0  0  0  0  0  0  0  0
  154.0662  142.0879  161.9551 H   0  0  0  0  0  0  0  0  0  0  0  0
  154.1298  140.3693  161.6222 H   0  0  0  0  0  0  0  0  0  0  0  0
  152.6578  141.0810  162.2761 H   0  0  0  0  0  0  0  0  0  0  0  0
  153.8417  141.7005  159.5245 H   0  0  0  0  0  0  0  0  0  0  0  0
  151.3513  140.1451  159.9882 H   0  0  0  0  0  0  0  0  0  0  0  0
  152.4457  137.2527  158.6491 H   0  0  0  0  0  0  0  0  0  0  0  0
  151.0552  138.1460  159.1721 H   0  0  0  0  0  0  0  0  0  0  0  0
  150.7896  140.2498  157.4851 H   0  0  0  0  0  0  0  0  0  0  0  0
  150.0979  138.7085  153.5093 H   0  0  0  0  0  0  0  0  0  0  0  0
  151.1015  136.6316  154.1686 H   0  0  0  0  0  0  0  0  0  0  0  0
  151.2448  142.5701  160.8349 H   0  0  0  0  0  0  0  0  0  0  0  0
  151.7137  142.1196  157.9430 H   0  0  0  0  0  0  0  0  0  0  0  0
  150.2194  142.5911  158.7414 H   0  0  0  0  0  0  0  0  0  0  0  0
  151.4193  144.4342  157.1871 H   0  0  0  0  0  0  0  0  0  0  0  0
  150.8388  146.2416  158.7695 H   0  0  0  0  0  0  0  0  0  0  0  0
  149.7515  144.9448  159.2675 H   0  0  0  0  0  0  0  0  0  0  0  0
  152.0236  146.0886  160.7403 H   0  0  0  0  0  0  0  0  0  0  0  0
  150.9350  144.8336  161.3254 H   0  0  0  0  0  0  0  0  0  0  0  0
  153.4997  144.1289  160.8693 H   0  0  0  0  0  0  0  0  0  0  0  0
  153.7099  143.7398  158.2705 H   0  0  0  0  0  0  0  0  0  0  0  0
  153.3776  145.4520  158.6132 H   0  0  0  0  0  0  0  0  0  0  0  0
  1  2  1  0  0  0  0
  1 24  1  0  0  0  0
  1 25  1  0  0  0  0
  1 26  1  0  0  0  0
  2  3  1  0  0  0  0
  2 17  1  0  0  0  0
  2 27  1  0  0  0  0
  3  4  1  0  0  0  0
  3 28  1  0  0  0  0
  4  5  2  0  0  0  0
  4  6  1  0  0  0  0
  6  7  1  0  0  0  0
  6 29  1  0  0  0  0
  6 30  1  0  0  0  0
  7 15  1  0  0  0  0
  7  8  1  0  0  0  0
  8  9  2  0  0  0  0
  8 31  1  0  0  0  0
  9 10  1  0  0  0  0
  9 13  1  0  0  0  0
 10 11  2  0  0  0  0
 10 12  1  0  0  0  0
 13 14  2  0  0  0  0
 13 32  1  0  0  0  0
 14 15  1  0  0  0  0
 14 33  1  0  0  0  0
 15 16  2  0  0  0  0
 17 22  1  0  0  0  0
 17 18  1  0  0  0  0
 17 34  1  0  0  0  0
 18 19  1  0  0  0  0
 18 35  1  0  0  0  0
 18 36  1  0  0  0  0
 19 23  1  0  0  0  0
 19 20  1  0  0  0  0
 19 37  1  0  0  0  0
 20 21  1  0  0  0  0
 20 38  1  0  0  0  0
 20 39  1  0  0  0  0
 21 22  1  0  0  0  0
 21 40  1  0  0  0  0
 21 41  1  0  0  0  0
 22 23  1  0  0  0  0
 22 42  1  0  0  0  0
 23 43  1  0  0  0  0
 23 44  1  0  0  0  0
M  CHG  1  10   1
M  CHG  1  12  -1
M  END
> <s_m_source_file>
AV-unprocessed.smi

> <i_m_source_file_index>
334

> <i_lp_mmshare_version>
43012

> <i_f3d_flags>
0

> <s_epik_input>
W0NIMl0xW0NIMl1bQ0BIXShbQ0gyXTIpW0NAQEhdKFtDSDJdW0NAQEhdMTIpW0NASF0oW0NIM10pW05IXUMoPU8pW0NIMl1uM1tjSF1jKFtOK10oPU8pW08tXSlbY0hdW2NIXWMzPU8=

> <s_epik_cmdline>
J2VwaWtfcHl0aG9uJywgJy1waCcsICc3LjAnLCAnLXRuJywgJzgnLCAnLW1hJywgJzIwMCcsICctbWV0YWxfYmluZGluZycsICctaW1hZScsICc8aW5maWxlLm1hZT4nLCAnLW9tYWUnLCAnPG91dGZpbGUubWFlPic=

> <r_lp_tautomer_probability>
1

> <r_epik_Ionization_Penalty>
2.17081e-08

> <r_epik_Ionization_Penalty_Charging>
8.1195e-11

> <r_epik_Ionization_Penalty_Neutral>
2.16269e-08

> <r_epik_State_Penalty>
-0

> <r_epik_Charging_Adjusted_Penalty>
8.1195e-11

> <i_epik_Tot_Q>
0

> <i_epik_Tot_abs_Q>
2

> <r_epik_Metal_State_Penalty>
-0

> <b_epik_Metal_Only>
0

> <s_lp_Force_Field>
OPLS_2005

> <r_lp_Energy>
62.172

> <b_lp_Chiralities_Consistent>
1

> <s_lp_Variant>
AV-unprocessed.smi:334-2

> <Gold.Version>
5.8.1

> <Gold.Id.Protein>
6NUR|6NUR_protein|mol2

> <Gold.PLP.Fitness>
54.8223

> <Gold.PLP.PLP>
-47.5536

> <Gold.PLP.part.hbond>
-3.6020

> <Gold.PLP.part.metal>
0.0000

> <Gold.PLP.part.buried>
-6.5601

> <Gold.PLP.part.nonpolar>
-39.5071

> <Gold.PLP.part.repulsive>
2.4948

> <Gold.PLP.ligand.clash>
0.0000

> <Gold.PLP.ligand.torsion>
0.8629

> <Gold.PLP.Chemscore.Hbond>
2.9910

> <Gold.PLP.Chemscore.CHOScore>
0.0000

> <Gold.PLP.Chemscore.Metal>
0.0000

> <Gold.Chemscore.Hbonds>
donor molecule, donor type, donor heavy atom, donor atom, acceptor molecule, acceptor atom, score
      P1  H  7989  7998       L1    12  0.27
      P1  H  7997  8008       L1     5  0.88
      P1  H  8011  8017       L1    12  0.78
      P1  H 10752 10765       L1    16  1.00

> <Gold.PLP.Chemscore.Internal.Correction>
0.0214

> <Gold.Rescore>
     Score         DG    S(hbond)    S(metal)    S(lipo)     H(rot)  DE(clash)    DE(int)     intcor
     23.60     -25.47       2.81        0.00     128.92       1.75       1.24       0.63       ----

> <Gold.Chemscore.Fitness>
23.6032

> <Gold.Chemscore.DG>
-25.4709

> <Gold.Chemscore.ZeroCoef>
-5.4800

> <Gold.Chemscore.Hbond>
2.8086

> <Gold.Chemscore.Metal>
0.0000

> <Gold.Chemscore.Lipo>
128.9173

> <Gold.Chemscore.Internal_Hbond>
0.0000

> <Gold.Chemscore.DEClash>
1.2369

> <Gold.Chemscore.DEInternal>
0.6307

> <Gold.Chemscore.Rot>
1.7474

> <Gold.Chemscore.Internal.Correction>
   9.000000E+99

> <Gold.Chemscore.Hbonds>
donor molecule, donor type, donor heavy atom, donor atom, acceptor molecule, acceptor atom, score
      P1  H  7989  7998       L1    12  0.06
      P1  H  7997  8008       L1     5  0.86
      P1  H  8011  8017       L1    12  0.79
      P1  H 10752 10765       L1    16  0.76

> <Gold.Chemscore.Hbond.Weighted>
-9.3809

> <Gold.Chemscore.Metal.Weighted>
-0.0000

> <Gold.Chemscore.Lipo.Weighted>
-15.0833

> <Gold.Chemscore.Internal_Hbond.Weighted>
0.0000

> <Gold.Chemscore.DEClash.Weighted>
1.2369

> <Gold.Chemscore.DEInternal.Weighted>
0.6307

> <Gold.Chemscore.Rot.Weighted>
4.4733

> <Gold.Chemscore.Internal.Correction.Weighted>
   9.000000E+99

> <Gold.Protein.RotatedTorsions>
[ 6907 6896 6895 6894 ] final  154.19 input  -60.11 | X-H torsion
[ 7974 7965 7964 7962 ] final  -46.39 input  175.53 | X-H torsion
[ 8008 7997 7996 7995 ] final  -76.98 input   59.86 | X-H torsion
[ 10167 10162 10161 10158 ] final -132.06 input  -65.29 | X-H torsion
[ 10718 10713 10712 10709 ] final   57.13 input   66.30 | X-H torsion
[ 10763 10752 10751 10750 ] final -140.98 input  -60.55 | X-H torsion
[ 11005 11000 10999 10996 ] final   64.20 input  -57.11 | X-H torsion

> <Gold.Protein.ActiveResidues>
 VAL166  LYS551  ARG553  GLY616  TRP617  ASP618  TYR619  PRO620  LYS621  CYS622 
 ASP623  PHE694  ASN695  SER759  ASP760  ASP761  ALA762  ILE779  LEU786  VAL792 
 PHE793  MET794  SER795  GLU796  ALA797  LYS798  CYS799  TRP800  GLU811  SER814 

> <Gold.Protein.RotatedAtoms>
  152.0621  133.4067  159.4421 H   0  0  0  0  0  0  0  0  0  0  0  0  # atno 6907 bound_to 6896
  150.6866  134.3189  159.4787 H   0  0  0  0  0  0  0  0  0  0  0  0  # atno 6908 bound_to 6896
  152.1011  134.9340  160.0620 H   0  0  0  0  0  0  0  0  0  0  0  0  # atno 6909 bound_to 6896
  145.9724  140.7369  142.9404 H   0  0  0  0  0  0  0  0  0  0  0  0  # atno 7974 bound_to 7965
  154.5555  140.0718  156.8736 H   0  0  0  0  0  0  0  0  0  0  0  0  # atno 8008 bound_to 7997
  155.2911  140.3378  155.4234 H   0  0  0  0  0  0  0  0  0  0  0  0  # atno 8009 bound_to 7997
  156.1998  140.1717  156.7909 H   0  0  0  0  0  0  0  0  0  0  0  0  # atno 8010 bound_to 7997
  139.9124  143.6478  152.2572 H   0  0  0  0  0  0  0  0  0  0  0  0  # atno 10167 bound_to 10162
  157.5489  130.8751  149.8933 H   0  0  0  0  0  0  0  0  0  0  0  0  # atno 10718 bound_to 10713
  154.8561  135.3537  154.5794 H   0  0  0  0  0  0  0  0  0  0  0  0  # atno 10763 bound_to 10752
  153.6405  135.6998  153.5248 H   0  0  0  0  0  0  0  0  0  0  0  0  # atno 10764 bound_to 10752
  153.2975  135.4216  155.1181 H   0  0  0  0  0  0  0  0  0  0  0  0  # atno 10765 bound_to 10752
  139.9974  134.6495  155.9987 H   0  0  0  0  0  0  0  0  0  0  0  0  # atno 11005 bound_to 11000
  144.6840  140.2771  143.7297 LP  0  0  0  0  0  0  0  0  0  0  0  0  # atno 17320 bound_to 7965
  145.7887  139.1918  143.2116 LP  0  0  0  0  0  0  0  0  0  0  0  0  # atno 17321 bound_to 7965
  139.6931  144.7644  151.1404 LP  0  0  0  0  0  0  0  0  0  0  0  0  # atno 17342 bound_to 10162
  140.7682  143.5561  150.9150 LP  0  0  0  0  0  0  0  0  0  0  0  0  # atno 17343 bound_to 10162
  156.0559  130.3708  150.1092 LP  0  0  0  0  0  0  0  0  0  0  0  0  # atno 17370 bound_to 10713
  156.9266  130.9700  151.3540 LP  0  0  0  0  0  0  0  0  0  0  0  0  # atno 17371 bound_to 10713
  141.1615  133.6538  156.4335 LP  0  0  0  0  0  0  0  0  0  0  0  0  # atno 17394 bound_to 11000
  140.4792  134.6681  157.5163 LP  0  0  0  0  0  0  0  0  0  0  0  0  # atno 17395 bound_to 11000

$$$$
