AV-unprocessed.smi:236|AV-procd|sdf|1809|dock2
  -GOLD-   2262020393D 1   1.00000     0.00000
 Structure written by MMmdl.
 58 62  0  0  0  0  0  0  0  0  1 V2000
  144.7818  133.7066  162.3840 C   0  0  0  0  0  0  0  0  0  0  0  0
  145.0435  135.2143  162.5156 C   0  0  2  0  0  0  0  0  0  0  0  0
  143.9542  135.9646  161.9840 O   0  0  0  0  0  0  0  0  0  0  0  0
  144.4310  137.1593  161.3711 C   0  0  0  0  0  0  0  0  0  0  0  0
  145.9167  137.2321  161.7100 C   0  0  0  0  0  0  0  0  0  0  0  0
  146.3032  135.7618  161.8177 C   0  0  1  0  0  0  0  0  0  0  0  0
  147.4275  135.6436  162.6695 O   0  0  0  0  0  0  0  0  0  0  0  0
  146.6150  135.0894  160.4529 C   0  0  0  0  0  0  0  0  0  0  0  0
  147.5387  135.8469  159.6231 N   0  0  0  0  0  0  0  0  0  0  0  0
  148.7068  136.4531  160.0266 C   0  0  0  0  0  0  0  0  0  0  0  0
  149.3599  137.0823  159.0881 N   0  0  0  0  0  0  0  0  0  0  0  0
  148.5909  136.8846  157.9473 C   0  0  0  0  0  0  0  0  0  0  0  0
  148.7017  137.2873  156.5858 C   0  0  0  0  0  0  0  0  0  0  0  0
  149.7007  138.0393  156.0781 N   0  0  0  0  0  0  0  0  0  0  0  0
  149.7385  138.0353  154.6229 C   0  0  0  0  0  0  0  0  0  0  0  0
  151.0048  138.7564  154.1334 C   0  0  0  0  0  0  0  0  0  0  0  0
  151.0519  140.0661  154.6920 O   0  0  0  0  0  0  0  0  0  0  0  0
  151.1106  140.0501  156.1174 C   0  0  1  0  0  0  0  0  0  0  0  0
  151.2339  141.4980  156.6071 C   0  0  0  0  0  0  0  0  0  0  0  0
  151.2920  141.5036  158.0238 O   0  0  0  0  0  0  0  0  0  0  0  0
  150.9248  142.7542  158.5793 C   0  0  0  0  0  0  0  0  0  0  0  0
  152.1778  143.5416  158.8983 C   0  0  0  0  0  0  0  0  0  0  0  0
  152.0930  144.9749  159.3725 C   0  0  0  0  0  0  0  0  0  0  0  0
  152.6170  144.6698  157.9925 C   0  0  0  0  0  0  0  0  0  0  0  0
  149.8312  139.3748  156.6477 C   0  0  0  0  0  0  0  0  0  0  0  0
  147.7202  136.9130  155.7293 N   0  0  0  0  0  0  0  0  0  0  0  0
  146.6952  136.1765  156.1686 C   0  0  0  0  0  0  0  0  0  0  0  0
  146.4608  135.7228  157.4018 N   0  0  0  0  0  0  0  0  0  0  0  0
  147.4425  136.1074  158.2673 C   0  0  0  0  0  0  0  0  0  0  0  0
  145.6261  133.1275  162.7583 H   0  0  0  0  0  0  0  0  0  0  0  0
  144.6034  133.4155  161.3489 H   0  0  0  0  0  0  0  0  0  0  0  0
  143.9017  133.4177  162.9588 H   0  0  0  0  0  0  0  0  0  0  0  0
  145.0922  135.4659  163.5770 H   0  0  0  0  0  0  0  0  0  0  0  0
  144.2855  137.0815  160.2933 H   0  0  0  0  0  0  0  0  0  0  0  0
  143.8836  138.0336  161.7232 H   0  0  0  0  0  0  0  0  0  0  0  0
  146.4945  137.8079  160.9880 H   0  0  0  0  0  0  0  0  0  0  0  0
  146.0326  137.7233  162.6779 H   0  0  0  0  0  0  0  0  0  0  0  0
  147.9432  136.4320  162.5959 H   0  0  0  0  0  0  0  0  0  0  0  0
  147.0386  134.0958  160.6048 H   0  0  0  0  0  0  0  0  0  0  0  0
  145.6952  134.9417  159.8858 H   0  0  0  0  0  0  0  0  0  0  0  0
  149.0582  136.4199  161.0477 H   0  0  0  0  0  0  0  0  0  0  0  0
  149.7240  137.0102  154.2499 H   0  0  0  0  0  0  0  0  0  0  0  0
  148.8500  138.5339  154.2329 H   0  0  0  0  0  0  0  0  0  0  0  0
  151.9017  138.1996  154.4097 H   0  0  0  0  0  0  0  0  0  0  0  0
  150.9986  138.8331  153.0462 H   0  0  0  0  0  0  0  0  0  0  0  0
  151.9840  139.4843  156.4471 H   0  0  0  0  0  0  0  0  0  0  0  0
  152.1182  141.9719  156.1776 H   0  0  0  0  0  0  0  0  0  0  0  0
  150.3640  142.0732  156.2862 H   0  0  0  0  0  0  0  0  0  0  0  0
  150.3236  143.3213  157.8673 H   0  0  0  0  0  0  0  0  0  0  0  0
  150.3324  142.6156  159.4853 H   0  0  0  0  0  0  0  0  0  0  0  0
  152.9798  142.9393  159.3213 H   0  0  0  0  0  0  0  0  0  0  0  0
  151.1056  145.4263  159.4470 H   0  0  0  0  0  0  0  0  0  0  0  0
  152.8112  145.2978  160.1234 H   0  0  0  0  0  0  0  0  0  0  0  0
  153.6849  144.7893  157.8212 H   0  0  0  0  0  0  0  0  0  0  0  0
  151.9784  144.9208  157.1475 H   0  0  0  0  0  0  0  0  0  0  0  0
  148.9647  139.9815  156.3849 H   0  0  0  0  0  0  0  0  0  0  0  0
  149.8632  139.3080  157.7362 H   0  0  0  0  0  0  0  0  0  0  0  0
  145.9560  135.9147  155.4260 H   0  0  0  0  0  0  0  0  0  0  0  0
  1  2  1  0  0  0  0
  1 30  1  0  0  0  0
  1 31  1  0  0  0  0
  1 32  1  0  0  0  0
  2  6  1  0  0  0  0
  2  3  1  0  0  0  0
  2 33  1  0  0  0  0
  3  4  1  0  0  0  0
  4  5  1  0  0  0  0
  4 34  1  0  0  0  0
  4 35  1  0  0  0  0
  5  6  1  0  0  0  0
  5 36  1  0  0  0  0
  5 37  1  0  0  0  0
  6  7  1  0  0  0  0
  6  8  1  0  0  0  0
  7 38  1  0  0  0  0
  8  9  1  0  0  0  0
  8 39  1  0  0  0  0
  8 40  1  0  0  0  0
  9 29  1  0  0  0  0
  9 10  1  0  0  0  0
 10 11  2  0  0  0  0
 10 41  1  0  0  0  0
 11 12  1  0  0  0  0
 12 29  2  0  0  0  0
 12 13  1  0  0  0  0
 13 14  1  0  0  0  0
 13 26  2  0  0  0  0
 14 25  1  0  0  0  0
 14 15  1  0  0  0  0
 15 16  1  0  0  0  0
 15 42  1  0  0  0  0
 15 43  1  0  0  0  0
 16 17  1  0  0  0  0
 16 44  1  0  0  0  0
 16 45  1  0  0  0  0
 17 18  1  0  0  0  0
 18 19  1  0  0  0  0
 18 25  1  0  0  0  0
 18 46  1  0  0  0  0
 19 20  1  0  0  0  0
 19 47  1  0  0  0  0
 19 48  1  0  0  0  0
 20 21  1  0  0  0  0
 21 22  1  0  0  0  0
 21 49  1  0  0  0  0
 21 50  1  0  0  0  0
 22 24  1  0  0  0  0
 22 23  1  0  0  0  0
 22 51  1  0  0  0  0
 23 24  1  0  0  0  0
 23 52  1  0  0  0  0
 23 53  1  0  0  0  0
 24 54  1  0  0  0  0
 24 55  1  0  0  0  0
 25 56  1  0  0  0  0
 25 57  1  0  0  0  0
 26 27  1  0  0  0  0
 27 28  2  0  0  0  0
 27 58  1  0  0  0  0
 28 29  1  0  0  0  0
M  END
> <s_m_source_file>
AV-unprocessed.smi

> <i_m_source_file_index>
236

> <i_lp_mmshare_version>
43012

> <i_f3d_flags>
0

> <s_epik_input>
W0NIMl0xW0NIMl1PW0NAQEhdKFtDSDNdKVtDQEBdMShbT0hdKVtDSDJdbihbY0hdbjIpYyhjMjMpbltjSF1uYzNONFtDSDJdW0NIMl1PW0NASF0oW0NIMl00KVtDSDJdT1tDSDJdW0NIXTVbQ0gyXVtDSDJdNQ==

> <s_epik_cmdline>
J2VwaWtfcHl0aG9uJywgJy1waCcsICc3LjAnLCAnLXRuJywgJzgnLCAnLW1hJywgJzIwMCcsICctbWV0YWxfYmluZGluZycsICctaW1hZScsICc8aW5maWxlLm1hZT4nLCAnLW9tYWUnLCAnPG91dGZpbGUubWFlPic=

> <r_lp_tautomer_probability>
1

> <r_epik_Ionization_Penalty>
7.21838e-05

> <r_epik_Ionization_Penalty_Charging>
0

> <r_epik_Ionization_Penalty_Neutral>
7.21838e-05

> <r_epik_State_Penalty>
-0

> <r_epik_Charging_Adjusted_Penalty>
0

> <i_epik_Tot_Q>
0

> <i_epik_Tot_abs_Q>
0

> <r_epik_Metal_State_Penalty>
-0

> <b_epik_Metal_Only>
0

> <s_lp_Force_Field>
OPLS_2005

> <r_lp_Energy>
49.116

> <b_lp_Chiralities_Consistent>
1

> <s_lp_Variant>
AV-unprocessed.smi:236-1

> <Gold.Version>
5.8.1

> <Gold.Id.Protein>
6NUR|6NUR_protein|mol2

> <Gold.PLP.Fitness>
46.4381

> <Gold.PLP.PLP>
-45.0319

> <Gold.PLP.part.hbond>
-1.0000

> <Gold.PLP.part.metal>
0.0000

> <Gold.PLP.part.buried>
-8.1798

> <Gold.PLP.part.nonpolar>
-35.4230

> <Gold.PLP.part.repulsive>
0.1596

> <Gold.PLP.ligand.clash>
0.0000

> <Gold.PLP.ligand.torsion>
1.2042

> <Gold.PLP.Chemscore.Hbond>
1.0000

> <Gold.PLP.Chemscore.CHOScore>
0.0000

> <Gold.PLP.Chemscore.Metal>
0.0000

> <Gold.Chemscore.Hbonds>
donor molecule, donor type, donor heavy atom, donor atom, acceptor molecule, acceptor atom, score
      P1  H  7989  7998       L1    17  1.00

> <Gold.PLP.Chemscore.Internal.Correction>
0.8147

> <Gold.Rescore>
     Score         DG    S(hbond)    S(metal)    S(lipo)     H(rot)  DE(clash)    DE(int)     intcor
     13.19     -14.39       0.94        0.00     111.90       2.87       0.15       1.05       ----

> <Gold.Chemscore.Fitness>
13.1909

> <Gold.Chemscore.DG>
-14.3873

> <Gold.Chemscore.ZeroCoef>
-5.4800

> <Gold.Chemscore.Hbond>
0.9434

> <Gold.Chemscore.Metal>
0.0000

> <Gold.Chemscore.Lipo>
111.8977

> <Gold.Chemscore.Internal_Hbond>
0.0000

> <Gold.Chemscore.DEClash>
0.1513

> <Gold.Chemscore.DEInternal>
1.0451

> <Gold.Chemscore.Rot>
2.8655

> <Gold.Chemscore.Internal.Correction>
   9.000000E+99

> <Gold.Chemscore.Hbonds>
donor molecule, donor type, donor heavy atom, donor atom, acceptor molecule, acceptor atom, score
      P1  H  7989  7998       L1    17  0.29

> <Gold.Chemscore.Hbond.Weighted>
-3.1511

> <Gold.Chemscore.Metal.Weighted>
-0.0000

> <Gold.Chemscore.Lipo.Weighted>
-13.0920

> <Gold.Chemscore.Internal_Hbond.Weighted>
0.0000

> <Gold.Chemscore.DEClash.Weighted>
0.1513

> <Gold.Chemscore.DEInternal.Weighted>
1.0451

> <Gold.Chemscore.Rot.Weighted>
7.3358

> <Gold.Chemscore.Internal.Correction.Weighted>
   9.000000E+99

> <Gold.Protein.RotatedTorsions>
[ 6907 6896 6895 6894 ] final    9.76 input  -60.11 | X-H torsion
[ 7974 7965 7964 7962 ] final  -38.38 input  175.53 | X-H torsion
[ 8008 7997 7996 7995 ] final   51.04 input   59.86 | X-H torsion
[ 10167 10162 10161 10158 ] final   26.51 input  -65.29 | X-H torsion
[ 10718 10713 10712 10709 ] final -178.61 input   66.30 | X-H torsion
[ 10763 10752 10751 10750 ] final -146.34 input  -60.55 | X-H torsion
[ 11005 11000 10999 10996 ] final   42.76 input  -57.11 | X-H torsion

> <Gold.Protein.ActiveResidues>
 VAL166  LYS551  ARG553  GLY616  TRP617  ASP618  TYR619  PRO620  LYS621  CYS622 
 ASP623  PHE694  ASN695  SER759  ASP760  ASP761  ALA762  ILE779  LEU786  VAL792 
 PHE793  MET794  SER795  GLU796  ALA797  LYS798  CYS799  TRP800  GLU811  SER814 

> <Gold.Protein.RotatedAtoms>
  151.7273  135.0882  160.0293 H   0  0  0  0  0  0  0  0  0  0  0  0  # atno 6907 bound_to 6896
  152.3564  133.6237  159.5990 H   0  0  0  0  0  0  0  0  0  0  0  0  # atno 6908 bound_to 6896
  150.7574  133.9410  159.3498 H   0  0  0  0  0  0  0  0  0  0  0  0  # atno 6909 bound_to 6896
  146.0492  140.6505  142.9050 H   0  0  0  0  0  0  0  0  0  0  0  0  # atno 7974 bound_to 7965
  155.4288  140.3449  155.4278 H   0  0  0  0  0  0  0  0  0  0  0  0  # atno 8008 bound_to 7997
  156.1349  140.1525  156.9040 H   0  0  0  0  0  0  0  0  0  0  0  0  # atno 8009 bound_to 7997
  154.4924  140.0837  156.7603 H   0  0  0  0  0  0  0  0  0  0  0  0  # atno 8010 bound_to 7997
  140.5017  144.0304  150.6335 H   0  0  0  0  0  0  0  0  0  0  0  0  # atno 10167 bound_to 10162
  156.8469  130.9705  151.3095 H   0  0  0  0  0  0  0  0  0  0  0  0  # atno 10718 bound_to 10713
  154.8340  135.3389  154.6647 H   0  0  0  0  0  0  0  0  0  0  0  0  # atno 10763 bound_to 10752
  153.7263  135.6955  153.5005 H   0  0  0  0  0  0  0  0  0  0  0  0  # atno 10764 bound_to 10752
  153.2344  135.4405  155.0583 H   0  0  0  0  0  0  0  0  0  0  0  0  # atno 10765 bound_to 10752
  140.1709  134.4223  155.8258 H   0  0  0  0  0  0  0  0  0  0  0  0  # atno 11005 bound_to 11000
  144.7113  140.4050  143.7078 LP  0  0  0  0  0  0  0  0  0  0  0  0  # atno 17320 bound_to 7965
  145.6754  139.1607  143.2731 LP  0  0  0  0  0  0  0  0  0  0  0  0  # atno 17321 bound_to 7965
  140.3602  143.2912  152.0392 LP  0  0  0  0  0  0  0  0  0  0  0  0  # atno 17342 bound_to 10162
  139.4874  144.6308  151.7073 LP  0  0  0  0  0  0  0  0  0  0  0  0  # atno 17343 bound_to 10162
  157.6325  130.8740  149.9299 LP  0  0  0  0  0  0  0  0  0  0  0  0  # atno 17370 bound_to 10713
  156.0849  130.3669  150.0506 LP  0  0  0  0  0  0  0  0  0  0  0  0  # atno 17371 bound_to 10713
  141.2217  133.6955  156.7761 LP  0  0  0  0  0  0  0  0  0  0  0  0  # atno 17394 bound_to 11000
  140.2379  134.8636  157.3543 LP  0  0  0  0  0  0  0  0  0  0  0  0  # atno 17395 bound_to 11000

$$$$
