AV-unprocessed.smi:61|AV-procd|sdf|598|dock7
  -GOLD-   2262016493D 1   1.00000     0.00000
 Structure written by MMmdl.
 28 29  0  0  0  0  0  0  0  0  1 V2000
  149.4665  142.1531  154.9752 N   0  0  0  0  0  0  0  0  0  0  0  0
  150.3820  141.5010  155.7646 C   0  0  0  0  0  0  0  0  0  0  0  0
  150.9712  140.4289  155.2343 N   0  0  0  0  0  0  0  0  0  0  0  0
  151.8704  139.7890  156.0120 C   0  0  0  0  0  0  0  0  0  0  0  0
  152.1725  140.2300  157.3163 C   0  0  0  0  0  0  0  0  0  0  0  0
  151.4868  141.3784  157.7787 C   0  0  0  0  0  0  0  0  0  0  0  0
  151.7324  141.8876  159.0712 N   0  0  0  0  0  0  0  0  0  0  0  0
  152.7547  141.2126  159.8645 C   0  0  0  0  0  0  0  0  0  0  0  0
  153.5039  142.3106  160.6280 C   0  0  0  0  0  0  0  0  0  0  0  0
  152.5088  143.4659  160.6755 C   0  0  0  0  0  0  0  0  0  0  0  0
  151.7777  143.3248  159.3357 C   0  0  2  0  0  0  0  0  0  0  0  0
  150.4017  144.0247  159.2618 C   0  0  0  0  0  0  0  0  0  0  0  0
  150.4190  145.1303  158.3818 O   0  0  0  0  0  0  0  0  0  0  0  0
  150.5876  142.0067  156.9820 N   0  0  0  0  0  0  0  0  0  0  0  0
  148.9863  142.9712  155.3205 H   0  0  0  0  0  0  0  0  0  0  0  0
  149.3048  141.8515  154.0255 H   0  0  0  0  0  0  0  0  0  0  0  0
  152.3512  138.9178  155.5922 H   0  0  0  0  0  0  0  0  0  0  0  0
  152.8898  139.7031  157.9280 H   0  0  0  0  0  0  0  0  0  0  0  0
  152.2599  140.5333  160.5594 H   0  0  0  0  0  0  0  0  0  0  0  0
  153.4430  140.6275  159.2531 H   0  0  0  0  0  0  0  0  0  0  0  0
  153.8334  141.9896  161.6166 H   0  0  0  0  0  0  0  0  0  0  0  0
  154.3863  142.6136  160.0624 H   0  0  0  0  0  0  0  0  0  0  0  0
  151.8295  143.3202  161.5161 H   0  0  0  0  0  0  0  0  0  0  0  0
  152.9895  144.4372  160.7948 H   0  0  0  0  0  0  0  0  0  0  0  0
  152.4185  143.7668  158.5712 H   0  0  0  0  0  0  0  0  0  0  0  0
  149.6545  143.3190  158.8982 H   0  0  0  0  0  0  0  0  0  0  0  0
  150.0620  144.3575  160.2417 H   0  0  0  0  0  0  0  0  0  0  0  0
  149.5548  145.2343  158.0139 H   0  0  0  0  0  0  0  0  0  0  0  0
  1  2  1  0  0  0  0
  1 15  1  0  0  0  0
  1 16  1  0  0  0  0
  2 14  1  0  0  0  0
  2  3  2  0  0  0  0
  3  4  1  0  0  0  0
  4  5  2  0  0  0  0
  4 17  1  0  0  0  0
  5  6  1  0  0  0  0
  5 18  1  0  0  0  0
  6  7  1  0  0  0  0
  6 14  2  0  0  0  0
  7 11  1  0  0  0  0
  7  8  1  0  0  0  0
  8  9  1  0  0  0  0
  8 19  1  0  0  0  0
  8 20  1  0  0  0  0
  9 10  1  0  0  0  0
  9 21  1  0  0  0  0
  9 22  1  0  0  0  0
 10 11  1  0  0  0  0
 10 23  1  0  0  0  0
 10 24  1  0  0  0  0
 11 12  1  0  0  0  0
 11 25  1  0  0  0  0
 12 13  1  0  0  0  0
 12 26  1  0  0  0  0
 12 27  1  0  0  0  0
 13 28  1  0  0  0  0
M  END
> <s_m_source_file>
AV-unprocessed.smi

> <i_m_source_file_index>
61

> <i_lp_mmshare_version>
43012

> <i_f3d_flags>
0

> <s_epik_input>
W05IMl1jMW5bY0hdW2NIXWMobjEpTjJbQ0gyXVtDSDJdW0NIMl1bQ0BIXTJbQ0gyXVtPSF0=

> <s_epik_cmdline>
J2VwaWtfcHl0aG9uJywgJy1waCcsICc3LjAnLCAnLXRuJywgJzgnLCAnLW1hJywgJzIwMCcsICctbWV0YWxfYmluZGluZycsICctaW1hZScsICc8aW5maWxlLm1hZT4nLCAnLW9tYWUnLCAnPG91dGZpbGUubWFlPic=

> <r_lp_tautomer_probability>
1

> <r_epik_Ionization_Penalty>
0.76024

> <r_epik_Ionization_Penalty_Charging>
0

> <r_epik_Ionization_Penalty_Neutral>
0.76024

> <r_epik_State_Penalty>
0.587668

> <r_epik_Charging_Adjusted_Penalty>
0.587668

> <i_epik_Tot_Q>
0

> <i_epik_Tot_abs_Q>
0

> <r_epik_Metal_State_Penalty>
0.307814

> <b_epik_Metal_Only>
0

> <s_lp_Force_Field>
OPLS_2005

> <r_lp_Energy>
26.7573

> <b_lp_Chiralities_Consistent>
1

> <s_lp_Variant>
AV-unprocessed.smi:61-4

> <Gold.Version>
5.8.1

> <Gold.Id.Protein>
6NUR|6NUR_protein|mol2

> <Gold.PLP.Fitness>
37.3168

> <Gold.PLP.PLP>
-30.0509

> <Gold.PLP.part.hbond>
-3.6431

> <Gold.PLP.part.metal>
0.0000

> <Gold.PLP.part.buried>
-4.8139

> <Gold.PLP.part.nonpolar>
-22.0605

> <Gold.PLP.part.repulsive>
0.3718

> <Gold.PLP.ligand.clash>
0.0000

> <Gold.PLP.ligand.torsion>
1.0396

> <Gold.PLP.Chemscore.Hbond>
3.0000

> <Gold.PLP.Chemscore.CHOScore>
0.0000

> <Gold.PLP.Chemscore.Metal>
0.0000

> <Gold.Chemscore.Hbonds>
donor molecule, donor type, donor heavy atom, donor atom, acceptor molecule, acceptor atom, score
      L1  H     1    15       P1  8028  1.00
      L1  H    13    28       P1  8029  0.95
      P1  H  7989  7998       L1     3  1.00

> <Gold.PLP.Chemscore.Internal.Correction>
0.3450

> <Gold.Rescore>
     Score         DG    S(hbond)    S(metal)    S(lipo)     H(rot)  DE(clash)    DE(int)     intcor
     14.81     -16.41       2.60        0.00      62.12       1.96       0.05       1.55       ----

> <Gold.Chemscore.Fitness>
14.8068

> <Gold.Chemscore.DG>
-16.4113

> <Gold.Chemscore.ZeroCoef>
-5.4800

> <Gold.Chemscore.Hbond>
2.5962

> <Gold.Chemscore.Metal>
0.0000

> <Gold.Chemscore.Lipo>
62.1165

> <Gold.Chemscore.Internal_Hbond>
0.0000

> <Gold.Chemscore.DEClash>
0.0522

> <Gold.Chemscore.DEInternal>
1.5523

> <Gold.Chemscore.Rot>
1.9561

> <Gold.Chemscore.Internal.Correction>
   9.000000E+99

> <Gold.Chemscore.Hbonds>
donor molecule, donor type, donor heavy atom, donor atom, acceptor molecule, acceptor atom, score
      L1  H     1    15       P1  8028  0.97
      L1  H    13    28       P1  8029  0.21
      P1  H  7989  7998       L1     3  0.59

> <Gold.Chemscore.Hbond.Weighted>
-8.6714

> <Gold.Chemscore.Metal.Weighted>
-0.0000

> <Gold.Chemscore.Lipo.Weighted>
-7.2676

> <Gold.Chemscore.Internal_Hbond.Weighted>
0.0000

> <Gold.Chemscore.DEClash.Weighted>
0.0522

> <Gold.Chemscore.DEInternal.Weighted>
1.5523

> <Gold.Chemscore.Rot.Weighted>
5.0077

> <Gold.Chemscore.Internal.Correction.Weighted>
   9.000000E+99

> <Gold.Protein.RotatedTorsions>
[ 6907 6896 6895 6894 ] final  -82.72 input  -60.11 | X-H torsion
[ 7974 7965 7964 7962 ] final   47.59 input  175.53 | X-H torsion
[ 8008 7997 7996 7995 ] final  142.15 input   59.86 | X-H torsion
[ 10167 10162 10161 10158 ] final   85.54 input  -65.29 | X-H torsion
[ 10718 10713 10712 10709 ] final  118.09 input   66.30 | X-H torsion
[ 10763 10752 10751 10750 ] final   94.51 input  -60.55 | X-H torsion
[ 11005 11000 10999 10996 ] final  159.42 input  -57.11 | X-H torsion

> <Gold.Protein.ActiveResidues>
 VAL166  LYS551  ARG553  GLY616  TRP617  ASP618  TYR619  PRO620  LYS621  CYS622 
 ASP623  PHE694  ASN695  SER759  ASP760  ASP761  ALA762  ILE779  LEU786  VAL792 
 PHE793  MET794  SER795  GLU796  ALA797  LYS798  CYS799  TRP800  GLU811  SER814 

> <Gold.Protein.RotatedAtoms>
  150.6894  134.3622  159.4955 H   0  0  0  0  0  0  0  0  0  0  0  0  # atno 6907 bound_to 6896
  152.1449  134.9031  160.0561 H   0  0  0  0  0  0  0  0  0  0  0  0  # atno 6908 bound_to 6896
  152.0150  133.3841  159.4272 H   0  0  0  0  0  0  0  0  0  0  0  0  # atno 6909 bound_to 6896
  146.0283  139.4733  142.9853 H   0  0  0  0  0  0  0  0  0  0  0  0  # atno 7974 bound_to 7965
  156.2954  140.2296  156.4681 H   0  0  0  0  0  0  0  0  0  0  0  0  # atno 8008 bound_to 7997
  154.7959  140.0451  157.1257 H   0  0  0  0  0  0  0  0  0  0  0  0  # atno 8009 bound_to 7997
  154.9590  140.3052  155.5043 H   0  0  0  0  0  0  0  0  0  0  0  0  # atno 8010 bound_to 7997
  139.8966  144.6354  150.8681 H   0  0  0  0  0  0  0  0  0  0  0  0  # atno 10167 bound_to 10162
  157.6053  131.1044  150.7707 H   0  0  0  0  0  0  0  0  0  0  0  0  # atno 10718 bound_to 10713
  153.2425  135.4287  155.0713 H   0  0  0  0  0  0  0  0  0  0  0  0  # atno 10763 bound_to 10752
  154.8347  135.3406  154.6628 H   0  0  0  0  0  0  0  0  0  0  0  0  # atno 10764 bound_to 10752
  153.7052  135.7026  153.5109 H   0  0  0  0  0  0  0  0  0  0  0  0  # atno 10765 bound_to 10752
  140.1960  134.8373  157.2965 H   0  0  0  0  0  0  0  0  0  0  0  0  # atno 11005 bound_to 11000
  145.7081  141.0115  143.1468 LP  0  0  0  0  0  0  0  0  0  0  0  0  # atno 17320 bound_to 7965
  144.7019  139.8725  143.7441 LP  0  0  0  0  0  0  0  0  0  0  0  0  # atno 17321 bound_to 7965
  140.7715  143.3468  151.2094 LP  0  0  0  0  0  0  0  0  0  0  0  0  # atno 17342 bound_to 10162
  139.7062  143.9452  152.2927 LP  0  0  0  0  0  0  0  0  0  0  0  0  # atno 17343 bound_to 10162
  156.8097  130.4948  149.5357 LP  0  0  0  0  0  0  0  0  0  0  0  0  # atno 17370 bound_to 10713
  156.1138  130.6060  151.0088 LP  0  0  0  0  0  0  0  0  0  0  0  0  # atno 17371 bound_to 10713
  140.2107  134.4142  155.7614 LP  0  0  0  0  0  0  0  0  0  0  0  0  # atno 17394 bound_to 11000
  141.2227  133.7117  156.8333 LP  0  0  0  0  0  0  0  0  0  0  0  0  # atno 17395 bound_to 11000

$$$$
