AV-unprocessed.smi:2375|AV-procd|sdf|9442|dock1
  -GOLD-   2272013 73D 1   1.00000     0.00000
 Structure written by MMmdl.
 37 38  0  0  0  0  0  0  0  0  1 V2000
  145.2481  145.8565  153.3836 C   0  0  0  0  0  0  0  0  0  0  0  0
  145.8060  144.4971  153.6353 C   0  0  0  0  0  0  0  0  0  0  0  0
  145.4551  143.6142  154.6265 C   0  0  0  0  0  0  0  0  0  0  0  0
  146.1740  142.4177  154.5966 N   0  0  0  0  0  0  0  0  0  0  0  0
  147.0674  142.3829  153.6037 C   0  0  0  0  0  0  0  0  0  0  0  0
  148.0039  141.2376  153.3642 C   0  0  2  0  0  0  0  0  0  0  0  0
  147.3492  140.1216  152.5375 C   0  0  0  0  0  0  0  0  0  0  0  0
  148.6729  140.7170  154.6538 C   0  0  0  0  0  0  0  0  0  0  0  0
  149.3020  141.7934  155.4165 N   0  0  0  0  0  0  0  0  0  0  0  0
  149.6239  141.7484  156.7213 C   0  0  0  0  0  0  0  0  0  0  0  0
  149.4812  140.7503  157.4249 O   0  0  0  0  0  0  0  0  0  0  0  0
  150.1209  142.8961  157.2152 N   0  0  0  0  0  0  0  0  0  0  0  0
  150.5620  143.1707  158.5834 C   0  0  0  0  0  0  0  0  0  0  0  0
  150.9703  144.6522  158.7680 C   0  0  0  0  0  0  0  0  0  0  0  0
  152.2497  144.5731  159.5566 C   0  0  0  0  0  0  0  0  0  0  0  0
  152.6923  143.3236  159.6818 C   0  0  0  0  0  0  0  0  0  0  0  0
  151.7949  142.3277  158.9998 C   0  0  0  0  0  0  0  0  0  0  0  0
  147.0612  143.8412  152.6184 S   0  0  0  0  0  0  0  0  0  0  0  0
  144.4322  146.0801  154.0715 H   0  0  0  0  0  0  0  0  0  0  0  0
  144.8623  145.9346  152.3671 H   0  0  0  0  0  0  0  0  0  0  0  0
  146.0165  146.6187  153.5136 H   0  0  0  0  0  0  0  0  0  0  0  0
  144.7092  143.7558  155.3946 H   0  0  0  0  0  0  0  0  0  0  0  0
  148.8087  141.6364  152.7451 H   0  0  0  0  0  0  0  0  0  0  0  0
  146.9722  140.5058  151.5891 H   0  0  0  0  0  0  0  0  0  0  0  0
  146.5117  139.6724  153.0721 H   0  0  0  0  0  0  0  0  0  0  0  0
  148.0635  139.3291  152.3128 H   0  0  0  0  0  0  0  0  0  0  0  0
  147.9378  140.1891  155.2636 H   0  0  0  0  0  0  0  0  0  0  0  0
  149.4399  139.9836  154.4037 H   0  0  0  0  0  0  0  0  0  0  0  0
  149.4664  142.6592  154.9243 H   0  0  0  0  0  0  0  0  0  0  0  0
  150.2420  143.6519  156.5566 H   0  0  0  0  0  0  0  0  0  0  0  0
  149.7457  142.9669  159.2791 H   0  0  0  0  0  0  0  0  0  0  0  0
  151.1679  145.1528  157.8190 H   0  0  0  0  0  0  0  0  0  0  0  0
  150.2111  145.2188  159.3080 H   0  0  0  0  0  0  0  0  0  0  0  0
  152.7436  145.4517  159.9445 H   0  0  0  0  0  0  0  0  0  0  0  0
  153.6012  143.0308  160.1866 H   0  0  0  0  0  0  0  0  0  0  0  0
  151.5232  141.5147  159.6740 H   0  0  0  0  0  0  0  0  0  0  0  0
  152.3206  141.9075  158.1414 H   0  0  0  0  0  0  0  0  0  0  0  0
  1  2  1  0  0  0  0
  1 19  1  0  0  0  0
  1 20  1  0  0  0  0
  1 21  1  0  0  0  0
  2 18  1  0  0  0  0
  2  3  2  0  0  0  0
  3  4  1  0  0  0  0
  3 22  1  0  0  0  0
  4  5  2  0  0  0  0
  5  6  1  0  0  0  0
  5 18  1  0  0  0  0
  6  7  1  0  0  0  0
  6  8  1  0  0  0  0
  6 23  1  0  0  0  0
  7 24  1  0  0  0  0
  7 25  1  0  0  0  0
  7 26  1  0  0  0  0
  8  9  1  0  0  0  0
  8 27  1  0  0  0  0
  8 28  1  0  0  0  0
  9 10  1  0  0  0  0
  9 29  1  0  0  0  0
 10 11  2  0  0  0  0
 10 12  1  0  0  0  0
 12 13  1  0  0  0  0
 12 30  1  0  0  0  0
 13 17  1  0  0  0  0
 13 14  1  0  0  0  0
 13 31  1  0  0  0  0
 14 15  1  0  0  0  0
 14 32  1  0  0  0  0
 14 33  1  0  0  0  0
 15 16  2  0  0  0  0
 15 34  1  0  0  0  0
 16 17  1  0  0  0  0
 16 35  1  0  0  0  0
 17 36  1  0  0  0  0
 17 37  1  0  0  0  0
M  END
> <s_m_source_file>
AV-unprocessed.smi

> <i_m_source_file_index>
2375

> <i_lp_mmshare_version>
43012

> <i_f3d_flags>
0

> <s_epik_input>
W0NIM11jMVtjSF1uYyhzMSlbQ0BIXShbQ0gzXSlbQ0gyXVtOSF1DKD1PKVtOSF1bQ0hdMltDSDJdW0NIXT1bQ0hdW0NIMl0y

> <s_epik_cmdline>
J2VwaWtfcHl0aG9uJywgJy1waCcsICc3LjAnLCAnLXRuJywgJzgnLCAnLW1hJywgJzIwMCcsICctbWV0YWxfYmluZGluZycsICctaW1hZScsICc8aW5maWxlLm1hZT4nLCAnLW9tYWUnLCAnPG91dGZpbGUubWFlPic=

> <r_epik_Ionization_Penalty>
0.000644205

> <r_epik_Ionization_Penalty_Charging>
0

> <r_epik_Ionization_Penalty_Neutral>
0.000644205

> <r_epik_State_Penalty>
0.000370883

> <r_epik_Charging_Adjusted_Penalty>
0.000370883

> <i_epik_Tot_Q>
0

> <i_epik_Tot_abs_Q>
0

> <r_epik_Metal_State_Penalty>
-0

> <b_epik_Metal_Only>
0

> <s_lp_Force_Field>
OPLS_2005

> <r_lp_Energy>
17.1523

> <b_lp_Chiralities_Consistent>
1

> <s_lp_Variant>
AV-unprocessed.smi:2375-1

> <Gold.Version>
5.8.1

> <Gold.Id.Protein>
6NUR|6NUR_protein|mol2

> <Gold.PLP.Fitness>
44.0888

> <Gold.PLP.PLP>
-39.7141

> <Gold.PLP.part.hbond>
-2.0000

> <Gold.PLP.part.metal>
0.0000

> <Gold.PLP.part.buried>
-5.0311

> <Gold.PLP.part.nonpolar>
-33.4513

> <Gold.PLP.part.repulsive>
0.2933

> <Gold.PLP.ligand.clash>
0.0000

> <Gold.PLP.ligand.torsion>
0.6922

> <Gold.PLP.Chemscore.Hbond>
1.8800

> <Gold.PLP.Chemscore.CHOScore>
0.0000

> <Gold.PLP.Chemscore.Metal>
0.0000

> <Gold.Chemscore.Hbonds>
donor molecule, donor type, donor heavy atom, donor atom, acceptor molecule, acceptor atom, score
      L1  H     9    29       P1  8028  0.23
      L1  H    12    30       P1  8028  0.59

> <Gold.PLP.Chemscore.Internal.Correction>
0.1192

> <Gold.Rescore>
     Score         DG    S(hbond)    S(metal)    S(lipo)     H(rot)  DE(clash)    DE(int)     intcor
     19.76     -20.03       1.84        0.00     104.72       1.50       0.10       0.17       ----

> <Gold.Chemscore.Fitness>
19.7572

> <Gold.Chemscore.DG>
-20.0266

> <Gold.Chemscore.ZeroCoef>
-5.4800

> <Gold.Chemscore.Hbond>
1.8376

> <Gold.Chemscore.Metal>
0.0000

> <Gold.Chemscore.Lipo>
104.7166

> <Gold.Chemscore.Internal_Hbond>
0.0000

> <Gold.Chemscore.DEClash>
0.0998

> <Gold.Chemscore.DEInternal>
0.1696

> <Gold.Chemscore.Rot>
1.5012

> <Gold.Chemscore.Internal.Correction>
   9.000000E+99

> <Gold.Chemscore.Hbonds>
donor molecule, donor type, donor heavy atom, donor atom, acceptor molecule, acceptor atom, score
      L1  H     9    29       P1  8028  0.23
      L1  H    12    30       P1  8028  0.60

> <Gold.Chemscore.Hbond.Weighted>
-6.1377

> <Gold.Chemscore.Metal.Weighted>
-0.0000

> <Gold.Chemscore.Lipo.Weighted>
-12.2518

> <Gold.Chemscore.Internal_Hbond.Weighted>
0.0000

> <Gold.Chemscore.DEClash.Weighted>
0.0998

> <Gold.Chemscore.DEInternal.Weighted>
0.1696

> <Gold.Chemscore.Rot.Weighted>
3.8429

> <Gold.Chemscore.Internal.Correction.Weighted>
   9.000000E+99

> <Gold.Protein.RotatedTorsions>
[ 6907 6896 6895 6894 ] final   76.63 input  -60.11 | X-H torsion
[ 7974 7965 7964 7962 ] final -169.32 input  175.53 | X-H torsion
[ 8008 7997 7996 7995 ] final -137.70 input   59.86 | X-H torsion
[ 10167 10162 10161 10158 ] final  108.02 input  -65.29 | X-H torsion
[ 10718 10713 10712 10709 ] final   84.15 input   66.30 | X-H torsion
[ 10763 10752 10751 10750 ] final   -7.33 input  -60.55 | X-H torsion
[ 11005 11000 10999 10996 ] final -146.51 input  -57.11 | X-H torsion

> <Gold.Protein.ActiveResidues>
 VAL166  LYS551  ARG553  GLY616  TRP617  ASP618  TYR619  PRO620  LYS621  CYS622 
 ASP623  PHE694  ASN695  SER759  ASP760  ASP761  ALA762  ILE779  LEU786  VAL792 
 PHE793  MET794  SER795  GLU796  ALA797  LYS798  CYS799  TRP800  GLU811  SER814 

> <Gold.Protein.RotatedAtoms>
  152.5082  134.3939  159.9393 H   0  0  0  0  0  0  0  0  0  0  0  0  # atno 6907 bound_to 6896
  151.3900  133.3786  159.2727 H   0  0  0  0  0  0  0  0  0  0  0  0  # atno 6908 bound_to 6896
  150.9440  134.8867  159.7689 H   0  0  0  0  0  0  0  0  0  0  0  0  # atno 6909 bound_to 6896
  144.7187  140.2239  143.6312 H   0  0  0  0  0  0  0  0  0  0  0  0  # atno 7974 bound_to 7965
  155.4161  140.0515  157.3029 H   0  0  0  0  0  0  0  0  0  0  0  0  # atno 8008 bound_to 7997
  154.4924  140.2125  155.9479 H   0  0  0  0  0  0  0  0  0  0  0  0  # atno 8009 bound_to 7997
  156.1360  140.3163  155.8426 H   0  0  0  0  0  0  0  0  0  0  0  0  # atno 8010 bound_to 7997
  139.6880  144.7111  151.1398 H   0  0  0  0  0  0  0  0  0  0  0  0  # atno 10167 bound_to 10162
  157.6892  131.0121  150.2629 H   0  0  0  0  0  0  0  0  0  0  0  0  # atno 10718 bound_to 10713
  153.4248  135.7011  153.6270 H   0  0  0  0  0  0  0  0  0  0  0  0  # atno 10763 bound_to 10752
  153.4709  135.3715  155.2390 H   0  0  0  0  0  0  0  0  0  0  0  0  # atno 10764 bound_to 10752
  154.8723  135.4042  154.3623 H   0  0  0  0  0  0  0  0  0  0  0  0  # atno 10765 bound_to 10752
  140.7812  134.3077  157.5045 H   0  0  0  0  0  0  0  0  0  0  0  0  # atno 11005 bound_to 11000
  145.8475  139.2159  143.1791 LP  0  0  0  0  0  0  0  0  0  0  0  0  # atno 17320 bound_to 7965
  146.0291  140.8275  142.9885 LP  0  0  0  0  0  0  0  0  0  0  0  0  # atno 17321 bound_to 7965
  140.7674  143.5601  150.9109 LP  0  0  0  0  0  0  0  0  0  0  0  0  # atno 17342 bound_to 10162
  139.9276  143.6531  152.3083 LP  0  0  0  0  0  0  0  0  0  0  0  0  # atno 17343 bound_to 10162
  156.3205  130.3785  149.7579 LP  0  0  0  0  0  0  0  0  0  0  0  0  # atno 17370 bound_to 10713
  156.5151  130.8189  151.3183 LP  0  0  0  0  0  0  0  0  0  0  0  0  # atno 17371 bound_to 10713
  139.8742  134.9319  156.3541 LP  0  0  0  0  0  0  0  0  0  0  0  0  # atno 17394 bound_to 11000
  140.9480  133.7470  156.0234 LP  0  0  0  0  0  0  0  0  0  0  0  0  # atno 17395 bound_to 11000

$$$$
