AV-unprocessed.smi:1784|AV-procd|sdf|7196|dock10
  -GOLD-   22720 8433D 1   1.00000     0.00000
 Structure written by MMmdl.
 43 45  0  0  0  0  0  0  0  0  1 V2000
  151.2642  135.3452  155.6576 O   0  0  0  0  0  0  0  0  0  0  0  0
  150.5235  135.6706  154.7297 C   0  0  0  0  0  0  0  0  0  0  0  0
  150.5118  136.8955  154.1900 N   0  0  0  0  0  0  0  0  0  0  0  0
  151.3481  138.0000  154.6372 C   0  0  0  0  0  0  0  0  0  0  0  0
  150.4814  139.1802  155.0961 C   0  0  2  0  0  0  0  0  0  0  0  0
  149.1272  138.7643  155.6659 C   0  0  0  0  0  0  0  0  0  0  0  0
  148.3162  140.0239  155.4655 C   0  0  0  0  0  0  0  0  0  0  0  0
  148.8278  140.5149  154.1139 C   0  0  0  0  0  0  0  0  0  0  0  0
  150.1650  140.0333  153.9983 O   0  0  0  0  0  0  0  0  0  0  0  0
  149.6442  134.8627  154.1139 N   0  0  0  0  0  0  0  0  0  0  0  0
  149.3513  133.4956  154.3856 C   0  0  0  0  0  0  0  0  0  0  0  0
  150.1168  132.7069  155.2790 C   0  0  0  0  0  0  0  0  0  0  0  0
  149.7434  131.3697  155.5058 C   0  0  0  0  0  0  0  0  0  0  0  0
  148.6119  130.8689  154.8379 C   0  0  0  0  0  0  0  0  0  0  0  0
  147.8629  131.6106  153.9968 N   0  0  0  0  0  0  0  0  0  0  0  0
  148.2180  132.8997  153.7746 C   0  0  0  0  0  0  0  0  0  0  0  0
  147.4155  133.6555  152.9009 N   0  0  0  0  0  0  0  0  0  0  0  0
  146.4986  132.8961  152.0672 C   0  0  0  0  0  0  0  0  0  0  0  0
  145.5116  133.9250  151.5110 C   0  0  0  0  0  0  0  0  0  0  0  0
  145.5704  135.0990  152.4959 C   0  0  0  0  0  0  0  0  0  0  0  0
  146.6189  134.6923  153.5355 C   0  0  0  0  0  0  0  0  0  0  0  0
  149.8751  137.0814  153.4289 H   0  0  0  0  0  0  0  0  0  0  0  0
  151.9964  137.6671  155.4495 H   0  0  0  0  0  0  0  0  0  0  0  0
  151.9942  138.3129  153.8154 H   0  0  0  0  0  0  0  0  0  0  0  0
  151.0132  139.7732  155.8422 H   0  0  0  0  0  0  0  0  0  0  0  0
  148.6973  137.9479  155.0835 H   0  0  0  0  0  0  0  0  0  0  0  0
  149.1821  138.4508  156.7087 H   0  0  0  0  0  0  0  0  0  0  0  0
  147.2398  139.8505  155.4775 H   0  0  0  0  0  0  0  0  0  0  0  0
  148.5560  140.7490  156.2443 H   0  0  0  0  0  0  0  0  0  0  0  0
  148.2361  140.0880  153.3034 H   0  0  0  0  0  0  0  0  0  0  0  0
  148.7872  141.6008  154.0266 H   0  0  0  0  0  0  0  0  0  0  0  0
  149.1778  135.2491  153.3063 H   0  0  0  0  0  0  0  0  0  0  0  0
  150.9711  133.1044  155.8047 H   0  0  0  0  0  0  0  0  0  0  0  0
  150.3089  130.7441  156.1803 H   0  0  0  0  0  0  0  0  0  0  0  0
  148.2955  129.8473  154.9876 H   0  0  0  0  0  0  0  0  0  0  0  0
  147.0307  132.3768  151.2696 H   0  0  0  0  0  0  0  0  0  0  0  0
  145.9662  132.1502  152.6587 H   0  0  0  0  0  0  0  0  0  0  0  0
  145.8295  134.2565  150.5218 H   0  0  0  0  0  0  0  0  0  0  0  0
  144.5078  133.5101  151.4162 H   0  0  0  0  0  0  0  0  0  0  0  0
  145.8803  136.0063  151.9757 H   0  0  0  0  0  0  0  0  0  0  0  0
  144.6042  135.2966  152.9612 H   0  0  0  0  0  0  0  0  0  0  0  0
  146.1297  134.3053  154.4305 H   0  0  0  0  0  0  0  0  0  0  0  0
  147.2402  135.5384  153.8309 H   0  0  0  0  0  0  0  0  0  0  0  0
  1  2  2  0  0  0  0
  2  3  1  0  0  0  0
  2 10  1  0  0  0  0
  3  4  1  0  0  0  0
  3 22  1  0  0  0  0
  4  5  1  0  0  0  0
  4 23  1  0  0  0  0
  4 24  1  0  0  0  0
  5  9  1  0  0  0  0
  5  6  1  0  0  0  0
  5 25  1  0  0  0  0
  6  7  1  0  0  0  0
  6 26  1  0  0  0  0
  6 27  1  0  0  0  0
  7  8  1  0  0  0  0
  7 28  1  0  0  0  0
  7 29  1  0  0  0  0
  8  9  1  0  0  0  0
  8 30  1  0  0  0  0
  8 31  1  0  0  0  0
 10 11  1  0  0  0  0
 10 32  1  0  0  0  0
 11 16  1  0  0  0  0
 11 12  2  0  0  0  0
 12 13  1  0  0  0  0
 12 33  1  0  0  0  0
 13 14  2  0  0  0  0
 13 34  1  0  0  0  0
 14 15  1  0  0  0  0
 14 35  1  0  0  0  0
 15 16  2  0  0  0  0
 16 17  1  0  0  0  0
 17 21  1  0  0  0  0
 17 18  1  0  0  0  0
 18 19  1  0  0  0  0
 18 36  1  0  0  0  0
 18 37  1  0  0  0  0
 19 20  1  0  0  0  0
 19 38  1  0  0  0  0
 19 39  1  0  0  0  0
 20 21  1  0  0  0  0
 20 40  1  0  0  0  0
 20 41  1  0  0  0  0
 21 42  1  0  0  0  0
 21 43  1  0  0  0  0
M  END
> <s_m_source_file>
AV-unprocessed.smi

> <i_m_source_file_index>
1784

> <i_lp_mmshare_version>
43012

> <i_f3d_flags>
0

> <s_epik_input>
TzFbQ0gyXVtDSDJdW0NIMl1bQ0BIXTFbQ0gyXVtOSF1DKD1PKVtOSF1jMltjSF1bY0hdW2NIXW5jMk4zW0NIMl1bQ0gyXVtDSDJdW0NIMl0z

> <s_epik_cmdline>
J2VwaWtfcHl0aG9uJywgJy1waCcsICc3LjAnLCAnLXRuJywgJzgnLCAnLW1hJywgJzIwMCcsICctbWV0YWxfYmluZGluZycsICctaW1hZScsICc8aW5maWxlLm1hZT4nLCAnLW9tYWUnLCAnPG91dGZpbGUubWFlPic=

> <r_lp_tautomer_probability>
1

> <r_epik_Ionization_Penalty>
0.0982482

> <r_epik_Ionization_Penalty_Charging>
0

> <r_epik_Ionization_Penalty_Neutral>
0.0982482

> <r_epik_State_Penalty>
0.0877864

> <r_epik_Charging_Adjusted_Penalty>
0.0877864

> <i_epik_Tot_Q>
0

> <i_epik_Tot_abs_Q>
0

> <r_epik_Metal_State_Penalty>
0.0752567

> <b_epik_Metal_Only>
0

> <s_lp_Force_Field>
OPLS_2005

> <r_lp_Energy>
47.4963

> <b_lp_Chiralities_Consistent>
1

> <s_lp_Variant>
AV-unprocessed.smi:1784-1

> <Gold.Version>
5.8.1

> <Gold.Id.Protein>
6NUR|6NUR_protein|mol2

> <Gold.PLP.Fitness>
40.8221

> <Gold.PLP.PLP>
-31.4130

> <Gold.PLP.part.hbond>
-5.7908

> <Gold.PLP.part.metal>
0.0000

> <Gold.PLP.part.buried>
-0.6271

> <Gold.PLP.part.nonpolar>
-26.2089

> <Gold.PLP.part.repulsive>
2.1616

> <Gold.PLP.ligand.clash>
0.0000

> <Gold.PLP.ligand.torsion>
0.6746

> <Gold.PLP.Chemscore.Hbond>
3.5720

> <Gold.PLP.Chemscore.CHOScore>
0.0000

> <Gold.PLP.Chemscore.Metal>
0.0000

> <Gold.Chemscore.Hbonds>
donor molecule, donor type, donor heavy atom, donor atom, acceptor molecule, acceptor atom, score
      L1  H     3    22       P1  7948  0.85
      L1  H    10    32       P1  7948  0.95
      P1  H  7989  7998       L1     9  0.94
      P1  H 10752 10764       L1     1  1.00

> <Gold.PLP.Chemscore.Internal.Correction>
0.0424

> <Gold.Rescore>
     Score         DG    S(hbond)    S(metal)    S(lipo)     H(rot)  DE(clash)    DE(int)     intcor
     13.66     -16.53       2.37        0.00      57.11       1.38       0.08       2.80       ----

> <Gold.Chemscore.Fitness>
13.6562

> <Gold.Chemscore.DG>
-16.5334

> <Gold.Chemscore.ZeroCoef>
-5.4800

> <Gold.Chemscore.Hbond>
2.3661

> <Gold.Chemscore.Metal>
0.0000

> <Gold.Chemscore.Lipo>
57.1125

> <Gold.Chemscore.Internal_Hbond>
0.0000

> <Gold.Chemscore.DEClash>
0.0814

> <Gold.Chemscore.DEInternal>
2.7957

> <Gold.Chemscore.Rot>
1.3796

> <Gold.Chemscore.Internal.Correction>
   9.000000E+99

> <Gold.Chemscore.Hbonds>
donor molecule, donor type, donor heavy atom, donor atom, acceptor molecule, acceptor atom, score
      L1  H     3    22       P1  7948  0.33
      L1  H    10    32       P1  7948  0.21
      P1  H  7989  7998       L1     9  0.68
      P1  H 10752 10764       L1     1  0.48

> <Gold.Chemscore.Hbond.Weighted>
-7.9029

> <Gold.Chemscore.Metal.Weighted>
-0.0000

> <Gold.Chemscore.Lipo.Weighted>
-6.6822

> <Gold.Chemscore.Internal_Hbond.Weighted>
0.0000

> <Gold.Chemscore.DEClash.Weighted>
0.0814

> <Gold.Chemscore.DEInternal.Weighted>
2.7957

> <Gold.Chemscore.Rot.Weighted>
3.5317

> <Gold.Chemscore.Internal.Correction.Weighted>
   9.000000E+99

> <Gold.Protein.RotatedTorsions>
[ 6907 6896 6895 6894 ] final  -33.48 input  -60.11 | X-H torsion
[ 7974 7965 7964 7962 ] final   73.05 input  175.53 | X-H torsion
[ 8008 7997 7996 7995 ] final -140.81 input   59.86 | X-H torsion
[ 10167 10162 10161 10158 ] final  141.13 input  -65.29 | X-H torsion
[ 10718 10713 10712 10709 ] final   75.12 input   66.30 | X-H torsion
[ 10763 10752 10751 10750 ] final  -36.89 input  -60.55 | X-H torsion
[ 11005 11000 10999 10996 ] final  152.03 input  -57.11 | X-H torsion

> <Gold.Protein.ActiveResidues>
 VAL166  LYS551  ARG553  GLY616  TRP617  ASP618  TYR619  PRO620  LYS621  CYS622 
 ASP623  PHE694  ASN695  SER759  ASP760  ASP761  ALA762  ILE779  LEU786  VAL792 
 PHE793  MET794  SER795  GLU796  ALA797  LYS798  CYS799  TRP800  GLU811  SER814 

> <Gold.Protein.RotatedAtoms>
  151.0650  134.9762  159.8279 H   0  0  0  0  0  0  0  0  0  0  0  0  # atno 6907 bound_to 6896
  152.5401  134.2370  159.8857 H   0  0  0  0  0  0  0  0  0  0  0  0  # atno 6908 bound_to 6896
  151.2391  133.4366  159.2640 H   0  0  0  0  0  0  0  0  0  0  0  0  # atno 6909 bound_to 6896
  145.7457  139.2739  143.1460 H   0  0  0  0  0  0  0  0  0  0  0  0  # atno 7974 bound_to 7965
  155.4675  140.0550  157.2983 H   0  0  0  0  0  0  0  0  0  0  0  0  # atno 8008 bound_to 7997
  154.4712  140.2041  155.9945 H   0  0  0  0  0  0  0  0  0  0  0  0  # atno 8009 bound_to 7997
  156.1058  140.3212  155.8009 H   0  0  0  0  0  0  0  0  0  0  0  0  # atno 8010 bound_to 7997
  139.5029  144.6191  151.6094 H   0  0  0  0  0  0  0  0  0  0  0  0  # atno 10167 bound_to 10162
  157.6621  130.9711  150.1309 H   0  0  0  0  0  0  0  0  0  0  0  0  # atno 10718 bound_to 10713
  153.8872  135.6816  153.4763 H   0  0  0  0  0  0  0  0  0  0  0  0  # atno 10763 bound_to 10752
  153.1201  135.4744  154.9179 H   0  0  0  0  0  0  0  0  0  0  0  0  # atno 10764 bound_to 10752
  154.7640  135.3219  154.8275 H   0  0  0  0  0  0  0  0  0  0  0  0  # atno 10765 bound_to 10752
  140.1271  134.8826  157.2153 H   0  0  0  0  0  0  0  0  0  0  0  0  # atno 11005 bound_to 11000
  146.0405  140.8170  142.9831 LP  0  0  0  0  0  0  0  0  0  0  0  0  # atno 17320 bound_to 7965
  144.6860  140.2902  143.7279 LP  0  0  0  0  0  0  0  0  0  0  0  0  # atno 17321 bound_to 7965
  140.5887  143.9817  150.6311 LP  0  0  0  0  0  0  0  0  0  0  0  0  # atno 17342 bound_to 10162
  140.2991  143.3273  152.0989 LP  0  0  0  0  0  0  0  0  0  0  0  0  # atno 17343 bound_to 10162
  156.2156  130.3670  149.8618 LP  0  0  0  0  0  0  0  0  0  0  0  0  # atno 17370 bound_to 10713
  156.6485  130.8734  151.3527 LP  0  0  0  0  0  0  0  0  0  0  0  0  # atno 17371 bound_to 10713
  140.2890  134.3263  155.7321 LP  0  0  0  0  0  0  0  0  0  0  0  0  # atno 17394 bound_to 11000
  141.2163  133.7523  156.9475 LP  0  0  0  0  0  0  0  0  0  0  0  0  # atno 17395 bound_to 11000

$$$$
