AV-unprocessed.smi:2789|AV-procd|sdf|10764|dock7
  -GOLD-   2272015193D 1   1.00000     0.00000
 Structure written by MMmdl.
 35 36  0  0  0  0  0  0  0  0  1 V2000
  147.5327  132.4507  152.4008 C   0  0  0  0  0  0  0  0  0  0  0  0
  147.1850  133.8250  152.4448 O   0  0  0  0  0  0  0  0  0  0  0  0
  145.9152  134.0768  153.0412 C   0  0  2  0  0  0  0  0  0  0  0  0
  144.8630  133.4910  152.0967 C   0  0  0  0  0  0  0  0  0  0  0  0
  144.6274  134.5891  151.0647 C   0  0  0  0  0  0  0  0  0  0  0  0
  144.7006  135.8868  151.8701 C   0  0  0  0  0  0  0  0  0  0  0  0
  145.6006  135.5927  153.0863 C   0  0  2  0  0  0  0  0  0  0  0  0
  146.8009  136.4262  153.0545 N   0  0  0  0  0  0  0  0  0  0  0  0
  147.0206  137.4949  153.8327 C   0  0  0  0  0  0  0  0  0  0  0  0
  146.2115  137.9074  154.6640 O   0  0  0  0  0  0  0  0  0  0  0  0
  148.2307  138.0272  153.5899 N   0  0  0  0  0  0  0  0  0  0  0  0
  148.8146  139.1115  154.1661 C   0  0  0  0  0  0  0  0  0  0  0  0
  148.2387  140.2924  154.5491 C   0  0  0  0  0  0  0  0  0  0  0  0
  149.3455  141.0205  155.0716 C   0  0  0  0  0  0  0  0  0  0  0  0
  150.4868  140.3464  155.0103 N   0  0  0  0  0  0  0  0  0  0  0  0
  150.1642  139.1622  154.4466 N   0  0  0  0  0  0  0  0  0  0  0  0
  151.2017  138.1713  154.2332 C   0  0  0  0  0  0  0  0  0  0  0  0
  148.5280  132.3381  151.9713 H   0  0  0  0  0  0  0  0  0  0  0  0
  146.8329  131.8907  151.7793 H   0  0  0  0  0  0  0  0  0  0  0  0
  147.5435  132.0094  153.3975 H   0  0  0  0  0  0  0  0  0  0  0  0
  145.8363  133.6205  154.0302 H   0  0  0  0  0  0  0  0  0  0  0  0
  145.1730  132.5472  151.6469 H   0  0  0  0  0  0  0  0  0  0  0  0
  143.9390  133.3067  152.6463 H   0  0  0  0  0  0  0  0  0  0  0  0
  145.4263  134.5710  150.3225 H   0  0  0  0  0  0  0  0  0  0  0  0
  143.6799  134.4749  150.5374 H   0  0  0  0  0  0  0  0  0  0  0  0
  145.0586  136.7161  151.2586 H   0  0  0  0  0  0  0  0  0  0  0  0
  143.7019  136.1555  152.2169 H   0  0  0  0  0  0  0  0  0  0  0  0
  145.0216  135.8107  153.9860 H   0  0  0  0  0  0  0  0  0  0  0  0
  147.5237  136.1518  152.4059 H   0  0  0  0  0  0  0  0  0  0  0  0
  148.7910  137.5559  152.8953 H   0  0  0  0  0  0  0  0  0  0  0  0
  147.2075  140.6034  154.4760 H   0  0  0  0  0  0  0  0  0  0  0  0
  149.3549  142.0157  155.4913 H   0  0  0  0  0  0  0  0  0  0  0  0
  150.8279  137.3460  153.6274 H   0  0  0  0  0  0  0  0  0  0  0  0
  151.5369  137.7805  155.1942 H   0  0  0  0  0  0  0  0  0  0  0  0
  152.0480  138.6269  153.7185 H   0  0  0  0  0  0  0  0  0  0  0  0
  1  2  1  0  0  0  0
  1 18  1  0  0  0  0
  1 19  1  0  0  0  0
  1 20  1  0  0  0  0
  2  3  1  0  0  0  0
  3  7  1  0  0  0  0
  3  4  1  0  0  0  0
  3 21  1  0  0  0  0
  4  5  1  0  0  0  0
  4 22  1  0  0  0  0
  4 23  1  0  0  0  0
  5  6  1  0  0  0  0
  5 24  1  0  0  0  0
  5 25  1  0  0  0  0
  6  7  1  0  0  0  0
  6 26  1  0  0  0  0
  6 27  1  0  0  0  0
  7  8  1  0  0  0  0
  7 28  1  0  0  0  0
  8  9  1  0  0  0  0
  8 29  1  0  0  0  0
  9 10  2  0  0  0  0
  9 11  1  0  0  0  0
 11 12  1  0  0  0  0
 11 30  1  0  0  0  0
 12 16  1  0  0  0  0
 12 13  2  0  0  0  0
 13 14  1  0  0  0  0
 13 31  1  0  0  0  0
 14 15  2  0  0  0  0
 14 32  1  0  0  0  0
 15 16  1  0  0  0  0
 16 17  1  0  0  0  0
 17 33  1  0  0  0  0
 17 34  1  0  0  0  0
 17 35  1  0  0  0  0
M  END
> <s_m_source_file>
AV-unprocessed.smi

> <i_m_source_file_index>
2789

> <i_lp_mmshare_version>
43012

> <i_f3d_flags>
0

> <s_epik_input>
W0NIM11PW0NAQEhdMVtDSDJdW0NIMl1bQ0gyXVtDQEhdMVtOSF1DKD1PKVtOSF1jMltjSF1bY0hdbm4yW0NIM10=

> <s_epik_cmdline>
J2VwaWtfcHl0aG9uJywgJy1waCcsICc3LjAnLCAnLXRuJywgJzgnLCAnLW1hJywgJzIwMCcsICctbWV0YWxfYmluZGluZycsICctaW1hZScsICc8aW5maWxlLm1hZT4nLCAnLW9tYWUnLCAnPG91dGZpbGUubWFlPic=

> <r_lp_tautomer_probability>
1

> <r_epik_Ionization_Penalty>
4.40608e-05

> <r_epik_Ionization_Penalty_Charging>
0

> <r_epik_Ionization_Penalty_Neutral>
4.40608e-05

> <r_epik_State_Penalty>
-0

> <r_epik_Charging_Adjusted_Penalty>
0

> <i_epik_Tot_Q>
0

> <i_epik_Tot_abs_Q>
0

> <r_epik_Metal_State_Penalty>
-0

> <b_epik_Metal_Only>
0

> <s_lp_Force_Field>
OPLS_2005

> <r_lp_Energy>
23.3685

> <b_lp_Chiralities_Consistent>
1

> <s_lp_Variant>
AV-unprocessed.smi:2789-3

> <Gold.Version>
5.8.1

> <Gold.Id.Protein>
6NUR|6NUR_protein|mol2

> <Gold.PLP.Fitness>
36.7430

> <Gold.PLP.PLP>
-26.5154

> <Gold.PLP.part.hbond>
-3.0266

> <Gold.PLP.part.metal>
0.0000

> <Gold.PLP.part.buried>
-3.0985

> <Gold.PLP.part.nonpolar>
-21.6840

> <Gold.PLP.part.repulsive>
0.5612

> <Gold.PLP.ligand.clash>
0.0000

> <Gold.PLP.ligand.torsion>
0.4898

> <Gold.PLP.Chemscore.Hbond>
2.7320

> <Gold.PLP.Chemscore.CHOScore>
1.0000

> <Gold.PLP.Chemscore.Metal>
0.0000

> <Gold.Chemscore.Hbonds>
donor molecule, donor type, donor heavy atom, donor atom, acceptor molecule, acceptor atom, score
      L1  H     8    29       P1  7948  0.98
      L1  H    11    30       P1  7948  0.98
      P1  H  7989  7998       L1    15  0.65
      L1  C    14    32       P1  8028  0.46

> <Gold.PLP.Chemscore.Internal.Correction>
0.0113

> <Gold.Rescore>
     Score         DG    S(hbond)    S(metal)    S(lipo)     H(rot)  DE(clash)    DE(int)     intcor
     14.36     -14.71       2.10        0.00      46.70       1.27       0.00       0.35       ----

> <Gold.Chemscore.Fitness>
14.3560

> <Gold.Chemscore.DG>
-14.7146

> <Gold.Chemscore.ZeroCoef>
-5.4800

> <Gold.Chemscore.Hbond>
2.1034

> <Gold.Chemscore.Metal>
0.0000

> <Gold.Chemscore.Lipo>
46.6968

> <Gold.Chemscore.Internal_Hbond>
0.0000

> <Gold.Chemscore.DEClash>
0.0048

> <Gold.Chemscore.DEInternal>
0.3539

> <Gold.Chemscore.Rot>
1.2712

> <Gold.Chemscore.Internal.Correction>
   9.000000E+99

> <Gold.Chemscore.Hbonds>
donor molecule, donor type, donor heavy atom, donor atom, acceptor molecule, acceptor atom, score
      L1  H     8    29       P1  7948  0.88
      L1  H    11    30       P1  7948  0.93
      P1  H  7989  7998       L1    15  0.05

> <Gold.Chemscore.Hbond.Weighted>
-7.0255

> <Gold.Chemscore.Metal.Weighted>
-0.0000

> <Gold.Chemscore.Lipo.Weighted>
-5.4635

> <Gold.Chemscore.Internal_Hbond.Weighted>
0.0000

> <Gold.Chemscore.DEClash.Weighted>
0.0048

> <Gold.Chemscore.DEInternal.Weighted>
0.3539

> <Gold.Chemscore.Rot.Weighted>
3.2544

> <Gold.Chemscore.Internal.Correction.Weighted>
   9.000000E+99

> <Gold.Protein.RotatedTorsions>
[ 6907 6896 6895 6894 ] final  121.26 input  -60.11 | X-H torsion
[ 7974 7965 7964 7962 ] final   36.90 input  175.53 | X-H torsion
[ 8008 7997 7996 7995 ] final   -7.49 input   59.86 | X-H torsion
[ 10167 10162 10161 10158 ] final -154.35 input  -65.29 | X-H torsion
[ 10718 10713 10712 10709 ] final -169.19 input   66.30 | X-H torsion
[ 10763 10752 10751 10750 ] final  147.35 input  -60.55 | X-H torsion
[ 11005 11000 10999 10996 ] final   54.42 input  -57.11 | X-H torsion

> <Gold.Protein.ActiveResidues>
 VAL166  LYS551  ARG553  GLY616  TRP617  ASP618  TYR619  PRO620  LYS621  CYS622 
 ASP623  PHE694  ASN695  SER759  ASP760  ASP761  ALA762  ILE779  LEU786  VAL792 
 PHE793  MET794  SER795  GLU796  ALA797  LYS798  CYS799  TRP800  GLU811  SER814 

> <Gold.Protein.RotatedAtoms>
  152.4335  133.7320  159.6592 H   0  0  0  0  0  0  0  0  0  0  0  0  # atno 6907 bound_to 6896
  150.8217  133.8231  159.3142 H   0  0  0  0  0  0  0  0  0  0  0  0  # atno 6908 bound_to 6896
  151.5912  135.1055  160.0091 H   0  0  0  0  0  0  0  0  0  0  0  0  # atno 6909 bound_to 6896
  146.1177  139.5960  142.9310 H   0  0  0  0  0  0  0  0  0  0  0  0  # atno 7974 bound_to 7965
  154.5833  140.2405  155.8023 H   0  0  0  0  0  0  0  0  0  0  0  0  # atno 8008 bound_to 7997
  156.2195  140.3002  155.9874 H   0  0  0  0  0  0  0  0  0  0  0  0  # atno 8009 bound_to 7997
  155.2502  140.0410  157.2976 H   0  0  0  0  0  0  0  0  0  0  0  0  # atno 8010 bound_to 7997
  139.7020  143.9247  152.2433 H   0  0  0  0  0  0  0  0  0  0  0  0  # atno 10167 bound_to 10162
  156.7080  130.9222  151.3086 H   0  0  0  0  0  0  0  0  0  0  0  0  # atno 10718 bound_to 10713
  154.0368  135.2893  155.3360 H   0  0  0  0  0  0  0  0  0  0  0  0  # atno 10763 bound_to 10752
  154.6954  135.5210  153.8453 H   0  0  0  0  0  0  0  0  0  0  0  0  # atno 10764 bound_to 10752
  153.0616  135.6616  154.0576 H   0  0  0  0  0  0  0  0  0  0  0  0  # atno 10765 bound_to 10752
  140.0688  134.5499  155.9070 H   0  0  0  0  0  0  0  0  0  0  0  0  # atno 11005 bound_to 11000
  145.5531  141.0411  143.2267 LP  0  0  0  0  0  0  0  0  0  0  0  0  # atno 17320 bound_to 7965
  144.7568  139.7054  143.7250 LP  0  0  0  0  0  0  0  0  0  0  0  0  # atno 17321 bound_to 7965
  139.9092  144.6866  150.8580 LP  0  0  0  0  0  0  0  0  0  0  0  0  # atno 17342 bound_to 10162
  140.7712  143.3456  151.2119 LP  0  0  0  0  0  0  0  0  0  0  0  0  # atno 17343 bound_to 10162
  157.6947  130.9270  150.0612 LP  0  0  0  0  0  0  0  0  0  0  0  0  # atno 17370 bound_to 10713
  156.1681  130.3645  149.9203 LP  0  0  0  0  0  0  0  0  0  0  0  0  # atno 17371 bound_to 10713
  141.2003  133.6612  156.5891 LP  0  0  0  0  0  0  0  0  0  0  0  0  # atno 17394 bound_to 11000
  140.3659  134.7648  157.4565 LP  0  0  0  0  0  0  0  0  0  0  0  0  # atno 17395 bound_to 11000

$$$$
