AV-unprocessed.smi:1584|AV-procd|sdf|6367|dock8
  -GOLD-   22720 6593D 1   1.00000     0.00000
 Structure written by MMmdl.
 39 40  0  0  0  0  0  0  0  0  1 V2000
  150.5671  140.1028  157.0800 C   0  0  0  0  0  0  0  0  0  0  0  0
  150.3882  141.5891  156.7293 C   0  0  2  0  0  0  0  0  0  0  0  0
  149.9707  142.4545  157.9388 C   0  0  0  0  0  0  0  0  0  0  0  0
  151.0079  143.3845  158.3475 N   0  0  0  0  0  0  0  0  0  0  0  0
  151.6318  144.3533  157.5902 C   0  0  0  0  0  0  0  0  0  0  0  0
  152.5363  144.9808  158.3980 C   0  0  0  0  0  0  0  0  0  0  0  0
  152.3883  144.3186  159.6488 C   0  0  0  0  0  0  0  0  0  0  0  0
  151.4715  143.3649  159.6162 N   0  0  0  0  0  0  0  0  0  0  0  0
  149.4036  141.7116  155.6580 N   0  0  0  0  0  0  0  0  0  0  0  0
  149.3537  140.9463  154.5562 C   0  0  0  0  0  0  0  0  0  0  0  0
  150.1528  140.0363  154.3334 O   0  0  0  0  0  0  0  0  0  0  0  0
  148.2219  141.2520  153.5593 C   0  0  1  0  0  0  0  0  0  0  0  0
  147.3075  140.0451  153.3060 C   0  0  0  0  0  0  0  0  0  0  0  0
  146.3790  139.7679  154.4961 C   0  0  0  0  0  0  0  0  0  0  0  0
  145.6950  140.9704  154.9872 N   0  0  0  0  0  0  0  0  0  0  0  0
  144.4887  140.7158  155.7771 C   0  0  0  0  0  0  0  0  0  0  0  0
  146.1372  142.2379  154.8015 C   0  0  0  0  0  0  0  0  0  0  0  0
  145.5475  143.2134  155.2669 O   0  0  0  0  0  0  0  0  0  0  0  0
  147.4060  142.5000  153.9673 C   0  0  0  0  0  0  0  0  0  0  0  0
  151.3625  139.9575  157.8112 H   0  0  0  0  0  0  0  0  0  0  0  0
  150.8316  139.5202  156.1967 H   0  0  0  0  0  0  0  0  0  0  0  0
  149.6517  139.6810  157.4960 H   0  0  0  0  0  0  0  0  0  0  0  0
  151.3485  141.9519  156.3576 H   0  0  0  0  0  0  0  0  0  0  0  0
  149.0788  143.0354  157.7011 H   0  0  0  0  0  0  0  0  0  0  0  0
  149.7090  141.8195  158.7870 H   0  0  0  0  0  0  0  0  0  0  0  0
  151.3831  144.5115  156.5510 H   0  0  0  0  0  0  0  0  0  0  0  0
  153.2016  145.7899  158.1357 H   0  0  0  0  0  0  0  0  0  0  0  0
  152.9160  144.5020  160.5731 H   0  0  0  0  0  0  0  0  0  0  0  0
  148.7063  142.4345  155.7633 H   0  0  0  0  0  0  0  0  0  0  0  0
  148.7037  141.4882  152.6088 H   0  0  0  0  0  0  0  0  0  0  0  0
  146.7023  140.2404  152.4197 H   0  0  0  0  0  0  0  0  0  0  0  0
  147.8964  139.1556  153.0778 H   0  0  0  0  0  0  0  0  0  0  0  0
  145.6461  139.0169  154.1981 H   0  0  0  0  0  0  0  0  0  0  0  0
  146.9432  139.3337  155.3223 H   0  0  0  0  0  0  0  0  0  0  0  0
  144.5553  141.1949  156.7552 H   0  0  0  0  0  0  0  0  0  0  0  0
  144.3262  139.6515  155.9511 H   0  0  0  0  0  0  0  0  0  0  0  0
  143.6088  141.1064  155.2642 H   0  0  0  0  0  0  0  0  0  0  0  0
  148.0330  143.2179  154.4990 H   0  0  0  0  0  0  0  0  0  0  0  0
  147.0817  143.0127  153.0610 H   0  0  0  0  0  0  0  0  0  0  0  0
  1  2  1  0  0  0  0
  1 20  1  0  0  0  0
  1 21  1  0  0  0  0
  1 22  1  0  0  0  0
  2  3  1  0  0  0  0
  2  9  1  0  0  0  0
  2 23  1  0  0  0  0
  3  4  1  0  0  0  0
  3 24  1  0  0  0  0
  3 25  1  0  0  0  0
  4  8  1  0  0  0  0
  4  5  1  0  0  0  0
  5  6  2  0  0  0  0
  5 26  1  0  0  0  0
  6  7  1  0  0  0  0
  6 27  1  0  0  0  0
  7  8  2  0  0  0  0
  7 28  1  0  0  0  0
  9 10  1  0  0  0  0
  9 29  1  0  0  0  0
 10 11  2  0  0  0  0
 10 12  1  0  0  0  0
 12 19  1  0  0  0  0
 12 13  1  0  0  0  0
 12 30  1  0  0  0  0
 13 14  1  0  0  0  0
 13 31  1  0  0  0  0
 13 32  1  0  0  0  0
 14 15  1  0  0  0  0
 14 33  1  0  0  0  0
 14 34  1  0  0  0  0
 15 16  1  0  0  0  0
 15 17  1  0  0  0  0
 16 35  1  0  0  0  0
 16 36  1  0  0  0  0
 16 37  1  0  0  0  0
 17 18  2  0  0  0  0
 17 19  1  0  0  0  0
 19 38  1  0  0  0  0
 19 39  1  0  0  0  0
M  END
> <s_m_source_file>
AV-unprocessed.smi

> <i_m_source_file_index>
1584

> <i_lp_mmshare_version>
43012

> <i_f3d_flags>
0

> <s_epik_input>
bjFbY0hdW2NIXVtjSF1uMVtDSDJdW0NAQEhdKFtDSDNdKVtOSF1DKD1PKVtDQEBIXTJbQ0gyXVtDSDJdTihbQ0gzXSlDKD1PKVtDSDJdMg==

> <s_epik_cmdline>
J2VwaWtfcHl0aG9uJywgJy1waCcsICc3LjAnLCAnLXRuJywgJzgnLCAnLW1hJywgJzIwMCcsICctbWV0YWxfYmluZGluZycsICctaW1hZScsICc8aW5maWxlLm1hZT4nLCAnLW9tYWUnLCAnPG91dGZpbGUubWFlPic=

> <r_lp_tautomer_probability>
1

> <r_epik_Ionization_Penalty>
0.000299422

> <r_epik_Ionization_Penalty_Charging>
0

> <r_epik_Ionization_Penalty_Neutral>
0.000299422

> <r_epik_State_Penalty>
-0

> <r_epik_Charging_Adjusted_Penalty>
0

> <i_epik_Tot_Q>
0

> <i_epik_Tot_abs_Q>
0

> <r_epik_Metal_State_Penalty>
-0

> <b_epik_Metal_Only>
0

> <s_lp_Force_Field>
OPLS_2005

> <r_lp_Energy>
12.5002

> <b_lp_Chiralities_Consistent>
1

> <s_lp_Variant>
AV-unprocessed.smi:1584-3

> <Gold.Version>
5.8.1

> <Gold.Id.Protein>
6NUR|6NUR_protein|mol2

> <Gold.PLP.Fitness>
41.6574

> <Gold.PLP.PLP>
-37.7953

> <Gold.PLP.part.hbond>
-2.0000

> <Gold.PLP.part.metal>
0.0000

> <Gold.PLP.part.buried>
-5.1964

> <Gold.PLP.part.nonpolar>
-31.8282

> <Gold.PLP.part.repulsive>
0.3976

> <Gold.PLP.ligand.clash>
0.6082

> <Gold.PLP.ligand.torsion>
0.9170

> <Gold.PLP.Chemscore.Hbond>
1.0797

> <Gold.PLP.Chemscore.CHOScore>
1.0000

> <Gold.PLP.Chemscore.Metal>
0.0000

> <Gold.Chemscore.Hbonds>
donor molecule, donor type, donor heavy atom, donor atom, acceptor molecule, acceptor atom, score
      L1  H     9    29       P1  8028  0.22
      P1  H  7989  7998       L1    11  1.00
      L1  C     5    26       P1  8028  0.67

> <Gold.PLP.Chemscore.Internal.Correction>
0.0650

> <Gold.Rescore>
     Score         DG    S(hbond)    S(metal)    S(lipo)     H(rot)  DE(clash)    DE(int)     intcor
     12.39     -14.79       1.10        0.00      84.71       1.67       0.07       2.33       ----

> <Gold.Chemscore.Fitness>
12.3912

> <Gold.Chemscore.DG>
-14.7902

> <Gold.Chemscore.ZeroCoef>
-5.4800

> <Gold.Chemscore.Hbond>
1.1027

> <Gold.Chemscore.Metal>
0.0000

> <Gold.Chemscore.Lipo>
84.7119

> <Gold.Chemscore.Internal_Hbond>
0.0000

> <Gold.Chemscore.DEClash>
0.0725

> <Gold.Chemscore.DEInternal>
2.3264

> <Gold.Chemscore.Rot>
1.6734

> <Gold.Chemscore.Internal.Correction>
   9.000000E+99

> <Gold.Chemscore.Hbonds>
donor molecule, donor type, donor heavy atom, donor atom, acceptor molecule, acceptor atom, score
      L1  H     9    29       P1  8028  0.22
      P1  H  7989  7998       L1    11  0.48

> <Gold.Chemscore.Hbond.Weighted>
-3.6829

> <Gold.Chemscore.Metal.Weighted>
-0.0000

> <Gold.Chemscore.Lipo.Weighted>
-9.9113

> <Gold.Chemscore.Internal_Hbond.Weighted>
0.0000

> <Gold.Chemscore.DEClash.Weighted>
0.0725

> <Gold.Chemscore.DEInternal.Weighted>
2.3264

> <Gold.Chemscore.Rot.Weighted>
4.2840

> <Gold.Chemscore.Internal.Correction.Weighted>
   9.000000E+99

> <Gold.Protein.RotatedTorsions>
[ 6907 6896 6895 6894 ] final   61.60 input  -60.11 | X-H torsion
[ 7974 7965 7964 7962 ] final   12.20 input  175.53 | X-H torsion
[ 8008 7997 7996 7995 ] final  137.69 input   59.86 | X-H torsion
[ 10167 10162 10161 10158 ] final   90.42 input  -65.29 | X-H torsion
[ 10718 10713 10712 10709 ] final   30.45 input   66.30 | X-H torsion
[ 10763 10752 10751 10750 ] final   53.19 input  -60.55 | X-H torsion
[ 11005 11000 10999 10996 ] final  155.67 input  -57.11 | X-H torsion

> <Gold.Protein.ActiveResidues>
 VAL166  LYS551  ARG553  GLY616  TRP617  ASP618  TYR619  PRO620  LYS621  CYS622 
 ASP623  PHE694  ASN695  SER759  ASP760  ASP761  ALA762  ILE779  LEU786  VAL792 
 PHE793  MET794  SER795  GLU796  ALA797  LYS798  CYS799  TRP800  GLU811  SER814 

> <Gold.Protein.RotatedAtoms>
  152.4102  134.6137  160.0032 H   0  0  0  0  0  0  0  0  0  0  0  0  # atno 6907 bound_to 6896
  151.6316  133.3326  159.3118 H   0  0  0  0  0  0  0  0  0  0  0  0  # atno 6908 bound_to 6896
  150.7994  134.7117  159.6652 H   0  0  0  0  0  0  0  0  0  0  0  0  # atno 6909 bound_to 6896
  146.2356  139.9371  142.8488 H   0  0  0  0  0  0  0  0  0  0  0  0  # atno 7974 bound_to 7965
  156.3001  140.2413  156.3951 H   0  0  0  0  0  0  0  0  0  0  0  0  # atno 8008 bound_to 7997
  154.8578  140.0421  157.1666 H   0  0  0  0  0  0  0  0  0  0  0  0  # atno 8009 bound_to 7997
  154.8929  140.2966  155.5364 H   0  0  0  0  0  0  0  0  0  0  0  0  # atno 8010 bound_to 7997
  139.8475  144.6610  150.9210 H   0  0  0  0  0  0  0  0  0  0  0  0  # atno 10167 bound_to 10162
  157.2597  130.7155  149.6447 H   0  0  0  0  0  0  0  0  0  0  0  0  # atno 10718 bound_to 10713
  152.9793  135.5787  154.4702 H   0  0  0  0  0  0  0  0  0  0  0  0  # atno 10763 bound_to 10752
  154.4266  135.2772  155.1942 H   0  0  0  0  0  0  0  0  0  0  0  0  # atno 10764 bound_to 10752
  154.3669  135.6176  153.5773 H   0  0  0  0  0  0  0  0  0  0  0  0  # atno 10765 bound_to 10752
  140.1603  134.8614  157.2566 H   0  0  0  0  0  0  0  0  0  0  0  0  # atno 11005 bound_to 11000
  145.1988  140.9845  143.4168 LP  0  0  0  0  0  0  0  0  0  0  0  0  # atno 17320 bound_to 7965
  144.9792  139.3801  143.6270 LP  0  0  0  0  0  0  0  0  0  0  0  0  # atno 17321 bound_to 7965
  140.7791  143.3857  151.1397 LP  0  0  0  0  0  0  0  0  0  0  0  0  # atno 17342 bound_to 10162
  139.7498  143.8796  152.3073 LP  0  0  0  0  0  0  0  0  0  0  0  0  # atno 17343 bound_to 10162
  155.9664  130.4401  150.5287 LP  0  0  0  0  0  0  0  0  0  0  0  0  # atno 17370 bound_to 10713
  157.3188  131.0678  151.1947 LP  0  0  0  0  0  0  0  0  0  0  0  0  # atno 17371 bound_to 10713
  140.2497  134.3697  155.7447 LP  0  0  0  0  0  0  0  0  0  0  0  0  # atno 17394 bound_to 11000
  141.2209  133.7310  156.8917 LP  0  0  0  0  0  0  0  0  0  0  0  0  # atno 17395 bound_to 11000

$$$$
