AV-unprocessed.smi:2688|AV-procd|sdf|10386|dock1
  -GOLD-   2272014413D 1   1.00000     0.00000
 Structure written by MMmdl.
 51 54  0  0  0  0  0  0  0  0  1 V2000
  145.2310  135.0400  150.7908 C   0  0  0  0  0  0  0  0  0  0  0  0
  145.8385  133.8621  151.4930 C   0  0  0  0  0  0  0  0  0  0  0  0
  145.4161  132.4961  151.2492 C   0  0  0  0  0  0  0  0  0  0  0  0
  146.0165  131.4885  151.9182 C   0  0  0  0  0  0  0  0  0  0  0  0
  147.0851  131.7369  152.8836 C   0  0  0  0  0  0  0  0  0  0  0  0
  147.6555  130.8406  153.5052 O   0  0  0  0  0  0  0  0  0  0  0  0
  147.3964  133.0593  153.0310 N   0  0  0  0  0  0  0  0  0  0  0  0
  148.4624  133.4915  153.9461 C   0  0  0  0  0  0  0  0  0  0  0  0
  147.9657  134.4595  155.0293 C   0  0  0  0  0  0  0  0  0  0  0  0
  147.4450  135.5324  154.7202 O   0  0  0  0  0  0  0  0  0  0  0  0
  148.1205  134.0588  156.3006 N   0  0  0  0  0  0  0  0  0  0  0  0
  147.7369  134.8394  157.4712 C   0  0  0  0  0  0  0  0  0  0  0  0
  147.8536  134.0003  158.7611 C   0  0  0  0  0  0  0  0  0  0  0  0
  147.2422  134.6203  160.0429 C   0  0  0  0  0  0  0  0  0  0  0  0
  147.9201  135.9712  160.4016 C   0  0  0  0  0  0  0  0  0  0  0  0
  147.3347  136.5364  161.7136 C   0  0  1  0  0  0  0  0  0  0  0  0
  145.8173  136.7639  161.5456 C   0  0  0  0  0  0  0  0  0  0  0  0
  145.1332  135.4195  161.2177 C   0  0  2  0  0  0  0  0  0  0  0  0
  145.3775  134.4220  162.3685 C   0  0  0  0  0  0  0  0  0  0  0  0
  146.8952  134.2017  162.5326 C   0  0  2  0  0  0  0  0  0  0  0  0
  147.5843  135.5409  162.8647 C   0  0  0  0  0  0  0  0  0  0  0  0
  147.4771  133.6359  161.2206 C   0  0  0  0  0  0  0  0  0  0  0  0
  145.7128  134.8504  159.9035 C   0  0  0  0  0  0  0  0  0  0  0  0
  146.7790  134.0950  152.3488 N   0  0  0  0  0  0  0  0  0  0  0  0
  144.4608  134.7248  150.0864 H   0  0  0  0  0  0  0  0  0  0  0  0
  145.9880  135.5917  150.2324 H   0  0  0  0  0  0  0  0  0  0  0  0
  144.7714  135.7235  151.5053 H   0  0  0  0  0  0  0  0  0  0  0  0
  144.6284  132.2961  150.5376 H   0  0  0  0  0  0  0  0  0  0  0  0
  145.7015  130.4714  151.7354 H   0  0  0  0  0  0  0  0  0  0  0  0
  148.9076  132.6279  154.4437 H   0  0  0  0  0  0  0  0  0  0  0  0
  149.2736  133.9533  153.3798 H   0  0  0  0  0  0  0  0  0  0  0  0
  148.5508  133.1610  156.4690 H   0  0  0  0  0  0  0  0  0  0  0  0
  148.3513  135.7384  157.5211 H   0  0  0  0  0  0  0  0  0  0  0  0
  146.7097  135.1713  157.3235 H   0  0  0  0  0  0  0  0  0  0  0  0
  147.3902  133.0295  158.5797 H   0  0  0  0  0  0  0  0  0  0  0  0
  148.9074  133.7897  158.9509 H   0  0  0  0  0  0  0  0  0  0  0  0
  148.9987  135.8399  160.5005 H   0  0  0  0  0  0  0  0  0  0  0  0
  147.7733  136.7029  159.6074 H   0  0  0  0  0  0  0  0  0  0  0  0
  147.8191  137.4854  161.9458 H   0  0  0  0  0  0  0  0  0  0  0  0
  145.3963  137.1901  162.4570 H   0  0  0  0  0  0  0  0  0  0  0  0
  145.6292  137.4878  160.7519 H   0  0  0  0  0  0  0  0  0  0  0  0
  144.0608  135.5790  161.1010 H   0  0  0  0  0  0  0  0  0  0  0  0
  144.9478  134.8011  163.2967 H   0  0  0  0  0  0  0  0  0  0  0  0
  144.8777  133.4749  162.1613 H   0  0  0  0  0  0  0  0  0  0  0  0
  147.0724  133.4932  163.3425 H   0  0  0  0  0  0  0  0  0  0  0  0
  148.6548  135.3903  163.0095 H   0  0  0  0  0  0  0  0  0  0  0  0
  147.1992  135.9427  163.8027 H   0  0  0  0  0  0  0  0  0  0  0  0
  147.0185  132.6700  161.0033 H   0  0  0  0  0  0  0  0  0  0  0  0
  148.5437  133.4433  161.3453 H   0  0  0  0  0  0  0  0  0  0  0  0
  145.4993  135.5455  159.0914 H   0  0  0  0  0  0  0  0  0  0  0  0
  145.2103  133.9165  159.6484 H   0  0  0  0  0  0  0  0  0  0  0  0
  1  2  1  0  0  0  0
  1 25  1  0  0  0  0
  1 26  1  0  0  0  0
  1 27  1  0  0  0  0
  2 24  2  0  0  0  0
  2  3  1  0  0  0  0
  3  4  2  0  0  0  0
  3 28  1  0  0  0  0
  4  5  1  0  0  0  0
  4 29  1  0  0  0  0
  5  6  2  0  0  0  0
  5  7  1  0  0  0  0
  7  8  1  0  0  0  0
  7 24  1  0  0  0  0
  8  9  1  0  0  0  0
  8 30  1  0  0  0  0
  8 31  1  0  0  0  0
  9 10  2  0  0  0  0
  9 11  1  0  0  0  0
 11 12  1  0  0  0  0
 11 32  1  0  0  0  0
 12 13  1  0  0  0  0
 12 33  1  0  0  0  0
 12 34  1  0  0  0  0
 13 14  1  0  0  0  0
 13 35  1  0  0  0  0
 13 36  1  0  0  0  0
 14 22  1  0  0  0  0
 14 23  1  0  0  0  0
 14 15  1  0  0  0  0
 15 16  1  0  0  0  0
 15 37  1  0  0  0  0
 15 38  1  0  0  0  0
 16 21  1  0  0  0  0
 16 17  1  0  0  0  0
 16 39  1  0  0  0  0
 17 18  1  0  0  0  0
 17 40  1  0  0  0  0
 17 41  1  0  0  0  0
 18 19  1  0  0  0  0
 18 23  1  0  0  0  0
 18 42  1  0  0  0  0
 19 20  1  0  0  0  0
 19 43  1  0  0  0  0
 19 44  1  0  0  0  0
 20 21  1  0  0  0  0
 20 22  1  0  0  0  0
 20 45  1  0  0  0  0
 21 46  1  0  0  0  0
 21 47  1  0  0  0  0
 22 48  1  0  0  0  0
 22 49  1  0  0  0  0
 23 50  1  0  0  0  0
 23 51  1  0  0  0  0
M  END
> <s_m_source_file>
AV-unprocessed.smi

> <i_m_source_file_index>
2688

> <i_lp_mmshare_version>
43012

> <i_f3d_flags>
0

> <s_epik_input>
W0NIM11jMVtjSF1bY0hdYyg9TyluKG4xKVtDSDJdQyg9TylbTkhdW0NIMl1bQ0gyXUMyM1tDSDJdW0NASF00W0NIMl1bQ0BASF0oW0NIMl0zKVtDSDJdW0NASF0oW0NIMl00KVtDSDJdMg==

> <s_epik_cmdline>
J2VwaWtfcHl0aG9uJywgJy1waCcsICc3LjAnLCAnLXRuJywgJzgnLCAnLW1hJywgJzIwMCcsICctbWV0YWxfYmluZGluZycsICctaW1hZScsICc8aW5maWxlLm1hZT4nLCAnLW9tYWUnLCAnPG91dGZpbGUubWFlPic=

> <r_lp_tautomer_probability>
1

> <r_epik_Ionization_Penalty>
8.74812e-07

> <r_epik_Ionization_Penalty_Charging>
8.53005e-07

> <r_epik_Ionization_Penalty_Neutral>
2.18061e-08

> <r_epik_State_Penalty>
-0

> <r_epik_Charging_Adjusted_Penalty>
8.53005e-07

> <i_epik_Tot_Q>
0

> <i_epik_Tot_abs_Q>
0

> <r_epik_Metal_State_Penalty>
-0

> <b_epik_Metal_Only>
0

> <s_lp_Force_Field>
OPLS_2005

> <r_lp_Energy>
47.4944

> <b_lp_Chiralities_Consistent>
1

> <s_lp_Variant>
AV-unprocessed.smi:2688-1

> <Gold.Version>
5.8.1

> <Gold.Id.Protein>
6NUR|6NUR_protein|mol2

> <Gold.PLP.Fitness>
39.4204

> <Gold.PLP.PLP>
-39.5234

> <Gold.PLP.part.hbond>
0.0000

> <Gold.PLP.part.metal>
0.0000

> <Gold.PLP.part.buried>
-5.2125

> <Gold.PLP.part.nonpolar>
-34.9083

> <Gold.PLP.part.repulsive>
1.3880

> <Gold.PLP.ligand.clash>
0.0000

> <Gold.PLP.ligand.torsion>
0.0651

> <Gold.PLP.Chemscore.Hbond>
0.0000

> <Gold.PLP.Chemscore.CHOScore>
0.0000

> <Gold.PLP.Chemscore.Metal>
0.0000

> <Gold.PLP.Chemscore.Internal.Correction>
0.0272

> <Gold.Rescore>
     Score         DG    S(hbond)    S(metal)    S(lipo)     H(rot)  DE(clash)    DE(int)     intcor
     11.43     -12.94       0.00        0.00     101.64       1.73       0.09       1.42       ----

> <Gold.Chemscore.Fitness>
11.4307

> <Gold.Chemscore.DG>
-12.9352

> <Gold.Chemscore.ZeroCoef>
-5.4800

> <Gold.Chemscore.Hbond>
0.0000

> <Gold.Chemscore.Metal>
0.0000

> <Gold.Chemscore.Lipo>
101.6408

> <Gold.Chemscore.Internal_Hbond>
0.0000

> <Gold.Chemscore.DEClash>
0.0879

> <Gold.Chemscore.DEInternal>
1.4167

> <Gold.Chemscore.Rot>
1.7331

> <Gold.Chemscore.Internal.Correction>
   9.000000E+99

> <Gold.Chemscore.Hbond.Weighted>
-0.0000

> <Gold.Chemscore.Metal.Weighted>
-0.0000

> <Gold.Chemscore.Lipo.Weighted>
-11.8920

> <Gold.Chemscore.Internal_Hbond.Weighted>
0.0000

> <Gold.Chemscore.DEClash.Weighted>
0.0879

> <Gold.Chemscore.DEInternal.Weighted>
1.4167

> <Gold.Chemscore.Rot.Weighted>
4.4367

> <Gold.Chemscore.Internal.Correction.Weighted>
   9.000000E+99

> <Gold.Protein.RotatedTorsions>
[ 6907 6896 6895 6894 ] final   39.12 input  -60.11 | X-H torsion
[ 7974 7965 7964 7962 ] final   23.28 input  175.53 | X-H torsion
[ 8008 7997 7996 7995 ] final  -84.07 input   59.86 | X-H torsion
[ 10167 10162 10161 10158 ] final    9.64 input  -65.29 | X-H torsion
[ 10718 10713 10712 10709 ] final -133.37 input   66.30 | X-H torsion
[ 10763 10752 10751 10750 ] final -135.98 input  -60.55 | X-H torsion
[ 11005 11000 10999 10996 ] final -131.72 input  -57.11 | X-H torsion

> <Gold.Protein.ActiveResidues>
 VAL166  LYS551  ARG553  GLY616  TRP617  ASP618  TYR619  PRO620  LYS621  CYS622 
 ASP623  PHE694  ASN695  SER759  ASP760  ASP761  ALA762  ILE779  LEU786  VAL792 
 PHE793  MET794  SER795  GLU796  ALA797  LYS798  CYS799  TRP800  GLU811  SER814 

> <Gold.Protein.RotatedAtoms>
  152.1655  134.8877  160.0538 H   0  0  0  0  0  0  0  0  0  0  0  0  # atno 6907 bound_to 6896
  151.9857  133.3768  159.4133 H   0  0  0  0  0  0  0  0  0  0  0  0  # atno 6908 bound_to 6896
  150.6894  134.3913  159.5121 H   0  0  0  0  0  0  0  0  0  0  0  0  # atno 6909 bound_to 6896
  146.1991  139.7767  142.8775 H   0  0  0  0  0  0  0  0  0  0  0  0  # atno 7974 bound_to 7965
  154.6258  140.0610  156.9672 H   0  0  0  0  0  0  0  0  0  0  0  0  # atno 8008 bound_to 7997
  155.1744  140.3294  155.4368 H   0  0  0  0  0  0  0  0  0  0  0  0  # atno 8009 bound_to 7997
  156.2456  140.1908  156.6844 H   0  0  0  0  0  0  0  0  0  0  0  0  # atno 8010 bound_to 7997
  140.6243  143.8137  150.7213 H   0  0  0  0  0  0  0  0  0  0  0  0  # atno 10167 bound_to 10162
  156.2442  130.7114  151.0988 H   0  0  0  0  0  0  0  0  0  0  0  0  # atno 10718 bound_to 10713
  154.8693  135.3687  154.4986 H   0  0  0  0  0  0  0  0  0  0  0  0  # atno 10763 bound_to 10752
  153.5628  135.7022  153.5544 H   0  0  0  0  0  0  0  0  0  0  0  0  # atno 10764 bound_to 10752
  153.3612  135.4046  155.1683 H   0  0  0  0  0  0  0  0  0  0  0  0  # atno 10765 bound_to 10752
  140.9234  134.1415  157.4295 H   0  0  0  0  0  0  0  0  0  0  0  0  # atno 11005 bound_to 11000
  145.3544  141.0314  143.3320 LP  0  0  0  0  0  0  0  0  0  0  0  0  # atno 17320 bound_to 7965
  144.8644  139.5129  143.6797 LP  0  0  0  0  0  0  0  0  0  0  0  0  # atno 17321 bound_to 7965
  140.1734  143.4175  152.1985 LP  0  0  0  0  0  0  0  0  0  0  0  0  # atno 17342 bound_to 10162
  139.5465  144.7303  151.4566 LP  0  0  0  0  0  0  0  0  0  0  0  0  # atno 17343 bound_to 10162
  157.7188  131.0694  150.6220 LP  0  0  0  0  0  0  0  0  0  0  0  0  # atno 17370 bound_to 10713
  156.6295  130.4428  149.5792 LP  0  0  0  0  0  0  0  0  0  0  0  0  # atno 17371 bound_to 10713
  139.8780  134.9979  156.5873 LP  0  0  0  0  0  0  0  0  0  0  0  0  # atno 17394 bound_to 11000
  140.7958  133.8545  155.8684 LP  0  0  0  0  0  0  0  0  0  0  0  0  # atno 17395 bound_to 11000

$$$$
