AV-unprocessed.smi:142|AV-procd|sdf|1192|dock4
  -GOLD-   2262018353D 1   1.00000     0.00000
 Structure written by MMmdl.
 52 55  0  0  0  0  0  0  0  0  1 V2000
  151.8802  139.8944  155.4633 C   0  0  0  0  0  0  0  0  0  0  0  0
  151.0105  141.0880  155.8798 C   0  0  1  0  0  0  0  0  0  0  0  0
  149.6023  140.7050  155.8203 N   0  0  0  0  0  0  0  0  0  0  0  0
  148.7417  141.0843  154.8631 C   0  0  0  0  0  0  0  0  0  0  0  0
  149.0761  141.7256  153.8667 O   0  0  0  0  0  0  0  0  0  0  0  0
  147.2741  140.6895  155.0741 C   0  0  0  0  0  0  0  0  0  0  0  0
  146.5770  141.6494  155.9573 N   0  0  0  0  0  0  0  0  0  0  0  0
  145.7176  142.6189  155.3842 C   0  0  0  0  0  0  0  0  0  0  0  0
  145.5067  142.6510  154.1711 O   0  0  0  0  0  0  0  0  0  0  0  0
  145.1245  143.5656  156.3218 C   0  0  0  0  0  0  0  0  0  0  0  0
  144.3054  144.5289  155.8671 F   0  0  0  0  0  0  0  0  0  0  0  0
  145.3931  143.4966  157.6419 C   0  0  0  0  0  0  0  0  0  0  0  0
  146.2187  142.5359  158.1928 N   0  0  0  0  0  0  0  0  0  0  0  0
  146.5172  142.5894  159.6757 C   0  0  1  0  0  0  0  0  0  0  0  0
  145.9567  143.8352  160.3788 C   0  0  0  0  0  0  0  0  0  0  0  0
  145.5652  143.2645  161.7253 C   0  0  0  0  0  0  0  0  0  0  0  0
  145.1095  141.8568  161.3570 C   0  0  0  0  0  0  0  0  0  0  0  0
  145.9700  141.4593  160.2929 O   0  0  0  0  0  0  0  0  0  0  0  0
  146.8488  141.5944  157.3464 C   0  0  0  0  0  0  0  0  0  0  0  0
  147.6249  140.7511  157.7983 O   0  0  0  0  0  0  0  0  0  0  0  0
  151.4178  141.6090  157.2556 C   0  0  0  0  0  0  0  0  0  0  0  0
  152.0603  140.7678  158.1929 C   0  0  0  0  0  0  0  0  0  0  0  0
  152.4204  141.2581  159.4626 C   0  0  0  0  0  0  0  0  0  0  0  0
  152.1478  142.5970  159.8062 C   0  0  0  0  0  0  0  0  0  0  0  0
  152.5043  143.0934  161.0773 C   0  0  0  0  0  0  0  0  0  0  0  0
  152.2300  144.4334  161.4134 C   0  0  0  0  0  0  0  0  0  0  0  0
  151.5995  145.2804  160.4814 C   0  0  0  0  0  0  0  0  0  0  0  0
  151.2412  144.7897  159.2108 C   0  0  0  0  0  0  0  0  0  0  0  0
  151.5130  143.4488  158.8685 C   0  0  0  0  0  0  0  0  0  0  0  0
  151.1539  142.9521  157.5986 C   0  0  0  0  0  0  0  0  0  0  0  0
  152.9351  140.1692  155.4377 H   0  0  0  0  0  0  0  0  0  0  0  0
  151.6091  139.5377  154.4691 H   0  0  0  0  0  0  0  0  0  0  0  0
  151.7708  139.0606  156.1578 H   0  0  0  0  0  0  0  0  0  0  0  0
  151.1711  141.8847  155.1507 H   0  0  0  0  0  0  0  0  0  0  0  0
  149.2413  140.1738  156.5992 H   0  0  0  0  0  0  0  0  0  0  0  0
  146.8000  140.6071  154.0956 H   0  0  0  0  0  0  0  0  0  0  0  0
  147.2109  139.6813  155.4881 H   0  0  0  0  0  0  0  0  0  0  0  0
  144.9345  144.2285  158.2907 H   0  0  0  0  0  0  0  0  0  0  0  0
  147.6025  142.5294  159.7665 H   0  0  0  0  0  0  0  0  0  0  0  0
  146.7112  144.6196  160.4414 H   0  0  0  0  0  0  0  0  0  0  0  0
  145.0847  144.2327  159.8617 H   0  0  0  0  0  0  0  0  0  0  0  0
  146.4372  143.2157  162.3785 H   0  0  0  0  0  0  0  0  0  0  0  0
  144.7917  143.8451  162.2284 H   0  0  0  0  0  0  0  0  0  0  0  0
  145.1717  141.1639  162.1962 H   0  0  0  0  0  0  0  0  0  0  0  0
  144.0769  141.8667  161.0078 H   0  0  0  0  0  0  0  0  0  0  0  0
  152.2790  139.7398  157.9451 H   0  0  0  0  0  0  0  0  0  0  0  0
  152.9059  140.6015  160.1695 H   0  0  0  0  0  0  0  0  0  0  0  0
  152.9884  142.4507  161.7982 H   0  0  0  0  0  0  0  0  0  0  0  0
  152.5033  144.8122  162.3873 H   0  0  0  0  0  0  0  0  0  0  0  0
  151.3904  146.3076  160.7416 H   0  0  0  0  0  0  0  0  0  0  0  0
  150.7567  145.4457  158.5024 H   0  0  0  0  0  0  0  0  0  0  0  0
  150.6673  143.6019  156.8853 H   0  0  0  0  0  0  0  0  0  0  0  0
  1  2  1  0  0  0  0
  1 31  1  0  0  0  0
  1 32  1  0  0  0  0
  1 33  1  0  0  0  0
  2  3  1  0  0  0  0
  2 21  1  0  0  0  0
  2 34  1  0  0  0  0
  3  4  1  0  0  0  0
  3 35  1  0  0  0  0
  4  5  2  0  0  0  0
  4  6  1  0  0  0  0
  6  7  1  0  0  0  0
  6 36  1  0  0  0  0
  6 37  1  0  0  0  0
  7 19  1  0  0  0  0
  7  8  1  0  0  0  0
  8  9  2  0  0  0  0
  8 10  1  0  0  0  0
 10 11  1  0  0  0  0
 10 12  2  0  0  0  0
 12 13  1  0  0  0  0
 12 38  1  0  0  0  0
 13 14  1  0  0  0  0
 13 19  1  0  0  0  0
 14 18  1  0  0  0  0
 14 15  1  0  0  0  0
 14 39  1  0  0  0  0
 15 16  1  0  0  0  0
 15 40  1  0  0  0  0
 15 41  1  0  0  0  0
 16 17  1  0  0  0  0
 16 42  1  0  0  0  0
 16 43  1  0  0  0  0
 17 18  1  0  0  0  0
 17 44  1  0  0  0  0
 17 45  1  0  0  0  0
 19 20  2  0  0  0  0
 21 30  1  0  0  0  0
 21 22  2  0  0  0  0
 22 23  1  0  0  0  0
 22 46  1  0  0  0  0
 23 24  2  0  0  0  0
 23 47  1  0  0  0  0
 24 29  1  0  0  0  0
 24 25  1  0  0  0  0
 25 26  2  0  0  0  0
 25 48  1  0  0  0  0
 26 27  1  0  0  0  0
 26 49  1  0  0  0  0
 27 28  2  0  0  0  0
 27 50  1  0  0  0  0
 28 29  1  0  0  0  0
 28 51  1  0  0  0  0
 29 30  2  0  0  0  0
 30 52  1  0  0  0  0
M  END
> <s_m_source_file>
AV-unprocessed.smi

> <i_m_source_file_index>
142

> <i_lp_mmshare_version>
43012

> <i_f3d_flags>
0

> <s_epik_input>
W2NIXTFbY0hdW2NIXVtjSF1jKGMxMilbY0hdYyhbY0hdW2NIXTIpW0NASF0oW0NIM10pW05IXUMoPU8pW0NIMl1uM2MoPU8pYyhGKVtjSF1uKGMzPU8pW0NAQEhdNFtDSDJdW0NIMl1bQ0gyXU80

> <s_epik_cmdline>
J2VwaWtfcHl0aG9uJywgJy1waCcsICc3LjAnLCAnLXRuJywgJzgnLCAnLW1hJywgJzIwMCcsICctbWV0YWxfYmluZGluZycsICctaW1hZScsICc8aW5maWxlLm1hZT4nLCAnLW9tYWUnLCAnPG91dGZpbGUubWFlPic=

> <r_lp_tautomer_probability>
1

> <r_epik_Ionization_Penalty>
3.35688e-08

> <r_epik_Ionization_Penalty_Charging>
3.59856e-09

> <r_epik_Ionization_Penalty_Neutral>
2.99702e-08

> <r_epik_State_Penalty>
-0

> <r_epik_Charging_Adjusted_Penalty>
3.59856e-09

> <i_epik_Tot_Q>
0

> <i_epik_Tot_abs_Q>
0

> <r_epik_Metal_State_Penalty>
-0

> <b_epik_Metal_Only>
0

> <s_epik_Chemistry_Notes>
This compound contains an acetal/aminal-like group ( X-CH(R)-Y where X, Y are N, S, or O) that may be acid/base labile, releasing an aldehyde.

> <s_lp_Force_Field>
OPLS_2005

> <r_lp_Energy>
24.972

> <b_lp_Chiralities_Consistent>
1

> <s_lp_Variant>
AV-unprocessed.smi:142-4

> <Gold.Version>
5.8.1

> <Gold.Id.Protein>
6NUR|6NUR_protein|mol2

> <Gold.PLP.Fitness>
60.7385

> <Gold.PLP.PLP>
-58.4906

> <Gold.PLP.part.hbond>
-2.9994

> <Gold.PLP.part.metal>
0.0000

> <Gold.PLP.part.buried>
-9.3870

> <Gold.PLP.part.nonpolar>
-46.6223

> <Gold.PLP.part.repulsive>
0.8952

> <Gold.PLP.ligand.clash>
0.0000

> <Gold.PLP.ligand.torsion>
1.5057

> <Gold.PLP.Chemscore.Hbond>
1.7200

> <Gold.PLP.Chemscore.CHOScore>
0.0000

> <Gold.PLP.Chemscore.Metal>
0.0000

> <Gold.Chemscore.Hbonds>
donor molecule, donor type, donor heavy atom, donor atom, acceptor molecule, acceptor atom, score
      P1  H  6934  6946       L1    18  0.13
      P1  H  8011  8017       L1     5  0.61

> <Gold.PLP.Chemscore.Internal.Correction>
0.0993

> <Gold.Rescore>
     Score         DG    S(hbond)    S(metal)    S(lipo)     H(rot)  DE(clash)    DE(int)     intcor
     18.00     -21.92       1.61        0.00     138.55       2.02       0.40       3.52       ----

> <Gold.Chemscore.Fitness>
17.9984

> <Gold.Chemscore.DG>
-21.9160

> <Gold.Chemscore.ZeroCoef>
-5.4800

> <Gold.Chemscore.Hbond>
1.6139

> <Gold.Chemscore.Metal>
0.0000

> <Gold.Chemscore.Lipo>
138.5506

> <Gold.Chemscore.Internal_Hbond>
0.0000

> <Gold.Chemscore.DEClash>
0.3961

> <Gold.Chemscore.DEInternal>
3.5215

> <Gold.Chemscore.Rot>
2.0175

> <Gold.Chemscore.Internal.Correction>
   9.000000E+99

> <Gold.Chemscore.Hbonds>
donor molecule, donor type, donor heavy atom, donor atom, acceptor molecule, acceptor atom, score
      P1  H  6934  6946       L1    18  0.07
      P1  H  8011  8017       L1     5  0.60

> <Gold.Chemscore.Hbond.Weighted>
-5.3904

> <Gold.Chemscore.Metal.Weighted>
-0.0000

> <Gold.Chemscore.Lipo.Weighted>
-16.2104

> <Gold.Chemscore.Internal_Hbond.Weighted>
0.0000

> <Gold.Chemscore.DEClash.Weighted>
0.3961

> <Gold.Chemscore.DEInternal.Weighted>
3.5215

> <Gold.Chemscore.Rot.Weighted>
5.1648

> <Gold.Chemscore.Internal.Correction.Weighted>
   9.000000E+99

> <Gold.Protein.RotatedTorsions>
[ 6907 6896 6895 6894 ] final   14.63 input  -60.11 | X-H torsion
[ 7974 7965 7964 7962 ] final  -45.24 input  175.53 | X-H torsion
[ 8008 7997 7996 7995 ] final  178.93 input   59.86 | X-H torsion
[ 10167 10162 10161 10158 ] final  167.93 input  -65.29 | X-H torsion
[ 10718 10713 10712 10709 ] final -117.92 input   66.30 | X-H torsion
[ 10763 10752 10751 10750 ] final  -13.90 input  -60.55 | X-H torsion
[ 11005 11000 10999 10996 ] final  115.01 input  -57.11 | X-H torsion

> <Gold.Protein.ActiveResidues>
 VAL166  LYS551  ARG553  GLY616  TRP617  ASP618  TYR619  PRO620  LYS621  CYS622 
 ASP623  PHE694  ASN695  SER759  ASP760  ASP761  ALA762  ILE779  LEU786  VAL792 
 PHE793  MET794  SER795  GLU796  ALA797  LYS798  CYS799  TRP800  GLU811  SER814 

> <Gold.Protein.RotatedAtoms>
  151.8053  135.0697  160.0405 H   0  0  0  0  0  0  0  0  0  0  0  0  # atno 6907 bound_to 6896
  152.3059  133.5698  159.5657 H   0  0  0  0  0  0  0  0  0  0  0  0  # atno 6908 bound_to 6896
  150.7296  134.0139  159.3721 H   0  0  0  0  0  0  0  0  0  0  0  0  # atno 6909 bound_to 6896
  145.9841  140.7252  142.9349 H   0  0  0  0  0  0  0  0  0  0  0  0  # atno 7974 bound_to 7965
  156.0492  140.1321  157.0070 H   0  0  0  0  0  0  0  0  0  0  0  0  # atno 8008 bound_to 7997
  154.4427  140.1014  156.6421 H   0  0  0  0  0  0  0  0  0  0  0  0  # atno 8009 bound_to 7997
  155.5550  140.3463  155.4479 H   0  0  0  0  0  0  0  0  0  0  0  0  # atno 8010 bound_to 7997
  139.4956  144.3869  151.9561 H   0  0  0  0  0  0  0  0  0  0  0  0  # atno 10167 bound_to 10162
  156.1068  130.6217  150.9225 H   0  0  0  0  0  0  0  0  0  0  0  0  # atno 10718 bound_to 10713
  153.5202  135.7016  153.5735 H   0  0  0  0  0  0  0  0  0  0  0  0  # atno 10763 bound_to 10752
  153.3788  135.3925  155.1842 H   0  0  0  0  0  0  0  0  0  0  0  0  # atno 10764 bound_to 10752
  154.8695  135.3830  154.4690 H   0  0  0  0  0  0  0  0  0  0  0  0  # atno 10765 bound_to 10752
  139.8997  134.9577  156.6980 H   0  0  0  0  0  0  0  0  0  0  0  0  # atno 11005 bound_to 11000
  144.6869  140.2958  143.7271 LP  0  0  0  0  0  0  0  0  0  0  0  0  # atno 17320 bound_to 7965
  145.7727  139.1863  143.2203 LP  0  0  0  0  0  0  0  0  0  0  0  0  # atno 17321 bound_to 7965
  140.3306  144.3321  150.5988 LP  0  0  0  0  0  0  0  0  0  0  0  0  # atno 17342 bound_to 10162
  140.5648  143.2187  151.7702 LP  0  0  0  0  0  0  0  0  0  0  0  0  # atno 17343 bound_to 10162
  157.6246  131.0927  150.8559 LP  0  0  0  0  0  0  0  0  0  0  0  0  # atno 17370 bound_to 10713
  156.8676  130.5135  149.5299 LP  0  0  0  0  0  0  0  0  0  0  0  0  # atno 17371 bound_to 10713
  140.7173  133.9171  155.8123 LP  0  0  0  0  0  0  0  0  0  0  0  0  # atno 17394 bound_to 11000
  141.0255  134.0830  157.4073 LP  0  0  0  0  0  0  0  0  0  0  0  0  # atno 17395 bound_to 11000

$$$$
