AV-unprocessed.smi:267|AV-procd|sdf|2039|dock8
  -GOLD-   2262021253D 1   1.00000     0.00000
 Structure written by MMmdl.
 51 54  0  0  0  0  0  0  0  0  1 V2000
  148.8442  145.2135  160.8653 C   0  0  0  0  0  0  0  0  0  0  0  0
  150.1944  145.4482  160.5070 O   0  0  0  0  0  0  0  0  0  0  0  0
  150.4446  145.1996  159.1335 C   0  0  0  0  0  0  0  0  0  0  0  0
  151.9025  144.7554  158.9277 C   0  0  0  0  0  0  0  0  0  0  0  0
  152.0107  143.3132  158.6709 N   0  0  0  0  0  0  0  0  0  0  0  0
  151.2309  142.8381  157.5192 C   0  0  0  0  0  0  0  0  0  0  0  0
  150.9631  141.3287  157.5535 C   0  0  0  0  0  0  0  0  0  0  0  0
  152.2032  140.6241  157.8458 N   0  0  0  0  0  0  0  0  0  0  0  0
  152.3125  139.3450  157.4034 C   0  0  0  0  0  0  0  0  0  0  0  0
  153.4501  138.6434  157.6536 N   0  0  0  0  0  0  0  0  0  0  0  0
  153.5745  137.3820  157.2305 C   0  0  0  0  0  0  0  0  0  0  0  0
  152.7022  136.6423  156.5434 N   0  0  0  0  0  0  0  0  0  0  0  0
  151.5648  137.3444  156.2758 C   0  0  0  0  0  0  0  0  0  0  0  0
  151.2885  138.6860  156.6642 C   0  0  0  0  0  0  0  0  0  0  0  0
  150.0339  139.0614  156.1958 N   0  0  0  0  0  0  0  0  0  0  0  0
  149.5899  138.0006  155.5788 C   0  0  0  0  0  0  0  0  0  0  0  0
  150.4449  136.9223  155.5824 N   0  0  0  0  0  0  0  0  0  0  0  0
  150.2148  135.6245  154.9733 C   0  0  0  0  0  0  0  0  0  0  0  0
  150.2086  134.4414  155.9750 C   0  0  0  0  0  0  0  0  0  0  0  0
  149.1060  134.6903  157.0166 C   0  0  0  0  0  0  0  0  0  0  0  0
  149.3311  133.9480  158.1991 O   0  0  0  0  0  0  0  0  0  0  0  0
  150.2389  132.9959  155.4360 C   0  0  0  0  0  0  0  0  0  0  0  0
  151.2973  132.6293  156.3447 O   0  0  0  0  0  0  0  0  0  0  0  0
  151.5707  134.0303  156.5566 C   0  0  0  0  0  0  0  0  0  0  0  0
  152.8998  141.0075  159.0781 C   0  0  0  0  0  0  0  0  0  0  0  0
  152.8200  142.5104  159.4066 C   0  0  0  0  0  0  0  0  0  0  0  0
  153.5029  142.9319  160.3404 O   0  0  0  0  0  0  0  0  0  0  0  0
  148.7066  145.4142  161.9277 H   0  0  0  0  0  0  0  0  0  0  0  0
  148.5614  144.1767  160.6793 H   0  0  0  0  0  0  0  0  0  0  0  0
  148.1698  145.8664  160.3094 H   0  0  0  0  0  0  0  0  0  0  0  0
  149.7586  144.4420  158.7504 H   0  0  0  0  0  0  0  0  0  0  0  0
  150.2645  146.1138  158.5659 H   0  0  0  0  0  0  0  0  0  0  0  0
  152.3217  145.2988  158.0796 H   0  0  0  0  0  0  0  0  0  0  0  0
  152.5113  145.0505  159.7839 H   0  0  0  0  0  0  0  0  0  0  0  0
  150.2805  143.3704  157.4603 H   0  0  0  0  0  0  0  0  0  0  0  0
  151.7855  143.0872  156.6134 H   0  0  0  0  0  0  0  0  0  0  0  0
  150.2439  141.0984  158.3410 H   0  0  0  0  0  0  0  0  0  0  0  0
  150.5025  141.0148  156.6180 H   0  0  0  0  0  0  0  0  0  0  0  0
  154.5069  136.8965  157.4781 H   0  0  0  0  0  0  0  0  0  0  0  0
  148.6201  137.9752  155.1033 H   0  0  0  0  0  0  0  0  0  0  0  0
  149.2682  135.6697  154.4334 H   0  0  0  0  0  0  0  0  0  0  0  0
  150.9730  135.5018  154.1988 H   0  0  0  0  0  0  0  0  0  0  0  0
  149.0371  135.7490  157.2696 H   0  0  0  0  0  0  0  0  0  0  0  0
  148.1299  134.4030  156.6238 H   0  0  0  0  0  0  0  0  0  0  0  0
  148.7639  133.1922  158.1921 H   0  0  0  0  0  0  0  0  0  0  0  0
  149.3192  132.4376  155.6145 H   0  0  0  0  0  0  0  0  0  0  0  0
  150.5620  132.8782  154.4014 H   0  0  0  0  0  0  0  0  0  0  0  0
  152.4262  134.3651  155.9673 H   0  0  0  0  0  0  0  0  0  0  0  0
  151.7031  134.2793  157.6100 H   0  0  0  0  0  0  0  0  0  0  0  0
  152.4791  140.4612  159.9236 H   0  0  0  0  0  0  0  0  0  0  0  0
  153.9515  140.7265  159.0010 H   0  0  0  0  0  0  0  0  0  0  0  0
  1  2  1  0  0  0  0
  1 28  1  0  0  0  0
  1 29  1  0  0  0  0
  1 30  1  0  0  0  0
  2  3  1  0  0  0  0
  3  4  1  0  0  0  0
  3 31  1  0  0  0  0
  3 32  1  0  0  0  0
  4  5  1  0  0  0  0
  4 33  1  0  0  0  0
  4 34  1  0  0  0  0
  5 26  1  0  0  0  0
  5  6  1  0  0  0  0
  6  7  1  0  0  0  0
  6 35  1  0  0  0  0
  6 36  1  0  0  0  0
  7  8  1  0  0  0  0
  7 37  1  0  0  0  0
  7 38  1  0  0  0  0
  8  9  1  0  0  0  0
  8 25  1  0  0  0  0
  9 14  1  0  0  0  0
  9 10  2  0  0  0  0
 10 11  1  0  0  0  0
 11 12  2  0  0  0  0
 11 39  1  0  0  0  0
 12 13  1  0  0  0  0
 13 17  1  0  0  0  0
 13 14  2  0  0  0  0
 14 15  1  0  0  0  0
 15 16  2  0  0  0  0
 16 17  1  0  0  0  0
 16 40  1  0  0  0  0
 17 18  1  0  0  0  0
 18 19  1  0  0  0  0
 18 41  1  0  0  0  0
 18 42  1  0  0  0  0
 19 24  1  0  0  0  0
 19 20  1  0  0  0  0
 19 22  1  0  0  0  0
 20 21  1  0  0  0  0
 20 43  1  0  0  0  0
 20 44  1  0  0  0  0
 21 45  1  0  0  0  0
 22 23  1  0  0  0  0
 22 46  1  0  0  0  0
 22 47  1  0  0  0  0
 23 24  1  0  0  0  0
 24 48  1  0  0  0  0
 24 49  1  0  0  0  0
 25 26  1  0  0  0  0
 25 50  1  0  0  0  0
 25 51  1  0  0  0  0
 26 27  2  0  0  0  0
M  END
> <s_m_source_file>
AV-unprocessed.smi

> <i_m_source_file_index>
267

> <i_lp_mmshare_version>
43012

> <i_f3d_flags>
0

> <s_epik_input>
W0NIM11PW0NIMl1bQ0gyXU4xW0NIMl1bQ0gyXU4oW0NIMl1DMT1PKWMobltjSF1uMiljKGMyMyluW2NIXW4zW0NIMl1DNChbQ0gyXVtPSF0pW0NIMl1PW0NIMl00

> <s_epik_cmdline>
J2VwaWtfcHl0aG9uJywgJy1waCcsICc3LjAnLCAnLXRuJywgJzgnLCAnLW1hJywgJzIwMCcsICctbWV0YWxfYmluZGluZycsICctaW1hZScsICc8aW5maWxlLm1hZT4nLCAnLW9tYWUnLCAnPG91dGZpbGUubWFlPic=

> <r_lp_tautomer_probability>
1

> <r_epik_Ionization_Penalty>
0.000432285

> <r_epik_Ionization_Penalty_Charging>
0

> <r_epik_Ionization_Penalty_Neutral>
0.000432285

> <r_epik_State_Penalty>
0.000191954

> <r_epik_Charging_Adjusted_Penalty>
0.000191954

> <i_epik_Tot_Q>
0

> <i_epik_Tot_abs_Q>
0

> <r_epik_Metal_State_Penalty>
-0

> <b_epik_Metal_Only>
0

> <s_lp_Force_Field>
OPLS_2005

> <r_lp_Energy>
43.2758

> <b_lp_Chiralities_Consistent>
1

> <s_lp_Variant>
AV-unprocessed.smi:267-1

> <Gold.Version>
5.8.1

> <Gold.Id.Protein>
6NUR|6NUR_protein|mol2

> <Gold.PLP.Fitness>
48.2041

> <Gold.PLP.PLP>
-41.3224

> <Gold.PLP.part.hbond>
-4.0000

> <Gold.PLP.part.metal>
0.0000

> <Gold.PLP.part.buried>
-5.6116

> <Gold.PLP.part.nonpolar>
-31.7158

> <Gold.PLP.part.repulsive>
0.3427

> <Gold.PLP.ligand.clash>
0.0000

> <Gold.PLP.ligand.torsion>
1.1183

> <Gold.PLP.Chemscore.Hbond>
2.8496

> <Gold.PLP.Chemscore.CHOScore>
0.0000

> <Gold.PLP.Chemscore.Metal>
0.0000

> <Gold.Chemscore.Hbonds>
donor molecule, donor type, donor heavy atom, donor atom, acceptor molecule, acceptor atom, score
      P1  H  6896  6908       L1    21  1.00
      P1  H  7997  8009       L1    10  0.91
      P1  H 10752 10764       L1    12  1.00

> <Gold.PLP.Chemscore.Internal.Correction>
0.5695

> <Gold.Rescore>
     Score         DG    S(hbond)    S(metal)    S(lipo)     H(rot)  DE(clash)    DE(int)     intcor
      8.58     -13.39       1.87        0.00      82.15       3.11       0.03       4.78       ----

> <Gold.Chemscore.Fitness>
8.5829

> <Gold.Chemscore.DG>
-13.3883

> <Gold.Chemscore.ZeroCoef>
-5.4800

> <Gold.Chemscore.Hbond>
1.8734

> <Gold.Chemscore.Metal>
0.0000

> <Gold.Chemscore.Lipo>
82.1459

> <Gold.Chemscore.Internal_Hbond>
0.0000

> <Gold.Chemscore.DEClash>
0.0272

> <Gold.Chemscore.DEInternal>
4.7782

> <Gold.Chemscore.Rot>
3.1093

> <Gold.Chemscore.Internal.Correction>
   9.000000E+99

> <Gold.Chemscore.Hbonds>
donor molecule, donor type, donor heavy atom, donor atom, acceptor molecule, acceptor atom, score
      P1  H  6896  6908       L1    21  0.98
      P1  H  7997  8009       L1    10  0.22
      P1  H 10752 10764       L1    12  0.88

> <Gold.Chemscore.Hbond.Weighted>
-6.2571

> <Gold.Chemscore.Metal.Weighted>
-0.0000

> <Gold.Chemscore.Lipo.Weighted>
-9.6111

> <Gold.Chemscore.Internal_Hbond.Weighted>
0.0000

> <Gold.Chemscore.DEClash.Weighted>
0.0272

> <Gold.Chemscore.DEInternal.Weighted>
4.7782

> <Gold.Chemscore.Rot.Weighted>
7.9599

> <Gold.Chemscore.Internal.Correction.Weighted>
   9.000000E+99

> <Gold.Protein.RotatedTorsions>
[ 6907 6896 6895 6894 ] final  135.72 input  -60.11 | X-H torsion
[ 7974 7965 7964 7962 ] final   35.29 input  175.53 | X-H torsion
[ 8008 7997 7996 7995 ] final  137.41 input   59.86 | X-H torsion
[ 10167 10162 10161 10158 ] final  103.32 input  -65.29 | X-H torsion
[ 10718 10713 10712 10709 ] final   39.36 input   66.30 | X-H torsion
[ 10763 10752 10751 10750 ] final  -18.63 input  -60.55 | X-H torsion
[ 11005 11000 10999 10996 ] final  -89.96 input  -57.11 | X-H torsion

> <Gold.Protein.ActiveResidues>
 VAL166  LYS551  ARG553  GLY616  TRP617  ASP618  TYR619  PRO620  LYS621  CYS622 
 ASP623  PHE694  ASN695  SER759  ASP760  ASP761  ALA762  ILE779  LEU786  VAL792 
 PHE793  MET794  SER795  GLU796  ALA797  LYS798  CYS799  TRP800  GLU811  SER814 

> <Gold.Protein.RotatedAtoms>
  152.2973  133.5620  159.5595 H   0  0  0  0  0  0  0  0  0  0  0  0  # atno 6907 bound_to 6896
  150.7261  134.0343  159.3753 H   0  0  0  0  0  0  0  0  0  0  0  0  # atno 6908 bound_to 6896
  151.8245  135.0641  160.0480 H   0  0  0  0  0  0  0  0  0  0  0  0  # atno 6909 bound_to 6896
  146.1293  139.6161  142.9237 H   0  0  0  0  0  0  0  0  0  0  0  0  # atno 7974 bound_to 7965
  156.3002  140.2420  156.3905 H   0  0  0  0  0  0  0  0  0  0  0  0  # atno 8008 bound_to 7997
  154.8618  140.0419  157.1690 H   0  0  0  0  0  0  0  0  0  0  0  0  # atno 8009 bound_to 7997
  154.8888  140.2960  155.5386 H   0  0  0  0  0  0  0  0  0  0  0  0  # atno 8010 bound_to 7997
  139.7273  144.7044  151.0777 H   0  0  0  0  0  0  0  0  0  0  0  0  # atno 10167 bound_to 10162
  157.3697  130.7694  149.7109 H   0  0  0  0  0  0  0  0  0  0  0  0  # atno 10718 bound_to 10713
  153.5923  135.7002  153.5418 H   0  0  0  0  0  0  0  0  0  0  0  0  # atno 10763 bound_to 10752
  153.3167  135.4085  155.1382 H   0  0  0  0  0  0  0  0  0  0  0  0  # atno 10764 bound_to 10752
  154.8598  135.3685  154.5455 H   0  0  0  0  0  0  0  0  0  0  0  0  # atno 10765 bound_to 10752
  141.1575  133.7662  156.9670 H   0  0  0  0  0  0  0  0  0  0  0  0  # atno 11005 bound_to 11000
  145.5295  141.0428  143.2391 LP  0  0  0  0  0  0  0  0  0  0  0  0  # atno 17320 bound_to 7965
  144.7674  139.6813  143.7209 LP  0  0  0  0  0  0  0  0  0  0  0  0  # atno 17321 bound_to 7965
  140.7765  143.5088  150.9678 LP  0  0  0  0  0  0  0  0  0  0  0  0  # atno 17342 bound_to 10162
  139.8776  143.7113  152.3160 LP  0  0  0  0  0  0  0  0  0  0  0  0  # atno 17343 bound_to 10162
  155.9753  130.4091  150.3860 LP  0  0  0  0  0  0  0  0  0  0  0  0  # atno 17370 bound_to 10713
  157.1949  131.0424  151.2681 LP  0  0  0  0  0  0  0  0  0  0  0  0  # atno 17371 bound_to 10713
  140.1155  134.9450  157.2127 LP  0  0  0  0  0  0  0  0  0  0  0  0  # atno 17394 bound_to 11000
  140.3139  134.2992  155.7260 LP  0  0  0  0  0  0  0  0  0  0  0  0  # atno 17395 bound_to 11000

$$$$
