AV-unprocessed.smi:2567|AV-procd|sdf|10078|dock6
  -GOLD-   2272014103D 1   1.00000     0.00000
 Structure written by MMmdl.
 34 35  0  0  0  0  0  0  0  0  2 V2000
  149.8382  134.6080  155.1112 C   0  0  0  0  0  0  0  0  0  0  0  0
  148.8633  133.4562  154.7801 C   0  0  0  0  0  0  0  0  0  0  0  0
  149.7113  132.3201  154.1674 C   0  0  0  0  0  0  0  0  0  0  0  0
  148.1864  132.9580  156.0697 C   0  0  0  0  0  0  0  0  0  0  0  0
  147.8086  133.9121  153.7988 C   0  0  0  0  0  0  0  0  0  0  0  0
  146.7842  134.6773  154.1842 N   0  0  0  0  0  0  0  0  0  0  0  0
  146.0248  134.7318  153.0710 N   0  0  0  0  0  0  0  0  0  0  0  0
  146.5790  133.9760  152.1228 C   0  0  0  0  0  0  0  0  0  0  0  0
  145.9555  133.7976  150.7747 C   0  0  2  0  0  0  0  0  0  0  0  0
  144.5685  134.4617  150.6763 C   0  0  0  0  0  0  0  0  0  0  0  0
  143.9584  134.1658  149.3653 N   0  3  0  0  0  0  0  0  0  0  0  0
  143.9039  132.7125  149.1113 C   0  0  0  0  0  0  0  0  0  0  0  0
  145.3051  132.0951  149.2631 C   0  0  0  0  0  0  0  0  0  0  0  0
  145.8253  132.3952  150.5541 O   0  0  0  0  0  0  0  0  0  0  0  0
  147.7018  133.3963  152.5334 N   0  0  0  0  0  0  0  0  0  0  0  0
  145.1629  135.2558  153.0179 H   0  0  0  0  0  0  0  0  0  0  0  0
  150.6278  134.2772  155.7868 H   0  0  0  0  0  0  0  0  0  0  0  0
  149.3315  135.4410  155.5998 H   0  0  0  0  0  0  0  0  0  0  0  0
  150.3180  134.9948  154.2112 H   0  0  0  0  0  0  0  0  0  0  0  0
  150.1888  132.6360  153.2391 H   0  0  0  0  0  0  0  0  0  0  0  0
  149.1078  131.4393  153.9448 H   0  0  0  0  0  0  0  0  0  0  0  0
  150.4998  132.0009  154.8497 H   0  0  0  0  0  0  0  0  0  0  0  0
  148.9222  132.6184  156.7991 H   0  0  0  0  0  0  0  0  0  0  0  0
  147.5145  132.1232  155.8670 H   0  0  0  0  0  0  0  0  0  0  0  0
  147.5980  133.7474  156.5389 H   0  0  0  0  0  0  0  0  0  0  0  0
  146.6273  134.2185  150.0237 H   0  0  0  0  0  0  0  0  0  0  0  0
  143.9111  134.0910  151.4644 H   0  0  0  0  0  0  0  0  0  0  0  0
  144.6468  135.5419  150.8034 H   0  0  0  0  0  0  0  0  0  0  0  0
  143.0236  134.5473  149.3355 H   0  0  0  0  0  0  0  0  0  0  0  0
  143.2112  132.2511  149.8164 H   0  0  0  0  0  0  0  0  0  0  0  0
  143.5110  132.5337  148.1101 H   0  0  0  0  0  0  0  0  0  0  0  0
  145.2539  131.0127  149.1453 H   0  0  0  0  0  0  0  0  0  0  0  0
  145.9811  132.4673  148.4915 H   0  0  0  0  0  0  0  0  0  0  0  0
  144.5148  134.6000  148.6428 H   0  0  0  0  0  0  0  0  0  0  0  0
  1  2  1  0  0  0  0
  1 17  1  0  0  0  0
  1 18  1  0  0  0  0
  1 19  1  0  0  0  0
  2  3  1  0  0  0  0
  2  4  1  0  0  0  0
  2  5  1  0  0  0  0
  3 20  1  0  0  0  0
  3 21  1  0  0  0  0
  3 22  1  0  0  0  0
  4 23  1  0  0  0  0
  4 24  1  0  0  0  0
  4 25  1  0  0  0  0
  5 15  1  0  0  0  0
  5  6  2  0  0  0  0
  6  7  1  0  0  0  0
  7 16  1  0  0  0  0
  7  8  1  0  0  0  0
  8  9  1  0  0  0  0
  8 15  2  0  0  0  0
  9 14  1  0  0  0  0
  9 10  1  0  0  0  0
  9 26  1  0  0  0  0
 10 11  1  0  0  0  0
 10 27  1  0  0  0  0
 10 28  1  0  0  0  0
 11 12  1  0  0  0  0
 11 29  1  0  0  0  0
 11 34  1  0  0  0  0
 12 13  1  0  0  0  0
 12 30  1  0  0  0  0
 12 31  1  0  0  0  0
 13 14  1  0  0  0  0
 13 32  1  0  0  0  0
 13 33  1  0  0  0  0
M  CHG  1  11   1
M  END
> <s_m_source_file>
AV-unprocessed.smi

> <i_m_source_file_index>
2567

> <i_lp_mmshare_version>
43012

> <i_f3d_flags>
0

> <s_epik_input>
W0NIM11DKFtDSDNdKShbQ0gzXSljMW5bbkhdYyhuMSlbQ0BASF0yW0NIMl1bTkhdW0NIMl1bQ0gyXU8y

> <s_epik_cmdline>
J2VwaWtfcHl0aG9uJywgJy1waCcsICc3LjAnLCAnLXRuJywgJzgnLCAnLW1hJywgJzIwMCcsICctbWV0YWxfYmluZGluZycsICctaW1hZScsICc8aW5maWxlLm1hZT4nLCAnLW9tYWUnLCAnPG91dGZpbGUubWFlPic=

> <r_epik_Ionization_Penalty>
0.162344

> <r_epik_Ionization_Penalty_Charging>
0.125708

> <r_epik_Ionization_Penalty_Neutral>
0.0366363

> <r_epik_State_Penalty>
1.18286

> <r_epik_Charging_Adjusted_Penalty>
1.30856

> <i_epik_Tot_Q>
1

> <i_epik_Tot_abs_Q>
1

> <r_epik_Metal_State_Penalty>
1.49333

> <b_epik_Metal_Only>
0

> <s_lp_Force_Field>
OPLS_2005

> <r_lp_Energy>
12.4699

> <b_lp_Chiralities_Consistent>
1

> <s_lp_Variant>
AV-unprocessed.smi:2567-3

> <Gold.Version>
5.8.1

> <Gold.Id.Protein>
6NUR|6NUR_protein|mol2

> <Gold.PLP.Fitness>
33.6169

> <Gold.PLP.PLP>
-25.1903

> <Gold.PLP.part.hbond>
-2.0000

> <Gold.PLP.part.metal>
0.0000

> <Gold.PLP.part.buried>
-3.8463

> <Gold.PLP.part.nonpolar>
-19.5491

> <Gold.PLP.part.repulsive>
0.5496

> <Gold.PLP.ligand.clash>
0.0000

> <Gold.PLP.ligand.torsion>
0.3895

> <Gold.PLP.Chemscore.Hbond>
3.0000

> <Gold.PLP.Chemscore.CHOScore>
0.0000

> <Gold.PLP.Chemscore.Metal>
0.0000

> <Gold.Chemscore.Hbonds>
donor molecule, donor type, donor heavy atom, donor atom, acceptor molecule, acceptor atom, score
      L1  H    11    29       P1 10186  2.00
      L1  H    11    34       P1  7921  1.00

> <Gold.PLP.Chemscore.Internal.Correction>
0.2056

> <Gold.Rescore>
     Score         DG    S(hbond)    S(metal)    S(lipo)     H(rot)  DE(clash)    DE(int)     intcor
     15.22     -15.46       1.95        0.00      57.43       1.26       0.04       0.21       ----

> <Gold.Chemscore.Fitness>
15.2200

> <Gold.Chemscore.DG>
-15.4644

> <Gold.Chemscore.ZeroCoef>
-5.4800

> <Gold.Chemscore.Hbond>
1.9468

> <Gold.Chemscore.Metal>
0.0000

> <Gold.Chemscore.Lipo>
57.4332

> <Gold.Chemscore.Internal_Hbond>
0.0000

> <Gold.Chemscore.DEClash>
0.0394

> <Gold.Chemscore.DEInternal>
0.2050

> <Gold.Chemscore.Rot>
1.2647

> <Gold.Chemscore.Internal.Correction>
   9.000000E+99

> <Gold.Chemscore.Hbonds>
donor molecule, donor type, donor heavy atom, donor atom, acceptor molecule, acceptor atom, score
      L1  H    11    29       P1 10186  0.91
      L1  H    11    34       P1  7921  0.97

> <Gold.Chemscore.Hbond.Weighted>
-6.5022

> <Gold.Chemscore.Metal.Weighted>
-0.0000

> <Gold.Chemscore.Lipo.Weighted>
-6.7197

> <Gold.Chemscore.Internal_Hbond.Weighted>
0.0000

> <Gold.Chemscore.DEClash.Weighted>
0.0394

> <Gold.Chemscore.DEInternal.Weighted>
0.2050

> <Gold.Chemscore.Rot.Weighted>
3.2375

> <Gold.Chemscore.Internal.Correction.Weighted>
   9.000000E+99

> <Gold.Protein.RotatedTorsions>
[ 6907 6896 6895 6894 ] final   84.30 input  -60.11 | X-H torsion
[ 7974 7965 7964 7962 ] final  129.60 input  175.53 | X-H torsion
[ 8008 7997 7996 7995 ] final -110.97 input   59.86 | X-H torsion
[ 10167 10162 10161 10158 ] final   39.87 input  -65.29 | X-H torsion
[ 10718 10713 10712 10709 ] final  132.17 input   66.30 | X-H torsion
[ 10763 10752 10751 10750 ] final   78.29 input  -60.55 | X-H torsion
[ 11005 11000 10999 10996 ] final  -52.05 input  -57.11 | X-H torsion

> <Gold.Protein.ActiveResidues>
 VAL166  LYS551  ARG553  GLY616  TRP617  ASP618  TYR619  PRO620  LYS621  CYS622 
 ASP623  PHE694  ASN695  SER759  ASP760  ASP761  ALA762  ILE779  LEU786  VAL792 
 PHE793  MET794  SER795  GLU796  ALA797  LYS798  CYS799  TRP800  GLU811  SER814 

> <Gold.Protein.RotatedAtoms>
  152.5349  134.2761  159.8989 H   0  0  0  0  0  0  0  0  0  0  0  0  # atno 6907 bound_to 6896
  151.2717  133.4245  159.2629 H   0  0  0  0  0  0  0  0  0  0  0  0  # atno 6908 bound_to 6896
  151.0362  134.9589  159.8194 H   0  0  0  0  0  0  0  0  0  0  0  0  # atno 6909 bound_to 6896
  145.0269  139.4081  143.5169 H   0  0  0  0  0  0  0  0  0  0  0  0  # atno 7974 bound_to 7965
  154.9826  140.0396  157.2284 H   0  0  0  0  0  0  0  0  0  0  0  0  # atno 8008 bound_to 7997
  154.7700  140.2800  155.6123 H   0  0  0  0  0  0  0  0  0  0  0  0  # atno 8009 bound_to 7997
  156.2919  140.2612  156.2500 H   0  0  0  0  0  0  0  0  0  0  0  0  # atno 8010 bound_to 7997
  140.3797  144.1996  150.6131 H   0  0  0  0  0  0  0  0  0  0  0  0  # atno 10167 bound_to 10162
  157.4897  131.1090  150.9573 H   0  0  0  0  0  0  0  0  0  0  0  0  # atno 10718 bound_to 10713
  153.0863  135.4882  154.8603 H   0  0  0  0  0  0  0  0  0  0  0  0  # atno 10763 bound_to 10752
  154.7214  135.3040  154.9043 H   0  0  0  0  0  0  0  0  0  0  0  0  # atno 10764 bound_to 10752
  153.9706  135.6801  153.4800 H   0  0  0  0  0  0  0  0  0  0  0  0  # atno 10765 bound_to 10752
  141.0904  133.6634  156.3968 H   0  0  0  0  0  0  0  0  0  0  0  0  # atno 11005 bound_to 11000
  146.3493  139.9797  142.8697 LP  0  0  0  0  0  0  0  0  0  0  0  0  # atno 17320 bound_to 7965
  145.1822  140.9772  143.4260 LP  0  0  0  0  0  0  0  0  0  0  0  0  # atno 17321 bound_to 7965
  140.4950  143.2335  151.8763 LP  0  0  0  0  0  0  0  0  0  0  0  0  # atno 17342 bound_to 10162
  139.4796  144.5124  151.8915 LP  0  0  0  0  0  0  0  0  0  0  0  0  # atno 17343 bound_to 10162
  157.0278  130.5699  149.5339 LP  0  0  0  0  0  0  0  0  0  0  0  0  # atno 17370 bound_to 10713
  156.0166  130.5261  150.8154 LP  0  0  0  0  0  0  0  0  0  0  0  0  # atno 17371 bound_to 10713
  140.5265  134.6253  157.5336 LP  0  0  0  0  0  0  0  0  0  0  0  0  # atno 17394 bound_to 11000
  139.9729  134.7263  156.0006 LP  0  0  0  0  0  0  0  0  0  0  0  0  # atno 17395 bound_to 11000

$$$$
