AV-unprocessed.smi:407|AV-procd|sdf|2501|dock7
  -GOLD-   2262022453D 1   1.00000     0.00000
 Structure written by MMmdl.
 45 47  0  0  0  0  0  0  0  0  1 V2000
  143.3667  145.1851  154.3869 C   0  0  0  0  0  0  0  0  0  0  0  0
  143.8097  144.1461  155.4157 C   0  0  0  0  0  0  0  0  0  0  0  0
  143.1659  144.0354  156.4586 O   0  0  0  0  0  0  0  0  0  0  0  0
  145.0091  143.3201  155.0978 C   0  0  0  0  0  0  0  0  0  0  0  0
  145.5751  143.3851  153.8052 C   0  0  0  0  0  0  0  0  0  0  0  0
  146.7072  142.6146  153.4791 C   0  0  0  0  0  0  0  0  0  0  0  0
  147.3008  141.7633  154.4311 C   0  0  0  0  0  0  0  0  0  0  0  0
  148.4035  141.0426  154.0258 O   0  0  0  0  0  0  0  0  0  0  0  0
  148.9482  140.0821  154.9213 C   0  0  0  0  0  0  0  0  0  0  0  0
  149.9600  140.7833  155.8428 C   0  0  2  0  0  0  0  0  0  0  0  0
  151.2454  140.5722  155.2927 O   0  0  0  0  0  0  0  0  0  0  0  0
  149.9531  140.1846  157.2642 C   0  0  0  0  0  0  0  0  0  0  0  0
  151.0739  140.6751  158.0656 N   0  0  0  0  0  0  0  0  0  0  0  0
  151.9226  139.9248  158.8082 C   0  0  0  0  0  0  0  0  0  0  0  0
  151.8885  138.7000  158.9248 O   0  0  0  0  0  0  0  0  0  0  0  0
  152.8108  140.7575  159.3993 N   0  0  0  0  0  0  0  0  0  0  0  0
  153.9046  140.3852  160.2882 C   0  0  0  0  0  0  0  0  0  0  0  0
  152.5263  142.0760  159.0225 C   0  0  0  0  0  0  0  0  0  0  0  0
  153.1520  143.2876  159.3624 C   0  0  0  0  0  0  0  0  0  0  0  0
  152.6099  144.4715  158.8096 C   0  0  0  0  0  0  0  0  0  0  0  0
  151.4814  144.4220  157.9504 C   0  0  0  0  0  0  0  0  0  0  0  0
  150.8719  143.1878  157.6241 C   0  0  0  0  0  0  0  0  0  0  0  0
  151.4318  142.0262  158.1849 C   0  0  0  0  0  0  0  0  0  0  0  0
  146.7382  141.6994  155.7296 C   0  0  0  0  0  0  0  0  0  0  0  0
  145.6055  142.4697  156.0578 C   0  0  0  0  0  0  0  0  0  0  0  0
  144.1695  145.8963  154.1917 H   0  0  0  0  0  0  0  0  0  0  0  0
  142.5027  145.7401  154.7534 H   0  0  0  0  0  0  0  0  0  0  0  0
  143.0883  144.7015  153.4503 H   0  0  0  0  0  0  0  0  0  0  0  0
  145.1464  144.0256  153.0477 H   0  0  0  0  0  0  0  0  0  0  0  0
  147.1237  142.6769  152.4844 H   0  0  0  0  0  0  0  0  0  0  0  0
  148.1311  139.6751  155.5194 H   0  0  0  0  0  0  0  0  0  0  0  0
  149.4179  139.2520  154.3901 H   0  0  0  0  0  0  0  0  0  0  0  0
  149.7390  141.8510  155.8805 H   0  0  0  0  0  0  0  0  0  0  0  0
  151.4282  139.6453  155.3062 H   0  0  0  0  0  0  0  0  0  0  0  0
  149.0342  140.4701  157.7786 H   0  0  0  0  0  0  0  0  0  0  0  0
  149.9411  139.0946  157.2317 H   0  0  0  0  0  0  0  0  0  0  0  0
  153.8977  141.0102  161.1816 H   0  0  0  0  0  0  0  0  0  0  0  0
  154.8611  140.5204  159.7828 H   0  0  0  0  0  0  0  0  0  0  0  0
  153.8337  139.3451  160.6093 H   0  0  0  0  0  0  0  0  0  0  0  0
  154.0096  143.3169  160.0182 H   0  0  0  0  0  0  0  0  0  0  0  0
  153.0596  145.4250  159.0449 H   0  0  0  0  0  0  0  0  0  0  0  0
  151.0827  145.3383  157.5405 H   0  0  0  0  0  0  0  0  0  0  0  0
  150.0120  143.1466  156.9722 H   0  0  0  0  0  0  0  0  0  0  0  0
  147.1576  141.0655  156.4958 H   0  0  0  0  0  0  0  0  0  0  0  0
  145.2098  142.3910  157.0593 H   0  0  0  0  0  0  0  0  0  0  0  0
  1  2  1  0  0  0  0
  1 26  1  0  0  0  0
  1 27  1  0  0  0  0
  1 28  1  0  0  0  0
  2  3  2  0  0  0  0
  2  4  1  0  0  0  0
  4 25  1  0  0  0  0
  4  5  2  0  0  0  0
  5  6  1  0  0  0  0
  5 29  1  0  0  0  0
  6  7  2  0  0  0  0
  6 30  1  0  0  0  0
  7  8  1  0  0  0  0
  7 24  1  0  0  0  0
  8  9  1  0  0  0  0
  9 10  1  0  0  0  0
  9 31  1  0  0  0  0
  9 32  1  0  0  0  0
 10 11  1  0  0  0  0
 10 12  1  0  0  0  0
 10 33  1  0  0  0  0
 11 34  1  0  0  0  0
 12 13  1  0  0  0  0
 12 35  1  0  0  0  0
 12 36  1  0  0  0  0
 13 23  1  0  0  0  0
 13 14  1  0  0  0  0
 14 15  2  0  0  0  0
 14 16  1  0  0  0  0
 16 17  1  0  0  0  0
 16 18  1  0  0  0  0
 17 37  1  0  0  0  0
 17 38  1  0  0  0  0
 17 39  1  0  0  0  0
 18 23  2  0  0  0  0
 18 19  1  0  0  0  0
 19 20  2  0  0  0  0
 19 40  1  0  0  0  0
 20 21  1  0  0  0  0
 20 41  1  0  0  0  0
 21 22  2  0  0  0  0
 21 42  1  0  0  0  0
 22 23  1  0  0  0  0
 22 43  1  0  0  0  0
 24 25  2  0  0  0  0
 24 44  1  0  0  0  0
 25 45  1  0  0  0  0
M  END
> <s_m_source_file>
AV-unprocessed.smi

> <i_m_source_file_index>
407

> <i_lp_mmshare_version>
43012

> <i_f3d_flags>
0

> <s_epik_input>
W0NIM11DKD1PKWMxW2NIXVtjSF1jKFtjSF1bY0hdMSlPW0NIMl1bQ0BIXShbT0hdKVtDSDJdbihjKD1PKW4yW0NIM10pYyhjMjMpW2NIXVtjSF1bY0hdW2NIXTM=

> <s_epik_cmdline>
J2VwaWtfcHl0aG9uJywgJy1waCcsICc3LjAnLCAnLXRuJywgJzgnLCAnLW1hJywgJzIwMCcsICctbWV0YWxfYmluZGluZycsICctaW1hZScsICc8aW5maWxlLm1hZT4nLCAnLW9tYWUnLCAnPG91dGZpbGUubWFlPic=

> <r_lp_tautomer_probability>
1

> <r_epik_Ionization_Penalty>
2.40123e-06

> <r_epik_Ionization_Penalty_Charging>
1.9356e-09

> <r_epik_Ionization_Penalty_Neutral>
2.3993e-06

> <r_epik_State_Penalty>
-0

> <r_epik_Charging_Adjusted_Penalty>
1.9356e-09

> <i_epik_Tot_Q>
0

> <i_epik_Tot_abs_Q>
0

> <r_epik_Metal_State_Penalty>
-0

> <b_epik_Metal_Only>
0

> <s_lp_Force_Field>
OPLS_2005

> <r_lp_Energy>
53.6429

> <b_lp_Chiralities_Consistent>
1

> <s_lp_Variant>
AV-unprocessed.smi:407-1

> <Gold.Version>
5.8.1

> <Gold.Id.Protein>
6NUR|6NUR_protein|mol2

> <Gold.PLP.Fitness>
53.0373

> <Gold.PLP.PLP>
-51.9143

> <Gold.PLP.part.hbond>
-1.0000

> <Gold.PLP.part.metal>
0.0000

> <Gold.PLP.part.buried>
-8.8111

> <Gold.PLP.part.nonpolar>
-43.2927

> <Gold.PLP.part.repulsive>
0.1718

> <Gold.PLP.ligand.clash>
0.0000

> <Gold.PLP.ligand.torsion>
0.8835

> <Gold.PLP.Chemscore.Hbond>
0.9440

> <Gold.PLP.Chemscore.CHOScore>
0.0000

> <Gold.PLP.Chemscore.Metal>
0.0000

> <Gold.Chemscore.Hbonds>
donor molecule, donor type, donor heavy atom, donor atom, acceptor molecule, acceptor atom, score
      P1  H  7989  7998       L1    11  0.79

> <Gold.PLP.Chemscore.Internal.Correction>
0.0580

> <Gold.Rescore>
     Score         DG    S(hbond)    S(metal)    S(lipo)     H(rot)  DE(clash)    DE(int)     intcor
     16.29     -17.13       0.85        0.00     125.53       2.30       0.04       0.80       ----

> <Gold.Chemscore.Fitness>
16.2885

> <Gold.Chemscore.DG>
-17.1328

> <Gold.Chemscore.ZeroCoef>
-5.4800

> <Gold.Chemscore.Hbond>
0.8532

> <Gold.Chemscore.Metal>
0.0000

> <Gold.Chemscore.Lipo>
125.5308

> <Gold.Chemscore.Internal_Hbond>
0.0000

> <Gold.Chemscore.DEClash>
0.0429

> <Gold.Chemscore.DEInternal>
0.8014

> <Gold.Chemscore.Rot>
2.2984

> <Gold.Chemscore.Internal.Correction>
   9.000000E+99

> <Gold.Chemscore.Hbonds>
donor molecule, donor type, donor heavy atom, donor atom, acceptor molecule, acceptor atom, score
      P1  H  7989  7998       L1    11  0.15

> <Gold.Chemscore.Hbond.Weighted>
-2.8496

> <Gold.Chemscore.Metal.Weighted>
-0.0000

> <Gold.Chemscore.Lipo.Weighted>
-14.6871

> <Gold.Chemscore.Internal_Hbond.Weighted>
0.0000

> <Gold.Chemscore.DEClash.Weighted>
0.0429

> <Gold.Chemscore.DEInternal.Weighted>
0.8014

> <Gold.Chemscore.Rot.Weighted>
5.8839

> <Gold.Chemscore.Internal.Correction.Weighted>
   9.000000E+99

> <Gold.Protein.RotatedTorsions>
[ 6907 6896 6895 6894 ] final  130.55 input  -60.11 | X-H torsion
[ 7974 7965 7964 7962 ] final   -9.25 input  175.53 | X-H torsion
[ 8008 7997 7996 7995 ] final -118.65 input   59.86 | X-H torsion
[ 10167 10162 10161 10158 ] final  -25.92 input  -65.29 | X-H torsion
[ 10718 10713 10712 10709 ] final   35.33 input   66.30 | X-H torsion
[ 10763 10752 10751 10750 ] final -130.03 input  -60.55 | X-H torsion
[ 11005 11000 10999 10996 ] final  153.91 input  -57.11 | X-H torsion

> <Gold.Protein.ActiveResidues>
 VAL166  LYS551  ARG553  GLY616  TRP617  ASP618  TYR619  PRO620  LYS621  CYS622 
 ASP623  PHE694  ASN695  SER759  ASP760  ASP761  ALA762  ILE779  LEU786  VAL792 
 PHE793  MET794  SER795  GLU796  ALA797  LYS798  CYS799  TRP800  GLU811  SER814 

> <Gold.Protein.RotatedAtoms>
  152.3515  133.6185  159.5947 H   0  0  0  0  0  0  0  0  0  0  0  0  # atno 6907 bound_to 6896
  150.7541  133.9567  159.3511 H   0  0  0  0  0  0  0  0  0  0  0  0  # atno 6908 bound_to 6896
  151.7418  135.0853  160.0368 H   0  0  0  0  0  0  0  0  0  0  0  0  # atno 6909 bound_to 6896
  146.2257  140.2588  142.8351 H   0  0  0  0  0  0  0  0  0  0  0  0  # atno 7974 bound_to 7965
  155.1031  140.0396  157.2702 H   0  0  0  0  0  0  0  0  0  0  0  0  # atno 8008 bound_to 7997
  154.6743  140.2619  155.6949 H   0  0  0  0  0  0  0  0  0  0  0  0  # atno 8009 bound_to 7997
  156.2670  140.2791  156.1263 H   0  0  0  0  0  0  0  0  0  0  0  0  # atno 8010 bound_to 7997
  140.7285  143.4222  151.0932 H   0  0  0  0  0  0  0  0  0  0  0  0  # atno 10167 bound_to 10162
  157.3213  130.7450  149.6787 H   0  0  0  0  0  0  0  0  0  0  0  0  # atno 10718 bound_to 10713
  154.8756  135.3876  154.4017 H   0  0  0  0  0  0  0  0  0  0  0  0  # atno 10763 bound_to 10752
  153.4741  135.7030  153.5981 H   0  0  0  0  0  0  0  0  0  0  0  0  # atno 10764 bound_to 10752
  153.4426  135.3852  155.2205 H   0  0  0  0  0  0  0  0  0  0  0  0  # atno 10765 bound_to 10752
  140.1441  134.8719  157.2370 H   0  0  0  0  0  0  0  0  0  0  0  0  # atno 11005 bound_to 11000
  144.9355  140.8022  143.5662 LP  0  0  0  0  0  0  0  0  0  0  0  0  # atno 17320 bound_to 7965
  145.2535  139.2021  143.4930 LP  0  0  0  0  0  0  0  0  0  0  0  0  # atno 17321 bound_to 7965
  139.7870  143.8274  152.3146 LP  0  0  0  0  0  0  0  0  0  0  0  0  # atno 17342 bound_to 10162
  139.8244  144.7281  150.9531 LP  0  0  0  0  0  0  0  0  0  0  0  0  # atno 17343 bound_to 10162
  155.9686  130.4222  150.4506 LP  0  0  0  0  0  0  0  0  0  0  0  0  # atno 17370 bound_to 10713
  157.2522  131.0549  151.2372 LP  0  0  0  0  0  0  0  0  0  0  0  0  # atno 17371 bound_to 10713
  140.2685  134.3487  155.7381 LP  0  0  0  0  0  0  0  0  0  0  0  0  # atno 17394 bound_to 11000
  141.2190  133.7410  156.9188 LP  0  0  0  0  0  0  0  0  0  0  0  0  # atno 17395 bound_to 11000

$$$$
