AV-unprocessed.smi:770|AV-procd|sdf|3679|dock1
  -GOLD-   22720 1 93D 1   1.00000     0.00000
 Structure written by MMmdl.
 37 38  0  0  0  0  0  0  0  0  1 V2000
  149.8341  131.7390  153.5392 C   0  0  0  0  0  0  0  0  0  0  0  0
  150.1693  132.6904  154.2273 C   0  0  0  0  0  0  0  0  0  0  0  0
  150.5669  133.8558  155.0366 C   0  0  0  0  0  0  0  0  0  0  0  0
  150.2935  135.1218  154.3661 N   0  0  0  0  0  0  0  0  0  0  0  0
  150.4142  136.3324  154.9296 C   0  0  0  0  0  0  0  0  0  0  0  0
  150.8361  136.5218  156.0706 O   0  0  0  0  0  0  0  0  0  0  0  0
  149.9772  137.3053  154.1162 N   0  0  0  0  0  0  0  0  0  0  0  0
  149.8464  138.7147  154.4804 C   0  0  0  0  0  0  0  0  0  0  0  0
  151.2138  139.4205  154.5885 C   0  0  0  0  0  0  0  0  0  0  0  0
  151.5704  139.8240  155.9899 C   0  0  0  0  0  0  0  0  0  0  0  0
  152.1046  139.0214  156.9683 C   0  0  0  0  0  0  0  0  0  0  0  0
  152.4450  139.9115  158.4263 S   0  0  0  0  0  0  0  0  0  0  0  0
  151.8185  141.3605  157.6462 C   0  0  0  0  0  0  0  0  0  0  0  0
  151.7828  142.5918  158.2933 N   0  0  0  0  0  0  0  0  0  0  0  0
  151.9565  142.8189  159.7245 C   0  0  0  0  0  0  0  0  0  0  0  0
  152.1308  144.3203  159.9387 C   0  0  0  0  0  0  0  0  0  0  0  0
  151.3110  144.9022  158.8039 C   0  0  0  0  0  0  0  0  0  0  0  0
  151.5519  143.8962  157.6806 C   0  0  0  0  0  0  0  0  0  0  0  0
  151.3965  141.1501  156.3969 N   0  0  0  0  0  0  0  0  0  0  0  0
  149.5393  130.9128  152.9323 H   0  0  0  0  0  0  0  0  0  0  0  0
  150.0589  133.8023  156.0007 H   0  0  0  0  0  0  0  0  0  0  0  0
  151.6368  133.7814  155.2314 H   0  0  0  0  0  0  0  0  0  0  0  0
  149.9373  135.0690  153.4230 H   0  0  0  0  0  0  0  0  0  0  0  0
  149.6545  137.0436  153.1962 H   0  0  0  0  0  0  0  0  0  0  0  0
  149.2114  139.2379  153.7634 H   0  0  0  0  0  0  0  0  0  0  0  0
  149.3300  138.7707  155.4388 H   0  0  0  0  0  0  0  0  0  0  0  0
  151.9853  138.7632  154.1860 H   0  0  0  0  0  0  0  0  0  0  0  0
  151.2118  140.2991  153.9425 H   0  0  0  0  0  0  0  0  0  0  0  0
  152.3418  137.9697  156.9104 H   0  0  0  0  0  0  0  0  0  0  0  0
  151.0654  142.4606  160.2409 H   0  0  0  0  0  0  0  0  0  0  0  0
  152.8109  142.2622  160.1104 H   0  0  0  0  0  0  0  0  0  0  0  0
  151.7994  144.6514  160.9231 H   0  0  0  0  0  0  0  0  0  0  0  0
  153.1794  144.5960  159.8198 H   0  0  0  0  0  0  0  0  0  0  0  0
  150.2546  144.9124  159.0766 H   0  0  0  0  0  0  0  0  0  0  0  0
  151.6049  145.9178  158.5376 H   0  0  0  0  0  0  0  0  0  0  0  0
  152.4380  144.1700  157.1069 H   0  0  0  0  0  0  0  0  0  0  0  0
  150.7058  143.8647  156.9933 H   0  0  0  0  0  0  0  0  0  0  0  0
  1  2  3  0  0  0  0
  1 20  1  0  0  0  0
  2  3  1  0  0  0  0
  3  4  1  0  0  0  0
  3 21  1  0  0  0  0
  3 22  1  0  0  0  0
  4  5  1  0  0  0  0
  4 23  1  0  0  0  0
  5  6  2  0  0  0  0
  5  7  1  0  0  0  0
  7  8  1  0  0  0  0
  7 24  1  0  0  0  0
  8  9  1  0  0  0  0
  8 25  1  0  0  0  0
  8 26  1  0  0  0  0
  9 10  1  0  0  0  0
  9 27  1  0  0  0  0
  9 28  1  0  0  0  0
 10 19  1  0  0  0  0
 10 11  2  0  0  0  0
 11 12  1  0  0  0  0
 11 29  1  0  0  0  0
 12 13  1  0  0  0  0
 13 14  1  0  0  0  0
 13 19  2  0  0  0  0
 14 18  1  0  0  0  0
 14 15  1  0  0  0  0
 15 16  1  0  0  0  0
 15 30  1  0  0  0  0
 15 31  1  0  0  0  0
 16 17  1  0  0  0  0
 16 32  1  0  0  0  0
 16 33  1  0  0  0  0
 17 18  1  0  0  0  0
 17 34  1  0  0  0  0
 17 35  1  0  0  0  0
 18 36  1  0  0  0  0
 18 37  1  0  0  0  0
M  END
> <s_m_source_file>
AV-unprocessed.smi

> <i_m_source_file_index>
770

> <i_lp_mmshare_version>
43012

> <i_f3d_flags>
0

> <s_epik_input>
W0NIXSNDW0NIMl1bTkhdQyg9TylbTkhdW0NIMl1bQ0gyXWMxW2NIXXNjKG4xKU4yW0NIMl1bQ0gyXVtDSDJdW0NIMl0y

> <s_epik_cmdline>
J2VwaWtfcHl0aG9uJywgJy1waCcsICc3LjAnLCAnLXRuJywgJzgnLCAnLW1hJywgJzIwMCcsICctbWV0YWxfYmluZGluZycsICctaW1hZScsICc8aW5maWxlLm1hZT4nLCAnLW9tYWUnLCAnPG91dGZpbGUubWFlPic=

> <r_epik_Ionization_Penalty>
0.174338

> <r_epik_Ionization_Penalty_Charging>
0

> <r_epik_Ionization_Penalty_Neutral>
0.174338

> <r_epik_State_Penalty>
0.163676

> <r_epik_Charging_Adjusted_Penalty>
0.163676

> <i_epik_Tot_Q>
0

> <i_epik_Tot_abs_Q>
0

> <r_epik_Metal_State_Penalty>
0.126089

> <b_epik_Metal_Only>
0

> <s_lp_Force_Field>
OPLS_2005

> <r_lp_Energy>
12.0865

> <b_lp_Chiralities_Consistent>
1

> <s_lp_Variant>
AV-unprocessed.smi:770-1

> <Gold.Version>
5.8.1

> <Gold.Id.Protein>
6NUR|6NUR_protein|mol2

> <Gold.PLP.Fitness>
45.2486

> <Gold.PLP.PLP>
-40.8464

> <Gold.PLP.part.hbond>
-2.0852

> <Gold.PLP.part.metal>
0.0000

> <Gold.PLP.part.buried>
-1.9221

> <Gold.PLP.part.nonpolar>
-37.0602

> <Gold.PLP.part.repulsive>
0.1253

> <Gold.PLP.ligand.clash>
0.0000

> <Gold.PLP.ligand.torsion>
0.8373

> <Gold.PLP.Chemscore.Hbond>
2.0000

> <Gold.PLP.Chemscore.CHOScore>
0.0000

> <Gold.PLP.Chemscore.Metal>
0.0000

> <Gold.Chemscore.Hbonds>
donor molecule, donor type, donor heavy atom, donor atom, acceptor molecule, acceptor atom, score
      L1  H     4    23       P1  7948  0.07
      L1  H     7    24       P1  7948  1.00

> <Gold.PLP.Chemscore.Internal.Correction>
0.0768

> <Gold.Rescore>
     Score         DG    S(hbond)    S(metal)    S(lipo)     H(rot)  DE(clash)    DE(int)     intcor
     16.48     -17.68       1.67        0.00      94.28       1.73       0.29       0.91       ----

> <Gold.Chemscore.Fitness>
16.4793

> <Gold.Chemscore.DG>
-17.6779

> <Gold.Chemscore.ZeroCoef>
-5.4800

> <Gold.Chemscore.Hbond>
1.6728

> <Gold.Chemscore.Metal>
0.0000

> <Gold.Chemscore.Lipo>
94.2840

> <Gold.Chemscore.Internal_Hbond>
0.0000

> <Gold.Chemscore.DEClash>
0.2903

> <Gold.Chemscore.DEInternal>
0.9082

> <Gold.Chemscore.Rot>
1.7267

> <Gold.Chemscore.Internal.Correction>
   9.000000E+99

> <Gold.Chemscore.Hbonds>
donor molecule, donor type, donor heavy atom, donor atom, acceptor molecule, acceptor atom, score
      L1  H     7    24       P1  7948  0.60

> <Gold.Chemscore.Hbond.Weighted>
-5.5871

> <Gold.Chemscore.Metal.Weighted>
-0.0000

> <Gold.Chemscore.Lipo.Weighted>
-11.0312

> <Gold.Chemscore.Internal_Hbond.Weighted>
0.0000

> <Gold.Chemscore.DEClash.Weighted>
0.2903

> <Gold.Chemscore.DEInternal.Weighted>
0.9082

> <Gold.Chemscore.Rot.Weighted>
4.4204

> <Gold.Chemscore.Internal.Correction.Weighted>
   9.000000E+99

> <Gold.Protein.RotatedTorsions>
[ 6907 6896 6895 6894 ] final  118.58 input  -60.11 | X-H torsion
[ 7974 7965 7964 7962 ] final  128.05 input  175.53 | X-H torsion
[ 8008 7997 7996 7995 ] final   42.95 input   59.86 | X-H torsion
[ 10167 10162 10161 10158 ] final  -32.33 input  -65.29 | X-H torsion
[ 10718 10713 10712 10709 ] final   94.95 input   66.30 | X-H torsion
[ 10763 10752 10751 10750 ] final  155.22 input  -60.55 | X-H torsion
[ 11005 11000 10999 10996 ] final  -21.20 input  -57.11 | X-H torsion

> <Gold.Protein.ActiveResidues>
 VAL166  LYS551  ARG553  GLY616  TRP617  ASP618  TYR619  PRO620  LYS621  CYS622 
 ASP623  PHE694  ASN695  SER759  ASP760  ASP761  ALA762  ILE779  LEU786  VAL792 
 PHE793  MET794  SER795  GLU796  ALA797  LYS798  CYS799  TRP800  GLU811  SER814 

> <Gold.Protein.RotatedAtoms>
  152.4533  133.7673  159.6778 H   0  0  0  0  0  0  0  0  0  0  0  0  # atno 6907 bound_to 6896
  150.8451  133.7863  159.3052 H   0  0  0  0  0  0  0  0  0  0  0  0  # atno 6908 bound_to 6896
  151.5476  135.1070  159.9993 H   0  0  0  0  0  0  0  0  0  0  0  0  # atno 6909 bound_to 6896
  145.0438  139.3940  143.5088 H   0  0  0  0  0  0  0  0  0  0  0  0  # atno 7974 bound_to 7965
  155.2946  140.3381  155.4250 H   0  0  0  0  0  0  0  0  0  0  0  0  # atno 8008 bound_to 7997
  156.2030  140.1740  156.7899 H   0  0  0  0  0  0  0  0  0  0  0  0  # atno 8009 bound_to 7997
  154.5583  140.0692  156.8763 H   0  0  0  0  0  0  0  0  0  0  0  0  # atno 8010 bound_to 7997
  140.7223  143.3703  151.1791 H   0  0  0  0  0  0  0  0  0  0  0  0  # atno 10167 bound_to 10162
  157.6943  131.0529  150.4265 H   0  0  0  0  0  0  0  0  0  0  0  0  # atno 10718 bound_to 10713
  154.1648  135.2807  155.3098 H   0  0  0  0  0  0  0  0  0  0  0  0  # atno 10763 bound_to 10752
  154.6119  135.5496  153.7486 H   0  0  0  0  0  0  0  0  0  0  0  0  # atno 10764 bound_to 10752
  153.0182  135.6417  154.1789 H   0  0  0  0  0  0  0  0  0  0  0  0  # atno 10765 bound_to 10752
  140.8538  133.7837  155.9997 H   0  0  0  0  0  0  0  0  0  0  0  0  # atno 11005 bound_to 11000
  146.3512  140.0053  142.8672 LP  0  0  0  0  0  0  0  0  0  0  0  0  # atno 17320 bound_to 7965
  145.1614  140.9674  143.4375 LP  0  0  0  0  0  0  0  0  0  0  0  0  # atno 17321 bound_to 7965
  139.7273  143.9128  152.3007 LP  0  0  0  0  0  0  0  0  0  0  0  0  # atno 17342 bound_to 10162
  139.8905  144.6968  150.8775 LP  0  0  0  0  0  0  0  0  0  0  0  0  # atno 17343 bound_to 10162
  156.4635  130.4037  149.6561 LP  0  0  0  0  0  0  0  0  0  0  0  0  # atno 17370 bound_to 10713
  156.3667  130.7510  151.2488 LP  0  0  0  0  0  0  0  0  0  0  0  0  # atno 17371 bound_to 10713
  140.8760  134.2669  157.5168 LP  0  0  0  0  0  0  0  0  0  0  0  0  # atno 17394 bound_to 11000
  139.8705  134.9591  156.4321 LP  0  0  0  0  0  0  0  0  0  0  0  0  # atno 17395 bound_to 11000

$$$$
