AV-unprocessed.smi:113|AV-procd|sdf|1105|dock6
  -GOLD-   2262018223D 1   1.00000     0.00000
 Structure written by MMmdl.
 53 56  0  0  0  0  0  0  0  0  2 V2000
  146.4062  133.1992  152.4703 C   0  0  0  0  0  0  0  0  0  0  0  0
  147.5303  132.4521  153.1562 C   0  0  0  0  0  0  0  0  0  0  0  0
  148.4145  133.0819  154.0535 C   0  0  0  0  0  0  0  0  0  0  0  0
  149.4477  132.3337  154.6707 C   0  0  0  0  0  0  0  0  0  0  0  0
  150.4248  132.9917  155.6510 C   0  0  0  0  0  0  0  0  0  0  0  0
  150.0215  134.2665  156.2276 N   0  0  0  0  0  0  0  0  0  0  0  0
  149.5561  134.2692  157.5651 C   0  0  0  0  0  0  0  0  0  0  0  0
  149.4919  133.2309  158.2266 O   0  0  0  0  0  0  0  0  0  0  0  0
  149.1894  135.5853  158.0937 C   0  0  0  0  0  0  0  0  0  0  0  0
  148.6843  135.6672  159.5256 C   0  0  0  0  0  0  0  0  0  0  0  0
  149.3118  136.6832  157.3091 C   0  0  0  0  0  0  0  0  0  0  0  0
  149.7645  136.6518  156.0019 N   0  0  0  0  0  0  0  0  0  0  0  0
  149.9170  137.9453  155.2322 C   0  0  2  0  0  0  0  0  0  0  0  0
  151.3665  138.2476  154.8129 C   0  0  0  0  0  0  0  0  0  0  0  0
  151.5641  139.6964  155.2472 C   0  0  2  0  0  0  0  0  0  0  0  0
  152.4675  139.7693  156.3336 O   0  0  0  0  0  0  0  0  0  0  0  0
  150.1472  140.1729  155.6168 C   0  0  2  0  0  0  0  0  0  0  0  0
  150.0332  141.2753  156.6847 C   0  0  0  0  0  0  0  0  0  0  0  0
  150.5709  142.4875  156.2000 O   0  0  0  0  0  0  0  0  0  0  0  0
  149.4832  138.9924  156.0395 O   0  0  0  0  0  0  0  0  0  0  0  0
  150.1675  135.4244  155.4317 C   0  0  0  0  0  0  0  0  0  0  0  0
  150.6452  135.3722  154.2966 O   0  0  0  0  0  0  0  0  0  0  0  0
  149.5568  130.9504  154.3588 C   0  0  0  0  0  0  0  0  0  0  0  0
  150.5551  130.1248  154.9297 C   0  0  0  0  0  0  0  0  0  0  0  0
  150.6315  128.7585  154.5946 C   0  0  0  0  0  0  0  0  0  0  0  0
  149.7144  128.1977  153.6863 C   0  0  0  0  0  0  0  0  0  0  0  0
  148.7149  129.0036  153.1101 C   0  0  0  0  0  0  0  0  0  0  0  0
  148.6362  130.3704  153.4447 C   0  0  0  0  0  0  0  0  0  0  0  0
  147.6739  131.1379  152.8905 N   0  3  0  0  0  0  0  0  0  0  0  0
  146.5041  134.2754  152.6154 H   0  0  0  0  0  0  0  0  0  0  0  0
  145.4433  132.8864  152.8746 H   0  0  0  0  0  0  0  0  0  0  0  0
  146.4115  132.9998  151.3983 H   0  0  0  0  0  0  0  0  0  0  0  0
  148.2871  134.1342  154.2587 H   0  0  0  0  0  0  0  0  0  0  0  0
  150.6398  132.3137  156.4788 H   0  0  0  0  0  0  0  0  0  0  0  0
  151.3930  133.1452  155.1720 H   0  0  0  0  0  0  0  0  0  0  0  0
  148.4378  136.6902  159.8118 H   0  0  0  0  0  0  0  0  0  0  0  0
  149.4418  135.3006  160.2194 H   0  0  0  0  0  0  0  0  0  0  0  0
  147.7852  135.0618  159.6481 H   0  0  0  0  0  0  0  0  0  0  0  0
  149.0370  137.6388  157.7324 H   0  0  0  0  0  0  0  0  0  0  0  0
  149.2553  137.8718  154.3682 H   0  0  0  0  0  0  0  0  0  0  0  0
  152.0818  137.5623  155.2693 H   0  0  0  0  0  0  0  0  0  0  0  0
  151.4447  138.1400  153.7307 H   0  0  0  0  0  0  0  0  0  0  0  0
  151.9741  140.2997  154.4366 H   0  0  0  0  0  0  0  0  0  0  0  0
  152.0053  139.5338  157.1239 H   0  0  0  0  0  0  0  0  0  0  0  0
  149.6438  140.5053  154.7066 H   0  0  0  0  0  0  0  0  0  0  0  0
  148.9854  141.4423  156.9354 H   0  0  0  0  0  0  0  0  0  0  0  0
  150.5361  140.9911  157.6093 H   0  0  0  0  0  0  0  0  0  0  0  0
  149.8842  143.1366  156.1839 H   0  0  0  0  0  0  0  0  0  0  0  0
  151.2755  130.5188  155.6304 H   0  0  0  0  0  0  0  0  0  0  0  0
  151.3974  128.1386  155.0372 H   0  0  0  0  0  0  0  0  0  0  0  0
  149.7774  127.1494  153.4326 H   0  0  0  0  0  0  0  0  0  0  0  0
  148.0130  128.5675  152.4140 H   0  0  0  0  0  0  0  0  0  0  0  0
  147.0222  130.7019  152.2384 H   0  0  0  0  0  0  0  0  0  0  0  0
  1  2  1  0  0  0  0
  1 30  1  0  0  0  0
  1 31  1  0  0  0  0
  1 32  1  0  0  0  0
  2 29  1  0  0  0  0
  2  3  2  0  0  0  0
  3  4  1  0  0  0  0
  3 33  1  0  0  0  0
  4  5  1  0  0  0  0
  4 23  2  0  0  0  0
  5  6  1  0  0  0  0
  5 34  1  0  0  0  0
  5 35  1  0  0  0  0
  6 21  1  0  0  0  0
  6  7  1  0  0  0  0
  7  8  2  0  0  0  0
  7  9  1  0  0  0  0
  9 10  1  0  0  0  0
  9 11  2  0  0  0  0
 10 36  1  0  0  0  0
 10 37  1  0  0  0  0
 10 38  1  0  0  0  0
 11 12  1  0  0  0  0
 11 39  1  0  0  0  0
 12 13  1  0  0  0  0
 12 21  1  0  0  0  0
 13 20  1  0  0  0  0
 13 14  1  0  0  0  0
 13 40  1  0  0  0  0
 14 15  1  0  0  0  0
 14 41  1  0  0  0  0
 14 42  1  0  0  0  0
 15 16  1  0  0  0  0
 15 17  1  0  0  0  0
 15 43  1  0  0  0  0
 16 44  1  0  0  0  0
 17 18  1  0  0  0  0
 17 20  1  0  0  0  0
 17 45  1  0  0  0  0
 18 19  1  0  0  0  0
 18 46  1  0  0  0  0
 18 47  1  0  0  0  0
 19 48  1  0  0  0  0
 21 22  2  0  0  0  0
 23 28  1  0  0  0  0
 23 24  1  0  0  0  0
 24 25  2  0  0  0  0
 24 49  1  0  0  0  0
 25 26  1  0  0  0  0
 25 50  1  0  0  0  0
 26 27  2  0  0  0  0
 26 51  1  0  0  0  0
 27 28  1  0  0  0  0
 27 52  1  0  0  0  0
 28 29  2  0  0  0  0
 29 53  1  0  0  0  0
M  CHG  1  29   1
M  END
> <s_m_source_file>
AV-unprocessed.smi

> <i_m_source_file_index>
113

> <i_lp_mmshare_version>
43012

> <i_f3d_flags>
0

> <s_epik_input>
W2NIXTFbY0hdW2NIXVtjSF1jKGMxMiluYyhbQ0gzXSlbY0hdYzJbQ0gyXW4zYyg9TyljKFtDSDNdKVtjSF1uKGMzPU8pW0NAQEhdNFtDSDJdW0NAQEhdKFtPSF0pW0NASF0oTzQpW0NIMl1bT0hd

> <s_epik_cmdline>
J2VwaWtfcHl0aG9uJywgJy1waCcsICc3LjAnLCAnLXRuJywgJzgnLCAnLW1hJywgJzIwMCcsICctbWV0YWxfYmluZGluZycsICctaW1hZScsICc8aW5maWxlLm1hZT4nLCAnLW9tYWUnLCAnPG91dGZpbGUubWFlPic=

> <r_lp_tautomer_probability>
1

> <r_epik_Ionization_Penalty>
0.705471

> <r_epik_Ionization_Penalty_Charging>
0.70547

> <r_epik_Ionization_Penalty_Neutral>
1.19947e-07

> <r_epik_State_Penalty>
0.728574

> <r_epik_Charging_Adjusted_Penalty>
1.43404

> <i_epik_Tot_Q>
1

> <i_epik_Tot_abs_Q>
1

> <r_epik_Metal_State_Penalty>
4.61665

> <b_epik_Metal_Only>
0

> <s_epik_Chemistry_Notes>
This compound contains an acetal/aminal-like group ( X-CH(R)-Y where X, Y are N, S, or O) that may be acid/base labile, releasing an aldehyde.

> <s_lp_Force_Field>
OPLS_2005

> <r_lp_Energy>
39.3678

> <b_lp_Chiralities_Consistent>
1

> <s_lp_Variant>
AV-unprocessed.smi:113-15

> <Gold.Version>
5.8.1

> <Gold.Id.Protein>
6NUR|6NUR_protein|mol2

> <Gold.PLP.Fitness>
54.7081

> <Gold.PLP.PLP>
-44.4338

> <Gold.PLP.part.hbond>
-5.0000

> <Gold.PLP.part.metal>
0.0000

> <Gold.PLP.part.buried>
-2.6177

> <Gold.PLP.part.nonpolar>
-36.1028

> <Gold.PLP.part.repulsive>
0.1908

> <Gold.PLP.ligand.clash>
0.0000

> <Gold.PLP.ligand.torsion>
0.5198

> <Gold.PLP.Chemscore.Hbond>
3.7623

> <Gold.PLP.Chemscore.CHOScore>
0.0000

> <Gold.PLP.Chemscore.Metal>
0.0000

> <Gold.Chemscore.Hbonds>
donor molecule, donor type, donor heavy atom, donor atom, acceptor molecule, acceptor atom, score
      L1  H    19    48       P1  8028  1.00
      P1  H  6896  6907       L1     8  0.50
      P1  H  7997  8008       L1    16  1.00
      P1  H 10752 10765       L1    22  0.36

> <Gold.PLP.Chemscore.Internal.Correction>
0.0270

> <Gold.Rescore>
     Score         DG    S(hbond)    S(metal)    S(lipo)     H(rot)  DE(clash)    DE(int)     intcor
     16.64     -18.33       2.89        0.00      93.16       3.01       0.16       1.54       ----

> <Gold.Chemscore.Fitness>
16.6374

> <Gold.Chemscore.DG>
-18.3294

> <Gold.Chemscore.ZeroCoef>
-5.4800

> <Gold.Chemscore.Hbond>
2.8924

> <Gold.Chemscore.Metal>
0.0000

> <Gold.Chemscore.Lipo>
93.1587

> <Gold.Chemscore.Internal_Hbond>
0.0000

> <Gold.Chemscore.DEClash>
0.1568

> <Gold.Chemscore.DEInternal>
1.5351

> <Gold.Chemscore.Rot>
3.0120

> <Gold.Chemscore.Internal.Correction>
   9.000000E+99

> <Gold.Chemscore.Hbonds>
donor molecule, donor type, donor heavy atom, donor atom, acceptor molecule, acceptor atom, score
      L1  H    19    48       P1  8028  0.99
      P1  H  6896  6907       L1     8  0.02
      P1  H  7997  8008       L1    16  0.94
      P1  H 10752 10765       L1    22  0.27

> <Gold.Chemscore.Hbond.Weighted>
-9.6606

> <Gold.Chemscore.Metal.Weighted>
-0.0000

> <Gold.Chemscore.Lipo.Weighted>
-10.8996

> <Gold.Chemscore.Internal_Hbond.Weighted>
0.0000

> <Gold.Chemscore.DEClash.Weighted>
0.1568

> <Gold.Chemscore.DEInternal.Weighted>
1.5351

> <Gold.Chemscore.Rot.Weighted>
7.7108

> <Gold.Chemscore.Internal.Correction.Weighted>
   9.000000E+99

> <Gold.Protein.RotatedTorsions>
[ 6907 6896 6895 6894 ] final -115.64 input  -60.11 | X-H torsion
[ 7974 7965 7964 7962 ] final  151.76 input  175.53 | X-H torsion
[ 8008 7997 7996 7995 ] final  -53.41 input   59.86 | X-H torsion
[ 10167 10162 10161 10158 ] final  -75.47 input  -65.29 | X-H torsion
[ 10718 10713 10712 10709 ] final -121.62 input   66.30 | X-H torsion
[ 10763 10752 10751 10750 ] final  167.47 input  -60.55 | X-H torsion
[ 11005 11000 10999 10996 ] final  168.76 input  -57.11 | X-H torsion

> <Gold.Protein.ActiveResidues>
 VAL166  LYS551  ARG553  GLY616  TRP617  ASP618  TYR619  PRO620  LYS621  CYS622 
 ASP623  PHE694  ASN695  SER759  ASP760  ASP761  ALA762  ILE779  LEU786  VAL792 
 PHE793  MET794  SER795  GLU796  ALA797  LYS798  CYS799  TRP800  GLU811  SER814 

> <Gold.Protein.RotatedAtoms>
  150.7993  133.8630  159.3237 H   0  0  0  0  0  0  0  0  0  0  0  0  # atno 6907 bound_to 6896
  151.6447  135.1007  160.0158 H   0  0  0  0  0  0  0  0  0  0  0  0  # atno 6908 bound_to 6896
  152.4079  133.6877  159.6407 H   0  0  0  0  0  0  0  0  0  0  0  0  # atno 6909 bound_to 6896
  144.8270  139.6579  143.6075 H   0  0  0  0  0  0  0  0  0  0  0  0  # atno 7974 bound_to 7965
  154.4133  140.1200  156.5150 H   0  0  0  0  0  0  0  0  0  0  0  0  # atno 8008 bound_to 7997
  155.6760  140.3496  155.4817 H   0  0  0  0  0  0  0  0  0  0  0  0  # atno 8009 bound_to 7997
  155.9592  140.1119  157.0900 H   0  0  0  0  0  0  0  0  0  0  0  0  # atno 8010 bound_to 7997
  140.4940  143.2374  151.7861 H   0  0  0  0  0  0  0  0  0  0  0  0  # atno 10167 bound_to 10162
  156.1352  130.6425  150.9685 H   0  0  0  0  0  0  0  0  0  0  0  0  # atno 10718 bound_to 10713
  154.3543  135.2753  155.2355 H   0  0  0  0  0  0  0  0  0  0  0  0  # atno 10763 bound_to 10752
  154.4570  135.5916  153.6233 H   0  0  0  0  0  0  0  0  0  0  0  0  # atno 10764 bound_to 10752
  152.9847  135.6056  154.3757 H   0  0  0  0  0  0  0  0  0  0  0  0  # atno 10765 bound_to 10752
  140.2906  134.7676  157.3835 H   0  0  0  0  0  0  0  0  0  0  0  0  # atno 11005 bound_to 11000
  146.2575  139.6334  142.9385 LP  0  0  0  0  0  0  0  0  0  0  0  0  # atno 17320 bound_to 7965
  145.4979  141.0438  143.2557 LP  0  0  0  0  0  0  0  0  0  0  0  0  # atno 17321 bound_to 7965
  139.4857  144.4611  151.9539 LP  0  0  0  0  0  0  0  0  0  0  0  0  # atno 17342 bound_to 10162
  140.3698  144.2869  150.5921 LP  0  0  0  0  0  0  0  0  0  0  0  0  # atno 17343 bound_to 10162
  157.6526  131.0894  150.8018 LP  0  0  0  0  0  0  0  0  0  0  0  0  # atno 17370 bound_to 10713
  156.8099  130.4949  149.5357 LP  0  0  0  0  0  0  0  0  0  0  0  0  # atno 17371 bound_to 10713
  140.1199  134.5234  155.8193 LP  0  0  0  0  0  0  0  0  0  0  0  0  # atno 17394 bound_to 11000
  141.2147  133.6752  156.6846 LP  0  0  0  0  0  0  0  0  0  0  0  0  # atno 17395 bound_to 11000

$$$$
