AV-unprocessed.smi:867|AV-procd|sdf|3999|dock4
  -GOLD-   22720 1483D 1   1.00000     0.00000
 Structure written by MMmdl.
 54 57  0  0  0  0  0  0  0  0  3 V2000
  152.5238  139.8353  156.0663 O   0  0  0  0  0  0  0  0  0  0  0  0
  151.3465  139.4791  156.0021 C   0  0  0  0  0  0  0  0  0  0  0  0
  150.4625  139.7493  156.9777 N   0  0  0  0  0  0  0  0  0  0  0  0
  150.7621  140.4892  158.1981 C   0  0  0  0  0  0  0  0  0  0  0  0
  151.2844  141.9015  157.8889 C   0  0  0  0  0  0  0  0  0  0  0  0
  151.6469  142.6628  159.1491 C   0  0  0  0  0  0  0  0  0  0  0  0
  152.6158  142.1520  160.0410 C   0  0  0  0  0  0  0  0  0  0  0  0
  152.9324  142.8778  161.2082 C   0  0  0  0  0  0  0  0  0  0  0  0
  152.2717  144.0981  161.4579 C   0  0  0  0  0  0  0  0  0  0  0  0
  151.3487  144.5545  160.5828 N   0  3  0  0  0  0  0  0  0  0  0  0
  151.0181  143.8898  159.4536 C   0  0  0  0  0  0  0  0  0  0  0  0
  150.8568  138.7187  154.9921 N   0  0  0  0  0  0  0  0  0  0  0  0
  151.6076  137.7170  154.2262 C   0  0  0  0  0  0  0  0  0  0  0  0
  151.1837  136.3032  154.6727 C   0  0  0  0  0  0  0  0  0  0  0  0
  149.7073  136.0989  154.5825 N   0  3  0  0  0  0  0  0  0  0  0  0
  149.2361  134.7594  155.0530 C   0  0  1  0  0  0  0  0  0  0  0  0
  147.7364  134.5272  154.7251 C   0  0  0  0  0  0  0  0  0  0  0  0
  147.7315  133.1910  153.9646 C   0  0  2  0  0  0  0  0  0  0  0  0
  148.0738  132.0466  154.9325 C   0  0  0  0  0  0  0  0  0  0  0  0
  149.5744  132.2672  155.1891 C   0  0  0  0  0  0  0  0  0  0  0  0
  149.8878  133.5288  154.3592 C   0  0  1  0  0  0  0  0  0  0  0  0
  149.0038  133.3105  153.1366 C   0  0  0  0  0  0  0  0  0  0  0  0
  148.9521  137.2083  155.2362 C   0  0  0  0  0  0  0  0  0  0  0  0
  149.4208  138.5872  154.7446 C   0  0  0  0  0  0  0  0  0  0  0  0
  149.5214  139.3980  156.8762 H   0  0  0  0  0  0  0  0  0  0  0  0
  149.8491  140.5509  158.7912 H   0  0  0  0  0  0  0  0  0  0  0  0
  151.4855  139.9369  158.8009 H   0  0  0  0  0  0  0  0  0  0  0  0
  152.1638  141.8487  157.2452 H   0  0  0  0  0  0  0  0  0  0  0  0
  150.5323  142.4653  157.3348 H   0  0  0  0  0  0  0  0  0  0  0  0
  153.1107  141.2137  159.8351 H   0  0  0  0  0  0  0  0  0  0  0  0
  153.6709  142.5028  161.9018 H   0  0  0  0  0  0  0  0  0  0  0  0
  152.4515  144.7174  162.3247 H   0  0  0  0  0  0  0  0  0  0  0  0
  150.2651  144.3563  158.8347 H   0  0  0  0  0  0  0  0  0  0  0  0
  151.3924  137.8509  153.1648 H   0  0  0  0  0  0  0  0  0  0  0  0
  152.6893  137.8150  154.3175 H   0  0  0  0  0  0  0  0  0  0  0  0
  151.7100  135.5974  154.0339 H   0  0  0  0  0  0  0  0  0  0  0  0
  151.5118  136.1223  155.6975 H   0  0  0  0  0  0  0  0  0  0  0  0
  149.4087  134.7030  156.1293 H   0  0  0  0  0  0  0  0  0  0  0  0
  147.1151  134.4987  155.6210 H   0  0  0  0  0  0  0  0  0  0  0  0
  147.3367  135.3033  154.0708 H   0  0  0  0  0  0  0  0  0  0  0  0
  146.8213  133.0194  153.3888 H   0  0  0  0  0  0  0  0  0  0  0  0
  147.4826  132.0884  155.8482 H   0  0  0  0  0  0  0  0  0  0  0  0
  147.9022  131.0754  154.4659 H   0  0  0  0  0  0  0  0  0  0  0  0
  149.8028  132.3941  156.2479 H   0  0  0  0  0  0  0  0  0  0  0  0
  150.1500  131.4140  154.8272 H   0  0  0  0  0  0  0  0  0  0  0  0
  150.9525  133.5988  154.1486 H   0  0  0  0  0  0  0  0  0  0  0  0
  149.2462  132.4013  152.5832 H   0  0  0  0  0  0  0  0  0  0  0  0
  148.9978  134.1579  152.4488 H   0  0  0  0  0  0  0  0  0  0  0  0
  147.8836  137.1156  155.0459 H   0  0  0  0  0  0  0  0  0  0  0  0
  149.0814  137.1440  156.3181 H   0  0  0  0  0  0  0  0  0  0  0  0
  148.8400  139.3755  155.2266 H   0  0  0  0  0  0  0  0  0  0  0  0
  149.2268  138.6905  153.6759 H   0  0  0  0  0  0  0  0  0  0  0  0
  149.4851  136.1480  153.5985 H   0  0  0  0  0  0  0  0  0  0  0  0
  150.8815  145.4392  160.7834 H   0  0  0  0  0  0  0  0  0  0  0  0
  1  2  2  0  0  0  0
  2  3  1  0  0  0  0
  2 12  1  0  0  0  0
  3  4  1  0  0  0  0
  3 25  1  0  0  0  0
  4  5  1  0  0  0  0
  4 26  1  0  0  0  0
  4 27  1  0  0  0  0
  5  6  1  0  0  0  0
  5 28  1  0  0  0  0
  5 29  1  0  0  0  0
  6 11  1  0  0  0  0
  6  7  2  0  0  0  0
  7  8  1  0  0  0  0
  7 30  1  0  0  0  0
  8  9  2  0  0  0  0
  8 31  1  0  0  0  0
  9 10  1  0  0  0  0
  9 32  1  0  0  0  0
 10 11  2  0  0  0  0
 10 54  1  0  0  0  0
 11 33  1  0  0  0  0
 12 24  1  0  0  0  0
 12 13  1  0  0  0  0
 13 14  1  0  0  0  0
 13 34  1  0  0  0  0
 13 35  1  0  0  0  0
 14 15  1  0  0  0  0
 14 36  1  0  0  0  0
 14 37  1  0  0  0  0
 15 16  1  0  0  0  0
 15 23  1  0  0  0  0
 15 53  1  0  0  0  0
 16 21  1  0  0  0  0
 16 17  1  0  0  0  0
 16 38  1  0  0  0  0
 17 18  1  0  0  0  0
 17 39  1  0  0  0  0
 17 40  1  0  0  0  0
 18 22  1  0  0  0  0
 18 19  1  0  0  0  0
 18 41  1  0  0  0  0
 19 20  1  0  0  0  0
 19 42  1  0  0  0  0
 19 43  1  0  0  0  0
 20 21  1  0  0  0  0
 20 44  1  0  0  0  0
 20 45  1  0  0  0  0
 21 22  1  0  0  0  0
 21 46  1  0  0  0  0
 22 47  1  0  0  0  0
 22 48  1  0  0  0  0
 23 24  1  0  0  0  0
 23 49  1  0  0  0  0
 23 50  1  0  0  0  0
 24 51  1  0  0  0  0
 24 52  1  0  0  0  0
M  CHG  1  10   1
M  CHG  1  15   1
M  END
> <s_m_source_file>
AV-unprocessed.smi

> <i_m_source_file_index>
867

> <i_lp_mmshare_version>
43012

> <i_f3d_flags>
0

> <s_epik_input>
W0NIMl0xW0NIMl1bQ0BASF0oW0NIMl0yKVtDQEBIXShbQ0gyXVtDQEhdMTIpTihbQ0gyXVtDSDJdMylbQ0gyXVtDSDJdTjNDKD1PKVtOSF1bQ0gyXVtDSDJdYzRbY0hdW2NIXVtjSF1uW2NIXTQ=

> <s_epik_cmdline>
J2VwaWtfcHl0aG9uJywgJy1waCcsICc3LjAnLCAnLXRuJywgJzgnLCAnLW1hJywgJzIwMCcsICctbWV0YWxfYmluZGluZycsICctaW1hZScsICc8aW5maWxlLm1hZT4nLCAnLW9tYWUnLCAnPG91dGZpbGUubWFlPic=

> <r_epik_Ionization_Penalty>
2.25108

> <r_epik_Ionization_Penalty_Charging>
2.25105

> <r_epik_Ionization_Penalty_Neutral>
2.64641e-05

> <r_epik_State_Penalty>
2.39519

> <r_epik_Charging_Adjusted_Penalty>
4.64625

> <i_epik_Tot_Q>
2

> <i_epik_Tot_abs_Q>
2

> <r_epik_Metal_State_Penalty>
2.40865

> <b_epik_Metal_Only>
0

> <s_lp_Force_Field>
OPLS_2005

> <r_lp_Energy>
104.459

> <b_lp_Chiralities_Consistent>
1

> <s_lp_Variant>
AV-unprocessed.smi:867-6

> <Gold.Version>
5.8.1

> <Gold.Id.Protein>
6NUR|6NUR_protein|mol2

> <Gold.PLP.Fitness>
50.4856

> <Gold.PLP.PLP>
-42.9225

> <Gold.PLP.part.hbond>
-2.0000

> <Gold.PLP.part.metal>
0.0000

> <Gold.PLP.part.buried>
-2.9984

> <Gold.PLP.part.nonpolar>
-37.9677

> <Gold.PLP.part.repulsive>
0.1688

> <Gold.PLP.ligand.clash>
0.9276

> <Gold.PLP.ligand.torsion>
0.3210

> <Gold.PLP.Chemscore.Hbond>
3.0000

> <Gold.PLP.Chemscore.CHOScore>
0.0000

> <Gold.PLP.Chemscore.Metal>
0.0000

> <Gold.Chemscore.Hbonds>
donor molecule, donor type, donor heavy atom, donor atom, acceptor molecule, acceptor atom, score
      L1  H    15    53       P1  7948  2.00
      P1  H  7997  8010       L1     1  1.00

> <Gold.PLP.Chemscore.Internal.Correction>
0.1327

> <Gold.Rescore>
     Score         DG    S(hbond)    S(metal)    S(lipo)     H(rot)  DE(clash)    DE(int)     intcor
     20.93     -21.35       1.90        0.00     113.25       1.46       0.06       0.37       ----

> <Gold.Chemscore.Fitness>
20.9290

> <Gold.Chemscore.DG>
-21.3513

> <Gold.Chemscore.ZeroCoef>
-5.4800

> <Gold.Chemscore.Hbond>
1.9015

> <Gold.Chemscore.Metal>
0.0000

> <Gold.Chemscore.Lipo>
113.2537

> <Gold.Chemscore.Internal_Hbond>
0.0000

> <Gold.Chemscore.DEClash>
0.0552

> <Gold.Chemscore.DEInternal>
0.3670

> <Gold.Chemscore.Rot>
1.4572

> <Gold.Chemscore.Internal.Correction>
   9.000000E+99

> <Gold.Chemscore.Hbonds>
donor molecule, donor type, donor heavy atom, donor atom, acceptor molecule, acceptor atom, score
      L1  H    15    53       P1  7948  0.55
      P1  H  7997  8010       L1     1  1.00

> <Gold.Chemscore.Hbond.Weighted>
-6.3511

> <Gold.Chemscore.Metal.Weighted>
-0.0000

> <Gold.Chemscore.Lipo.Weighted>
-13.2507

> <Gold.Chemscore.Internal_Hbond.Weighted>
0.0000

> <Gold.Chemscore.DEClash.Weighted>
0.0552

> <Gold.Chemscore.DEInternal.Weighted>
0.3670

> <Gold.Chemscore.Rot.Weighted>
3.7305

> <Gold.Chemscore.Internal.Correction.Weighted>
   9.000000E+99

> <Gold.Protein.RotatedTorsions>
[ 6907 6896 6895 6894 ] final  -56.83 input  -60.11 | X-H torsion
[ 7974 7965 7964 7962 ] final  -47.74 input  175.53 | X-H torsion
[ 8008 7997 7996 7995 ] final   82.62 input   59.86 | X-H torsion
[ 10167 10162 10161 10158 ] final   55.82 input  -65.29 | X-H torsion
[ 10718 10713 10712 10709 ] final  -98.30 input   66.30 | X-H torsion
[ 10763 10752 10751 10750 ] final  -15.75 input  -60.55 | X-H torsion
[ 11005 11000 10999 10996 ] final  -43.70 input  -57.11 | X-H torsion

> <Gold.Protein.ActiveResidues>
 VAL166  LYS551  ARG553  GLY616  TRP617  ASP618  TYR619  PRO620  LYS621  CYS622 
 ASP623  PHE694  ASN695  SER759  ASP760  ASP761  ALA762  ILE779  LEU786  VAL792 
 PHE793  MET794  SER795  GLU796  ALA797  LYS798  CYS799  TRP800  GLU811  SER814 

> <Gold.Protein.RotatedAtoms>
  150.8135  134.7304  159.6708 H   0  0  0  0  0  0  0  0  0  0  0  0  # atno 6907 bound_to 6896
  152.4254  134.5874  159.9974 H   0  0  0  0  0  0  0  0  0  0  0  0  # atno 6908 bound_to 6896
  151.6077  133.3313  159.3097 H   0  0  0  0  0  0  0  0  0  0  0  0  # atno 6909 bound_to 6896
  145.9584  140.7503  142.9470 H   0  0  0  0  0  0  0  0  0  0  0  0  # atno 7974 bound_to 7965
  155.9130  140.3426  155.6113 H   0  0  0  0  0  0  0  0  0  0  0  0  # atno 8008 bound_to 7997
  155.7365  140.0802  157.2284 H   0  0  0  0  0  0  0  0  0  0  0  0  # atno 8009 bound_to 7997
  154.4058  140.1578  156.2555 H   0  0  0  0  0  0  0  0  0  0  0  0  # atno 8010 bound_to 7997
  140.2153  144.3846  150.6472 H   0  0  0  0  0  0  0  0  0  0  0  0  # atno 10167 bound_to 10162
  156.0104  130.5232  150.6502 H   0  0  0  0  0  0  0  0  0  0  0  0  # atno 10718 bound_to 10713
  153.5481  135.7012  153.5604 H   0  0  0  0  0  0  0  0  0  0  0  0  # atno 10763 bound_to 10752
  153.3540  135.3987  155.1668 H   0  0  0  0  0  0  0  0  0  0  0  0  # atno 10764 bound_to 10752
  154.8665  135.3772  154.4990 H   0  0  0  0  0  0  0  0  0  0  0  0  # atno 10765 bound_to 10752
  141.0401  133.6783  156.2770 H   0  0  0  0  0  0  0  0  0  0  0  0  # atno 11005 bound_to 11000
  144.6810  140.2550  143.7326 LP  0  0  0  0  0  0  0  0  0  0  0  0  # atno 17320 bound_to 7965
  145.8074  139.1989  143.2013 LP  0  0  0  0  0  0  0  0  0  0  0  0  # atno 17321 bound_to 7965
  140.6294  143.2185  151.6528 LP  0  0  0  0  0  0  0  0  0  0  0  0  # atno 17342 bound_to 10162
  139.5164  144.3347  152.0795 LP  0  0  0  0  0  0  0  0  0  0  0  0  # atno 17343 bound_to 10162
  157.4265  131.0843  151.1080 LP  0  0  0  0  0  0  0  0  0  0  0  0  # atno 17370 bound_to 10713
  157.1666  130.6249  149.5627 LP  0  0  0  0  0  0  0  0  0  0  0  0  # atno 17371 bound_to 10713
  140.6249  134.5323  157.5552 LP  0  0  0  0  0  0  0  0  0  0  0  0  # atno 17394 bound_to 11000
  139.9270  134.8037  156.1041 LP  0  0  0  0  0  0  0  0  0  0  0  0  # atno 17395 bound_to 11000

$$$$
