AV-unprocessed.smi:103|AV-procd|sdf|990|dock6
  -GOLD-   2262017563D 1   1.00000     0.00000
 Structure written by MMmdl.
 53 55  0  0  0  0  0  0  0  0  1 V2000
  147.3437  140.6946  153.8282 C   0  0  0  0  0  0  0  0  0  0  0  0
  148.2638  141.6809  154.5361 C   0  0  0  0  0  0  0  0  0  0  0  0
  148.6782  142.6898  153.9649 O   0  0  0  0  0  0  0  0  0  0  0  0
  148.5417  141.3113  155.7980 O   0  0  0  0  0  0  0  0  0  0  0  0
  149.7820  141.6661  156.3910 C   0  0  0  0  0  0  0  0  0  0  0  0
  149.7748  141.2538  157.8688 C   0  0  1  0  0  0  0  0  0  0  0  0
  149.1561  139.9689  157.9736 O   0  0  0  0  0  0  0  0  0  0  0  0
  149.9845  139.0692  158.6384 C   0  0  1  0  0  0  0  0  0  0  0  0
  149.8329  137.7176  158.0189 N   0  0  0  0  0  0  0  0  0  0  0  0
  149.0938  136.6319  158.4439 C   0  0  0  0  0  0  0  0  0  0  0  0
  148.0423  136.5615  159.8902 S   0  0  0  0  0  0  0  0  0  0  0  0
  147.5915  134.7798  159.9443 C   0  0  0  0  0  0  0  0  0  0  0  0
  148.8856  136.8854  161.0516 O   0  0  0  0  0  0  0  0  0  0  0  0
  146.8410  137.3571  159.5952 O   0  0  0  0  0  0  0  0  0  0  0  0
  149.0864  135.5864  157.6618 N   0  0  0  0  0  0  0  0  0  0  0  0
  149.9439  135.9560  156.6351 C   0  0  0  0  0  0  0  0  0  0  0  0
  150.4149  135.3115  155.4635 C   0  0  0  0  0  0  0  0  0  0  0  0
  150.0549  134.0677  155.1186 N   0  0  0  0  0  0  0  0  0  0  0  0
  151.2678  135.9820  154.6541 N   0  0  0  0  0  0  0  0  0  0  0  0
  151.6416  137.2245  154.9759 C   0  0  0  0  0  0  0  0  0  0  0  0
  151.2847  137.9553  156.0350 N   0  0  0  0  0  0  0  0  0  0  0  0
  150.4240  137.2795  156.8508 C   0  0  0  0  0  0  0  0  0  0  0  0
  151.4115  139.5802  158.4889 C   0  0  2  0  0  0  0  0  0  0  0  0
  152.2219  139.1424  159.5709 O   0  0  0  0  0  0  0  0  0  0  0  0
  152.3616  137.8323  159.8221 C   0  0  0  0  0  0  0  0  0  0  0  0
  153.1540  137.5693  161.0953 C   0  0  0  0  0  0  0  0  0  0  0  0
  151.9231  136.9111  159.1333 O   0  0  0  0  0  0  0  0  0  0  0  0
  151.2040  141.0922  158.4260 C   0  0  2  0  0  0  0  0  0  0  0  0
  151.4914  141.8191  159.6306 O   0  0  0  0  0  0  0  0  0  0  0  0
  151.8757  143.1161  159.6792 C   0  0  0  0  0  0  0  0  0  0  0  0
  152.0247  143.6127  161.1107 C   0  0  0  0  0  0  0  0  0  0  0  0
  152.0983  143.8578  158.7243 O   0  0  0  0  0  0  0  0  0  0  0  0
  147.8856  140.1767  153.0371 H   0  0  0  0  0  0  0  0  0  0  0  0
  146.4993  141.2199  153.3822 H   0  0  0  0  0  0  0  0  0  0  0  0
  146.9571  139.9510  154.5257 H   0  0  0  0  0  0  0  0  0  0  0  0
  150.6287  141.2033  155.8832 H   0  0  0  0  0  0  0  0  0  0  0  0
  149.9091  142.7454  156.3031 H   0  0  0  0  0  0  0  0  0  0  0  0
  149.2031  141.9847  158.4408 H   0  0  0  0  0  0  0  0  0  0  0  0
  149.6514  138.9661  159.6675 H   0  0  0  0  0  0  0  0  0  0  0  0
  146.9434  134.5961  160.8007 H   0  0  0  0  0  0  0  0  0  0  0  0
  148.4964  134.1797  160.0385 H   0  0  0  0  0  0  0  0  0  0  0  0
  147.0691  134.5049  159.0285 H   0  0  0  0  0  0  0  0  0  0  0  0
  149.4195  133.5471  155.7061 H   0  0  0  0  0  0  0  0  0  0  0  0
  150.4205  133.6530  154.2735 H   0  0  0  0  0  0  0  0  0  0  0  0
  152.3218  137.7030  154.2863 H   0  0  0  0  0  0  0  0  0  0  0  0
  151.7945  139.2264  157.5302 H   0  0  0  0  0  0  0  0  0  0  0  0
  152.5666  137.8501  161.9697 H   0  0  0  0  0  0  0  0  0  0  0  0
  154.0764  138.1503  161.0956 H   0  0  0  0  0  0  0  0  0  0  0  0
  153.4111  136.5130  161.1748 H   0  0  0  0  0  0  0  0  0  0  0  0
  151.9154  141.4896  157.7016 H   0  0  0  0  0  0  0  0  0  0  0  0
  152.7377  142.9937  161.6552 H   0  0  0  0  0  0  0  0  0  0  0  0
  151.0650  143.5726  161.6260 H   0  0  0  0  0  0  0  0  0  0  0  0
  152.3808  144.6430  161.1239 H   0  0  0  0  0  0  0  0  0  0  0  0
  1  2  1  0  0  0  0
  1 33  1  0  0  0  0
  1 34  1  0  0  0  0
  1 35  1  0  0  0  0
  2  3  2  0  0  0  0
  2  4  1  0  0  0  0
  4  5  1  0  0  0  0
  5  6  1  0  0  0  0
  5 36  1  0  0  0  0
  5 37  1  0  0  0  0
  6 28  1  0  0  0  0
  6  7  1  0  0  0  0
  6 38  1  0  0  0  0
  7  8  1  0  0  0  0
  8  9  1  0  0  0  0
  8 23  1  0  0  0  0
  8 39  1  0  0  0  0
  9 22  1  0  0  0  0
  9 10  1  0  0  0  0
 10 11  1  0  0  0  0
 10 15  2  0  0  0  0
 11 12  1  0  0  0  0
 11 13  2  0  0  0  0
 11 14  2  0  0  0  0
 12 40  1  0  0  0  0
 12 41  1  0  0  0  0
 12 42  1  0  0  0  0
 15 16  1  0  0  0  0
 16 22  2  0  0  0  0
 16 17  1  0  0  0  0
 17 18  1  0  0  0  0
 17 19  2  0  0  0  0
 18 43  1  0  0  0  0
 18 44  1  0  0  0  0
 19 20  1  0  0  0  0
 20 21  2  0  0  0  0
 20 45  1  0  0  0  0
 21 22  1  0  0  0  0
 23 24  1  0  0  0  0
 23 28  1  0  0  0  0
 23 46  1  0  0  0  0
 24 25  1  0  0  0  0
 25 26  1  0  0  0  0
 25 27  2  0  0  0  0
 26 47  1  0  0  0  0
 26 48  1  0  0  0  0
 26 49  1  0  0  0  0
 28 29  1  0  0  0  0
 28 50  1  0  0  0  0
 29 30  1  0  0  0  0
 30 31  1  0  0  0  0
 30 32  2  0  0  0  0
 31 51  1  0  0  0  0
 31 52  1  0  0  0  0
 31 53  1  0  0  0  0
M  END
> <s_m_source_file>
AV-unprocessed.smi

> <i_m_source_file_index>
103

> <i_lp_mmshare_version>
43012

> <i_f3d_flags>
0

> <s_epik_input>
W0NIM11DKD1PKU9bQ0gyXVtDQEBIXTFPW0NASF0oW0NAQEhdKE9DKD1PKVtDSDNdKVtDQEhdMU9DKD1PKVtDSDNdKW4oYyhuMilTKD1PKSg9TylbQ0gzXSljKGMyMyluW2NIXW5jM1tOSDJd

> <s_epik_cmdline>
J2VwaWtfcHl0aG9uJywgJy1waCcsICc3LjAnLCAnLXRuJywgJzgnLCAnLW1hJywgJzIwMCcsICctbWV0YWxfYmluZGluZycsICctaW1hZScsICc8aW5maWxlLm1hZT4nLCAnLW9tYWUnLCAnPG91dGZpbGUubWFlPic=

> <r_lp_tautomer_probability>
1

> <r_epik_Ionization_Penalty>
1.51338e-05

> <r_epik_Ionization_Penalty_Charging>
0

> <r_epik_Ionization_Penalty_Neutral>
1.51338e-05

> <r_epik_State_Penalty>
-0

> <r_epik_Charging_Adjusted_Penalty>
0

> <i_epik_Tot_Q>
0

> <i_epik_Tot_abs_Q>
0

> <r_epik_Metal_State_Penalty>
-0

> <b_epik_Metal_Only>
0

> <s_epik_Chemistry_Notes>
This compound has an ester and may undergo hydrolysis at high or low pH. This compound contains an acetal/aminal-like group ( X-CH(R)-Y where X, Y are N, S, or O) that may be acid/base labile, releasing an aldehyde.

> <s_lp_Force_Field>
OPLS_2005

> <r_lp_Energy>
20.3067

> <b_lp_Chiralities_Consistent>
1

> <s_lp_Variant>
AV-unprocessed.smi:103-14

> <Gold.Version>
5.8.1

> <Gold.Id.Protein>
6NUR|6NUR_protein|mol2

> <Gold.PLP.Fitness>
44.7000

> <Gold.PLP.PLP>
-35.8255

> <Gold.PLP.part.hbond>
-5.8491

> <Gold.PLP.part.metal>
0.0000

> <Gold.PLP.part.buried>
-4.7655

> <Gold.PLP.part.nonpolar>
-29.4074

> <Gold.PLP.part.repulsive>
5.1908

> <Gold.PLP.ligand.clash>
0.0000

> <Gold.PLP.ligand.torsion>
2.7495

> <Gold.PLP.Chemscore.Hbond>
4.0380

> <Gold.PLP.Chemscore.CHOScore>
0.0000

> <Gold.PLP.Chemscore.Metal>
0.0000

> <Gold.Chemscore.Hbonds>
donor molecule, donor type, donor heavy atom, donor atom, acceptor molecule, acceptor atom, score
      P1  H  6896  6907       L1    27  1.00
      P1  H  6931  6943       L1    13  1.00
      P1  H  6934  6947       L1    14  0.71
      P1  H  8011  8017       L1     3  0.03
      P1  H  8022  8030       L1     3  0.83
      P1  H 10752 10763       L1    19  0.40

> <Gold.PLP.Chemscore.Internal.Correction>
2.2596

> <Gold.Rescore>
     Score         DG    S(hbond)    S(metal)    S(lipo)     H(rot)  DE(clash)    DE(int)     intcor
      2.41      -9.44       2.68        0.00      50.29       4.25       2.23       4.79       ----

> <Gold.Chemscore.Fitness>
2.4120

> <Gold.Chemscore.DG>
-9.4361

> <Gold.Chemscore.ZeroCoef>
-5.4800

> <Gold.Chemscore.Hbond>
2.6770

> <Gold.Chemscore.Metal>
0.0000

> <Gold.Chemscore.Lipo>
50.2880

> <Gold.Chemscore.Internal_Hbond>
0.0000

> <Gold.Chemscore.DEClash>
2.2310

> <Gold.Chemscore.DEInternal>
4.7931

> <Gold.Chemscore.Rot>
4.2456

> <Gold.Chemscore.Internal.Correction>
   9.000000E+99

> <Gold.Chemscore.Hbonds>
donor molecule, donor type, donor heavy atom, donor atom, acceptor molecule, acceptor atom, score
      P1  H  6896  6907       L1    27  0.91
      P1  H  6931  6943       L1    13  0.94
      P1  H  6934  6947       L1    14  0.17
      P1  H  8011  8017       L1     3  0.07
      P1  H  8022  8030       L1     3  0.79
      P1  H 10752 10763       L1    19  0.01

> <Gold.Chemscore.Hbond.Weighted>
-8.9411

> <Gold.Chemscore.Metal.Weighted>
-0.0000

> <Gold.Chemscore.Lipo.Weighted>
-5.8837

> <Gold.Chemscore.Internal_Hbond.Weighted>
0.0000

> <Gold.Chemscore.DEClash.Weighted>
2.2310

> <Gold.Chemscore.DEInternal.Weighted>
4.7931

> <Gold.Chemscore.Rot.Weighted>
10.8687

> <Gold.Chemscore.Internal.Correction.Weighted>
   9.000000E+99

> <Gold.Protein.RotatedTorsions>
[ 6907 6896 6895 6894 ] final   -0.93 input  -60.11 | X-H torsion
[ 7974 7965 7964 7962 ] final  -84.63 input  175.53 | X-H torsion
[ 8008 7997 7996 7995 ] final  -54.56 input   59.86 | X-H torsion
[ 10167 10162 10161 10158 ] final  -74.44 input  -65.29 | X-H torsion
[ 10718 10713 10712 10709 ] final -131.49 input   66.30 | X-H torsion
[ 10763 10752 10751 10750 ] final   64.53 input  -60.55 | X-H torsion
[ 11005 11000 10999 10996 ] final -155.56 input  -57.11 | X-H torsion

> <Gold.Protein.ActiveResidues>
 VAL166  LYS551  ARG553  GLY616  TRP617  ASP618  TYR619  PRO620  LYS621  CYS622 
 ASP623  PHE694  ASN695  SER759  ASP760  ASP761  ALA762  ILE779  LEU786  VAL792 
 PHE793  MET794  SER795  GLU796  ALA797  LYS798  CYS799  TRP800  GLU811  SER814 

> <Gold.Protein.RotatedAtoms>
  151.5543  135.1067  159.9957 H   0  0  0  0  0  0  0  0  0  0  0  0  # atno 6907 bound_to 6896
  152.4476  133.7563  159.6732 H   0  0  0  0  0  0  0  0  0  0  0  0  # atno 6908 bound_to 6896
  150.8396  133.7890  159.3090 H   0  0  0  0  0  0  0  0  0  0  0  0  # atno 6909 bound_to 6896
  145.5041  140.9545  143.1744 H   0  0  0  0  0  0  0  0  0  0  0  0  # atno 7974 bound_to 7965
  154.4167  140.1173  156.5336 H   0  0  0  0  0  0  0  0  0  0  0  0  # atno 8008 bound_to 7997
  155.6580  140.3496  155.4753 H   0  0  0  0  0  0  0  0  0  0  0  0  # atno 8009 bound_to 7997
  155.9737  140.1146  157.0779 H   0  0  0  0  0  0  0  0  0  0  0  0  # atno 8010 bound_to 7997
  140.5026  143.2358  151.7726 H   0  0  0  0  0  0  0  0  0  0  0  0  # atno 10167 bound_to 10162
  156.2250  130.7002  151.0797 H   0  0  0  0  0  0  0  0  0  0  0  0  # atno 10718 bound_to 10713
  153.0059  135.5389  154.6525 H   0  0  0  0  0  0  0  0  0  0  0  0  # atno 10763 bound_to 10752
  154.5754  135.2845  155.0788 H   0  0  0  0  0  0  0  0  0  0  0  0  # atno 10764 bound_to 10752
  154.1938  135.6495  153.5120 H   0  0  0  0  0  0  0  0  0  0  0  0  # atno 10765 bound_to 10752
  140.6851  134.4102  157.5224 H   0  0  0  0  0  0  0  0  0  0  0  0  # atno 11005 bound_to 11000
  144.7764  139.6621  143.7173 LP  0  0  0  0  0  0  0  0  0  0  0  0  # atno 17320 bound_to 7965
  146.2208  139.5632  142.9620 LP  0  0  0  0  0  0  0  0  0  0  0  0  # atno 17321 bound_to 7965
  139.4876  144.4501  151.9664 LP  0  0  0  0  0  0  0  0  0  0  0  0  # atno 17342 bound_to 10162
  140.3590  144.2996  150.5936 LP  0  0  0  0  0  0  0  0  0  0  0  0  # atno 17343 bound_to 10162
  157.7106  131.0736  150.6514 LP  0  0  0  0  0  0  0  0  0  0  0  0  # atno 17370 bound_to 10713
  156.6579  130.4504  149.5697 LP  0  0  0  0  0  0  0  0  0  0  0  0  # atno 17371 bound_to 10713
  139.8940  134.8717  156.2197 LP  0  0  0  0  0  0  0  0  0  0  0  0  # atno 17394 bound_to 11000
  141.0286  133.7001  156.1391 LP  0  0  0  0  0  0  0  0  0  0  0  0  # atno 17395 bound_to 11000

$$$$
