AV-unprocessed.smi:2089|AV-procd|sdf|8529|dock7
  -GOLD-   2272011253D 1   1.00000     0.00000
 Structure written by MMmdl.
 39 40  0  0  0  0  0  0  0  0  1 V2000
  156.6983  135.3803  160.3552 C   0  0  0  0  0  0  0  0  0  0  0  0
  155.3640  134.1773  160.7491 S   0  0  0  0  0  0  0  0  0  0  0  0
  154.4697  134.0485  159.5884 O   0  0  0  0  0  0  0  0  0  0  0  0
  155.9865  132.9780  161.3305 O   0  0  0  0  0  0  0  0  0  0  0  0
  154.4820  134.9777  162.0073 N   0  0  0  0  0  0  0  0  0  0  0  0
  154.2407  134.2476  163.2596 C   0  0  0  0  0  0  0  0  0  0  0  0
  154.8320  135.1182  164.3634 C   0  0  0  0  0  0  0  0  0  0  0  0
  154.6292  136.5281  163.8312 C   0  0  0  0  0  0  0  0  0  0  0  0
  154.8385  136.3743  162.3152 C   0  0  2  0  0  0  0  0  0  0  0  0
  154.0508  137.4024  161.4935 C   0  0  0  0  0  0  0  0  0  0  0  0
  153.1320  137.0406  160.7576 O   0  0  0  0  0  0  0  0  0  0  0  0
  154.4352  138.6814  161.6104 N   0  0  0  0  0  0  0  0  0  0  0  0
  153.8284  139.7905  160.8886 C   0  0  0  0  0  0  0  0  0  0  0  0
  154.0021  141.1042  161.6629 C   0  0  0  0  0  0  0  0  0  0  0  0
  153.2193  142.2434  161.0379 C   0  0  0  0  0  0  0  0  0  0  0  0
  152.3611  143.0438  161.8216 C   0  0  0  0  0  0  0  0  0  0  0  0
  151.6680  144.0973  161.1944 C   0  0  0  0  0  0  0  0  0  0  0  0
  151.8597  144.3094  159.8155 C   0  0  0  0  0  0  0  0  0  0  0  0
  152.7389  143.4541  159.1219 C   0  0  0  0  0  0  0  0  0  0  0  0
  153.4078  142.4409  159.7136 N   0  0  0  0  0  0  0  0  0  0  0  0
  157.3498  134.9588  159.5899 H   0  0  0  0  0  0  0  0  0  0  0  0
  157.2806  135.5843  161.2535 H   0  0  0  0  0  0  0  0  0  0  0  0
  156.2634  136.3084  159.9855 H   0  0  0  0  0  0  0  0  0  0  0  0
  153.1646  134.1342  163.3945 H   0  0  0  0  0  0  0  0  0  0  0  0
  154.6866  133.2529  163.2437 H   0  0  0  0  0  0  0  0  0  0  0  0
  154.3569  134.9565  165.3313 H   0  0  0  0  0  0  0  0  0  0  0  0
  155.8975  134.9103  164.4693 H   0  0  0  0  0  0  0  0  0  0  0  0
  153.6191  136.8648  164.0699 H   0  0  0  0  0  0  0  0  0  0  0  0
  155.3288  137.2361  164.2767 H   0  0  0  0  0  0  0  0  0  0  0  0
  155.9051  136.4952  162.1148 H   0  0  0  0  0  0  0  0  0  0  0  0
  155.2085  138.8962  162.2232 H   0  0  0  0  0  0  0  0  0  0  0  0
  154.2908  139.8731  159.9036 H   0  0  0  0  0  0  0  0  0  0  0  0
  152.7679  139.5854  160.7323 H   0  0  0  0  0  0  0  0  0  0  0  0
  153.6755  140.9763  162.6960 H   0  0  0  0  0  0  0  0  0  0  0  0
  155.0579  141.3753  161.7061 H   0  0  0  0  0  0  0  0  0  0  0  0
  152.2384  142.8588  162.8787 H   0  0  0  0  0  0  0  0  0  0  0  0
  151.0029  144.7321  161.7607 H   0  0  0  0  0  0  0  0  0  0  0  0
  151.3465  145.1086  159.3017 H   0  0  0  0  0  0  0  0  0  0  0  0
  152.9103  143.5879  158.0640 H   0  0  0  0  0  0  0  0  0  0  0  0
  1  2  1  0  0  0  0
  1 21  1  0  0  0  0
  1 22  1  0  0  0  0
  1 23  1  0  0  0  0
  2  3  2  0  0  0  0
  2  4  2  0  0  0  0
  2  5  1  0  0  0  0
  5  9  1  0  0  0  0
  5  6  1  0  0  0  0
  6  7  1  0  0  0  0
  6 24  1  0  0  0  0
  6 25  1  0  0  0  0
  7  8  1  0  0  0  0
  7 26  1  0  0  0  0
  7 27  1  0  0  0  0
  8  9  1  0  0  0  0
  8 28  1  0  0  0  0
  8 29  1  0  0  0  0
  9 10  1  0  0  0  0
  9 30  1  0  0  0  0
 10 11  2  0  0  0  0
 10 12  1  0  0  0  0
 12 13  1  0  0  0  0
 12 31  1  0  0  0  0
 13 14  1  0  0  0  0
 13 32  1  0  0  0  0
 13 33  1  0  0  0  0
 14 15  1  0  0  0  0
 14 34  1  0  0  0  0
 14 35  1  0  0  0  0
 15 20  1  0  0  0  0
 15 16  2  0  0  0  0
 16 17  1  0  0  0  0
 16 36  1  0  0  0  0
 17 18  2  0  0  0  0
 17 37  1  0  0  0  0
 18 19  1  0  0  0  0
 18 38  1  0  0  0  0
 19 20  2  0  0  0  0
 19 39  1  0  0  0  0
M  END
> <s_m_source_file>
AV-unprocessed.smi

> <i_m_source_file_index>
2089

> <i_lp_mmshare_version>
43012

> <i_f3d_flags>
0

> <s_epik_input>
W0NIM11TKD1PKSg9TylOMVtDSDJdW0NIMl1bQ0gyXVtDQEhdMUMoPU8pW05IXVtDSDJdW0NIMl1jMltjSF1bY0hdW2NIXVtjSF1uMg==

> <s_epik_cmdline>
J2VwaWtfcHl0aG9uJywgJy1waCcsICc3LjAnLCAnLXRuJywgJzgnLCAnLW1hJywgJzIwMCcsICctbWV0YWxfYmluZGluZycsICctaW1hZScsICc8aW5maWxlLm1hZT4nLCAnLW9tYWUnLCAnPG91dGZpbGUubWFlPic=

> <r_epik_Ionization_Penalty>
0.0244371

> <r_epik_Ionization_Penalty_Charging>
0

> <r_epik_Ionization_Penalty_Neutral>
0.0244371

> <r_epik_State_Penalty>
0.0198365

> <r_epik_Charging_Adjusted_Penalty>
0.0198365

> <i_epik_Tot_Q>
0

> <i_epik_Tot_abs_Q>
0

> <r_epik_Metal_State_Penalty>
0.0190441

> <b_epik_Metal_Only>
0

> <s_lp_Force_Field>
OPLS_2005

> <r_lp_Energy>
5.6995

> <b_lp_Chiralities_Consistent>
1

> <s_lp_Variant>
AV-unprocessed.smi:2089-2

> <Gold.Version>
5.8.1

> <Gold.Id.Protein>
6NUR|6NUR_protein|mol2

> <Gold.PLP.Fitness>
41.9543

> <Gold.PLP.PLP>
-39.6737

> <Gold.PLP.part.hbond>
-1.0000

> <Gold.PLP.part.metal>
0.0000

> <Gold.PLP.part.buried>
-5.1329

> <Gold.PLP.part.nonpolar>
-33.3570

> <Gold.PLP.part.repulsive>
0.0000

> <Gold.PLP.ligand.clash>
0.0000

> <Gold.PLP.ligand.torsion>
0.5759

> <Gold.PLP.Chemscore.Hbond>
1.0000

> <Gold.PLP.Chemscore.CHOScore>
0.0000

> <Gold.PLP.Chemscore.Metal>
0.0000

> <Gold.Chemscore.Hbonds>
donor molecule, donor type, donor heavy atom, donor atom, acceptor molecule, acceptor atom, score
      P1  H  6896  6909       L1     3  1.00

> <Gold.PLP.Chemscore.Internal.Correction>
0.4324

> <Gold.Rescore>
     Score         DG    S(hbond)    S(metal)    S(lipo)     H(rot)  DE(clash)    DE(int)     intcor
     16.47     -17.07       1.00        0.00     112.16       1.90       0.13       0.47       ----

> <Gold.Chemscore.Fitness>
16.4730

> <Gold.Chemscore.DG>
-17.0683

> <Gold.Chemscore.ZeroCoef>
-5.4800

> <Gold.Chemscore.Hbond>
0.9960

> <Gold.Chemscore.Metal>
0.0000

> <Gold.Chemscore.Lipo>
112.1619

> <Gold.Chemscore.Internal_Hbond>
0.0000

> <Gold.Chemscore.DEClash>
0.1301

> <Gold.Chemscore.DEInternal>
0.4652

> <Gold.Chemscore.Rot>
1.8990

> <Gold.Chemscore.Internal.Correction>
   9.000000E+99

> <Gold.Chemscore.Hbonds>
donor molecule, donor type, donor heavy atom, donor atom, acceptor molecule, acceptor atom, score
      P1  H  6896  6909       L1     3  0.97

> <Gold.Chemscore.Hbond.Weighted>
-3.3267

> <Gold.Chemscore.Metal.Weighted>
-0.0000

> <Gold.Chemscore.Lipo.Weighted>
-13.1229

> <Gold.Chemscore.Internal_Hbond.Weighted>
0.0000

> <Gold.Chemscore.DEClash.Weighted>
0.1301

> <Gold.Chemscore.DEInternal.Weighted>
0.4652

> <Gold.Chemscore.Rot.Weighted>
4.8613

> <Gold.Chemscore.Internal.Correction.Weighted>
   9.000000E+99

> <Gold.Protein.RotatedTorsions>
[ 6907 6896 6895 6894 ] final -150.46 input  -60.11 | X-H torsion
[ 7974 7965 7964 7962 ] final  102.63 input  175.53 | X-H torsion
[ 8008 7997 7996 7995 ] final -130.93 input   59.86 | X-H torsion
[ 10167 10162 10161 10158 ] final  118.10 input  -65.29 | X-H torsion
[ 10718 10713 10712 10709 ] final -110.73 input   66.30 | X-H torsion
[ 10763 10752 10751 10750 ] final   92.84 input  -60.55 | X-H torsion
[ 11005 11000 10999 10996 ] final   20.28 input  -57.11 | X-H torsion

> <Gold.Protein.ActiveResidues>
 VAL166  LYS551  ARG553  GLY616  TRP617  ASP618  TYR619  PRO620  LYS621  CYS622 
 ASP623  PHE694  ASN695  SER759  ASP760  ASP761  ALA762  ILE779  LEU786  VAL792 
 PHE793  MET794  SER795  GLU796  ALA797  LYS798  CYS799  TRP800  GLU811  SER814 

> <Gold.Protein.RotatedAtoms>
  151.1989  133.4623  159.2595 H   0  0  0  0  0  0  0  0  0  0  0  0  # atno 6907 bound_to 6896
  151.1089  135.0015  159.8494 H   0  0  0  0  0  0  0  0  0  0  0  0  # atno 6908 bound_to 6896
  152.5449  134.1910  159.8727 H   0  0  0  0  0  0  0  0  0  0  0  0  # atno 6909 bound_to 6896
  145.3566  139.2427  143.3529 H   0  0  0  0  0  0  0  0  0  0  0  0  # atno 7974 bound_to 7965
  155.3039  140.0454  157.3031 H   0  0  0  0  0  0  0  0  0  0  0  0  # atno 8008 bound_to 7997
  154.5471  140.2306  155.8512 H   0  0  0  0  0  0  0  0  0  0  0  0  # atno 8009 bound_to 7997
  156.1934  140.3045  155.9384 H   0  0  0  0  0  0  0  0  0  0  0  0  # atno 8010 bound_to 7997
  139.6134  144.7087  151.2793 H   0  0  0  0  0  0  0  0  0  0  0  0  # atno 10167 bound_to 10162
  156.0607  130.5830  150.8277 H   0  0  0  0  0  0  0  0  0  0  0  0  # atno 10718 bound_to 10713
  153.2236  135.4347  155.0517 H   0  0  0  0  0  0  0  0  0  0  0  0  # atno 10763 bound_to 10752
  154.8262  135.3362  154.6891 H   0  0  0  0  0  0  0  0  0  0  0  0  # atno 10764 bound_to 10752
  153.7321  135.7010  153.5043 H   0  0  0  0  0  0  0  0  0  0  0  0  # atno 10765 bound_to 10752
  140.4043  134.1685  155.7665 H   0  0  0  0  0  0  0  0  0  0  0  0  # atno 11005 bound_to 11000
  146.2945  140.4192  142.8727 LP  0  0  0  0  0  0  0  0  0  0  0  0  # atno 17320 bound_to 7965
  144.8678  140.7230  143.6066 LP  0  0  0  0  0  0  0  0  0  0  0  0  # atno 17321 bound_to 7965
  140.7334  143.6794  150.8014 LP  0  0  0  0  0  0  0  0  0  0  0  0  # atno 17342 bound_to 10162
  140.0393  143.5363  152.2725 LP  0  0  0  0  0  0  0  0  0  0  0  0  # atno 17343 bound_to 10162
  157.5613  131.0946  150.9555 LP  0  0  0  0  0  0  0  0  0  0  0  0  # atno 17370 bound_to 10713
  156.9792  130.5520  149.5295 LP  0  0  0  0  0  0  0  0  0  0  0  0  # atno 17371 bound_to 10713
  141.1845  133.8343  157.1138 LP  0  0  0  0  0  0  0  0  0  0  0  0  # atno 17394 bound_to 11000
  140.0313  134.9899  157.0786 LP  0  0  0  0  0  0  0  0  0  0  0  0  # atno 17395 bound_to 11000

$$$$
