AV-unprocessed.smi:392|AV-procd|sdf|2483|dock3
  -GOLD-   2262022423D 1   1.00000     0.00000
 Structure written by MMmdl.
 33 35  0  0  0  0  0  0  0  0  2 V2000
  149.5558  140.4713  157.5905 O   0  0  0  0  0  0  0  0  0  0  0  0
  150.9612  140.4898  157.4479 C   0  0  1  0  0  0  0  0  0  0  0  0
  151.2871  140.6575  155.9501 C   0  0  0  0  0  0  0  0  0  0  0  0
  150.4120  139.8528  155.0880 N   0  0  0  0  0  0  0  0  0  0  0  0
  150.5405  138.5643  154.6697 C   0  0  0  0  0  0  0  0  0  0  0  0
  149.4557  138.2723  153.8996 N   0  3  0  0  0  0  0  0  0  0  0  0
  148.6236  139.3913  153.8227 C   0  0  0  0  0  0  0  0  0  0  0  0
  147.4128  139.5847  153.1648 C   0  0  0  0  0  0  0  0  0  0  0  0
  146.8187  140.8575  153.2941 C   0  0  0  0  0  0  0  0  0  0  0  0
  147.4272  141.8793  154.0520 C   0  0  0  0  0  0  0  0  0  0  0  0
  148.6555  141.6727  154.7138 C   0  0  0  0  0  0  0  0  0  0  0  0
  149.2344  140.4115  154.5821 C   0  0  0  0  0  0  0  0  0  0  0  0
  151.6183  141.5679  158.3027 C   0  0  0  0  0  0  0  0  0  0  0  0
  151.3708  142.9342  158.0417 C   0  0  0  0  0  0  0  0  0  0  0  0
  151.9927  143.9318  158.8170 C   0  0  0  0  0  0  0  0  0  0  0  0
  152.8691  143.5704  159.8573 C   0  0  0  0  0  0  0  0  0  0  0  0
  153.1242  142.2112  160.1204 C   0  0  0  0  0  0  0  0  0  0  0  0
  152.5034  141.2115  159.3461 C   0  0  0  0  0  0  0  0  0  0  0  0
  152.7732  139.9087  159.6034 F   0  0  0  0  0  0  0  0  0  0  0  0
  149.1939  139.9105  156.9211 H   0  0  0  0  0  0  0  0  0  0  0  0
  151.3072  139.5121  157.7834 H   0  0  0  0  0  0  0  0  0  0  0  0
  151.1970  141.7006  155.6435 H   0  0  0  0  0  0  0  0  0  0  0  0
  152.3170  140.3612  155.7454 H   0  0  0  0  0  0  0  0  0  0  0  0
  151.3508  137.8921  154.9138 H   0  0  0  0  0  0  0  0  0  0  0  0
  146.9441  138.8040  152.5837 H   0  0  0  0  0  0  0  0  0  0  0  0
  145.8770  141.0541  152.8022 H   0  0  0  0  0  0  0  0  0  0  0  0
  146.9415  142.8414  154.1286 H   0  0  0  0  0  0  0  0  0  0  0  0
  149.1142  142.4603  155.2934 H   0  0  0  0  0  0  0  0  0  0  0  0
  150.7059  143.2236  157.2409 H   0  0  0  0  0  0  0  0  0  0  0  0
  151.7986  144.9743  158.6119 H   0  0  0  0  0  0  0  0  0  0  0  0
  153.3475  144.3349  160.4517 H   0  0  0  0  0  0  0  0  0  0  0  0
  153.8008  141.9348  160.9156 H   0  0  0  0  0  0  0  0  0  0  0  0
  149.2965  137.3738  153.4621 H   0  0  0  0  0  0  0  0  0  0  0  0
  1  2  1  0  0  0  0
  1 20  1  0  0  0  0
  2  3  1  0  0  0  0
  2 13  1  0  0  0  0
  2 21  1  0  0  0  0
  3  4  1  0  0  0  0
  3 22  1  0  0  0  0
  3 23  1  0  0  0  0
  4 12  1  0  0  0  0
  4  5  1  0  0  0  0
  5  6  2  0  0  0  0
  5 24  1  0  0  0  0
  6  7  1  0  0  0  0
  6 33  1  0  0  0  0
  7 12  2  0  0  0  0
  7  8  1  0  0  0  0
  8  9  2  0  0  0  0
  8 25  1  0  0  0  0
  9 10  1  0  0  0  0
  9 26  1  0  0  0  0
 10 11  2  0  0  0  0
 10 27  1  0  0  0  0
 11 12  1  0  0  0  0
 11 28  1  0  0  0  0
 13 18  1  0  0  0  0
 13 14  2  0  0  0  0
 14 15  1  0  0  0  0
 14 29  1  0  0  0  0
 15 16  2  0  0  0  0
 15 30  1  0  0  0  0
 16 17  1  0  0  0  0
 16 31  1  0  0  0  0
 17 18  2  0  0  0  0
 17 32  1  0  0  0  0
 18 19  1  0  0  0  0
M  CHG  1   6   1
M  END
> <s_m_source_file>
AV-unprocessed.smi

> <i_m_source_file_index>
392

> <i_lp_mmshare_version>
43012

> <i_f3d_flags>
0

> <s_epik_input>
RmMxW2NIXVtjSF1bY0hdW2NIXWMxW0NASF0oW09IXSlbQ0gyXW4oW2NIXW4yKWMoYzIzKVtjSF1bY0hdW2NIXVtjSF0z

> <s_epik_cmdline>
J2VwaWtfcHl0aG9uJywgJy1waCcsICc3LjAnLCAnLXRuJywgJzgnLCAnLW1hJywgJzIwMCcsICctbWV0YWxfYmluZGluZycsICctaW1hZScsICc8aW5maWxlLm1hZT4nLCAnLW9tYWUnLCAnPG91dGZpbGUubWFlPic=

> <r_epik_Ionization_Penalty>
1.3029

> <r_epik_Ionization_Penalty_Charging>
1.3029

> <r_epik_Ionization_Penalty_Neutral>
1.34362e-06

> <r_epik_State_Penalty>
1.377

> <r_epik_Charging_Adjusted_Penalty>
2.6799

> <i_epik_Tot_Q>
1

> <i_epik_Tot_abs_Q>
1

> <r_epik_Metal_State_Penalty>
5.40879

> <b_epik_Metal_Only>
0

> <s_lp_Force_Field>
OPLS_2005

> <r_lp_Energy>
17.8975

> <b_lp_Chiralities_Consistent>
1

> <s_lp_Variant>
AV-unprocessed.smi:392-4

> <Gold.Version>
5.8.1

> <Gold.Id.Protein>
6NUR|6NUR_protein|mol2

> <Gold.PLP.Fitness>
49.9663

> <Gold.PLP.PLP>
-45.0177

> <Gold.PLP.part.hbond>
-1.2851

> <Gold.PLP.part.metal>
0.0000

> <Gold.PLP.part.buried>
-0.0342

> <Gold.PLP.part.nonpolar>
-43.4609

> <Gold.PLP.part.repulsive>
0.0420

> <Gold.PLP.ligand.clash>
0.0000

> <Gold.PLP.ligand.torsion>
0.5323

> <Gold.PLP.Chemscore.Hbond>
2.0000

> <Gold.PLP.Chemscore.CHOScore>
0.0000

> <Gold.PLP.Chemscore.Metal>
0.0000

> <Gold.Chemscore.Hbonds>
donor molecule, donor type, donor heavy atom, donor atom, acceptor molecule, acceptor atom, score
      L1  H     6    33       P1  7948  2.00

> <Gold.PLP.Chemscore.Internal.Correction>
0.0132

> <Gold.Rescore>
     Score         DG    S(hbond)    S(metal)    S(lipo)     H(rot)  DE(clash)    DE(int)     intcor
     15.56     -17.12       0.94        0.00     115.62       1.97       0.15       1.40       ----

> <Gold.Chemscore.Fitness>
15.5640

> <Gold.Chemscore.DG>
-17.1174

> <Gold.Chemscore.ZeroCoef>
-5.4800

> <Gold.Chemscore.Hbond>
0.9421

> <Gold.Chemscore.Metal>
0.0000

> <Gold.Chemscore.Lipo>
115.6244

> <Gold.Chemscore.Internal_Hbond>
0.0000

> <Gold.Chemscore.DEClash>
0.1491

> <Gold.Chemscore.DEInternal>
1.4043

> <Gold.Chemscore.Rot>
1.9677

> <Gold.Chemscore.Internal.Correction>
   9.000000E+99

> <Gold.Chemscore.Hbonds>
donor molecule, donor type, donor heavy atom, donor atom, acceptor molecule, acceptor atom, score
      L1  H     6    33       P1  7948  0.92

> <Gold.Chemscore.Hbond.Weighted>
-3.1466

> <Gold.Chemscore.Metal.Weighted>
-0.0000

> <Gold.Chemscore.Lipo.Weighted>
-13.5281

> <Gold.Chemscore.Internal_Hbond.Weighted>
0.0000

> <Gold.Chemscore.DEClash.Weighted>
0.1491

> <Gold.Chemscore.DEInternal.Weighted>
1.4043

> <Gold.Chemscore.Rot.Weighted>
5.0372

> <Gold.Chemscore.Internal.Correction.Weighted>
   9.000000E+99

> <Gold.Protein.RotatedTorsions>
[ 6907 6896 6895 6894 ] final -130.99 input  -60.11 | X-H torsion
[ 7974 7965 7964 7962 ] final -121.63 input  175.53 | X-H torsion
[ 8008 7997 7996 7995 ] final  171.42 input   59.86 | X-H torsion
[ 10167 10162 10161 10158 ] final  146.34 input  -65.29 | X-H torsion
[ 10718 10713 10712 10709 ] final   23.83 input   66.30 | X-H torsion
[ 10763 10752 10751 10750 ] final  135.46 input  -60.55 | X-H torsion
[ 11005 11000 10999 10996 ] final   -7.28 input  -57.11 | X-H torsion

> <Gold.Protein.ActiveResidues>
 VAL166  LYS551  ARG553  GLY616  TRP617  ASP618  TYR619  PRO620  LYS621  CYS622 
 ASP623  PHE694  ASN695  SER759  ASP760  ASP761  ALA762  ILE779  LEU786  VAL792 
 PHE793  MET794  SER795  GLU796  ALA797  LYS798  CYS799  TRP800  GLU811  SER814 

> <Gold.Protein.RotatedAtoms>
  150.9459  133.6604  159.2781 H   0  0  0  0  0  0  0  0  0  0  0  0  # atno 6907 bound_to 6896
  151.3976  135.0965  159.9555 H   0  0  0  0  0  0  0  0  0  0  0  0  # atno 6908 bound_to 6896
  152.5089  133.8960  159.7472 H   0  0  0  0  0  0  0  0  0  0  0  0  # atno 6909 bound_to 6896
  145.0382  140.8123  143.4282 H   0  0  0  0  0  0  0  0  0  0  0  0  # atno 7974 bound_to 7965
  156.1273  140.1512  156.9118 H   0  0  0  0  0  0  0  0  0  0  0  0  # atno 8008 bound_to 7997
  154.4881  140.0859  156.7573 H   0  0  0  0  0  0  0  0  0  0  0  0  # atno 8009 bound_to 7997
  155.4321  140.3427  155.4283 H   0  0  0  0  0  0  0  0  0  0  0  0  # atno 8010 bound_to 7997
  139.4909  144.5836  151.6822 H   0  0  0  0  0  0  0  0  0  0  0  0  # atno 10167 bound_to 10162
  157.1715  130.6762  149.6079 H   0  0  0  0  0  0  0  0  0  0  0  0  # atno 10718 bound_to 10713
  153.8403  135.3092  155.3425 H   0  0  0  0  0  0  0  0  0  0  0  0  # atno 10763 bound_to 10752
  154.7935  135.4769  154.0111 H   0  0  0  0  0  0  0  0  0  0  0  0  # atno 10764 bound_to 10752
  153.1580  135.6855  153.8876 H   0  0  0  0  0  0  0  0  0  0  0  0  # atno 10765 bound_to 10752
  140.7111  133.8908  155.8751 H   0  0  0  0  0  0  0  0  0  0  0  0  # atno 11005 bound_to 11000
  145.1682  139.2419  143.5356 LP  0  0  0  0  0  0  0  0  0  0  0  0  # atno 17320 bound_to 7965
  146.3506  140.1426  142.8594 LP  0  0  0  0  0  0  0  0  0  0  0  0  # atno 17321 bound_to 7965
  140.5447  144.0522  150.6102 LP  0  0  0  0  0  0  0  0  0  0  0  0  # atno 17342 bound_to 10162
  140.3556  143.2938  152.0440 LP  0  0  0  0  0  0  0  0  0  0  0  0  # atno 17343 bound_to 10162
  155.9738  130.4677  150.6335 LP  0  0  0  0  0  0  0  0  0  0  0  0  # atno 17370 bound_to 10713
  157.4039  131.0814  151.1283 LP  0  0  0  0  0  0  0  0  0  0  0  0  # atno 17371 bound_to 10713
  141.0083  134.1055  157.4247 LP  0  0  0  0  0  0  0  0  0  0  0  0  # atno 17394 bound_to 11000
  139.8871  135.0087  156.6542 LP  0  0  0  0  0  0  0  0  0  0  0  0  # atno 17395 bound_to 11000

$$$$
