AV-unprocessed.smi:2027|AV-procd|sdf|8213|dock5
  -GOLD-   2272010473D 1   1.00000     0.00000
 Structure written by MMmdl.
 50 52  0  0  0  0  0  0  0  0  2 V2000
  153.0193  142.8741  160.6519 C   0  0  0  0  0  0  0  0  0  0  0  0
  152.1182  142.4956  159.4895 C   0  0  0  0  0  0  0  0  0  0  0  0
  152.4594  141.3814  158.6905 C   0  0  0  0  0  0  0  0  0  0  0  0
  151.6477  140.9950  157.6018 C   0  0  0  0  0  0  0  0  0  0  0  0
  151.7902  139.9552  156.6990 N   0  0  0  0  0  0  0  0  0  0  0  0
  150.7188  140.1195  155.9292 C   0  0  0  0  0  0  0  0  0  0  0  0
  149.8995  141.1473  156.2233 N   0  0  0  0  0  0  0  0  0  0  0  0
  148.6823  141.5201  155.5245 C   0  0  0  0  0  0  0  0  0  0  0  0
  148.4097  140.6272  154.2991 C   0  0  2  0  0  0  0  0  0  0  0  0
  149.3906  140.8743  153.3099 O   0  0  0  0  0  0  0  0  0  0  0  0
  147.0204  140.9026  153.6900 C   0  0  0  0  0  0  0  0  0  0  0  0
  146.2482  139.6544  153.4620 N   0  3  2  0  0  0  0  0  0  0  0  0
  145.9176  138.9657  154.7322 C   0  0  0  0  0  0  0  0  0  0  0  0
  146.8830  138.7497  152.4686 C   0  0  0  0  0  0  0  0  0  0  0  0
  145.9730  137.6069  152.1081 C   0  0  0  0  0  0  0  0  0  0  0  0
  144.6254  137.3956  152.5185 C   0  0  0  0  0  0  0  0  0  0  0  0
  144.1041  136.2869  152.0201 N   0  0  0  0  0  0  0  0  0  0  0  0
  145.0975  135.7492  151.2833 N   0  0  0  0  0  0  0  0  0  0  0  0
  144.8732  134.5014  150.5853 C   0  0  0  0  0  0  0  0  0  0  0  0
  146.2376  136.5226  151.3193 C   0  0  0  0  0  0  0  0  0  0  0  0
  150.4749  141.7595  157.3320 C   0  0  0  0  0  0  0  0  0  0  0  0
  150.1252  142.8709  158.1193 C   0  0  0  0  0  0  0  0  0  0  0  0
  150.9477  143.2434  159.2032 C   0  0  0  0  0  0  0  0  0  0  0  0
  150.5614  144.4449  160.0477 C   0  0  0  0  0  0  0  0  0  0  0  0
  153.8877  142.2176  160.7124 H   0  0  0  0  0  0  0  0  0  0  0  0
  152.4769  142.7988  161.5946 H   0  0  0  0  0  0  0  0  0  0  0  0
  153.3812  143.8963  160.5401 H   0  0  0  0  0  0  0  0  0  0  0  0
  153.3510  140.8116  158.9079 H   0  0  0  0  0  0  0  0  0  0  0  0
  150.5187  139.4564  155.1002 H   0  0  0  0  0  0  0  0  0  0  0  0
  147.8526  141.4533  156.2297 H   0  0  0  0  0  0  0  0  0  0  0  0
  148.7544  142.5678  155.2293 H   0  0  0  0  0  0  0  0  0  0  0  0
  148.4938  139.5845  154.6046 H   0  0  0  0  0  0  0  0  0  0  0  0
  149.2464  140.2809  152.5875 H   0  0  0  0  0  0  0  0  0  0  0  0
  146.4420  141.5697  154.3311 H   0  0  0  0  0  0  0  0  0  0  0  0
  147.1584  141.4356  152.7476 H   0  0  0  0  0  0  0  0  0  0  0  0
  146.8213  138.6253  155.2395 H   0  0  0  0  0  0  0  0  0  0  0  0
  145.2760  138.1015  154.5604 H   0  0  0  0  0  0  0  0  0  0  0  0
  145.3803  139.6348  155.4051 H   0  0  0  0  0  0  0  0  0  0  0  0
  147.1362  139.3065  151.5671 H   0  0  0  0  0  0  0  0  0  0  0  0
  147.8342  138.3916  152.8649 H   0  0  0  0  0  0  0  0  0  0  0  0
  144.0131  138.0148  153.1575 H   0  0  0  0  0  0  0  0  0  0  0  0
  145.7481  134.2442  149.9880 H   0  0  0  0  0  0  0  0  0  0  0  0
  144.0100  134.5957  149.9259 H   0  0  0  0  0  0  0  0  0  0  0  0
  144.6895  133.7039  151.3056 H   0  0  0  0  0  0  0  0  0  0  0  0
  147.1336  136.2413  150.7854 H   0  0  0  0  0  0  0  0  0  0  0  0
  149.2318  143.4329  157.8906 H   0  0  0  0  0  0  0  0  0  0  0  0
  149.6233  144.8853  159.7086 H   0  0  0  0  0  0  0  0  0  0  0  0
  151.3317  145.2143  159.9914 H   0  0  0  0  0  0  0  0  0  0  0  0
  150.4362  144.1552  161.0912 H   0  0  0  0  0  0  0  0  0  0  0  0
  145.3669  139.9507  153.0666 H   0  0  0  0  0  0  0  0  0  0  0  0
  1  2  1  0  0  0  0
  1 25  1  0  0  0  0
  1 26  1  0  0  0  0
  1 27  1  0  0  0  0
  2 23  1  0  0  0  0
  2  3  2  0  0  0  0
  3  4  1  0  0  0  0
  3 28  1  0  0  0  0
  4 21  2  0  0  0  0
  4  5  1  0  0  0  0
  5  6  2  0  0  0  0
  6  7  1  0  0  0  0
  6 29  1  0  0  0  0
  7  8  1  0  0  0  0
  7 21  1  0  0  0  0
  8  9  1  0  0  0  0
  8 30  1  0  0  0  0
  8 31  1  0  0  0  0
  9 10  1  0  0  0  0
  9 11  1  0  0  0  0
  9 32  1  0  0  0  0
 10 33  1  0  0  0  0
 11 12  1  0  0  0  0
 11 34  1  0  0  0  0
 11 35  1  0  0  0  0
 12 13  1  0  0  0  0
 12 14  1  0  0  0  0
 12 50  1  0  0  0  0
 13 36  1  0  0  0  0
 13 37  1  0  0  0  0
 13 38  1  0  0  0  0
 14 15  1  0  0  0  0
 14 39  1  0  0  0  0
 14 40  1  0  0  0  0
 15 20  2  0  0  0  0
 15 16  1  0  0  0  0
 16 17  2  0  0  0  0
 16 41  1  0  0  0  0
 17 18  1  0  0  0  0
 18 19  1  0  0  0  0
 18 20  1  0  0  0  0
 19 42  1  0  0  0  0
 19 43  1  0  0  0  0
 19 44  1  0  0  0  0
 20 45  1  0  0  0  0
 21 22  1  0  0  0  0
 22 23  2  0  0  0  0
 22 46  1  0  0  0  0
 23 24  1  0  0  0  0
 24 47  1  0  0  0  0
 24 48  1  0  0  0  0
 24 49  1  0  0  0  0
M  CHG  1  12   1
M  END
> <s_m_source_file>
AV-unprocessed.smi

> <i_m_source_file_index>
2027

> <i_lp_mmshare_version>
43012

> <i_f3d_flags>
0

> <s_epik_input>
W0NIM11jKFtjSF0xKWMoW0NIM10pW2NIXWMoYzEyKW4oW2NIXW4yKVtDSDJdW0NASF0oW09IXSlbQ0gyXU4oW0NIM10pW0NIMl1jM1tjSF1ubihbQ0gzXSlbY0hdMw==

> <s_epik_cmdline>
J2VwaWtfcHl0aG9uJywgJy1waCcsICc3LjAnLCAnLXRuJywgJzgnLCAnLW1hJywgJzIwMCcsICctbWV0YWxfYmluZGluZycsICctaW1hZScsICc8aW5maWxlLm1hZT4nLCAnLW9tYWUnLCAnPG91dGZpbGUubWFlPic=

> <r_lp_tautomer_probability>
1

> <r_epik_Ionization_Penalty>
0.646578

> <r_epik_Ionization_Penalty_Charging>
0.559419

> <r_epik_Ionization_Penalty_Neutral>
0.087159

> <r_epik_State_Penalty>
0.661677

> <r_epik_Charging_Adjusted_Penalty>
1.2211

> <i_epik_Tot_Q>
1

> <i_epik_Tot_abs_Q>
1

> <r_epik_Metal_State_Penalty>
0.649174

> <b_epik_Metal_Only>
0

> <s_lp_Force_Field>
OPLS_2005

> <r_lp_Energy>
10.3354

> <b_lp_Chiralities_Consistent>
1

> <s_lp_Variant>
AV-unprocessed.smi:2027-5

> <Gold.Version>
5.8.1

> <Gold.Id.Protein>
6NUR|6NUR_protein|mol2

> <Gold.PLP.Fitness>
60.0056

> <Gold.PLP.PLP>
-45.3510

> <Gold.PLP.part.hbond>
-3.1182

> <Gold.PLP.part.metal>
0.0000

> <Gold.PLP.part.buried>
-1.8154

> <Gold.PLP.part.nonpolar>
-41.9410

> <Gold.PLP.part.repulsive>
0.1728

> <Gold.PLP.ligand.clash>
0.0000

> <Gold.PLP.ligand.torsion>
0.7858

> <Gold.PLP.Chemscore.Hbond>
3.7795

> <Gold.PLP.Chemscore.CHOScore>
1.5678

> <Gold.PLP.Chemscore.Metal>
0.0000

> <Gold.Chemscore.Hbonds>
donor molecule, donor type, donor heavy atom, donor atom, acceptor molecule, acceptor atom, score
      L1  H    10    33       P1  7957  0.76
      L1  H    12    50       P1 10175  2.00
      P1  H  7989  7998       L1    10  0.13
      P1  H  8011  8017       L1    10  0.90
      L1  C    16    41       P1 10175  0.73
      L1  C    20    45       P1  7948  0.79

> <Gold.PLP.Chemscore.Internal.Correction>
0.1843

> <Gold.Rescore>
     Score         DG    S(hbond)    S(metal)    S(lipo)     H(rot)  DE(clash)    DE(int)     intcor
     19.36     -21.57       2.35        0.00     125.28       2.50       0.29       1.92       ----

> <Gold.Chemscore.Fitness>
19.3608

> <Gold.Chemscore.DG>
-21.5746

> <Gold.Chemscore.ZeroCoef>
-5.4800

> <Gold.Chemscore.Hbond>
2.3501

> <Gold.Chemscore.Metal>
0.0000

> <Gold.Chemscore.Lipo>
125.2752

> <Gold.Chemscore.Internal_Hbond>
0.0000

> <Gold.Chemscore.DEClash>
0.2938

> <Gold.Chemscore.DEInternal>
1.9199

> <Gold.Chemscore.Rot>
2.5047

> <Gold.Chemscore.Internal.Correction>
   9.000000E+99

> <Gold.Chemscore.Hbonds>
donor molecule, donor type, donor heavy atom, donor atom, acceptor molecule, acceptor atom, score
      L1  H    10    33       P1  7957  0.72
      L1  H    12    50       P1 10175  1.00
      P1  H  7989  7998       L1    10  0.05
      P1  H  8011  8017       L1    10  0.18

> <Gold.Chemscore.Hbond.Weighted>
-7.8494

> <Gold.Chemscore.Metal.Weighted>
-0.0000

> <Gold.Chemscore.Lipo.Weighted>
-14.6572

> <Gold.Chemscore.Internal_Hbond.Weighted>
0.0000

> <Gold.Chemscore.DEClash.Weighted>
0.2938

> <Gold.Chemscore.DEInternal.Weighted>
1.9199

> <Gold.Chemscore.Rot.Weighted>
6.4120

> <Gold.Chemscore.Internal.Correction.Weighted>
   9.000000E+99

> <Gold.Protein.RotatedTorsions>
[ 6907 6896 6895 6894 ] final  -64.54 input  -60.11 | X-H torsion
[ 7974 7965 7964 7962 ] final  127.55 input  175.53 | X-H torsion
[ 8008 7997 7996 7995 ] final  -48.20 input   59.86 | X-H torsion
[ 10167 10162 10161 10158 ] final  140.46 input  -65.29 | X-H torsion
[ 10718 10713 10712 10709 ] final  172.26 input   66.30 | X-H torsion
[ 10763 10752 10751 10750 ] final  -16.27 input  -60.55 | X-H torsion
[ 11005 11000 10999 10996 ] final -151.50 input  -57.11 | X-H torsion

> <Gold.Protein.ActiveResidues>
 VAL166  LYS551  ARG553  GLY616  TRP617  ASP618  TYR619  PRO620  LYS621  CYS622 
 ASP623  PHE694  ASN695  SER759  ASP760  ASP761  ALA762  ILE779  LEU786  VAL792 
 PHE793  MET794  SER795  GLU796  ALA797  LYS798  CYS799  TRP800  GLU811  SER814 

> <Gold.Protein.RotatedAtoms>
  150.7579  134.6284  159.6173 H   0  0  0  0  0  0  0  0  0  0  0  0  # atno 6907 bound_to 6896
  152.3569  134.6924  160.0228 H   0  0  0  0  0  0  0  0  0  0  0  0  # atno 6908 bound_to 6896
  151.7326  133.3282  159.3381 H   0  0  0  0  0  0  0  0  0  0  0  0  # atno 6909 bound_to 6896
  145.0493  139.3896  143.5062 H   0  0  0  0  0  0  0  0  0  0  0  0  # atno 7974 bound_to 7965
  154.4026  140.1327  156.4300 H   0  0  0  0  0  0  0  0  0  0  0  0  # atno 8008 bound_to 7997
  155.7560  140.3487  155.5154 H   0  0  0  0  0  0  0  0  0  0  0  0  # atno 8009 bound_to 7997
  155.8904  140.1002  157.1413 H   0  0  0  0  0  0  0  0  0  0  0  0  # atno 8010 bound_to 7997
  139.5048  144.6233  151.5999 H   0  0  0  0  0  0  0  0  0  0  0  0  # atno 10167 bound_to 10162
  156.9816  131.0120  151.2880 H   0  0  0  0  0  0  0  0  0  0  0  0  # atno 10718 bound_to 10713
  153.5560  135.7010  153.5569 H   0  0  0  0  0  0  0  0  0  0  0  0  # atno 10763 bound_to 10752
  153.3472  135.4005  155.1618 H   0  0  0  0  0  0  0  0  0  0  0  0  # atno 10764 bound_to 10752
  154.8654  135.3756  154.5075 H   0  0  0  0  0  0  0  0  0  0  0  0  # atno 10765 bound_to 10752
  140.7289  134.3643  157.5170 H   0  0  0  0  0  0  0  0  0  0  0  0  # atno 11005 bound_to 11000
  146.3516  140.0135  142.8665 LP  0  0  0  0  0  0  0  0  0  0  0  0  # atno 17320 bound_to 7965
  145.1547  140.9642  143.4412 LP  0  0  0  0  0  0  0  0  0  0  0  0  # atno 17321 bound_to 7965
  140.5942  143.9726  150.6343 LP  0  0  0  0  0  0  0  0  0  0  0  0  # atno 17342 bound_to 10162
  140.2917  143.3320  152.1056 LP  0  0  0  0  0  0  0  0  0  0  0  0  # atno 17343 bound_to 10162
  157.5522  130.8190  149.8160 LP  0  0  0  0  0  0  0  0  0  0  0  0  # atno 17370 bound_to 10713
  156.0242  130.3785  150.1871 LP  0  0  0  0  0  0  0  0  0  0  0  0  # atno 17371 bound_to 10713
  139.8831  134.9005  156.2790 LP  0  0  0  0  0  0  0  0  0  0  0  0  # atno 17394 bound_to 11000
  140.9938  133.7192  156.0855 LP  0  0  0  0  0  0  0  0  0  0  0  0  # atno 17395 bound_to 11000

$$$$
