AV-unprocessed.smi:3343|AV-procd|sdf|12892|dock9
  -GOLD-   2272019303D 1   1.00000     0.00000
 Structure written by MMmdl.
 42 43  0  0  0  0  0  0  0  0  2 V2000
  149.9309  135.7420  156.4743 C   0  0  0  0  0  0  0  0  0  0  0  0
  149.5303  136.7028  155.3399 C   0  0  1  0  0  0  0  0  0  0  0  0
  148.0290  137.0238  155.3425 C   0  0  0  0  0  0  0  0  0  0  0  0
  147.5559  137.8053  156.1692 O   0  0  0  0  0  0  0  0  0  0  0  0
  147.2939  136.4339  154.3870 N   0  0  0  0  0  0  0  0  0  0  0  0
  145.8758  136.6771  154.1583 C   0  0  0  0  0  0  0  0  0  0  0  0
  145.1736  135.3867  153.6958 C   0  0  0  0  0  0  0  0  0  0  0  0
  143.9305  135.6559  152.9696 N   0  0  0  0  0  0  0  0  0  0  0  0
  144.1065  136.0601  151.5696 C   0  0  0  0  0  0  0  0  0  0  0  0
  144.6265  134.9051  150.6875 C   0  0  0  0  0  0  0  0  0  0  0  0
  143.7107  133.7431  150.7636 N   0  3  0  0  0  0  0  0  0  0  0  0
  144.1331  132.6248  149.8936 C   0  0  0  0  0  0  0  0  0  0  0  0
  143.5076  133.3280  152.1710 C   0  0  0  0  0  0  0  0  0  0  0  0
  143.0077  134.5182  153.0184 C   0  0  0  0  0  0  0  0  0  0  0  0
  150.2950  137.9408  155.4005 N   0  0  0  0  0  0  0  0  0  0  0  0
  150.2838  139.0167  154.6081 C   0  0  0  0  0  0  0  0  0  0  0  0
  151.1569  139.9507  154.9578 N   0  0  0  0  0  0  0  0  0  0  0  0
  151.7139  139.3448  156.0481 C   0  0  0  0  0  0  0  0  0  0  0  0
  151.2386  138.1370  156.3524 N   0  0  0  0  0  0  0  0  0  0  0  0
  149.3605  134.8138  156.4245 H   0  0  0  0  0  0  0  0  0  0  0  0
  149.7658  136.1808  157.4589 H   0  0  0  0  0  0  0  0  0  0  0  0
  150.9871  135.4801  156.4042 H   0  0  0  0  0  0  0  0  0  0  0  0
  149.7643  136.2071  154.3954 H   0  0  0  0  0  0  0  0  0  0  0  0
  147.7598  135.8044  153.7491 H   0  0  0  0  0  0  0  0  0  0  0  0
  145.4344  137.0303  155.0908 H   0  0  0  0  0  0  0  0  0  0  0  0
  145.7637  137.4832  153.4328 H   0  0  0  0  0  0  0  0  0  0  0  0
  145.8534  134.7771  153.1019 H   0  0  0  0  0  0  0  0  0  0  0  0
  144.9330  134.7986  154.5826 H   0  0  0  0  0  0  0  0  0  0  0  0
  143.1419  136.3977  151.1880 H   0  0  0  0  0  0  0  0  0  0  0  0
  144.7699  136.9207  151.4967 H   0  0  0  0  0  0  0  0  0  0  0  0
  144.6881  135.2434  149.6528 H   0  0  0  0  0  0  0  0  0  0  0  0
  145.6365  134.6113  150.9761 H   0  0  0  0  0  0  0  0  0  0  0  0
  145.1012  132.2302  150.2052 H   0  0  0  0  0  0  0  0  0  0  0  0
  144.2145  132.9538  148.8573 H   0  0  0  0  0  0  0  0  0  0  0  0
  143.4053  131.8136  149.9296 H   0  0  0  0  0  0  0  0  0  0  0  0
  142.7684  132.5269  152.2046 H   0  0  0  0  0  0  0  0  0  0  0  0
  144.4313  132.9145  152.5784 H   0  0  0  0  0  0  0  0  0  0  0  0
  142.8568  134.2099  154.0537 H   0  0  0  0  0  0  0  0  0  0  0  0
  142.0330  134.8432  152.6522 H   0  0  0  0  0  0  0  0  0  0  0  0
  149.6291  139.1148  153.7543 H   0  0  0  0  0  0  0  0  0  0  0  0
  152.4972  139.8057  156.6318 H   0  0  0  0  0  0  0  0  0  0  0  0
  142.8137  134.0580  150.4225 H   0  0  0  0  0  0  0  0  0  0  0  0
  1  2  1  0  0  0  0
  1 20  1  0  0  0  0
  1 21  1  0  0  0  0
  1 22  1  0  0  0  0
  2  3  1  0  0  0  0
  2 15  1  0  0  0  0
  2 23  1  0  0  0  0
  3  4  2  0  0  0  0
  3  5  1  0  0  0  0
  5  6  1  0  0  0  0
  5 24  1  0  0  0  0
  6  7  1  0  0  0  0
  6 25  1  0  0  0  0
  6 26  1  0  0  0  0
  7  8  1  0  0  0  0
  7 27  1  0  0  0  0
  7 28  1  0  0  0  0
  8 14  1  0  0  0  0
  8  9  1  0  0  0  0
  9 10  1  0  0  0  0
  9 29  1  0  0  0  0
  9 30  1  0  0  0  0
 10 11  1  0  0  0  0
 10 31  1  0  0  0  0
 10 32  1  0  0  0  0
 11 12  1  0  0  0  0
 11 13  1  0  0  0  0
 11 42  1  0  0  0  0
 12 33  1  0  0  0  0
 12 34  1  0  0  0  0
 12 35  1  0  0  0  0
 13 14  1  0  0  0  0
 13 36  1  0  0  0  0
 13 37  1  0  0  0  0
 14 38  1  0  0  0  0
 14 39  1  0  0  0  0
 15 19  1  0  0  0  0
 15 16  1  0  0  0  0
 16 17  2  0  0  0  0
 16 40  1  0  0  0  0
 17 18  1  0  0  0  0
 18 19  2  0  0  0  0
 18 41  1  0  0  0  0
M  CHG  1  11   1
M  END
> <s_m_source_file>
AV-unprocessed.smi

> <i_m_source_file_index>
3343

> <i_lp_mmshare_version>
43012

> <i_f3d_flags>
0

> <s_epik_input>
bjFbY0hdbltjSF1uMVtDQEhdKFtDSDNdKUMoPU8pW05IXVtDSDJdW0NIMl1OMltDSDJdW0NIMl1OKFtDSDNdKVtDSDJdW0NIMl0y

> <s_epik_cmdline>
J2VwaWtfcHl0aG9uJywgJy1waCcsICc3LjAnLCAnLXRuJywgJzgnLCAnLW1hJywgJzIwMCcsICctbWV0YWxfYmluZGluZycsICctaW1hZScsICc8aW5maWxlLm1hZT4nLCAnLW9tYWUnLCAnPG91dGZpbGUubWFlPic=

> <r_lp_tautomer_probability>
1

> <r_epik_Ionization_Penalty>
0.0359277

> <r_epik_Ionization_Penalty_Charging>
0.0358005

> <r_epik_Ionization_Penalty_Neutral>
0.000127293

> <r_epik_State_Penalty>
0.0476325

> <r_epik_Charging_Adjusted_Penalty>
0.0834329

> <i_epik_Tot_Q>
1

> <i_epik_Tot_abs_Q>
1

> <r_epik_Metal_State_Penalty>
0.0476323

> <b_epik_Metal_Only>
0

> <s_lp_Force_Field>
OPLS_2005

> <r_lp_Energy>
19.669

> <b_lp_Chiralities_Consistent>
1

> <s_lp_Variant>
AV-unprocessed.smi:3343-2

> <Gold.Version>
5.8.1

> <Gold.Id.Protein>
6NUR|6NUR_protein|mol2

> <Gold.PLP.Fitness>
38.8320

> <Gold.PLP.PLP>
-26.0824

> <Gold.PLP.part.hbond>
-2.9228

> <Gold.PLP.part.metal>
0.0000

> <Gold.PLP.part.buried>
-1.2483

> <Gold.PLP.part.nonpolar>
-21.5913

> <Gold.PLP.part.repulsive>
0.1828

> <Gold.PLP.ligand.clash>
0.0000

> <Gold.PLP.ligand.torsion>
0.8262

> <Gold.PLP.Chemscore.Hbond>
3.7753

> <Gold.PLP.Chemscore.CHOScore>
0.9981

> <Gold.PLP.Chemscore.Metal>
0.0000

> <Gold.Chemscore.Hbonds>
donor molecule, donor type, donor heavy atom, donor atom, acceptor molecule, acceptor atom, score
      L1  H     5    24       P1  7948  0.25
      L1  H    11    42       P1 10186  1.98
      P1  H  7989  7998       L1    17  1.00
      L1  C    16    40       P1  7957  0.45

> <Gold.PLP.Chemscore.Internal.Correction>
0.0818

> <Gold.Rescore>
     Score         DG    S(hbond)    S(metal)    S(lipo)     H(rot)  DE(clash)    DE(int)     intcor
     12.27     -13.11       2.69        0.00      45.94       2.63       0.02       0.83       ----

> <Gold.Chemscore.Fitness>
12.2681

> <Gold.Chemscore.DG>
-13.1121

> <Gold.Chemscore.ZeroCoef>
-5.4800

> <Gold.Chemscore.Hbond>
2.6898

> <Gold.Chemscore.Metal>
0.0000

> <Gold.Chemscore.Lipo>
45.9419

> <Gold.Chemscore.Internal_Hbond>
0.0000

> <Gold.Chemscore.DEClash>
0.0168

> <Gold.Chemscore.DEInternal>
0.8272

> <Gold.Chemscore.Rot>
2.6278

> <Gold.Chemscore.Internal.Correction>
   9.000000E+99

> <Gold.Chemscore.Hbonds>
donor molecule, donor type, donor heavy atom, donor atom, acceptor molecule, acceptor atom, score
      L1  H     5    24       P1  7948  0.26
      L1  H    11    42       P1 10186  0.84
      P1  H  7989  7998       L1    17  0.70

> <Gold.Chemscore.Hbond.Weighted>
-8.9840

> <Gold.Chemscore.Metal.Weighted>
-0.0000

> <Gold.Chemscore.Lipo.Weighted>
-5.3752

> <Gold.Chemscore.Internal_Hbond.Weighted>
0.0000

> <Gold.Chemscore.DEClash.Weighted>
0.0168

> <Gold.Chemscore.DEInternal.Weighted>
0.8272

> <Gold.Chemscore.Rot.Weighted>
6.7271

> <Gold.Chemscore.Internal.Correction.Weighted>
   9.000000E+99

> <Gold.Protein.RotatedTorsions>
[ 6907 6896 6895 6894 ] final  -12.49 input  -60.11 | X-H torsion
[ 7974 7965 7964 7962 ] final  -67.46 input  175.53 | X-H torsion
[ 8008 7997 7996 7995 ] final   27.19 input   59.86 | X-H torsion
[ 10167 10162 10161 10158 ] final  137.67 input  -65.29 | X-H torsion
[ 10718 10713 10712 10709 ] final  118.17 input   66.30 | X-H torsion
[ 10763 10752 10751 10750 ] final -104.26 input  -60.55 | X-H torsion
[ 11005 11000 10999 10996 ] final  -20.03 input  -57.11 | X-H torsion

> <Gold.Protein.ActiveResidues>
 VAL166  LYS551  ARG553  GLY616  TRP617  ASP618  TYR619  PRO620  LYS621  CYS622 
 ASP623  PHE694  ASN695  SER759  ASP760  ASP761  ALA762  ILE779  LEU786  VAL792 
 PHE793  MET794  SER795  GLU796  ALA797  LYS798  CYS799  TRP800  GLU811  SER814 

> <Gold.Protein.RotatedAtoms>
  151.3698  135.0920  159.9461 H   0  0  0  0  0  0  0  0  0  0  0  0  # atno 6907 bound_to 6896
  152.5139  133.9176  159.7529 H   0  0  0  0  0  0  0  0  0  0  0  0  # atno 6908 bound_to 6896
  150.9588  133.6414  159.2787 H   0  0  0  0  0  0  0  0  0  0  0  0  # atno 6909 bound_to 6896
  145.7288  140.9006  143.0591 H   0  0  0  0  0  0  0  0  0  0  0  0  # atno 7974 bound_to 7965
  155.0390  140.3167  155.4731 H   0  0  0  0  0  0  0  0  0  0  0  0  # atno 8008 bound_to 7997
  156.2858  140.2166  156.5456 H   0  0  0  0  0  0  0  0  0  0  0  0  # atno 8009 bound_to 7997
  154.7306  140.0482  157.0711 H   0  0  0  0  0  0  0  0  0  0  0  0  # atno 8010 bound_to 7997
  139.5136  144.6397  151.5602 H   0  0  0  0  0  0  0  0  0  0  0  0  # atno 10167 bound_to 10162
  157.6048  131.1045  150.7718 H   0  0  0  0  0  0  0  0  0  0  0  0  # atno 10718 bound_to 10713
  154.7865  135.4793  153.9958 H   0  0  0  0  0  0  0  0  0  0  0  0  # atno 10763 bound_to 10752
  153.1568  135.6801  153.8807 H   0  0  0  0  0  0  0  0  0  0  0  0  # atno 10764 bound_to 10752
  153.8434  135.3176  155.3406 H   0  0  0  0  0  0  0  0  0  0  0  0  # atno 10765 bound_to 10752
  140.8424  133.7916  155.9875 H   0  0  0  0  0  0  0  0  0  0  0  0  # atno 11005 bound_to 11000
  144.6898  139.9303  143.7471 LP  0  0  0  0  0  0  0  0  0  0  0  0  # atno 17320 bound_to 7965
  146.0557  139.3554  143.0612 LP  0  0  0  0  0  0  0  0  0  0  0  0  # atno 17321 bound_to 7965
  140.6159  143.9349  150.6488 LP  0  0  0  0  0  0  0  0  0  0  0  0  # atno 17342 bound_to 10162
  140.2607  143.3526  152.1325 LP  0  0  0  0  0  0  0  0  0  0  0  0  # atno 17343 bound_to 10162
  156.8109  130.4952  149.5356 LP  0  0  0  0  0  0  0  0  0  0  0  0  # atno 17370 bound_to 10713
  156.1131  130.6055  151.0079 LP  0  0  0  0  0  0  0  0  0  0  0  0  # atno 17371 bound_to 10713
  140.8880  134.2530  157.5109 LP  0  0  0  0  0  0  0  0  0  0  0  0  # atno 17394 bound_to 11000
  139.8703  134.9648  156.4506 LP  0  0  0  0  0  0  0  0  0  0  0  0  # atno 17395 bound_to 11000

$$$$
