AV-unprocessed.smi:861|AV-procd|sdf|3967|dock5
  -GOLD-   22720 1443D 1   1.00000     0.00000
 Structure written by MMmdl.
 44 45  0  0  0  0  0  0  0  0  2 V2000
  144.6064  134.3707  150.6804 C   0  0  0  0  0  0  0  0  0  0  0  0
  144.9935  132.9463  150.2550 C   0  0  0  0  0  0  0  0  0  0  0  0
  143.7860  132.2290  149.6280 C   0  0  0  0  0  0  0  0  0  0  0  0
  145.5900  132.1646  151.4437 C   0  0  0  0  0  0  0  0  0  0  0  0
  146.5321  133.0026  152.3296 C   0  0  0  0  0  0  0  0  0  0  0  0
  147.8007  132.2909  152.6402 N   0  3  2  0  0  0  0  0  0  0  0  0
  147.6355  131.1863  153.6161 C   0  0  0  0  0  0  0  0  0  0  0  0
  147.5216  131.7274  155.0523 C   0  0  0  0  0  0  0  0  0  0  0  0
  148.6667  132.5155  155.3516 O   0  0  0  0  0  0  0  0  0  0  0  0
  148.7852  133.6543  154.5037 C   0  0  1  0  0  0  0  0  0  0  0  0
  150.0133  134.4576  154.9531 C   0  0  0  0  0  0  0  0  0  0  0  0
  150.0850  135.7506  154.2867 N   0  0  0  0  0  0  0  0  0  0  0  0
  150.8776  136.7804  154.8110 C   0  0  0  0  0  0  0  0  0  0  0  0
  150.6636  138.1004  154.3668 C   0  0  0  0  0  0  0  0  0  0  0  0
  151.4756  139.1110  154.9102 C   0  0  0  0  0  0  0  0  0  0  0  0
  152.4407  138.7239  155.8577 C   0  0  0  0  0  0  0  0  0  0  0  0
  152.6034  137.4396  156.2479 N   0  0  0  0  0  0  0  0  0  0  0  0
  151.8303  136.4790  155.7291 N   0  0  0  0  0  0  0  0  0  0  0  0
  148.9287  133.1704  153.0436 C   0  0  0  0  0  0  0  0  0  0  0  0
  143.8358  134.3590  151.4517 H   0  0  0  0  0  0  0  0  0  0  0  0
  144.2222  134.9431  149.8354 H   0  0  0  0  0  0  0  0  0  0  0  0
  145.4660  134.9118  151.0765 H   0  0  0  0  0  0  0  0  0  0  0  0
  145.7633  133.0386  149.4877 H   0  0  0  0  0  0  0  0  0  0  0  0
  142.9933  132.0732  150.3604 H   0  0  0  0  0  0  0  0  0  0  0  0
  144.0598  131.2567  149.2195 H   0  0  0  0  0  0  0  0  0  0  0  0
  143.3671  132.8127  148.8077 H   0  0  0  0  0  0  0  0  0  0  0  0
  144.7740  131.7961  152.0668 H   0  0  0  0  0  0  0  0  0  0  0  0
  146.1027  131.2809  151.0644 H   0  0  0  0  0  0  0  0  0  0  0  0
  146.7413  133.9695  151.8746 H   0  0  0  0  0  0  0  0  0  0  0  0
  146.0109  133.2129  153.2644 H   0  0  0  0  0  0  0  0  0  0  0  0
  146.7722  130.5700  153.3626 H   0  0  0  0  0  0  0  0  0  0  0  0
  148.5068  130.5336  153.5463 H   0  0  0  0  0  0  0  0  0  0  0  0
  146.6116  132.3142  155.1862 H   0  0  0  0  0  0  0  0  0  0  0  0
  147.4713  130.9000  155.7601 H   0  0  0  0  0  0  0  0  0  0  0  0
  147.8993  134.2834  154.6038 H   0  0  0  0  0  0  0  0  0  0  0  0
  149.9963  134.5989  156.0347 H   0  0  0  0  0  0  0  0  0  0  0  0
  150.9196  133.8989  154.7155 H   0  0  0  0  0  0  0  0  0  0  0  0
  149.4819  135.9319  153.4974 H   0  0  0  0  0  0  0  0  0  0  0  0
  149.9042  138.3338  153.6347 H   0  0  0  0  0  0  0  0  0  0  0  0
  151.3638  140.1430  154.6129 H   0  0  0  0  0  0  0  0  0  0  0  0
  153.0938  139.4549  156.3107 H   0  0  0  0  0  0  0  0  0  0  0  0
  149.8517  132.5974  152.9440 H   0  0  0  0  0  0  0  0  0  0  0  0
  149.0276  134.0170  152.3655 H   0  0  0  0  0  0  0  0  0  0  0  0
  148.0740  131.8520  151.7722 H   0  0  0  0  0  0  0  0  0  0  0  0
  1  2  1  0  0  0  0
  1 20  1  0  0  0  0
  1 21  1  0  0  0  0
  1 22  1  0  0  0  0
  2  3  1  0  0  0  0
  2  4  1  0  0  0  0
  2 23  1  0  0  0  0
  3 24  1  0  0  0  0
  3 25  1  0  0  0  0
  3 26  1  0  0  0  0
  4  5  1  0  0  0  0
  4 27  1  0  0  0  0
  4 28  1  0  0  0  0
  5  6  1  0  0  0  0
  5 29  1  0  0  0  0
  5 30  1  0  0  0  0
  6 19  1  0  0  0  0
  6  7  1  0  0  0  0
  6 44  1  0  0  0  0
  7  8  1  0  0  0  0
  7 31  1  0  0  0  0
  7 32  1  0  0  0  0
  8  9  1  0  0  0  0
  8 33  1  0  0  0  0
  8 34  1  0  0  0  0
  9 10  1  0  0  0  0
 10 11  1  0  0  0  0
 10 19  1  0  0  0  0
 10 35  1  0  0  0  0
 11 12  1  0  0  0  0
 11 36  1  0  0  0  0
 11 37  1  0  0  0  0
 12 13  1  0  0  0  0
 12 38  1  0  0  0  0
 13 18  1  0  0  0  0
 13 14  2  0  0  0  0
 14 15  1  0  0  0  0
 14 39  1  0  0  0  0
 15 16  2  0  0  0  0
 15 40  1  0  0  0  0
 16 17  1  0  0  0  0
 16 41  1  0  0  0  0
 17 18  2  0  0  0  0
 19 42  1  0  0  0  0
 19 43  1  0  0  0  0
M  CHG  1   6   1
M  END
> <s_m_source_file>
AV-unprocessed.smi

> <i_m_source_file_index>
861

> <i_lp_mmshare_version>
43012

> <i_f3d_flags>
0

> <s_epik_input>
W0NIM11bQ0hdKFtDSDNdKVtDSDJdW0NIMl1OMVtDSDJdW0NIMl1PW0NASF0oW0NIMl0xKVtDSDJdW05IXWMyW2NIXVtjSF1bY0hdbm4y

> <s_epik_cmdline>
J2VwaWtfcHl0aG9uJywgJy1waCcsICc3LjAnLCAnLXRuJywgJzgnLCAnLW1hJywgJzIwMCcsICctbWV0YWxfYmluZGluZycsICctaW1hZScsICc8aW5maWxlLm1hZT4nLCAnLW9tYWUnLCAnPG91dGZpbGUubWFlPic=

> <r_lp_tautomer_probability>
0.999978

> <r_epik_Ionization_Penalty>
0.114704

> <r_epik_Ionization_Penalty_Charging>
0.0953451

> <r_epik_Ionization_Penalty_Neutral>
0.0193593

> <r_epik_State_Penalty>
0.104983

> <r_epik_Charging_Adjusted_Penalty>
0.200328

> <i_epik_Tot_Q>
1

> <i_epik_Tot_abs_Q>
1

> <r_epik_Metal_State_Penalty>
0.100113

> <b_epik_Metal_Only>
0

> <s_lp_Force_Field>
OPLS_2005

> <r_lp_Energy>
26.6721

> <b_lp_Chiralities_Consistent>
1

> <s_lp_Variant>
AV-unprocessed.smi:861-2

> <Gold.Version>
5.8.1

> <Gold.Id.Protein>
6NUR|6NUR_protein|mol2

> <Gold.PLP.Fitness>
44.3216

> <Gold.PLP.PLP>
-36.9387

> <Gold.PLP.part.hbond>
-4.9565

> <Gold.PLP.part.metal>
0.0000

> <Gold.PLP.part.buried>
-2.7949

> <Gold.PLP.part.nonpolar>
-29.1104

> <Gold.PLP.part.repulsive>
0.1099

> <Gold.PLP.ligand.clash>
0.0000

> <Gold.PLP.ligand.torsion>
0.8666

> <Gold.PLP.Chemscore.Hbond>
3.0000

> <Gold.PLP.Chemscore.CHOScore>
0.0000

> <Gold.PLP.Chemscore.Metal>
0.0000

> <Gold.Chemscore.Hbonds>
donor molecule, donor type, donor heavy atom, donor atom, acceptor molecule, acceptor atom, score
      L1  H     6    44       P1 10747  1.00
      L1  H    12    38       P1  7948  1.00
      P1  H 10752 10763       L1    18  0.95

> <Gold.PLP.Chemscore.Internal.Correction>
0.1160

> <Gold.Rescore>
     Score         DG    S(hbond)    S(metal)    S(lipo)     H(rot)  DE(clash)    DE(int)     intcor
     17.68     -18.71       2.36        0.00      83.02       1.71       0.13       0.89       ----

> <Gold.Chemscore.Fitness>
17.6792

> <Gold.Chemscore.DG>
-18.7054

> <Gold.Chemscore.ZeroCoef>
-5.4800

> <Gold.Chemscore.Hbond>
2.3641

> <Gold.Chemscore.Metal>
0.0000

> <Gold.Chemscore.Lipo>
83.0236

> <Gold.Chemscore.Internal_Hbond>
0.0000

> <Gold.Chemscore.DEClash>
0.1325

> <Gold.Chemscore.DEInternal>
0.8936

> <Gold.Chemscore.Rot>
1.7127

> <Gold.Chemscore.Internal.Correction>
   9.000000E+99

> <Gold.Chemscore.Hbonds>
donor molecule, donor type, donor heavy atom, donor atom, acceptor molecule, acceptor atom, score
      L1  H     6    44       P1 10747  0.95
      L1  H    12    38       P1  7948  0.39
      P1  H 10752 10763       L1    18  0.14

> <Gold.Chemscore.Hbond.Weighted>
-7.8960

> <Gold.Chemscore.Metal.Weighted>
-0.0000

> <Gold.Chemscore.Lipo.Weighted>
-9.7138

> <Gold.Chemscore.Internal_Hbond.Weighted>
0.0000

> <Gold.Chemscore.DEClash.Weighted>
0.1325

> <Gold.Chemscore.DEInternal.Weighted>
0.8936

> <Gold.Chemscore.Rot.Weighted>
4.3844

> <Gold.Chemscore.Internal.Correction.Weighted>
   9.000000E+99

> <Gold.Protein.RotatedTorsions>
[ 6907 6896 6895 6894 ] final -100.17 input  -60.11 | X-H torsion
[ 7974 7965 7964 7962 ] final  -39.11 input  175.53 | X-H torsion
[ 8008 7997 7996 7995 ] final  -99.04 input   59.86 | X-H torsion
[ 10167 10162 10161 10158 ] final   86.89 input  -65.29 | X-H torsion
[ 10718 10713 10712 10709 ] final   96.89 input   66.30 | X-H torsion
[ 10763 10752 10751 10750 ] final   81.98 input  -60.55 | X-H torsion
[ 11005 11000 10999 10996 ] final   48.97 input  -57.11 | X-H torsion

> <Gold.Protein.ActiveResidues>
 VAL166  LYS551  ARG553  GLY616  TRP617  ASP618  TYR619  PRO620  LYS621  CYS622 
 ASP623  PHE694  ASN695  SER759  ASP760  ASP761  ALA762  ILE779  LEU786  VAL792 
 PHE793  MET794  SER795  GLU796  ALA797  LYS798  CYS799  TRP800  GLU811  SER814 

> <Gold.Protein.RotatedAtoms>
  150.7106  134.0929  159.3937 H   0  0  0  0  0  0  0  0  0  0  0  0  # atno 6907 bound_to 6896
  151.8914  135.0412  160.0507 H   0  0  0  0  0  0  0  0  0  0  0  0  # atno 6908 bound_to 6896
  152.2488  133.5162  159.5350 H   0  0  0  0  0  0  0  0  0  0  0  0  # atno 6909 bound_to 6896
  146.0426  140.6589  142.9080 H   0  0  0  0  0  0  0  0  0  0  0  0  # atno 7974 bound_to 7965
  154.8094  140.0451  157.1331 H   0  0  0  0  0  0  0  0  0  0  0  0  # atno 8008 bound_to 7997
  154.9386  140.3049  155.5112 H   0  0  0  0  0  0  0  0  0  0  0  0  # atno 8009 bound_to 7997
  156.2970  140.2310  156.4453 H   0  0  0  0  0  0  0  0  0  0  0  0  # atno 8010 bound_to 7997
  139.8829  144.6430  150.8823 H   0  0  0  0  0  0  0  0  0  0  0  0  # atno 10167 bound_to 10162
  157.6920  131.0592  150.4560 H   0  0  0  0  0  0  0  0  0  0  0  0  # atno 10718 bound_to 10713
  153.1163  135.4745  154.9121 H   0  0  0  0  0  0  0  0  0  0  0  0  # atno 10763 bound_to 10752
  154.7532  135.3111  154.8521 H   0  0  0  0  0  0  0  0  0  0  0  0  # atno 10764 bound_to 10752
  153.9097  135.6866  153.4805 H   0  0  0  0  0  0  0  0  0  0  0  0  # atno 10765 bound_to 10752
  140.1144  134.4912  155.8650 H   0  0  0  0  0  0  0  0  0  0  0  0  # atno 11005 bound_to 11000
  144.7082  140.3935  143.7101 LP  0  0  0  0  0  0  0  0  0  0  0  0  # atno 17320 bound_to 7965
  145.6859  139.1628  143.2674 LP  0  0  0  0  0  0  0  0  0  0  0  0  # atno 17321 bound_to 7965
  140.7741  143.3571  151.1899 LP  0  0  0  0  0  0  0  0  0  0  0  0  # atno 17342 bound_to 10162
  139.7180  143.9270  152.2974 LP  0  0  0  0  0  0  0  0  0  0  0  0  # atno 17343 bound_to 10162
  156.4908  130.4095  149.6408 LP  0  0  0  0  0  0  0  0  0  0  0  0  # atno 17370 bound_to 10713
  156.3419  130.7386  151.2333 LP  0  0  0  0  0  0  0  0  0  0  0  0  # atno 17371 bound_to 10713
  141.2138  133.6738  156.6768 LP  0  0  0  0  0  0  0  0  0  0  0  0  # atno 17394 bound_to 11000
  140.3048  134.8135  157.4127 LP  0  0  0  0  0  0  0  0  0  0  0  0  # atno 17395 bound_to 11000

$$$$
