AV-unprocessed.smi:1833|AV-procd|sdf|7465|dock10
  -GOLD-   22720 9163D 1   1.00000     0.00000
 Structure written by MMmdl.
 42 43  0  0  0  0  0  0  0  0  2 V2000
  145.2650  132.0871  149.3825 C   0  0  0  0  0  0  0  0  0  0  0  0
  143.8733  132.7342  149.3305 C   0  0  0  0  0  0  0  0  0  0  0  0
  143.6992  133.7971  150.3524 N   0  3  1  0  0  0  0  0  0  0  0  0
  143.0887  133.2765  151.6036 C   0  0  0  0  0  0  0  0  0  0  0  0
  142.7889  134.4146  152.5935 C   0  0  0  0  0  0  0  0  0  0  0  0
  144.0537  135.2265  152.9008 C   0  0  0  0  0  0  0  0  0  0  0  0
  144.6840  135.7288  151.5924 C   0  0  1  0  0  0  0  0  0  0  0  0
  145.9320  136.4341  151.8716 N   0  0  0  0  0  0  0  0  0  0  0  0
  146.0651  137.4901  152.6870 C   0  0  0  0  0  0  0  0  0  0  0  0
  145.1372  138.0050  153.3106 O   0  0  0  0  0  0  0  0  0  0  0  0
  147.3334  137.9199  152.7391 N   0  0  0  0  0  0  0  0  0  0  0  0
  147.7966  139.0599  153.5218 C   0  0  0  0  0  0  0  0  0  0  0  0
  149.1431  138.7728  154.2053 C   0  0  0  0  0  0  0  0  0  0  0  0
  149.5882  139.8983  155.0772 C   0  0  0  0  0  0  0  0  0  0  0  0
  150.7946  140.4656  154.9897 N   0  0  0  0  0  0  0  0  0  0  0  0
  150.9810  141.4741  155.9383 C   0  0  0  0  0  0  0  0  0  0  0  0
  149.8995  141.6572  156.7623 C   0  0  0  0  0  0  0  0  0  0  0  0
  148.6001  140.5633  156.3741 S   0  0  0  0  0  0  0  0  0  0  0  0
  144.9487  134.5549  150.6311 C   0  0  0  0  0  0  0  0  0  0  0  0
  145.3901  131.3840  148.5587 H   0  0  0  0  0  0  0  0  0  0  0  0
  145.4262  131.5310  150.3053 H   0  0  0  0  0  0  0  0  0  0  0  0
  146.0522  132.8368  149.2975 H   0  0  0  0  0  0  0  0  0  0  0  0
  143.7487  133.1686  148.3376 H   0  0  0  0  0  0  0  0  0  0  0  0
  143.0928  131.9795  149.4370 H   0  0  0  0  0  0  0  0  0  0  0  0
  142.1604  132.7528  151.3720 H   0  0  0  0  0  0  0  0  0  0  0  0
  143.7588  132.5466  152.0606 H   0  0  0  0  0  0  0  0  0  0  0  0
  142.0250  135.0717  152.1753 H   0  0  0  0  0  0  0  0  0  0  0  0
  142.3744  134.0077  153.5163 H   0  0  0  0  0  0  0  0  0  0  0  0
  143.8095  136.0665  153.5525 H   0  0  0  0  0  0  0  0  0  0  0  0
  144.7649  134.6036  153.4455 H   0  0  0  0  0  0  0  0  0  0  0  0
  143.9741  136.4015  151.1069 H   0  0  0  0  0  0  0  0  0  0  0  0
  146.7613  136.0895  151.4099 H   0  0  0  0  0  0  0  0  0  0  0  0
  148.0280  137.4311  152.1934 H   0  0  0  0  0  0  0  0  0  0  0  0
  147.8973  139.9113  152.8481 H   0  0  0  0  0  0  0  0  0  0  0  0
  147.0429  139.3367  154.2615 H   0  0  0  0  0  0  0  0  0  0  0  0
  149.0778  137.8684  154.8119 H   0  0  0  0  0  0  0  0  0  0  0  0
  149.9136  138.5903  153.4555 H   0  0  0  0  0  0  0  0  0  0  0  0
  151.9182  142.0103  155.9582 H   0  0  0  0  0  0  0  0  0  0  0  0
  149.7902  142.3639  157.5715 H   0  0  0  0  0  0  0  0  0  0  0  0
  145.6968  133.8797  151.0502 H   0  0  0  0  0  0  0  0  0  0  0  0
  145.3633  134.9480  149.7033 H   0  0  0  0  0  0  0  0  0  0  0  0
  143.0358  134.4554  149.9691 H   0  0  0  0  0  0  0  0  0  0  0  0
  1  2  1  0  0  0  0
  1 20  1  0  0  0  0
  1 21  1  0  0  0  0
  1 22  1  0  0  0  0
  2  3  1  0  0  0  0
  2 23  1  0  0  0  0
  2 24  1  0  0  0  0
  3 19  1  0  0  0  0
  3  4  1  0  0  0  0
  3 42  1  0  0  0  0
  4  5  1  0  0  0  0
  4 25  1  0  0  0  0
  4 26  1  0  0  0  0
  5  6  1  0  0  0  0
  5 27  1  0  0  0  0
  5 28  1  0  0  0  0
  6  7  1  0  0  0  0
  6 29  1  0  0  0  0
  6 30  1  0  0  0  0
  7  8  1  0  0  0  0
  7 19  1  0  0  0  0
  7 31  1  0  0  0  0
  8  9  1  0  0  0  0
  8 32  1  0  0  0  0
  9 10  2  0  0  0  0
  9 11  1  0  0  0  0
 11 12  1  0  0  0  0
 11 33  1  0  0  0  0
 12 13  1  0  0  0  0
 12 34  1  0  0  0  0
 12 35  1  0  0  0  0
 13 14  1  0  0  0  0
 13 36  1  0  0  0  0
 13 37  1  0  0  0  0
 14 18  1  0  0  0  0
 14 15  2  0  0  0  0
 15 16  1  0  0  0  0
 16 17  2  0  0  0  0
 16 38  1  0  0  0  0
 17 18  1  0  0  0  0
 17 39  1  0  0  0  0
 19 40  1  0  0  0  0
 19 41  1  0  0  0  0
M  CHG  1   3   1
M  END
> <s_m_source_file>
AV-unprocessed.smi

> <i_m_source_file_index>
1833

> <i_lp_mmshare_version>
43012

> <i_f3d_flags>
0

> <s_epik_input>
W0NIM11bQ0gyXU4xW0NIMl1bQ0gyXVtDSDJdW0NASF0oW0NIMl0xKVtOSF1DKD1PKVtOSF1bQ0gyXVtDSDJdYzJuW2NIXVtjSF1zMg==

> <s_epik_cmdline>
J2VwaWtfcHl0aG9uJywgJy1waCcsICc3LjAnLCAnLXRuJywgJzgnLCAnLW1hJywgJzIwMCcsICctbWV0YWxfYmluZGluZycsICctaW1hZScsICc8aW5maWxlLm1hZT4nLCAnLW9tYWUnLCAnPG91dGZpbGUubWFlPic=

> <r_lp_tautomer_probability>
1

> <r_epik_Ionization_Penalty>
0.00269629

> <r_epik_Ionization_Penalty_Charging>
0.00233899

> <r_epik_Ionization_Penalty_Neutral>
0.000357304

> <r_epik_State_Penalty>
-0

> <r_epik_Charging_Adjusted_Penalty>
0.00233899

> <i_epik_Tot_Q>
1

> <i_epik_Tot_abs_Q>
1

> <r_epik_Metal_State_Penalty>
-0

> <b_epik_Metal_Only>
0

> <s_lp_Force_Field>
OPLS_2005

> <r_lp_Energy>
7.28856

> <b_lp_Chiralities_Consistent>
1

> <s_lp_Variant>
AV-unprocessed.smi:1833-1

> <Gold.Version>
5.8.1

> <Gold.Id.Protein>
6NUR|6NUR_protein|mol2

> <Gold.PLP.Fitness>
43.9316

> <Gold.PLP.PLP>
-33.7839

> <Gold.PLP.part.hbond>
-3.8565

> <Gold.PLP.part.metal>
0.0000

> <Gold.PLP.part.buried>
-3.9119

> <Gold.PLP.part.nonpolar>
-27.1807

> <Gold.PLP.part.repulsive>
1.2279

> <Gold.PLP.ligand.clash>
0.0000

> <Gold.PLP.ligand.torsion>
0.5532

> <Gold.PLP.Chemscore.Hbond>
3.7342

> <Gold.PLP.Chemscore.CHOScore>
0.0000

> <Gold.PLP.Chemscore.Metal>
0.0000

> <Gold.Chemscore.Hbonds>
donor molecule, donor type, donor heavy atom, donor atom, acceptor molecule, acceptor atom, score
      L1  H     3    42       P1 10186  1.31
      L1  H     8    32       P1  7948  0.40
      L1  H    11    33       P1  7948  1.00
      P1  H  7989  7998       L1    15  1.00

> <Gold.PLP.Chemscore.Internal.Correction>
0.0516

> <Gold.Rescore>
     Score         DG    S(hbond)    S(metal)    S(lipo)     H(rot)  DE(clash)    DE(int)     intcor
     18.76     -20.58       2.87        0.00      84.78       1.71       0.51       1.31       ----

> <Gold.Chemscore.Fitness>
18.7635

> <Gold.Chemscore.DG>
-20.5797

> <Gold.Chemscore.ZeroCoef>
-5.4800

> <Gold.Chemscore.Hbond>
2.8653

> <Gold.Chemscore.Metal>
0.0000

> <Gold.Chemscore.Lipo>
84.7782

> <Gold.Chemscore.Internal_Hbond>
0.0000

> <Gold.Chemscore.DEClash>
0.5077

> <Gold.Chemscore.DEInternal>
1.3085

> <Gold.Chemscore.Rot>
1.7147

> <Gold.Chemscore.Internal.Correction>
   9.000000E+99

> <Gold.Chemscore.Hbonds>
donor molecule, donor type, donor heavy atom, donor atom, acceptor molecule, acceptor atom, score
      L1  H     3    42       P1 10186  0.58
      L1  H     8    32       P1  7948  0.39
      L1  H    11    33       P1  7948  0.92
      P1  H  7989  7998       L1    15  0.72

> <Gold.Chemscore.Hbond.Weighted>
-9.5702

> <Gold.Chemscore.Metal.Weighted>
-0.0000

> <Gold.Chemscore.Lipo.Weighted>
-9.9190

> <Gold.Chemscore.Internal_Hbond.Weighted>
0.0000

> <Gold.Chemscore.DEClash.Weighted>
0.5077

> <Gold.Chemscore.DEInternal.Weighted>
1.3085

> <Gold.Chemscore.Rot.Weighted>
4.3896

> <Gold.Chemscore.Internal.Correction.Weighted>
   9.000000E+99

> <Gold.Protein.RotatedTorsions>
[ 6907 6896 6895 6894 ] final -144.37 input  -60.11 | X-H torsion
[ 7974 7965 7964 7962 ] final  -95.18 input  175.53 | X-H torsion
[ 8008 7997 7996 7995 ] final -163.85 input   59.86 | X-H torsion
[ 10167 10162 10161 10158 ] final  130.27 input  -65.29 | X-H torsion
[ 10718 10713 10712 10709 ] final   80.29 input   66.30 | X-H torsion
[ 10763 10752 10751 10750 ] final    5.63 input  -60.55 | X-H torsion
[ 11005 11000 10999 10996 ] final -128.71 input  -57.11 | X-H torsion

> <Gold.Protein.ActiveResidues>
 VAL166  LYS551  ARG553  GLY616  TRP617  ASP618  TYR619  PRO620  LYS621  CYS622 
 ASP623  PHE694  ASN695  SER759  ASP760  ASP761  ALA762  ILE779  LEU786  VAL792 
 PHE793  MET794  SER795  GLU796  ALA797  LYS798  CYS799  TRP800  GLU811  SER814 

> <Gold.Protein.RotatedAtoms>
  151.1131  133.5158  159.2604 H   0  0  0  0  0  0  0  0  0  0  0  0  # atno 6907 bound_to 6896
  151.1945  135.0416  159.8856 H   0  0  0  0  0  0  0  0  0  0  0  0  # atno 6908 bound_to 6896
  152.5451  134.0967  159.8353 H   0  0  0  0  0  0  0  0  0  0  0  0  # atno 6909 bound_to 6896
  145.3635  140.9495  143.2487 H   0  0  0  0  0  0  0  0  0  0  0  0  # atno 7974 bound_to 7965
  155.8272  140.0928  157.1814 H   0  0  0  0  0  0  0  0  0  0  0  0  # atno 8008 bound_to 7997
  154.3979  140.1426  156.3631 H   0  0  0  0  0  0  0  0  0  0  0  0  # atno 8009 bound_to 7997
  155.8204  140.3446  155.5513 H   0  0  0  0  0  0  0  0  0  0  0  0  # atno 8010 bound_to 7997
  139.5438  144.6755  151.4540 H   0  0  0  0  0  0  0  0  0  0  0  0  # atno 10167 bound_to 10162
  157.6802  130.9952  150.2057 H   0  0  0  0  0  0  0  0  0  0  0  0  # atno 10718 bound_to 10713
  153.2571  135.6919  153.7618 H   0  0  0  0  0  0  0  0  0  0  0  0  # atno 10763 bound_to 10752
  153.6691  135.3347  155.3149 H   0  0  0  0  0  0  0  0  0  0  0  0  # atno 10764 bound_to 10752
  154.8416  135.4495  154.1548 H   0  0  0  0  0  0  0  0  0  0  0  0  # atno 10765 bound_to 10752
  140.9493  134.1087  157.4077 H   0  0  0  0  0  0  0  0  0  0  0  0  # atno 11005 bound_to 11000
  144.8629  139.5151  143.6804 LP  0  0  0  0  0  0  0  0  0  0  0  0  # atno 17320 bound_to 7965
  146.2917  139.7158  142.9156 LP  0  0  0  0  0  0  0  0  0  0  0  0  # atno 17321 bound_to 7965
  140.6678  143.8360  150.6963 LP  0  0  0  0  0  0  0  0  0  0  0  0  # atno 17342 bound_to 10162
  140.1775  143.4143  152.1957 LP  0  0  0  0  0  0  0  0  0  0  0  0  # atno 17343 bound_to 10162
  156.2738  130.3725  149.8004 LP  0  0  0  0  0  0  0  0  0  0  0  0  # atno 17370 bound_to 10713
  156.5713  130.8426  151.3357 LP  0  0  0  0  0  0  0  0  0  0  0  0  # atno 17371 bound_to 10713
  139.8843  135.0061  156.6358 LP  0  0  0  0  0  0  0  0  0  0  0  0  # atno 17394 bound_to 11000
  140.7624  133.8806  155.8429 LP  0  0  0  0  0  0  0  0  0  0  0  0  # atno 17395 bound_to 11000

$$$$
