AV-unprocessed.smi:72|AV-procd|sdf|696|dock10
  -GOLD-   2262017 13D 1   1.00000     0.00000
 Structure written by MMmdl.
 30 31  0  0  0  0  0  0  0  0  2 V2000
  141.5416  137.4602  156.5144 N   0  0  0  0  0  0  0  0  0  0  0  0
  142.4213  136.9253  155.5966 C   0  0  0  0  0  0  0  0  0  0  0  0
  142.1294  135.6766  155.0775 N   0  3  0  0  0  0  0  0  0  0  0  0
  142.8801  135.0191  154.1831 C   0  0  0  0  0  0  0  0  0  0  0  0
  143.9900  135.5778  153.7455 N   0  0  0  0  0  0  0  0  0  0  0  0
  144.8696  134.8964  152.7261 C   0  0  1  0  0  0  0  0  0  0  0  0
  144.3722  133.6100  152.5040 O   0  0  0  0  0  0  0  0  0  0  0  0
  143.7910  133.5205  151.2051 C   0  0  2  0  0  0  0  0  0  0  0  0
  143.8295  132.0637  150.7199 C   0  0  0  0  0  0  0  0  0  0  0  0
  143.0324  131.9227  149.5635 O   0  0  0  0  0  0  0  0  0  0  0  0
  144.6836  134.4632  150.3996 C   0  0  1  0  0  0  0  0  0  0  0  0
  144.1158  134.8534  149.1631 O   0  0  0  0  0  0  0  0  0  0  0  0
  144.8852  135.6263  151.3643 C   0  0  1  0  0  0  0  0  0  0  0  0
  143.8618  136.6038  151.2379 O   0  0  0  0  0  0  0  0  0  0  0  0
  144.3658  136.8643  154.2096 C   0  0  0  0  0  0  0  0  0  0  0  0
  145.3876  137.4049  153.7876 O   0  0  0  0  0  0  0  0  0  0  0  0
  143.5192  137.4698  155.1497 N   0  0  0  0  0  0  0  0  0  0  0  0
  145.8551  134.7985  153.1845 H   0  0  0  0  0  0  0  0  0  0  0  0
  142.7699  133.9061  151.2171 H   0  0  0  0  0  0  0  0  0  0  0  0
  145.6444  133.9812  150.2111 H   0  0  0  0  0  0  0  0  0  0  0  0
  145.8510  136.1107  151.2158 H   0  0  0  0  0  0  0  0  0  0  0  0
  141.6741  138.3650  156.9440 H   0  0  0  0  0  0  0  0  0  0  0  0
  140.6984  136.9985  156.8238 H   0  0  0  0  0  0  0  0  0  0  0  0
  142.5601  134.0455  153.8378 H   0  0  0  0  0  0  0  0  0  0  0  0
  144.8484  131.7831  150.4518 H   0  0  0  0  0  0  0  0  0  0  0  0
  143.4975  131.3757  151.4979 H   0  0  0  0  0  0  0  0  0  0  0  0
  142.1248  131.8930  149.8262 H   0  0  0  0  0  0  0  0  0  0  0  0
  144.8117  135.1264  148.5847 H   0  0  0  0  0  0  0  0  0  0  0  0
  144.1422  137.2508  150.6079 H   0  0  0  0  0  0  0  0  0  0  0  0
  141.2831  135.2283  155.3984 H   0  0  0  0  0  0  0  0  0  0  0  0
  1  2  1  0  0  0  0
  1 22  1  0  0  0  0
  1 23  1  0  0  0  0
  2 17  2  0  0  0  0
  2  3  1  0  0  0  0
  3  4  2  0  0  0  0
  3 30  1  0  0  0  0
  4  5  1  0  0  0  0
  4 24  1  0  0  0  0
  5  6  1  0  0  0  0
  5 15  1  0  0  0  0
  6 18  1  0  0  0  0
  6 13  1  0  0  0  0
  6  7  1  0  0  0  0
  7  8  1  0  0  0  0
  8 19  1  0  0  0  0
  8  9  1  0  0  0  0
  8 11  1  0  0  0  0
  9 10  1  0  0  0  0
  9 25  1  0  0  0  0
  9 26  1  0  0  0  0
 10 27  1  0  0  0  0
 11 20  1  0  0  0  0
 11 12  1  0  0  0  0
 11 13  1  0  0  0  0
 12 28  1  0  0  0  0
 13 21  1  0  0  0  0
 13 14  1  0  0  0  0
 14 29  1  0  0  0  0
 15 16  2  0  0  0  0
 15 17  1  0  0  0  0
M  CHG  1   3   1
M  END
> <s_m_source_file>
AV-unprocessed.smi

> <i_m_source_file_index>
72

> <i_lp_mmshare_version>
43012

> <i_f3d_flags>
0

> <s_epik_input>
W05IMl1jMW5bY0hdbihjKD1PKW4xKVtDQEBIXTJPW0NASF0oW0NIMl1bT0hdKVtDQEBIXShbT0hdKVtDQEhdMltPSF0=

> <s_epik_cmdline>
J2VwaWtfcHl0aG9uJywgJy1waCcsICc3LjAnLCAnLXRuJywgJzgnLCAnLW1hJywgJzIwMCcsICctbWV0YWxfYmluZGluZycsICctaW1hZScsICc8aW5maWxlLm1hZT4nLCAnLW9tYWUnLCAnPG91dGZpbGUubWFlPic=

> <r_lp_tautomer_probability>
4.77166e-05

> <r_epik_Ionization_Penalty>
0.104979

> <r_epik_Ionization_Penalty_Charging>
0.0999619

> <r_epik_Ionization_Penalty_Neutral>
0.00501745

> <r_epik_State_Penalty>
2.51541

> <r_epik_Charging_Adjusted_Penalty>
2.61537

> <i_epik_Tot_Q>
1

> <i_epik_Tot_abs_Q>
1

> <r_epik_Metal_State_Penalty>
3.53763

> <b_epik_Metal_Only>
0

> <s_epik_Chemistry_Notes>
This compound contains an acetal/aminal-like group ( X-CH(R)-Y where X, Y are N, S, or O) that may be acid/base labile, releasing an aldehyde.

> <s_lp_Force_Field>
OPLS_2005

> <r_lp_Energy>
36.6563

> <b_lp_Chiralities_Consistent>
1

> <s_lp_Variant>
AV-unprocessed.smi:72-34

> <Gold.Version>
5.8.1

> <Gold.Id.Protein>
6NUR|6NUR_protein|mol2

> <Gold.PLP.Fitness>
37.7315

> <Gold.PLP.PLP>
-21.3376

> <Gold.PLP.part.hbond>
-5.6755

> <Gold.PLP.part.metal>
0.0000

> <Gold.PLP.part.buried>
-4.1421

> <Gold.PLP.part.nonpolar>
-12.6119

> <Gold.PLP.part.repulsive>
0.3272

> <Gold.PLP.ligand.clash>
0.0000

> <Gold.PLP.ligand.torsion>
0.1896

> <Gold.PLP.Chemscore.Hbond>
4.5520

> <Gold.PLP.Chemscore.CHOScore>
1.0000

> <Gold.PLP.Chemscore.Metal>
0.0000

> <Gold.Chemscore.Hbonds>
donor molecule, donor type, donor heavy atom, donor atom, acceptor molecule, acceptor atom, score
      L1  H     3    30       P1 11000  1.00
      L1  H    10    27       P1 10952  0.56
      L1  H    12    28       P1  7921  1.00
      L1  H    14    29       P1 10171  0.99
      P1  H 10785 10796       L1    10  1.00
      L1  C     4    24       P1 10957  1.00

> <Gold.PLP.Chemscore.Internal.Correction>
0.1170

> <Gold.Rescore>
     Score         DG    S(hbond)    S(metal)    S(lipo)     H(rot)  DE(clash)    DE(int)     intcor
      9.98     -10.56       3.64        0.00      28.82       4.08       0.21       0.38       ----

> <Gold.Chemscore.Fitness>
9.9781

> <Gold.Chemscore.DG>
-10.5616

> <Gold.Chemscore.ZeroCoef>
-5.4800

> <Gold.Chemscore.Hbond>
3.6378

> <Gold.Chemscore.Metal>
0.0000

> <Gold.Chemscore.Lipo>
28.8179

> <Gold.Chemscore.Internal_Hbond>
0.0000

> <Gold.Chemscore.DEClash>
0.2079

> <Gold.Chemscore.DEInternal>
0.3757

> <Gold.Chemscore.Rot>
4.0783

> <Gold.Chemscore.Internal.Correction>
   9.000000E+99

> <Gold.Chemscore.Hbonds>
donor molecule, donor type, donor heavy atom, donor atom, acceptor molecule, acceptor atom, score
      L1  H     3    30       P1 11000  0.29
      L1  H    10    27       P1 10952  0.51
      L1  H    12    28       P1  7921  0.97
      L1  H    14    29       P1 10171  0.90
      P1  H 10785 10796       L1    10  0.21

> <Gold.Chemscore.Hbond.Weighted>
-12.1504

> <Gold.Chemscore.Metal.Weighted>
-0.0000

> <Gold.Chemscore.Lipo.Weighted>
-3.3717

> <Gold.Chemscore.Internal_Hbond.Weighted>
0.0000

> <Gold.Chemscore.DEClash.Weighted>
0.2079

> <Gold.Chemscore.DEInternal.Weighted>
0.3757

> <Gold.Chemscore.Rot.Weighted>
10.4404

> <Gold.Chemscore.Internal.Correction.Weighted>
   9.000000E+99

> <Gold.Protein.RotatedTorsions>
[ 6907 6896 6895 6894 ] final   29.77 input  -60.11 | X-H torsion
[ 7974 7965 7964 7962 ] final -165.69 input  175.53 | X-H torsion
[ 8008 7997 7996 7995 ] final  -26.96 input   59.86 | X-H torsion
[ 10167 10162 10161 10158 ] final  -45.30 input  -65.29 | X-H torsion
[ 10718 10713 10712 10709 ] final   25.24 input   66.30 | X-H torsion
[ 10763 10752 10751 10750 ] final -114.99 input  -60.55 | X-H torsion
[ 11005 11000 10999 10996 ] final -157.08 input  -57.11 | X-H torsion

> <Gold.Protein.ActiveResidues>
 VAL166  LYS551  ARG553  GLY616  TRP617  ASP618  TYR619  PRO620  LYS621  CYS622 
 ASP623  PHE694  ASN695  SER759  ASP760  ASP761  ALA762  ILE779  LEU786  VAL792 
 PHE793  MET794  SER795  GLU796  ALA797  LYS798  CYS799  TRP800  GLU811  SER814 

> <Gold.Protein.RotatedAtoms>
  152.0363  134.9738  160.0573 H   0  0  0  0  0  0  0  0  0  0  0  0  # atno 6907 bound_to 6896
  152.1194  133.4340  159.4676 H   0  0  0  0  0  0  0  0  0  0  0  0  # atno 6908 bound_to 6896
  150.6848  134.2472  159.4539 H   0  0  0  0  0  0  0  0  0  0  0  0  # atno 6909 bound_to 6896
  144.7263  140.2777  143.6241 H   0  0  0  0  0  0  0  0  0  0  0  0  # atno 7974 bound_to 7965
  154.4400  140.1885  156.0857 H   0  0  0  0  0  0  0  0  0  0  0  0  # atno 8008 bound_to 7997
  156.0405  140.3320  155.7212 H   0  0  0  0  0  0  0  0  0  0  0  0  # atno 8009 bound_to 7997
  155.5707  140.0612  157.2798 H   0  0  0  0  0  0  0  0  0  0  0  0  # atno 8010 bound_to 7997
  140.6863  143.2886  151.3619 H   0  0  0  0  0  0  0  0  0  0  0  0  # atno 10167 bound_to 10162
  157.1907  130.6845  149.6149 H   0  0  0  0  0  0  0  0  0  0  0  0  # atno 10718 bound_to 10713
  154.8463  135.4398  154.1592 H   0  0  0  0  0  0  0  0  0  0  0  0  # atno 10763 bound_to 10752
  153.2733  135.6947  153.7465 H   0  0  0  0  0  0  0  0  0  0  0  0  # atno 10764 bound_to 10752
  153.6697  135.3421  155.3125 H   0  0  0  0  0  0  0  0  0  0  0  0  # atno 10765 bound_to 10752
  140.6685  134.4273  157.5232 H   0  0  0  0  0  0  0  0  0  0  0  0  # atno 11005 bound_to 11000
  145.7981  139.1953  143.2064 LP  0  0  0  0  0  0  0  0  0  0  0  0  # atno 17320 bound_to 7965
  146.0700  140.7879  142.9693 LP  0  0  0  0  0  0  0  0  0  0  0  0  # atno 17321 bound_to 7965
  139.6225  144.0879  152.2404 LP  0  0  0  0  0  0  0  0  0  0  0  0  # atno 17342 bound_to 10162
  140.0327  144.6068  150.7474 LP  0  0  0  0  0  0  0  0  0  0  0  0  # atno 17343 bound_to 10162
  155.9712  130.4615  150.6114 LP  0  0  0  0  0  0  0  0  0  0  0  0  # atno 17370 bound_to 10713
  157.3863  131.0789  151.1433 LP  0  0  0  0  0  0  0  0  0  0  0  0  # atno 17371 bound_to 10713
  139.8989  134.8602  156.1981 LP  0  0  0  0  0  0  0  0  0  0  0  0  # atno 17394 bound_to 11000
  141.0410  133.6937  156.1599 LP  0  0  0  0  0  0  0  0  0  0  0  0  # atno 17395 bound_to 11000

$$$$
