AV-unprocessed.smi:255|AV-procd|sdf|1956|dock10
  -GOLD-   2262021103D 1   1.00000     0.00000
 Structure written by MMmdl.
 44 47  0  0  0  0  0  0  0  0  1 V2000
  151.6338  137.2182  153.9418 O   0  0  0  0  0  0  0  0  0  0  0  0
  150.6157  137.4925  154.8799 C   0  0  0  0  0  0  0  0  0  0  0  0
  150.5152  139.0149  155.1183 C   0  0  1  0  0  0  0  0  0  0  0  0
  149.7432  139.7884  154.0484 C   0  0  0  0  0  0  0  0  0  0  0  0
  149.5093  141.1351  154.7333 C   0  0  1  0  0  0  0  0  0  0  0  0
  148.3401  141.6681  154.3791 F   0  0  0  0  0  0  0  0  0  0  0  0
  149.5799  140.8388  156.2414 C   0  0  0  0  0  0  0  0  0  0  0  0
  149.9091  139.4208  156.3879 N   0  0  0  0  0  0  0  0  0  0  0  0
  148.9066  138.6410  156.8645 C   0  0  0  0  0  0  0  0  0  0  0  0
  147.7079  138.5806  156.2244 N   0  0  0  0  0  0  0  0  0  0  0  0
  146.7357  137.7954  156.6981 C   0  0  0  0  0  0  0  0  0  0  0  0
  146.7516  137.0017  157.7712 N   0  0  0  0  0  0  0  0  0  0  0  0
  147.9559  137.0547  158.4098 C   0  0  0  0  0  0  0  0  0  0  0  0
  149.0760  137.8440  158.0271 C   0  0  0  0  0  0  0  0  0  0  0  0
  150.1254  137.6475  158.9150 N   0  0  0  0  0  0  0  0  0  0  0  0
  149.6511  136.7911  159.7783 C   0  0  0  0  0  0  0  0  0  0  0  0
  148.3596  136.3734  159.5453 N   0  0  0  0  0  0  0  0  0  0  0  0
  147.5909  135.4333  160.3459 C   0  0  0  0  0  0  0  0  0  0  0  0
  146.9255  136.0651  161.5954 C   0  0  2  0  0  0  0  0  0  0  0  0
  147.6452  137.2173  161.9908 O   0  0  0  0  0  0  0  0  0  0  0  0
  146.8537  135.0898  162.7589 C   0  0  0  0  0  0  0  0  0  0  0  0
  145.5665  134.3179  162.4766 C   0  0  0  0  0  0  0  0  0  0  0  0
  144.7289  135.2065  161.7426 O   0  0  0  0  0  0  0  0  0  0  0  0
  145.4382  136.3988  161.4206 C   0  0  0  0  0  0  0  0  0  0  0  0
  151.5342  139.4047  155.1480 H   0  0  0  0  0  0  0  0  0  0  0  0
  150.2871  141.8471  154.4557 H   0  0  0  0  0  0  0  0  0  0  0  0
  151.2330  137.0676  153.0995 H   0  0  0  0  0  0  0  0  0  0  0  0
  149.6755  137.0798  154.5124 H   0  0  0  0  0  0  0  0  0  0  0  0
  150.8610  136.9749  155.8078 H   0  0  0  0  0  0  0  0  0  0  0  0
  150.2907  139.8822  153.1103 H   0  0  0  0  0  0  0  0  0  0  0  0
  148.7925  139.2970  153.8368 H   0  0  0  0  0  0  0  0  0  0  0  0
  150.3673  141.4322  156.7071 H   0  0  0  0  0  0  0  0  0  0  0  0
  148.6484  141.1042  156.7441 H   0  0  0  0  0  0  0  0  0  0  0  0
  145.8137  137.8032  156.1357 H   0  0  0  0  0  0  0  0  0  0  0  0
  150.2368  136.4335  160.6128 H   0  0  0  0  0  0  0  0  0  0  0  0
  146.8366  134.9830  159.6996 H   0  0  0  0  0  0  0  0  0  0  0  0
  148.2550  134.6215  160.6457 H   0  0  0  0  0  0  0  0  0  0  0  0
  147.3614  137.4667  162.8569 H   0  0  0  0  0  0  0  0  0  0  0  0
  147.7294  134.4453  162.8446 H   0  0  0  0  0  0  0  0  0  0  0  0
  146.7446  135.6284  163.7019 H   0  0  0  0  0  0  0  0  0  0  0  0
  145.7699  133.4420  161.8599 H   0  0  0  0  0  0  0  0  0  0  0  0
  145.0796  133.9792  163.3913 H   0  0  0  0  0  0  0  0  0  0  0  0
  145.1326  137.1594  162.1412 H   0  0  0  0  0  0  0  0  0  0  0  0
  145.1764  136.7713  160.4314 H   0  0  0  0  0  0  0  0  0  0  0  0
  1  2  1  0  0  0  0
  1 27  1  0  0  0  0
  2  3  1  0  0  0  0
  2 28  1  0  0  0  0
  2 29  1  0  0  0  0
  3 25  1  0  0  0  0
  3  8  1  0  0  0  0
  3  4  1  0  0  0  0
  4  5  1  0  0  0  0
  4 30  1  0  0  0  0
  4 31  1  0  0  0  0
  5 26  1  0  0  0  0
  5  6  1  0  0  0  0
  5  7  1  0  0  0  0
  7  8  1  0  0  0  0
  7 32  1  0  0  0  0
  7 33  1  0  0  0  0
  8  9  1  0  0  0  0
  9 14  1  0  0  0  0
  9 10  2  0  0  0  0
 10 11  1  0  0  0  0
 11 12  2  0  0  0  0
 11 34  1  0  0  0  0
 12 13  1  0  0  0  0
 13 17  1  0  0  0  0
 13 14  2  0  0  0  0
 14 15  1  0  0  0  0
 15 16  2  0  0  0  0
 16 17  1  0  0  0  0
 16 35  1  0  0  0  0
 17 18  1  0  0  0  0
 18 19  1  0  0  0  0
 18 36  1  0  0  0  0
 18 37  1  0  0  0  0
 19 24  1  0  0  0  0
 19 20  1  0  0  0  0
 19 21  1  0  0  0  0
 20 38  1  0  0  0  0
 21 22  1  0  0  0  0
 21 39  1  0  0  0  0
 21 40  1  0  0  0  0
 22 23  1  0  0  0  0
 22 41  1  0  0  0  0
 22 42  1  0  0  0  0
 23 24  1  0  0  0  0
 24 43  1  0  0  0  0
 24 44  1  0  0  0  0
M  END
> <s_m_source_file>
AV-unprocessed.smi

> <i_m_source_file_index>
255

> <i_lp_mmshare_version>
43012

> <i_f3d_flags>
0

> <s_epik_input>
W09IXVtDSDJdW0NAQEhdMVtDSDJdW0NASF0oRilbQ0gyXU4xYyhuW2NIXW4yKWMoYzIzKW5bY0hdbjNbQ0gyXVtDQEBdNChbT0hdKVtDSDJdW0NIMl1PW0NIMl00

> <s_epik_cmdline>
J2VwaWtfcHl0aG9uJywgJy1waCcsICc3LjAnLCAnLXRuJywgJzgnLCAnLW1hJywgJzIwMCcsICctbWV0YWxfYmluZGluZycsICctaW1hZScsICc8aW5maWxlLm1hZT4nLCAnLW9tYWUnLCAnPG91dGZpbGUubWFlPic=

> <r_lp_tautomer_probability>
1

> <r_epik_Ionization_Penalty>
0.0058098

> <r_epik_Ionization_Penalty_Charging>
0

> <r_epik_Ionization_Penalty_Neutral>
0.0058098

> <r_epik_State_Penalty>
0.00411166

> <r_epik_Charging_Adjusted_Penalty>
0.00411166

> <i_epik_Tot_Q>
0

> <i_epik_Tot_abs_Q>
0

> <r_epik_Metal_State_Penalty>
-0

> <b_epik_Metal_Only>
0

> <s_lp_Force_Field>
OPLS_2005

> <r_lp_Energy>
54.0655

> <b_lp_Chiralities_Consistent>
1

> <s_lp_Variant>
AV-unprocessed.smi:255-8

> <Gold.Version>
5.8.1

> <Gold.Id.Protein>
6NUR|6NUR_protein|mol2

> <Gold.PLP.Fitness>
42.2958

> <Gold.PLP.PLP>
-34.6988

> <Gold.PLP.part.hbond>
-4.0000

> <Gold.PLP.part.metal>
0.0000

> <Gold.PLP.part.buried>
-0.5891

> <Gold.PLP.part.nonpolar>
-29.4716

> <Gold.PLP.part.repulsive>
0.0000

> <Gold.PLP.ligand.clash>
0.0000

> <Gold.PLP.ligand.torsion>
1.3501

> <Gold.PLP.Chemscore.Hbond>
3.4120

> <Gold.PLP.Chemscore.CHOScore>
0.0000

> <Gold.PLP.Chemscore.Metal>
0.0000

> <Gold.Chemscore.Hbonds>
donor molecule, donor type, donor heavy atom, donor atom, acceptor molecule, acceptor atom, score
      L1  H     1    27       P1  7949  0.94
      P1  H  6931  6943       L1    20  0.78
      P1  H  6934  6947       L1    20  0.45
      P1  H 10752 10763       L1     1  0.98

> <Gold.PLP.Chemscore.Internal.Correction>
0.0612

> <Gold.Rescore>
     Score         DG    S(hbond)    S(metal)    S(lipo)     H(rot)  DE(clash)    DE(int)     intcor
      8.68     -10.26       1.65        0.00      66.44       3.33       0.19       1.38       ----

> <Gold.Chemscore.Fitness>
8.6767

> <Gold.Chemscore.DG>
-10.2550

> <Gold.Chemscore.ZeroCoef>
-5.4800

> <Gold.Chemscore.Hbond>
1.6526

> <Gold.Chemscore.Metal>
0.0000

> <Gold.Chemscore.Lipo>
66.4395

> <Gold.Chemscore.Internal_Hbond>
0.0000

> <Gold.Chemscore.DEClash>
0.1947

> <Gold.Chemscore.DEInternal>
1.3837

> <Gold.Chemscore.Rot>
3.3273

> <Gold.Chemscore.Internal.Correction>
   9.000000E+99

> <Gold.Chemscore.Hbonds>
donor molecule, donor type, donor heavy atom, donor atom, acceptor molecule, acceptor atom, score
      L1  H     1    27       P1  7949  0.54
      P1  H  6931  6943       L1    20  0.11
      P1  H  6934  6947       L1    20  0.10
      P1  H 10752 10763       L1     1  0.40

> <Gold.Chemscore.Hbond.Weighted>
-5.5195

> <Gold.Chemscore.Metal.Weighted>
-0.0000

> <Gold.Chemscore.Lipo.Weighted>
-7.7734

> <Gold.Chemscore.Internal_Hbond.Weighted>
0.0000

> <Gold.Chemscore.DEClash.Weighted>
0.1947

> <Gold.Chemscore.DEInternal.Weighted>
1.3837

> <Gold.Chemscore.Rot.Weighted>
8.5179

> <Gold.Chemscore.Internal.Correction.Weighted>
   9.000000E+99

> <Gold.Protein.RotatedTorsions>
[ 6907 6896 6895 6894 ] final  129.50 input  -60.11 | X-H torsion
[ 7974 7965 7964 7962 ] final  -83.02 input  175.53 | X-H torsion
[ 8008 7997 7996 7995 ] final  166.09 input   59.86 | X-H torsion
[ 10167 10162 10161 10158 ] final  136.00 input  -65.29 | X-H torsion
[ 10718 10713 10712 10709 ] final -141.20 input   66.30 | X-H torsion
[ 10763 10752 10751 10750 ] final   31.35 input  -60.55 | X-H torsion
[ 11005 11000 10999 10996 ] final -160.94 input  -57.11 | X-H torsion

> <Gold.Protein.ActiveResidues>
 VAL166  LYS551  ARG553  GLY616  TRP617  ASP618  TYR619  PRO620  LYS621  CYS622 
 ASP623  PHE694  ASN695  SER759  ASP760  ASP761  ALA762  ILE779  LEU786  VAL792 
 PHE793  MET794  SER795  GLU796  ALA797  LYS798  CYS799  TRP800  GLU811  SER814 

> <Gold.Protein.RotatedAtoms>
  152.3617  133.6306  159.6020 H   0  0  0  0  0  0  0  0  0  0  0  0  # atno 6907 bound_to 6896
  150.7606  133.9412  159.3465 H   0  0  0  0  0  0  0  0  0  0  0  0  # atno 6908 bound_to 6896
  151.7249  135.0888  160.0341 H   0  0  0  0  0  0  0  0  0  0  0  0  # atno 6909 bound_to 6896
  145.5255  140.9527  143.1632 H   0  0  0  0  0  0  0  0  0  0  0  0  # atno 7974 bound_to 7965
  156.1747  140.1653  156.8384 H   0  0  0  0  0  0  0  0  0  0  0  0  # atno 8008 bound_to 7997
  154.5294  140.0760  156.8352 H   0  0  0  0  0  0  0  0  0  0  0  0  # atno 8009 bound_to 7997
  155.3438  140.3386  155.4241 H   0  0  0  0  0  0  0  0  0  0  0  0  # atno 8010 bound_to 7997
  139.5196  144.6487  151.5364 H   0  0  0  0  0  0  0  0  0  0  0  0  # atno 10167 bound_to 10162
  156.3313  130.7587  151.1706 H   0  0  0  0  0  0  0  0  0  0  0  0  # atno 10718 bound_to 10713
  153.0321  135.6441  154.1185 H   0  0  0  0  0  0  0  0  0  0  0  0  # atno 10763 bound_to 10752
  154.0906  135.2866  155.3274 H   0  0  0  0  0  0  0  0  0  0  0  0  # atno 10764 bound_to 10752
  154.6467  135.5440  153.7917 H   0  0  0  0  0  0  0  0  0  0  0  0  # atno 10765 bound_to 10752
  140.6259  134.4701  157.5226 H   0  0  0  0  0  0  0  0  0  0  0  0  # atno 11005 bound_to 11000
  144.7653  139.6859  143.7217 LP  0  0  0  0  0  0  0  0  0  0  0  0  # atno 17320 bound_to 7965
  146.2078  139.5414  142.9701 LP  0  0  0  0  0  0  0  0  0  0  0  0  # atno 17321 bound_to 7965
  140.6283  143.9125  150.6584 LP  0  0  0  0  0  0  0  0  0  0  0  0  # atno 17342 bound_to 10162
  140.2421  143.3656  152.1478 LP  0  0  0  0  0  0  0  0  0  0  0  0  # atno 17343 bound_to 10162
  157.7431  131.0480  150.4975 LP  0  0  0  0  0  0  0  0  0  0  0  0  # atno 17370 bound_to 10713
  156.5141  130.4146  149.6285 LP  0  0  0  0  0  0  0  0  0  0  0  0  # atno 17371 bound_to 10713
  139.9135  134.8295  156.1447 LP  0  0  0  0  0  0  0  0  0  0  0  0  # atno 17394 bound_to 11000
  141.0709  133.6797  156.2139 LP  0  0  0  0  0  0  0  0  0  0  0  0  # atno 17395 bound_to 11000

$$$$
