AV-unprocessed.smi:176|AV-procd|sdf|1434|dock1
  -GOLD-   2262019213D 1   1.00000     0.00000
 Structure written by MMmdl.
 57 61  0  0  0  0  0  0  0  0  1 V2000
  148.2193  132.2879  152.2701 O   0  0  0  0  0  0  0  0  0  0  0  0
  149.4276  132.7388  152.8478 C   0  0  0  0  0  0  0  0  0  0  0  0
  149.2547  133.0198  154.3493 C   0  0  0  0  0  0  0  0  0  0  0  0
  148.7938  131.7300  155.0576 C   0  0  0  0  0  0  0  0  0  0  0  0
  149.8035  130.7410  155.0395 O   0  0  0  0  0  0  0  0  0  0  0  0
  150.4294  133.7605  155.0274 C   0  0  0  0  0  0  0  0  0  0  0  0
  149.4308  134.6243  155.8005 C   0  0  0  0  0  0  0  0  0  0  0  0
  149.7355  135.9850  156.1320 N   0  0  0  0  0  0  0  0  0  0  0  0
  149.9872  137.0126  155.2507 C   0  0  0  0  0  0  0  0  0  0  0  0
  150.1999  138.1771  155.7996 N   0  0  0  0  0  0  0  0  0  0  0  0
  150.0519  137.9416  157.1612 C   0  0  0  0  0  0  0  0  0  0  0  0
  150.1318  138.7616  158.3213 C   0  0  0  0  0  0  0  0  0  0  0  0
  150.4407  140.0807  158.2603 N   0  0  0  0  0  0  0  0  0  0  0  0
  149.3611  140.9344  157.7697 C   0  0  0  0  0  0  0  0  0  0  0  0
  149.6155  142.4068  158.1353 C   0  0  0  0  0  0  0  0  0  0  0  0
  151.0149  142.8887  157.6827 C   0  0  1  0  0  0  0  0  0  0  0  0
  151.0175  142.9103  156.2661 O   0  0  0  0  0  0  0  0  0  0  0  0
  151.3167  144.3387  158.1298 C   0  0  0  0  0  0  0  0  0  0  0  0
  151.5979  144.4564  159.6369 C   0  0  0  0  0  0  0  0  0  0  0  0
  152.7257  143.5068  160.0620 C   0  0  0  0  0  0  0  0  0  0  0  0
  152.3990  142.0561  159.6797 C   0  0  0  0  0  0  0  0  0  0  0  0
  152.1212  141.9093  158.1668 C   0  0  1  0  0  0  0  0  0  0  0  0
  151.7810  140.4480  157.8017 C   0  0  0  0  0  0  0  0  0  0  0  0
  149.8849  138.1736  159.5225 N   0  0  0  0  0  0  0  0  0  0  0  0
  149.5915  136.8714  159.5877 C   0  0  0  0  0  0  0  0  0  0  0  0
  149.4941  135.9870  158.5932 N   0  0  0  0  0  0  0  0  0  0  0  0
  149.7361  136.5721  157.3853 C   0  0  0  0  0  0  0  0  0  0  0  0
  148.4350  134.2836  154.6894 C   0  0  0  0  0  0  0  0  0  0  0  0
  148.4275  131.7300  151.5363 H   0  0  0  0  0  0  0  0  0  0  0  0
  150.2075  131.9999  152.6628 H   0  0  0  0  0  0  0  0  0  0  0  0
  149.7316  133.6421  152.3183 H   0  0  0  0  0  0  0  0  0  0  0  0
  148.5375  131.9230  156.0994 H   0  0  0  0  0  0  0  0  0  0  0  0
  147.8941  131.3216  154.5967 H   0  0  0  0  0  0  0  0  0  0  0  0
  150.6431  131.1707  154.9821 H   0  0  0  0  0  0  0  0  0  0  0  0
  151.0678  133.1405  155.6574 H   0  0  0  0  0  0  0  0  0  0  0  0
  151.0277  134.3462  154.3268 H   0  0  0  0  0  0  0  0  0  0  0  0
  149.1470  134.1409  156.7369 H   0  0  0  0  0  0  0  0  0  0  0  0
  150.0164  136.8714  154.1800 H   0  0  0  0  0  0  0  0  0  0  0  0
  149.2938  140.8236  156.6867 H   0  0  0  0  0  0  0  0  0  0  0  0
  148.3960  140.6272  158.1715 H   0  0  0  0  0  0  0  0  0  0  0  0
  148.8370  143.0341  157.6993 H   0  0  0  0  0  0  0  0  0  0  0  0
  149.5136  142.5115  159.2153 H   0  0  0  0  0  0  0  0  0  0  0  0
  150.2157  143.3140  155.9710 H   0  0  0  0  0  0  0  0  0  0  0  0
  152.1919  144.7089  157.5931 H   0  0  0  0  0  0  0  0  0  0  0  0
  150.4934  144.9992  157.8544 H   0  0  0  0  0  0  0  0  0  0  0  0
  151.8694  145.4837  159.8810 H   0  0  0  0  0  0  0  0  0  0  0  0
  150.6951  144.2370  160.2071 H   0  0  0  0  0  0  0  0  0  0  0  0
  153.6596  143.8098  159.5867 H   0  0  0  0  0  0  0  0  0  0  0  0
  152.8879  143.5803  161.1377 H   0  0  0  0  0  0  0  0  0  0  0  0
  153.2290  141.4103  159.9677 H   0  0  0  0  0  0  0  0  0  0  0  0
  151.5386  141.7171  160.2577 H   0  0  0  0  0  0  0  0  0  0  0  0
  153.0504  142.1660  157.6552 H   0  0  0  0  0  0  0  0  0  0  0  0
  152.5257  139.7792  158.2359 H   0  0  0  0  0  0  0  0  0  0  0  0
  151.8306  140.3156  156.7199 H   0  0  0  0  0  0  0  0  0  0  0  0
  149.4115  136.4822  160.5788 H   0  0  0  0  0  0  0  0  0  0  0  0
  148.4387  135.0199  153.8832 H   0  0  0  0  0  0  0  0  0  0  0  0
  147.4193  134.0914  155.0366 H   0  0  0  0  0  0  0  0  0  0  0  0
  1  2  1  0  0  0  0
  1 29  1  0  0  0  0
  2  3  1  0  0  0  0
  2 30  1  0  0  0  0
  2 31  1  0  0  0  0
  3 28  1  0  0  0  0
  3  4  1  0  0  0  0
  3  6  1  0  0  0  0
  4  5  1  0  0  0  0
  4 32  1  0  0  0  0
  4 33  1  0  0  0  0
  5 34  1  0  0  0  0
  6  7  1  0  0  0  0
  6 35  1  0  0  0  0
  6 36  1  0  0  0  0
  7  8  1  0  0  0  0
  7 28  1  0  0  0  0
  7 37  1  0  0  0  0
  8 27  1  0  0  0  0
  8  9  1  0  0  0  0
  9 10  2  0  0  0  0
  9 38  1  0  0  0  0
 10 11  1  0  0  0  0
 11 27  2  0  0  0  0
 11 12  1  0  0  0  0
 12 13  1  0  0  0  0
 12 24  2  0  0  0  0
 13 23  1  0  0  0  0
 13 14  1  0  0  0  0
 14 15  1  0  0  0  0
 14 39  1  0  0  0  0
 14 40  1  0  0  0  0
 15 16  1  0  0  0  0
 15 41  1  0  0  0  0
 15 42  1  0  0  0  0
 16 22  1  0  0  0  0
 16 17  1  0  0  0  0
 16 18  1  0  0  0  0
 17 43  1  0  0  0  0
 18 19  1  0  0  0  0
 18 44  1  0  0  0  0
 18 45  1  0  0  0  0
 19 20  1  0  0  0  0
 19 46  1  0  0  0  0
 19 47  1  0  0  0  0
 20 21  1  0  0  0  0
 20 48  1  0  0  0  0
 20 49  1  0  0  0  0
 21 22  1  0  0  0  0
 21 50  1  0  0  0  0
 21 51  1  0  0  0  0
 22 23  1  0  0  0  0
 22 52  1  0  0  0  0
 23 53  1  0  0  0  0
 23 54  1  0  0  0  0
 24 25  1  0  0  0  0
 25 26  2  0  0  0  0
 25 55  1  0  0  0  0
 26 27  1  0  0  0  0
 28 56  1  0  0  0  0
 28 57  1  0  0  0  0
M  END
> <s_m_source_file>
AV-unprocessed.smi

> <i_m_source_file_index>
176

> <i_lp_mmshare_version>
43012

> <i_f3d_flags>
0

> <s_epik_input>
W09IXVtDSDJdQzEoW0NIMl1bT0hdKVtDSDJdW0NIXShbQ0gyXTEpbihbY0hdbjIpYyhjMjMpbltjSF1uYzNOKFtDSDJdW0NIMl00KVtDSDJdW0NAQEhdKFtDQF00NVtPSF0pW0NIMl1bQ0gyXVtDSDJdW0NIMl01

> <s_epik_cmdline>
J2VwaWtfcHl0aG9uJywgJy1waCcsICc3LjAnLCAnLXRuJywgJzgnLCAnLW1hJywgJzIwMCcsICctbWV0YWxfYmluZGluZycsICctaW1hZScsICc8aW5maWxlLm1hZT4nLCAnLW9tYWUnLCAnPG91dGZpbGUubWFlPic=

> <r_lp_tautomer_probability>
1

> <r_epik_Ionization_Penalty>
0.00642876

> <r_epik_Ionization_Penalty_Charging>
0

> <r_epik_Ionization_Penalty_Neutral>
0.00642876

> <r_epik_State_Penalty>
0.00467813

> <r_epik_Charging_Adjusted_Penalty>
0.00467813

> <i_epik_Tot_Q>
0

> <i_epik_Tot_abs_Q>
0

> <r_epik_Metal_State_Penalty>
-0

> <b_epik_Metal_Only>
0

> <s_lp_Force_Field>
OPLS_2005

> <r_lp_Energy>
50.7593

> <b_lp_Chiralities_Consistent>
1

> <s_lp_Variant>
AV-unprocessed.smi:176-2

> <Gold.Version>
5.8.1

> <Gold.Id.Protein>
6NUR|6NUR_protein|mol2

> <Gold.PLP.Fitness>
50.7789

> <Gold.PLP.PLP>
-40.3896

> <Gold.PLP.part.hbond>
-3.9802

> <Gold.PLP.part.metal>
0.0000

> <Gold.PLP.part.buried>
-5.6126

> <Gold.PLP.part.nonpolar>
-31.2959

> <Gold.PLP.part.repulsive>
0.0250

> <Gold.PLP.ligand.clash>
0.0000

> <Gold.PLP.ligand.torsion>
0.5369

> <Gold.PLP.Chemscore.Hbond>
2.5177

> <Gold.PLP.Chemscore.CHOScore>
1.0000

> <Gold.PLP.Chemscore.Metal>
0.0000

> <Gold.Chemscore.Hbonds>
donor molecule, donor type, donor heavy atom, donor atom, acceptor molecule, acceptor atom, score
      L1  H     1    29       P1 10747  1.00
      L1  H    17    43       P1  8028  1.00
      P1  H  6896  6909       L1    26  0.60
      L1  C     9    38       P1  7948  0.84

> <Gold.PLP.Chemscore.Internal.Correction>
0.9099

> <Gold.Rescore>
     Score         DG    S(hbond)    S(metal)    S(lipo)     H(rot)  DE(clash)    DE(int)     intcor
     14.31     -15.01       2.03        0.00     104.76       3.71       0.06       0.64       ----

> <Gold.Chemscore.Fitness>
14.3114

> <Gold.Chemscore.DG>
-15.0089

> <Gold.Chemscore.ZeroCoef>
-5.4800

> <Gold.Chemscore.Hbond>
2.0275

> <Gold.Chemscore.Metal>
0.0000

> <Gold.Chemscore.Lipo>
104.7597

> <Gold.Chemscore.Internal_Hbond>
0.0000

> <Gold.Chemscore.DEClash>
0.0624

> <Gold.Chemscore.DEInternal>
0.6351

> <Gold.Chemscore.Rot>
3.7109

> <Gold.Chemscore.Internal.Correction>
   9.000000E+99

> <Gold.Chemscore.Hbonds>
donor molecule, donor type, donor heavy atom, donor atom, acceptor molecule, acceptor atom, score
      L1  H     1    29       P1 10747  0.99
      L1  H    17    43       P1  8028  0.98
      P1  H  6896  6909       L1    26  0.11

> <Gold.Chemscore.Hbond.Weighted>
-6.7720

> <Gold.Chemscore.Metal.Weighted>
-0.0000

> <Gold.Chemscore.Lipo.Weighted>
-12.2569

> <Gold.Chemscore.Internal_Hbond.Weighted>
0.0000

> <Gold.Chemscore.DEClash.Weighted>
0.0624

> <Gold.Chemscore.DEInternal.Weighted>
0.6351

> <Gold.Chemscore.Rot.Weighted>
9.5000

> <Gold.Chemscore.Internal.Correction.Weighted>
   9.000000E+99

> <Gold.Protein.RotatedTorsions>
[ 6907 6896 6895 6894 ] final   36.91 input  -60.11 | X-H torsion
[ 7974 7965 7964 7962 ] final  103.41 input  175.53 | X-H torsion
[ 8008 7997 7996 7995 ] final   -3.16 input   59.86 | X-H torsion
[ 10167 10162 10161 10158 ] final  145.32 input  -65.29 | X-H torsion
[ 10718 10713 10712 10709 ] final  -42.89 input   66.30 | X-H torsion
[ 10763 10752 10751 10750 ] final  -36.90 input  -60.55 | X-H torsion
[ 11005 11000 10999 10996 ] final  166.95 input  -57.11 | X-H torsion

> <Gold.Protein.ActiveResidues>
 VAL166  LYS551  ARG553  GLY616  TRP617  ASP618  TYR619  PRO620  LYS621  CYS622 
 ASP623  PHE694  ASN695  SER759  ASP760  ASP761  ALA762  ILE779  LEU786  VAL792 
 PHE793  MET794  SER795  GLU796  ALA797  LYS798  CYS799  TRP800  GLU811  SER814 

> <Gold.Protein.RotatedAtoms>
  152.1361  134.9098  160.0556 H   0  0  0  0  0  0  0  0  0  0  0  0  # atno 6907 bound_to 6896
  152.0184  133.3884  159.4256 H   0  0  0  0  0  0  0  0  0  0  0  0  # atno 6908 bound_to 6896
  150.6860  134.3574  159.4979 H   0  0  0  0  0  0  0  0  0  0  0  0  # atno 6909 bound_to 6896
  145.3462  139.2450  143.3582 H   0  0  0  0  0  0  0  0  0  0  0  0  # atno 7974 bound_to 7965
  154.6279  140.2516  155.7470 H   0  0  0  0  0  0  0  0  0  0  0  0  # atno 8008 bound_to 7997
  156.2463  140.2913  156.0537 H   0  0  0  0  0  0  0  0  0  0  0  0  # atno 8009 bound_to 7997
  155.1792  140.0388  157.2869 H   0  0  0  0  0  0  0  0  0  0  0  0  # atno 8010 bound_to 7997
  139.4928  144.5910  151.6681 H   0  0  0  0  0  0  0  0  0  0  0  0  # atno 10167 bound_to 10162
  156.2548  130.4191  149.8609 H   0  0  0  0  0  0  0  0  0  0  0  0  # atno 10718 bound_to 10713
  153.8873  135.6815  153.4763 H   0  0  0  0  0  0  0  0  0  0  0  0  # atno 10763 bound_to 10752
  153.1200  135.4744  154.9177 H   0  0  0  0  0  0  0  0  0  0  0  0  # atno 10764 bound_to 10752
  154.7639  135.3218  154.8276 H   0  0  0  0  0  0  0  0  0  0  0  0  # atno 10765 bound_to 10752
  140.2717  134.7821  157.3681 H   0  0  0  0  0  0  0  0  0  0  0  0  # atno 11005 bound_to 11000
  146.2987  140.4069  142.8712 LP  0  0  0  0  0  0  0  0  0  0  0  0  # atno 17320 bound_to 7965
  144.8752  140.7327  143.6021 LP  0  0  0  0  0  0  0  0  0  0  0  0  # atno 17321 bound_to 7965
  140.5537  144.0383  150.6138 LP  0  0  0  0  0  0  0  0  0  0  0  0  # atno 17342 bound_to 10162
  140.3446  143.2999  152.0552 LP  0  0  0  0  0  0  0  0  0  0  0  0  # atno 17343 bound_to 10162
  156.6145  130.8600  151.3462 LP  0  0  0  0  0  0  0  0  0  0  0  0  # atno 17370 bound_to 10713
  157.7228  130.9581  150.1509 LP  0  0  0  0  0  0  0  0  0  0  0  0  # atno 17371 bound_to 10713
  140.1367  134.5025  155.8063 LP  0  0  0  0  0  0  0  0  0  0  0  0  # atno 17394 bound_to 11000
  141.2176  133.6810  156.7136 LP  0  0  0  0  0  0  0  0  0  0  0  0  # atno 17395 bound_to 11000

$$$$
