AV-unprocessed.smi:2059|AV-procd|sdf|8353|dock10
  -GOLD-   2272011 23D 1   1.00000     0.00000
 Structure written by MMmdl.
 29 30  0  0  0  0  0  0  0  0  2 V2000
  143.4324  135.6449  163.2932 C   0  0  0  0  0  0  0  0  0  0  0  0
  144.7251  135.1956  162.7035 C   0  0  0  0  0  0  0  0  0  0  0  0
  145.5446  135.7257  161.7473 C   0  0  0  0  0  0  0  0  0  0  0  0
  146.6084  134.7865  161.6730 C   0  0  0  0  0  0  0  0  0  0  0  0
  147.6867  135.0033  160.7673 N   0  0  0  0  0  0  0  0  0  0  0  0
  148.3346  136.1294  160.3985 C   0  0  0  0  0  0  0  0  0  0  0  0
  147.9264  137.1651  160.9340 O   0  0  0  0  0  0  0  0  0  0  0  0
  149.3497  136.0272  159.4920 N   0  5  0  0  0  0  0  0  0  0  0  0
  150.0236  137.1549  158.8441 C   0  0  1  0  0  0  0  0  0  0  0  0
  151.4995  137.2318  159.2821 C   0  0  0  0  0  0  0  0  0  0  0  0
  152.2456  138.1832  158.3349 C   0  0  0  0  0  0  0  0  0  0  0  0
  151.4177  138.0164  156.7058 S   0  0  0  0  0  0  0  0  0  0  0  0
  150.9422  139.3405  156.2744 O   0  0  0  0  0  0  0  0  0  0  0  0
  152.2458  137.1884  155.8150 O   0  0  0  0  0  0  0  0  0  0  0  0
  150.0027  137.0173  157.3138 C   0  0  0  0  0  0  0  0  0  0  0  0
  146.4466  133.7731  162.5124 N   0  0  0  0  0  0  0  0  0  0  0  0
  145.2417  134.0301  163.1763 O   0  0  0  0  0  0  0  0  0  0  0  0
  142.9064  136.3143  162.6124 H   0  0  0  0  0  0  0  0  0  0  0  0
  143.6007  136.1777  164.2290 H   0  0  0  0  0  0  0  0  0  0  0  0
  142.7822  134.7945  163.4993 H   0  0  0  0  0  0  0  0  0  0  0  0
  145.4043  136.6406  161.1911 H   0  0  0  0  0  0  0  0  0  0  0  0
  148.0196  134.1669  160.3116 H   0  0  0  0  0  0  0  0  0  0  0  0
  149.5594  138.1081  159.1026 H   0  0  0  0  0  0  0  0  0  0  0  0
  151.5976  137.5470  160.3214 H   0  0  0  0  0  0  0  0  0  0  0  0
  151.9523  136.2416  159.2067 H   0  0  0  0  0  0  0  0  0  0  0  0
  152.1531  139.2205  158.6604 H   0  0  0  0  0  0  0  0  0  0  0  0
  153.3045  137.9420  158.2447 H   0  0  0  0  0  0  0  0  0  0  0  0
  150.1685  135.9840  157.0067 H   0  0  0  0  0  0  0  0  0  0  0  0
  149.0722  137.3688  156.8684 H   0  0  0  0  0  0  0  0  0  0  0  0
  1  2  1  0  0  0  0
  1 18  1  0  0  0  0
  1 19  1  0  0  0  0
  1 20  1  0  0  0  0
  2 17  1  0  0  0  0
  2  3  2  0  0  0  0
  3  4  1  0  0  0  0
  3 21  1  0  0  0  0
  4  5  1  0  0  0  0
  4 16  2  0  0  0  0
  5  6  1  0  0  0  0
  5 22  1  0  0  0  0
  6  7  2  0  0  0  0
  6  8  1  0  0  0  0
  8  9  1  0  0  0  0
  9 15  1  0  0  0  0
  9 10  1  0  0  0  0
  9 23  1  0  0  0  0
 10 11  1  0  0  0  0
 10 24  1  0  0  0  0
 10 25  1  0  0  0  0
 11 12  1  0  0  0  0
 11 26  1  0  0  0  0
 11 27  1  0  0  0  0
 12 13  2  0  0  0  0
 12 14  2  0  0  0  0
 12 15  1  0  0  0  0
 15 28  1  0  0  0  0
 15 29  1  0  0  0  0
 16 17  1  0  0  0  0
M  CHG  1   8  -1
M  END
> <s_m_source_file>
AV-unprocessed.smi

> <i_m_source_file_index>
2059

> <i_lp_mmshare_version>
43012

> <i_f3d_flags>
0

> <s_epik_input>
W0NIM11jMVtjSF1jKG5vMSlbTkhdQyg9TylbTkhdW0NAQEhdKFtDSDJdMilbQ0gyXVtDSDJdUzIoPU8pPU8=

> <s_epik_cmdline>
J2VwaWtfcHl0aG9uJywgJy1waCcsICc3LjAnLCAnLXRuJywgJzgnLCAnLW1hJywgJzIwMCcsICctbWV0YWxfYmluZGluZycsICctaW1hZScsICc8aW5maWxlLm1hZT4nLCAnLW9tYWUnLCAnPG91dGZpbGUubWFlPic=

> <r_lp_tautomer_probability>
1

> <r_epik_Ionization_Penalty>
6.6071

> <r_epik_Ionization_Penalty_Charging>
6.60709

> <r_epik_Ionization_Penalty_Neutral>
5.42629e-06

> <r_epik_State_Penalty>
6.6352

> <r_epik_Charging_Adjusted_Penalty>
13.2423

> <i_epik_Tot_Q>
-1

> <i_epik_Tot_abs_Q>
1

> <r_epik_Metal_State_Penalty>
2.57602

> <b_epik_Metal_Only>
1

> <s_lp_Force_Field>
OPLS_2005

> <r_lp_Energy>
11.3948

> <b_lp_Chiralities_Consistent>
1

> <s_lp_Variant>
AV-unprocessed.smi:2059-6

> <Gold.Version>
5.8.1

> <Gold.Id.Protein>
6NUR|6NUR_protein|mol2

> <Gold.PLP.Fitness>
36.5194

> <Gold.PLP.PLP>
-23.7297

> <Gold.PLP.part.hbond>
-5.4893

> <Gold.PLP.part.metal>
0.0000

> <Gold.PLP.part.buried>
-5.6768

> <Gold.PLP.part.nonpolar>
-13.6612

> <Gold.PLP.part.repulsive>
0.1646

> <Gold.PLP.ligand.clash>
0.0000

> <Gold.PLP.ligand.torsion>
0.3434

> <Gold.PLP.Chemscore.Hbond>
4.4916

> <Gold.PLP.Chemscore.CHOScore>
0.0000

> <Gold.PLP.Chemscore.Metal>
0.0000

> <Gold.Chemscore.Hbonds>
donor molecule, donor type, donor heavy atom, donor atom, acceptor molecule, acceptor atom, score
      P1  H  6896  6909       L1     8  2.00
      P1  H  6931  6943       L1     7  0.93
      P1  H  6934  6947       L1     7  0.78
      P1  H 10752 10765       L1    14  0.73

> <Gold.PLP.Chemscore.Internal.Correction>
0.0017

> <Gold.Rescore>
     Score         DG    S(hbond)    S(metal)    S(lipo)     H(rot)  DE(clash)    DE(int)     intcor
     14.51     -16.24       2.82        0.00      33.33       1.00       0.17       1.56       ----

> <Gold.Chemscore.Fitness>
14.5092

> <Gold.Chemscore.DG>
-16.2416

> <Gold.Chemscore.ZeroCoef>
-5.4800

> <Gold.Chemscore.Hbond>
2.8210

> <Gold.Chemscore.Metal>
0.0000

> <Gold.Chemscore.Lipo>
33.3300

> <Gold.Chemscore.Internal_Hbond>
0.0000

> <Gold.Chemscore.DEClash>
0.1722

> <Gold.Chemscore.DEInternal>
1.5602

> <Gold.Chemscore.Rot>
1.0000

> <Gold.Chemscore.Internal.Correction>
   9.000000E+99

> <Gold.Chemscore.Hbonds>
donor molecule, donor type, donor heavy atom, donor atom, acceptor molecule, acceptor atom, score
      P1  H  6896  6909       L1     8  0.34
      P1  H  6931  6943       L1     7  0.89
      P1  H  6934  6947       L1     7  0.75
      P1  H 10752 10765       L1    14  0.71

> <Gold.Chemscore.Hbond.Weighted>
-9.4220

> <Gold.Chemscore.Metal.Weighted>
-0.0000

> <Gold.Chemscore.Lipo.Weighted>
-3.8996

> <Gold.Chemscore.Internal_Hbond.Weighted>
0.0000

> <Gold.Chemscore.DEClash.Weighted>
0.1722

> <Gold.Chemscore.DEInternal.Weighted>
1.5602

> <Gold.Chemscore.Rot.Weighted>
2.5600

> <Gold.Chemscore.Internal.Correction.Weighted>
   9.000000E+99

> <Gold.Protein.RotatedTorsions>
[ 6907 6896 6895 6894 ] final   64.50 input  -60.11 | X-H torsion
[ 7974 7965 7964 7962 ] final -152.01 input  175.53 | X-H torsion
[ 8008 7997 7996 7995 ] final  -14.36 input   59.86 | X-H torsion
[ 10167 10162 10161 10158 ] final  -67.92 input  -65.29 | X-H torsion
[ 10718 10713 10712 10709 ] final    4.07 input   66.30 | X-H torsion
[ 10763 10752 10751 10750 ] final -173.15 input  -60.55 | X-H torsion
[ 11005 11000 10999 10996 ] final   37.80 input  -57.11 | X-H torsion

> <Gold.Protein.ActiveResidues>
 VAL166  LYS551  ARG553  GLY616  TRP617  ASP618  TYR619  PRO620  LYS621  CYS622 
 ASP623  PHE694  ASN695  SER759  ASP760  ASP761  ALA762  ILE779  LEU786  VAL792 
 PHE793  MET794  SER795  GLU796  ALA797  LYS798  CYS799  TRP800  GLU811  SER814 

> <Gold.Protein.RotatedAtoms>
  152.4336  134.5730  159.9926 H   0  0  0  0  0  0  0  0  0  0  0  0  # atno 6907 bound_to 6896
  151.5846  133.3368  159.3023 H   0  0  0  0  0  0  0  0  0  0  0  0  # atno 6908 bound_to 6896
  150.8232  134.7485  159.6854 H   0  0  0  0  0  0  0  0  0  0  0  0  # atno 6909 bound_to 6896
  144.7818  140.4720  143.5834 H   0  0  0  0  0  0  0  0  0  0  0  0  # atno 7974 bound_to 7965
  154.5216  140.2225  155.8965 H   0  0  0  0  0  0  0  0  0  0  0  0  # atno 8008 bound_to 7997
  156.1668  140.3130  155.8868 H   0  0  0  0  0  0  0  0  0  0  0  0  # atno 8009 bound_to 7997
  155.3639  140.0462  157.3037 H   0  0  0  0  0  0  0  0  0  0  0  0  # atno 8010 bound_to 7997
  140.5547  143.2312  151.6844 H   0  0  0  0  0  0  0  0  0  0  0  0  # atno 10167 bound_to 10162
  156.8872  130.5675  149.5651 H   0  0  0  0  0  0  0  0  0  0  0  0  # atno 10718 bound_to 10713
  154.6111  135.2864  155.0431 H   0  0  0  0  0  0  0  0  0  0  0  0  # atno 10763 bound_to 10752
  154.1660  135.6480  153.5001 H   0  0  0  0  0  0  0  0  0  0  0  0  # atno 10764 bound_to 10752
  153.0195  135.5389  154.6866 H   0  0  0  0  0  0  0  0  0  0  0  0  # atno 10765 bound_to 10752
  140.2190  134.3664  155.8014 H   0  0  0  0  0  0  0  0  0  0  0  0  # atno 11005 bound_to 11000
  145.6030  139.1505  143.3118 LP  0  0  0  0  0  0  0  0  0  0  0  0  # atno 17320 bound_to 7965
  146.2030  140.6150  142.9094 LP  0  0  0  0  0  0  0  0  0  0  0  0  # atno 17321 bound_to 7965
  139.5042  144.3761  152.0422 LP  0  0  0  0  0  0  0  0  0  0  0  0  # atno 17342 bound_to 10162
  140.2881  144.3784  150.6097 LP  0  0  0  0  0  0  0  0  0  0  0  0  # atno 17343 bound_to 10162
  156.0647  130.5693  150.9264 LP  0  0  0  0  0  0  0  0  0  0  0  0  # atno 17370 bound_to 10713
  157.6105  131.0936  150.8803 LP  0  0  0  0  0  0  0  0  0  0  0  0  # atno 17371 bound_to 10713
  141.2224  133.7183  156.8544 LP  0  0  0  0  0  0  0  0  0  0  0  0  # atno 17394 bound_to 11000
  140.1870  134.8993  157.3016 LP  0  0  0  0  0  0  0  0  0  0  0  0  # atno 17395 bound_to 11000

$$$$
