AV-unprocessed.smi:1464|AV-procd|sdf|5950|dock2
  -GOLD-   22720 6 33D 1   1.00000     0.00000
 Structure written by MMmdl.
 41 42  0  0  0  0  0  0  0  0  1 V2000
  152.9789  142.9265  162.4931 C   0  0  0  0  0  0  0  0  0  0  0  0
  152.2908  143.2819  161.1629 C   0  0  1  0  0  0  0  0  0  0  0  0
  152.0483  144.8039  161.0924 C   0  0  0  0  0  0  0  0  0  0  0  0
  151.3512  145.2198  159.7903 C   0  0  0  0  0  0  0  0  0  0  0  0
  152.1510  144.7513  158.5667 C   0  0  0  0  0  0  0  0  0  0  0  0
  152.4051  143.2311  158.5968 C   0  0  2  0  0  0  0  0  0  0  0  0
  151.1629  142.4904  158.3724 N   0  0  0  0  0  0  0  0  0  0  0  0
  150.9052  141.6940  157.3243 C   0  0  0  0  0  0  0  0  0  0  0  0
  151.6977  141.5167  156.3982 O   0  0  0  0  0  0  0  0  0  0  0  0
  149.5280  141.0152  157.3189 C   0  0  0  0  0  0  0  0  0  0  0  0
  148.7595  141.2785  156.0939 N   0  0  0  0  0  0  0  0  0  0  0  0
  147.5669  141.9538  156.3056 N   0  0  0  0  0  0  0  0  0  0  0  0
  146.8102  142.2544  155.3045 C   0  0  0  0  0  0  0  0  0  0  0  0
  145.6402  142.9270  155.5586 O   0  0  0  0  0  0  0  0  0  0  0  0
  147.1787  141.8951  153.9527 C   0  0  0  0  0  0  0  0  0  0  0  0
  148.3398  141.2327  153.7575 C   0  0  0  0  0  0  0  0  0  0  0  0
  149.2222  140.8767  154.8702 C   0  0  0  0  0  0  0  0  0  0  0  0
  150.2840  140.2718  154.7219 O   0  0  0  0  0  0  0  0  0  0  0  0
  153.0864  142.7934  159.9196 C   0  0  2  0  0  0  0  0  0  0  0  0
  153.3562  141.2748  159.9317 C   0  0  0  0  0  0  0  0  0  0  0  0
  145.5760  143.5830  154.8815 H   0  0  0  0  0  0  0  0  0  0  0  0
  153.9924  143.3266  162.5349 H   0  0  0  0  0  0  0  0  0  0  0  0
  153.0356  141.8490  162.6446 H   0  0  0  0  0  0  0  0  0  0  0  0
  152.4266  143.3354  163.3398 H   0  0  0  0  0  0  0  0  0  0  0  0
  151.3166  142.7910  161.1611 H   0  0  0  0  0  0  0  0  0  0  0  0
  151.4446  145.1247  161.9420 H   0  0  0  0  0  0  0  0  0  0  0  0
  152.9995  145.3316  161.1763 H   0  0  0  0  0  0  0  0  0  0  0  0
  150.3448  144.8007  159.7603 H   0  0  0  0  0  0  0  0  0  0  0  0
  151.2339  146.3034  159.7628 H   0  0  0  0  0  0  0  0  0  0  0  0
  151.6329  145.0351  157.6498 H   0  0  0  0  0  0  0  0  0  0  0  0
  153.1085  145.2734  158.5454 H   0  0  0  0  0  0  0  0  0  0  0  0
  153.0918  142.9927  157.7823 H   0  0  0  0  0  0  0  0  0  0  0  0
  150.4495  142.5823  159.0810 H   0  0  0  0  0  0  0  0  0  0  0  0
  149.6463  139.9385  157.4575 H   0  0  0  0  0  0  0  0  0  0  0  0
  148.9775  141.3638  158.1944 H   0  0  0  0  0  0  0  0  0  0  0  0
  146.5344  142.1547  153.1258 H   0  0  0  0  0  0  0  0  0  0  0  0
  148.6273  140.9586  152.7529 H   0  0  0  0  0  0  0  0  0  0  0  0
  154.0611  143.2832  159.9464 H   0  0  0  0  0  0  0  0  0  0  0  0
  152.4346  140.7016  160.0372 H   0  0  0  0  0  0  0  0  0  0  0  0
  154.0193  140.9909  160.7483 H   0  0  0  0  0  0  0  0  0  0  0  0
  153.8400  140.9571  159.0077 H   0  0  0  0  0  0  0  0  0  0  0  0
  1  2  1  0  0  0  0
  1 22  1  0  0  0  0
  1 23  1  0  0  0  0
  1 24  1  0  0  0  0
  2 19  1  0  0  0  0
  2  3  1  0  0  0  0
  2 25  1  0  0  0  0
  3  4  1  0  0  0  0
  3 26  1  0  0  0  0
  3 27  1  0  0  0  0
  4  5  1  0  0  0  0
  4 28  1  0  0  0  0
  4 29  1  0  0  0  0
  5  6  1  0  0  0  0
  5 30  1  0  0  0  0
  5 31  1  0  0  0  0
  6  7  1  0  0  0  0
  6 19  1  0  0  0  0
  6 32  1  0  0  0  0
  7  8  1  0  0  0  0
  7 33  1  0  0  0  0
  8  9  2  0  0  0  0
  8 10  1  0  0  0  0
 10 34  1  0  0  0  0
 10 35  1  0  0  0  0
 10 11  1  0  0  0  0
 11 12  1  0  0  0  0
 11 17  1  0  0  0  0
 12 13  2  0  0  0  0
 13 14  1  0  0  0  0
 13 15  1  0  0  0  0
 14 21  1  0  0  0  0
 15 36  1  0  0  0  0
 15 16  2  0  0  0  0
 16 37  1  0  0  0  0
 16 17  1  0  0  0  0
 17 18  2  0  0  0  0
 19 20  1  0  0  0  0
 19 38  1  0  0  0  0
 20 39  1  0  0  0  0
 20 40  1  0  0  0  0
 20 41  1  0  0  0  0
M  END
> <s_m_source_file>
AV-unprocessed.smi

> <i_m_source_file_index>
1464

> <i_lp_mmshare_version>
43012

> <i_f3d_flags>
0

> <s_epik_input>
W0NIM11bQ0BASF0xW0NIMl1bQ0gyXVtDSDJdW0NASF0oW0NASF0xW0NIM10pW05IXUMoPU8pW0NIMl1uMltuSF1jKD1PKVtjSF1bY0hdYzI9Tw==

> <s_epik_cmdline>
J2VwaWtfcHl0aG9uJywgJy1waCcsICc3LjAnLCAnLXRuJywgJzgnLCAnLW1hJywgJzIwMCcsICctbWV0YWxfYmluZGluZycsICctaW1hZScsICc8aW5maWxlLm1hZT4nLCAnLW9tYWUnLCAnPG91dGZpbGUubWFlPic=

> <r_lp_tautomer_probability>
0.9996

> <r_epik_Ionization_Penalty>
2.10335

> <r_epik_Ionization_Penalty_Charging>
3.98079e-08

> <r_epik_Ionization_Penalty_Neutral>
2.10335

> <r_epik_State_Penalty>
1.67957

> <r_epik_Charging_Adjusted_Penalty>
1.67957

> <i_epik_Tot_Q>
0

> <i_epik_Tot_abs_Q>
0

> <r_epik_Metal_State_Penalty>
1.67957

> <b_epik_Metal_Only>
0

> <s_lp_Force_Field>
OPLS_2005

> <r_lp_Energy>
23.2489

> <b_lp_Chiralities_Consistent>
1

> <s_lp_Variant>
AV-unprocessed.smi:1464-16

> <Gold.Version>
5.8.1

> <Gold.Id.Protein>
6NUR|6NUR_protein|mol2

> <Gold.PLP.Fitness>
49.8700

> <Gold.PLP.PLP>
-46.9346

> <Gold.PLP.part.hbond>
-1.0000

> <Gold.PLP.part.metal>
0.0000

> <Gold.PLP.part.buried>
-2.1882

> <Gold.PLP.part.nonpolar>
-42.9022

> <Gold.PLP.part.repulsive>
0.3366

> <Gold.PLP.ligand.clash>
0.0000

> <Gold.PLP.ligand.torsion>
0.0412

> <Gold.PLP.Chemscore.Hbond>
1.0000

> <Gold.PLP.Chemscore.CHOScore>
0.0000

> <Gold.PLP.Chemscore.Metal>
0.0000

> <Gold.Chemscore.Hbonds>
donor molecule, donor type, donor heavy atom, donor atom, acceptor molecule, acceptor atom, score
      P1  H  7989  7998       L1    18  1.00

> <Gold.PLP.Chemscore.Internal.Correction>
0.0178

> <Gold.Rescore>
     Score         DG    S(hbond)    S(metal)    S(lipo)     H(rot)  DE(clash)    DE(int)     intcor
     12.41     -16.30       0.94        0.00     114.19       2.22       1.28       2.61       ----

> <Gold.Chemscore.Fitness>
12.4131

> <Gold.Chemscore.DG>
-16.2976

> <Gold.Chemscore.ZeroCoef>
-5.4800

> <Gold.Chemscore.Hbond>
0.9420

> <Gold.Chemscore.Metal>
0.0000

> <Gold.Chemscore.Lipo>
114.1939

> <Gold.Chemscore.Internal_Hbond>
0.0000

> <Gold.Chemscore.DEClash>
1.2768

> <Gold.Chemscore.DEInternal>
2.6077

> <Gold.Chemscore.Rot>
2.2224

> <Gold.Chemscore.Internal.Correction>
   9.000000E+99

> <Gold.Chemscore.Hbonds>
donor molecule, donor type, donor heavy atom, donor atom, acceptor molecule, acceptor atom, score
      P1  H  7989  7998       L1    18  0.96

> <Gold.Chemscore.Hbond.Weighted>
-3.1463

> <Gold.Chemscore.Metal.Weighted>
-0.0000

> <Gold.Chemscore.Lipo.Weighted>
-13.3607

> <Gold.Chemscore.Internal_Hbond.Weighted>
0.0000

> <Gold.Chemscore.DEClash.Weighted>
1.2768

> <Gold.Chemscore.DEInternal.Weighted>
2.6077

> <Gold.Chemscore.Rot.Weighted>
5.6893

> <Gold.Chemscore.Internal.Correction.Weighted>
   9.000000E+99

> <Gold.Protein.RotatedTorsions>
[ 6907 6896 6895 6894 ] final   75.21 input  -60.11 | X-H torsion
[ 7974 7965 7964 7962 ] final -138.76 input  175.53 | X-H torsion
[ 8008 7997 7996 7995 ] final  -62.62 input   59.86 | X-H torsion
[ 10167 10162 10161 10158 ] final  159.75 input  -65.29 | X-H torsion
[ 10718 10713 10712 10709 ] final   37.79 input   66.30 | X-H torsion
[ 10763 10752 10751 10750 ] final  173.52 input  -60.55 | X-H torsion
[ 11005 11000 10999 10996 ] final -103.68 input  -57.11 | X-H torsion

> <Gold.Protein.ActiveResidues>
 VAL166  LYS551  ARG553  GLY616  TRP617  ASP618  TYR619  PRO620  LYS621  CYS622 
 ASP623  PHE694  ASN695  SER759  ASP760  ASP761  ALA762  ILE779  LEU786  VAL792 
 PHE793  MET794  SER795  GLU796  ALA797  LYS798  CYS799  TRP800  GLU811  SER814 

> <Gold.Protein.RotatedAtoms>
  152.5014  134.4155  159.9462 H   0  0  0  0  0  0  0  0  0  0  0  0  # atno 6907 bound_to 6896
  151.4126  133.3716  159.2753 H   0  0  0  0  0  0  0  0  0  0  0  0  # atno 6908 bound_to 6896
  150.9281  134.8719  159.7592 H   0  0  0  0  0  0  0  0  0  0  0  0  # atno 6909 bound_to 6896
  144.8732  140.6398  143.5253 H   0  0  0  0  0  0  0  0  0  0  0  0  # atno 7974 bound_to 7965
  154.4510  140.0992  156.6616 H   0  0  0  0  0  0  0  0  0  0  0  0  # atno 8008 bound_to 7997
  155.5287  140.3481  155.4403 H   0  0  0  0  0  0  0  0  0  0  0  0  # atno 8009 bound_to 7997
  156.0680  140.1342  156.9852 H   0  0  0  0  0  0  0  0  0  0  0  0  # atno 8010 bound_to 7997
  139.4834  144.4700  151.8589 H   0  0  0  0  0  0  0  0  0  0  0  0  # atno 10167 bound_to 10162
  157.3512  130.7599  149.6980 H   0  0  0  0  0  0  0  0  0  0  0  0  # atno 10718 bound_to 10713
  154.4412  135.2762  155.1846 H   0  0  0  0  0  0  0  0  0  0  0  0  # atno 10763 bound_to 10752
  154.3712  135.6108  153.5745 H   0  0  0  0  0  0  0  0  0  0  0  0  # atno 10764 bound_to 10752
  152.9841  135.5858  154.4739 H   0  0  0  0  0  0  0  0  0  0  0  0  # atno 10765 bound_to 10752
  141.1135  133.8660  157.1517 H   0  0  0  0  0  0  0  0  0  0  0  0  # atno 11005 bound_to 11000
  145.4091  139.1583  143.4136 LP  0  0  0  0  0  0  0  0  0  0  0  0  # atno 17320 bound_to 7965
  146.2945  140.4193  142.8727 LP  0  0  0  0  0  0  0  0  0  0  0  0  # atno 17321 bound_to 7965
  140.4168  144.2296  150.5887 LP  0  0  0  0  0  0  0  0  0  0  0  0  # atno 17342 bound_to 10162
  140.4913  143.2346  151.8815 LP  0  0  0  0  0  0  0  0  0  0  0  0  # atno 17343 bound_to 10162
  155.9722  130.4140  150.4111 LP  0  0  0  0  0  0  0  0  0  0  0  0  # atno 17370 bound_to 10713
  157.2174  131.0474  151.2566 LP  0  0  0  0  0  0  0  0  0  0  0  0  # atno 17371 bound_to 10713
  140.0042  135.0015  157.0256 LP  0  0  0  0  0  0  0  0  0  0  0  0  # atno 17394 bound_to 11000
  140.4711  134.1385  155.7203 LP  0  0  0  0  0  0  0  0  0  0  0  0  # atno 17395 bound_to 11000

$$$$
