AV-unprocessed.smi:2402|AV-procd|sdf|9507|dock3
  -GOLD-   2272013133D 1   1.00000     0.00000
 Structure written by MMmdl.
 38 39  0  0  0  0  0  0  0  0  1 V2000
  152.2095  145.8953  160.4259 C   0  0  0  0  0  0  0  0  0  0  0  0
  152.1928  144.5453  159.7404 C   0  0  0  0  0  0  0  0  0  0  0  0
  152.9787  143.4812  160.2224 C   0  0  0  0  0  0  0  0  0  0  0  0
  152.9181  142.2491  159.5422 C   0  0  0  0  0  0  0  0  0  0  0  0
  153.7381  141.0633  160.0046 C   0  0  0  0  0  0  0  0  0  0  0  0
  152.1448  142.0453  158.4543 N   0  0  0  0  0  0  0  0  0  0  0  0
  151.3827  143.0627  157.9818 C   0  0  0  0  0  0  0  0  0  0  0  0
  150.5342  142.9518  156.8486 N   0  0  0  0  0  0  0  0  0  0  0  0
  150.3310  141.8794  156.0633 C   0  0  0  0  0  0  0  0  0  0  0  0
  150.8779  140.7838  156.1957 O   0  0  0  0  0  0  0  0  0  0  0  0
  149.4419  142.1482  155.0965 N   0  0  0  0  0  0  0  0  0  0  0  0
  148.9983  141.1973  154.0834 C   0  0  2  0  0  0  0  0  0  0  0  0
  147.6853  141.6320  153.4895 C   0  0  0  0  0  0  0  0  0  0  0  0
  146.7280  140.7175  153.6291 C   0  0  0  0  0  0  0  0  0  0  0  0
  147.2013  139.4912  154.3651 C   0  0  1  0  0  0  0  0  0  0  0  0
  146.9573  138.1831  153.5890 C   0  0  0  0  0  0  0  0  0  0  0  0
  147.4907  138.2413  152.2812 O   0  0  0  0  0  0  0  0  0  0  0  0
  148.6918  139.7924  154.6674 C   0  0  0  0  0  0  0  0  0  0  0  0
  151.3841  144.3301  158.6063 C   0  0  0  0  0  0  0  0  0  0  0  0
  149.7344  141.1317  153.2805 H   0  0  0  0  0  0  0  0  0  0  0  0
  146.6503  139.4463  155.3052 H   0  0  0  0  0  0  0  0  0  0  0  0
  153.0579  145.9825  161.1050 H   0  0  0  0  0  0  0  0  0  0  0  0
  151.2940  146.0364  161.0004 H   0  0  0  0  0  0  0  0  0  0  0  0
  152.2812  146.6963  159.6897 H   0  0  0  0  0  0  0  0  0  0  0  0
  153.6109  143.6061  161.0894 H   0  0  0  0  0  0  0  0  0  0  0  0
  154.2041  141.2577  160.9709 H   0  0  0  0  0  0  0  0  0  0  0  0
  154.5256  140.8451  159.2829 H   0  0  0  0  0  0  0  0  0  0  0  0
  153.1081  140.1788  160.1037 H   0  0  0  0  0  0  0  0  0  0  0  0
  150.0178  143.7855  156.6107 H   0  0  0  0  0  0  0  0  0  0  0  0
  149.0402  143.0736  155.0593 H   0  0  0  0  0  0  0  0  0  0  0  0
  147.5655  142.5846  152.9952 H   0  0  0  0  0  0  0  0  0  0  0  0
  145.7136  140.8198  153.2736 H   0  0  0  0  0  0  0  0  0  0  0  0
  147.4072  137.3418  154.1169 H   0  0  0  0  0  0  0  0  0  0  0  0
  145.8883  137.9797  153.5196 H   0  0  0  0  0  0  0  0  0  0  0  0
  147.7489  137.3698  152.0224 H   0  0  0  0  0  0  0  0  0  0  0  0
  149.3511  139.0493  154.2174 H   0  0  0  0  0  0  0  0  0  0  0  0
  148.8712  139.7518  155.7428 H   0  0  0  0  0  0  0  0  0  0  0  0
  150.7712  145.1322  158.2208 H   0  0  0  0  0  0  0  0  0  0  0  0
  1  2  1  0  0  0  0
  1 22  1  0  0  0  0
  1 23  1  0  0  0  0
  1 24  1  0  0  0  0
  2 19  1  0  0  0  0
  2  3  2  0  0  0  0
  3  4  1  0  0  0  0
  3 25  1  0  0  0  0
  4  5  1  0  0  0  0
  4  6  2  0  0  0  0
  5 26  1  0  0  0  0
  5 27  1  0  0  0  0
  5 28  1  0  0  0  0
  6  7  1  0  0  0  0
  7  8  1  0  0  0  0
  7 19  2  0  0  0  0
  8  9  1  0  0  0  0
  8 29  1  0  0  0  0
  9 10  2  0  0  0  0
  9 11  1  0  0  0  0
 11 12  1  0  0  0  0
 11 30  1  0  0  0  0
 12 20  1  0  0  0  0
 12 18  1  0  0  0  0
 12 13  1  0  0  0  0
 13 14  2  0  0  0  0
 13 31  1  0  0  0  0
 14 15  1  0  0  0  0
 14 32  1  0  0  0  0
 15 21  1  0  0  0  0
 15 16  1  0  0  0  0
 15 18  1  0  0  0  0
 16 17  1  0  0  0  0
 16 33  1  0  0  0  0
 16 34  1  0  0  0  0
 17 35  1  0  0  0  0
 18 36  1  0  0  0  0
 18 37  1  0  0  0  0
 19 38  1  0  0  0  0
M  END
> <s_m_source_file>
AV-unprocessed.smi

> <i_m_source_file_index>
2402

> <i_lp_mmshare_version>
43012

> <i_f3d_flags>
0

> <s_epik_input>
W0NIM11jMVtjSF1jKFtDSDNdKW5jKFtjSF0xKVtOSF1DKD1PKVtOSF1bQ0BASF0yW0NIXT1bQ0hdW0NAQEhdKFtDSDJdMilbQ0gyXVtPSF0=

> <s_epik_cmdline>
J2VwaWtfcHl0aG9uJywgJy1waCcsICc3LjAnLCAnLXRuJywgJzgnLCAnLW1hJywgJzIwMCcsICctbWV0YWxfYmluZGluZycsICctaW1hZScsICc8aW5maWxlLm1hZT4nLCAnLW9tYWUnLCAnPG91dGZpbGUubWFlPic=

> <r_lp_tautomer_probability>
1

> <r_epik_Ionization_Penalty>
0.000257495

> <r_epik_Ionization_Penalty_Charging>
0

> <r_epik_Ionization_Penalty_Neutral>
0.000257495

> <r_epik_State_Penalty>
-0

> <r_epik_Charging_Adjusted_Penalty>
0

> <i_epik_Tot_Q>
0

> <i_epik_Tot_abs_Q>
0

> <r_epik_Metal_State_Penalty>
-0

> <b_epik_Metal_Only>
0

> <s_lp_Force_Field>
OPLS_2005

> <r_lp_Energy>
20

> <b_lp_Chiralities_Consistent>
1

> <s_lp_Variant>
AV-unprocessed.smi:2402-3

> <Gold.Version>
5.8.1

> <Gold.Id.Protein>
6NUR|6NUR_protein|mol2

> <Gold.PLP.Fitness>
48.5205

> <Gold.PLP.PLP>
-40.0724

> <Gold.PLP.part.hbond>
-3.7599

> <Gold.PLP.part.metal>
0.0000

> <Gold.PLP.part.buried>
-4.0627

> <Gold.PLP.part.nonpolar>
-31.7057

> <Gold.PLP.part.repulsive>
0.2755

> <Gold.PLP.ligand.clash>
0.0000

> <Gold.PLP.ligand.torsion>
0.2698

> <Gold.PLP.Chemscore.Hbond>
2.9920

> <Gold.PLP.Chemscore.CHOScore>
0.0000

> <Gold.PLP.Chemscore.Metal>
0.0000

> <Gold.Chemscore.Hbonds>
donor molecule, donor type, donor heavy atom, donor atom, acceptor molecule, acceptor atom, score
      L1  H     8    29       P1  8028  1.00
      L1  H    11    30       P1  8028  1.00
      L1  H    17    35       P1  7948  0.98

> <Gold.PLP.Chemscore.Internal.Correction>
0.0117

> <Gold.Rescore>
     Score         DG    S(hbond)    S(metal)    S(lipo)     H(rot)  DE(clash)    DE(int)     intcor
     18.39     -22.38       2.74        0.00     105.34       1.78       1.26       2.73       ----

> <Gold.Chemscore.Fitness>
18.3898

> <Gold.Chemscore.DG>
-22.3770

> <Gold.Chemscore.ZeroCoef>
-5.4800

> <Gold.Chemscore.Hbond>
2.7367

> <Gold.Chemscore.Metal>
0.0000

> <Gold.Chemscore.Lipo>
105.3383

> <Gold.Chemscore.Internal_Hbond>
0.0000

> <Gold.Chemscore.DEClash>
1.2555

> <Gold.Chemscore.DEInternal>
2.7317

> <Gold.Chemscore.Rot>
1.7844

> <Gold.Chemscore.Internal.Correction>
   9.000000E+99

> <Gold.Chemscore.Hbonds>
donor molecule, donor type, donor heavy atom, donor atom, acceptor molecule, acceptor atom, score
      L1  H     8    29       P1  8028  0.98
      L1  H    11    30       P1  8028  0.97
      L1  H    17    35       P1  7948  0.93

> <Gold.Chemscore.Hbond.Weighted>
-9.1406

> <Gold.Chemscore.Metal.Weighted>
-0.0000

> <Gold.Chemscore.Lipo.Weighted>
-12.3246

> <Gold.Chemscore.Internal_Hbond.Weighted>
0.0000

> <Gold.Chemscore.DEClash.Weighted>
1.2555

> <Gold.Chemscore.DEInternal.Weighted>
2.7317

> <Gold.Chemscore.Rot.Weighted>
4.5681

> <Gold.Chemscore.Internal.Correction.Weighted>
   9.000000E+99

> <Gold.Protein.RotatedTorsions>
[ 6907 6896 6895 6894 ] final -160.87 input  -60.11 | X-H torsion
[ 7974 7965 7964 7962 ] final   83.26 input  175.53 | X-H torsion
[ 8008 7997 7996 7995 ] final -126.56 input   59.86 | X-H torsion
[ 10167 10162 10161 10158 ] final -173.72 input  -65.29 | X-H torsion
[ 10718 10713 10712 10709 ] final  -62.58 input   66.30 | X-H torsion
[ 10763 10752 10751 10750 ] final   32.59 input  -60.55 | X-H torsion
[ 11005 11000 10999 10996 ] final  114.00 input  -57.11 | X-H torsion

> <Gold.Protein.ActiveResidues>
 VAL166  LYS551  ARG553  GLY616  TRP617  ASP618  TYR619  PRO620  LYS621  CYS622 
 ASP623  PHE694  ASN695  SER759  ASP760  ASP761  ALA762  ILE779  LEU786  VAL792 
 PHE793  MET794  SER795  GLU796  ALA797  LYS798  CYS799  TRP800  GLU811  SER814 

> <Gold.Protein.RotatedAtoms>
  151.3557  133.3908  159.2684 H   0  0  0  0  0  0  0  0  0  0  0  0  # atno 6907 bound_to 6896
  150.9765  134.9129  159.7829 H   0  0  0  0  0  0  0  0  0  0  0  0  # atno 6908 bound_to 6896
  152.5202  134.3520  159.9307 H   0  0  0  0  0  0  0  0  0  0  0  0  # atno 6909 bound_to 6896
  145.6143  139.2374  143.2174 H   0  0  0  0  0  0  0  0  0  0  0  0  # atno 7974 bound_to 7965
  155.2317  140.0425  157.2963 H   0  0  0  0  0  0  0  0  0  0  0  0  # atno 8008 bound_to 7997
  154.5884  140.2420  155.7925 H   0  0  0  0  0  0  0  0  0  0  0  0  # atno 8009 bound_to 7997
  156.2242  140.2960  156.0035 H   0  0  0  0  0  0  0  0  0  0  0  0  # atno 8010 bound_to 7997
  139.5673  144.1725  152.1332 H   0  0  0  0  0  0  0  0  0  0  0  0  # atno 10167 bound_to 10162
  156.0846  130.4210  150.1155 H   0  0  0  0  0  0  0  0  0  0  0  0  # atno 10718 bound_to 10713
  153.0255  135.6409  154.1378 H   0  0  0  0  0  0  0  0  0  0  0  0  # atno 10763 bound_to 10752
  154.1108  135.2853  155.3232 H   0  0  0  0  0  0  0  0  0  0  0  0  # atno 10764 bound_to 10752
  154.6333  135.5485  153.7768 H   0  0  0  0  0  0  0  0  0  0  0  0  # atno 10765 bound_to 10752
  139.8968  134.9560  156.6824 H   0  0  0  0  0  0  0  0  0  0  0  0  # atno 11005 bound_to 11000
  146.1480  140.6965  142.9335 LP  0  0  0  0  0  0  0  0  0  0  0  0  # atno 17320 bound_to 7965
  144.7257  140.4516  143.6975 LP  0  0  0  0  0  0  0  0  0  0  0  0  # atno 17321 bound_to 7965
  140.1251  144.5339  150.6838 LP  0  0  0  0  0  0  0  0  0  0  0  0  # atno 17342 bound_to 10162
  140.6957  143.2402  151.5008 LP  0  0  0  0  0  0  0  0  0  0  0  0  # atno 17343 bound_to 10162
  156.9179  130.9673  151.3553 LP  0  0  0  0  0  0  0  0  0  0  0  0  # atno 17370 bound_to 10713
  157.5975  130.8488  149.8752 LP  0  0  0  0  0  0  0  0  0  0  0  0  # atno 17371 bound_to 10713
  140.7288  133.9076  155.8197 LP  0  0  0  0  0  0  0  0  0  0  0  0  # atno 17394 bound_to 11000
  141.0169  134.0943  157.4162 LP  0  0  0  0  0  0  0  0  0  0  0  0  # atno 17395 bound_to 11000

$$$$
