AV-unprocessed.smi:3314|AV-procd|sdf|12746|dock3
  -GOLD-   2272019 83D 1   1.00000     0.00000
 Structure written by MMmdl.
 37 38  0  0  0  0  0  0  0  0  3 V2000
  153.7595  140.2437  160.2901 C   0  0  0  0  0  0  0  0  0  0  0  0
  152.9093  141.1404  159.4152 C   0  0  0  0  0  0  0  0  0  0  0  0
  152.7205  142.4949  159.7478 C   0  0  0  0  0  0  0  0  0  0  0  0
  151.9247  143.2827  158.8937 C   0  0  0  0  0  0  0  0  0  0  0  0
  151.6797  144.7461  159.1953 C   0  0  0  0  0  0  0  0  0  0  0  0
  151.3348  142.7984  157.7792 N   0  0  0  0  0  0  0  0  0  0  0  0
  151.5022  141.4951  157.4519 C   0  0  0  0  0  0  0  0  0  0  0  0
  150.9197  141.0300  156.3376 N   0  5  0  0  0  0  0  0  0  0  0  0
  151.5020  140.0255  155.6376 C   0  0  0  0  0  0  0  0  0  0  0  0
  152.6816  139.6677  155.6348 O   0  0  0  0  0  0  0  0  0  0  0  0
  150.4844  139.2968  154.7497 C   0  0  1  0  0  0  0  0  0  0  0  0
  150.2524  137.8507  155.2395 C   0  0  0  0  0  0  0  0  0  0  0  0
  149.2078  137.1906  154.4246 N   0  3  1  0  0  0  0  0  0  0  0  0
  148.9775  135.7856  154.8221 C   0  0  0  0  0  0  0  0  0  0  0  0
  147.9639  137.9928  154.4092 C   0  0  0  0  0  0  0  0  0  0  0  0
  148.2629  139.4271  153.9441 C   0  0  0  0  0  0  0  0  0  0  0  0
  149.2473  140.0057  154.7909 O   0  0  0  0  0  0  0  0  0  0  0  0
  152.2955  140.6380  158.2500 C   0  0  0  0  0  0  0  0  0  0  0  0
  153.6349  140.5016  161.3422 H   0  0  0  0  0  0  0  0  0  0  0  0
  154.8123  140.3541  160.0299 H   0  0  0  0  0  0  0  0  0  0  0  0
  153.4814  139.1970  160.1632 H   0  0  0  0  0  0  0  0  0  0  0  0
  153.1745  142.9181  160.6317 H   0  0  0  0  0  0  0  0  0  0  0  0
  152.4798  145.1564  159.8117 H   0  0  0  0  0  0  0  0  0  0  0  0
  150.7376  144.8655  159.7302 H   0  0  0  0  0  0  0  0  0  0  0  0
  151.6295  145.3296  158.2753 H   0  0  0  0  0  0  0  0  0  0  0  0
  150.8464  139.2906  153.7185 H   0  0  0  0  0  0  0  0  0  0  0  0
  151.1776  137.2766  155.1697 H   0  0  0  0  0  0  0  0  0  0  0  0
  149.9517  137.8479  156.2890 H   0  0  0  0  0  0  0  0  0  0  0  0
  148.6042  135.7244  155.8452 H   0  0  0  0  0  0  0  0  0  0  0  0
  149.9031  135.2124  154.7600 H   0  0  0  0  0  0  0  0  0  0  0  0
  148.2485  135.3140  154.1624 H   0  0  0  0  0  0  0  0  0  0  0  0
  147.2345  137.5304  153.7433 H   0  0  0  0  0  0  0  0  0  0  0  0
  147.5248  138.0081  155.4080 H   0  0  0  0  0  0  0  0  0  0  0  0
  148.6037  139.4392  152.9076 H   0  0  0  0  0  0  0  0  0  0  0  0
  147.3583  140.0334  153.9891 H   0  0  0  0  0  0  0  0  0  0  0  0
  152.4277  139.6024  157.9712 H   0  0  0  0  0  0  0  0  0  0  0  0
  149.5539  137.1731  153.4758 H   0  0  0  0  0  0  0  0  0  0  0  0
  1  2  1  0  0  0  0
  1 19  1  0  0  0  0
  1 20  1  0  0  0  0
  1 21  1  0  0  0  0
  2 18  2  0  0  0  0
  2  3  1  0  0  0  0
  3  4  2  0  0  0  0
  3 22  1  0  0  0  0
  4  5  1  0  0  0  0
  4  6  1  0  0  0  0
  5 23  1  0  0  0  0
  5 24  1  0  0  0  0
  5 25  1  0  0  0  0
  6  7  2  0  0  0  0
  7  8  1  0  0  0  0
  7 18  1  0  0  0  0
  8  9  1  0  0  0  0
  9 10  2  0  0  0  0
  9 11  1  0  0  0  0
 11 17  1  0  0  0  0
 11 12  1  0  0  0  0
 11 26  1  0  0  0  0
 12 13  1  0  0  0  0
 12 27  1  0  0  0  0
 12 28  1  0  0  0  0
 13 14  1  0  0  0  0
 13 15  1  0  0  0  0
 13 37  1  0  0  0  0
 14 29  1  0  0  0  0
 14 30  1  0  0  0  0
 14 31  1  0  0  0  0
 15 16  1  0  0  0  0
 15 32  1  0  0  0  0
 15 33  1  0  0  0  0
 16 17  1  0  0  0  0
 16 34  1  0  0  0  0
 16 35  1  0  0  0  0
 18 36  1  0  0  0  0
M  CHG  1   8  -1
M  CHG  1  13   1
M  END
> <s_m_source_file>
AV-unprocessed.smi

> <i_m_source_file_index>
3314

> <i_lp_mmshare_version>
43012

> <i_f3d_flags>
0

> <s_epik_input>
W0NIM11jMVtjSF1jKFtDSDNdKW5jKFtjSF0xKVtOSF1DKD1PKVtDQEBIXTJbQ0gyXU4oW0NIM10pW0NIMl1bQ0gyXU8y

> <s_epik_cmdline>
J2VwaWtfcHl0aG9uJywgJy1waCcsICc3LjAnLCAnLXRuJywgJzgnLCAnLW1hJywgJzIwMCcsICctbWV0YWxfYmluZGluZycsICctaW1hZScsICc8aW5maWxlLm1hZT4nLCAnLW9tYWUnLCAnPG91dGZpbGUubWFlPic=

> <r_epik_Ionization_Penalty>
13.8964

> <r_epik_Ionization_Penalty_Charging>
7.88995

> <r_epik_Ionization_Penalty_Neutral>
6.00641

> <r_epik_State_Penalty>
8.39989

> <r_epik_Charging_Adjusted_Penalty>
16.2898

> <i_epik_Tot_Q>
0

> <i_epik_Tot_abs_Q>
2

> <r_epik_Metal_State_Penalty>
4.31145

> <b_epik_Metal_Only>
1

> <s_lp_Force_Field>
OPLS_2005

> <r_lp_Energy>
9.09812

> <b_lp_Chiralities_Consistent>
1

> <s_lp_Variant>
AV-unprocessed.smi:3314-16

> <Gold.Version>
5.8.1

> <Gold.Id.Protein>
6NUR|6NUR_protein|mol2

> <Gold.PLP.Fitness>
40.7624

> <Gold.PLP.PLP>
-33.4673

> <Gold.PLP.part.hbond>
-2.0000

> <Gold.PLP.part.metal>
0.0000

> <Gold.PLP.part.buried>
-4.3569

> <Gold.PLP.part.nonpolar>
-27.3522

> <Gold.PLP.part.repulsive>
0.1990

> <Gold.PLP.ligand.clash>
0.0906

> <Gold.PLP.ligand.torsion>
0.4052

> <Gold.PLP.Chemscore.Hbond>
2.7280

> <Gold.PLP.Chemscore.CHOScore>
0.0000

> <Gold.PLP.Chemscore.Metal>
0.0000

> <Gold.Chemscore.Hbonds>
donor molecule, donor type, donor heavy atom, donor atom, acceptor molecule, acceptor atom, score
      L1  H    13    37       P1  7948  1.38
      P1  H  7997  8008       L1    10  1.00

> <Gold.PLP.Chemscore.Internal.Correction>
0.0119

> <Gold.Rescore>
     Score         DG    S(hbond)    S(metal)    S(lipo)     H(rot)  DE(clash)    DE(int)     intcor
     17.14     -18.96       1.89        0.00      83.17       1.00       0.06       1.76       ----

> <Gold.Chemscore.Fitness>
17.1407

> <Gold.Chemscore.DG>
-18.9612

> <Gold.Chemscore.ZeroCoef>
-5.4800

> <Gold.Chemscore.Hbond>
1.8894

> <Gold.Chemscore.Metal>
0.0000

> <Gold.Chemscore.Lipo>
83.1670

> <Gold.Chemscore.Internal_Hbond>
0.0000

> <Gold.Chemscore.DEClash>
0.0599

> <Gold.Chemscore.DEInternal>
1.7606

> <Gold.Chemscore.Rot>
1.0000

> <Gold.Chemscore.Internal.Correction>
   9.000000E+99

> <Gold.Chemscore.Hbonds>
donor molecule, donor type, donor heavy atom, donor atom, acceptor molecule, acceptor atom, score
      L1  H    13    37       P1  7948  0.58
      P1  H  7997  8008       L1    10  1.00

> <Gold.Chemscore.Hbond.Weighted>
-6.3107

> <Gold.Chemscore.Metal.Weighted>
-0.0000

> <Gold.Chemscore.Lipo.Weighted>
-9.7305

> <Gold.Chemscore.Internal_Hbond.Weighted>
0.0000

> <Gold.Chemscore.DEClash.Weighted>
0.0599

> <Gold.Chemscore.DEInternal.Weighted>
1.7606

> <Gold.Chemscore.Rot.Weighted>
2.5600

> <Gold.Chemscore.Internal.Correction.Weighted>
   9.000000E+99

> <Gold.Protein.RotatedTorsions>
[ 6907 6896 6895 6894 ] final  -93.80 input  -60.11 | X-H torsion
[ 7974 7965 7964 7962 ] final    5.45 input  175.53 | X-H torsion
[ 8008 7997 7996 7995 ] final  -26.71 input   59.86 | X-H torsion
[ 10167 10162 10161 10158 ] final  -43.65 input  -65.29 | X-H torsion
[ 10718 10713 10712 10709 ] final  121.89 input   66.30 | X-H torsion
[ 10763 10752 10751 10750 ] final   29.06 input  -60.55 | X-H torsion
[ 11005 11000 10999 10996 ] final   50.15 input  -57.11 | X-H torsion

> <Gold.Protein.ActiveResidues>
 VAL166  LYS551  ARG553  GLY616  TRP617  ASP618  TYR619  PRO620  LYS621  CYS622 
 ASP623  PHE694  ASN695  SER759  ASP760  ASP761  ALA762  ILE779  LEU786  VAL792 
 PHE793  MET794  SER795  GLU796  ALA797  LYS798  CYS799  TRP800  GLU811  SER814 

> <Gold.Protein.RotatedAtoms>
  150.6929  134.1912  159.4285 H   0  0  0  0  0  0  0  0  0  0  0  0  # atno 6907 bound_to 6896
  151.9882  134.9990  160.0569 H   0  0  0  0  0  0  0  0  0  0  0  0  # atno 6908 bound_to 6896
  152.1692  133.4597  159.4937 H   0  0  0  0  0  0  0  0  0  0  0  0  # atno 6909 bound_to 6896
  146.2440  140.0381  142.8384 H   0  0  0  0  0  0  0  0  0  0  0  0  # atno 7974 bound_to 7965
  154.4412  140.1892  156.0818 H   0  0  0  0  0  0  0  0  0  0  0  0  # atno 8008 bound_to 7997
  156.0433  140.3317  155.7242 H   0  0  0  0  0  0  0  0  0  0  0  0  # atno 8009 bound_to 7997
  155.5667  140.0609  157.2807 H   0  0  0  0  0  0  0  0  0  0  0  0  # atno 8010 bound_to 7997
  140.6926  143.2971  151.3382 H   0  0  0  0  0  0  0  0  0  0  0  0  # atno 10167 bound_to 10162
  157.5784  131.1077  150.8235 H   0  0  0  0  0  0  0  0  0  0  0  0  # atno 10718 bound_to 10713
  153.0453  135.6498  154.0833 H   0  0  0  0  0  0  0  0  0  0  0  0  # atno 10763 bound_to 10752
  154.0532  135.2894  155.3338 H   0  0  0  0  0  0  0  0  0  0  0  0  # atno 10764 bound_to 10752
  154.6706  135.5357  153.8199 H   0  0  0  0  0  0  0  0  0  0  0  0  # atno 10765 bound_to 10752
  140.1042  134.5041  155.8735 H   0  0  0  0  0  0  0  0  0  0  0  0  # atno 11005 bound_to 11000
  145.1094  140.9395  143.4665 LP  0  0  0  0  0  0  0  0  0  0  0  0  # atno 17320 bound_to 7965
  145.0592  139.3119  143.5889 LP  0  0  0  0  0  0  0  0  0  0  0  0  # atno 17321 bound_to 7965
  139.6345  144.0657  152.2504 LP  0  0  0  0  0  0  0  0  0  0  0  0  # atno 17342 bound_to 10162
  140.0142  144.6201  150.7621 LP  0  0  0  0  0  0  0  0  0  0  0  0  # atno 17343 bound_to 10162
  156.8688  130.5139  149.5298 LP  0  0  0  0  0  0  0  0  0  0  0  0  # atno 17370 bound_to 10713
  156.0829  130.5835  150.9595 LP  0  0  0  0  0  0  0  0  0  0  0  0  # atno 17371 bound_to 10713
  141.2114  133.6706  156.6578 LP  0  0  0  0  0  0  0  0  0  0  0  0  # atno 17394 bound_to 11000
  140.3178  134.8032  157.4228 LP  0  0  0  0  0  0  0  0  0  0  0  0  # atno 17395 bound_to 11000

$$$$
