AV-unprocessed.smi:303|AV-procd|sdf|2275|dock2
  -GOLD-   2262022173D 1   1.00000     0.00000
 Structure written by MMmdl.
 46 47  0  0  0  0  0  0  0  0  2 V2000
  152.6726  141.6540  159.1324 C   0  0  0  0  0  0  0  0  0  0  0  0
  151.3696  141.3053  158.4035 C   0  0  0  0  0  0  0  0  0  0  0  0
  151.5082  139.7251  157.4531 S   0  0  0  0  0  0  0  0  0  0  0  0
  152.9103  139.2828  157.4998 O   0  0  0  0  0  0  0  0  0  0  0  0
  150.4398  138.8122  157.8892 O   0  0  0  0  0  0  0  0  0  0  0  0
  151.1642  140.1853  155.8089 N   0  0  0  0  0  0  0  0  0  0  0  0
  151.2179  139.1737  154.7366 C   0  0  0  0  0  0  0  0  0  0  0  0
  149.8071  138.7244  154.3198 C   0  0  0  0  0  0  0  0  0  0  0  0
  148.9340  139.9250  153.9131 C   0  0  0  0  0  0  0  0  0  0  0  0
  147.5236  139.4660  153.5202 C   0  0  0  0  0  0  0  0  0  0  0  0
  146.5360  139.9412  154.0824 O   0  0  0  0  0  0  0  0  0  0  0  0
  147.4414  138.5327  152.5592 N   0  0  0  0  0  0  0  0  0  0  0  0
  146.1988  137.9484  152.0682 C   0  0  0  0  0  0  0  0  0  0  0  0
  145.7641  136.7470  152.9252 C   0  0  0  0  0  0  0  0  0  0  0  0
  145.5234  135.5019  152.0945 C   0  0  0  0  0  0  0  0  0  0  0  0
  144.2231  135.0489  151.7822 C   0  0  0  0  0  0  0  0  0  0  0  0
  144.0681  133.8822  151.0045 C   0  0  0  0  0  0  0  0  0  0  0  0
  145.2147  133.1953  150.5548 C   0  0  0  0  0  0  0  0  0  0  0  0
  146.4893  133.6935  150.8937 C   0  0  0  0  0  0  0  0  0  0  0  0
  146.5966  134.8144  151.6410 N   0  3  0  0  0  0  0  0  0  0  0  0
  148.8894  140.9309  155.0782 C   0  0  0  0  0  0  0  0  0  0  0  0
  150.3036  141.3512  155.5174 C   0  0  0  0  0  0  0  0  0  0  0  0
  152.5591  142.5718  159.7093 H   0  0  0  0  0  0  0  0  0  0  0  0
  153.4893  141.8062  158.4265 H   0  0  0  0  0  0  0  0  0  0  0  0
  152.9689  140.8625  159.8200 H   0  0  0  0  0  0  0  0  0  0  0  0
  150.5308  141.2427  159.0918 H   0  0  0  0  0  0  0  0  0  0  0  0
  151.1368  142.0957  157.6900 H   0  0  0  0  0  0  0  0  0  0  0  0
  151.7349  139.6052  153.8788 H   0  0  0  0  0  0  0  0  0  0  0  0
  151.8112  138.3166  155.0545 H   0  0  0  0  0  0  0  0  0  0  0  0
  149.8851  138.0208  153.4898 H   0  0  0  0  0  0  0  0  0  0  0  0
  149.3389  138.1775  155.1382 H   0  0  0  0  0  0  0  0  0  0  0  0
  149.3963  140.4131  153.0531 H   0  0  0  0  0  0  0  0  0  0  0  0
  148.3006  138.1986  152.1464 H   0  0  0  0  0  0  0  0  0  0  0  0
  145.4140  138.7068  152.0459 H   0  0  0  0  0  0  0  0  0  0  0  0
  146.3567  137.6346  151.0360 H   0  0  0  0  0  0  0  0  0  0  0  0
  146.5245  136.5295  153.6768 H   0  0  0  0  0  0  0  0  0  0  0  0
  144.8512  136.9837  153.4735 H   0  0  0  0  0  0  0  0  0  0  0  0
  143.3543  135.5871  152.1333 H   0  0  0  0  0  0  0  0  0  0  0  0
  143.0813  133.5187  150.7564 H   0  0  0  0  0  0  0  0  0  0  0  0
  145.1174  132.2992  149.9590 H   0  0  0  0  0  0  0  0  0  0  0  0
  147.4189  133.2326  150.5932 H   0  0  0  0  0  0  0  0  0  0  0  0
  148.3315  141.8191  154.7785 H   0  0  0  0  0  0  0  0  0  0  0  0
  148.3479  140.5136  155.9262 H   0  0  0  0  0  0  0  0  0  0  0  0
  150.2498  142.0129  156.3811 H   0  0  0  0  0  0  0  0  0  0  0  0
  150.7725  141.9288  154.7199 H   0  0  0  0  0  0  0  0  0  0  0  0
  147.5290  135.1559  151.8751 H   0  0  0  0  0  0  0  0  0  0  0  0
  1  2  1  0  0  0  0
  1 23  1  0  0  0  0
  1 24  1  0  0  0  0
  1 25  1  0  0  0  0
  2  3  1  0  0  0  0
  2 26  1  0  0  0  0
  2 27  1  0  0  0  0
  3  4  2  0  0  0  0
  3  5  2  0  0  0  0
  3  6  1  0  0  0  0
  6 22  1  0  0  0  0
  6  7  1  0  0  0  0
  7  8  1  0  0  0  0
  7 28  1  0  0  0  0
  7 29  1  0  0  0  0
  8  9  1  0  0  0  0
  8 30  1  0  0  0  0
  8 31  1  0  0  0  0
  9 10  1  0  0  0  0
  9 21  1  0  0  0  0
  9 32  1  0  0  0  0
 10 11  2  0  0  0  0
 10 12  1  0  0  0  0
 12 13  1  0  0  0  0
 12 33  1  0  0  0  0
 13 14  1  0  0  0  0
 13 34  1  0  0  0  0
 13 35  1  0  0  0  0
 14 15  1  0  0  0  0
 14 36  1  0  0  0  0
 14 37  1  0  0  0  0
 15 20  1  0  0  0  0
 15 16  2  0  0  0  0
 16 17  1  0  0  0  0
 16 38  1  0  0  0  0
 17 18  2  0  0  0  0
 17 39  1  0  0  0  0
 18 19  1  0  0  0  0
 18 40  1  0  0  0  0
 19 20  2  0  0  0  0
 19 41  1  0  0  0  0
 20 46  1  0  0  0  0
 21 22  1  0  0  0  0
 21 42  1  0  0  0  0
 21 43  1  0  0  0  0
 22 44  1  0  0  0  0
 22 45  1  0  0  0  0
M  CHG  1  20   1
M  END
> <s_m_source_file>
AV-unprocessed.smi

> <i_m_source_file_index>
303

> <i_lp_mmshare_version>
43012

> <i_f3d_flags>
0

> <s_epik_input>
W0NIM11bQ0gyXVMoPU8pKD1PKU4xW0NIMl1bQ0gyXVtDSF0oW0NIMl1bQ0gyXTEpQyg9TylbTkhdW0NIMl1bQ0gyXWMyW2NIXVtjSF1bY0hdW2NIXW4y

> <s_epik_cmdline>
J2VwaWtfcHl0aG9uJywgJy1waCcsICc3LjAnLCAnLXRuJywgJzgnLCAnLW1hJywgJzIwMCcsICctbWV0YWxfYmluZGluZycsICctaW1hZScsICc8aW5maWxlLm1hZT4nLCAnLW9tYWUnLCAnPG91dGZpbGUubWFlPic=

> <r_epik_Ionization_Penalty>
1.82741

> <r_epik_Ionization_Penalty_Charging>
1.82741

> <r_epik_Ionization_Penalty_Neutral>
1.89562e-08

> <r_epik_State_Penalty>
1.94311

> <r_epik_Charging_Adjusted_Penalty>
3.77052

> <i_epik_Tot_Q>
1

> <i_epik_Tot_abs_Q>
1

> <r_epik_Metal_State_Penalty>
1.96983

> <b_epik_Metal_Only>
0

> <s_lp_Force_Field>
OPLS_2005

> <r_lp_Energy>
6.79825

> <b_lp_Chiralities_Consistent>
1

> <s_lp_Variant>
AV-unprocessed.smi:303-2

> <Gold.Version>
5.8.1

> <Gold.Id.Protein>
6NUR|6NUR_protein|mol2

> <Gold.PLP.Fitness>
49.1207

> <Gold.PLP.PLP>
-40.1364

> <Gold.PLP.part.hbond>
-4.0000

> <Gold.PLP.part.metal>
0.0000

> <Gold.PLP.part.buried>
-1.9148

> <Gold.PLP.part.nonpolar>
-35.0212

> <Gold.PLP.part.repulsive>
0.2540

> <Gold.PLP.ligand.clash>
0.0000

> <Gold.PLP.ligand.torsion>
2.0341

> <Gold.PLP.Chemscore.Hbond>
3.6240

> <Gold.PLP.Chemscore.CHOScore>
0.0000

> <Gold.PLP.Chemscore.Metal>
0.0000

> <Gold.Chemscore.Hbonds>
donor molecule, donor type, donor heavy atom, donor atom, acceptor molecule, acceptor atom, score
      L1  H    12    33       P1  7948  0.56
      L1  H    20    46       P1  7948  2.00
      P1  H  7997  8010       L1     4  0.99

> <Gold.PLP.Chemscore.Internal.Correction>
2.1806

> <Gold.Rescore>
     Score         DG    S(hbond)    S(metal)    S(lipo)     H(rot)  DE(clash)    DE(int)     intcor
     17.71     -20.57       2.75        0.00      89.09       1.76       0.97       1.89       ----

> <Gold.Chemscore.Fitness>
17.7109

> <Gold.Chemscore.DG>
-20.5684

> <Gold.Chemscore.ZeroCoef>
-5.4800

> <Gold.Chemscore.Hbond>
2.7453

> <Gold.Chemscore.Metal>
0.0000

> <Gold.Chemscore.Lipo>
89.0909

> <Gold.Chemscore.Internal_Hbond>
0.0000

> <Gold.Chemscore.DEClash>
0.9670

> <Gold.Chemscore.DEInternal>
1.8905

> <Gold.Chemscore.Rot>
1.7596

> <Gold.Chemscore.Internal.Correction>
   9.000000E+99

> <Gold.Chemscore.Hbonds>
donor molecule, donor type, donor heavy atom, donor atom, acceptor molecule, acceptor atom, score
      L1  H    12    33       P1  7948  0.55
      L1  H    20    46       P1  7948  0.92
      P1  H  7997  8010       L1     4  0.93

> <Gold.Chemscore.Hbond.Weighted>
-9.1692

> <Gold.Chemscore.Metal.Weighted>
-0.0000

> <Gold.Chemscore.Lipo.Weighted>
-10.4236

> <Gold.Chemscore.Internal_Hbond.Weighted>
0.0000

> <Gold.Chemscore.DEClash.Weighted>
0.9670

> <Gold.Chemscore.DEInternal.Weighted>
1.8905

> <Gold.Chemscore.Rot.Weighted>
4.5045

> <Gold.Chemscore.Internal.Correction.Weighted>
   9.000000E+99

> <Gold.Protein.RotatedTorsions>
[ 6907 6896 6895 6894 ] final  134.50 input  -60.11 | X-H torsion
[ 7974 7965 7964 7962 ] final -178.08 input  175.53 | X-H torsion
[ 8008 7997 7996 7995 ] final   27.80 input   59.86 | X-H torsion
[ 10167 10162 10161 10158 ] final  -93.72 input  -65.29 | X-H torsion
[ 10718 10713 10712 10709 ] final  -49.46 input   66.30 | X-H torsion
[ 10763 10752 10751 10750 ] final  155.28 input  -60.55 | X-H torsion
[ 11005 11000 10999 10996 ] final   69.12 input  -57.11 | X-H torsion

> <Gold.Protein.ActiveResidues>
 VAL166  LYS551  ARG553  GLY616  TRP617  ASP618  TYR619  PRO620  LYS621  CYS622 
 ASP623  PHE694  ASN695  SER759  ASP760  ASP761  ALA762  ILE779  LEU786  VAL792 
 PHE793  MET794  SER795  GLU796  ALA797  LYS798  CYS799  TRP800  GLU811  SER814 

> <Gold.Protein.RotatedAtoms>
  152.3106  133.5749  159.5678 H   0  0  0  0  0  0  0  0  0  0  0  0  # atno 6907 bound_to 6896
  150.7321  134.0157  159.3693 H   0  0  0  0  0  0  0  0  0  0  0  0  # atno 6908 bound_to 6896
  151.8050  135.0698  160.0456 H   0  0  0  0  0  0  0  0  0  0  0  0  # atno 6909 bound_to 6896
  144.7129  140.0923  143.6420 H   0  0  0  0  0  0  0  0  0  0  0  0  # atno 7974 bound_to 7965
  155.0486  140.3177  155.4699 H   0  0  0  0  0  0  0  0  0  0  0  0  # atno 8008 bound_to 7997
  156.2839  140.2150  156.5555 H   0  0  0  0  0  0  0  0  0  0  0  0  # atno 8009 bound_to 7997
  154.7229  140.0488  157.0644 H   0  0  0  0  0  0  0  0  0  0  0  0  # atno 8010 bound_to 7997
  140.3218  143.3045  152.0038 H   0  0  0  0  0  0  0  0  0  0  0  0  # atno 10167 bound_to 10162
  156.1891  130.4152  149.9397 H   0  0  0  0  0  0  0  0  0  0  0  0  # atno 10718 bound_to 10713
  154.1658  135.2807  155.3095 H   0  0  0  0  0  0  0  0  0  0  0  0  # atno 10763 bound_to 10752
  154.6112  135.5498  153.7479 H   0  0  0  0  0  0  0  0  0  0  0  0  # atno 10764 bound_to 10752
  153.0179  135.6416  154.1799 H   0  0  0  0  0  0  0  0  0  0  0  0  # atno 10765 bound_to 10752
  139.9672  134.6961  156.0521 H   0  0  0  0  0  0  0  0  0  0  0  0  # atno 11005 bound_to 11000
  145.9610  139.2800  143.1156 LP  0  0  0  0  0  0  0  0  0  0  0  0  # atno 17320 bound_to 7965
  145.9221  140.9108  143.0400 LP  0  0  0  0  0  0  0  0  0  0  0  0  # atno 17321 bound_to 7965
  139.4873  144.6305  151.7079 LP  0  0  0  0  0  0  0  0  0  0  0  0  # atno 17342 bound_to 10162
  140.5477  144.0477  150.6114 LP  0  0  0  0  0  0  0  0  0  0  0  0  # atno 17343 bound_to 10162
  156.7143  130.8982  151.3612 LP  0  0  0  0  0  0  0  0  0  0  0  0  # atno 17370 bound_to 10713
  157.6918  130.9241  150.0534 LP  0  0  0  0  0  0  0  0  0  0  0  0  # atno 17371 bound_to 10713
  141.1352  133.6577  156.3573 LP  0  0  0  0  0  0  0  0  0  0  0  0  # atno 17394 bound_to 11000
  140.5371  134.6156  157.5368 LP  0  0  0  0  0  0  0  0  0  0  0  0  # atno 17395 bound_to 11000

$$$$
