AV-unprocessed.smi:2198|AV-procd|sdf|8921|dock3
  -GOLD-   2272012133D 1   1.00000     0.00000
 Structure written by MMmdl.
 42 43  0  0  0  0  0  0  0  0  2 V2000
  147.8002  136.0327  160.7675 C   0  0  0  0  0  0  0  0  0  0  0  0
  148.4824  136.6911  159.5872 C   0  0  0  0  0  0  0  0  0  0  0  0
  148.0424  137.8111  159.1555 N   0  0  0  0  0  0  0  0  0  0  0  0
  148.6767  138.4289  158.0643 C   0  0  0  0  0  0  0  0  0  0  0  0
  148.0888  139.7584  157.6240 C   0  0  0  0  0  0  0  0  0  0  0  0
  149.7528  137.8537  157.4544 C   0  0  0  0  0  0  0  0  0  0  0  0
  150.4822  138.4888  156.2713 C   0  0  0  0  0  0  0  0  0  0  0  0
  151.5476  139.5234  156.6372 C   0  0  0  0  0  0  0  0  0  0  0  0
  152.4960  139.7275  155.8797 O   0  0  0  0  0  0  0  0  0  0  0  0
  151.3785  140.1707  157.8006 N   0  0  0  0  0  0  0  0  0  0  0  0
  152.2651  141.2004  158.3323 C   0  0  2  0  0  0  0  0  0  0  0  0
  152.7385  140.8302  159.7523 C   0  0  0  0  0  0  0  0  0  0  0  0
  153.6116  141.9403  160.3560 C   0  0  0  0  0  0  0  0  0  0  0  0
  152.8777  143.2903  160.3537 C   0  0  0  0  0  0  0  0  0  0  0  0
  152.4075  143.6757  158.9379 C   0  0  2  0  0  0  0  0  0  0  0  0
  151.6714  145.0230  158.9398 C   0  0  0  0  0  0  0  0  0  0  0  0
  151.5350  142.5569  158.3354 C   0  0  0  0  0  0  0  0  0  0  0  0
  150.2240  136.5589  157.9785 C   0  0  0  0  0  0  0  0  0  0  0  0
  151.1825  135.9891  157.4584 O   0  0  0  0  0  0  0  0  0  0  0  0
  149.5600  136.0282  159.0447 N   0  5  0  0  0  0  0  0  0  0  0  0
  146.8607  136.5324  161.0077 H   0  0  0  0  0  0  0  0  0  0  0  0
  148.4453  136.0740  161.6455 H   0  0  0  0  0  0  0  0  0  0  0  0
  147.5818  134.9873  160.5466 H   0  0  0  0  0  0  0  0  0  0  0  0
  148.8376  140.5486  157.6779 H   0  0  0  0  0  0  0  0  0  0  0  0
  147.2519  140.0496  158.2599 H   0  0  0  0  0  0  0  0  0  0  0  0
  147.7223  139.6934  156.5997 H   0  0  0  0  0  0  0  0  0  0  0  0
  150.9402  137.6940  155.6819 H   0  0  0  0  0  0  0  0  0  0  0  0
  149.7752  138.9576  155.5866 H   0  0  0  0  0  0  0  0  0  0  0  0
  150.5676  139.9377  158.3551 H   0  0  0  0  0  0  0  0  0  0  0  0
  153.1368  141.2877  157.6806 H   0  0  0  0  0  0  0  0  0  0  0  0
  151.8753  140.6581  160.3970 H   0  0  0  0  0  0  0  0  0  0  0  0
  153.3003  139.8958  159.7319 H   0  0  0  0  0  0  0  0  0  0  0  0
  153.8983  141.6750  161.3741 H   0  0  0  0  0  0  0  0  0  0  0  0
  154.5382  142.0263  159.7869 H   0  0  0  0  0  0  0  0  0  0  0  0
  152.0204  143.2381  161.0264 H   0  0  0  0  0  0  0  0  0  0  0  0
  153.5356  144.0632  160.7524 H   0  0  0  0  0  0  0  0  0  0  0  0
  153.2920  143.7865  158.3087 H   0  0  0  0  0  0  0  0  0  0  0  0
  150.7726  144.9831  159.5561 H   0  0  0  0  0  0  0  0  0  0  0  0
  151.3714  145.3089  157.9313 H   0  0  0  0  0  0  0  0  0  0  0  0
  152.3081  145.8172  159.3307 H   0  0  0  0  0  0  0  0  0  0  0  0
  151.2493  142.8212  157.3162 H   0  0  0  0  0  0  0  0  0  0  0  0
  150.6066  142.4733  158.9030 H   0  0  0  0  0  0  0  0  0  0  0  0
  1  2  1  0  0  0  0
  1 21  1  0  0  0  0
  1 22  1  0  0  0  0
  1 23  1  0  0  0  0
  2 20  1  0  0  0  0
  2  3  2  0  0  0  0
  3  4  1  0  0  0  0
  4  5  1  0  0  0  0
  4  6  2  0  0  0  0
  5 24  1  0  0  0  0
  5 25  1  0  0  0  0
  5 26  1  0  0  0  0
  6  7  1  0  0  0  0
  6 18  1  0  0  0  0
  7  8  1  0  0  0  0
  7 27  1  0  0  0  0
  7 28  1  0  0  0  0
  8  9  2  0  0  0  0
  8 10  1  0  0  0  0
 10 11  1  0  0  0  0
 10 29  1  0  0  0  0
 11 17  1  0  0  0  0
 11 12  1  0  0  0  0
 11 30  1  0  0  0  0
 12 13  1  0  0  0  0
 12 31  1  0  0  0  0
 12 32  1  0  0  0  0
 13 14  1  0  0  0  0
 13 33  1  0  0  0  0
 13 34  1  0  0  0  0
 14 15  1  0  0  0  0
 14 35  1  0  0  0  0
 14 36  1  0  0  0  0
 15 16  1  0  0  0  0
 15 17  1  0  0  0  0
 15 37  1  0  0  0  0
 16 38  1  0  0  0  0
 16 39  1  0  0  0  0
 16 40  1  0  0  0  0
 17 41  1  0  0  0  0
 17 42  1  0  0  0  0
 18 19  2  0  0  0  0
 18 20  1  0  0  0  0
M  CHG  1  20  -1
M  END
> <s_m_source_file>
AV-unprocessed.smi

> <i_m_source_file_index>
2198

> <i_lp_mmshare_version>
43012

> <i_f3d_flags>
0

> <s_epik_input>
W0NIM11jMW5jKFtDSDNdKWMoYyg9TylbbkhdMSlbQ0gyXUMoPU8pW05IXVtDQEBIXTJbQ0gyXVtDSDJdW0NIMl1bQ0BASF0oW0NIM10pW0NIMl0y

> <s_epik_cmdline>
J2VwaWtfcHl0aG9uJywgJy1waCcsICc3LjAnLCAnLXRuJywgJzgnLCAnLW1hJywgJzIwMCcsICctbWV0YWxfYmluZGluZycsICctaW1hZScsICc8aW5maWxlLm1hZT4nLCAnLW9tYWUnLCAnPG91dGZpbGUubWFlPic=

> <r_lp_tautomer_probability>
0.839158

> <r_epik_Ionization_Penalty>
6.67193

> <r_epik_Ionization_Penalty_Charging>
7.66837e-08

> <r_epik_Ionization_Penalty_Neutral>
6.67193

> <r_epik_State_Penalty>
4.51643

> <r_epik_Charging_Adjusted_Penalty>
4.51643

> <i_epik_Tot_Q>
-1

> <i_epik_Tot_abs_Q>
1

> <r_epik_Metal_State_Penalty>
0.851582

> <b_epik_Metal_Only>
1

> <s_lp_Force_Field>
OPLS_2005

> <r_lp_Energy>
13.6631

> <b_lp_Chiralities_Consistent>
1

> <s_lp_Variant>
AV-unprocessed.smi:2198-11

> <Gold.Version>
5.8.1

> <Gold.Id.Protein>
6NUR|6NUR_protein|mol2

> <Gold.PLP.Fitness>
43.8452

> <Gold.PLP.PLP>
-35.7313

> <Gold.PLP.part.hbond>
-3.9223

> <Gold.PLP.part.metal>
0.0000

> <Gold.PLP.part.buried>
-5.6136

> <Gold.PLP.part.nonpolar>
-27.4629

> <Gold.PLP.part.repulsive>
0.0709

> <Gold.PLP.ligand.clash>
0.0000

> <Gold.PLP.ligand.torsion>
0.7498

> <Gold.PLP.Chemscore.Hbond>
3.2033

> <Gold.PLP.Chemscore.CHOScore>
0.0000

> <Gold.PLP.Chemscore.Metal>
0.0000

> <Gold.Chemscore.Hbonds>
donor molecule, donor type, donor heavy atom, donor atom, acceptor molecule, acceptor atom, score
      P1  H  6896  6907       L1    20  2.00
      P1  H  6934  6947       L1     3  0.14
      P1  H  7997  8008       L1     9  1.00

> <Gold.PLP.Chemscore.Internal.Correction>
0.0036

> <Gold.Rescore>
     Score         DG    S(hbond)    S(metal)    S(lipo)     H(rot)  DE(clash)    DE(int)     intcor
     18.22     -19.06       1.99        0.00      90.83       1.45       0.09       0.75       ----

> <Gold.Chemscore.Fitness>
18.2200

> <Gold.Chemscore.DG>
-19.0568

> <Gold.Chemscore.ZeroCoef>
-5.4800

> <Gold.Chemscore.Hbond>
1.9908

> <Gold.Chemscore.Metal>
0.0000

> <Gold.Chemscore.Lipo>
90.8283

> <Gold.Chemscore.Internal_Hbond>
0.0000

> <Gold.Chemscore.DEClash>
0.0901

> <Gold.Chemscore.DEInternal>
0.7468

> <Gold.Chemscore.Rot>
1.4450

> <Gold.Chemscore.Internal.Correction>
   9.000000E+99

> <Gold.Chemscore.Hbonds>
donor molecule, donor type, donor heavy atom, donor atom, acceptor molecule, acceptor atom, score
      P1  H  6896  6907       L1    20  0.30
      P1  H  6934  6947       L1     3  0.11
      P1  H  7997  8008       L1     9  0.99

> <Gold.Chemscore.Hbond.Weighted>
-6.6492

> <Gold.Chemscore.Metal.Weighted>
-0.0000

> <Gold.Chemscore.Lipo.Weighted>
-10.6269

> <Gold.Chemscore.Internal_Hbond.Weighted>
0.0000

> <Gold.Chemscore.DEClash.Weighted>
0.0901

> <Gold.Chemscore.DEInternal.Weighted>
0.7468

> <Gold.Chemscore.Rot.Weighted>
3.6992

> <Gold.Chemscore.Internal.Correction.Weighted>
   9.000000E+99

> <Gold.Protein.RotatedTorsions>
[ 6907 6896 6895 6894 ] final  -53.82 input  -60.11 | X-H torsion
[ 7974 7965 7964 7962 ] final -170.28 input  175.53 | X-H torsion
[ 8008 7997 7996 7995 ] final  -24.76 input   59.86 | X-H torsion
[ 10167 10162 10161 10158 ] final   37.05 input  -65.29 | X-H torsion
[ 10718 10713 10712 10709 ] final -177.79 input   66.30 | X-H torsion
[ 10763 10752 10751 10750 ] final  -46.31 input  -60.55 | X-H torsion
[ 11005 11000 10999 10996 ] final   33.25 input  -57.11 | X-H torsion

> <Gold.Protein.ActiveResidues>
 VAL166  LYS551  ARG553  GLY616  TRP617  ASP618  TYR619  PRO620  LYS621  CYS622 
 ASP623  PHE694  ASN695  SER759  ASP760  ASP761  ALA762  ILE779  LEU786  VAL792 
 PHE793  MET794  SER795  GLU796  ALA797  LYS798  CYS799  TRP800  GLU811  SER814 

> <Gold.Protein.RotatedAtoms>
  150.8393  134.7678  159.6918 H   0  0  0  0  0  0  0  0  0  0  0  0  # atno 6907 bound_to 6896
  152.4483  134.5444  159.9858 H   0  0  0  0  0  0  0  0  0  0  0  0  # atno 6908 bound_to 6896
  151.5587  133.3368  159.3003 H   0  0  0  0  0  0  0  0  0  0  0  0  # atno 6909 bound_to 6896
  144.7172  140.2096  143.6329 H   0  0  0  0  0  0  0  0  0  0  0  0  # atno 7974 bound_to 7965
  154.4512  140.1945  156.0514 H   0  0  0  0  0  0  0  0  0  0  0  0  # atno 8008 bound_to 7997
  156.0651  140.3292  155.7481 H   0  0  0  0  0  0  0  0  0  0  0  0  # atno 8009 bound_to 7997
  155.5351  140.0581  157.2872 H   0  0  0  0  0  0  0  0  0  0  0  0  # atno 8010 bound_to 7997
  140.4070  144.1646  150.6137 H   0  0  0  0  0  0  0  0  0  0  0  0  # atno 10167 bound_to 10162
  156.8346  130.9665  151.3104 H   0  0  0  0  0  0  0  0  0  0  0  0  # atno 10718 bound_to 10713
  154.0428  135.6641  153.4792 H   0  0  0  0  0  0  0  0  0  0  0  0  # atno 10763 bound_to 10752
  153.0494  135.5094  154.7825 H   0  0  0  0  0  0  0  0  0  0  0  0  # atno 10764 bound_to 10752
  154.6807  135.3044  154.9583 H   0  0  0  0  0  0  0  0  0  0  0  0  # atno 10765 bound_to 10752
  140.2650  134.3148  155.7845 H   0  0  0  0  0  0  0  0  0  0  0  0  # atno 11005 bound_to 11000
  145.8604  139.2220  143.1720 LP  0  0  0  0  0  0  0  0  0  0  0  0  # atno 17320 bound_to 7965
  146.0179  140.8375  142.9938 LP  0  0  0  0  0  0  0  0  0  0  0  0  # atno 17321 bound_to 7965
  140.4679  143.2424  151.9129 LP  0  0  0  0  0  0  0  0  0  0  0  0  # atno 17342 bound_to 10162
  139.4783  144.5400  151.8542 LP  0  0  0  0  0  0  0  0  0  0  0  0  # atno 17343 bound_to 10162
  157.6388  130.8789  149.9409 LP  0  0  0  0  0  0  0  0  0  0  0  0  # atno 17370 bound_to 10713
  156.0915  130.3663  150.0387 LP  0  0  0  0  0  0  0  0  0  0  0  0  # atno 17371 bound_to 10713
  141.2185  133.7432  156.9247 LP  0  0  0  0  0  0  0  0  0  0  0  0  # atno 17394 bound_to 11000
  140.1427  134.9282  157.2489 LP  0  0  0  0  0  0  0  0  0  0  0  0  # atno 17395 bound_to 11000

$$$$
