AV-unprocessed.smi:21|AV-procd|sdf|131|dock5
  -GOLD-   2262015323D 1   1.00000     0.00000
 Structure written by MMmdl.
 62 65  0  0  0  0  0  0  0  0  2 V2000
  143.8583  132.7269  151.4835 C   0  0  0  0  0  0  0  0  0  0  0  0
  144.9448  132.4152  152.3413 O   0  0  0  0  0  0  0  0  0  0  0  0
  145.8929  131.5254  151.7658 C   0  0  1  0  0  0  0  0  0  0  0  0
  147.1753  131.5750  152.5865 C   0  0  0  0  0  0  0  0  0  0  0  0
  146.8829  130.6635  153.7845 C   0  0  2  0  0  0  0  0  0  0  0  0
  148.1539  130.0984  154.4692 C   0  0  0  0  0  0  0  0  0  0  0  0
  148.1148  130.2030  155.9277 N   0  0  0  0  0  0  0  0  0  0  0  0
  148.1731  128.9650  156.7046 C   0  0  0  0  0  0  0  0  0  0  0  0
  148.3442  131.3931  156.5606 C   0  0  0  0  0  0  0  0  0  0  0  0
  148.1950  131.4368  157.9130 N   0  0  0  0  0  0  0  0  0  0  0  0
  148.4169  132.5610  158.5974 C   0  0  0  0  0  0  0  0  0  0  0  0
  148.7927  133.7530  158.1377 N   0  0  0  0  0  0  0  0  0  0  0  0
  148.9388  133.7337  156.7833 C   0  0  0  0  0  0  0  0  0  0  0  0
  148.7363  132.6134  155.9228 C   0  0  0  0  0  0  0  0  0  0  0  0
  148.9840  133.0007  154.6081 N   0  0  0  0  0  0  0  0  0  0  0  0
  149.3152  134.2592  154.6886 C   0  0  0  0  0  0  0  0  0  0  0  0
  149.3005  134.7847  155.9585 N   0  0  0  0  0  0  0  0  0  0  0  0
  149.6419  136.1450  156.3391 C   0  0  0  0  0  0  0  0  0  0  0  0
  151.0481  136.6109  155.8786 C   0  0  2  0  0  0  0  0  0  0  0  0
  152.0689  136.2074  156.9712 C   0  0  0  0  0  0  0  0  0  0  0  0
  153.4022  136.3690  156.5337 O   0  0  0  0  0  0  0  0  0  0  0  0
  151.1041  138.1360  155.5567 C   0  0  1  0  0  0  0  0  0  0  0  0
  151.2789  139.0525  156.7578 C   0  0  0  0  0  0  0  0  0  0  0  0
  151.7301  140.3530  156.1103 C   0  0  0  0  0  0  0  0  0  0  0  0
  152.5821  139.9438  155.0519 O   0  0  0  0  0  0  0  0  0  0  0  0
  152.2851  138.5987  154.6877 C   0  0  0  0  0  0  0  0  0  0  0  0
  145.9031  129.6523  153.2916 N   0  3  2  0  0  0  0  0  0  0  0  0
  146.2923  128.2238  153.3620 C   0  0  0  0  0  0  0  0  0  0  0  0
  145.4545  130.0679  151.9418 C   0  0  0  0  0  0  0  0  0  0  0  0
  146.0852  131.7840  150.7231 H   0  0  0  0  0  0  0  0  0  0  0  0
  146.3259  131.2548  154.5116 H   0  0  0  0  0  0  0  0  0  0  0  0
  143.1684  133.3948  151.9990 H   0  0  0  0  0  0  0  0  0  0  0  0
  143.3033  131.8363  151.1895 H   0  0  0  0  0  0  0  0  0  0  0  0
  144.2039  133.2352  150.5827 H   0  0  0  0  0  0  0  0  0  0  0  0
  147.9971  131.1650  151.9976 H   0  0  0  0  0  0  0  0  0  0  0  0
  147.4511  132.5881  152.8814 H   0  0  0  0  0  0  0  0  0  0  0  0
  148.3340  129.0614  154.1935 H   0  0  0  0  0  0  0  0  0  0  0  0
  149.0288  130.6392  154.1078 H   0  0  0  0  0  0  0  0  0  0  0  0
  147.4538  128.9902  157.5241 H   0  0  0  0  0  0  0  0  0  0  0  0
  149.1695  128.8167  157.1223 H   0  0  0  0  0  0  0  0  0  0  0  0
  147.9379  128.0959  156.0903 H   0  0  0  0  0  0  0  0  0  0  0  0
  148.2739  132.4951  159.6660 H   0  0  0  0  0  0  0  0  0  0  0  0
  149.5756  134.8438  153.8182 H   0  0  0  0  0  0  0  0  0  0  0  0
  148.8799  136.8260  155.9588 H   0  0  0  0  0  0  0  0  0  0  0  0
  149.5684  136.1873  157.4264 H   0  0  0  0  0  0  0  0  0  0  0  0
  151.3017  136.0536  154.9754 H   0  0  0  0  0  0  0  0  0  0  0  0
  151.9075  136.7782  157.8863 H   0  0  0  0  0  0  0  0  0  0  0  0
  151.9607  135.1552  157.2360 H   0  0  0  0  0  0  0  0  0  0  0  0
  153.6072  137.2916  156.5278 H   0  0  0  0  0  0  0  0  0  0  0  0
  150.1789  138.4237  155.0545 H   0  0  0  0  0  0  0  0  0  0  0  0
  150.3665  139.1780  157.3413 H   0  0  0  0  0  0  0  0  0  0  0  0
  152.0623  138.6758  157.4169 H   0  0  0  0  0  0  0  0  0  0  0  0
  150.8767  140.8883  155.6921 H   0  0  0  0  0  0  0  0  0  0  0  0
  152.2434  141.0166  156.8065 H   0  0  0  0  0  0  0  0  0  0  0  0
  153.1743  137.9966  154.8761 H   0  0  0  0  0  0  0  0  0  0  0  0
  152.0576  138.5461  153.6238 H   0  0  0  0  0  0  0  0  0  0  0  0
  147.1904  128.0254  152.7761 H   0  0  0  0  0  0  0  0  0  0  0  0
  145.4905  127.5987  152.9680 H   0  0  0  0  0  0  0  0  0  0  0  0
  146.4658  127.9122  154.3920 H   0  0  0  0  0  0  0  0  0  0  0  0
  144.3831  129.9150  151.8150 H   0  0  0  0  0  0  0  0  0  0  0  0
  145.9597  129.4601  151.1889 H   0  0  0  0  0  0  0  0  0  0  0  0
  145.0994  129.7500  153.8960 H   0  0  0  0  0  0  0  0  0  0  0  0
  1  2  1  0  0  0  0
  1 32  1  0  0  0  0
  1 33  1  0  0  0  0
  1 34  1  0  0  0  0
  2  3  1  0  0  0  0
  3 30  1  0  0  0  0
  3 29  1  0  0  0  0
  3  4  1  0  0  0  0
  4  5  1  0  0  0  0
  4 35  1  0  0  0  0
  4 36  1  0  0  0  0
  5 31  1  0  0  0  0
  5  6  1  0  0  0  0
  5 27  1  0  0  0  0
  6  7  1  0  0  0  0
  6 37  1  0  0  0  0
  6 38  1  0  0  0  0
  7  8  1  0  0  0  0
  7  9  1  0  0  0  0
  8 39  1  0  0  0  0
  8 40  1  0  0  0  0
  8 41  1  0  0  0  0
  9 14  1  0  0  0  0
  9 10  2  0  0  0  0
 10 11  1  0  0  0  0
 11 12  2  0  0  0  0
 11 42  1  0  0  0  0
 12 13  1  0  0  0  0
 13 17  1  0  0  0  0
 13 14  2  0  0  0  0
 14 15  1  0  0  0  0
 15 16  2  0  0  0  0
 16 17  1  0  0  0  0
 16 43  1  0  0  0  0
 17 18  1  0  0  0  0
 18 19  1  0  0  0  0
 18 44  1  0  0  0  0
 18 45  1  0  0  0  0
 19 20  1  0  0  0  0
 19 22  1  0  0  0  0
 19 46  1  0  0  0  0
 20 21  1  0  0  0  0
 20 47  1  0  0  0  0
 20 48  1  0  0  0  0
 21 49  1  0  0  0  0
 22 26  1  0  0  0  0
 22 23  1  0  0  0  0
 22 50  1  0  0  0  0
 23 24  1  0  0  0  0
 23 51  1  0  0  0  0
 23 52  1  0  0  0  0
 24 25  1  0  0  0  0
 24 53  1  0  0  0  0
 24 54  1  0  0  0  0
 25 26  1  0  0  0  0
 26 55  1  0  0  0  0
 26 56  1  0  0  0  0
 27 28  1  0  0  0  0
 27 29  1  0  0  0  0
 27 62  1  0  0  0  0
 28 57  1  0  0  0  0
 28 58  1  0  0  0  0
 28 59  1  0  0  0  0
 29 60  1  0  0  0  0
 29 61  1  0  0  0  0
M  CHG  1  27   1
M  END
> <s_m_source_file>
AV-unprocessed.smi

> <i_m_source_file_index>
21

> <i_lp_mmshare_version>
43012

> <i_f3d_flags>
0

> <s_epik_input>
W0NIM11PW0NASF0xW0NIMl1bQ0BIXShOKFtDSDNdKVtDSDJdMSlbQ0gyXU4oW0NIM10pYyhuW2NIXW4yKWMoYzIzKW5bY0hdbjNbQ0gyXVtDQEhdKFtDSDJdW09IXSlbQ0BASF00W0NIMl1bQ0gyXU9bQ0gyXTQ=

> <s_epik_cmdline>
J2VwaWtfcHl0aG9uJywgJy1waCcsICc3LjAnLCAnLXRuJywgJzgnLCAnLW1hJywgJzIwMCcsICctbWV0YWxfYmluZGluZycsICctaW1hZScsICc8aW5maWxlLm1hZT4nLCAnLW9tYWUnLCAnPG91dGZpbGUubWFlPic=

> <r_lp_tautomer_probability>
1

> <r_epik_Ionization_Penalty>
0.0157465

> <r_epik_Ionization_Penalty_Charging>
0.015354

> <r_epik_Ionization_Penalty_Neutral>
0.000392529

> <r_epik_State_Penalty>
0.0120612

> <r_epik_Charging_Adjusted_Penalty>
0.0274152

> <i_epik_Tot_Q>
1

> <i_epik_Tot_abs_Q>
1

> <r_epik_Metal_State_Penalty>
0.0121253

> <b_epik_Metal_Only>
0

> <s_lp_Force_Field>
OPLS_2005

> <r_lp_Energy>
62.3844

> <b_lp_Chiralities_Consistent>
1

> <s_lp_Variant>
AV-unprocessed.smi:21-11

> <Gold.Version>
5.8.1

> <Gold.Id.Protein>
6NUR|6NUR_protein|mol2

> <Gold.PLP.Fitness>
45.9457

> <Gold.PLP.PLP>
-32.1070

> <Gold.PLP.part.hbond>
-4.1060

> <Gold.PLP.part.metal>
0.0000

> <Gold.PLP.part.buried>
-4.3663

> <Gold.PLP.part.nonpolar>
-25.0070

> <Gold.PLP.part.repulsive>
0.2148

> <Gold.PLP.ligand.clash>
0.0000

> <Gold.PLP.ligand.torsion>
1.8168

> <Gold.PLP.Chemscore.Hbond>
4.9622

> <Gold.PLP.Chemscore.CHOScore>
0.5815

> <Gold.PLP.Chemscore.Metal>
0.0000

> <Gold.Chemscore.Hbonds>
donor molecule, donor type, donor heavy atom, donor atom, acceptor molecule, acceptor atom, score
      L1  H    27    62       P1 10956  2.00
      P1  H  6896  6909       L1    12  0.46
      P1  H  7989  7998       L1    25  0.50
      P1  H  7997  8010       L1    25  0.93
      P1  H 10752 10763       L1    21  1.00
      L1  C    16    43       P1  7948  0.61

> <Gold.PLP.Chemscore.Internal.Correction>
0.8413

> <Gold.Rescore>
     Score         DG    S(hbond)    S(metal)    S(lipo)     H(rot)  DE(clash)    DE(int)     intcor
     13.36     -16.20       2.72        0.00      81.19       3.08       0.10       2.74       ----

> <Gold.Chemscore.Fitness>
13.3574

> <Gold.Chemscore.DG>
-16.1953

> <Gold.Chemscore.ZeroCoef>
-5.4800

> <Gold.Chemscore.Hbond>
2.7215

> <Gold.Chemscore.Metal>
0.0000

> <Gold.Chemscore.Lipo>
81.1930

> <Gold.Chemscore.Internal_Hbond>
0.0000

> <Gold.Chemscore.DEClash>
0.1026

> <Gold.Chemscore.DEInternal>
2.7352

> <Gold.Chemscore.Rot>
3.0758

> <Gold.Chemscore.Internal.Correction>
   9.000000E+99

> <Gold.Chemscore.Hbonds>
donor molecule, donor type, donor heavy atom, donor atom, acceptor molecule, acceptor atom, score
      L1  H    27    62       P1 10956  0.47
      P1  H  6896  6909       L1    12  0.11
      P1  H  7989  7998       L1    25  0.02
      P1  H  7997  8010       L1    25  0.23
      P1  H 10752 10763       L1    21  0.54

> <Gold.Chemscore.Hbond.Weighted>
-9.0898

> <Gold.Chemscore.Metal.Weighted>
-0.0000

> <Gold.Chemscore.Lipo.Weighted>
-9.4996

> <Gold.Chemscore.Internal_Hbond.Weighted>
0.0000

> <Gold.Chemscore.DEClash.Weighted>
0.1026

> <Gold.Chemscore.DEInternal.Weighted>
2.7352

> <Gold.Chemscore.Rot.Weighted>
7.8741

> <Gold.Chemscore.Internal.Correction.Weighted>
   9.000000E+99

> <Gold.Protein.RotatedTorsions>
[ 6907 6896 6895 6894 ] final   19.64 input  -60.11 | X-H torsion
[ 7974 7965 7964 7962 ] final  -19.28 input  175.53 | X-H torsion
[ 8008 7997 7996 7995 ] final  101.51 input   59.86 | X-H torsion
[ 10167 10162 10161 10158 ] final  -73.69 input  -65.29 | X-H torsion
[ 10718 10713 10712 10709 ] final  -95.83 input   66.30 | X-H torsion
[ 10763 10752 10751 10750 ] final  122.10 input  -60.55 | X-H torsion
[ 11005 11000 10999 10996 ] final   38.19 input  -57.11 | X-H torsion

> <Gold.Protein.ActiveResidues>
 VAL166  LYS551  ARG553  GLY616  TRP617  ASP618  TYR619  PRO620  LYS621  CYS622 
 ASP623  PHE694  ASN695  SER759  ASP760  ASP761  ALA762  ILE779  LEU786  VAL792 
 PHE793  MET794  SER795  GLU796  ALA797  LYS798  CYS799  TRP800  GLU811  SER814 

> <Gold.Protein.RotatedAtoms>
  151.8841  135.0442  160.0491 H   0  0  0  0  0  0  0  0  0  0  0  0  # atno 6907 bound_to 6896
  152.2489  133.5194  159.5322 H   0  0  0  0  0  0  0  0  0  0  0  0  # atno 6908 bound_to 6896
  150.7077  134.0903  159.3972 H   0  0  0  0  0  0  0  0  0  0  0  0  # atno 6909 bound_to 6896
  146.1849  140.4039  142.8480 H   0  0  0  0  0  0  0  0  0  0  0  0  # atno 7974 bound_to 7965
  156.1306  140.3196  155.8344 H   0  0  0  0  0  0  0  0  0  0  0  0  # atno 8008 bound_to 7997
  155.4338  140.0520  157.3033 H   0  0  0  0  0  0  0  0  0  0  0  0  # atno 8009 bound_to 7997
  154.4897  140.2087  155.9590 H   0  0  0  0  0  0  0  0  0  0  0  0  # atno 8010 bound_to 7997
  140.5089  143.2348  151.7627 H   0  0  0  0  0  0  0  0  0  0  0  0  # atno 10167 bound_to 10162
  156.0050  130.5125  150.6134 H   0  0  0  0  0  0  0  0  0  0  0  0  # atno 10718 bound_to 10713
  153.6244  135.3407  155.3021 H   0  0  0  0  0  0  0  0  0  0  0  0  # atno 10763 bound_to 10752
  154.8593  135.4280  154.2172 H   0  0  0  0  0  0  0  0  0  0  0  0  # atno 10764 bound_to 10752
  153.3053  135.7027  153.7238 H   0  0  0  0  0  0  0  0  0  0  0  0  # atno 10765 bound_to 10752
  140.2151  134.3708  155.8031 H   0  0  0  0  0  0  0  0  0  0  0  0  # atno 11005 bound_to 11000
  144.8380  140.6813  143.6248 LP  0  0  0  0  0  0  0  0  0  0  0  0  # atno 17320 bound_to 7965
  145.3967  139.1605  143.4200 LP  0  0  0  0  0  0  0  0  0  0  0  0  # atno 17321 bound_to 7965
  139.4891  144.4418  151.9755 LP  0  0  0  0  0  0  0  0  0  0  0  0  # atno 17342 bound_to 10162
  140.3510  144.3089  150.5949 LP  0  0  0  0  0  0  0  0  0  0  0  0  # atno 17343 bound_to 10162
  157.3963  131.0803  151.1349 LP  0  0  0  0  0  0  0  0  0  0  0  0  # atno 17370 bound_to 10713
  157.2025  130.6401  149.5744 LP  0  0  0  0  0  0  0  0  0  0  0  0  # atno 17371 bound_to 10713
  141.2225  133.7163  156.8482 LP  0  0  0  0  0  0  0  0  0  0  0  0  # atno 17394 bound_to 11000
  140.1909  134.8966  157.3059 LP  0  0  0  0  0  0  0  0  0  0  0  0  # atno 17395 bound_to 11000

$$$$
