AV-unprocessed.smi:1995|AV-procd|sdf|8082|dock8
  -GOLD-   2272010293D 1   1.00000     0.00000
 Structure written by MMmdl.
 42 43  0  0  0  0  0  0  0  0  3 V2000
  149.5356  132.7906  154.5906 C   0  0  0  0  0  0  0  0  0  0  0  0
  149.9417  134.2269  154.2155 C   0  0  0  0  0  0  0  0  0  0  0  0
  149.3373  135.3670  155.0908 C   0  0  1  0  0  0  0  0  0  0  0  0
  147.7884  135.3261  154.9898 C   0  0  0  0  0  0  0  0  0  0  0  0
  149.7004  135.1492  156.5910 C   0  0  0  0  0  0  0  0  0  0  0  0
  148.8418  135.9259  157.4873 N   0  0  0  0  0  0  0  0  0  0  0  0
  149.2180  136.5701  158.6013 C   0  0  0  0  0  0  0  0  0  0  0  0
  150.3685  136.4520  159.0269 O   0  0  0  0  0  0  0  0  0  0  0  0
  148.2432  137.3368  159.1361 N   0  5  0  0  0  0  0  0  0  0  0  0
  147.5927  136.9205  160.2345 C   0  0  0  0  0  0  0  0  0  0  0  0
  146.5489  137.5765  160.7547 N   0  0  0  0  0  0  0  0  0  0  0  0
  146.0249  136.9678  161.8967 C   0  0  0  0  0  0  0  0  0  0  0  0
  146.6808  135.8182  162.2492 C   0  0  0  0  0  0  0  0  0  0  0  0
  147.9847  135.4643  161.1519 S   0  0  0  0  0  0  0  0  0  0  0  0
  149.8621  136.7137  154.6538 N   0  3  0  0  0  0  0  0  0  0  0  0
  149.0701  137.8905  155.1068 C   0  0  0  0  0  0  0  0  0  0  0  0
  149.5265  139.1507  154.3578 C   0  0  0  0  0  0  0  0  0  0  0  0
  150.9039  139.3728  154.6286 O   0  0  0  0  0  0  0  0  0  0  0  0
  151.7124  138.2971  154.1697 C   0  0  0  0  0  0  0  0  0  0  0  0
  151.3100  136.9865  154.8716 C   0  0  0  0  0  0  0  0  0  0  0  0
  150.0389  132.0742  153.9413 H   0  0  0  0  0  0  0  0  0  0  0  0
  148.4646  132.6256  154.4765 H   0  0  0  0  0  0  0  0  0  0  0  0
  149.8118  132.5444  155.6152 H   0  0  0  0  0  0  0  0  0  0  0  0
  151.0302  134.2661  154.2536 H   0  0  0  0  0  0  0  0  0  0  0  0
  149.6731  134.3894  153.1714 H   0  0  0  0  0  0  0  0  0  0  0  0
  147.3737  134.4542  155.4960 H   0  0  0  0  0  0  0  0  0  0  0  0
  147.4474  135.2768  153.9551 H   0  0  0  0  0  0  0  0  0  0  0  0
  147.3290  136.2002  155.4531 H   0  0  0  0  0  0  0  0  0  0  0  0
  149.5726  134.1022  156.8651 H   0  0  0  0  0  0  0  0  0  0  0  0
  150.7528  135.3619  156.7801 H   0  0  0  0  0  0  0  0  0  0  0  0
  147.8803  136.0394  157.2006 H   0  0  0  0  0  0  0  0  0  0  0  0
  145.1810  137.4213  162.3951 H   0  0  0  0  0  0  0  0  0  0  0  0
  146.4778  135.1609  163.0811 H   0  0  0  0  0  0  0  0  0  0  0  0
  148.0047  137.7430  154.9420 H   0  0  0  0  0  0  0  0  0  0  0  0
  149.2048  138.0467  156.1777 H   0  0  0  0  0  0  0  0  0  0  0  0
  149.3573  139.0543  153.2837 H   0  0  0  0  0  0  0  0  0  0  0  0
  148.9568  140.0164  154.6955 H   0  0  0  0  0  0  0  0  0  0  0  0
  151.6197  138.1987  153.0867 H   0  0  0  0  0  0  0  0  0  0  0  0
  152.7571  138.5286  154.3781 H   0  0  0  0  0  0  0  0  0  0  0  0
  151.5215  137.0467  155.9398 H   0  0  0  0  0  0  0  0  0  0  0  0
  151.9405  136.2002  154.4606 H   0  0  0  0  0  0  0  0  0  0  0  0
  149.7564  136.6955  153.6484 H   0  0  0  0  0  0  0  0  0  0  0  0
  1  2  1  0  0  0  0
  1 21  1  0  0  0  0
  1 22  1  0  0  0  0
  1 23  1  0  0  0  0
  2  3  1  0  0  0  0
  2 24  1  0  0  0  0
  2 25  1  0  0  0  0
  3  4  1  0  0  0  0
  3  5  1  0  0  0  0
  3 15  1  0  0  0  0
  4 26  1  0  0  0  0
  4 27  1  0  0  0  0
  4 28  1  0  0  0  0
  5  6  1  0  0  0  0
  5 29  1  0  0  0  0
  5 30  1  0  0  0  0
  6  7  1  0  0  0  0
  6 31  1  0  0  0  0
  7  8  2  0  0  0  0
  7  9  1  0  0  0  0
  9 10  1  0  0  0  0
 10 14  1  0  0  0  0
 10 11  2  0  0  0  0
 11 12  1  0  0  0  0
 12 13  2  0  0  0  0
 12 32  1  0  0  0  0
 13 14  1  0  0  0  0
 13 33  1  0  0  0  0
 15 20  1  0  0  0  0
 15 16  1  0  0  0  0
 15 42  1  0  0  0  0
 16 17  1  0  0  0  0
 16 34  1  0  0  0  0
 16 35  1  0  0  0  0
 17 18  1  0  0  0  0
 17 36  1  0  0  0  0
 17 37  1  0  0  0  0
 18 19  1  0  0  0  0
 19 20  1  0  0  0  0
 19 38  1  0  0  0  0
 19 39  1  0  0  0  0
 20 40  1  0  0  0  0
 20 41  1  0  0  0  0
M  CHG  1   9  -1
M  CHG  1  15   1
M  END
> <s_m_source_file>
AV-unprocessed.smi

> <i_m_source_file_index>
1995

> <i_lp_mmshare_version>
43012

> <i_f3d_flags>
0

> <s_epik_input>
W0NIMl0xW0NIMl1PW0NIMl1bQ0gyXU4xW0NAQF0oW0NIM10pKFtDSDJdW0NIM10pW0NIMl1bTkhdQyg9TylbTkhdYzJuW2NIXVtjSF1zMg==

> <s_epik_cmdline>
J2VwaWtfcHl0aG9uJywgJy1waCcsICc3LjAnLCAnLXRuJywgJzgnLCAnLW1hJywgJzIwMCcsICctbWV0YWxfYmluZGluZycsICctaW1hZScsICc8aW5maWxlLm1hZT4nLCAnLW9tYWUnLCAnPG91dGZpbGUubWFlPic=

> <r_lp_tautomer_probability>
0.999

> <r_epik_Ionization_Penalty>
8.09417

> <r_epik_Ionization_Penalty_Charging>
6.70334

> <r_epik_Ionization_Penalty_Neutral>
1.39083

> <r_epik_State_Penalty>
6.86521

> <r_epik_Charging_Adjusted_Penalty>
13.5685

> <i_epik_Tot_Q>
0

> <i_epik_Tot_abs_Q>
2

> <r_epik_Metal_State_Penalty>
2.79608

> <b_epik_Metal_Only>
1

> <s_lp_Force_Field>
OPLS_2005

> <r_lp_Energy>
20.9753

> <b_lp_Chiralities_Consistent>
1

> <s_lp_Variant>
AV-unprocessed.smi:1995-7

> <Gold.Version>
5.8.1

> <Gold.Id.Protein>
6NUR|6NUR_protein|mol2

> <Gold.PLP.Fitness>
41.0012

> <Gold.PLP.PLP>
-28.4606

> <Gold.PLP.part.hbond>
-3.9642

> <Gold.PLP.part.metal>
0.0000

> <Gold.PLP.part.buried>
-2.8733

> <Gold.PLP.part.nonpolar>
-20.6526

> <Gold.PLP.part.repulsive>
0.1856

> <Gold.PLP.ligand.clash>
0.0000

> <Gold.PLP.ligand.torsion>
1.3360

> <Gold.PLP.Chemscore.Hbond>
4.9913

> <Gold.PLP.Chemscore.CHOScore>
0.0000

> <Gold.PLP.Chemscore.Metal>
0.0000

> <Gold.Chemscore.Hbonds>
donor molecule, donor type, donor heavy atom, donor atom, acceptor molecule, acceptor atom, score
      L1  H    15    42       P1  7948  2.00
      P1  H  6896  6909       L1     8  1.00
      P1  H  6934  6947       L1    11  1.00
      P1  H  7989  7998       L1    18  1.00

> <Gold.PLP.Chemscore.Internal.Correction>
0.2388

> <Gold.Rescore>
     Score         DG    S(hbond)    S(metal)    S(lipo)     H(rot)  DE(clash)    DE(int)     intcor
     17.36     -18.95       2.96        0.00      68.91       1.75       0.18       1.40       ----

> <Gold.Chemscore.Fitness>
17.3636

> <Gold.Chemscore.DG>
-18.9512

> <Gold.Chemscore.ZeroCoef>
-5.4800

> <Gold.Chemscore.Hbond>
2.9623

> <Gold.Chemscore.Metal>
0.0000

> <Gold.Chemscore.Lipo>
68.9149

> <Gold.Chemscore.Internal_Hbond>
0.0000

> <Gold.Chemscore.DEClash>
0.1828

> <Gold.Chemscore.DEInternal>
1.4048

> <Gold.Chemscore.Rot>
1.7523

> <Gold.Chemscore.Internal.Correction>
   9.000000E+99

> <Gold.Chemscore.Hbonds>
donor molecule, donor type, donor heavy atom, donor atom, acceptor molecule, acceptor atom, score
      L1  H    15    42       P1  7948  0.49
      P1  H  6896  6909       L1     8  0.93
      P1  H  6934  6947       L1    11  0.28
      P1  H  7989  7998       L1    18  0.19

> <Gold.Chemscore.Hbond.Weighted>
-9.8940

> <Gold.Chemscore.Metal.Weighted>
-0.0000

> <Gold.Chemscore.Lipo.Weighted>
-8.0630

> <Gold.Chemscore.Internal_Hbond.Weighted>
0.0000

> <Gold.Chemscore.DEClash.Weighted>
0.1828

> <Gold.Chemscore.DEInternal.Weighted>
1.4048

> <Gold.Chemscore.Rot.Weighted>
4.4858

> <Gold.Chemscore.Internal.Correction.Weighted>
   9.000000E+99

> <Gold.Protein.RotatedTorsions>
[ 6907 6896 6895 6894 ] final   69.08 input  -60.11 | X-H torsion
[ 7974 7965 7964 7962 ] final   18.01 input  175.53 | X-H torsion
[ 8008 7997 7996 7995 ] final  154.40 input   59.86 | X-H torsion
[ 10167 10162 10161 10158 ] final   27.31 input  -65.29 | X-H torsion
[ 10718 10713 10712 10709 ] final   76.16 input   66.30 | X-H torsion
[ 10763 10752 10751 10750 ] final -176.10 input  -60.55 | X-H torsion
[ 11005 11000 10999 10996 ] final    9.96 input  -57.11 | X-H torsion

> <Gold.Protein.ActiveResidues>
 VAL166  LYS551  ARG553  GLY616  TRP617  ASP618  TYR619  PRO620  LYS621  CYS622 
 ASP623  PHE694  ASN695  SER759  ASP760  ASP761  ALA762  ILE779  LEU786  VAL792 
 PHE793  MET794  SER795  GLU796  ALA797  LYS798  CYS799  TRP800  GLU811  SER814 

> <Gold.Protein.RotatedAtoms>
  152.4663  134.5068  159.9741 H   0  0  0  0  0  0  0  0  0  0  0  0  # atno 6907 bound_to 6896
  151.5105  133.3480  159.2892 H   0  0  0  0  0  0  0  0  0  0  0  0  # atno 6908 bound_to 6896
  150.8648  134.8038  159.7173 H   0  0  0  0  0  0  0  0  0  0  0  0  # atno 6909 bound_to 6896
  146.2199  139.8520  142.8621 H   0  0  0  0  0  0  0  0  0  0  0  0  # atno 7974 bound_to 7965
  156.2533  140.1967  156.6640 H   0  0  0  0  0  0  0  0  0  0  0  0  # atno 8008 bound_to 7997
  154.6443  140.0580  156.9907 H   0  0  0  0  0  0  0  0  0  0  0  0  # atno 8009 bound_to 7997
  155.1515  140.3252  155.4433 H   0  0  0  0  0  0  0  0  0  0  0  0  # atno 8010 bound_to 7997
  140.4949  144.0408  150.6310 H   0  0  0  0  0  0  0  0  0  0  0  0  # atno 10167 bound_to 10162
  157.6662  130.9761  150.1456 H   0  0  0  0  0  0  0  0  0  0  0  0  # atno 10718 bound_to 10713
  154.5764  135.2832  155.0776 H   0  0  0  0  0  0  0  0  0  0  0  0  # atno 10763 bound_to 10752
  154.2129  135.6405  153.5124 H   0  0  0  0  0  0  0  0  0  0  0  0  # atno 10764 bound_to 10752
  153.0074  135.5496  154.6404 H   0  0  0  0  0  0  0  0  0  0  0  0  # atno 10765 bound_to 10752
  140.5199  134.0569  155.7842 H   0  0  0  0  0  0  0  0  0  0  0  0  # atno 11005 bound_to 11000
  145.2792  141.0133  143.3727 LP  0  0  0  0  0  0  0  0  0  0  0  0  # atno 17320 bound_to 7965
  144.9163  139.4466  143.6562 LP  0  0  0  0  0  0  0  0  0  0  0  0  # atno 17321 bound_to 7965
  140.3687  143.2866  152.0302 LP  0  0  0  0  0  0  0  0  0  0  0  0  # atno 17342 bound_to 10162
  139.4859  144.6246  151.7188 LP  0  0  0  0  0  0  0  0  0  0  0  0  # atno 17343 bound_to 10162
  156.2268  130.3678  149.8491 LP  0  0  0  0  0  0  0  0  0  0  0  0  # atno 17370 bound_to 10713
  156.6329  130.8673  151.3499 LP  0  0  0  0  0  0  0  0  0  0  0  0  # atno 17371 bound_to 10713
  141.1340  133.9254  157.2474 LP  0  0  0  0  0  0  0  0  0  0  0  0  # atno 17394 bound_to 11000
  139.9612  135.0154  156.9265 LP  0  0  0  0  0  0  0  0  0  0  0  0  # atno 17395 bound_to 11000

$$$$
