AV-unprocessed.smi:2721|AV-procd|sdf|10500|dock4
  -GOLD-   2272014543D 1   1.00000     0.00000
 Structure written by MMmdl.
 29 30  0  0  0  0  0  0  0  0  2 V2000
  148.8511  141.3661  154.2312 C   0  0  0  0  0  0  0  0  0  0  0  0
  149.8725  141.1138  155.2251 N   0  0  0  0  0  0  0  0  0  0  0  0
  150.0274  141.6925  156.4662 C   0  0  0  0  0  0  0  0  0  0  0  0
  151.1366  141.1383  157.0421 C   0  0  0  0  0  0  0  0  0  0  0  0
  151.7294  141.4050  158.4011 C   0  0  1  0  0  0  0  0  0  0  0  0
  152.8497  140.5490  158.6178 O   0  0  0  0  0  0  0  0  0  0  0  0
  153.4210  140.6577  159.9172 C   0  0  0  0  0  0  0  0  0  0  0  0
  153.9661  142.0775  160.1247 C   0  0  0  0  0  0  0  0  0  0  0  0
  152.8535  143.1069  159.9062 C   0  0  0  0  0  0  0  0  0  0  0  0
  152.1862  142.8784  158.5414 C   0  0  2  0  0  0  0  0  0  0  0  0
  151.0605  143.8149  158.3610 N   0  3  0  0  0  0  0  0  0  0  0  0
  151.5935  140.2172  156.0564 C   0  0  0  0  0  0  0  0  0  0  0  0
  150.8358  140.2043  154.9728 N   0  0  0  0  0  0  0  0  0  0  0  0
  150.9866  141.1863  159.1708 H   0  0  0  0  0  0  0  0  0  0  0  0
  152.9152  143.0959  157.7592 H   0  0  0  0  0  0  0  0  0  0  0  0
  148.0479  141.9629  154.6641 H   0  0  0  0  0  0  0  0  0  0  0  0
  148.4371  140.4222  153.8748 H   0  0  0  0  0  0  0  0  0  0  0  0
  149.2833  141.9084  153.3899 H   0  0  0  0  0  0  0  0  0  0  0  0
  149.3426  142.4421  156.8350 H   0  0  0  0  0  0  0  0  0  0  0  0
  152.6790  140.4077  160.6770 H   0  0  0  0  0  0  0  0  0  0  0  0
  154.2275  139.9300  160.0087 H   0  0  0  0  0  0  0  0  0  0  0  0
  154.3845  142.1795  161.1264 H   0  0  0  0  0  0  0  0  0  0  0  0
  154.7816  142.2615  159.4240 H   0  0  0  0  0  0  0  0  0  0  0  0
  152.1142  143.0153  160.7036 H   0  0  0  0  0  0  0  0  0  0  0  0
  153.2611  144.1166  159.9704 H   0  0  0  0  0  0  0  0  0  0  0  0
  151.4150  144.7539  158.2475 H   0  0  0  0  0  0  0  0  0  0  0  0
  150.4604  143.7781  159.1729 H   0  0  0  0  0  0  0  0  0  0  0  0
  152.4471  139.5572  156.0992 H   0  0  0  0  0  0  0  0  0  0  0  0
  150.5316  143.5534  157.5413 H   0  0  0  0  0  0  0  0  0  0  0  0
  1  2  1  0  0  0  0
  1 16  1  0  0  0  0
  1 17  1  0  0  0  0
  1 18  1  0  0  0  0
  2 13  1  0  0  0  0
  2  3  1  0  0  0  0
  3  4  2  0  0  0  0
  3 19  1  0  0  0  0
  4  5  1  0  0  0  0
  4 12  1  0  0  0  0
  5 14  1  0  0  0  0
  5 10  1  0  0  0  0
  5  6  1  0  0  0  0
  6  7  1  0  0  0  0
  7  8  1  0  0  0  0
  7 20  1  0  0  0  0
  7 21  1  0  0  0  0
  8  9  1  0  0  0  0
  8 22  1  0  0  0  0
  8 23  1  0  0  0  0
  9 10  1  0  0  0  0
  9 24  1  0  0  0  0
  9 25  1  0  0  0  0
 10 15  1  0  0  0  0
 10 11  1  0  0  0  0
 11 26  1  0  0  0  0
 11 27  1  0  0  0  0
 11 29  1  0  0  0  0
 12 13  2  0  0  0  0
 12 28  1  0  0  0  0
M  CHG  1  11   1
M  END
> <s_m_source_file>
AV-unprocessed.smi

> <i_m_source_file_index>
2721

> <i_lp_mmshare_version>
43012

> <i_f3d_flags>
0

> <s_epik_input>
W0NIM11uMVtjSF1jKFtjSF1uMSlbQ0BIXTJPW0NIMl1bQ0gyXVtDSDJdW0NAQEhdMltOSDJd

> <s_epik_cmdline>
J2VwaWtfcHl0aG9uJywgJy1waCcsICc3LjAnLCAnLXRuJywgJzgnLCAnLW1hJywgJzIwMCcsICctbWV0YWxfYmluZGluZycsICctaW1hZScsICc8aW5maWxlLm1hZT4nLCAnLW9tYWUnLCAnPG91dGZpbGUubWFlPic=

> <r_lp_tautomer_probability>
1

> <r_epik_Ionization_Penalty>
0.0061467

> <r_epik_Ionization_Penalty_Charging>
0.00611941

> <r_epik_Ionization_Penalty_Neutral>
2.72888e-05

> <r_epik_State_Penalty>
0.00451057

> <r_epik_Charging_Adjusted_Penalty>
0.01063

> <i_epik_Tot_Q>
1

> <i_epik_Tot_abs_Q>
1

> <r_epik_Metal_State_Penalty>
-0

> <b_epik_Metal_Only>
0

> <s_lp_Force_Field>
OPLS_2005

> <r_lp_Energy>
11.0235

> <b_lp_Chiralities_Consistent>
1

> <s_lp_Variant>
AV-unprocessed.smi:2721-1

> <Gold.Version>
5.8.1

> <Gold.Id.Protein>
6NUR|6NUR_protein|mol2

> <Gold.PLP.Fitness>
35.5831

> <Gold.PLP.PLP>
-29.7880

> <Gold.PLP.part.hbond>
-1.2031

> <Gold.PLP.part.metal>
0.0000

> <Gold.PLP.part.buried>
-2.4046

> <Gold.PLP.part.nonpolar>
-25.7629

> <Gold.PLP.part.repulsive>
0.0884

> <Gold.PLP.ligand.clash>
0.0000

> <Gold.PLP.ligand.torsion>
0.0087

> <Gold.PLP.Chemscore.Hbond>
1.0000

> <Gold.PLP.Chemscore.CHOScore>
0.9365

> <Gold.PLP.Chemscore.Metal>
0.0000

> <Gold.Chemscore.Hbonds>
donor molecule, donor type, donor heavy atom, donor atom, acceptor molecule, acceptor atom, score
      P1  H  7989  7998       L1    13  1.00
      L1  C     3    19       P1  8028  0.74

> <Gold.PLP.Chemscore.Internal.Correction>
0.0029

> <Gold.Rescore>
     Score         DG    S(hbond)    S(metal)    S(lipo)     H(rot)  DE(clash)    DE(int)     intcor
     14.76     -15.02       0.88        0.00      78.28       1.00       0.06       0.20       ----

> <Gold.Chemscore.Fitness>
14.7596

> <Gold.Chemscore.DG>
-15.0218

> <Gold.Chemscore.ZeroCoef>
-5.4800

> <Gold.Chemscore.Hbond>
0.8812

> <Gold.Chemscore.Metal>
0.0000

> <Gold.Chemscore.Lipo>
78.2773

> <Gold.Chemscore.Internal_Hbond>
0.0000

> <Gold.Chemscore.DEClash>
0.0645

> <Gold.Chemscore.DEInternal>
0.1977

> <Gold.Chemscore.Rot>
1.0000

> <Gold.Chemscore.Internal.Correction>
   9.000000E+99

> <Gold.Chemscore.Hbonds>
donor molecule, donor type, donor heavy atom, donor atom, acceptor molecule, acceptor atom, score
      P1  H  7989  7998       L1    13  0.30
      P1  H  7997  8008       L1     6  0.02

> <Gold.Chemscore.Hbond.Weighted>
-2.9434

> <Gold.Chemscore.Metal.Weighted>
-0.0000

> <Gold.Chemscore.Lipo.Weighted>
-9.1584

> <Gold.Chemscore.Internal_Hbond.Weighted>
0.0000

> <Gold.Chemscore.DEClash.Weighted>
0.0645

> <Gold.Chemscore.DEInternal.Weighted>
0.1977

> <Gold.Chemscore.Rot.Weighted>
2.5600

> <Gold.Chemscore.Internal.Correction.Weighted>
   9.000000E+99

> <Gold.Protein.RotatedTorsions>
[ 6907 6896 6895 6894 ] final   59.14 input  -60.11 | X-H torsion
[ 7974 7965 7964 7962 ] final   93.89 input  175.53 | X-H torsion
[ 8008 7997 7996 7995 ] final  -99.49 input   59.86 | X-H torsion
[ 10167 10162 10161 10158 ] final    1.92 input  -65.29 | X-H torsion
[ 10718 10713 10712 10709 ] final  141.60 input   66.30 | X-H torsion
[ 10763 10752 10751 10750 ] final  -97.38 input  -60.55 | X-H torsion
[ 11005 11000 10999 10996 ] final -148.87 input  -57.11 | X-H torsion

> <Gold.Protein.ActiveResidues>
 VAL166  LYS551  ARG553  GLY616  TRP617  ASP618  TYR619  PRO620  LYS621  CYS622 
 ASP623  PHE694  ASN695  SER759  ASP760  ASP761  ALA762  ILE779  LEU786  VAL792 
 PHE793  MET794  SER795  GLU796  ALA797  LYS798  CYS799  TRP800  GLU811  SER814 

> <Gold.Protein.RotatedAtoms>
  152.3888  134.6475  160.0115 H   0  0  0  0  0  0  0  0  0  0  0  0  # atno 6907 bound_to 6896
  151.6715  133.3308  159.3205 H   0  0  0  0  0  0  0  0  0  0  0  0  # atno 6908 bound_to 6896
  150.7808  134.6795  159.6481 H   0  0  0  0  0  0  0  0  0  0  0  0  # atno 6909 bound_to 6896
  145.4729  139.2281  143.2925 H   0  0  0  0  0  0  0  0  0  0  0  0  # atno 7974 bound_to 7965
  154.8155  140.0447  157.1374 H   0  0  0  0  0  0  0  0  0  0  0  0  # atno 8008 bound_to 7997
  154.9319  140.3041  155.5143 H   0  0  0  0  0  0  0  0  0  0  0  0  # atno 8009 bound_to 7997
  156.2975  140.2321  156.4380 H   0  0  0  0  0  0  0  0  0  0  0  0  # atno 8010 bound_to 7997
  140.6660  143.7179  150.7827 H   0  0  0  0  0  0  0  0  0  0  0  0  # atno 10167 bound_to 10162
  157.3902  131.1003  151.0654 H   0  0  0  0  0  0  0  0  0  0  0  0  # atno 10718 bound_to 10713
  154.7323  135.5049  153.8983 H   0  0  0  0  0  0  0  0  0  0  0  0  # atno 10763 bound_to 10752
  153.0961  135.6672  153.9769 H   0  0  0  0  0  0  0  0  0  0  0  0  # atno 10764 bound_to 10752
  153.9567  135.3052  155.3415 H   0  0  0  0  0  0  0  0  0  0  0  0  # atno 10765 bound_to 10752
  140.7567  134.3344  157.5112 H   0  0  0  0  0  0  0  0  0  0  0  0  # atno 11005 bound_to 11000
  146.2386  140.5509  142.8944 LP  0  0  0  0  0  0  0  0  0  0  0  0  # atno 17320 bound_to 7965
  144.7934  140.6076  143.6526 LP  0  0  0  0  0  0  0  0  0  0  0  0  # atno 17321 bound_to 7965
  140.0856  143.4926  152.2506 LP  0  0  0  0  0  0  0  0  0  0  0  0  # atno 17342 bound_to 10162
  139.5908  144.7549  151.3404 LP  0  0  0  0  0  0  0  0  0  0  0  0  # atno 17343 bound_to 10162
  157.1690  130.6259  149.5634 LP  0  0  0  0  0  0  0  0  0  0  0  0  # atno 17370 bound_to 10713
  155.9796  130.4791  150.6727 LP  0  0  0  0  0  0  0  0  0  0  0  0  # atno 17371 bound_to 10713
  139.8778  134.9176  156.3183 LP  0  0  0  0  0  0  0  0  0  0  0  0  # atno 17394 bound_to 11000
  140.9701  133.7333  156.0522 LP  0  0  0  0  0  0  0  0  0  0  0  0  # atno 17395 bound_to 11000

$$$$
