AV-unprocessed.smi:1247|AV-procd|sdf|5249|dock8
  -GOLD-   22720 4363D 1   1.00000     0.00000
 Structure written by MMmdl.
 47 48  0  0  0  0  0  0  0  0  2 V2000
  152.0370  141.5341  158.3288 C   0  0  0  0  0  0  0  0  0  0  0  0
  151.7084  140.7896  157.0685 C   0  0  0  0  0  0  0  0  0  0  0  0
  150.5330  140.8925  156.2688 C   0  0  0  0  0  0  0  0  0  0  0  0
  150.7750  139.9983  155.2621 C   0  0  0  0  0  0  0  0  0  0  0  0
  149.9830  139.6663  154.2083 N   0  0  0  0  0  0  0  0  0  0  0  0
  148.7011  140.0058  153.9876 C   0  0  0  0  0  0  0  0  0  0  0  0
  148.0129  140.7140  154.7231 O   0  0  0  0  0  0  0  0  0  0  0  0
  148.2505  139.4863  152.8363 N   0  0  0  0  0  0  0  0  0  0  0  0
  146.9095  139.6917  152.3000 C   0  0  0  0  0  0  0  0  0  0  0  0
  146.5219  138.5696  151.3181 C   0  0  0  0  0  0  0  0  0  0  0  0
  146.5614  137.2223  151.9464 N   0  3  1  0  0  0  0  0  0  0  0  0
  145.8441  137.1542  153.2433 C   0  0  0  0  0  0  0  0  0  0  0  0
  144.3175  137.0864  153.0352 C   0  0  2  0  0  0  0  0  0  0  0  0
  143.5594  136.9352  154.3584 C   0  0  0  0  0  0  0  0  0  0  0  0
  144.0152  135.9584  152.2211 O   0  0  0  0  0  0  0  0  0  0  0  0
  144.6013  136.0364  150.9258 C   0  0  2  0  0  0  0  0  0  0  0  0
  144.1499  134.8082  150.1279 C   0  0  0  0  0  0  0  0  0  0  0  0
  146.1378  136.1048  151.0638 C   0  0  0  0  0  0  0  0  0  0  0  0
  152.0029  139.4116  155.4727 N   0  0  0  0  0  0  0  0  0  0  0  0
  152.6901  138.4061  154.6863 C   0  0  0  0  0  0  0  0  0  0  0  0
  152.5786  139.9076  156.5892 N   0  0  0  0  0  0  0  0  0  0  0  0
  151.2516  142.2462  158.5823 H   0  0  0  0  0  0  0  0  0  0  0  0
  152.9684  142.0914  158.2250 H   0  0  0  0  0  0  0  0  0  0  0  0
  152.1484  140.8501  159.1706 H   0  0  0  0  0  0  0  0  0  0  0  0
  149.6681  141.5189  156.4277 H   0  0  0  0  0  0  0  0  0  0  0  0
  150.4307  139.1161  153.4901 H   0  0  0  0  0  0  0  0  0  0  0  0
  148.8791  138.9136  152.2919 H   0  0  0  0  0  0  0  0  0  0  0  0
  146.2249  139.7218  153.1467 H   0  0  0  0  0  0  0  0  0  0  0  0
  146.8455  140.6668  151.8136 H   0  0  0  0  0  0  0  0  0  0  0  0
  145.5059  138.7591  150.9692 H   0  0  0  0  0  0  0  0  0  0  0  0
  147.1569  138.6026  150.4328 H   0  0  0  0  0  0  0  0  0  0  0  0
  146.1796  136.2605  153.7717 H   0  0  0  0  0  0  0  0  0  0  0  0
  146.1148  138.0007  153.8758 H   0  0  0  0  0  0  0  0  0  0  0  0
  143.9644  137.9930  152.5413 H   0  0  0  0  0  0  0  0  0  0  0  0
  143.7473  137.7828  155.0178 H   0  0  0  0  0  0  0  0  0  0  0  0
  143.8576  136.0279  154.8847 H   0  0  0  0  0  0  0  0  0  0  0  0
  142.4841  136.8820  154.1860 H   0  0  0  0  0  0  0  0  0  0  0  0
  144.2284  136.9265  150.4175 H   0  0  0  0  0  0  0  0  0  0  0  0
  144.5659  134.8194  149.1203 H   0  0  0  0  0  0  0  0  0  0  0  0
  143.0638  134.7804  150.0380 H   0  0  0  0  0  0  0  0  0  0  0  0
  144.4671  133.8835  150.6109 H   0  0  0  0  0  0  0  0  0  0  0  0
  146.6104  136.1746  150.0850 H   0  0  0  0  0  0  0  0  0  0  0  0
  146.5006  135.1759  151.5064 H   0  0  0  0  0  0  0  0  0  0  0  0
  152.8414  138.7757  153.6718 H   0  0  0  0  0  0  0  0  0  0  0  0
  152.0901  137.4968  154.6493 H   0  0  0  0  0  0  0  0  0  0  0  0
  153.6608  138.1715  155.1250 H   0  0  0  0  0  0  0  0  0  0  0  0
  147.5352  137.0643  152.1646 H   0  0  0  0  0  0  0  0  0  0  0  0
  1  2  1  0  0  0  0
  1 22  1  0  0  0  0
  1 23  1  0  0  0  0
  1 24  1  0  0  0  0
  2 21  2  0  0  0  0
  2  3  1  0  0  0  0
  3  4  2  0  0  0  0
  3 25  1  0  0  0  0
  4  5  1  0  0  0  0
  4 19  1  0  0  0  0
  5  6  1  0  0  0  0
  5 26  1  0  0  0  0
  6  7  2  0  0  0  0
  6  8  1  0  0  0  0
  8  9  1  0  0  0  0
  8 27  1  0  0  0  0
  9 10  1  0  0  0  0
  9 28  1  0  0  0  0
  9 29  1  0  0  0  0
 10 11  1  0  0  0  0
 10 30  1  0  0  0  0
 10 31  1  0  0  0  0
 11 18  1  0  0  0  0
 11 12  1  0  0  0  0
 11 47  1  0  0  0  0
 12 13  1  0  0  0  0
 12 32  1  0  0  0  0
 12 33  1  0  0  0  0
 13 14  1  0  0  0  0
 13 15  1  0  0  0  0
 13 34  1  0  0  0  0
 14 35  1  0  0  0  0
 14 36  1  0  0  0  0
 14 37  1  0  0  0  0
 15 16  1  0  0  0  0
 16 17  1  0  0  0  0
 16 18  1  0  0  0  0
 16 38  1  0  0  0  0
 17 39  1  0  0  0  0
 17 40  1  0  0  0  0
 17 41  1  0  0  0  0
 18 42  1  0  0  0  0
 18 43  1  0  0  0  0
 19 20  1  0  0  0  0
 19 21  1  0  0  0  0
 20 44  1  0  0  0  0
 20 45  1  0  0  0  0
 20 46  1  0  0  0  0
M  CHG  1  11   1
M  END
> <s_m_source_file>
AV-unprocessed.smi

> <i_m_source_file_index>
1247

> <i_lp_mmshare_version>
43012

> <i_f3d_flags>
0

> <s_epik_input>
W0NIM11jMVtjSF1jKG4objEpW0NIM10pW05IXUMoPU8pW05IXVtDSDJdW0NIMl1OMltDSDJdW0NAQEhdKFtDSDNdKU9bQ0BASF0oW0NIM10pW0NIMl0y

> <s_epik_cmdline>
J2VwaWtfcHl0aG9uJywgJy1waCcsICc3LjAnLCAnLXRuJywgJzgnLCAnLW1hJywgJzIwMCcsICctbWV0YWxfYmluZGluZycsICctaW1hZScsICc8aW5maWxlLm1hZT4nLCAnLW9tYWUnLCAnPG91dGZpbGUubWFlPic=

> <r_lp_tautomer_probability>
1

> <r_epik_Ionization_Penalty>
0.663902

> <r_epik_Ionization_Penalty_Charging>
0.663826

> <r_epik_Ionization_Penalty_Neutral>
7.65444e-05

> <r_epik_State_Penalty>
0.683414

> <r_epik_Charging_Adjusted_Penalty>
1.34724

> <i_epik_Tot_Q>
1

> <i_epik_Tot_abs_Q>
1

> <r_epik_Metal_State_Penalty>
0.683419

> <b_epik_Metal_Only>
0

> <s_lp_Force_Field>
OPLS_2005

> <r_lp_Energy>
18.7227

> <b_lp_Chiralities_Consistent>
1

> <s_lp_Variant>
AV-unprocessed.smi:1247-7

> <Gold.Version>
5.8.1

> <Gold.Id.Protein>
6NUR|6NUR_protein|mol2

> <Gold.PLP.Fitness>
42.4277

> <Gold.PLP.PLP>
-33.4003

> <Gold.PLP.part.hbond>
-3.1731

> <Gold.PLP.part.metal>
0.0000

> <Gold.PLP.part.buried>
2.7022

> <Gold.PLP.part.nonpolar>
-33.0937

> <Gold.PLP.part.repulsive>
0.4791

> <Gold.PLP.ligand.clash>
0.0000

> <Gold.PLP.ligand.torsion>
0.2152

> <Gold.PLP.Chemscore.Hbond>
3.1440

> <Gold.PLP.Chemscore.CHOScore>
0.0000

> <Gold.PLP.Chemscore.Metal>
0.0000

> <Gold.Chemscore.Hbonds>
donor molecule, donor type, donor heavy atom, donor atom, acceptor molecule, acceptor atom, score
      L1  H     8    27       P1  7957  0.10
      L1  H    11    47       P1  7948  1.92
      P1  H  7997  8009       L1    21  1.00

> <Gold.PLP.Chemscore.Internal.Correction>
0.0259

> <Gold.Rescore>
     Score         DG    S(hbond)    S(metal)    S(lipo)     H(rot)  DE(clash)    DE(int)     intcor
     15.21     -17.55       2.19        0.00      74.05       1.52       0.97       1.37       ----

> <Gold.Chemscore.Fitness>
15.2109

> <Gold.Chemscore.DG>
-17.5518

> <Gold.Chemscore.ZeroCoef>
-5.4800

> <Gold.Chemscore.Hbond>
2.1872

> <Gold.Chemscore.Metal>
0.0000

> <Gold.Chemscore.Lipo>
74.0456

> <Gold.Chemscore.Internal_Hbond>
0.0000

> <Gold.Chemscore.DEClash>
0.9679

> <Gold.Chemscore.DEInternal>
1.3731

> <Gold.Chemscore.Rot>
1.5221

> <Gold.Chemscore.Internal.Correction>
   9.000000E+99

> <Gold.Chemscore.Hbonds>
donor molecule, donor type, donor heavy atom, donor atom, acceptor molecule, acceptor atom, score
      L1  H     8    27       P1  7957  0.11
      L1  H    11    47       P1  7948  0.92
      P1  H  7997  8009       L1    21  0.74

> <Gold.Chemscore.Hbond.Weighted>
-7.3052

> <Gold.Chemscore.Metal.Weighted>
-0.0000

> <Gold.Chemscore.Lipo.Weighted>
-8.6633

> <Gold.Chemscore.Internal_Hbond.Weighted>
0.0000

> <Gold.Chemscore.DEClash.Weighted>
0.9679

> <Gold.Chemscore.DEInternal.Weighted>
1.3731

> <Gold.Chemscore.Rot.Weighted>
3.8967

> <Gold.Chemscore.Internal.Correction.Weighted>
   9.000000E+99

> <Gold.Protein.RotatedTorsions>
[ 6907 6896 6895 6894 ] final  117.17 input  -60.11 | X-H torsion
[ 7974 7965 7964 7962 ] final  108.53 input  175.53 | X-H torsion
[ 8008 7997 7996 7995 ] final -159.95 input   59.86 | X-H torsion
[ 10167 10162 10161 10158 ] final  -45.28 input  -65.29 | X-H torsion
[ 10718 10713 10712 10709 ] final -128.08 input   66.30 | X-H torsion
[ 10763 10752 10751 10750 ] final  -28.53 input  -60.55 | X-H torsion
[ 11005 11000 10999 10996 ] final -114.49 input  -57.11 | X-H torsion

> <Gold.Protein.ActiveResidues>
 VAL166  LYS551  ARG553  GLY616  TRP617  ASP618  TYR619  PRO620  LYS621  CYS622 
 ASP623  PHE694  ASN695  SER759  ASP760  ASP761  ALA762  ILE779  LEU786  VAL792 
 PHE793  MET794  SER795  GLU796  ALA797  LYS798  CYS799  TRP800  GLU811  SER814 

> <Gold.Protein.RotatedAtoms>
  152.4630  133.7862  159.6877 H   0  0  0  0  0  0  0  0  0  0  0  0  # atno 6907 bound_to 6896
  150.8582  133.7674  159.3008 H   0  0  0  0  0  0  0  0  0  0  0  0  # atno 6908 bound_to 6896
  151.5248  135.1070  159.9939 H   0  0  0  0  0  0  0  0  0  0  0  0  # atno 6909 bound_to 6896
  145.2795  139.2637  143.3923 H   0  0  0  0  0  0  0  0  0  0  0  0  # atno 7974 bound_to 7965
  155.7702  140.0851  157.2111 H   0  0  0  0  0  0  0  0  0  0  0  0  # atno 8008 bound_to 7997
  154.3997  140.1526  156.2991 H   0  0  0  0  0  0  0  0  0  0  0  0  # atno 8009 bound_to 7997
  155.8754  140.3423  155.5853 H   0  0  0  0  0  0  0  0  0  0  0  0  # atno 8010 bound_to 7997
  140.6864  143.2887  151.3616 H   0  0  0  0  0  0  0  0  0  0  0  0  # atno 10167 bound_to 10162
  156.1917  130.6799  151.0432 H   0  0  0  0  0  0  0  0  0  0  0  0  # atno 10718 bound_to 10713
  153.7499  135.6927  153.4948 H   0  0  0  0  0  0  0  0  0  0  0  0  # atno 10763 bound_to 10752
  153.2010  135.4436  155.0265 H   0  0  0  0  0  0  0  0  0  0  0  0  # atno 10764 bound_to 10752
  154.8191  135.3413  154.7020 H   0  0  0  0  0  0  0  0  0  0  0  0  # atno 10765 bound_to 10752
  141.0548  133.9629  157.2772 H   0  0  0  0  0  0  0  0  0  0  0  0  # atno 11005 bound_to 11000
  146.3221  140.3259  142.8636 LP  0  0  0  0  0  0  0  0  0  0  0  0  # atno 17320 bound_to 7965
  144.9265  140.7927  143.5716 LP  0  0  0  0  0  0  0  0  0  0  0  0  # atno 17321 bound_to 7965
  139.6227  144.0876  152.2406 LP  0  0  0  0  0  0  0  0  0  0  0  0  # atno 17342 bound_to 10162
  140.0325  144.6070  150.7476 LP  0  0  0  0  0  0  0  0  0  0  0  0  # atno 17343 bound_to 10162
  157.6933  131.0802  150.7044 LP  0  0  0  0  0  0  0  0  0  0  0  0  # atno 17370 bound_to 10713
  156.7100  130.4649  149.5550 LP  0  0  0  0  0  0  0  0  0  0  0  0  # atno 17371 bound_to 10713
  139.9381  135.0194  156.8621 LP  0  0  0  0  0  0  0  0  0  0  0  0  # atno 17394 bound_to 11000
  140.5984  134.0195  155.7527 LP  0  0  0  0  0  0  0  0  0  0  0  0  # atno 17395 bound_to 11000

$$$$
