AV-unprocessed.smi:1722|AV-procd|sdf|6943|dock9
  -GOLD-   22720 8153D 1   1.00000     0.00000
 Structure written by MMmdl.
 39 40  0  0  0  0  0  0  0  0  1 V2000
  152.3295  136.8321  159.0847 O   0  0  0  0  0  0  0  0  0  0  0  0
  151.8773  137.8555  158.5729 C   0  0  0  0  0  0  0  0  0  0  0  0
  152.0873  139.1951  159.2763 C   0  0  0  0  0  0  0  0  0  0  0  0
  151.4256  140.2122  158.5358 O   0  0  0  0  0  0  0  0  0  0  0  0
  152.0590  141.4838  158.5811 C   0  0  0  0  0  0  0  0  0  0  0  0
  152.2853  141.8271  160.0641 C   0  0  0  0  0  0  0  0  0  0  0  0
  152.9021  143.2252  160.2314 C   0  0  0  0  0  0  0  0  0  0  0  0
  152.0363  144.2978  159.5523 C   0  0  0  0  0  0  0  0  0  0  0  0
  151.7998  143.9636  158.0711 C   0  0  0  0  0  0  0  0  0  0  0  0
  151.1882  142.5630  157.9032 C   0  0  0  0  0  0  0  0  0  0  0  0
  151.1638  137.9064  157.4303 N   0  0  0  0  0  0  0  0  0  0  0  0
  150.8204  136.8722  156.5436 C   0  0  0  0  0  0  0  0  0  0  0  0
  150.7909  135.5520  156.8634 C   0  0  0  0  0  0  0  0  0  0  0  0
  150.4363  134.5303  155.8924 C   0  0  0  0  0  0  0  0  0  0  0  0
  150.4627  133.0518  156.2480 C   0  0  0  0  0  0  0  0  0  0  0  0
  151.6843  132.7056  156.6513 F   0  0  0  0  0  0  0  0  0  0  0  0
  149.6057  132.7736  157.2316 F   0  0  0  0  0  0  0  0  0  0  0  0
  150.1460  132.3012  155.1927 F   0  0  0  0  0  0  0  0  0  0  0  0
  150.1656  134.9563  154.6448 C   0  0  0  0  0  0  0  0  0  0  0  0
  150.1932  136.3115  154.3076 N   0  0  0  0  0  0  0  0  0  0  0  0
  150.5061  137.3034  155.1712 C   0  0  0  0  0  0  0  0  0  0  0  0
  150.5151  138.4747  154.7941 O   0  0  0  0  0  0  0  0  0  0  0  0
  149.9686  136.5515  153.3528 H   0  0  0  0  0  0  0  0  0  0  0  0
  151.6819  139.1308  160.2870 H   0  0  0  0  0  0  0  0  0  0  0  0
  153.1550  139.4001  159.3565 H   0  0  0  0  0  0  0  0  0  0  0  0
  153.0322  141.4307  158.0895 H   0  0  0  0  0  0  0  0  0  0  0  0
  151.3363  141.7829  160.6004 H   0  0  0  0  0  0  0  0  0  0  0  0
  152.9336  141.0801  160.5234 H   0  0  0  0  0  0  0  0  0  0  0  0
  153.0171  143.4566  161.2906 H   0  0  0  0  0  0  0  0  0  0  0  0
  153.9044  143.2368  159.8013 H   0  0  0  0  0  0  0  0  0  0  0  0
  151.0776  144.3737  160.0669 H   0  0  0  0  0  0  0  0  0  0  0  0
  152.5138  145.2739  159.6423 H   0  0  0  0  0  0  0  0  0  0  0  0
  151.1451  144.7109  157.6219 H   0  0  0  0  0  0  0  0  0  0  0  0
  152.7454  144.0153  157.5299 H   0  0  0  0  0  0  0  0  0  0  0  0
  151.0692  142.3522  156.8408 H   0  0  0  0  0  0  0  0  0  0  0  0
  150.1867  142.5495  158.3351 H   0  0  0  0  0  0  0  0  0  0  0  0
  150.7973  138.8136  157.1787 H   0  0  0  0  0  0  0  0  0  0  0  0
  151.0458  135.2148  157.8546 H   0  0  0  0  0  0  0  0  0  0  0  0
  149.9161  134.3052  153.8199 H   0  0  0  0  0  0  0  0  0  0  0  0
  1  2  2  0  0  0  0
  2  3  1  0  0  0  0
  2 11  1  0  0  0  0
  3  4  1  0  0  0  0
  3 24  1  0  0  0  0
  3 25  1  0  0  0  0
  4  5  1  0  0  0  0
  5 10  1  0  0  0  0
  5  6  1  0  0  0  0
  5 26  1  0  0  0  0
  6  7  1  0  0  0  0
  6 27  1  0  0  0  0
  6 28  1  0  0  0  0
  7  8  1  0  0  0  0
  7 29  1  0  0  0  0
  7 30  1  0  0  0  0
  8  9  1  0  0  0  0
  8 31  1  0  0  0  0
  8 32  1  0  0  0  0
  9 10  1  0  0  0  0
  9 33  1  0  0  0  0
  9 34  1  0  0  0  0
 10 35  1  0  0  0  0
 10 36  1  0  0  0  0
 11 12  1  0  0  0  0
 11 37  1  0  0  0  0
 12 21  1  0  0  0  0
 12 13  2  0  0  0  0
 13 14  1  0  0  0  0
 13 38  1  0  0  0  0
 14 15  1  0  0  0  0
 14 19  2  0  0  0  0
 15 16  1  0  0  0  0
 15 17  1  0  0  0  0
 15 18  1  0  0  0  0
 19 20  1  0  0  0  0
 19 39  1  0  0  0  0
 20 23  1  0  0  0  0
 20 21  1  0  0  0  0
 21 22  2  0  0  0  0
M  END
> <s_m_source_file>
AV-unprocessed.smi

> <i_m_source_file_index>
1722

> <i_lp_mmshare_version>
43012

> <i_f3d_flags>
0

> <s_epik_input>
Tz1jMVtuSF1bY0hdYyhDKEYpKEYpRilbY0hdYzFbTkhdQyg9TylbQ0gyXU9bQ0hdMltDSDJdW0NIMl1bQ0gyXVtDSDJdW0NIMl0y

> <s_epik_cmdline>
J2VwaWtfcHl0aG9uJywgJy1waCcsICc3LjAnLCAnLXRuJywgJzgnLCAnLW1hJywgJzIwMCcsICctbWV0YWxfYmluZGluZycsICctaW1hZScsICc8aW5maWxlLm1hZT4nLCAnLW9tYWUnLCAnPG91dGZpbGUubWFlPic=

> <r_lp_tautomer_probability>
0.999

> <r_epik_Ionization_Penalty>
0.008897

> <r_epik_Ionization_Penalty_Charging>
0.00889691

> <r_epik_Ionization_Penalty_Neutral>
9.17026e-08

> <r_epik_State_Penalty>
0.00672877

> <r_epik_Charging_Adjusted_Penalty>
0.0156257

> <i_epik_Tot_Q>
0

> <i_epik_Tot_abs_Q>
0

> <r_epik_Metal_State_Penalty>
0.320955

> <b_epik_Metal_Only>
0

> <s_lp_Force_Field>
OPLS_2005

> <r_lp_Energy>
24.9811

> <b_lp_Chiralities_Consistent>
1

> <s_lp_Variant>
AV-unprocessed.smi:1722-1

> <Gold.Version>
5.8.1

> <Gold.Id.Protein>
6NUR|6NUR_protein|mol2

> <Gold.PLP.Fitness>
41.4261

> <Gold.PLP.PLP>
-37.6280

> <Gold.PLP.part.hbond>
-2.8736

> <Gold.PLP.part.metal>
0.0000

> <Gold.PLP.part.buried>
-4.7158

> <Gold.PLP.part.nonpolar>
-31.6977

> <Gold.PLP.part.repulsive>
0.2269

> <Gold.PLP.ligand.clash>
1.4065

> <Gold.PLP.ligand.torsion>
0.3652

> <Gold.PLP.Chemscore.Hbond>
1.9440

> <Gold.PLP.Chemscore.CHOScore>
0.0226

> <Gold.PLP.Chemscore.Metal>
0.0000

> <Gold.Chemscore.Hbonds>
donor molecule, donor type, donor heavy atom, donor atom, acceptor molecule, acceptor atom, score
      L1  H    20    23       P1  7948  0.74
      P1  H  6896  6908       L1     1  0.96
      L1  C    19    39       P1  7948  0.01

> <Gold.PLP.Chemscore.Internal.Correction>
0.0350

> <Gold.Rescore>
     Score         DG    S(hbond)    S(metal)    S(lipo)     H(rot)  DE(clash)    DE(int)     intcor
     16.73     -18.14       1.86        0.00      89.95       1.59       0.01       1.40       ----

> <Gold.Chemscore.Fitness>
16.7290

> <Gold.Chemscore.DG>
-18.1428

> <Gold.Chemscore.ZeroCoef>
-5.4800

> <Gold.Chemscore.Hbond>
1.8626

> <Gold.Chemscore.Metal>
0.0000

> <Gold.Chemscore.Lipo>
89.9458

> <Gold.Chemscore.Internal_Hbond>
0.0000

> <Gold.Chemscore.DEClash>
0.0126

> <Gold.Chemscore.DEInternal>
1.4012

> <Gold.Chemscore.Rot>
1.5945

> <Gold.Chemscore.Internal.Correction>
   9.000000E+99

> <Gold.Chemscore.Hbonds>
donor molecule, donor type, donor heavy atom, donor atom, acceptor molecule, acceptor atom, score
      L1  H    20    23       P1  7948  0.09
      P1  H  6896  6908       L1     1  0.89

> <Gold.Chemscore.Hbond.Weighted>
-6.2211

> <Gold.Chemscore.Metal.Weighted>
-0.0000

> <Gold.Chemscore.Lipo.Weighted>
-10.5237

> <Gold.Chemscore.Internal_Hbond.Weighted>
0.0000

> <Gold.Chemscore.DEClash.Weighted>
0.0126

> <Gold.Chemscore.DEInternal.Weighted>
1.4012

> <Gold.Chemscore.Rot.Weighted>
4.0820

> <Gold.Chemscore.Internal.Correction.Weighted>
   9.000000E+99

> <Gold.Protein.RotatedTorsions>
[ 6907 6896 6895 6894 ] final -109.05 input  -60.11 | X-H torsion
[ 7974 7965 7964 7962 ] final   56.01 input  175.53 | X-H torsion
[ 8008 7997 7996 7995 ] final    6.63 input   59.86 | X-H torsion
[ 10167 10162 10161 10158 ] final   50.49 input  -65.29 | X-H torsion
[ 10718 10713 10712 10709 ] final  -44.94 input   66.30 | X-H torsion
[ 10763 10752 10751 10750 ] final  169.89 input  -60.55 | X-H torsion
[ 11005 11000 10999 10996 ] final  -98.99 input  -57.11 | X-H torsion

> <Gold.Protein.ActiveResidues>
 VAL166  LYS551  ARG553  GLY616  TRP617  ASP618  TYR619  PRO620  LYS621  CYS622 
 ASP623  PHE694  ASN695  SER759  ASP760  ASP761  ALA762  ILE779  LEU786  VAL792 
 PHE793  MET794  SER795  GLU796  ALA797  LYS798  CYS799  TRP800  GLU811  SER814 

> <Gold.Protein.RotatedAtoms>
  150.7539  133.9586  159.3508 H   0  0  0  0  0  0  0  0  0  0  0  0  # atno 6907 bound_to 6896
  151.7510  135.0831  160.0340 H   0  0  0  0  0  0  0  0  0  0  0  0  # atno 6908 bound_to 6896
  152.3466  133.6093  159.5951 H   0  0  0  0  0  0  0  0  0  0  0  0  # atno 6909 bound_to 6896
  145.9444  139.3916  143.0344 H   0  0  0  0  0  0  0  0  0  0  0  0  # atno 7974 bound_to 7965
  154.7435  140.2753  155.6353 H   0  0  0  0  0  0  0  0  0  0  0  0  # atno 8008 bound_to 7997
  156.2879  140.2692  156.2095 H   0  0  0  0  0  0  0  0  0  0  0  0  # atno 8009 bound_to 7997
  155.0227  140.0371  157.2433 H   0  0  0  0  0  0  0  0  0  0  0  0  # atno 8010 bound_to 7997
  140.2719  144.3255  150.6288 H   0  0  0  0  0  0  0  0  0  0  0  0  # atno 10167 bound_to 10162
  156.2335  130.4174  149.8846 H   0  0  0  0  0  0  0  0  0  0  0  0  # atno 10718 bound_to 10713
  154.3896  135.2754  155.2162 H   0  0  0  0  0  0  0  0  0  0  0  0  # atno 10763 bound_to 10752
  154.4234  135.5994  153.6027 H   0  0  0  0  0  0  0  0  0  0  0  0  # atno 10764 bound_to 10752
  152.9832  135.5978  154.4150 H   0  0  0  0  0  0  0  0  0  0  0  0  # atno 10765 bound_to 10752
  141.1325  133.8287  157.0912 H   0  0  0  0  0  0  0  0  0  0  0  0  # atno 11005 bound_to 11000
  145.8257  140.9657  143.0875 LP  0  0  0  0  0  0  0  0  0  0  0  0  # atno 17320 bound_to 7965
  144.6784  140.0098  143.7484 LP  0  0  0  0  0  0  0  0  0  0  0  0  # atno 17321 bound_to 7965
  140.5882  143.2169  151.7302 LP  0  0  0  0  0  0  0  0  0  0  0  0  # atno 17342 bound_to 10162
  139.4986  144.3978  152.0213 LP  0  0  0  0  0  0  0  0  0  0  0  0  # atno 17343 bound_to 10162
  156.6453  130.8721  151.3521 LP  0  0  0  0  0  0  0  0  0  0  0  0  # atno 17370 bound_to 10713
  157.7143  130.9478  150.1201 LP  0  0  0  0  0  0  0  0  0  0  0  0  # atno 17371 bound_to 10713
  140.0391  134.9863  157.0927 LP  0  0  0  0  0  0  0  0  0  0  0  0  # atno 17394 bound_to 11000
  140.4164  134.1927  155.7163 LP  0  0  0  0  0  0  0  0  0  0  0  0  # atno 17395 bound_to 11000

$$$$
