AV-unprocessed.smi:114|AV-procd|sdf|1118|dock7
  -GOLD-   2262018243D 1   1.00000     0.00000
 Structure written by MMmdl.
 32 34  0  0  0  0  0  0  0  0  1 V2000
  152.4447  137.8851  159.5238 N   0  0  0  0  0  0  0  0  0  0  0  0
  151.1675  137.7955  159.1262 C   0  0  0  0  0  0  0  0  0  0  0  0
  150.3294  136.9963  159.8264 N   0  0  0  0  0  0  0  0  0  0  0  0
  149.0464  136.8786  159.4628 C   0  0  0  0  0  0  0  0  0  0  0  0
  148.2792  136.0594  160.2198 F   0  0  0  0  0  0  0  0  0  0  0  0
  148.4372  137.4801  158.4359 N   0  0  0  0  0  0  0  0  0  0  0  0
  149.2777  138.2881  157.7271 C   0  0  0  0  0  0  0  0  0  0  0  0
  150.6545  138.4977  158.0083 C   0  0  0  0  0  0  0  0  0  0  0  0
  151.1992  139.3781  157.0833 N   0  0  0  0  0  0  0  0  0  0  0  0
  150.1955  139.6696  156.2999 C   0  0  0  0  0  0  0  0  0  0  0  0
  149.0004  139.0620  156.6176 N   0  0  0  0  0  0  0  0  0  0  0  0
  147.6875  139.2091  155.9126 C   0  0  1  0  0  0  0  0  0  0  0  0
  147.3240  140.5533  155.9276 O   0  0  0  0  0  0  0  0  0  0  0  0
  146.6425  140.8640  154.7180 C   0  0  1  0  0  0  0  0  0  0  0  0
  146.6199  142.3828  154.4703 C   0  0  0  0  0  0  0  0  0  0  0  0
  147.9370  142.8719  154.3293 O   0  0  0  0  0  0  0  0  0  0  0  0
  147.3936  140.0297  153.6693 C   0  0  1  0  0  0  0  0  0  0  0  0
  148.5458  140.7106  153.2030 O   0  0  0  0  0  0  0  0  0  0  0  0
  147.7329  138.7538  154.4382 C   0  0  1  0  0  0  0  0  0  0  0  0
  148.9399  138.1384  154.0163 O   0  0  0  0  0  0  0  0  0  0  0  0
  146.9872  138.6243  156.5106 H   0  0  0  0  0  0  0  0  0  0  0  0
  145.6227  140.4798  154.7886 H   0  0  0  0  0  0  0  0  0  0  0  0
  146.7642  139.8159  152.8049 H   0  0  0  0  0  0  0  0  0  0  0  0
  146.9236  138.0344  154.3068 H   0  0  0  0  0  0  0  0  0  0  0  0
  153.0888  138.4752  159.0169 H   0  0  0  0  0  0  0  0  0  0  0  0
  152.7602  137.3623  160.3280 H   0  0  0  0  0  0  0  0  0  0  0  0
  150.2991  140.3457  155.4637 H   0  0  0  0  0  0  0  0  0  0  0  0
  146.0265  142.6327  153.5899 H   0  0  0  0  0  0  0  0  0  0  0  0
  146.1728  142.8966  155.3218 H   0  0  0  0  0  0  0  0  0  0  0  0
  148.0819  143.5358  154.9859 H   0  0  0  0  0  0  0  0  0  0  0  0
  148.6702  140.4945  152.2913 H   0  0  0  0  0  0  0  0  0  0  0  0
  148.8089  137.7835  153.1503 H   0  0  0  0  0  0  0  0  0  0  0  0
  1  2  1  0  0  0  0
  1 25  1  0  0  0  0
  1 26  1  0  0  0  0
  2  8  1  0  0  0  0
  2  3  2  0  0  0  0
  3  4  1  0  0  0  0
  4  5  1  0  0  0  0
  4  6  2  0  0  0  0
  6  7  1  0  0  0  0
  7 11  1  0  0  0  0
  7  8  2  0  0  0  0
  8  9  1  0  0  0  0
  9 10  2  0  0  0  0
 10 11  1  0  0  0  0
 10 27  1  0  0  0  0
 11 12  1  0  0  0  0
 12 21  1  0  0  0  0
 12 19  1  0  0  0  0
 12 13  1  0  0  0  0
 13 14  1  0  0  0  0
 14 22  1  0  0  0  0
 14 15  1  0  0  0  0
 14 17  1  0  0  0  0
 15 16  1  0  0  0  0
 15 28  1  0  0  0  0
 15 29  1  0  0  0  0
 16 30  1  0  0  0  0
 17 23  1  0  0  0  0
 17 18  1  0  0  0  0
 17 19  1  0  0  0  0
 18 31  1  0  0  0  0
 19 24  1  0  0  0  0
 19 20  1  0  0  0  0
 20 32  1  0  0  0  0
M  END
> <s_m_source_file>
AV-unprocessed.smi

> <i_m_source_file_index>
114

> <i_lp_mmshare_version>
43012

> <i_f3d_flags>
0

> <s_epik_input>
RmMobjEpbmMoW05IMl0pYyhjMTIpbltjSF1uMltDQEBIXTNPW0NASF0oW0NIMl1bT0hdKVtDQEBIXShbT0hdKVtDQEBIXTNbT0hd

> <s_epik_cmdline>
J2VwaWtfcHl0aG9uJywgJy1waCcsICc3LjAnLCAnLXRuJywgJzgnLCAnLW1hJywgJzIwMCcsICctbWV0YWxfYmluZGluZycsICctaW1hZScsICc8aW5maWxlLm1hZT4nLCAnLW9tYWUnLCAnPG91dGZpbGUubWFlPic=

> <r_lp_tautomer_probability>
1

> <r_epik_Ionization_Penalty>
1.13199e-05

> <r_epik_Ionization_Penalty_Charging>
0

> <r_epik_Ionization_Penalty_Neutral>
1.13199e-05

> <r_epik_State_Penalty>
-0

> <r_epik_Charging_Adjusted_Penalty>
0

> <i_epik_Tot_Q>
0

> <i_epik_Tot_abs_Q>
0

> <r_epik_Metal_State_Penalty>
-0

> <b_epik_Metal_Only>
0

> <s_epik_Chemistry_Notes>
This compound contains an acetal/aminal-like group ( X-CH(R)-Y where X, Y are N, S, or O) that may be acid/base labile, releasing an aldehyde.

> <s_lp_Force_Field>
OPLS_2005

> <r_lp_Energy>
48.1785

> <b_lp_Chiralities_Consistent>
1

> <s_lp_Variant>
AV-unprocessed.smi:114-12

> <Gold.Version>
5.8.1

> <Gold.Id.Protein>
6NUR|6NUR_protein|mol2

> <Gold.PLP.Fitness>
34.2955

> <Gold.PLP.PLP>
-22.4128

> <Gold.PLP.part.hbond>
-5.6832

> <Gold.PLP.part.metal>
0.0000

> <Gold.PLP.part.buried>
-5.9423

> <Gold.PLP.part.nonpolar>
-13.2167

> <Gold.PLP.part.repulsive>
0.1376

> <Gold.PLP.ligand.clash>
0.0000

> <Gold.PLP.ligand.torsion>
0.0097

> <Gold.PLP.Chemscore.Hbond>
3.9666

> <Gold.PLP.Chemscore.CHOScore>
0.0000

> <Gold.PLP.Chemscore.Metal>
0.0000

> <Gold.Chemscore.Hbonds>
donor molecule, donor type, donor heavy atom, donor atom, acceptor molecule, acceptor atom, score
      L1  H    16    30       P1  8028  1.00
      L1  H    18    31       P1  7957  0.99
      L1  H    20    32       P1  7948  0.99
      P1  H  6896  6909       L1     3  0.91

> <Gold.PLP.Chemscore.Internal.Correction>
0.0024

> <Gold.Rescore>
     Score         DG    S(hbond)    S(metal)    S(lipo)     H(rot)  DE(clash)    DE(int)     intcor
      9.34      -9.50       3.49        0.00      22.81       4.03       0.00       0.16       ----

> <Gold.Chemscore.Fitness>
9.3406

> <Gold.Chemscore.DG>
-9.5007

> <Gold.Chemscore.ZeroCoef>
-5.4800

> <Gold.Chemscore.Hbond>
3.4919

> <Gold.Chemscore.Metal>
0.0000

> <Gold.Chemscore.Lipo>
22.8091

> <Gold.Chemscore.Internal_Hbond>
0.0000

> <Gold.Chemscore.DEClash>
0.0000

> <Gold.Chemscore.DEInternal>
0.1601

> <Gold.Chemscore.Rot>
4.0277

> <Gold.Chemscore.Internal.Correction>
   9.000000E+99

> <Gold.Chemscore.Hbonds>
donor molecule, donor type, donor heavy atom, donor atom, acceptor molecule, acceptor atom, score
      L1  H    16    30       P1  8028  0.72
      L1  H    18    31       P1  7957  0.87
      L1  H    20    32       P1  7948  0.91
      P1  H  6896  6909       L1     3  0.34

> <Gold.Chemscore.Hbond.Weighted>
-11.6630

> <Gold.Chemscore.Metal.Weighted>
-0.0000

> <Gold.Chemscore.Lipo.Weighted>
-2.6687

> <Gold.Chemscore.Internal_Hbond.Weighted>
0.0000

> <Gold.Chemscore.DEClash.Weighted>
0.0000

> <Gold.Chemscore.DEInternal.Weighted>
0.1601

> <Gold.Chemscore.Rot.Weighted>
10.3110

> <Gold.Chemscore.Internal.Correction.Weighted>
   9.000000E+99

> <Gold.Protein.RotatedTorsions>
[ 6907 6896 6895 6894 ] final   91.00 input  -60.11 | X-H torsion
[ 7974 7965 7964 7962 ] final -143.08 input  175.53 | X-H torsion
[ 8008 7997 7996 7995 ] final  -59.10 input   59.86 | X-H torsion
[ 10167 10162 10161 10158 ] final   57.36 input  -65.29 | X-H torsion
[ 10718 10713 10712 10709 ] final  129.23 input   66.30 | X-H torsion
[ 10763 10752 10751 10750 ] final  156.53 input  -60.55 | X-H torsion
[ 11005 11000 10999 10996 ] final  157.93 input  -57.11 | X-H torsion

> <Gold.Protein.ActiveResidues>
 VAL166  LYS551  ARG553  GLY616  TRP617  ASP618  TYR619  PRO620  LYS621  CYS622 
 ASP623  PHE694  ASN695  SER759  ASP760  ASP761  ALA762  ILE779  LEU786  VAL792 
 PHE793  MET794  SER795  GLU796  ALA797  LYS798  CYS799  TRP800  GLU811  SER814 

> <Gold.Protein.RotatedAtoms>
  152.5448  134.1725  159.8602 H   0  0  0  0  0  0  0  0  0  0  0  0  # atno 6907 bound_to 6896
  151.1734  133.4763  159.2601 H   0  0  0  0  0  0  0  0  0  0  0  0  # atno 6908 bound_to 6896
  151.1252  135.0112  159.8612 H   0  0  0  0  0  0  0  0  0  0  0  0  # atno 6909 bound_to 6896
  144.8396  140.5879  143.5461 H   0  0  0  0  0  0  0  0  0  0  0  0  # atno 7974 bound_to 7965
  154.4337  140.1069  156.6063 H   0  0  0  0  0  0  0  0  0  0  0  0  # atno 8008 bound_to 7997
  155.5858  140.3491  155.4534 H   0  0  0  0  0  0  0  0  0  0  0  0  # atno 8009 bound_to 7997
  156.0284  140.1255  157.0273 H   0  0  0  0  0  0  0  0  0  0  0  0  # atno 8010 bound_to 7997
  140.1988  144.4009  150.6538 H   0  0  0  0  0  0  0  0  0  0  0  0  # atno 10167 bound_to 10162
  157.5173  131.1097  150.9206 H   0  0  0  0  0  0  0  0  0  0  0  0  # atno 10718 bound_to 10713
  154.1858  135.2797  155.3038 H   0  0  0  0  0  0  0  0  0  0  0  0  # atno 10763 bound_to 10752
  154.5967  135.5542  153.7336 H   0  0  0  0  0  0  0  0  0  0  0  0  # atno 10764 bound_to 10752
  153.0126  135.6382  154.1996 H   0  0  0  0  0  0  0  0  0  0  0  0  # atno 10765 bound_to 10752
  140.1816  134.8471  157.2809 H   0  0  0  0  0  0  0  0  0  0  0  0  # atno 11005 bound_to 11000
  145.4723  139.1502  143.3807 LP  0  0  0  0  0  0  0  0  0  0  0  0  # atno 17320 bound_to 7965
  146.2690  140.4856  142.8822 LP  0  0  0  0  0  0  0  0  0  0  0  0  # atno 17321 bound_to 7965
  140.6405  143.2202  151.6301 LP  0  0  0  0  0  0  0  0  0  0  0  0  # atno 17342 bound_to 10162
  139.5225  144.3159  152.0952 LP  0  0  0  0  0  0  0  0  0  0  0  0  # atno 17343 bound_to 10162
  156.9827  130.5533  149.5297 LP  0  0  0  0  0  0  0  0  0  0  0  0  # atno 17370 bound_to 10713
  156.0329  130.5419  150.8580 LP  0  0  0  0  0  0  0  0  0  0  0  0  # atno 17371 bound_to 10713
  140.2261  134.3965  155.7543 LP  0  0  0  0  0  0  0  0  0  0  0  0  # atno 17394 bound_to 11000
  141.2223  133.7190  156.8566 LP  0  0  0  0  0  0  0  0  0  0  0  0  # atno 17395 bound_to 11000

$$$$
