AV-unprocessed.smi:956|AV-procd|sdf|4264|dock1
  -GOLD-   22720 2173D 1   1.00000     0.00000
 Structure written by MMmdl.
 42 43  0  0  0  0  0  0  0  0  1 V2000
  150.9809  137.6991  154.3262 C   0  0  0  0  0  0  0  0  0  0  0  0
  152.3901  138.0683  155.4738 S   0  0  1  0  0  0  0  0  0  0  0  0
  153.2565  139.1334  154.7992 O   0  0  0  0  0  0  0  0  0  0  0  0
  151.3721  139.0034  156.6686 C   0  0  0  0  0  0  0  0  0  0  0  0
  150.3939  139.8431  156.3163 N   0  0  0  0  0  0  0  0  0  0  0  0
  149.8936  140.3277  157.5101 N   0  0  0  0  0  0  0  0  0  0  0  0
  150.6251  139.7293  158.4526 C   0  0  0  0  0  0  0  0  0  0  0  0
  151.5653  138.8865  157.9956 N   0  0  0  0  0  0  0  0  0  0  0  0
  152.5206  138.0952  158.7507 C   0  0  0  0  0  0  0  0  0  0  0  0
  153.6802  138.9642  159.2362 C   0  0  0  0  0  0  0  0  0  0  0  0
  154.8280  138.7206  158.8656 O   0  0  0  0  0  0  0  0  0  0  0  0
  153.3699  139.9668  160.0706 N   0  0  0  0  0  0  0  0  0  0  0  0
  154.3406  140.8802  160.6554 C   0  0  0  0  0  0  0  0  0  0  0  0
  153.6283  142.0608  161.3349 C   0  0  0  0  0  0  0  0  0  0  0  0
  152.6766  142.8409  160.4042 C   0  0  0  0  0  0  0  0  0  0  0  0
  153.3691  143.1656  159.0638 C   0  0  0  0  0  0  0  0  0  0  0  0
  152.4418  143.9369  158.1105 C   0  0  0  0  0  0  0  0  0  0  0  0
  151.9171  145.2229  158.7655 C   0  0  0  0  0  0  0  0  0  0  0  0
  151.2181  144.9143  160.0977 C   0  0  0  0  0  0  0  0  0  0  0  0
  152.1448  144.1401  161.0499 C   0  0  0  0  0  0  0  0  0  0  0  0
  150.0545  137.5488  154.8812 H   0  0  0  0  0  0  0  0  0  0  0  0
  151.1902  136.7939  153.7571 H   0  0  0  0  0  0  0  0  0  0  0  0
  150.8374  138.5227  153.6267 H   0  0  0  0  0  0  0  0  0  0  0  0
  150.4720  139.9131  159.5059 H   0  0  0  0  0  0  0  0  0  0  0  0
  152.0108  137.6508  159.6066 H   0  0  0  0  0  0  0  0  0  0  0  0
  152.8841  137.2721  158.1346 H   0  0  0  0  0  0  0  0  0  0  0  0
  152.4025  140.0964  160.3291 H   0  0  0  0  0  0  0  0  0  0  0  0
  154.9492  140.3398  161.3820 H   0  0  0  0  0  0  0  0  0  0  0  0
  155.0087  141.2334  159.8696 H   0  0  0  0  0  0  0  0  0  0  0  0
  153.0789  141.7067  162.2083 H   0  0  0  0  0  0  0  0  0  0  0  0
  154.3879  142.7463  161.7144 H   0  0  0  0  0  0  0  0  0  0  0  0
  151.8228  142.1976  160.1849 H   0  0  0  0  0  0  0  0  0  0  0  0
  154.2692  143.7540  159.2475 H   0  0  0  0  0  0  0  0  0  0  0  0
  153.6978  142.2452  158.5800 H   0  0  0  0  0  0  0  0  0  0  0  0
  152.9737  144.1795  157.1903 H   0  0  0  0  0  0  0  0  0  0  0  0
  151.6019  143.3028  157.8238 H   0  0  0  0  0  0  0  0  0  0  0  0
  152.7456  145.9112  158.9373 H   0  0  0  0  0  0  0  0  0  0  0  0
  151.2270  145.7301  158.0907 H   0  0  0  0  0  0  0  0  0  0  0  0
  150.8923  145.8417  160.5694 H   0  0  0  0  0  0  0  0  0  0  0  0
  150.3164  144.3300  159.9105 H   0  0  0  0  0  0  0  0  0  0  0  0
  151.5962  143.9171  161.9646 H   0  0  0  0  0  0  0  0  0  0  0  0
  152.9815  144.7770  161.3397 H   0  0  0  0  0  0  0  0  0  0  0  0
  1  2  1  0  0  0  0
  1 21  1  0  0  0  0
  1 22  1  0  0  0  0
  1 23  1  0  0  0  0
  2  3  2  0  0  0  0
  2  4  1  0  0  0  0
  4  8  1  0  0  0  0
  4  5  2  0  0  0  0
  5  6  1  0  0  0  0
  6  7  2  0  0  0  0
  7  8  1  0  0  0  0
  7 24  1  0  0  0  0
  8  9  1  0  0  0  0
  9 10  1  0  0  0  0
  9 25  1  0  0  0  0
  9 26  1  0  0  0  0
 10 11  2  0  0  0  0
 10 12  1  0  0  0  0
 12 13  1  0  0  0  0
 12 27  1  0  0  0  0
 13 14  1  0  0  0  0
 13 28  1  0  0  0  0
 13 29  1  0  0  0  0
 14 15  1  0  0  0  0
 14 30  1  0  0  0  0
 14 31  1  0  0  0  0
 15 20  1  0  0  0  0
 15 16  1  0  0  0  0
 15 32  1  0  0  0  0
 16 17  1  0  0  0  0
 16 33  1  0  0  0  0
 16 34  1  0  0  0  0
 17 18  1  0  0  0  0
 17 35  1  0  0  0  0
 17 36  1  0  0  0  0
 18 19  1  0  0  0  0
 18 37  1  0  0  0  0
 18 38  1  0  0  0  0
 19 20  1  0  0  0  0
 19 39  1  0  0  0  0
 19 40  1  0  0  0  0
 20 41  1  0  0  0  0
 20 42  1  0  0  0  0
M  END
> <s_m_source_file>
AV-unprocessed.smi

> <i_m_source_file_index>
956

> <i_lp_mmshare_version>
43012

> <i_f3d_flags>
0

> <s_epik_input>
W0NIM11bU0BdKD1PKWMxbm5bY0hdbjFbQ0gyXUMoPU8pW05IXVtDSDJdW0NIMl1bQ0hdMltDSDJdW0NIMl1bQ0gyXVtDSDJdW0NIMl0y

> <s_epik_cmdline>
J2VwaWtfcHl0aG9uJywgJy1waCcsICc3LjAnLCAnLXRuJywgJzgnLCAnLW1hJywgJzIwMCcsICctbWV0YWxfYmluZGluZycsICctaW1hZScsICc8aW5maWxlLm1hZT4nLCAnLW9tYWUnLCAnPG91dGZpbGUubWFlPic=

> <r_lp_tautomer_probability>
1

> <r_epik_Ionization_Penalty>
7.32521e-08

> <r_epik_Ionization_Penalty_Charging>
0

> <r_epik_Ionization_Penalty_Neutral>
7.32521e-08

> <r_epik_State_Penalty>
-0

> <r_epik_Charging_Adjusted_Penalty>
0

> <i_epik_Tot_Q>
0

> <i_epik_Tot_abs_Q>
0

> <r_epik_Metal_State_Penalty>
-0

> <b_epik_Metal_Only>
0

> <s_lp_Force_Field>
OPLS_2005

> <r_lp_Energy>
10.1233

> <b_lp_Chiralities_Consistent>
1

> <s_lp_Variant>
AV-unprocessed.smi:956-2

> <Gold.Version>
5.8.1

> <Gold.Id.Protein>
6NUR|6NUR_protein|mol2

> <Gold.PLP.Fitness>
52.1467

> <Gold.PLP.PLP>
-47.4725

> <Gold.PLP.part.hbond>
-3.0000

> <Gold.PLP.part.metal>
0.0000

> <Gold.PLP.part.buried>
-5.9374

> <Gold.PLP.part.nonpolar>
-38.8662

> <Gold.PLP.part.repulsive>
0.1392

> <Gold.PLP.ligand.clash>
0.0000

> <Gold.PLP.ligand.torsion>
1.3270

> <Gold.PLP.Chemscore.Hbond>
2.0796

> <Gold.PLP.Chemscore.CHOScore>
0.0000

> <Gold.PLP.Chemscore.Metal>
0.0000

> <Gold.Chemscore.Hbonds>
donor molecule, donor type, donor heavy atom, donor atom, acceptor molecule, acceptor atom, score
      P1  H  7997  8008       L1    11  1.00
      P1  H  7997  8009       L1     3  1.00

> <Gold.PLP.Chemscore.Internal.Correction>
1.0896

> <Gold.Rescore>
     Score         DG    S(hbond)    S(metal)    S(lipo)     H(rot)  DE(clash)    DE(int)     intcor
     18.36     -19.77       2.20        0.00     108.75       2.26       0.02       1.38       ----

> <Gold.Chemscore.Fitness>
18.3580

> <Gold.Chemscore.DG>
-19.7674

> <Gold.Chemscore.ZeroCoef>
-5.4800

> <Gold.Chemscore.Hbond>
2.1969

> <Gold.Chemscore.Metal>
0.0000

> <Gold.Chemscore.Lipo>
108.7481

> <Gold.Chemscore.Internal_Hbond>
0.0000

> <Gold.Chemscore.DEClash>
0.0247

> <Gold.Chemscore.DEInternal>
1.3846

> <Gold.Chemscore.Rot>
2.2554

> <Gold.Chemscore.Internal.Correction>
   9.000000E+99

> <Gold.Chemscore.Hbonds>
donor molecule, donor type, donor heavy atom, donor atom, acceptor molecule, acceptor atom, score
      P1  H  7997  8008       L1    11  0.28
      P1  H  7997  8009       L1     3  0.94

> <Gold.Chemscore.Hbond.Weighted>
-7.3377

> <Gold.Chemscore.Metal.Weighted>
-0.0000

> <Gold.Chemscore.Lipo.Weighted>
-12.7235

> <Gold.Chemscore.Internal_Hbond.Weighted>
0.0000

> <Gold.Chemscore.DEClash.Weighted>
0.0247

> <Gold.Chemscore.DEInternal.Weighted>
1.3846

> <Gold.Chemscore.Rot.Weighted>
5.7738

> <Gold.Chemscore.Internal.Correction.Weighted>
   9.000000E+99

> <Gold.Protein.RotatedTorsions>
[ 6907 6896 6895 6894 ] final -133.67 input  -60.11 | X-H torsion
[ 7974 7965 7964 7962 ] final -101.29 input  175.53 | X-H torsion
[ 8008 7997 7996 7995 ] final -113.96 input   59.86 | X-H torsion
[ 10167 10162 10161 10158 ] final  116.13 input  -65.29 | X-H torsion
[ 10718 10713 10712 10709 ] final  -47.67 input   66.30 | X-H torsion
[ 10763 10752 10751 10750 ] final -164.29 input  -60.55 | X-H torsion
[ 11005 11000 10999 10996 ] final -114.58 input  -57.11 | X-H torsion

> <Gold.Protein.ActiveResidues>
 VAL166  LYS551  ARG553  GLY616  TRP617  ASP618  TYR619  PRO620  LYS621  CYS622 
 ASP623  PHE694  ASN695  SER759  ASP760  ASP761  ALA762  ILE779  LEU786  VAL792 
 PHE793  MET794  SER795  GLU796  ALA797  LYS798  CYS799  TRP800  GLU811  SER814 

> <Gold.Protein.RotatedAtoms>
  150.9768  133.6287  159.2728 H   0  0  0  0  0  0  0  0  0  0  0  0  # atno 6907 bound_to 6896
  151.3556  135.0892  159.9427 H   0  0  0  0  0  0  0  0  0  0  0  0  # atno 6908 bound_to 6896
  152.5202  133.9352  159.7654 H   0  0  0  0  0  0  0  0  0  0  0  0  # atno 6909 bound_to 6896
  145.2835  140.9333  143.2918 H   0  0  0  0  0  0  0  0  0  0  0  0  # atno 7974 bound_to 7965
  155.0288  140.0393  157.2466 H   0  0  0  0  0  0  0  0  0  0  0  0  # atno 8008 bound_to 7997
  154.7314  140.2731  155.6429 H   0  0  0  0  0  0  0  0  0  0  0  0  # atno 8009 bound_to 7997
  156.2842  140.2683  156.2015 H   0  0  0  0  0  0  0  0  0  0  0  0  # atno 8010 bound_to 7997
  139.6268  144.7109  151.2515 H   0  0  0  0  0  0  0  0  0  0  0  0  # atno 10167 bound_to 10162
  156.2062  130.4158  149.9175 H   0  0  0  0  0  0  0  0  0  0  0  0  # atno 10718 bound_to 10713
  154.7042  135.2993  154.9295 H   0  0  0  0  0  0  0  0  0  0  0  0  # atno 10763 bound_to 10752
  154.0218  135.6681  153.4777 H   0  0  0  0  0  0  0  0  0  0  0  0  # atno 10764 bound_to 10752
  153.0704  135.5064  154.8203 H   0  0  0  0  0  0  0  0  0  0  0  0  # atno 10765 bound_to 10752
  141.0542  133.9638  157.2782 H   0  0  0  0  0  0  0  0  0  0  0  0  # atno 11005 bound_to 11000
  144.9233  139.4386  143.6531 LP  0  0  0  0  0  0  0  0  0  0  0  0  # atno 17320 bound_to 7965
  146.3208  139.8105  142.8947 LP  0  0  0  0  0  0  0  0  0  0  0  0  # atno 17321 bound_to 7965
  140.7416  143.6552  150.8213 LP  0  0  0  0  0  0  0  0  0  0  0  0  # atno 17342 bound_to 10162
  140.0172  143.5581  152.2815 LP  0  0  0  0  0  0  0  0  0  0  0  0  # atno 17343 bound_to 10162
  156.6868  130.8880  151.3583 LP  0  0  0  0  0  0  0  0  0  0  0  0  # atno 17370 bound_to 10713
  157.7013  130.9336  150.0795 LP  0  0  0  0  0  0  0  0  0  0  0  0  # atno 17371 bound_to 10713
  139.9376  135.0195  156.8606 LP  0  0  0  0  0  0  0  0  0  0  0  0  # atno 17394 bound_to 11000
  140.5995  134.0185  155.7531 LP  0  0  0  0  0  0  0  0  0  0  0  0  # atno 17395 bound_to 11000

$$$$
