AV-unprocessed.smi:1555|AV-procd|sdf|6267|dock6
  -GOLD-   22720 6453D 1   1.00000     0.00000
 Structure written by MMmdl.
 41 42  0  0  0  0  0  0  0  0  1 V2000
  154.3077  140.5902  160.6286 C   0  0  0  0  0  0  0  0  0  0  0  0
  153.2382  141.5875  160.1562 C   0  0  1  0  0  0  0  0  0  0  0  0
  153.8712  142.7901  159.4306 C   0  0  0  0  0  0  0  0  0  0  0  0
  152.9625  143.9179  159.3356 N   0  0  0  0  0  0  0  0  0  0  0  0
  152.4718  144.6900  160.3808 C   0  0  0  0  0  0  0  0  0  0  0  0
  151.6529  145.6411  159.8154 C   0  0  0  0  0  0  0  0  0  0  0  0
  151.6236  145.4729  158.4331 N   0  0  0  0  0  0  0  0  0  0  0  0
  152.4213  144.4335  158.2236 C   0  0  0  0  0  0  0  0  0  0  0  0
  152.2846  140.9212  159.2725 N   0  0  0  0  0  0  0  0  0  0  0  0
  152.5879  140.2545  158.1460 C   0  0  0  0  0  0  0  0  0  0  0  0
  153.7408  140.1836  157.7179 O   0  0  0  0  0  0  0  0  0  0  0  0
  151.5268  139.6765  157.5280 N   0  0  0  0  0  0  0  0  0  0  0  0
  150.1334  139.6674  158.0050 C   0  0  0  0  0  0  0  0  0  0  0  0
  149.2995  140.6003  157.1092 C   0  0  0  0  0  0  0  0  0  0  0  0
  149.3861  140.1789  155.6253 C   0  0  0  0  0  0  0  0  0  0  0  0
  148.6311  141.1700  154.7211 C   0  0  0  0  0  0  0  0  0  0  0  0
  149.0389  141.0315  153.3761 O   0  0  0  0  0  0  0  0  0  0  0  0
  150.8618  140.0004  155.1971 C   0  0  0  0  0  0  0  0  0  0  0  0
  151.6279  139.0989  156.1825 C   0  0  0  0  0  0  0  0  0  0  0  0
  155.0205  141.0701  161.2998 H   0  0  0  0  0  0  0  0  0  0  0  0
  154.8671  140.1794  159.7876 H   0  0  0  0  0  0  0  0  0  0  0  0
  153.8600  139.7560  161.1699 H   0  0  0  0  0  0  0  0  0  0  0  0
  152.7091  141.9620  161.0346 H   0  0  0  0  0  0  0  0  0  0  0  0
  154.7653  143.1218  159.9602 H   0  0  0  0  0  0  0  0  0  0  0  0
  154.1890  142.5096  158.4252 H   0  0  0  0  0  0  0  0  0  0  0  0
  152.7402  144.5057  161.4107 H   0  0  0  0  0  0  0  0  0  0  0  0
  151.0871  146.4269  160.2933 H   0  0  0  0  0  0  0  0  0  0  0  0
  152.6199  144.0398  157.2376 H   0  0  0  0  0  0  0  0  0  0  0  0
  151.3160  140.9402  159.5564 H   0  0  0  0  0  0  0  0  0  0  0  0
  149.7427  138.6504  157.9466 H   0  0  0  0  0  0  0  0  0  0  0  0
  150.0188  139.9562  159.0497 H   0  0  0  0  0  0  0  0  0  0  0  0
  148.2600  140.5934  157.4387 H   0  0  0  0  0  0  0  0  0  0  0  0
  149.6548  141.6253  157.2259 H   0  0  0  0  0  0  0  0  0  0  0  0
  148.8958  139.2075  155.5401 H   0  0  0  0  0  0  0  0  0  0  0  0
  147.5575  140.9856  154.7694 H   0  0  0  0  0  0  0  0  0  0  0  0
  148.7966  142.1978  155.0457 H   0  0  0  0  0  0  0  0  0  0  0  0
  148.6573  140.2410  153.0259 H   0  0  0  0  0  0  0  0  0  0  0  0
  150.9149  139.5728  154.1956 H   0  0  0  0  0  0  0  0  0  0  0  0
  151.3516  140.9737  155.1431 H   0  0  0  0  0  0  0  0  0  0  0  0
  152.6597  138.9801  155.8487 H   0  0  0  0  0  0  0  0  0  0  0  0
  151.2010  138.0952  156.1842 H   0  0  0  0  0  0  0  0  0  0  0  0
  1  2  1  0  0  0  0
  1 20  1  0  0  0  0
  1 21  1  0  0  0  0
  1 22  1  0  0  0  0
  2  3  1  0  0  0  0
  2  9  1  0  0  0  0
  2 23  1  0  0  0  0
  3  4  1  0  0  0  0
  3 24  1  0  0  0  0
  3 25  1  0  0  0  0
  4  8  1  0  0  0  0
  4  5  1  0  0  0  0
  5  6  2  0  0  0  0
  5 26  1  0  0  0  0
  6  7  1  0  0  0  0
  6 27  1  0  0  0  0
  7  8  2  0  0  0  0
  8 28  1  0  0  0  0
  9 10  1  0  0  0  0
  9 29  1  0  0  0  0
 10 11  2  0  0  0  0
 10 12  1  0  0  0  0
 12 19  1  0  0  0  0
 12 13  1  0  0  0  0
 13 14  1  0  0  0  0
 13 30  1  0  0  0  0
 13 31  1  0  0  0  0
 14 15  1  0  0  0  0
 14 32  1  0  0  0  0
 14 33  1  0  0  0  0
 15 16  1  0  0  0  0
 15 18  1  0  0  0  0
 15 34  1  0  0  0  0
 16 17  1  0  0  0  0
 16 35  1  0  0  0  0
 16 36  1  0  0  0  0
 17 37  1  0  0  0  0
 18 19  1  0  0  0  0
 18 38  1  0  0  0  0
 18 39  1  0  0  0  0
 19 40  1  0  0  0  0
 19 41  1  0  0  0  0
M  END
> <s_m_source_file>
AV-unprocessed.smi

> <i_m_source_file_index>
1555

> <i_lp_mmshare_version>
43012

> <i_f3d_flags>
0

> <s_epik_input>
W2NIXTFuW2NIXVtjSF1uMVtDSDJdW0NAQEhdKFtDSDNdKVtOSF1DKD1PKU4yW0NIMl1bQ0gyXVtDSF0oW0NIMl1bT0hdKVtDSDJdW0NIMl0y

> <s_epik_cmdline>
J2VwaWtfcHl0aG9uJywgJy1waCcsICc3LjAnLCAnLXRuJywgJzgnLCAnLW1hJywgJzIwMCcsICctbWV0YWxfYmluZGluZycsICctaW1hZScsICc8aW5maWxlLm1hZT4nLCAnLW9tYWUnLCAnPG91dGZpbGUubWFlPic=

> <r_lp_tautomer_probability>
1

> <r_epik_Ionization_Penalty>
0.625883

> <r_epik_Ionization_Penalty_Charging>
0.625812

> <r_epik_Ionization_Penalty_Neutral>
7.07114e-05

> <r_epik_State_Penalty>
0.642234

> <r_epik_Charging_Adjusted_Penalty>
1.26805

> <i_epik_Tot_Q>
0

> <i_epik_Tot_abs_Q>
0

> <r_epik_Metal_State_Penalty>
0.307949

> <b_epik_Metal_Only>
0

> <s_lp_Force_Field>
OPLS_2005

> <r_lp_Energy>
32.573

> <b_lp_Chiralities_Consistent>
1

> <s_lp_Variant>
AV-unprocessed.smi:1555-4

> <Gold.Version>
5.8.1

> <Gold.Id.Protein>
6NUR|6NUR_protein|mol2

> <Gold.PLP.Fitness>
47.5722

> <Gold.PLP.PLP>
-41.5414

> <Gold.PLP.part.hbond>
-3.6036

> <Gold.PLP.part.metal>
0.0000

> <Gold.PLP.part.buried>
-1.4249

> <Gold.PLP.part.nonpolar>
-36.9601

> <Gold.PLP.part.repulsive>
0.2925

> <Gold.PLP.ligand.clash>
0.0000

> <Gold.PLP.ligand.torsion>
0.4159

> <Gold.PLP.Chemscore.Hbond>
2.2731

> <Gold.PLP.Chemscore.CHOScore>
0.0000

> <Gold.PLP.Chemscore.Metal>
0.0000

> <Gold.Chemscore.Hbonds>
donor molecule, donor type, donor heavy atom, donor atom, acceptor molecule, acceptor atom, score
      L1  H    17    37       P1  7957  0.05
      P1  H  7997  8008       L1    11  0.10
      P1  H  8011  8017       L1    17  1.00

> <Gold.PLP.Chemscore.Internal.Correction>
0.0432

> <Gold.Rescore>
     Score         DG    S(hbond)    S(metal)    S(lipo)     H(rot)  DE(clash)    DE(int)     intcor
     14.58     -16.71       2.40        0.00      81.85       2.49       0.08       2.04       ----

> <Gold.Chemscore.Fitness>
14.5809

> <Gold.Chemscore.DG>
-16.7053

> <Gold.Chemscore.ZeroCoef>
-5.4800

> <Gold.Chemscore.Hbond>
2.3996

> <Gold.Chemscore.Metal>
0.0000

> <Gold.Chemscore.Lipo>
81.8516

> <Gold.Chemscore.Internal_Hbond>
0.0000

> <Gold.Chemscore.DEClash>
0.0814

> <Gold.Chemscore.DEInternal>
2.0430

> <Gold.Chemscore.Rot>
2.4867

> <Gold.Chemscore.Internal.Correction>
   9.000000E+99

> <Gold.Chemscore.Hbonds>
donor molecule, donor type, donor heavy atom, donor atom, acceptor molecule, acceptor atom, score
      L1  H    17    37       P1  7957  0.07
      P1  H  7997  8008       L1    11  0.11
      P1  H  8011  8017       L1    17  0.97

> <Gold.Chemscore.Hbond.Weighted>
-8.0147

> <Gold.Chemscore.Metal.Weighted>
-0.0000

> <Gold.Chemscore.Lipo.Weighted>
-9.5766

> <Gold.Chemscore.Internal_Hbond.Weighted>
0.0000

> <Gold.Chemscore.DEClash.Weighted>
0.0814

> <Gold.Chemscore.DEInternal.Weighted>
2.0430

> <Gold.Chemscore.Rot.Weighted>
6.3660

> <Gold.Chemscore.Internal.Correction.Weighted>
   9.000000E+99

> <Gold.Protein.RotatedTorsions>
[ 6907 6896 6895 6894 ] final   82.78 input  -60.11 | X-H torsion
[ 7974 7965 7964 7962 ] final  120.35 input  175.53 | X-H torsion
[ 8008 7997 7996 7995 ] final -103.94 input   59.86 | X-H torsion
[ 10167 10162 10161 10158 ] final  140.71 input  -65.29 | X-H torsion
[ 10718 10713 10712 10709 ] final   35.98 input   66.30 | X-H torsion
[ 10763 10752 10751 10750 ] final  -24.39 input  -60.55 | X-H torsion
[ 11005 11000 10999 10996 ] final   89.12 input  -57.11 | X-H torsion

> <Gold.Protein.ActiveResidues>
 VAL166  LYS551  ARG553  GLY616  TRP617  ASP618  TYR619  PRO620  LYS621  CYS622 
 ASP623  PHE694  ASN695  SER759  ASP760  ASP761  ALA762  ILE779  LEU786  VAL792 
 PHE793  MET794  SER795  GLU796  ALA797  LYS798  CYS799  TRP800  GLU811  SER814 

> <Gold.Protein.RotatedAtoms>
  152.5309  134.2996  159.9073 H   0  0  0  0  0  0  0  0  0  0  0  0  # atno 6907 bound_to 6896
  151.2947  133.4143  159.2643 H   0  0  0  0  0  0  0  0  0  0  0  0  # atno 6908 bound_to 6896
  151.0170  134.9456  159.8096 H   0  0  0  0  0  0  0  0  0  0  0  0  # atno 6909 bound_to 6896
  145.1322  139.3320  143.4659 H   0  0  0  0  0  0  0  0  0  0  0  0  # atno 7974 bound_to 7965
  154.8781  140.0420  157.1765 H   0  0  0  0  0  0  0  0  0  0  0  0  # atno 8008 bound_to 7997
  154.8668  140.2952  155.5484 H   0  0  0  0  0  0  0  0  0  0  0  0  # atno 8009 bound_to 7997
  156.2999  140.2436  156.3651 H   0  0  0  0  0  0  0  0  0  0  0  0  # atno 8010 bound_to 7997
  139.5041  144.6217  151.6035 H   0  0  0  0  0  0  0  0  0  0  0  0  # atno 10167 bound_to 10162
  157.3293  130.7489  149.6837 H   0  0  0  0  0  0  0  0  0  0  0  0  # atno 10718 bound_to 10713
  153.6830  135.6966  153.5112 H   0  0  0  0  0  0  0  0  0  0  0  0  # atno 10763 bound_to 10752
  153.2471  135.4287  155.0758 H   0  0  0  0  0  0  0  0  0  0  0  0  # atno 10764 bound_to 10752
  154.8395  135.3522  154.6373 H   0  0  0  0  0  0  0  0  0  0  0  0  # atno 10765 bound_to 10752
  139.8882  134.8531  156.3097 H   0  0  0  0  0  0  0  0  0  0  0  0  # atno 11005 bound_to 11000
  146.3513  140.1325  142.8597 LP  0  0  0  0  0  0  0  0  0  0  0  0  # atno 17320 bound_to 7965
  145.0623  140.9096  143.4931 LP  0  0  0  0  0  0  0  0  0  0  0  0  # atno 17321 bound_to 7965
  140.5921  143.9761  150.6331 LP  0  0  0  0  0  0  0  0  0  0  0  0  # atno 17342 bound_to 10162
  140.2945  143.3302  152.1031 LP  0  0  0  0  0  0  0  0  0  0  0  0  # atno 17343 bound_to 10162
  155.9694  130.4200  150.4401 LP  0  0  0  0  0  0  0  0  0  0  0  0  # atno 17370 bound_to 10713
  157.2430  131.0529  151.2425 LP  0  0  0  0  0  0  0  0  0  0  0  0  # atno 17371 bound_to 10713
  140.9858  133.7239  156.0740 LP  0  0  0  0  0  0  0  0  0  0  0  0  # atno 17394 bound_to 11000
  140.7690  134.3854  157.5511 LP  0  0  0  0  0  0  0  0  0  0  0  0  # atno 17395 bound_to 11000

$$$$
