AV-unprocessed.smi:314|AV-procd|sdf|2315|dock9
  -GOLD-   2262022223D 1   1.00000     0.00000
 Structure written by MMmdl.
 48 49  0  0  0  0  0  0  0  0  1 V2000
  147.2387  128.1829  152.8308 C   0  0  0  0  0  0  0  0  0  0  0  0
  148.3138  128.6616  153.6315 O   0  0  0  0  0  0  0  0  0  0  0  0
  148.5561  130.0197  153.6588 C   0  0  0  0  0  0  0  0  0  0  0  0
  149.7273  130.4832  154.2905 C   0  0  0  0  0  0  0  0  0  0  0  0
  149.9775  131.8680  154.3236 C   0  0  0  0  0  0  0  0  0  0  0  0
  149.0469  132.7484  153.7365 C   0  0  0  0  0  0  0  0  0  0  0  0
  149.3285  134.1405  153.7658 N   0  0  0  0  0  0  0  0  0  0  0  0
  149.9910  134.8317  154.7088 C   0  0  0  0  0  0  0  0  0  0  0  0
  150.5390  134.3401  155.6956 O   0  0  0  0  0  0  0  0  0  0  0  0
  150.0025  136.1437  154.4335 N   0  0  0  0  0  0  0  0  0  0  0  0
  150.6490  137.1627  155.2533 C   0  0  0  0  0  0  0  0  0  0  0  0
  150.7826  138.5015  154.4979 C   0  0  0  0  0  0  0  0  0  0  0  0
  151.4687  139.6089  155.3154 C   0  0  0  0  0  0  0  0  0  0  0  0
  152.6449  139.4625  155.6513 O   0  0  0  0  0  0  0  0  0  0  0  0
  150.7543  140.7090  155.6540 N   0  0  0  0  0  0  0  0  0  0  0  0
  151.2652  141.7601  156.5352 C   0  0  0  0  0  0  0  0  0  0  0  0
  150.4585  141.7186  157.8479 C   0  0  1  0  0  0  0  0  0  0  0  0
  150.8747  142.8305  158.8163 C   0  0  0  0  0  0  0  0  0  0  0  0
  149.0666  141.8801  157.5601 O   0  0  0  0  0  0  0  0  0  0  0  0
  148.5143  140.9525  156.6199 C   0  0  2  0  0  0  0  0  0  0  0  0
  148.3464  139.5539  157.2415 C   0  0  0  0  0  0  0  0  0  0  0  0
  149.3502  140.9673  155.3227 C   0  0  0  0  0  0  0  0  0  0  0  0
  147.9072  132.1843  153.1135 C   0  0  0  0  0  0  0  0  0  0  0  0
  147.6635  130.8572  153.0752 N   0  0  0  0  0  0  0  0  0  0  0  0
  147.1722  127.0994  152.9266 H   0  0  0  0  0  0  0  0  0  0  0  0
  147.3942  128.4128  151.7757 H   0  0  0  0  0  0  0  0  0  0  0  0
  146.2842  128.6025  153.1520 H   0  0  0  0  0  0  0  0  0  0  0  0
  150.4206  129.7888  154.7414 H   0  0  0  0  0  0  0  0  0  0  0  0
  150.8701  132.2465  154.8000 H   0  0  0  0  0  0  0  0  0  0  0  0
  149.0260  134.6635  152.9572 H   0  0  0  0  0  0  0  0  0  0  0  0
  149.5341  136.4608  153.5973 H   0  0  0  0  0  0  0  0  0  0  0  0
  150.0862  137.2937  156.1796 H   0  0  0  0  0  0  0  0  0  0  0  0
  151.6342  136.7901  155.5361 H   0  0  0  0  0  0  0  0  0  0  0  0
  151.3405  138.3482  153.5733 H   0  0  0  0  0  0  0  0  0  0  0  0
  149.7872  138.8487  154.2206 H   0  0  0  0  0  0  0  0  0  0  0  0
  152.3298  141.6527  156.7477 H   0  0  0  0  0  0  0  0  0  0  0  0
  151.1529  142.7301  156.0485 H   0  0  0  0  0  0  0  0  0  0  0  0
  150.6181  140.7605  158.3438 H   0  0  0  0  0  0  0  0  0  0  0  0
  151.9278  142.7427  159.0844 H   0  0  0  0  0  0  0  0  0  0  0  0
  150.2927  142.7828  159.7370 H   0  0  0  0  0  0  0  0  0  0  0  0
  150.7216  143.8157  158.3753 H   0  0  0  0  0  0  0  0  0  0  0  0
  147.5156  141.3184  156.3792 H   0  0  0  0  0  0  0  0  0  0  0  0
  147.8371  138.8821  156.5501 H   0  0  0  0  0  0  0  0  0  0  0  0
  147.7486  139.6035  158.1517 H   0  0  0  0  0  0  0  0  0  0  0  0
  149.3009  139.0941  157.4956 H   0  0  0  0  0  0  0  0  0  0  0  0
  149.2783  141.9502  154.8546 H   0  0  0  0  0  0  0  0  0  0  0  0
  148.9313  140.2744  154.5946 H   0  0  0  0  0  0  0  0  0  0  0  0
  147.1729  132.7928  152.6089 H   0  0  0  0  0  0  0  0  0  0  0  0
  1  2  1  0  0  0  0
  1 25  1  0  0  0  0
  1 26  1  0  0  0  0
  1 27  1  0  0  0  0
  2  3  1  0  0  0  0
  3 24  1  0  0  0  0
  3  4  2  0  0  0  0
  4  5  1  0  0  0  0
  4 28  1  0  0  0  0
  5  6  2  0  0  0  0
  5 29  1  0  0  0  0
  6  7  1  0  0  0  0
  6 23  1  0  0  0  0
  7  8  1  0  0  0  0
  7 30  1  0  0  0  0
  8  9  2  0  0  0  0
  8 10  1  0  0  0  0
 10 11  1  0  0  0  0
 10 31  1  0  0  0  0
 11 12  1  0  0  0  0
 11 32  1  0  0  0  0
 11 33  1  0  0  0  0
 12 13  1  0  0  0  0
 12 34  1  0  0  0  0
 12 35  1  0  0  0  0
 13 14  2  0  0  0  0
 13 15  1  0  0  0  0
 15 22  1  0  0  0  0
 15 16  1  0  0  0  0
 16 17  1  0  0  0  0
 16 36  1  0  0  0  0
 16 37  1  0  0  0  0
 17 18  1  0  0  0  0
 17 19  1  0  0  0  0
 17 38  1  0  0  0  0
 18 39  1  0  0  0  0
 18 40  1  0  0  0  0
 18 41  1  0  0  0  0
 19 20  1  0  0  0  0
 20 21  1  0  0  0  0
 20 22  1  0  0  0  0
 20 42  1  0  0  0  0
 21 43  1  0  0  0  0
 21 44  1  0  0  0  0
 21 45  1  0  0  0  0
 22 46  1  0  0  0  0
 22 47  1  0  0  0  0
 23 24  2  0  0  0  0
 23 48  1  0  0  0  0
M  END
> <s_m_source_file>
AV-unprocessed.smi

> <i_m_source_file_index>
314

> <i_lp_mmshare_version>
43012

> <i_f3d_flags>
0

> <s_epik_input>
W0NIM11PYzFbY0hdW2NIXWMoW2NIXW4xKVtOSF1DKD1PKVtOSF1bQ0gyXVtDSDJdQyg9TylOMltDSDJdW0NAQEhdKFtDSDNdKU9bQ0BASF0oW0NIM10pW0NIMl0y

> <s_epik_cmdline>
J2VwaWtfcHl0aG9uJywgJy1waCcsICc3LjAnLCAnLXRuJywgJzgnLCAnLW1hJywgJzIwMCcsICctbWV0YWxfYmluZGluZycsICctaW1hZScsICc8aW5maWxlLm1hZT4nLCAnLW9tYWUnLCAnPG91dGZpbGUubWFlPic=

> <r_lp_tautomer_probability>
1

> <r_epik_Ionization_Penalty>
8.55977e-05

> <r_epik_Ionization_Penalty_Charging>
0

> <r_epik_Ionization_Penalty_Neutral>
8.55977e-05

> <r_epik_State_Penalty>
-0

> <r_epik_Charging_Adjusted_Penalty>
0

> <i_epik_Tot_Q>
0

> <i_epik_Tot_abs_Q>
0

> <r_epik_Metal_State_Penalty>
-0

> <b_epik_Metal_Only>
0

> <s_lp_Force_Field>
OPLS_2005

> <r_lp_Energy>
24.1988

> <b_lp_Chiralities_Consistent>
1

> <s_lp_Variant>
AV-unprocessed.smi:314-3

> <Gold.Version>
5.8.1

> <Gold.Id.Protein>
6NUR|6NUR_protein|mol2

> <Gold.PLP.Fitness>
46.3581

> <Gold.PLP.PLP>
-38.9285

> <Gold.PLP.part.hbond>
-3.3661

> <Gold.PLP.part.metal>
0.0000

> <Gold.PLP.part.buried>
-4.0082

> <Gold.PLP.part.nonpolar>
-30.8174

> <Gold.PLP.part.repulsive>
0.4107

> <Gold.PLP.ligand.clash>
0.0000

> <Gold.PLP.ligand.torsion>
0.3872

> <Gold.PLP.Chemscore.Hbond>
2.7260

> <Gold.PLP.Chemscore.CHOScore>
0.0000

> <Gold.PLP.Chemscore.Metal>
0.0000

> <Gold.Chemscore.Hbonds>
donor molecule, donor type, donor heavy atom, donor atom, acceptor molecule, acceptor atom, score
      L1  H     7    30       P1  7948  0.50
      L1  H    10    31       P1  7948  1.00
      P1  H  7997  8009       L1    14  1.00

> <Gold.PLP.Chemscore.Internal.Correction>
0.0261

> <Gold.Rescore>
     Score         DG    S(hbond)    S(metal)    S(lipo)     H(rot)  DE(clash)    DE(int)     intcor
     14.18     -17.59       2.30        0.00      77.33       1.81       1.69       1.71       ----

> <Gold.Chemscore.Fitness>
14.1844

> <Gold.Chemscore.DG>
-17.5881

> <Gold.Chemscore.ZeroCoef>
-5.4800

> <Gold.Chemscore.Hbond>
2.3010

> <Gold.Chemscore.Metal>
0.0000

> <Gold.Chemscore.Lipo>
77.3319

> <Gold.Chemscore.Internal_Hbond>
0.0000

> <Gold.Chemscore.DEClash>
1.6914

> <Gold.Chemscore.DEInternal>
1.7124

> <Gold.Chemscore.Rot>
1.8067

> <Gold.Chemscore.Internal.Correction>
   9.000000E+99

> <Gold.Chemscore.Hbonds>
donor molecule, donor type, donor heavy atom, donor atom, acceptor molecule, acceptor atom, score
      L1  H     7    30       P1  7948  0.02
      L1  H    10    31       P1  7948  0.67
      P1  H  7997  8009       L1    14  1.00

> <Gold.Chemscore.Hbond.Weighted>
-7.6855

> <Gold.Chemscore.Metal.Weighted>
-0.0000

> <Gold.Chemscore.Lipo.Weighted>
-9.0478

> <Gold.Chemscore.Internal_Hbond.Weighted>
0.0000

> <Gold.Chemscore.DEClash.Weighted>
1.6914

> <Gold.Chemscore.DEInternal.Weighted>
1.7124

> <Gold.Chemscore.Rot.Weighted>
4.6252

> <Gold.Chemscore.Internal.Correction.Weighted>
   9.000000E+99

> <Gold.Protein.RotatedTorsions>
[ 6907 6896 6895 6894 ] final  -51.95 input  -60.11 | X-H torsion
[ 7974 7965 7964 7962 ] final -167.97 input  175.53 | X-H torsion
[ 8008 7997 7996 7995 ] final -142.54 input   59.86 | X-H torsion
[ 10167 10162 10161 10158 ] final  175.29 input  -65.29 | X-H torsion
[ 10718 10713 10712 10709 ] final   10.12 input   66.30 | X-H torsion
[ 10763 10752 10751 10750 ] final  -77.98 input  -60.55 | X-H torsion
[ 11005 11000 10999 10996 ] final -145.05 input  -57.11 | X-H torsion

> <Gold.Protein.ActiveResidues>
 VAL166  LYS551  ARG553  GLY616  TRP617  ASP618  TYR619  PRO620  LYS621  CYS622 
 ASP623  PHE694  ASN695  SER759  ASP760  ASP761  ALA762  ILE779  LEU786  VAL792 
 PHE793  MET794  SER795  GLU796  ALA797  LYS798  CYS799  TRP800  GLU811  SER814 

> <Gold.Protein.RotatedAtoms>
  150.8564  134.7903  159.7048 H   0  0  0  0  0  0  0  0  0  0  0  0  # atno 6907 bound_to 6896
  152.4614  134.5172  159.9781 H   0  0  0  0  0  0  0  0  0  0  0  0  # atno 6908 bound_to 6896
  151.5284  133.3415  159.2949 H   0  0  0  0  0  0  0  0  0  0  0  0  # atno 6909 bound_to 6896
  144.7212  140.2440  143.6287 H   0  0  0  0  0  0  0  0  0  0  0  0  # atno 7974 bound_to 7965
  155.4959  140.0571  157.2946 H   0  0  0  0  0  0  0  0  0  0  0  0  # atno 8008 bound_to 7997
  154.4605  140.1994  156.0208 H   0  0  0  0  0  0  0  0  0  0  0  0  # atno 8009 bound_to 7997
  156.0881  140.3237  155.7784 H   0  0  0  0  0  0  0  0  0  0  0  0  # atno 8010 bound_to 7997
  139.5172  144.3048  152.0346 H   0  0  0  0  0  0  0  0  0  0  0  0  # atno 10167 bound_to 10162
  156.9764  130.5988  149.5673 H   0  0  0  0  0  0  0  0  0  0  0  0  # atno 10718 bound_to 10713
  154.5200  135.5745  153.6673 H   0  0  0  0  0  0  0  0  0  0  0  0  # atno 10763 bound_to 10752
  152.9915  135.6179  154.2767 H   0  0  0  0  0  0  0  0  0  0  0  0  # atno 10764 bound_to 10752
  154.2687  135.2854  155.2727 H   0  0  0  0  0  0  0  0  0  0  0  0  # atno 10765 bound_to 10752
  140.7962  134.2911  157.4995 H   0  0  0  0  0  0  0  0  0  0  0  0  # atno 11005 bound_to 11000
  145.8292  139.2078  143.1892 LP  0  0  0  0  0  0  0  0  0  0  0  0  # atno 17320 bound_to 7965
  146.0446  140.8131  142.9812 LP  0  0  0  0  0  0  0  0  0  0  0  0  # atno 17321 bound_to 7965
  140.2494  144.4185  150.6228 LP  0  0  0  0  0  0  0  0  0  0  0  0  # atno 17342 bound_to 10162
  140.6235  143.2178  151.6645 LP  0  0  0  0  0  0  0  0  0  0  0  0  # atno 17343 bound_to 10162
  156.0262  130.5356  150.8412 LP  0  0  0  0  0  0  0  0  0  0  0  0  # atno 17370 bound_to 10713
  157.5557  131.0945  150.9632 LP  0  0  0  0  0  0  0  0  0  0  0  0  # atno 17371 bound_to 10713
  139.8726  134.9403  156.3765 LP  0  0  0  0  0  0  0  0  0  0  0  0  # atno 17394 bound_to 11000
  140.9341  133.7559  156.0061 LP  0  0  0  0  0  0  0  0  0  0  0  0  # atno 17395 bound_to 11000

$$$$
