AV-unprocessed.smi:3231|AV-procd|sdf|12333|dock3
  -GOLD-   2272018183D 1   1.00000     0.00000
 Structure written by MMmdl.
 41 42  0  0  0  0  0  0  0  0  2 V2000
  146.6784  139.4171  151.0476 O   0  0  0  0  0  0  0  0  0  0  0  0
  146.8228  138.7160  152.2667 C   0  0  2  0  0  0  0  0  0  0  0  0
  145.6000  137.7948  152.4101 C   0  0  0  0  0  0  0  0  0  0  0  0
  145.4041  136.9854  151.2122 N   0  0  0  0  0  0  0  0  0  0  0  0
  144.8775  135.6519  151.4881 C   0  0  0  0  0  0  0  0  0  0  0  0
  146.0072  134.6341  151.7123 C   0  0  0  0  0  0  0  0  0  0  0  0
  145.6437  133.3024  151.2607 N   0  0  0  0  0  0  0  0  0  0  0  0
  144.7364  132.4272  151.8194 C   0  0  0  0  0  0  0  0  0  0  0  0
  144.7240  131.3041  151.0431 C   0  0  0  0  0  0  0  0  0  0  0  0
  145.6711  131.5895  150.0204 C   0  0  0  0  0  0  0  0  0  0  0  0
  146.2180  132.7873  150.1515 N   0  0  0  0  0  0  0  0  0  0  0  0
  146.9231  139.7430  153.4163 C   0  0  0  0  0  0  0  0  0  0  0  0
  148.3251  140.0672  153.7837 N   0  3  0  0  0  0  0  0  0  0  0  0
  148.4069  141.1272  154.8167 C   0  0  0  0  0  0  0  0  0  0  0  0
  149.8745  141.4677  155.1262 C   0  0  0  0  0  0  0  0  0  0  0  0
  150.5607  140.2928  155.5388 O   0  0  0  0  0  0  0  0  0  0  0  0
  150.5666  139.2966  154.5240 C   0  0  0  0  0  0  0  0  0  0  0  0
  149.1218  138.8842  154.1954 C   0  0  0  0  0  0  0  0  0  0  0  0
  147.5078  139.8059  150.8173 H   0  0  0  0  0  0  0  0  0  0  0  0
  147.7201  138.1010  152.2000 H   0  0  0  0  0  0  0  0  0  0  0  0
  145.7098  137.1553  153.2871 H   0  0  0  0  0  0  0  0  0  0  0  0
  144.7108  138.4040  152.5798 H   0  0  0  0  0  0  0  0  0  0  0  0
  144.7825  137.4661  150.5690 H   0  0  0  0  0  0  0  0  0  0  0  0
  144.2399  135.6843  152.3721 H   0  0  0  0  0  0  0  0  0  0  0  0
  144.2472  135.3175  150.6630 H   0  0  0  0  0  0  0  0  0  0  0  0
  146.9202  134.9527  151.2064 H   0  0  0  0  0  0  0  0  0  0  0  0
  146.2449  134.5761  152.7750 H   0  0  0  0  0  0  0  0  0  0  0  0
  144.1793  132.6753  152.7109 H   0  0  0  0  0  0  0  0  0  0  0  0
  144.1290  130.4142  151.1840 H   0  0  0  0  0  0  0  0  0  0  0  0
  145.9740  130.9669  149.1915 H   0  0  0  0  0  0  0  0  0  0  0  0
  146.4013  140.6526  153.1145 H   0  0  0  0  0  0  0  0  0  0  0  0
  146.4043  139.3812  154.3054 H   0  0  0  0  0  0  0  0  0  0  0  0
  147.8898  142.0230  154.4702 H   0  0  0  0  0  0  0  0  0  0  0  0
  147.9006  140.7943  155.7240 H   0  0  0  0  0  0  0  0  0  0  0  0
  150.3660  141.9043  154.2552 H   0  0  0  0  0  0  0  0  0  0  0  0
  149.9280  142.2066  155.9257 H   0  0  0  0  0  0  0  0  0  0  0  0
  151.0787  139.6681  153.6348 H   0  0  0  0  0  0  0  0  0  0  0  0
  151.1315  138.4348  154.8794 H   0  0  0  0  0  0  0  0  0  0  0  0
  148.6621  138.4190  155.0687 H   0  0  0  0  0  0  0  0  0  0  0  0
  149.1343  138.1348  153.4053 H   0  0  0  0  0  0  0  0  0  0  0  0
  148.7601  140.4474  152.9554 H   0  0  0  0  0  0  0  0  0  0  0  0
  1  2  1  0  0  0  0
  1 19  1  0  0  0  0
  2  3  1  0  0  0  0
  2 12  1  0  0  0  0
  2 20  1  0  0  0  0
  3  4  1  0  0  0  0
  3 21  1  0  0  0  0
  3 22  1  0  0  0  0
  4  5  1  0  0  0  0
  4 23  1  0  0  0  0
  5  6  1  0  0  0  0
  5 24  1  0  0  0  0
  5 25  1  0  0  0  0
  6  7  1  0  0  0  0
  6 26  1  0  0  0  0
  6 27  1  0  0  0  0
  7 11  1  0  0  0  0
  7  8  1  0  0  0  0
  8  9  2  0  0  0  0
  8 28  1  0  0  0  0
  9 10  1  0  0  0  0
  9 29  1  0  0  0  0
 10 11  2  0  0  0  0
 10 30  1  0  0  0  0
 12 13  1  0  0  0  0
 12 31  1  0  0  0  0
 12 32  1  0  0  0  0
 13 18  1  0  0  0  0
 13 14  1  0  0  0  0
 13 41  1  0  0  0  0
 14 15  1  0  0  0  0
 14 33  1  0  0  0  0
 14 34  1  0  0  0  0
 15 16  1  0  0  0  0
 15 35  1  0  0  0  0
 15 36  1  0  0  0  0
 16 17  1  0  0  0  0
 17 18  1  0  0  0  0
 17 37  1  0  0  0  0
 17 38  1  0  0  0  0
 18 39  1  0  0  0  0
 18 40  1  0  0  0  0
M  CHG  1  13   1
M  END
> <s_m_source_file>
AV-unprocessed.smi

> <i_m_source_file_index>
3231

> <i_lp_mmshare_version>
43012

> <i_f3d_flags>
0

> <s_epik_input>
W0NIMl0xW0NIMl1PW0NIMl1bQ0gyXU4xW0NIMl1bQ0BIXShbT0hdKVtDSDJdW05IXVtDSDJdW0NIMl1uMltjSF1bY0hdW2NIXW4y

> <s_epik_cmdline>
J2VwaWtfcHl0aG9uJywgJy1waCcsICc3LjAnLCAnLXRuJywgJzgnLCAnLW1hJywgJzIwMCcsICctbWV0YWxfYmluZGluZycsICctaW1hZScsICc8aW5maWxlLm1hZT4nLCAnLW9tYWUnLCAnPG91dGZpbGUubWFlPic=

> <r_epik_Ionization_Penalty>
0.33973

> <r_epik_Ionization_Penalty_Charging>
0.202493

> <r_epik_Ionization_Penalty_Neutral>
0.137237

> <r_epik_State_Penalty>
0.943915

> <r_epik_Charging_Adjusted_Penalty>
1.14641

> <i_epik_Tot_Q>
1

> <i_epik_Tot_abs_Q>
1

> <r_epik_Metal_State_Penalty>
0.94313

> <b_epik_Metal_Only>
0

> <s_lp_Force_Field>
OPLS_2005

> <r_lp_Energy>
21.8008

> <b_lp_Chiralities_Consistent>
1

> <s_lp_Variant>
AV-unprocessed.smi:3231-3

> <Gold.Version>
5.8.1

> <Gold.Id.Protein>
6NUR|6NUR_protein|mol2

> <Gold.PLP.Fitness>
44.6352

> <Gold.PLP.PLP>
-35.7288

> <Gold.PLP.part.hbond>
-4.0962

> <Gold.PLP.part.metal>
0.0000

> <Gold.PLP.part.buried>
-4.4079

> <Gold.PLP.part.nonpolar>
-28.7218

> <Gold.PLP.part.repulsive>
0.3218

> <Gold.PLP.ligand.clash>
0.0000

> <Gold.PLP.ligand.torsion>
1.2435

> <Gold.PLP.Chemscore.Hbond>
2.9760

> <Gold.PLP.Chemscore.CHOScore>
0.7804

> <Gold.PLP.Chemscore.Metal>
0.0000

> <Gold.Chemscore.Hbonds>
donor molecule, donor type, donor heavy atom, donor atom, acceptor molecule, acceptor atom, score
      L1  H     1    19       P1  7957  0.88
      L1  H     4    23       P1 10171  1.00
      L1  H    13    41       P1  7957  0.93
      L1  C     8    28       P1 10957  0.44

> <Gold.PLP.Chemscore.Internal.Correction>
0.1243

> <Gold.Rescore>
     Score         DG    S(hbond)    S(metal)    S(lipo)     H(rot)  DE(clash)    DE(int)     intcor
     15.91     -17.46       2.68        0.00      88.14       2.84       0.44       1.11       ----

> <Gold.Chemscore.Fitness>
15.9106

> <Gold.Chemscore.DG>
-17.4627

> <Gold.Chemscore.ZeroCoef>
-5.4800

> <Gold.Chemscore.Hbond>
2.6766

> <Gold.Chemscore.Metal>
0.0000

> <Gold.Chemscore.Lipo>
88.1403

> <Gold.Chemscore.Internal_Hbond>
0.0000

> <Gold.Chemscore.DEClash>
0.4407

> <Gold.Chemscore.DEInternal>
1.1113

> <Gold.Chemscore.Rot>
2.8397

> <Gold.Chemscore.Internal.Correction>
   9.000000E+99

> <Gold.Chemscore.Hbonds>
donor molecule, donor type, donor heavy atom, donor atom, acceptor molecule, acceptor atom, score
      L1  H     1    19       P1  7957  0.61
      L1  H     4    23       P1 10171  0.99
      L1  H    13    41       P1  7957  0.85

> <Gold.Chemscore.Hbond.Weighted>
-8.9398

> <Gold.Chemscore.Metal.Weighted>
-0.0000

> <Gold.Chemscore.Lipo.Weighted>
-10.3124

> <Gold.Chemscore.Internal_Hbond.Weighted>
0.0000

> <Gold.Chemscore.DEClash.Weighted>
0.4407

> <Gold.Chemscore.DEInternal.Weighted>
1.1113

> <Gold.Chemscore.Rot.Weighted>
7.2696

> <Gold.Chemscore.Internal.Correction.Weighted>
   9.000000E+99

> <Gold.Protein.RotatedTorsions>
[ 6907 6896 6895 6894 ] final   13.25 input  -60.11 | X-H torsion
[ 7974 7965 7964 7962 ] final  -86.30 input  175.53 | X-H torsion
[ 8008 7997 7996 7995 ] final    7.61 input   59.86 | X-H torsion
[ 10167 10162 10161 10158 ] final  -60.53 input  -65.29 | X-H torsion
[ 10718 10713 10712 10709 ] final  157.29 input   66.30 | X-H torsion
[ 10763 10752 10751 10750 ] final  175.53 input  -60.55 | X-H torsion
[ 11005 11000 10999 10996 ] final  111.50 input  -57.11 | X-H torsion

> <Gold.Protein.ActiveResidues>
 VAL166  LYS551  ARG553  GLY616  TRP617  ASP618  TYR619  PRO620  LYS621  CYS622 
 ASP623  PHE694  ASN695  SER759  ASP760  ASP761  ALA762  ILE779  LEU786  VAL792 
 PHE793  MET794  SER795  GLU796  ALA797  LYS798  CYS799  TRP800  GLU811  SER814 

> <Gold.Protein.RotatedAtoms>
  151.7832  135.0756  160.0376 H   0  0  0  0  0  0  0  0  0  0  0  0  # atno 6907 bound_to 6896
  152.3208  133.5847  159.5752 H   0  0  0  0  0  0  0  0  0  0  0  0  # atno 6908 bound_to 6896
  150.7369  133.9930  159.3655 H   0  0  0  0  0  0  0  0  0  0  0  0  # atno 6909 bound_to 6896
  145.4817  140.9556  143.1861 H   0  0  0  0  0  0  0  0  0  0  0  0  # atno 7974 bound_to 7965
  154.7561  140.2776  155.6252 H   0  0  0  0  0  0  0  0  0  0  0  0  # atno 8008 bound_to 7997
  156.2906  140.2669  156.2254 H   0  0  0  0  0  0  0  0  0  0  0  0  # atno 8009 bound_to 7997
  155.0076  140.0372  157.2376 H   0  0  0  0  0  0  0  0  0  0  0  0  # atno 8010 bound_to 7997
  140.6065  143.2375  151.5808 H   0  0  0  0  0  0  0  0  0  0  0  0  # atno 10167 bound_to 10162
  157.1935  131.0660  151.2066 H   0  0  0  0  0  0  0  0  0  0  0  0  # atno 10718 bound_to 10713
  154.4688  135.2770  155.1658 H   0  0  0  0  0  0  0  0  0  0  0  0  # atno 10763 bound_to 10752
  154.3415  135.6169  153.5602 H   0  0  0  0  0  0  0  0  0  0  0  0  # atno 10764 bound_to 10752
  152.9862  135.5789  154.5065 H   0  0  0  0  0  0  0  0  0  0  0  0  # atno 10765 bound_to 10752
  139.8905  134.9509  156.6442 H   0  0  0  0  0  0  0  0  0  0  0  0  # atno 11005 bound_to 11000
  144.7885  139.6377  143.7123 LP  0  0  0  0  0  0  0  0  0  0  0  0  # atno 17320 bound_to 7965
  146.2337  139.5863  142.9538 LP  0  0  0  0  0  0  0  0  0  0  0  0  # atno 17321 bound_to 7965
  139.5329  144.2864  152.1188 LP  0  0  0  0  0  0  0  0  0  0  0  0  # atno 17342 bound_to 10162
  140.2055  144.4615  150.6411 LP  0  0  0  0  0  0  0  0  0  0  0  0  # atno 17343 bound_to 10162
  157.3837  130.7245  149.6648 LP  0  0  0  0  0  0  0  0  0  0  0  0  # atno 17370 bound_to 10713
  155.9709  130.4165  150.4235 LP  0  0  0  0  0  0  0  0  0  0  0  0  # atno 17371 bound_to 10713
  140.7570  133.8849  155.8389 LP  0  0  0  0  0  0  0  0  0  0  0  0  # atno 17394 bound_to 11000
  140.9954  134.1223  157.4369 LP  0  0  0  0  0  0  0  0  0  0  0  0  # atno 17395 bound_to 11000

$$$$
