AV-unprocessed.smi:54|AV-procd|sdf|544|dock1
  -GOLD-   2262016433D 1   1.00000     0.00000
 Structure written by MMmdl.
 44 46  0  0  0  0  0  0  0  0  1 V2000
  154.6160  135.4728  159.3529 C   0  0  0  0  0  0  0  0  0  0  0  0
  154.4052  136.5642  160.4141 C   0  0  0  0  0  0  0  0  0  0  0  0
  154.1256  135.9524  161.7966 C   0  0  0  0  0  0  0  0  0  0  0  0
  153.2710  137.5076  159.9974 C   0  0  0  0  0  0  0  0  0  0  0  0
  152.1210  137.1066  159.8126 O   0  0  0  0  0  0  0  0  0  0  0  0
  153.6499  138.8986  159.8264 N   0  0  0  0  0  0  0  0  0  0  0  0
  152.8452  139.9254  159.4680 C   0  0  0  0  0  0  0  0  0  0  0  0
  151.9770  139.8477  158.4693 N   0  0  0  0  0  0  0  0  0  0  0  0
  151.2441  140.9838  158.2654 C   0  0  0  0  0  0  0  0  0  0  0  0
  151.3248  142.1564  158.9867 C   0  0  0  0  0  0  0  0  0  0  0  0
  150.4263  143.0905  158.4830 N   0  0  0  0  0  0  0  0  0  0  0  0
  149.8438  142.4699  157.4948 C   0  0  0  0  0  0  0  0  0  0  0  0
  150.2859  141.1826  157.2954 N   0  0  0  0  0  0  0  0  0  0  0  0
  149.8600  140.1762  156.2757 C   0  0  1  0  0  0  0  0  0  0  0  0
  148.5006  139.9084  156.4738 O   0  0  0  0  0  0  0  0  0  0  0  0
  147.7506  140.2913  155.3247 C   0  0  1  0  0  0  0  0  0  0  0  0
  146.3244  140.7298  155.7053 C   0  0  0  0  0  0  0  0  0  0  0  0
  145.6446  141.3444  154.6304 O   0  0  0  0  0  0  0  0  0  0  0  0
  148.6248  141.3097  154.5901 C   0  0  2  0  0  0  0  0  0  0  0  0
  148.3374  141.4025  153.2080 O   0  0  0  0  0  0  0  0  0  0  0  0
  150.0231  140.7745  154.8686 C   0  0  2  0  0  0  0  0  0  0  0  0
  150.4392  139.7839  153.9458 O   0  0  0  0  0  0  0  0  0  0  0  0
  152.2522  142.2521  160.0770 C   0  0  0  0  0  0  0  0  0  0  0  0
  152.4556  143.2071  160.8237 O   0  0  0  0  0  0  0  0  0  0  0  0
  152.9836  141.0700  160.2532 N   0  0  0  0  0  0  0  0  0  0  0  0
  150.4838  139.3038  156.4760 H   0  0  0  0  0  0  0  0  0  0  0  0
  147.6771  139.3900  154.7134 H   0  0  0  0  0  0  0  0  0  0  0  0
  148.5296  142.2973  155.0425 H   0  0  0  0  0  0  0  0  0  0  0  0
  150.7696  141.5702  154.8621 H   0  0  0  0  0  0  0  0  0  0  0  0
  154.8217  135.9067  158.3735 H   0  0  0  0  0  0  0  0  0  0  0  0
  153.7385  134.8319  159.2563 H   0  0  0  0  0  0  0  0  0  0  0  0
  155.4630  134.8367  159.6114 H   0  0  0  0  0  0  0  0  0  0  0  0
  155.3237  137.1484  160.4863 H   0  0  0  0  0  0  0  0  0  0  0  0
  153.9557  136.7258  162.5467 H   0  0  0  0  0  0  0  0  0  0  0  0
  154.9705  135.3511  162.1337 H   0  0  0  0  0  0  0  0  0  0  0  0
  153.2473  135.3056  161.7796 H   0  0  0  0  0  0  0  0  0  0  0  0
  154.6288  139.1099  159.9523 H   0  0  0  0  0  0  0  0  0  0  0  0
  149.0788  142.9363  156.8921 H   0  0  0  0  0  0  0  0  0  0  0  0
  145.7437  139.8578  156.0062 H   0  0  0  0  0  0  0  0  0  0  0  0
  146.3465  141.4071  156.5591 H   0  0  0  0  0  0  0  0  0  0  0  0
  145.1725  140.6789  154.1534 H   0  0  0  0  0  0  0  0  0  0  0  0
  148.9452  140.8487  152.7416 H   0  0  0  0  0  0  0  0  0  0  0  0
  149.9036  139.8557  153.1700 H   0  0  0  0  0  0  0  0  0  0  0  0
  153.6588  141.0659  161.0032 H   0  0  0  0  0  0  0  0  0  0  0  0
  1  2  1  0  0  0  0
  1 30  1  0  0  0  0
  1 31  1  0  0  0  0
  1 32  1  0  0  0  0
  2  3  1  0  0  0  0
  2  4  1  0  0  0  0
  2 33  1  0  0  0  0
  3 34  1  0  0  0  0
  3 35  1  0  0  0  0
  3 36  1  0  0  0  0
  4  5  2  0  0  0  0
  4  6  1  0  0  0  0
  6 37  1  0  0  0  0
  6  7  1  0  0  0  0
  7 25  1  0  0  0  0
  7  8  2  0  0  0  0
  8  9  1  0  0  0  0
  9 13  1  0  0  0  0
  9 10  2  0  0  0  0
 10 11  1  0  0  0  0
 10 23  1  0  0  0  0
 11 12  2  0  0  0  0
 12 13  1  0  0  0  0
 12 38  1  0  0  0  0
 13 14  1  0  0  0  0
 14 26  1  0  0  0  0
 14 21  1  0  0  0  0
 14 15  1  0  0  0  0
 15 16  1  0  0  0  0
 16 27  1  0  0  0  0
 16 17  1  0  0  0  0
 16 19  1  0  0  0  0
 17 18  1  0  0  0  0
 17 39  1  0  0  0  0
 17 40  1  0  0  0  0
 18 41  1  0  0  0  0
 19 28  1  0  0  0  0
 19 20  1  0  0  0  0
 19 21  1  0  0  0  0
 20 42  1  0  0  0  0
 21 29  1  0  0  0  0
 21 22  1  0  0  0  0
 22 43  1  0  0  0  0
 23 24  2  0  0  0  0
 23 25  1  0  0  0  0
 25 44  1  0  0  0  0
M  END
> <s_m_source_file>
AV-unprocessed.smi

> <i_m_source_file_index>
54

> <i_lp_mmshare_version>
43012

> <i_f3d_flags>
0

> <s_epik_input>
W0NIM11bQ0hdKFtDSDNdKUMoPU8pW05IXWMobjEpW25IXWMoPU8pYyhjMTIpbltjSF1uMltDQEBIXTNPW0NASF0oW0NIMl1bT0hdKVtDQEBIXShbT0hdKVtDQEhdM1tPSF0=

> <s_epik_cmdline>
J2VwaWtfcHl0aG9uJywgJy1waCcsICc3LjAnLCAnLXRuJywgJzgnLCAnLW1hJywgJzIwMCcsICctbWV0YWxfYmluZGluZycsICctaW1hZScsICc8aW5maWxlLm1hZT4nLCAnLW9tYWUnLCAnPG91dGZpbGUubWFlPic=

> <r_lp_tautomer_probability>
0.85571

> <r_epik_Ionization_Penalty>
0.0316551

> <r_epik_Ionization_Penalty_Charging>
0.0316043

> <r_epik_Ionization_Penalty_Neutral>
5.07097e-05

> <r_epik_State_Penalty>
3.15494e-07

> <r_epik_Charging_Adjusted_Penalty>
0.0316047

> <i_epik_Tot_Q>
0

> <i_epik_Tot_abs_Q>
0

> <r_epik_Metal_State_Penalty>
0.421206

> <b_epik_Metal_Only>
0

> <s_epik_Chemistry_Notes>
This compound contains an acetal/aminal-like group ( X-CH(R)-Y where X, Y are N, S, or O) that may be acid/base labile, releasing an aldehyde.

> <s_lp_Force_Field>
OPLS_2005

> <r_lp_Energy>
44.5551

> <b_lp_Chiralities_Consistent>
1

> <s_lp_Variant>
AV-unprocessed.smi:54-16

> <Gold.Version>
5.8.1

> <Gold.Id.Protein>
6NUR|6NUR_protein|mol2

> <Gold.PLP.Fitness>
42.4274

> <Gold.PLP.PLP>
-29.6231

> <Gold.PLP.part.hbond>
-5.8362

> <Gold.PLP.part.metal>
0.0000

> <Gold.PLP.part.buried>
-1.4476

> <Gold.PLP.part.nonpolar>
-21.7259

> <Gold.PLP.part.repulsive>
0.3486

> <Gold.PLP.ligand.clash>
0.0000

> <Gold.PLP.ligand.torsion>
0.4934

> <Gold.PLP.Chemscore.Hbond>
3.5711

> <Gold.PLP.Chemscore.CHOScore>
1.0000

> <Gold.PLP.Chemscore.Metal>
0.0000

> <Gold.Chemscore.Hbonds>
donor molecule, donor type, donor heavy atom, donor atom, acceptor molecule, acceptor atom, score
      L1  H    18    41       P1 10175  0.37
      L1  H    20    42       P1  7957  1.00
      L1  H    22    43       P1  7957  0.99
      P1  H  6896  6909       L1     5  1.00
      P1  H  7989  7998       L1    22  0.30
      L1  C    12    38       P1  8028  1.00

> <Gold.PLP.Chemscore.Internal.Correction>
0.0778

> <Gold.Rescore>
     Score         DG    S(hbond)    S(metal)    S(lipo)     H(rot)  DE(clash)    DE(int)     intcor
      9.69     -11.84       3.57        0.00      41.10       4.05       1.52       0.63       ----

> <Gold.Chemscore.Fitness>
9.6927

> <Gold.Chemscore.DG>
-11.8406

> <Gold.Chemscore.ZeroCoef>
-5.4800

> <Gold.Chemscore.Hbond>
3.5682

> <Gold.Chemscore.Metal>
0.0000

> <Gold.Chemscore.Lipo>
41.1036

> <Gold.Chemscore.Internal_Hbond>
0.0000

> <Gold.Chemscore.DEClash>
1.5161

> <Gold.Chemscore.DEInternal>
0.6319

> <Gold.Chemscore.Rot>
4.0493

> <Gold.Chemscore.Internal.Correction>
   9.000000E+99

> <Gold.Chemscore.Hbonds>
donor molecule, donor type, donor heavy atom, donor atom, acceptor molecule, acceptor atom, score
      L1  H    18    41       P1 10175  0.36
      L1  H    20    42       P1  7957  0.96
      L1  H    22    43       P1  7957  0.90
      P1  H  6896  6909       L1     5  0.92

> <Gold.Chemscore.Hbond.Weighted>
-11.9177

> <Gold.Chemscore.Metal.Weighted>
-0.0000

> <Gold.Chemscore.Lipo.Weighted>
-4.8091

> <Gold.Chemscore.Internal_Hbond.Weighted>
0.0000

> <Gold.Chemscore.DEClash.Weighted>
1.5161

> <Gold.Chemscore.DEInternal.Weighted>
0.6319

> <Gold.Chemscore.Rot.Weighted>
10.3662

> <Gold.Chemscore.Internal.Correction.Weighted>
   9.000000E+99

> <Gold.Protein.RotatedTorsions>
[ 6907 6896 6895 6894 ] final  130.83 input  -60.11 | X-H torsion
[ 7974 7965 7964 7962 ] final  159.87 input  175.53 | X-H torsion
[ 8008 7997 7996 7995 ] final   72.00 input   59.86 | X-H torsion
[ 10167 10162 10161 10158 ] final -178.15 input  -65.29 | X-H torsion
[ 10718 10713 10712 10709 ] final   72.02 input   66.30 | X-H torsion
[ 10763 10752 10751 10750 ] final  176.07 input  -60.55 | X-H torsion
[ 11005 11000 10999 10996 ] final   -3.41 input  -57.11 | X-H torsion

> <Gold.Protein.ActiveResidues>
 VAL166  LYS551  ARG553  GLY616  TRP617  ASP618  TYR619  PRO620  LYS621  CYS622 
 ASP623  PHE694  ASN695  SER759  ASP760  ASP761  ALA762  ILE779  LEU786  VAL792 
 PHE793  MET794  SER795  GLU796  ALA797  LYS798  CYS799  TRP800  GLU811  SER814 

> <Gold.Protein.RotatedAtoms>
  152.3488  133.6154  159.5929 H   0  0  0  0  0  0  0  0  0  0  0  0  # atno 6907 bound_to 6896
  150.7524  133.9608  159.3523 H   0  0  0  0  0  0  0  0  0  0  0  0  # atno 6908 bound_to 6896
  151.7462  135.0844  160.0374 H   0  0  0  0  0  0  0  0  0  0  0  0  # atno 6909 bound_to 6896
  144.7767  139.7677  143.6276 H   0  0  0  0  0  0  0  0  0  0  0  0  # atno 7974 bound_to 7965
  155.7623  140.3486  155.5204 H   0  0  0  0  0  0  0  0  0  0  0  0  # atno 8008 bound_to 7997
  155.8901  140.1016  157.1445 H   0  0  0  0  0  0  0  0  0  0  0  0  # atno 8009 bound_to 7997
  154.4033  140.1306  156.4292 H   0  0  0  0  0  0  0  0  0  0  0  0  # atno 8010 bound_to 7997
  139.5446  144.2270  152.0963 H   0  0  0  0  0  0  0  0  0  0  0  0  # atno 10167 bound_to 10162
  157.6480  130.9557  150.0870 H   0  0  0  0  0  0  0  0  0  0  0  0  # atno 10718 bound_to 10713
  154.4761  135.2773  155.1606 H   0  0  0  0  0  0  0  0  0  0  0  0  # atno 10763 bound_to 10752
  154.3335  135.6185  153.5566 H   0  0  0  0  0  0  0  0  0  0  0  0  # atno 10764 bound_to 10752
  152.9869  135.5771  154.5152 H   0  0  0  0  0  0  0  0  0  0  0  0  # atno 10765 bound_to 10752
  140.6690  133.9253  155.8483 H   0  0  0  0  0  0  0  0  0  0  0  0  # atno 11005 bound_to 11000
  146.1951  139.5212  142.9780 LP  0  0  0  0  0  0  0  0  0  0  0  0  # atno 17320 bound_to 7965
  145.6166  141.0330  143.1938 LP  0  0  0  0  0  0  0  0  0  0  0  0  # atno 17321 bound_to 7965
  140.1754  144.4895  150.6556 LP  0  0  0  0  0  0  0  0  0  0  0  0  # atno 17342 bound_to 10162
  140.6689  143.2278  151.5673 LP  0  0  0  0  0  0  0  0  0  0  0  0  # atno 17343 bound_to 10162
  156.1830  130.3651  149.9010 LP  0  0  0  0  0  0  0  0  0  0  0  0  # atno 17370 bound_to 10713
  156.6958  130.8913  151.3593 LP  0  0  0  0  0  0  0  0  0  0  0  0  # atno 17371 bound_to 10713
  141.0406  134.0626  157.3906 LP  0  0  0  0  0  0  0  0  0  0  0  0  # atno 17394 bound_to 11000
  139.8988  135.0156  156.7164 LP  0  0  0  0  0  0  0  0  0  0  0  0  # atno 17395 bound_to 11000

$$$$
