AV-unprocessed.smi:1584|AV-procd|sdf|6365|dock9
  -GOLD-   22720 6593D 1   1.00000     0.00000
 Structure written by MMmdl.
 39 40  0  0  0  0  0  0  0  0  1 V2000
  151.8381  136.8680  156.7028 C   0  0  0  0  0  0  0  0  0  0  0  0
  150.7050  137.8011  156.2491 C   0  0  2  0  0  0  0  0  0  0  0  0
  150.8567  138.1967  154.7675 C   0  0  0  0  0  0  0  0  0  0  0  0
  149.9521  139.2667  154.3855 N   0  0  0  0  0  0  0  0  0  0  0  0
  148.7607  139.1775  153.6962 C   0  0  0  0  0  0  0  0  0  0  0  0
  148.2719  140.4457  153.5645 C   0  0  0  0  0  0  0  0  0  0  0  0
  149.2464  141.2528  154.2155 C   0  0  0  0  0  0  0  0  0  0  0  0
  150.2501  140.5441  154.7070 N   0  0  0  0  0  0  0  0  0  0  0  0
  150.6839  138.9998  157.0849 N   0  0  0  0  0  0  0  0  0  0  0  0
  151.6033  139.9770  157.0722 C   0  0  0  0  0  0  0  0  0  0  0  0
  152.5733  139.9838  156.3135 O   0  0  0  0  0  0  0  0  0  0  0  0
  151.3916  141.1219  158.0718 C   0  0  2  0  0  0  0  0  0  0  0  0
  151.3125  142.4701  157.3457 C   0  0  0  0  0  0  0  0  0  0  0  0
  151.0282  143.5909  158.3538 C   0  0  0  0  0  0  0  0  0  0  0  0
  151.8905  143.5448  159.5434 N   0  0  0  0  0  0  0  0  0  0  0  0
  151.9374  144.7855  160.3192 C   0  0  0  0  0  0  0  0  0  0  0  0
  152.5563  142.4431  159.9676 C   0  0  0  0  0  0  0  0  0  0  0  0
  153.2193  142.4312  161.0052 O   0  0  0  0  0  0  0  0  0  0  0  0
  152.5243  141.1618  159.1173 C   0  0  0  0  0  0  0  0  0  0  0  0
  151.8605  135.9590  156.1011 H   0  0  0  0  0  0  0  0  0  0  0  0
  151.7098  136.5680  157.7435 H   0  0  0  0  0  0  0  0  0  0  0  0
  152.8113  137.3513  156.6121 H   0  0  0  0  0  0  0  0  0  0  0  0
  149.7611  137.2637  156.3606 H   0  0  0  0  0  0  0  0  0  0  0  0
  151.8798  138.5109  154.5558 H   0  0  0  0  0  0  0  0  0  0  0  0
  150.6565  137.3376  154.1255 H   0  0  0  0  0  0  0  0  0  0  0  0
  148.3670  138.2304  153.3576 H   0  0  0  0  0  0  0  0  0  0  0  0
  147.3580  140.7508  153.0769 H   0  0  0  0  0  0  0  0  0  0  0  0
  149.2541  142.3249  154.3453 H   0  0  0  0  0  0  0  0  0  0  0  0
  149.9193  139.0821  157.7391 H   0  0  0  0  0  0  0  0  0  0  0  0
  150.4464  140.9566  158.5928 H   0  0  0  0  0  0  0  0  0  0  0  0
  152.2520  142.6764  156.8297 H   0  0  0  0  0  0  0  0  0  0  0  0
  150.5341  142.4551  156.5815 H   0  0  0  0  0  0  0  0  0  0  0  0
  151.1326  144.5540  157.8520 H   0  0  0  0  0  0  0  0  0  0  0  0
  149.9922  143.5243  158.6888 H   0  0  0  0  0  0  0  0  0  0  0  0
  151.6876  144.6036  161.3658 H   0  0  0  0  0  0  0  0  0  0  0  0
  151.2332  145.5303  159.9462 H   0  0  0  0  0  0  0  0  0  0  0  0
  152.9364  145.2217  160.2764 H   0  0  0  0  0  0  0  0  0  0  0  0
  152.4411  140.3010  159.7823 H   0  0  0  0  0  0  0  0  0  0  0  0
  153.4970  141.0807  158.6298 H   0  0  0  0  0  0  0  0  0  0  0  0
  1  2  1  0  0  0  0
  1 20  1  0  0  0  0
  1 21  1  0  0  0  0
  1 22  1  0  0  0  0
  2  3  1  0  0  0  0
  2  9  1  0  0  0  0
  2 23  1  0  0  0  0
  3  4  1  0  0  0  0
  3 24  1  0  0  0  0
  3 25  1  0  0  0  0
  4  8  1  0  0  0  0
  4  5  1  0  0  0  0
  5  6  2  0  0  0  0
  5 26  1  0  0  0  0
  6  7  1  0  0  0  0
  6 27  1  0  0  0  0
  7  8  2  0  0  0  0
  7 28  1  0  0  0  0
  9 10  1  0  0  0  0
  9 29  1  0  0  0  0
 10 11  2  0  0  0  0
 10 12  1  0  0  0  0
 12 19  1  0  0  0  0
 12 13  1  0  0  0  0
 12 30  1  0  0  0  0
 13 14  1  0  0  0  0
 13 31  1  0  0  0  0
 13 32  1  0  0  0  0
 14 15  1  0  0  0  0
 14 33  1  0  0  0  0
 14 34  1  0  0  0  0
 15 16  1  0  0  0  0
 15 17  1  0  0  0  0
 16 35  1  0  0  0  0
 16 36  1  0  0  0  0
 16 37  1  0  0  0  0
 17 18  2  0  0  0  0
 17 19  1  0  0  0  0
 19 38  1  0  0  0  0
 19 39  1  0  0  0  0
M  END
> <s_m_source_file>
AV-unprocessed.smi

> <i_m_source_file_index>
1584

> <i_lp_mmshare_version>
43012

> <i_f3d_flags>
0

> <s_epik_input>
bjFbY0hdW2NIXVtjSF1uMVtDSDJdW0NAQEhdKFtDSDNdKVtOSF1DKD1PKVtDQEBIXTJbQ0gyXVtDSDJdTihbQ0gzXSlDKD1PKVtDSDJdMg==

> <s_epik_cmdline>
J2VwaWtfcHl0aG9uJywgJy1waCcsICc3LjAnLCAnLXRuJywgJzgnLCAnLW1hJywgJzIwMCcsICctbWV0YWxfYmluZGluZycsICctaW1hZScsICc8aW5maWxlLm1hZT4nLCAnLW9tYWUnLCAnPG91dGZpbGUubWFlPic=

> <r_lp_tautomer_probability>
1

> <r_epik_Ionization_Penalty>
0.000299422

> <r_epik_Ionization_Penalty_Charging>
0

> <r_epik_Ionization_Penalty_Neutral>
0.000299422

> <r_epik_State_Penalty>
-0

> <r_epik_Charging_Adjusted_Penalty>
0

> <i_epik_Tot_Q>
0

> <i_epik_Tot_abs_Q>
0

> <r_epik_Metal_State_Penalty>
-0

> <b_epik_Metal_Only>
0

> <s_lp_Force_Field>
OPLS_2005

> <r_lp_Energy>
13.4891

> <b_lp_Chiralities_Consistent>
1

> <s_lp_Variant>
AV-unprocessed.smi:1584-1

> <Gold.Version>
5.8.1

> <Gold.Id.Protein>
6NUR|6NUR_protein|mol2

> <Gold.PLP.Fitness>
45.5209

> <Gold.PLP.PLP>
-36.6256

> <Gold.PLP.part.hbond>
-2.0000

> <Gold.PLP.part.metal>
0.0000

> <Gold.PLP.part.buried>
-1.1518

> <Gold.PLP.part.nonpolar>
-33.0191

> <Gold.PLP.part.repulsive>
0.1062

> <Gold.PLP.ligand.clash>
0.0000

> <Gold.PLP.ligand.torsion>
0.4373

> <Gold.PLP.Chemscore.Hbond>
1.9120

> <Gold.PLP.Chemscore.CHOScore>
1.3379

> <Gold.PLP.Chemscore.Metal>
0.0000

> <Gold.Chemscore.Hbonds>
donor molecule, donor type, donor heavy atom, donor atom, acceptor molecule, acceptor atom, score
      P1  H  7989  7998       L1     8  0.93
      P1  H  7997  8009       L1    11  1.00
      L1  C     5    26       P1  7948  0.96
      L1  C     7    28       P1  8028  0.48

> <Gold.PLP.Chemscore.Internal.Correction>
0.0202

> <Gold.Rescore>
     Score         DG    S(hbond)    S(metal)    S(lipo)     H(rot)  DE(clash)    DE(int)     intcor
     14.47     -16.36       1.72        0.00      80.63       1.67       0.19       1.70       ----

> <Gold.Chemscore.Fitness>
14.4712

> <Gold.Chemscore.DG>
-16.3640

> <Gold.Chemscore.ZeroCoef>
-5.4800

> <Gold.Chemscore.Hbond>
1.7168

> <Gold.Chemscore.Metal>
0.0000

> <Gold.Chemscore.Lipo>
80.6312

> <Gold.Chemscore.Internal_Hbond>
0.0000

> <Gold.Chemscore.DEClash>
0.1900

> <Gold.Chemscore.DEInternal>
1.7028

> <Gold.Chemscore.Rot>
1.6734

> <Gold.Chemscore.Internal.Correction>
   9.000000E+99

> <Gold.Chemscore.Hbonds>
donor molecule, donor type, donor heavy atom, donor atom, acceptor molecule, acceptor atom, score
      P1  H  7989  7998       L1     8  0.09
      P1  H  7997  8009       L1    11  0.99

> <Gold.Chemscore.Hbond.Weighted>
-5.7342

> <Gold.Chemscore.Metal.Weighted>
-0.0000

> <Gold.Chemscore.Lipo.Weighted>
-9.4339

> <Gold.Chemscore.Internal_Hbond.Weighted>
0.0000

> <Gold.Chemscore.DEClash.Weighted>
0.1900

> <Gold.Chemscore.DEInternal.Weighted>
1.7028

> <Gold.Chemscore.Rot.Weighted>
4.2840

> <Gold.Chemscore.Internal.Correction.Weighted>
   9.000000E+99

> <Gold.Protein.RotatedTorsions>
[ 6907 6896 6895 6894 ] final  -35.54 input  -60.11 | X-H torsion
[ 7974 7965 7964 7962 ] final   58.18 input  175.53 | X-H torsion
[ 8008 7997 7996 7995 ] final -172.20 input   59.86 | X-H torsion
[ 10167 10162 10161 10158 ] final  -12.06 input  -65.29 | X-H torsion
[ 10718 10713 10712 10709 ] final  -56.32 input   66.30 | X-H torsion
[ 10763 10752 10751 10750 ] final -160.49 input  -60.55 | X-H torsion
[ 11005 11000 10999 10996 ] final   54.75 input  -57.11 | X-H torsion

> <Gold.Protein.ActiveResidues>
 VAL166  LYS551  ARG553  GLY616  TRP617  ASP618  TYR619  PRO620  LYS621  CYS622 
 ASP623  PHE694  ASN695  SER759  ASP760  ASP761  ALA762  ILE779  LEU786  VAL792 
 PHE793  MET794  SER795  GLU796  ALA797  LYS798  CYS799  TRP800  GLU811  SER814 

> <Gold.Protein.RotatedAtoms>
  151.0385  134.9590  159.8148 H   0  0  0  0  0  0  0  0  0  0  0  0  # atno 6907 bound_to 6896
  152.5359  134.2689  159.8974 H   0  0  0  0  0  0  0  0  0  0  0  0  # atno 6908 bound_to 6896
  151.2700  133.4217  159.2654 H   0  0  0  0  0  0  0  0  0  0  0  0  # atno 6909 bound_to 6896
  145.9210  139.3729  143.0478 H   0  0  0  0  0  0  0  0  0  0  0  0  # atno 7974 bound_to 7965
  155.9415  140.1109  157.1051 H   0  0  0  0  0  0  0  0  0  0  0  0  # atno 8008 bound_to 7997
  154.4090  140.1218  156.5000 H   0  0  0  0  0  0  0  0  0  0  0  0  # atno 8009 bound_to 7997
  155.6955  140.3472  155.4913 H   0  0  0  0  0  0  0  0  0  0  0  0  # atno 8010 bound_to 7997
  140.7153  143.5573  150.9235 H   0  0  0  0  0  0  0  0  0  0  0  0  # atno 10167 bound_to 10162
  156.1298  130.4160  150.0289 H   0  0  0  0  0  0  0  0  0  0  0  0  # atno 10718 bound_to 10713
  154.7386  135.3063  154.8768 H   0  0  0  0  0  0  0  0  0  0  0  0  # atno 10763 bound_to 10752
  153.9589  135.6755  153.4749 H   0  0  0  0  0  0  0  0  0  0  0  0  # atno 10764 bound_to 10752
  153.0986  135.4923  154.8750 H   0  0  0  0  0  0  0  0  0  0  0  0  # atno 10765 bound_to 10752
  140.0661  134.5534  155.9097 H   0  0  0  0  0  0  0  0  0  0  0  0  # atno 11005 bound_to 11000
  145.8550  140.9507  143.0730 LP  0  0  0  0  0  0  0  0  0  0  0  0  # atno 17320 bound_to 7965
  144.6753  140.0456  143.7480 LP  0  0  0  0  0  0  0  0  0  0  0  0  # atno 17321 bound_to 7965
  139.9298  143.6507  152.3079 LP  0  0  0  0  0  0  0  0  0  0  0  0  # atno 17342 bound_to 10162
  139.6954  144.7642  151.1366 LP  0  0  0  0  0  0  0  0  0  0  0  0  # atno 17343 bound_to 10162
  156.8204  130.9356  151.3641 LP  0  0  0  0  0  0  0  0  0  0  0  0  # atno 17370 bound_to 10713
  157.6477  130.8858  149.9571 LP  0  0  0  0  0  0  0  0  0  0  0  0  # atno 17371 bound_to 10713
  141.1993  133.6606  156.5839 LP  0  0  0  0  0  0  0  0  0  0  0  0  # atno 17394 bound_to 11000
  140.3696  134.7617  157.4589 LP  0  0  0  0  0  0  0  0  0  0  0  0  # atno 17395 bound_to 11000

$$$$
