AV-unprocessed.smi:2718|AV-procd|sdf|10490|dock7
  -GOLD-   2272014533D 1   1.00000     0.00000
 Structure written by MMmdl.
 47 48  0  0  0  0  0  0  0  0  1 V2000
  142.3220  133.3227  160.3382 C   0  0  0  0  0  0  0  0  0  0  0  0
  143.3610  134.2464  160.9419 C   0  0  0  0  0  0  0  0  0  0  0  0
  142.8819  135.0431  162.1428 C   0  0  0  0  0  0  0  0  0  0  0  0
  144.6063  134.3362  160.4374 C   0  0  0  0  0  0  0  0  0  0  0  0
  145.7069  135.1974  160.9441 C   0  0  2  0  0  0  0  0  0  0  0  0
  147.1326  134.9931  160.4665 C   0  0  1  0  0  0  0  0  0  0  0  0
  147.9760  136.2004  160.1963 C   0  0  0  0  0  0  0  0  0  0  0  0
  147.6409  137.3482  160.4917 O   0  0  0  0  0  0  0  0  0  0  0  0
  149.1299  135.9201  159.5730 N   0  0  0  0  0  0  0  0  0  0  0  0
  150.1166  136.9074  159.1441 C   0  0  0  0  0  0  0  0  0  0  0  0
  150.4679  136.7922  157.6438 C   0  0  1  0  0  0  0  0  0  0  0  0
  149.2397  137.0254  156.7518 C   0  0  0  0  0  0  0  0  0  0  0  0
  151.6180  137.6805  157.2487 C   0  0  0  0  0  0  0  0  0  0  0  0
  152.2412  138.5040  158.1027 N   0  0  0  0  0  0  0  0  0  0  0  0
  153.2357  139.1206  157.3711 N   0  0  0  0  0  0  0  0  0  0  0  0
  153.1171  138.6080  156.1473 C   0  0  0  0  0  0  0  0  0  0  0  0
  152.1344  137.7069  156.0009 N   0  0  0  0  0  0  0  0  0  0  0  0
  151.7581  136.9748  154.8075 C   0  0  0  0  0  0  0  0  0  0  0  0
  146.7523  134.6508  161.9034 C   0  0  0  0  0  0  0  0  0  0  0  0
  147.1590  135.5001  163.1021 C   0  0  0  0  0  0  0  0  0  0  0  0
  146.7691  133.1821  162.3005 C   0  0  0  0  0  0  0  0  0  0  0  0
  141.9804  132.6021  161.0817 H   0  0  0  0  0  0  0  0  0  0  0  0
  142.7222  132.7684  159.4886 H   0  0  0  0  0  0  0  0  0  0  0  0
  141.4607  133.8956  159.9942 H   0  0  0  0  0  0  0  0  0  0  0  0
  142.5817  134.3682  162.9445 H   0  0  0  0  0  0  0  0  0  0  0  0
  142.0196  135.6513  161.8685 H   0  0  0  0  0  0  0  0  0  0  0  0
  143.6488  135.7096  162.5364 H   0  0  0  0  0  0  0  0  0  0  0  0
  144.8568  133.7337  159.5760 H   0  0  0  0  0  0  0  0  0  0  0  0
  145.3732  136.2227  161.0970 H   0  0  0  0  0  0  0  0  0  0  0  0
  147.3125  134.1441  159.8076 H   0  0  0  0  0  0  0  0  0  0  0  0
  149.3308  134.9537  159.3592 H   0  0  0  0  0  0  0  0  0  0  0  0
  149.7654  137.9133  159.3802 H   0  0  0  0  0  0  0  0  0  0  0  0
  151.0137  136.7477  159.7432 H   0  0  0  0  0  0  0  0  0  0  0  0
  150.7678  135.7589  157.4717 H   0  0  0  0  0  0  0  0  0  0  0  0
  149.4832  136.8667  155.7008 H   0  0  0  0  0  0  0  0  0  0  0  0
  148.8588  138.0419  156.8562 H   0  0  0  0  0  0  0  0  0  0  0  0
  148.4318  136.3405  157.0103 H   0  0  0  0  0  0  0  0  0  0  0  0
  153.7676  138.8978  155.3350 H   0  0  0  0  0  0  0  0  0  0  0  0
  152.3728  137.2902  153.9640 H   0  0  0  0  0  0  0  0  0  0  0  0
  150.7111  137.1660  154.5713 H   0  0  0  0  0  0  0  0  0  0  0  0
  151.9025  135.9063  154.9683 H   0  0  0  0  0  0  0  0  0  0  0  0
  148.2255  135.3894  163.2994 H   0  0  0  0  0  0  0  0  0  0  0  0
  146.6093  135.1900  163.9911 H   0  0  0  0  0  0  0  0  0  0  0  0
  146.9420  136.5554  162.9409 H   0  0  0  0  0  0  0  0  0  0  0  0
  147.7562  132.9004  162.6680 H   0  0  0  0  0  0  0  0  0  0  0  0
  146.5292  132.5419  161.4509 H   0  0  0  0  0  0  0  0  0  0  0  0
  146.0373  132.9922  163.0861 H   0  0  0  0  0  0  0  0  0  0  0  0
  1  2  1  0  0  0  0
  1 22  1  0  0  0  0
  1 23  1  0  0  0  0
  1 24  1  0  0  0  0
  2  3  1  0  0  0  0
  2  4  2  0  0  0  0
  3 25  1  0  0  0  0
  3 26  1  0  0  0  0
  3 27  1  0  0  0  0
  4  5  1  0  0  0  0
  4 28  1  0  0  0  0
  5 19  1  0  0  0  0
  5  6  1  0  0  0  0
  5 29  1  0  0  0  0
  6  7  1  0  0  0  0
  6 19  1  0  0  0  0
  6 30  1  0  0  0  0
  7  8  2  0  0  0  0
  7  9  1  0  0  0  0
  9 10  1  0  0  0  0
  9 31  1  0  0  0  0
 10 11  1  0  0  0  0
 10 32  1  0  0  0  0
 10 33  1  0  0  0  0
 11 12  1  0  0  0  0
 11 13  1  0  0  0  0
 11 34  1  0  0  0  0
 12 35  1  0  0  0  0
 12 36  1  0  0  0  0
 12 37  1  0  0  0  0
 13 17  1  0  0  0  0
 13 14  2  0  0  0  0
 14 15  1  0  0  0  0
 15 16  2  0  0  0  0
 16 17  1  0  0  0  0
 16 38  1  0  0  0  0
 17 18  1  0  0  0  0
 18 39  1  0  0  0  0
 18 40  1  0  0  0  0
 18 41  1  0  0  0  0
 19 20  1  0  0  0  0
 19 21  1  0  0  0  0
 20 42  1  0  0  0  0
 20 43  1  0  0  0  0
 20 44  1  0  0  0  0
 21 45  1  0  0  0  0
 21 46  1  0  0  0  0
 21 47  1  0  0  0  0
M  END
> <s_m_source_file>
AV-unprocessed.smi

> <i_m_source_file_index>
2718

> <i_lp_mmshare_version>
43012

> <i_f3d_flags>
0

> <s_epik_input>
W0NIM11DKFtDSDNdKT1bQ0hdW0NAQEhdKEMxKFtDSDNdKVtDSDNdKVtDQEhdMUMoPU8pW05IXVtDSDJdW0NASF0oW0NIM10pYzJubltjSF1uMltDSDNd

> <s_epik_cmdline>
J2VwaWtfcHl0aG9uJywgJy1waCcsICc3LjAnLCAnLXRuJywgJzgnLCAnLW1hJywgJzIwMCcsICctbWV0YWxfYmluZGluZycsICctaW1hZScsICc8aW5maWxlLm1hZT4nLCAnLW9tYWUnLCAnPG91dGZpbGUubWFlPic=

> <r_lp_tautomer_probability>
1

> <r_epik_Ionization_Penalty>
0.000449586

> <r_epik_Ionization_Penalty_Charging>
0

> <r_epik_Ionization_Penalty_Neutral>
0.000449586

> <r_epik_State_Penalty>
0.000243372

> <r_epik_Charging_Adjusted_Penalty>
0.000243372

> <i_epik_Tot_Q>
0

> <i_epik_Tot_abs_Q>
0

> <r_epik_Metal_State_Penalty>
-0

> <b_epik_Metal_Only>
0

> <s_lp_Force_Field>
OPLS_2005

> <r_lp_Energy>
15.9496

> <b_lp_Chiralities_Consistent>
1

> <s_lp_Variant>
AV-unprocessed.smi:2718-5

> <Gold.Version>
5.8.1

> <Gold.Id.Protein>
6NUR|6NUR_protein|mol2

> <Gold.PLP.Fitness>
38.2310

> <Gold.PLP.PLP>
-30.9452

> <Gold.PLP.part.hbond>
-2.9548

> <Gold.PLP.part.metal>
0.0000

> <Gold.PLP.part.buried>
-4.0507

> <Gold.PLP.part.nonpolar>
-24.4187

> <Gold.PLP.part.repulsive>
0.1727

> <Gold.PLP.ligand.clash>
0.0000

> <Gold.PLP.ligand.torsion>
0.3932

> <Gold.PLP.Chemscore.Hbond>
2.6160

> <Gold.PLP.Chemscore.CHOScore>
0.0000

> <Gold.PLP.Chemscore.Metal>
0.0000

> <Gold.Chemscore.Hbonds>
donor molecule, donor type, donor heavy atom, donor atom, acceptor molecule, acceptor atom, score
      P1  H  6931  6943       L1     8  0.44
      P1  H  6934  6947       L1     8  0.93
      P1  H  7997  8010       L1    15  0.25

> <Gold.PLP.Chemscore.Internal.Correction>
0.2241

> <Gold.Rescore>
     Score         DG    S(hbond)    S(metal)    S(lipo)     H(rot)  DE(clash)    DE(int)     intcor
     16.94     -17.48       2.63        0.00      70.27       1.95       0.00       0.53       ----

> <Gold.Chemscore.Fitness>
16.9424

> <Gold.Chemscore.DG>
-17.4767

> <Gold.Chemscore.ZeroCoef>
-5.4800

> <Gold.Chemscore.Hbond>
2.6276

> <Gold.Chemscore.Metal>
0.0000

> <Gold.Chemscore.Lipo>
70.2662

> <Gold.Chemscore.Internal_Hbond>
0.0000

> <Gold.Chemscore.DEClash>
0.0038

> <Gold.Chemscore.DEInternal>
0.5306

> <Gold.Chemscore.Rot>
1.9533

> <Gold.Chemscore.Internal.Correction>
   9.000000E+99

> <Gold.Chemscore.Hbonds>
donor molecule, donor type, donor heavy atom, donor atom, acceptor molecule, acceptor atom, score
      P1  H  6931  6943       L1     8  0.36
      P1  H  6934  6947       L1     8  0.90

> <Gold.Chemscore.Hbond.Weighted>
-8.7761

> <Gold.Chemscore.Metal.Weighted>
-0.0000

> <Gold.Chemscore.Lipo.Weighted>
-8.2211

> <Gold.Chemscore.Internal_Hbond.Weighted>
0.0000

> <Gold.Chemscore.DEClash.Weighted>
0.0038

> <Gold.Chemscore.DEInternal.Weighted>
0.5306

> <Gold.Chemscore.Rot.Weighted>
5.0005

> <Gold.Chemscore.Internal.Correction.Weighted>
   9.000000E+99

> <Gold.Protein.RotatedTorsions>
[ 6907 6896 6895 6894 ] final   75.00 input  -60.11 | X-H torsion
[ 7974 7965 7964 7962 ] final    5.21 input  175.53 | X-H torsion
[ 8008 7997 7996 7995 ] final   55.92 input   59.86 | X-H torsion
[ 10167 10162 10161 10158 ] final   23.88 input  -65.29 | X-H torsion
[ 10718 10713 10712 10709 ] final  -70.51 input   66.30 | X-H torsion
[ 10763 10752 10751 10750 ] final -130.26 input  -60.55 | X-H torsion
[ 11005 11000 10999 10996 ] final  169.94 input  -57.11 | X-H torsion

> <Gold.Protein.ActiveResidues>
 VAL166  LYS551  ARG553  GLY616  TRP617  ASP618  TYR619  PRO620  LYS621  CYS622 
 ASP623  PHE694  ASN695  SER759  ASP760  ASP761  ALA762  ILE779  LEU786  VAL792 
 PHE793  MET794  SER795  GLU796  ALA797  LYS798  CYS799  TRP800  GLU811  SER814 

> <Gold.Protein.RotatedAtoms>
  152.5004  134.4187  159.9473 H   0  0  0  0  0  0  0  0  0  0  0  0  # atno 6907 bound_to 6896
  151.4159  133.3707  159.2757 H   0  0  0  0  0  0  0  0  0  0  0  0  # atno 6908 bound_to 6896
  150.9258  134.8697  159.7578 H   0  0  0  0  0  0  0  0  0  0  0  0  # atno 6909 bound_to 6896
  146.2441  140.0418  142.8381 H   0  0  0  0  0  0  0  0  0  0  0  0  # atno 7974 bound_to 7965
  155.5090  140.3476  155.4385 H   0  0  0  0  0  0  0  0  0  0  0  0  # atno 8008 bound_to 7997
  156.0863  140.1399  156.9677 H   0  0  0  0  0  0  0  0  0  0  0  0  # atno 8009 bound_to 7997
  154.4608  140.0935  156.6864 H   0  0  0  0  0  0  0  0  0  0  0  0  # atno 8010 bound_to 7997
  140.5233  143.9965  150.6428 H   0  0  0  0  0  0  0  0  0  0  0  0  # atno 10167 bound_to 10162
  156.0405  130.4333  150.2305 H   0  0  0  0  0  0  0  0  0  0  0  0  # atno 10718 bound_to 10713
  154.8756  135.3868  154.4054 H   0  0  0  0  0  0  0  0  0  0  0  0  # atno 10763 bound_to 10752
  153.4774  135.7030  153.5963 H   0  0  0  0  0  0  0  0  0  0  0  0  # atno 10764 bound_to 10752
  153.4394  135.3860  155.2186 H   0  0  0  0  0  0  0  0  0  0  0  0  # atno 10765 bound_to 10752
  140.3031  134.7579  157.3932 H   0  0  0  0  0  0  0  0  0  0  0  0  # atno 11005 bound_to 11000
  145.1062  140.9377  143.4683 LP  0  0  0  0  0  0  0  0  0  0  0  0  # atno 17320 bound_to 7965
  145.0622  139.3096  143.5874 LP  0  0  0  0  0  0  0  0  0  0  0  0  # atno 17321 bound_to 7965
  140.3320  143.3072  152.0677 LP  0  0  0  0  0  0  0  0  0  0  0  0  # atno 17342 bound_to 10162
  139.4930  144.6502  151.6691 LP  0  0  0  0  0  0  0  0  0  0  0  0  # atno 17343 bound_to 10162
  157.0401  131.0032  151.3286 LP  0  0  0  0  0  0  0  0  0  0  0  0  # atno 17370 bound_to 10713
  157.5215  130.8001  149.7815 LP  0  0  0  0  0  0  0  0  0  0  0  0  # atno 17371 bound_to 10713
  140.1091  134.5369  155.8282 LP  0  0  0  0  0  0  0  0  0  0  0  0  # atno 17394 bound_to 11000
  141.2124  133.6719  156.6655 LP  0  0  0  0  0  0  0  0  0  0  0  0  # atno 17395 bound_to 11000

$$$$
