AV-unprocessed.smi:2177|AV-procd|sdf|8851|dock8
  -GOLD-   2272012 43D 1   1.00000     0.00000
 Structure written by MMmdl.
 42 43  0  0  0  0  0  0  0  0  1 V2000
  153.0186  138.1364  155.7183 C   0  0  0  0  0  0  0  0  0  0  0  0
  151.9744  139.2159  155.7221 C   0  0  0  0  0  0  0  0  0  0  0  0
  152.2076  140.3417  156.3756 N   0  0  0  0  0  0  0  0  0  0  0  0
  151.0917  141.0781  156.2021 N   0  0  0  0  0  0  0  0  0  0  0  0
  151.0069  142.3944  156.8041 C   0  0  0  0  0  0  0  0  0  0  0  0
  150.1526  140.4172  155.4352 C   0  0  0  0  0  0  0  0  0  0  0  0
  148.8244  141.0191  155.1080 C   0  0  0  0  0  0  0  0  0  0  0  0
  150.6878  139.2003  155.1065 C   0  0  0  0  0  0  0  0  0  0  0  0
  150.0646  138.0814  154.3071 C   0  0  0  0  0  0  0  0  0  0  0  0
  150.1644  136.7751  155.0959 C   0  0  0  0  0  0  0  0  0  0  0  0
  150.5683  136.7843  156.2581 O   0  0  0  0  0  0  0  0  0  0  0  0
  149.8144  135.6596  154.4372 N   0  0  0  0  0  0  0  0  0  0  0  0
  149.9838  134.2913  154.9143 C   0  0  1  0  0  0  0  0  0  0  0  0
  149.3068  134.1315  156.2834 C   0  0  0  0  0  0  0  0  0  0  0  0
  149.4151  133.3170  153.8651 C   0  0  1  0  0  0  0  0  0  0  0  0
  149.3911  131.8491  154.3021 C   0  0  0  0  0  0  0  0  0  0  0  0
  148.2563  131.2470  153.4877 C   0  0  0  0  0  0  0  0  0  0  0  0
  147.5198  132.4614  152.9152 C   0  0  0  0  0  0  0  0  0  0  0  0
  148.0423  133.5780  153.6207 O   0  0  0  0  0  0  0  0  0  0  0  0
  152.6785  137.2656  156.2790 H   0  0  0  0  0  0  0  0  0  0  0  0
  153.9532  138.4748  156.1669 H   0  0  0  0  0  0  0  0  0  0  0  0
  153.2399  137.8117  154.7018 H   0  0  0  0  0  0  0  0  0  0  0  0
  150.9866  143.1533  156.0218 H   0  0  0  0  0  0  0  0  0  0  0  0
  151.8645  142.5778  157.4532 H   0  0  0  0  0  0  0  0  0  0  0  0
  150.0953  142.4689  157.3978 H   0  0  0  0  0  0  0  0  0  0  0  0
  148.2576  140.3822  154.4289 H   0  0  0  0  0  0  0  0  0  0  0  0
  148.9447  141.9917  154.6306 H   0  0  0  0  0  0  0  0  0  0  0  0
  148.2301  141.1550  156.0115 H   0  0  0  0  0  0  0  0  0  0  0  0
  149.0177  138.2897  154.0828 H   0  0  0  0  0  0  0  0  0  0  0  0
  150.5599  137.9483  153.3450 H   0  0  0  0  0  0  0  0  0  0  0  0
  149.4847  135.7651  153.4887 H   0  0  0  0  0  0  0  0  0  0  0  0
  151.0475  134.0745  155.0290 H   0  0  0  0  0  0  0  0  0  0  0  0
  149.4338  133.1192  156.6678 H   0  0  0  0  0  0  0  0  0  0  0  0
  148.2368  134.3333  156.2241 H   0  0  0  0  0  0  0  0  0  0  0  0
  149.7362  134.8162  157.0156 H   0  0  0  0  0  0  0  0  0  0  0  0
  149.9638  133.4089  152.9254 H   0  0  0  0  0  0  0  0  0  0  0  0
  150.3442  131.3457  154.1364 H   0  0  0  0  0  0  0  0  0  0  0  0
  149.1555  131.7749  155.3649 H   0  0  0  0  0  0  0  0  0  0  0  0
  148.6302  130.6085  152.6864 H   0  0  0  0  0  0  0  0  0  0  0  0
  147.6048  130.6438  154.1210 H   0  0  0  0  0  0  0  0  0  0  0  0
  147.7385  132.5757  151.8526 H   0  0  0  0  0  0  0  0  0  0  0  0
  146.4383  132.3910  153.0343 H   0  0  0  0  0  0  0  0  0  0  0  0
  1  2  1  0  0  0  0
  1 20  1  0  0  0  0
  1 21  1  0  0  0  0
  1 22  1  0  0  0  0
  2  8  1  0  0  0  0
  2  3  2  0  0  0  0
  3  4  1  0  0  0  0
  4  5  1  0  0  0  0
  4  6  1  0  0  0  0
  5 23  1  0  0  0  0
  5 24  1  0  0  0  0
  5 25  1  0  0  0  0
  6  7  1  0  0  0  0
  6  8  2  0  0  0  0
  7 26  1  0  0  0  0
  7 27  1  0  0  0  0
  7 28  1  0  0  0  0
  8  9  1  0  0  0  0
  9 10  1  0  0  0  0
  9 29  1  0  0  0  0
  9 30  1  0  0  0  0
 10 11  2  0  0  0  0
 10 12  1  0  0  0  0
 12 13  1  0  0  0  0
 12 31  1  0  0  0  0
 13 14  1  0  0  0  0
 13 15  1  0  0  0  0
 13 32  1  0  0  0  0
 14 33  1  0  0  0  0
 14 34  1  0  0  0  0
 14 35  1  0  0  0  0
 15 19  1  0  0  0  0
 15 16  1  0  0  0  0
 15 36  1  0  0  0  0
 16 17  1  0  0  0  0
 16 37  1  0  0  0  0
 16 38  1  0  0  0  0
 17 18  1  0  0  0  0
 17 39  1  0  0  0  0
 17 40  1  0  0  0  0
 18 19  1  0  0  0  0
 18 41  1  0  0  0  0
 18 42  1  0  0  0  0
M  END
> <s_m_source_file>
AV-unprocessed.smi

> <i_m_source_file_index>
2177

> <i_lp_mmshare_version>
43012

> <i_f3d_flags>
0

> <s_epik_input>
W0NIM11jMW5uKFtDSDNdKWMoW0NIM10pYzFbQ0gyXUMoPU8pW05IXVtDQEhdKFtDSDNdKVtDQEBIXTJbQ0gyXVtDSDJdW0NIMl1PMg==

> <s_epik_cmdline>
J2VwaWtfcHl0aG9uJywgJy1waCcsICc3LjAnLCAnLXRuJywgJzgnLCAnLW1hJywgJzIwMCcsICctbWV0YWxfYmluZGluZycsICctaW1hZScsICc8aW5maWxlLm1hZT4nLCAnLW9tYWUnLCAnPG91dGZpbGUubWFlPic=

> <r_lp_tautomer_probability>
1

> <r_epik_Ionization_Penalty>
0.00310467

> <r_epik_Ionization_Penalty_Charging>
0

> <r_epik_Ionization_Penalty_Neutral>
0.00310467

> <r_epik_State_Penalty>
0.00218493

> <r_epik_Charging_Adjusted_Penalty>
0.00218493

> <i_epik_Tot_Q>
0

> <i_epik_Tot_abs_Q>
0

> <r_epik_Metal_State_Penalty>
-0

> <b_epik_Metal_Only>
0

> <s_lp_Force_Field>
OPLS_2005

> <r_lp_Energy>
11.3681

> <b_lp_Chiralities_Consistent>
1

> <s_lp_Variant>
AV-unprocessed.smi:2177-4

> <Gold.Version>
5.8.1

> <Gold.Id.Protein>
6NUR|6NUR_protein|mol2

> <Gold.PLP.Fitness>
38.8492

> <Gold.PLP.PLP>
-33.3133

> <Gold.PLP.part.hbond>
-2.4586

> <Gold.PLP.part.metal>
0.0000

> <Gold.PLP.part.buried>
-1.1356

> <Gold.PLP.part.nonpolar>
-31.4202

> <Gold.PLP.part.repulsive>
0.2250

> <Gold.PLP.ligand.clash>
0.0000

> <Gold.PLP.ligand.torsion>
0.1772

> <Gold.PLP.Chemscore.Hbond>
1.9500

> <Gold.PLP.Chemscore.CHOScore>
0.0000

> <Gold.PLP.Chemscore.Metal>
0.0000

> <Gold.Chemscore.Hbonds>
donor molecule, donor type, donor heavy atom, donor atom, acceptor molecule, acceptor atom, score
      L1  H    12    31       P1  7948  1.00
      P1  H  7997  8008       L1     3  0.59

> <Gold.PLP.Chemscore.Internal.Correction>
0.0403

> <Gold.Rescore>
     Score         DG    S(hbond)    S(metal)    S(lipo)     H(rot)  DE(clash)    DE(int)     intcor
     10.80     -15.28       1.19        0.00      81.71       1.46       1.04       3.44       ----

> <Gold.Chemscore.Fitness>
10.7964

> <Gold.Chemscore.DG>
-15.2839

> <Gold.Chemscore.ZeroCoef>
-5.4800

> <Gold.Chemscore.Hbond>
1.1942

> <Gold.Chemscore.Metal>
0.0000

> <Gold.Chemscore.Lipo>
81.7056

> <Gold.Chemscore.Internal_Hbond>
0.0000

> <Gold.Chemscore.DEClash>
1.0437

> <Gold.Chemscore.DEInternal>
3.4438

> <Gold.Chemscore.Rot>
1.4627

> <Gold.Chemscore.Internal.Correction>
   9.000000E+99

> <Gold.Chemscore.Hbonds>
donor molecule, donor type, donor heavy atom, donor atom, acceptor molecule, acceptor atom, score
      L1  H    12    31       P1  7948  0.26
      P1  H  7997  8008       L1     3  0.08

> <Gold.Chemscore.Hbond.Weighted>
-3.9888

> <Gold.Chemscore.Metal.Weighted>
-0.0000

> <Gold.Chemscore.Lipo.Weighted>
-9.5596

> <Gold.Chemscore.Internal_Hbond.Weighted>
0.0000

> <Gold.Chemscore.DEClash.Weighted>
1.0437

> <Gold.Chemscore.DEInternal.Weighted>
3.4438

> <Gold.Chemscore.Rot.Weighted>
3.7445

> <Gold.Chemscore.Internal.Correction.Weighted>
   9.000000E+99

> <Gold.Protein.RotatedTorsions>
[ 6907 6896 6895 6894 ] final  -76.83 input  -60.11 | X-H torsion
[ 7974 7965 7964 7962 ] final   41.91 input  175.53 | X-H torsion
[ 8008 7997 7996 7995 ] final  -48.33 input   59.86 | X-H torsion
[ 10167 10162 10161 10158 ] final  -89.45 input  -65.29 | X-H torsion
[ 10718 10713 10712 10709 ] final -104.91 input   66.30 | X-H torsion
[ 10763 10752 10751 10750 ] final -122.91 input  -60.55 | X-H torsion
[ 11005 11000 10999 10996 ] final  -45.84 input  -57.11 | X-H torsion

> <Gold.Protein.ActiveResidues>
 VAL166  LYS551  ARG553  GLY616  TRP617  ASP618  TYR619  PRO620  LYS621  CYS622 
 ASP623  PHE694  ASN695  SER759  ASP760  ASP761  ALA762  ILE779  LEU786  VAL792 
 PHE793  MET794  SER795  GLU796  ALA797  LYS798  CYS799  TRP800  GLU811  SER814 

> <Gold.Protein.RotatedAtoms>
  150.7016  134.4513  159.5337 H   0  0  0  0  0  0  0  0  0  0  0  0  # atno 6907 bound_to 6896
  152.2205  134.8414  160.0495 H   0  0  0  0  0  0  0  0  0  0  0  0  # atno 6908 bound_to 6896
  151.9266  133.3565  159.3953 H   0  0  0  0  0  0  0  0  0  0  0  0  # atno 6909 bound_to 6896
  146.0784  139.5361  142.9552 H   0  0  0  0  0  0  0  0  0  0  0  0  # atno 7974 bound_to 7965
  154.4027  140.1324  156.4322 H   0  0  0  0  0  0  0  0  0  0  0  0  # atno 8008 bound_to 7997
  155.7540  140.3487  155.5144 H   0  0  0  0  0  0  0  0  0  0  0  0  # atno 8009 bound_to 7997
  155.8922  140.1005  157.1400 H   0  0  0  0  0  0  0  0  0  0  0  0  # atno 8010 bound_to 7997
  140.3647  143.2824  151.9573 H   0  0  0  0  0  0  0  0  0  0  0  0  # atno 10167 bound_to 10162
  156.0324  130.5538  150.7464 H   0  0  0  0  0  0  0  0  0  0  0  0  # atno 10718 bound_to 10713
  154.8698  135.4116  154.2858 H   0  0  0  0  0  0  0  0  0  0  0  0  # atno 10763 bound_to 10752
  153.3743  135.7009  153.6619 H   0  0  0  0  0  0  0  0  0  0  0  0  # atno 10764 bound_to 10752
  153.5468  135.3637  155.2714 H   0  0  0  0  0  0  0  0  0  0  0  0  # atno 10765 bound_to 10752
  141.0541  133.6732  156.3070 H   0  0  0  0  0  0  0  0  0  0  0  0  # atno 11005 bound_to 11000
  145.6263  141.0313  143.1888 LP  0  0  0  0  0  0  0  0  0  0  0  0  # atno 17320 bound_to 7965
  144.7277  139.7823  143.7359 LP  0  0  0  0  0  0  0  0  0  0  0  0  # atno 17321 bound_to 7965
  139.4810  144.5961  151.7687 LP  0  0  0  0  0  0  0  0  0  0  0  0  # atno 17342 bound_to 10162
  140.5093  144.1050  150.5991 LP  0  0  0  0  0  0  0  0  0  0  0  0  # atno 17343 bound_to 10162
  157.5020  131.0919  151.0303 LP  0  0  0  0  0  0  0  0  0  0  0  0  # atno 17370 bound_to 10713
  157.0681  130.5853  149.5397 LP  0  0  0  0  0  0  0  0  0  0  0  0  # atno 17371 bound_to 10713
  140.5998  134.5566  157.5515 LP  0  0  0  0  0  0  0  0  0  0  0  0  # atno 17394 bound_to 11000
  139.9375  134.7848  156.0764 LP  0  0  0  0  0  0  0  0  0  0  0  0  # atno 17395 bound_to 11000

$$$$
