AV-unprocessed.smi:212|AV-procd|sdf|1623|dock9
  -GOLD-   2262019563D 1   1.00000     0.00000
 Structure written by MMmdl.
 65 68  0  0  0  0  0  0  0  0  2 V2000
  143.0032  136.0998  152.8548 C   0  0  0  0  0  0  0  0  0  0  0  0
  144.3974  136.6799  152.5620 C   0  0  2  0  0  0  0  0  0  0  0  0
  145.1576  135.8613  151.4971 C   0  0  0  0  0  0  0  0  0  0  0  0
  145.6168  134.5536  152.0361 N   0  3  1  0  0  0  0  0  0  0  0  0
  146.2413  133.6786  151.0091 C   0  0  0  0  0  0  0  0  0  0  0  0
  145.1963  132.9021  150.1734 C   0  0  0  0  0  0  0  0  0  0  0  0
  145.9040  131.9272  149.2171 C   0  0  0  0  0  0  0  0  0  0  0  0
  144.1869  132.1446  151.0565 C   0  0  0  0  0  0  0  0  0  0  0  0
  144.4803  133.8124  149.3624 O   0  0  0  0  0  0  0  0  0  0  0  0
  146.4508  134.7135  153.2537 C   0  0  0  0  0  0  0  0  0  0  0  0
  145.7104  135.5330  154.3267 C   0  0  0  0  0  0  0  0  0  0  0  0
  145.2034  136.7931  153.7805 N   0  0  0  0  0  0  0  0  0  0  0  0
  145.9760  137.9067  153.8809 C   0  0  0  0  0  0  0  0  0  0  0  0
  146.2374  138.6543  152.7754 N   0  0  0  0  0  0  0  0  0  0  0  0
  146.9860  139.7576  152.8664 C   0  0  0  0  0  0  0  0  0  0  0  0
  147.5645  140.2862  153.9461 N   0  0  0  0  0  0  0  0  0  0  0  0
  147.3135  139.5367  155.0569 C   0  0  0  0  0  0  0  0  0  0  0  0
  146.5378  138.3447  155.1135 C   0  0  0  0  0  0  0  0  0  0  0  0
  146.5152  137.8572  156.4154 N   0  0  0  0  0  0  0  0  0  0  0  0
  147.2307  138.7155  157.0904 C   0  0  0  0  0  0  0  0  0  0  0  0
  147.7423  139.7588  156.3525 N   0  0  0  0  0  0  0  0  0  0  0  0
  148.5654  140.8515  156.8392 C   0  0  0  0  0  0  0  0  0  0  0  0
  149.9254  140.3814  157.4126 C   0  0  1  0  0  0  0  0  0  0  0  0
  150.8881  139.8634  156.3164 C   0  0  0  0  0  0  0  0  0  0  0  0
  150.6714  140.5214  155.0847 O   0  0  0  0  0  0  0  0  0  0  0  0
  150.5737  141.4723  158.3017 C   0  0  2  0  0  0  0  0  0  0  0  0
  150.9322  142.7595  157.5802 C   0  0  0  0  0  0  0  0  0  0  0  0
  151.9310  143.3980  158.5386 C   0  0  0  0  0  0  0  0  0  0  0  0
  152.6172  142.3144  159.1549 O   0  0  0  0  0  0  0  0  0  0  0  0
  151.9399  141.0913  158.8826 C   0  0  0  0  0  0  0  0  0  0  0  0
  142.3937  136.0776  151.9511 H   0  0  0  0  0  0  0  0  0  0  0  0
  142.4762  136.7090  153.5898 H   0  0  0  0  0  0  0  0  0  0  0  0
  143.0536  135.0814  153.2405 H   0  0  0  0  0  0  0  0  0  0  0  0
  144.2343  137.6695  152.1356 H   0  0  0  0  0  0  0  0  0  0  0  0
  144.5241  135.7129  150.6228 H   0  0  0  0  0  0  0  0  0  0  0  0
  146.0272  136.4261  151.1568 H   0  0  0  0  0  0  0  0  0  0  0  0
  146.8970  134.2649  150.3626 H   0  0  0  0  0  0  0  0  0  0  0  0
  146.8928  132.9508  151.4959 H   0  0  0  0  0  0  0  0  0  0  0  0
  146.4766  131.1803  149.7681 H   0  0  0  0  0  0  0  0  0  0  0  0
  146.5965  132.4491  148.5554 H   0  0  0  0  0  0  0  0  0  0  0  0
  145.1895  131.3935  148.5891 H   0  0  0  0  0  0  0  0  0  0  0  0
  144.6932  131.4392  151.7165 H   0  0  0  0  0  0  0  0  0  0  0  0
  143.4795  131.5764  150.4512 H   0  0  0  0  0  0  0  0  0  0  0  0
  143.6042  132.8222  151.6818 H   0  0  0  0  0  0  0  0  0  0  0  0
  145.0430  134.0953  148.6573 H   0  0  0  0  0  0  0  0  0  0  0  0
  146.7030  133.7333  153.6601 H   0  0  0  0  0  0  0  0  0  0  0  0
  147.3907  135.1972  152.9843 H   0  0  0  0  0  0  0  0  0  0  0  0
  144.8649  134.9593  154.7068 H   0  0  0  0  0  0  0  0  0  0  0  0
  146.3564  135.7101  155.1877 H   0  0  0  0  0  0  0  0  0  0  0  0
  147.1442  140.2939  151.9423 H   0  0  0  0  0  0  0  0  0  0  0  0
  147.4014  138.6146  158.1526 H   0  0  0  0  0  0  0  0  0  0  0  0
  148.7224  141.5571  156.0223 H   0  0  0  0  0  0  0  0  0  0  0  0
  147.9906  141.3830  157.5979 H   0  0  0  0  0  0  0  0  0  0  0  0
  149.7162  139.5278  158.0589 H   0  0  0  0  0  0  0  0  0  0  0  0
  151.9270  140.0071  156.6120 H   0  0  0  0  0  0  0  0  0  0  0  0
  150.7688  138.7905  156.1657 H   0  0  0  0  0  0  0  0  0  0  0  0
  150.1078  141.2648  155.2358 H   0  0  0  0  0  0  0  0  0  0  0  0
  149.9045  141.7162  159.1284 H   0  0  0  0  0  0  0  0  0  0  0  0
  151.4153  142.5418  156.6265 H   0  0  0  0  0  0  0  0  0  0  0  0
  150.0718  143.4018  157.3898 H   0  0  0  0  0  0  0  0  0  0  0  0
  152.6214  144.0742  158.0338 H   0  0  0  0  0  0  0  0  0  0  0  0
  151.4079  143.9622  159.3119 H   0  0  0  0  0  0  0  0  0  0  0  0
  151.8545  140.4840  159.7841 H   0  0  0  0  0  0  0  0  0  0  0  0
  152.5287  140.5314  158.1547 H   0  0  0  0  0  0  0  0  0  0  0  0
  144.7848  134.0671  152.3382 H   0  0  0  0  0  0  0  0  0  0  0  0
  1  2  1  0  0  0  0
  1 31  1  0  0  0  0
  1 32  1  0  0  0  0
  1 33  1  0  0  0  0
  2 12  1  0  0  0  0
  2  3  1  0  0  0  0
  2 34  1  0  0  0  0
  3  4  1  0  0  0  0
  3 35  1  0  0  0  0
  3 36  1  0  0  0  0
  4  5  1  0  0  0  0
  4 10  1  0  0  0  0
  4 65  1  0  0  0  0
  5  6  1  0  0  0  0
  5 37  1  0  0  0  0
  5 38  1  0  0  0  0
  6  7  1  0  0  0  0
  6  8  1  0  0  0  0
  6  9  1  0  0  0  0
  7 39  1  0  0  0  0
  7 40  1  0  0  0  0
  7 41  1  0  0  0  0
  8 42  1  0  0  0  0
  8 43  1  0  0  0  0
  8 44  1  0  0  0  0
  9 45  1  0  0  0  0
 10 11  1  0  0  0  0
 10 46  1  0  0  0  0
 10 47  1  0  0  0  0
 11 12  1  0  0  0  0
 11 48  1  0  0  0  0
 11 49  1  0  0  0  0
 12 13  1  0  0  0  0
 13 18  1  0  0  0  0
 13 14  2  0  0  0  0
 14 15  1  0  0  0  0
 15 16  2  0  0  0  0
 15 50  1  0  0  0  0
 16 17  1  0  0  0  0
 17 21  1  0  0  0  0
 17 18  2  0  0  0  0
 18 19  1  0  0  0  0
 19 20  2  0  0  0  0
 20 21  1  0  0  0  0
 20 51  1  0  0  0  0
 21 22  1  0  0  0  0
 22 23  1  0  0  0  0
 22 52  1  0  0  0  0
 22 53  1  0  0  0  0
 23 24  1  0  0  0  0
 23 26  1  0  0  0  0
 23 54  1  0  0  0  0
 24 25  1  0  0  0  0
 24 55  1  0  0  0  0
 24 56  1  0  0  0  0
 25 57  1  0  0  0  0
 26 30  1  0  0  0  0
 26 27  1  0  0  0  0
 26 58  1  0  0  0  0
 27 28  1  0  0  0  0
 27 59  1  0  0  0  0
 27 60  1  0  0  0  0
 28 29  1  0  0  0  0
 28 61  1  0  0  0  0
 28 62  1  0  0  0  0
 29 30  1  0  0  0  0
 30 63  1  0  0  0  0
 30 64  1  0  0  0  0
M  CHG  1   4   1
M  END
> <s_m_source_file>
AV-unprocessed.smi

> <i_m_source_file_index>
212

> <i_lp_mmshare_version>
43012

> <i_f3d_flags>
0

> <s_epik_input>
W0NIM11bQ0BASF0xW0NIMl1OKFtDSDJdQyhbQ0gzXSkoW0NIM10pW09IXSlbQ0gyXVtDSDJdTjFjKG5bY0hdbjIpYyhjMjMpbltjSF1uM1tDSDJdW0NASF0oW0NIMl1bT0hdKVtDQEBIXTRbQ0gyXVtDSDJdT1tDSDJdNA==

> <s_epik_cmdline>
J2VwaWtfcHl0aG9uJywgJy1waCcsICc3LjAnLCAnLXRuJywgJzgnLCAnLW1hJywgJzIwMCcsICctbWV0YWxfYmluZGluZycsICctaW1hZScsICc8aW5maWxlLm1hZT4nLCAnLW9tYWUnLCAnPG91dGZpbGUubWFlPic=

> <r_lp_tautomer_probability>
1

> <r_epik_Ionization_Penalty>
0.00182193

> <r_epik_Ionization_Penalty_Charging>
0.00173996

> <r_epik_Ionization_Penalty_Neutral>
8.19718e-05

> <r_epik_State_Penalty>
-0

> <r_epik_Charging_Adjusted_Penalty>
0.00173996

> <i_epik_Tot_Q>
1

> <i_epik_Tot_abs_Q>
1

> <r_epik_Metal_State_Penalty>
-0

> <b_epik_Metal_Only>
0

> <s_lp_Force_Field>
OPLS_2005

> <r_lp_Energy>
57.8669

> <b_lp_Chiralities_Consistent>
1

> <s_lp_Variant>
AV-unprocessed.smi:212-7

> <Gold.Version>
5.8.1

> <Gold.Id.Protein>
6NUR|6NUR_protein|mol2

> <Gold.PLP.Fitness>
46.9030

> <Gold.PLP.PLP>
-40.8126

> <Gold.PLP.part.hbond>
-2.0000

> <Gold.PLP.part.metal>
0.0000

> <Gold.PLP.part.buried>
-7.0804

> <Gold.PLP.part.nonpolar>
-32.8887

> <Gold.PLP.part.repulsive>
0.4520

> <Gold.PLP.ligand.clash>
0.0000

> <Gold.PLP.ligand.torsion>
1.4480

> <Gold.PLP.Chemscore.Hbond>
2.0000

> <Gold.PLP.Chemscore.CHOScore>
0.6328

> <Gold.PLP.Chemscore.Metal>
0.0000

> <Gold.Chemscore.Hbonds>
donor molecule, donor type, donor heavy atom, donor atom, acceptor molecule, acceptor atom, score
      L1  H     9    45       P1  7921  1.00
      P1  H  7989  7998       L1    25  1.00
      L1  C    15    50       P1  7957  0.58

> <Gold.PLP.Chemscore.Internal.Correction>
1.0878

> <Gold.Rescore>
     Score         DG    S(hbond)    S(metal)    S(lipo)     H(rot)  DE(clash)    DE(int)     intcor
     12.74     -14.84       1.83        0.00     102.12       3.40       0.38       1.71       ----

> <Gold.Chemscore.Fitness>
12.7426

> <Gold.Chemscore.DG>
-14.8350

> <Gold.Chemscore.ZeroCoef>
-5.4800

> <Gold.Chemscore.Hbond>
1.8286

> <Gold.Chemscore.Metal>
0.0000

> <Gold.Chemscore.Lipo>
102.1183

> <Gold.Chemscore.Internal_Hbond>
0.0000

> <Gold.Chemscore.DEClash>
0.3831

> <Gold.Chemscore.DEInternal>
1.7093

> <Gold.Chemscore.Rot>
3.3986

> <Gold.Chemscore.Internal.Correction>
   9.000000E+99

> <Gold.Chemscore.Hbonds>
donor molecule, donor type, donor heavy atom, donor atom, acceptor molecule, acceptor atom, score
      L1  H     9    45       P1  7921  0.99
      P1  H  7989  7998       L1    25  0.52

> <Gold.Chemscore.Hbond.Weighted>
-6.1076

> <Gold.Chemscore.Metal.Weighted>
-0.0000

> <Gold.Chemscore.Lipo.Weighted>
-11.9478

> <Gold.Chemscore.Internal_Hbond.Weighted>
0.0000

> <Gold.Chemscore.DEClash.Weighted>
0.3831

> <Gold.Chemscore.DEInternal.Weighted>
1.7093

> <Gold.Chemscore.Rot.Weighted>
8.7005

> <Gold.Chemscore.Internal.Correction.Weighted>
   9.000000E+99

> <Gold.Protein.RotatedTorsions>
[ 6907 6896 6895 6894 ] final -117.73 input  -60.11 | X-H torsion
[ 7974 7965 7964 7962 ] final -156.99 input  175.53 | X-H torsion
[ 8008 7997 7996 7995 ] final   -6.81 input   59.86 | X-H torsion
[ 10167 10162 10161 10158 ] final  -85.93 input  -65.29 | X-H torsion
[ 10718 10713 10712 10709 ] final -177.30 input   66.30 | X-H torsion
[ 10763 10752 10751 10750 ] final   51.09 input  -60.55 | X-H torsion
[ 11005 11000 10999 10996 ] final -175.01 input  -57.11 | X-H torsion

> <Gold.Protein.ActiveResidues>
 VAL166  LYS551  ARG553  GLY616  TRP617  ASP618  TYR619  PRO620  LYS621  CYS622 
 ASP623  PHE694  ASN695  SER759  ASP760  ASP761  ALA762  ILE779  LEU786  VAL792 
 PHE793  MET794  SER795  GLU796  ALA797  LYS798  CYS799  TRP800  GLU811  SER814 

> <Gold.Protein.RotatedAtoms>
  150.8161  133.8336  159.3159 H   0  0  0  0  0  0  0  0  0  0  0  0  # atno 6907 bound_to 6896
  151.6107  135.1038  160.0090 H   0  0  0  0  0  0  0  0  0  0  0  0  # atno 6908 bound_to 6896
  152.4252  133.7142  159.6553 H   0  0  0  0  0  0  0  0  0  0  0  0  # atno 6909 bound_to 6896
  144.7568  140.4031  143.6006 H   0  0  0  0  0  0  0  0  0  0  0  0  # atno 7974 bound_to 7965
  154.5901  140.2423  155.7933 H   0  0  0  0  0  0  0  0  0  0  0  0  # atno 8008 bound_to 7997
  156.2241  140.2988  155.9977 H   0  0  0  0  0  0  0  0  0  0  0  0  # atno 8009 bound_to 7997
  155.2390  140.0406  157.2963 H   0  0  0  0  0  0  0  0  0  0  0  0  # atno 8010 bound_to 7997
  140.3990  143.2671  151.9166 H   0  0  0  0  0  0  0  0  0  0  0  0  # atno 10167 bound_to 10162
  156.8275  130.9641  151.3108 H   0  0  0  0  0  0  0  0  0  0  0  0  # atno 10718 bound_to 10713
  152.9785  135.5857  154.4358 H   0  0  0  0  0  0  0  0  0  0  0  0  # atno 10763 bound_to 10752
  154.3966  135.2768  155.2124 H   0  0  0  0  0  0  0  0  0  0  0  0  # atno 10764 bound_to 10752
  154.3974  135.6111  153.5931 H   0  0  0  0  0  0  0  0  0  0  0  0  # atno 10765 bound_to 10752
  140.4681  134.6191  157.4871 H   0  0  0  0  0  0  0  0  0  0  0  0  # atno 11005 bound_to 11000
  145.6753  139.1607  143.2731 LP  0  0  0  0  0  0  0  0  0  0  0  0  # atno 17320 bound_to 7965
  146.1587  140.6820  142.9288 LP  0  0  0  0  0  0  0  0  0  0  0  0  # atno 17321 bound_to 7965
  139.4785  144.5652  151.8176 LP  0  0  0  0  0  0  0  0  0  0  0  0  # atno 17342 bound_to 10162
  140.4759  144.1519  150.5925 LP  0  0  0  0  0  0  0  0  0  0  0  0  # atno 17343 bound_to 10162
  157.6424  130.8817  149.9474 LP  0  0  0  0  0  0  0  0  0  0  0  0  # atno 17370 bound_to 10713
  156.0953  130.3660  150.0318 LP  0  0  0  0  0  0  0  0  0  0  0  0  # atno 17371 bound_to 10713
  139.9902  134.6997  155.9703 LP  0  0  0  0  0  0  0  0  0  0  0  0  # atno 17394 bound_to 11000
  141.1590  133.6540  156.4255 LP  0  0  0  0  0  0  0  0  0  0  0  0  # atno 17395 bound_to 11000

$$$$
