AV-unprocessed.smi:2279|AV-procd|sdf|9187|dock3
  -GOLD-   2272012403D 1   1.00000     0.00000
 Structure written by MMmdl.
 57 59  0  0  0  0  0  0  0  0  2 V2000
  152.2137  145.9627  160.1327 C   0  0  0  0  0  0  0  0  0  0  0  0
  152.1075  144.5471  159.6051 C   0  0  0  0  0  0  0  0  0  0  0  0
  152.8752  143.5071  160.1633 C   0  0  0  0  0  0  0  0  0  0  0  0
  152.7295  142.2124  159.6273 C   0  0  0  0  0  0  0  0  0  0  0  0
  153.5197  141.0458  160.1810 C   0  0  0  0  0  0  0  0  0  0  0  0
  151.8932  141.9273  158.6063 N   0  0  0  0  0  0  0  0  0  0  0  0
  151.1498  142.9213  158.0601 C   0  0  0  0  0  0  0  0  0  0  0  0
  150.2423  142.7271  156.9851 N   0  0  0  0  0  0  0  0  0  0  0  0
  149.9581  141.5860  156.3327 C   0  0  0  0  0  0  0  0  0  0  0  0
  150.4572  140.4854  156.5698 O   0  0  0  0  0  0  0  0  0  0  0  0
  149.0488  141.7924  155.3688 N   0  0  0  0  0  0  0  0  0  0  0  0
  148.5375  140.7684  154.4624 C   0  0  0  0  0  0  0  0  0  0  0  0
  147.3865  141.3338  153.6272 C   0  0  0  0  0  0  0  0  0  0  0  0
  146.7580  140.2445  152.7408 C   0  0  0  0  0  0  0  0  0  0  0  0
  146.2313  139.1220  153.5369 N   0  0  0  0  0  0  0  0  0  0  0  0
  145.5657  138.1113  152.6832 C   0  0  2  0  0  0  0  0  0  0  0  0
  145.1414  136.8588  153.4985 C   0  0  0  0  0  0  0  0  0  0  0  0
  144.5667  135.7392  152.6164 C   0  0  0  0  0  0  0  0  0  0  0  0
  145.5298  135.3418  151.5663 N   0  3  1  0  0  0  0  0  0  0  0  0
  145.0670  134.1732  150.7876 C   0  0  0  0  0  0  0  0  0  0  0  0
  145.8834  136.4915  150.7054 C   0  0  0  0  0  0  0  0  0  0  0  0
  146.4939  137.6347  151.5317 C   0  0  0  0  0  0  0  0  0  0  0  0
  147.3540  138.5354  154.2899 C   0  0  0  0  0  0  0  0  0  0  0  0
  148.0112  139.5545  155.2366 C   0  0  0  0  0  0  0  0  0  0  0  0
  151.2332  144.2473  158.5411 C   0  0  0  0  0  0  0  0  0  0  0  0
  152.9148  146.0247  160.9653 H   0  0  0  0  0  0  0  0  0  0  0  0
  151.2406  146.3108  160.4798 H   0  0  0  0  0  0  0  0  0  0  0  0
  152.5585  146.6340  159.3459 H   0  0  0  0  0  0  0  0  0  0  0  0
  153.5570  143.6963  160.9798 H   0  0  0  0  0  0  0  0  0  0  0  0
  154.1556  141.3562  161.0105 H   0  0  0  0  0  0  0  0  0  0  0  0
  154.1556  140.6169  159.4062 H   0  0  0  0  0  0  0  0  0  0  0  0
  152.8450  140.2688  160.5417 H   0  0  0  0  0  0  0  0  0  0  0  0
  149.7590  143.5553  156.6709 H   0  0  0  0  0  0  0  0  0  0  0  0
  148.6890  142.7277  155.2465 H   0  0  0  0  0  0  0  0  0  0  0  0
  149.3348  140.4504  153.7877 H   0  0  0  0  0  0  0  0  0  0  0  0
  146.6204  141.7567  154.2792 H   0  0  0  0  0  0  0  0  0  0  0  0
  147.7470  142.1520  153.0027 H   0  0  0  0  0  0  0  0  0  0  0  0
  145.9655  140.7350  152.1810 H   0  0  0  0  0  0  0  0  0  0  0  0
  147.4862  139.8788  152.0150 H   0  0  0  0  0  0  0  0  0  0  0  0
  144.6717  138.5599  152.2465 H   0  0  0  0  0  0  0  0  0  0  0  0
  145.9948  136.4755  154.0605 H   0  0  0  0  0  0  0  0  0  0  0  0
  144.3679  137.0996  154.2256 H   0  0  0  0  0  0  0  0  0  0  0  0
  144.3270  134.8753  153.2377 H   0  0  0  0  0  0  0  0  0  0  0  0
  143.6333  136.0662  152.1548 H   0  0  0  0  0  0  0  0  0  0  0  0
  144.1476  134.4021  150.2469 H   0  0  0  0  0  0  0  0  0  0  0  0
  144.8760  133.3241  151.4446 H   0  0  0  0  0  0  0  0  0  0  0  0
  145.8236  133.8690  150.0636 H   0  0  0  0  0  0  0  0  0  0  0  0
  146.5982  136.1721  149.9460 H   0  0  0  0  0  0  0  0  0  0  0  0
  144.9952  136.8423  150.1771 H   0  0  0  0  0  0  0  0  0  0  0  0
  146.7029  138.4390  150.8287 H   0  0  0  0  0  0  0  0  0  0  0  0
  147.4543  137.3146  151.9385 H   0  0  0  0  0  0  0  0  0  0  0  0
  147.0181  137.7160  154.9205 H   0  0  0  0  0  0  0  0  0  0  0  0
  148.0946  138.1276  153.6002 H   0  0  0  0  0  0  0  0  0  0  0  0
  148.8259  139.0735  155.7792 H   0  0  0  0  0  0  0  0  0  0  0  0
  147.2862  139.8732  155.9872 H   0  0  0  0  0  0  0  0  0  0  0  0
  150.6346  145.0305  158.0983 H   0  0  0  0  0  0  0  0  0  0  0  0
  146.3768  135.0582  152.0383 H   0  0  0  0  0  0  0  0  0  0  0  0
  1  2  1  0  0  0  0
  1 26  1  0  0  0  0
  1 27  1  0  0  0  0
  1 28  1  0  0  0  0
  2 25  1  0  0  0  0
  2  3  2  0  0  0  0
  3  4  1  0  0  0  0
  3 29  1  0  0  0  0
  4  5  1  0  0  0  0
  4  6  2  0  0  0  0
  5 30  1  0  0  0  0
  5 31  1  0  0  0  0
  5 32  1  0  0  0  0
  6  7  1  0  0  0  0
  7  8  1  0  0  0  0
  7 25  2  0  0  0  0
  8  9  1  0  0  0  0
  8 33  1  0  0  0  0
  9 10  2  0  0  0  0
  9 11  1  0  0  0  0
 11 12  1  0  0  0  0
 11 34  1  0  0  0  0
 12 24  1  0  0  0  0
 12 13  1  0  0  0  0
 12 35  1  0  0  0  0
 13 14  1  0  0  0  0
 13 36  1  0  0  0  0
 13 37  1  0  0  0  0
 14 15  1  0  0  0  0
 14 38  1  0  0  0  0
 14 39  1  0  0  0  0
 15 16  1  0  0  0  0
 15 23  1  0  0  0  0
 16 22  1  0  0  0  0
 16 17  1  0  0  0  0
 16 40  1  0  0  0  0
 17 18  1  0  0  0  0
 17 41  1  0  0  0  0
 17 42  1  0  0  0  0
 18 19  1  0  0  0  0
 18 43  1  0  0  0  0
 18 44  1  0  0  0  0
 19 20  1  0  0  0  0
 19 21  1  0  0  0  0
 19 57  1  0  0  0  0
 20 45  1  0  0  0  0
 20 46  1  0  0  0  0
 20 47  1  0  0  0  0
 21 22  1  0  0  0  0
 21 48  1  0  0  0  0
 21 49  1  0  0  0  0
 22 50  1  0  0  0  0
 22 51  1  0  0  0  0
 23 24  1  0  0  0  0
 23 52  1  0  0  0  0
 23 53  1  0  0  0  0
 24 54  1  0  0  0  0
 24 55  1  0  0  0  0
 25 56  1  0  0  0  0
M  CHG  1  19   1
M  END
> <s_m_source_file>
AV-unprocessed.smi

> <i_m_source_file_index>
2279

> <i_lp_mmshare_version>
43012

> <i_f3d_flags>
0

> <s_epik_input>
W0NIM11jMVtjSF1jKFtDSDNdKW5jKFtjSF0xKVtOSF1DKD1PKVtOSF1bQ0hdMltDSDJdW0NIMl1OKFtDSDJdW0NIMl0yKVtDSF0zW0NIMl1bQ0gyXU4oW0NIM10pW0NIMl1bQ0gyXTM=

> <s_epik_cmdline>
J2VwaWtfcHl0aG9uJywgJy1waCcsICc3LjAnLCAnLXRuJywgJzgnLCAnLW1hJywgJzIwMCcsICctbWV0YWxfYmluZGluZycsICctaW1hZScsICc8aW5maWxlLm1hZT4nLCAnLW9tYWUnLCAnPG91dGZpbGUubWFlPic=

> <r_epik_Ionization_Penalty>
1.01001

> <r_epik_Ionization_Penalty_Charging>
0.000974969

> <r_epik_Ionization_Penalty_Neutral>
1.00904

> <r_epik_State_Penalty>
1.10286

> <r_epik_Charging_Adjusted_Penalty>
1.10383

> <i_epik_Tot_Q>
1

> <i_epik_Tot_abs_Q>
1

> <r_epik_Metal_State_Penalty>
1.10279

> <b_epik_Metal_Only>
0

> <s_lp_Force_Field>
OPLS_2005

> <r_lp_Energy>
34.0365

> <b_lp_Chiralities_Consistent>
1

> <s_lp_Variant>
AV-unprocessed.smi:2279-5

> <Gold.Version>
5.8.1

> <Gold.Id.Protein>
6NUR|6NUR_protein|mol2

> <Gold.PLP.Fitness>
47.7775

> <Gold.PLP.PLP>
-42.0452

> <Gold.PLP.part.hbond>
-2.0000

> <Gold.PLP.part.metal>
0.0000

> <Gold.PLP.part.buried>
0.0047

> <Gold.PLP.part.nonpolar>
-41.5008

> <Gold.PLP.part.repulsive>
0.7504

> <Gold.PLP.ligand.clash>
0.0000

> <Gold.PLP.ligand.torsion>
0.0982

> <Gold.PLP.Chemscore.Hbond>
1.9760

> <Gold.PLP.Chemscore.CHOScore>
0.0000

> <Gold.PLP.Chemscore.Metal>
0.0000

> <Gold.Chemscore.Hbonds>
donor molecule, donor type, donor heavy atom, donor atom, acceptor molecule, acceptor atom, score
      L1  H     8    33       P1  8028  1.00
      L1  H    11    34       P1  8028  0.97

> <Gold.PLP.Chemscore.Internal.Correction>
0.0007

> <Gold.Rescore>
     Score         DG    S(hbond)    S(metal)    S(lipo)     H(rot)  DE(clash)    DE(int)     intcor
     19.80     -24.22       1.87        0.00     132.90       1.20       1.93       2.49       ----

> <Gold.Chemscore.Fitness>
19.8043

> <Gold.Chemscore.DG>
-24.2203

> <Gold.Chemscore.ZeroCoef>
-5.4800

> <Gold.Chemscore.Hbond>
1.8738

> <Gold.Chemscore.Metal>
0.0000

> <Gold.Chemscore.Lipo>
132.8991

> <Gold.Chemscore.Internal_Hbond>
0.0000

> <Gold.Chemscore.DEClash>
1.9298

> <Gold.Chemscore.DEInternal>
2.4862

> <Gold.Chemscore.Rot>
1.1981

> <Gold.Chemscore.Internal.Correction>
   9.000000E+99

> <Gold.Chemscore.Hbonds>
donor molecule, donor type, donor heavy atom, donor atom, acceptor molecule, acceptor atom, score
      L1  H     8    33       P1  8028  1.00
      L1  H    11    34       P1  8028  0.86

> <Gold.Chemscore.Hbond.Weighted>
-6.2584

> <Gold.Chemscore.Metal.Weighted>
-0.0000

> <Gold.Chemscore.Lipo.Weighted>
-15.5492

> <Gold.Chemscore.Internal_Hbond.Weighted>
0.0000

> <Gold.Chemscore.DEClash.Weighted>
1.9298

> <Gold.Chemscore.DEInternal.Weighted>
2.4862

> <Gold.Chemscore.Rot.Weighted>
3.0673

> <Gold.Chemscore.Internal.Correction.Weighted>
   9.000000E+99

> <Gold.Protein.RotatedTorsions>
[ 6907 6896 6895 6894 ] final  -23.17 input  -60.11 | X-H torsion
[ 7974 7965 7964 7962 ] final -178.14 input  175.53 | X-H torsion
[ 8008 7997 7996 7995 ] final -115.96 input   59.86 | X-H torsion
[ 10167 10162 10161 10158 ] final   65.21 input  -65.29 | X-H torsion
[ 10718 10713 10712 10709 ] final   12.13 input   66.30 | X-H torsion
[ 10763 10752 10751 10750 ] final  109.49 input  -60.55 | X-H torsion
[ 11005 11000 10999 10996 ] final -132.70 input  -57.11 | X-H torsion

> <Gold.Protein.ActiveResidues>
 VAL166  LYS551  ARG553  GLY616  TRP617  ASP618  TYR619  PRO620  LYS621  CYS622 
 ASP623  PHE694  ASN695  SER759  ASP760  ASP761  ALA762  ILE779  LEU786  VAL792 
 PHE793  MET794  SER795  GLU796  ALA797  LYS798  CYS799  TRP800  GLU811  SER814 

> <Gold.Protein.RotatedAtoms>
  151.2078  135.0469  159.8898 H   0  0  0  0  0  0  0  0  0  0  0  0  # atno 6907 bound_to 6896
  152.5427  134.0778  159.8232 H   0  0  0  0  0  0  0  0  0  0  0  0  # atno 6908 bound_to 6896
  151.0927  133.5255  159.2646 H   0  0  0  0  0  0  0  0  0  0  0  0  # atno 6909 bound_to 6896
  144.7130  140.0914  143.6421 H   0  0  0  0  0  0  0  0  0  0  0  0  # atno 7974 bound_to 7965
  155.0603  140.0393  157.2574 H   0  0  0  0  0  0  0  0  0  0  0  0  # atno 8008 bound_to 7997
  154.7065  140.2684  155.6645 H   0  0  0  0  0  0  0  0  0  0  0  0  # atno 8009 bound_to 7997
  156.2776  140.2730  156.1693 H   0  0  0  0  0  0  0  0  0  0  0  0  # atno 8010 bound_to 7997
  140.1138  144.4794  150.6962 H   0  0  0  0  0  0  0  0  0  0  0  0  # atno 10167 bound_to 10162
  157.0057  130.6097  149.5702 H   0  0  0  0  0  0  0  0  0  0  0  0  # atno 10718 bound_to 10713
  153.4355  135.3778  155.2196 H   0  0  0  0  0  0  0  0  0  0  0  0  # atno 10763 bound_to 10752
  154.8752  135.3850  154.4216 H   0  0  0  0  0  0  0  0  0  0  0  0  # atno 10764 bound_to 10752
  153.4755  135.7087  153.6032 H   0  0  0  0  0  0  0  0  0  0  0  0  # atno 10765 bound_to 10752
  140.9146  134.1523  157.4362 H   0  0  0  0  0  0  0  0  0  0  0  0  # atno 11005 bound_to 11000
  145.9617  139.2805  143.1152 LP  0  0  0  0  0  0  0  0  0  0  0  0  # atno 17320 bound_to 7965
  145.9213  140.9113  143.0403 LP  0  0  0  0  0  0  0  0  0  0  0  0  # atno 17321 bound_to 7965
  140.6911  143.2376  151.5129 LP  0  0  0  0  0  0  0  0  0  0  0  0  # atno 17342 bound_to 10162
  139.5605  144.2169  152.1683 LP  0  0  0  0  0  0  0  0  0  0  0  0  # atno 17343 bound_to 10162
  156.0154  130.5248  150.8119 LP  0  0  0  0  0  0  0  0  0  0  0  0  # atno 17370 bound_to 10713
  157.5357  131.0938  150.9895 LP  0  0  0  0  0  0  0  0  0  0  0  0  # atno 17371 bound_to 10713
  139.8764  134.9949  156.5716 LP  0  0  0  0  0  0  0  0  0  0  0  0  # atno 17394 bound_to 11000
  140.8066  133.8463  155.8773 LP  0  0  0  0  0  0  0  0  0  0  0  0  # atno 17395 bound_to 11000

$$$$
