AV-unprocessed.smi:86|AV-procd|sdf|813|dock2
  -GOLD-   2262017213D 1   1.00000     0.00000
 Structure written by MMmdl.
 51 55  0  0  0  0  0  0  0  0  1 V2000
  154.3205  133.9955  165.1356 O   0  0  0  0  0  0  0  0  0  0  0  0
  154.2011  134.1420  163.7352 C   0  0  0  0  0  0  0  0  0  0  0  0
  154.4423  135.5984  163.3014 C   0  0  0  0  0  0  0  0  0  0  0  0
  154.2935  135.7376  161.7727 C   0  0  0  0  0  0  0  0  0  0  0  0
  154.2049  137.1161  161.3145 N   0  0  0  0  0  0  0  0  0  0  0  0
  155.0829  138.1366  161.5975 C   0  0  0  0  0  0  0  0  0  0  0  0
  154.7829  139.2898  161.0675 N   0  0  0  0  0  0  0  0  0  0  0  0
  153.6012  139.0570  160.3717 C   0  0  0  0  0  0  0  0  0  0  0  0
  152.7303  139.8600  159.5749 C   0  0  0  0  0  0  0  0  0  0  0  0
  152.9145  141.1809  159.3155 N   0  0  0  0  0  0  0  0  0  0  0  0
  152.0279  141.9590  158.4647 C   0  0  0  0  0  0  0  0  0  0  0  0
  152.5888  143.3807  158.5363 C   0  0  1  0  0  0  0  0  0  0  0  0
  151.6213  144.5149  158.1445 C   0  0  0  0  0  0  0  0  0  0  0  0
  150.5656  144.8026  159.2224 C   0  0  0  0  0  0  0  0  0  0  0  0
  151.2310  145.0468  160.5853 C   0  0  1  0  0  0  0  0  0  0  0  0
  150.2346  145.2982  161.5538 O   0  0  0  0  0  0  0  0  0  0  0  0
  152.0547  143.8211  161.0073 C   0  0  0  0  0  0  0  0  0  0  0  0
  153.1420  143.4673  159.9689 C   0  0  1  0  0  0  0  0  0  0  0  0
  153.6885  142.0498  160.1986 C   0  0  0  0  0  0  0  0  0  0  0  0
  151.6320  139.2523  159.0534 N   0  0  0  0  0  0  0  0  0  0  0  0
  151.3968  137.9577  159.2815 C   0  0  0  0  0  0  0  0  0  0  0  0
  152.1186  137.0934  159.9948 N   0  0  0  0  0  0  0  0  0  0  0  0
  153.2226  137.6912  160.5262 C   0  0  0  0  0  0  0  0  0  0  0  0
  153.7167  136.6545  164.1464 C   0  0  0  0  0  0  0  0  0  0  0  0
  154.9144  136.9695  164.8878 O   0  0  0  0  0  0  0  0  0  0  0  0
  155.6937  136.2425  163.9151 C   0  0  0  0  0  0  0  0  0  0  0  0
  153.4763  133.7566  165.4865 H   0  0  0  0  0  0  0  0  0  0  0  0
  154.9295  133.4775  163.2693 H   0  0  0  0  0  0  0  0  0  0  0  0
  153.2214  133.7829  163.4203 H   0  0  0  0  0  0  0  0  0  0  0  0
  155.1215  135.2511  161.2561 H   0  0  0  0  0  0  0  0  0  0  0  0
  153.3963  135.2207  161.4302 H   0  0  0  0  0  0  0  0  0  0  0  0
  155.9598  138.0017  162.2132 H   0  0  0  0  0  0  0  0  0  0  0  0
  152.0253  141.5876  157.4396 H   0  0  0  0  0  0  0  0  0  0  0  0
  151.0116  141.9114  158.8567 H   0  0  0  0  0  0  0  0  0  0  0  0
  153.4372  143.4191  157.8509 H   0  0  0  0  0  0  0  0  0  0  0  0
  152.2006  145.4238  157.9772 H   0  0  0  0  0  0  0  0  0  0  0  0
  151.1381  144.2850  157.1946 H   0  0  0  0  0  0  0  0  0  0  0  0
  149.9744  145.6719  158.9318 H   0  0  0  0  0  0  0  0  0  0  0  0
  149.8696  143.9656  159.2908 H   0  0  0  0  0  0  0  0  0  0  0  0
  151.8769  145.9237  160.5287 H   0  0  0  0  0  0  0  0  0  0  0  0
  150.5996  145.8588  162.2216 H   0  0  0  0  0  0  0  0  0  0  0  0
  152.5205  143.9971  161.9776 H   0  0  0  0  0  0  0  0  0  0  0  0
  151.3832  142.9714  161.1426 H   0  0  0  0  0  0  0  0  0  0  0  0
  153.9401  144.2085  160.0267 H   0  0  0  0  0  0  0  0  0  0  0  0
  153.6126  141.7580  161.2471 H   0  0  0  0  0  0  0  0  0  0  0  0
  154.7377  141.9917  159.9075 H   0  0  0  0  0  0  0  0  0  0  0  0
  150.5019  137.5574  158.8283 H   0  0  0  0  0  0  0  0  0  0  0  0
  153.3575  137.5112  163.5739 H   0  0  0  0  0  0  0  0  0  0  0  0
  152.9256  136.2527  164.7808 H   0  0  0  0  0  0  0  0  0  0  0  0
  156.3816  135.5312  164.3734 H   0  0  0  0  0  0  0  0  0  0  0  0
  156.2235  136.9192  163.2436 H   0  0  0  0  0  0  0  0  0  0  0  0
  1  2  1  0  0  0  0
  1 27  1  0  0  0  0
  2  3  1  0  0  0  0
  2 28  1  0  0  0  0
  2 29  1  0  0  0  0
  3 26  1  0  0  0  0
  3  4  1  0  0  0  0
  3 24  1  0  0  0  0
  4  5  1  0  0  0  0
  4 30  1  0  0  0  0
  4 31  1  0  0  0  0
  5 23  1  0  0  0  0
  5  6  1  0  0  0  0
  6  7  2  0  0  0  0
  6 32  1  0  0  0  0
  7  8  1  0  0  0  0
  8 23  2  0  0  0  0
  8  9  1  0  0  0  0
  9 10  1  0  0  0  0
  9 20  2  0  0  0  0
 10 19  1  0  0  0  0
 10 11  1  0  0  0  0
 11 12  1  0  0  0  0
 11 33  1  0  0  0  0
 11 34  1  0  0  0  0
 12 18  1  0  0  0  0
 12 13  1  0  0  0  0
 12 35  1  0  0  0  0
 13 14  1  0  0  0  0
 13 36  1  0  0  0  0
 13 37  1  0  0  0  0
 14 15  1  0  0  0  0
 14 38  1  0  0  0  0
 14 39  1  0  0  0  0
 15 16  1  0  0  0  0
 15 17  1  0  0  0  0
 15 40  1  0  0  0  0
 16 41  1  0  0  0  0
 17 18  1  0  0  0  0
 17 42  1  0  0  0  0
 17 43  1  0  0  0  0
 18 19  1  0  0  0  0
 18 44  1  0  0  0  0
 19 45  1  0  0  0  0
 19 46  1  0  0  0  0
 20 21  1  0  0  0  0
 21 22  2  0  0  0  0
 21 47  1  0  0  0  0
 22 23  1  0  0  0  0
 24 25  1  0  0  0  0
 24 48  1  0  0  0  0
 24 49  1  0  0  0  0
 25 26  1  0  0  0  0
 26 50  1  0  0  0  0
 26 51  1  0  0  0  0
M  END
> <s_m_source_file>
AV-unprocessed.smi

> <i_m_source_file_index>
86

> <i_lp_mmshare_version>
43012

> <i_f3d_flags>
0

> <s_epik_input>
W0NIMl0xT1tDSDJdQzEoW0NIMl1bT0hdKVtDSDJdbihbY0hdbjIpYyhjMjMpbltjSF1uYzNOKFtDSDJdNClbQ0gyXVtDQEBIXShbQ0BIXTQ1KVtDSDJdW0NASF0oW09IXSlbQ0gyXVtDSDJdNQ==

> <s_epik_cmdline>
J2VwaWtfcHl0aG9uJywgJy1waCcsICc3LjAnLCAnLXRuJywgJzgnLCAnLW1hJywgJzIwMCcsICctbWV0YWxfYmluZGluZycsICctaW1hZScsICc8aW5maWxlLm1hZT4nLCAnLW9tYWUnLCAnPG91dGZpbGUubWFlPic=

> <r_lp_tautomer_probability>
1

> <r_epik_Ionization_Penalty>
0.00425795

> <r_epik_Ionization_Penalty_Charging>
0

> <r_epik_Ionization_Penalty_Neutral>
0.00425795

> <r_epik_State_Penalty>
0.00299946

> <r_epik_Charging_Adjusted_Penalty>
0.00299946

> <i_epik_Tot_Q>
0

> <i_epik_Tot_abs_Q>
0

> <r_epik_Metal_State_Penalty>
-0

> <b_epik_Metal_Only>
0

> <s_lp_Force_Field>
OPLS_2005

> <r_lp_Energy>
54.7951

> <b_lp_Chiralities_Consistent>
1

> <s_lp_Variant>
AV-unprocessed.smi:86-2

> <Gold.Version>
5.8.1

> <Gold.Id.Protein>
6NUR|6NUR_protein|mol2

> <Gold.PLP.Fitness>
56.6677

> <Gold.PLP.PLP>
-54.1192

> <Gold.PLP.part.hbond>
-2.9931

> <Gold.PLP.part.metal>
0.0000

> <Gold.PLP.part.buried>
-8.8406

> <Gold.PLP.part.nonpolar>
-44.3644

> <Gold.PLP.part.repulsive>
1.2092

> <Gold.PLP.ligand.clash>
0.0000

> <Gold.PLP.ligand.torsion>
0.4554

> <Gold.PLP.Chemscore.Hbond>
1.0000

> <Gold.PLP.Chemscore.CHOScore>
0.0000

> <Gold.PLP.Chemscore.Metal>
0.0000

> <Gold.Chemscore.Hbonds>
donor molecule, donor type, donor heavy atom, donor atom, acceptor molecule, acceptor atom, score
      P1  H  6896  6908       L1    22  1.00

> <Gold.PLP.Chemscore.Internal.Correction>
0.4594

> <Gold.Rescore>
     Score         DG    S(hbond)    S(metal)    S(lipo)     H(rot)  DE(clash)    DE(int)     intcor
     13.80     -17.01       0.99        0.00     130.69       2.76       1.79       1.41       ----

> <Gold.Chemscore.Fitness>
13.8037

> <Gold.Chemscore.DG>
-17.0086

> <Gold.Chemscore.ZeroCoef>
-5.4800

> <Gold.Chemscore.Hbond>
0.9912

> <Gold.Chemscore.Metal>
0.0000

> <Gold.Chemscore.Lipo>
130.6946

> <Gold.Chemscore.Internal_Hbond>
0.0000

> <Gold.Chemscore.DEClash>
1.7903

> <Gold.Chemscore.DEInternal>
1.4146

> <Gold.Chemscore.Rot>
2.7630

> <Gold.Chemscore.Internal.Correction>
   9.000000E+99

> <Gold.Chemscore.Hbonds>
donor molecule, donor type, donor heavy atom, donor atom, acceptor molecule, acceptor atom, score
      P1  H  6896  6908       L1    22  0.96

> <Gold.Chemscore.Hbond.Weighted>
-3.3107

> <Gold.Chemscore.Metal.Weighted>
-0.0000

> <Gold.Chemscore.Lipo.Weighted>
-15.2913

> <Gold.Chemscore.Internal_Hbond.Weighted>
0.0000

> <Gold.Chemscore.DEClash.Weighted>
1.7903

> <Gold.Chemscore.DEInternal.Weighted>
1.4146

> <Gold.Chemscore.Rot.Weighted>
7.0734

> <Gold.Chemscore.Internal.Correction.Weighted>
   9.000000E+99

> <Gold.Protein.RotatedTorsions>
[ 6907 6896 6895 6894 ] final -104.65 input  -60.11 | X-H torsion
[ 7974 7965 7964 7962 ] final  107.19 input  175.53 | X-H torsion
[ 8008 7997 7996 7995 ] final  155.81 input   59.86 | X-H torsion
[ 10167 10162 10161 10158 ] final -171.17 input  -65.29 | X-H torsion
[ 10718 10713 10712 10709 ] final   26.93 input   66.30 | X-H torsion
[ 10763 10752 10751 10750 ] final   -4.55 input  -60.55 | X-H torsion
[ 11005 11000 10999 10996 ] final -150.35 input  -57.11 | X-H torsion

> <Gold.Protein.ActiveResidues>
 VAL166  LYS551  ARG553  GLY616  TRP617  ASP618  TYR619  PRO620  LYS621  CYS622 
 ASP623  PHE694  ASN695  SER759  ASP760  ASP761  ALA762  ILE779  LEU786  VAL792 
 PHE793  MET794  SER795  GLU796  ALA797  LYS798  CYS799  TRP800  GLU811  SER814 

> <Gold.Protein.RotatedAtoms>
  150.7297  134.0246  159.3712 H   0  0  0  0  0  0  0  0  0  0  0  0  # atno 6907 bound_to 6896
  151.8212  135.0649  160.0434 H   0  0  0  0  0  0  0  0  0  0  0  0  # atno 6908 bound_to 6896
  152.3002  133.5612  159.5650 H   0  0  0  0  0  0  0  0  0  0  0  0  # atno 6909 bound_to 6896
  145.2968  139.2582  143.3835 H   0  0  0  0  0  0  0  0  0  0  0  0  # atno 7974 bound_to 7965
  156.2457  140.1929  156.6859 H   0  0  0  0  0  0  0  0  0  0  0  0  # atno 8008 bound_to 7997
  154.6287  140.0598  156.9732 H   0  0  0  0  0  0  0  0  0  0  0  0  # atno 8009 bound_to 7997
  155.1745  140.3271  155.4389 H   0  0  0  0  0  0  0  0  0  0  0  0  # atno 8010 bound_to 7997
  139.5818  144.1406  152.1525 H   0  0  0  0  0  0  0  0  0  0  0  0  # atno 10167 bound_to 10162
  157.2134  130.6945  149.6238 H   0  0  0  0  0  0  0  0  0  0  0  0  # atno 10718 bound_to 10713
  153.3864  135.7000  153.6527 H   0  0  0  0  0  0  0  0  0  0  0  0  # atno 10763 bound_to 10752
  153.5117  135.3630  155.2590 H   0  0  0  0  0  0  0  0  0  0  0  0  # atno 10764 bound_to 10752
  154.8698  135.4136  154.3173 H   0  0  0  0  0  0  0  0  0  0  0  0  # atno 10765 bound_to 10752
  140.7412  134.3512  157.5147 H   0  0  0  0  0  0  0  0  0  0  0  0  # atno 11005 bound_to 11000
  146.3166  140.3473  142.8653 LP  0  0  0  0  0  0  0  0  0  0  0  0  # atno 17320 bound_to 7965
  144.9127  140.7776  143.5798 LP  0  0  0  0  0  0  0  0  0  0  0  0  # atno 17321 bound_to 7965
  140.0961  144.5580  150.7021 LP  0  0  0  0  0  0  0  0  0  0  0  0  # atno 17342 bound_to 10162
  140.7095  143.2494  151.4623 LP  0  0  0  0  0  0  0  0  0  0  0  0  # atno 17343 bound_to 10162
  155.9688  130.4543  150.5847 LP  0  0  0  0  0  0  0  0  0  0  0  0  # atno 17370 bound_to 10713
  157.3649  131.0756  151.1606 LP  0  0  0  0  0  0  0  0  0  0  0  0  # atno 17371 bound_to 10713
  139.8806  134.9082  156.2961 LP  0  0  0  0  0  0  0  0  0  0  0  0  # atno 17394 bound_to 11000
  140.9835  133.7252  156.0707 LP  0  0  0  0  0  0  0  0  0  0  0  0  # atno 17395 bound_to 11000

$$$$
