AV-unprocessed.smi:2743|AV-procd|sdf|10566|dock5
  -GOLD-   2272015 23D 1   1.00000     0.00000
 Structure written by MMmdl.
 38 39  0  0  0  0  0  0  0  0  1 V2000
  154.3688  136.3108  156.9697 N   0  0  0  0  0  0  0  0  0  0  0  0
  153.9494  136.6928  157.9786 C   0  0  0  0  0  0  0  0  0  0  0  0
  153.4129  137.1775  159.2615 C   0  0  0  0  0  0  0  0  0  0  0  0
  152.0058  137.7652  159.1510 C   0  0  0  0  0  0  0  0  0  0  0  0
  151.0530  137.2216  159.7093 O   0  0  0  0  0  0  0  0  0  0  0  0
  151.8917  138.8787  158.4111 N   0  0  0  0  0  0  0  0  0  0  0  0
  150.6496  139.6043  158.1449 C   0  0  0  0  0  0  0  0  0  0  0  0
  150.8381  140.8092  157.1744 C   0  0  0  0  0  0  0  0  0  0  0  0
  151.4392  141.9910  157.9686 C   0  0  0  0  0  0  0  0  0  0  0  0
  151.9475  141.7821  159.2734 C   0  0  0  0  0  0  0  0  0  0  0  0
  152.5041  142.8655  159.9808 C   0  0  0  0  0  0  0  0  0  0  0  0
  152.5906  144.1132  159.4774 N   0  0  0  0  0  0  0  0  0  0  0  0
  152.1175  144.3183  158.2315 C   0  0  0  0  0  0  0  0  0  0  0  0
  151.5409  143.3035  157.4420 C   0  0  0  0  0  0  0  0  0  0  0  0
  151.7429  140.4098  155.9661 C   0  0  0  0  0  0  0  0  0  0  0  0
  151.1132  139.3768  155.0143 C   0  0  0  0  0  0  0  0  0  0  0  0
  149.7626  139.8674  154.4827 C   0  0  0  0  0  0  0  0  0  0  0  0
  148.8202  140.2200  155.6384 C   0  0  0  0  0  0  0  0  0  0  0  0
  149.4590  141.2434  156.5958 C   0  0  0  0  0  0  0  0  0  0  0  0
  153.4141  136.3434  159.9639 H   0  0  0  0  0  0  0  0  0  0  0  0
  154.0927  137.9371  159.6481 H   0  0  0  0  0  0  0  0  0  0  0  0
  152.7294  139.2507  157.9873 H   0  0  0  0  0  0  0  0  0  0  0  0
  149.8744  138.9216  157.7985 H   0  0  0  0  0  0  0  0  0  0  0  0
  150.2921  139.9657  159.1094 H   0  0  0  0  0  0  0  0  0  0  0  0
  151.9226  140.8069  159.7354 H   0  0  0  0  0  0  0  0  0  0  0  0
  152.8948  142.7227  160.9773 H   0  0  0  0  0  0  0  0  0  0  0  0
  152.2043  145.3240  157.8475 H   0  0  0  0  0  0  0  0  0  0  0  0
  151.1968  143.5590  156.4521 H   0  0  0  0  0  0  0  0  0  0  0  0
  151.9586  141.2986  155.3713 H   0  0  0  0  0  0  0  0  0  0  0  0
  152.7071  140.0330  156.3072 H   0  0  0  0  0  0  0  0  0  0  0  0
  151.7886  139.1909  154.1788 H   0  0  0  0  0  0  0  0  0  0  0  0
  150.9892  138.4181  155.5172 H   0  0  0  0  0  0  0  0  0  0  0  0
  149.9137  140.7450  153.8526 H   0  0  0  0  0  0  0  0  0  0  0  0
  149.3099  139.1045  153.8490 H   0  0  0  0  0  0  0  0  0  0  0  0
  147.8896  140.6243  155.2394 H   0  0  0  0  0  0  0  0  0  0  0  0
  148.5460  139.3155  156.1813 H   0  0  0  0  0  0  0  0  0  0  0  0
  148.7488  141.4524  157.3954 H   0  0  0  0  0  0  0  0  0  0  0  0
  149.5821  142.1829  156.0544 H   0  0  0  0  0  0  0  0  0  0  0  0
  1  2  3  0  0  0  0
  2  3  1  0  0  0  0
  3  4  1  0  0  0  0
  3 20  1  0  0  0  0
  3 21  1  0  0  0  0
  4  5  2  0  0  0  0
  4  6  1  0  0  0  0
  6  7  1  0  0  0  0
  6 22  1  0  0  0  0
  7  8  1  0  0  0  0
  7 23  1  0  0  0  0
  7 24  1  0  0  0  0
  8 19  1  0  0  0  0
  8  9  1  0  0  0  0
  8 15  1  0  0  0  0
  9 14  1  0  0  0  0
  9 10  2  0  0  0  0
 10 11  1  0  0  0  0
 10 25  1  0  0  0  0
 11 12  2  0  0  0  0
 11 26  1  0  0  0  0
 12 13  1  0  0  0  0
 13 14  2  0  0  0  0
 13 27  1  0  0  0  0
 14 28  1  0  0  0  0
 15 16  1  0  0  0  0
 15 29  1  0  0  0  0
 15 30  1  0  0  0  0
 16 17  1  0  0  0  0
 16 31  1  0  0  0  0
 16 32  1  0  0  0  0
 17 18  1  0  0  0  0
 17 33  1  0  0  0  0
 17 34  1  0  0  0  0
 18 19  1  0  0  0  0
 18 35  1  0  0  0  0
 18 36  1  0  0  0  0
 19 37  1  0  0  0  0
 19 38  1  0  0  0  0
M  END
> <s_m_source_file>
AV-unprocessed.smi

> <i_m_source_file_index>
2743

> <i_lp_mmshare_version>
43012

> <i_f3d_flags>
0

> <s_epik_input>
TiNDW0NIMl1DKD1PKVtOSF1bQ0gyXUMxKFtDSDJdW0NIMl1bQ0gyXVtDSDJdW0NIMl0xKWMyW2NIXVtjSF1uW2NIXVtjSF0y

> <s_epik_cmdline>
J2VwaWtfcHl0aG9uJywgJy1waCcsICc3LjAnLCAnLXRuJywgJzgnLCAnLW1hJywgJzIwMCcsICctbWV0YWxfYmluZGluZycsICctaW1hZScsICc8aW5maWxlLm1hZT4nLCAnLW9tYWUnLCAnPG91dGZpbGUubWFlPic=

> <r_epik_Ionization_Penalty>
0.0541122

> <r_epik_Ionization_Penalty_Charging>
0

> <r_epik_Ionization_Penalty_Neutral>
0.0541122

> <r_epik_State_Penalty>
0.0465294

> <r_epik_Charging_Adjusted_Penalty>
0.0465294

> <i_epik_Tot_Q>
0

> <i_epik_Tot_abs_Q>
0

> <r_epik_Metal_State_Penalty>
0.042555

> <b_epik_Metal_Only>
0

> <s_lp_Force_Field>
OPLS_2005

> <r_lp_Energy>
19.5313

> <b_lp_Chiralities_Consistent>
1

> <s_lp_Variant>
AV-unprocessed.smi:2743-1

> <Gold.Version>
5.8.1

> <Gold.Id.Protein>
6NUR|6NUR_protein|mol2

> <Gold.PLP.Fitness>
40.2430

> <Gold.PLP.PLP>
-35.6084

> <Gold.PLP.part.hbond>
-1.8283

> <Gold.PLP.part.metal>
0.0000

> <Gold.PLP.part.buried>
-4.7343

> <Gold.PLP.part.nonpolar>
-28.4677

> <Gold.PLP.part.repulsive>
0.0735

> <Gold.PLP.ligand.clash>
0.0000

> <Gold.PLP.ligand.torsion>
0.5337

> <Gold.PLP.Chemscore.Hbond>
1.8938

> <Gold.PLP.Chemscore.CHOScore>
0.0000

> <Gold.PLP.Chemscore.Metal>
0.0000

> <Gold.Chemscore.Hbonds>
donor molecule, donor type, donor heavy atom, donor atom, acceptor molecule, acceptor atom, score
      P1  H  6896  6907       L1     5  0.83
      P1  H 10752 10764       L1     1  1.00

> <Gold.PLP.Chemscore.Internal.Correction>
0.0207

> <Gold.Rescore>
     Score         DG    S(hbond)    S(metal)    S(lipo)     H(rot)  DE(clash)    DE(int)     intcor
     18.21     -18.57       1.96        0.00      95.13       1.79       0.02       0.33       ----

> <Gold.Chemscore.Fitness>
18.2087

> <Gold.Chemscore.DG>
-18.5681

> <Gold.Chemscore.ZeroCoef>
-5.4800

> <Gold.Chemscore.Hbond>
1.9579

> <Gold.Chemscore.Metal>
0.0000

> <Gold.Chemscore.Lipo>
95.1276

> <Gold.Chemscore.Internal_Hbond>
0.0000

> <Gold.Chemscore.DEClash>
0.0249

> <Gold.Chemscore.DEInternal>
0.3345

> <Gold.Chemscore.Rot>
1.7895

> <Gold.Chemscore.Internal.Correction>
   9.000000E+99

> <Gold.Chemscore.Hbonds>
donor molecule, donor type, donor heavy atom, donor atom, acceptor molecule, acceptor atom, score
      P1  H  6896  6907       L1     5  0.68
      P1  H 10752 10764       L1     1  0.95

> <Gold.Chemscore.Hbond.Weighted>
-6.5394

> <Gold.Chemscore.Metal.Weighted>
-0.0000

> <Gold.Chemscore.Lipo.Weighted>
-11.1299

> <Gold.Chemscore.Internal_Hbond.Weighted>
0.0000

> <Gold.Chemscore.DEClash.Weighted>
0.0249

> <Gold.Chemscore.DEInternal.Weighted>
0.3345

> <Gold.Chemscore.Rot.Weighted>
4.5812

> <Gold.Chemscore.Internal.Correction.Weighted>
   9.000000E+99

> <Gold.Protein.RotatedTorsions>
[ 6907 6896 6895 6894 ] final  -14.04 input  -60.11 | X-H torsion
[ 7974 7965 7964 7962 ] final    1.70 input  175.53 | X-H torsion
[ 8008 7997 7996 7995 ] final -118.70 input   59.86 | X-H torsion
[ 10167 10162 10161 10158 ] final  -75.62 input  -65.29 | X-H torsion
[ 10718 10713 10712 10709 ] final  159.40 input   66.30 | X-H torsion
[ 10763 10752 10751 10750 ] final   40.86 input  -60.55 | X-H torsion
[ 11005 11000 10999 10996 ] final  169.46 input  -57.11 | X-H torsion

> <Gold.Protein.ActiveResidues>
 VAL166  LYS551  ARG553  GLY616  TRP617  ASP618  TYR619  PRO620  LYS621  CYS622 
 ASP623  PHE694  ASN695  SER759  ASP760  ASP761  ALA762  ILE779  LEU786  VAL792 
 PHE793  MET794  SER795  GLU796  ALA797  LYS798  CYS799  TRP800  GLU811  SER814 

> <Gold.Protein.RotatedAtoms>
  151.3455  135.0873  159.9385 H   0  0  0  0  0  0  0  0  0  0  0  0  # atno 6907 bound_to 6896
  152.5200  133.9404  159.7634 H   0  0  0  0  0  0  0  0  0  0  0  0  # atno 6908 bound_to 6896
  150.9770  133.6231  159.2758 H   0  0  0  0  0  0  0  0  0  0  0  0  # atno 6909 bound_to 6896
  146.2441  140.0948  142.8350 H   0  0  0  0  0  0  0  0  0  0  0  0  # atno 7974 bound_to 7965
  155.1039  140.0396  157.2705 H   0  0  0  0  0  0  0  0  0  0  0  0  # atno 8008 bound_to 7997
  154.6737  140.2618  155.6955 H   0  0  0  0  0  0  0  0  0  0  0  0  # atno 8009 bound_to 7997
  156.2668  140.2792  156.1255 H   0  0  0  0  0  0  0  0  0  0  0  0  # atno 8010 bound_to 7997
  140.4927  143.2377  151.7881 H   0  0  0  0  0  0  0  0  0  0  0  0  # atno 10167 bound_to 10162
  157.1647  131.0595  151.2214 H   0  0  0  0  0  0  0  0  0  0  0  0  # atno 10718 bound_to 10713
  152.9924  135.6179  154.2694 H   0  0  0  0  0  0  0  0  0  0  0  0  # atno 10763 bound_to 10752
  154.2427  135.2788  155.2849 H   0  0  0  0  0  0  0  0  0  0  0  0  # atno 10764 bound_to 10752
  154.5355  135.5776  153.6852 H   0  0  0  0  0  0  0  0  0  0  0  0  # atno 10765 bound_to 10752
  140.2980  134.7619  157.3893 H   0  0  0  0  0  0  0  0  0  0  0  0  # atno 11005 bound_to 11000
  145.0619  140.9094  143.4933 LP  0  0  0  0  0  0  0  0  0  0  0  0  # atno 17320 bound_to 7965
  145.1065  139.2786  143.5659 LP  0  0  0  0  0  0  0  0  0  0  0  0  # atno 17321 bound_to 7965
  139.4854  144.4628  151.9520 LP  0  0  0  0  0  0  0  0  0  0  0  0  # atno 17342 bound_to 10162
  140.3715  144.2849  150.5919 LP  0  0  0  0  0  0  0  0  0  0  0  0  # atno 17343 bound_to 10162
  157.4100  130.7380  149.6831 LP  0  0  0  0  0  0  0  0  0  0  0  0  # atno 17370 bound_to 10713
  155.9748  130.4098  150.3897 LP  0  0  0  0  0  0  0  0  0  0  0  0  # atno 17371 bound_to 10713
  140.1135  134.5314  155.8245 LP  0  0  0  0  0  0  0  0  0  0  0  0  # atno 17394 bound_to 11000
  141.2134  133.6732  156.6734 LP  0  0  0  0  0  0  0  0  0  0  0  0  # atno 17395 bound_to 11000

$$$$
