AV-unprocessed.smi:781|AV-procd|sdf|3712|dock6
  -GOLD-   22720 1133D 1   1.00000     0.00000
 Structure written by MMmdl.
 38 40  0  0  0  0  0  0  0  0  1 V2000
  152.4104  136.4053  157.4078 C   0  0  0  0  0  0  0  0  0  0  0  0
  151.2636  135.7521  156.7155 C   0  0  0  0  0  0  0  0  0  0  0  0
  150.6853  135.9420  155.4920 C   0  0  0  0  0  0  0  0  0  0  0  0
  149.6415  134.9787  155.4791 C   0  0  0  0  0  0  0  0  0  0  0  0
  148.7853  134.8494  154.3564 N   0  0  0  0  0  0  0  0  0  0  0  0
  147.6279  134.1706  154.2829 C   0  0  0  0  0  0  0  0  0  0  0  0
  147.1105  133.5457  155.2094 O   0  0  0  0  0  0  0  0  0  0  0  0
  147.0897  134.2593  153.0588 N   0  0  0  0  0  0  0  0  0  0  0  0
  145.8350  133.6312  152.6519 C   0  0  1  0  0  0  0  0  0  0  0  0
  144.6261  134.6010  152.6601 C   0  0  1  0  0  0  0  0  0  0  0  0
  144.9329  135.8939  151.8742 C   0  0  0  0  0  0  0  0  0  0  0  0
  144.9854  135.3971  150.4174 C   0  0  0  0  0  0  0  0  0  0  0  0
  144.6702  133.8948  150.5576 C   0  0  2  0  0  0  0  0  0  0  0  0
  143.6674  133.9009  151.7056 C   0  0  0  0  0  0  0  0  0  0  0  0
  145.8893  133.1683  151.1717 C   0  0  2  0  0  0  0  0  0  0  0  0
  145.8188  131.6380  151.0058 C   0  0  0  0  0  0  0  0  0  0  0  0
  146.8573  131.0215  151.7374 O   0  0  0  0  0  0  0  0  0  0  0  0
  149.5882  134.2645  156.5931 N   0  0  0  0  0  0  0  0  0  0  0  0
  150.6281  134.7562  157.3909 O   0  0  0  0  0  0  0  0  0  0  0  0
  152.6224  137.3823  156.9732 H   0  0  0  0  0  0  0  0  0  0  0  0
  153.3094  135.7951  157.3236 H   0  0  0  0  0  0  0  0  0  0  0  0
  152.1950  136.5469  158.4672 H   0  0  0  0  0  0  0  0  0  0  0  0
  150.9660  136.6557  154.7316 H   0  0  0  0  0  0  0  0  0  0  0  0
  149.0881  135.3220  153.5179 H   0  0  0  0  0  0  0  0  0  0  0  0
  147.5811  134.7912  152.3557 H   0  0  0  0  0  0  0  0  0  0  0  0
  145.6249  132.7825  153.3060 H   0  0  0  0  0  0  0  0  0  0  0  0
  144.2224  134.7844  153.6564 H   0  0  0  0  0  0  0  0  0  0  0  0
  144.1244  136.6156  151.9982 H   0  0  0  0  0  0  0  0  0  0  0  0
  145.8546  136.3860  152.1850 H   0  0  0  0  0  0  0  0  0  0  0  0
  144.2271  135.8991  149.8152 H   0  0  0  0  0  0  0  0  0  0  0  0
  145.9542  135.5780  149.9505 H   0  0  0  0  0  0  0  0  0  0  0  0
  144.3087  133.4448  149.6323 H   0  0  0  0  0  0  0  0  0  0  0  0
  143.3746  132.9043  152.0395 H   0  0  0  0  0  0  0  0  0  0  0  0
  142.7677  134.4808  151.4915 H   0  0  0  0  0  0  0  0  0  0  0  0
  146.7972  133.5197  150.6772 H   0  0  0  0  0  0  0  0  0  0  0  0
  144.8594  131.2420  151.3397 H   0  0  0  0  0  0  0  0  0  0  0  0
  145.9315  131.3655  149.9562 H   0  0  0  0  0  0  0  0  0  0  0  0
  147.5579  130.8055  151.1410 H   0  0  0  0  0  0  0  0  0  0  0  0
  1  2  1  0  0  0  0
  1 20  1  0  0  0  0
  1 21  1  0  0  0  0
  1 22  1  0  0  0  0
  2 19  1  0  0  0  0
  2  3  2  0  0  0  0
  3  4  1  0  0  0  0
  3 23  1  0  0  0  0
  4  5  1  0  0  0  0
  4 18  2  0  0  0  0
  5  6  1  0  0  0  0
  5 24  1  0  0  0  0
  6  7  2  0  0  0  0
  6  8  1  0  0  0  0
  8  9  1  0  0  0  0
  8 25  1  0  0  0  0
  9 15  1  0  0  0  0
  9 10  1  0  0  0  0
  9 26  1  0  0  0  0
 10 14  1  0  0  0  0
 10 11  1  0  0  0  0
 10 27  1  0  0  0  0
 11 12  1  0  0  0  0
 11 28  1  0  0  0  0
 11 29  1  0  0  0  0
 12 13  1  0  0  0  0
 12 30  1  0  0  0  0
 12 31  1  0  0  0  0
 13 14  1  0  0  0  0
 13 15  1  0  0  0  0
 13 32  1  0  0  0  0
 14 33  1  0  0  0  0
 14 34  1  0  0  0  0
 15 16  1  0  0  0  0
 15 35  1  0  0  0  0
 16 17  1  0  0  0  0
 16 36  1  0  0  0  0
 16 37  1  0  0  0  0
 17 38  1  0  0  0  0
 18 19  1  0  0  0  0
M  END
> <s_m_source_file>
AV-unprocessed.smi

> <i_m_source_file_index>
781

> <i_lp_mmshare_version>
43012

> <i_f3d_flags>
0

> <s_epik_input>
W0NIM11jMVtjSF1jKG5vMSlbTkhdQyg9TylbTkhdW0NASF0oW0NAQEhdMjMpW0NASF0oW0NIMl1bT0hdKVtDQEBIXShbQ0gyXTMpW0NIMl1bQ0gyXTI=

> <s_epik_cmdline>
J2VwaWtfcHl0aG9uJywgJy1waCcsICc3LjAnLCAnLXRuJywgJzgnLCAnLW1hJywgJzIwMCcsICctbWV0YWxfYmluZGluZycsICctaW1hZScsICc8aW5maWxlLm1hZT4nLCAnLW9tYWUnLCAnPG91dGZpbGUubWFlPic=

> <r_lp_tautomer_probability>
1

> <r_epik_Ionization_Penalty>
2.32222e-05

> <r_epik_Ionization_Penalty_Charging>
0

> <r_epik_Ionization_Penalty_Neutral>
2.32222e-05

> <r_epik_State_Penalty>
-0

> <r_epik_Charging_Adjusted_Penalty>
0

> <i_epik_Tot_Q>
0

> <i_epik_Tot_abs_Q>
0

> <r_epik_Metal_State_Penalty>
-0

> <b_epik_Metal_Only>
0

> <s_lp_Force_Field>
OPLS_2005

> <r_lp_Energy>
46.3898

> <b_lp_Chiralities_Consistent>
1

> <s_lp_Variant>
AV-unprocessed.smi:781-6

> <Gold.Version>
5.8.1

> <Gold.Id.Protein>
6NUR|6NUR_protein|mol2

> <Gold.PLP.Fitness>
37.1227

> <Gold.PLP.PLP>
-27.4601

> <Gold.PLP.part.hbond>
-3.9624

> <Gold.PLP.part.metal>
0.0000

> <Gold.PLP.part.buried>
-4.5212

> <Gold.PLP.part.nonpolar>
-19.7145

> <Gold.PLP.part.repulsive>
0.0233

> <Gold.PLP.ligand.clash>
0.0000

> <Gold.PLP.ligand.torsion>
0.3792

> <Gold.PLP.Chemscore.Hbond>
3.4680

> <Gold.PLP.Chemscore.CHOScore>
0.0000

> <Gold.PLP.Chemscore.Metal>
0.0000

> <Gold.Chemscore.Hbonds>
donor molecule, donor type, donor heavy atom, donor atom, acceptor molecule, acceptor atom, score
      L1  H     5    24       P1  7948  1.00
      L1  H     8    25       P1  7948  1.00
      L1  H    17    38       P1 10747  1.00
      P1  H  6896  6908       L1    19  0.46

> <Gold.PLP.Chemscore.Internal.Correction>
0.0171

> <Gold.Rescore>
     Score         DG    S(hbond)    S(metal)    S(lipo)     H(rot)  DE(clash)    DE(int)     intcor
     17.58     -19.25       3.47        0.00      59.44       1.86       0.05       1.62       ----

> <Gold.Chemscore.Fitness>
17.5837

> <Gold.Chemscore.DG>
-19.2526

> <Gold.Chemscore.ZeroCoef>
-5.4800

> <Gold.Chemscore.Hbond>
3.4661

> <Gold.Chemscore.Metal>
0.0000

> <Gold.Chemscore.Lipo>
59.4360

> <Gold.Chemscore.Internal_Hbond>
0.0000

> <Gold.Chemscore.DEClash>
0.0513

> <Gold.Chemscore.DEInternal>
1.6176

> <Gold.Chemscore.Rot>
1.8587

> <Gold.Chemscore.Internal.Correction>
   9.000000E+99

> <Gold.Chemscore.Hbonds>
donor molecule, donor type, donor heavy atom, donor atom, acceptor molecule, acceptor atom, score
      L1  H     5    24       P1  7948  0.50
      L1  H     8    25       P1  7948  0.80
      L1  H    17    38       P1 10747  1.00
      P1  H  6896  6908       L1    19  0.41

> <Gold.Chemscore.Hbond.Weighted>
-11.5769

> <Gold.Chemscore.Metal.Weighted>
-0.0000

> <Gold.Chemscore.Lipo.Weighted>
-6.9540

> <Gold.Chemscore.Internal_Hbond.Weighted>
0.0000

> <Gold.Chemscore.DEClash.Weighted>
0.0513

> <Gold.Chemscore.DEInternal.Weighted>
1.6176

> <Gold.Chemscore.Rot.Weighted>
4.7583

> <Gold.Chemscore.Internal.Correction.Weighted>
   9.000000E+99

> <Gold.Protein.RotatedTorsions>
[ 6907 6896 6895 6894 ] final  132.56 input  -60.11 | X-H torsion
[ 7974 7965 7964 7962 ] final   91.09 input  175.53 | X-H torsion
[ 8008 7997 7996 7995 ] final -123.74 input   59.86 | X-H torsion
[ 10167 10162 10161 10158 ] final   12.00 input  -65.29 | X-H torsion
[ 10718 10713 10712 10709 ] final    9.82 input   66.30 | X-H torsion
[ 10763 10752 10751 10750 ] final  -99.05 input  -60.55 | X-H torsion
[ 11005 11000 10999 10996 ] final -128.88 input  -57.11 | X-H torsion

> <Gold.Protein.ActiveResidues>
 VAL166  LYS551  ARG553  GLY616  TRP617  ASP618  TYR619  PRO620  LYS621  CYS622 
 ASP623  PHE694  ASN695  SER759  ASP760  ASP761  ALA762  ILE779  LEU786  VAL792 
 PHE793  MET794  SER795  GLU796  ALA797  LYS798  CYS799  TRP800  GLU811  SER814 

> <Gold.Protein.RotatedAtoms>
  152.3311  133.5960  159.5810 H   0  0  0  0  0  0  0  0  0  0  0  0  # atno 6907 bound_to 6896
  150.7424  133.9866  159.3602 H   0  0  0  0  0  0  0  0  0  0  0  0  # atno 6908 bound_to 6896
  151.7740  135.0779  160.0415 H   0  0  0  0  0  0  0  0  0  0  0  0  # atno 6909 bound_to 6896
  145.5103  139.2277  143.2728 H   0  0  0  0  0  0  0  0  0  0  0  0  # atno 7974 bound_to 7965
  155.1855  140.0411  157.2890 H   0  0  0  0  0  0  0  0  0  0  0  0  # atno 8008 bound_to 7997
  154.6174  140.2492  155.7564 H   0  0  0  0  0  0  0  0  0  0  0  0  # atno 8009 bound_to 7997
  156.2414  140.2902  156.0466 H   0  0  0  0  0  0  0  0  0  0  0  0  # atno 8010 bound_to 7997
  140.6096  143.8436  150.7051 H   0  0  0  0  0  0  0  0  0  0  0  0  # atno 10167 bound_to 10162
  156.9718  130.5972  149.5669 H   0  0  0  0  0  0  0  0  0  0  0  0  # atno 10718 bound_to 10713
  154.7466  135.4986  153.9214 H   0  0  0  0  0  0  0  0  0  0  0  0  # atno 10763 bound_to 10752
  153.1098  135.6706  153.9529 H   0  0  0  0  0  0  0  0  0  0  0  0  # atno 10764 bound_to 10752
  153.9291  135.3080  155.3425 H   0  0  0  0  0  0  0  0  0  0  0  0  # atno 10765 bound_to 10752
  140.9479  134.1105  157.4090 H   0  0  0  0  0  0  0  0  0  0  0  0  # atno 11005 bound_to 11000
  146.2171  140.5909  142.9034 LP  0  0  0  0  0  0  0  0  0  0  0  0  # atno 17320 bound_to 7965
  144.7731  140.5681  143.6656 LP  0  0  0  0  0  0  0  0  0  0  0  0  # atno 17321 bound_to 7965
  140.2001  143.3966  152.1798 LP  0  0  0  0  0  0  0  0  0  0  0  0  # atno 17342 bound_to 10162
  139.5351  144.7201  151.4921 LP  0  0  0  0  0  0  0  0  0  0  0  0  # atno 17343 bound_to 10162
  156.0279  130.5372  150.8457 LP  0  0  0  0  0  0  0  0  0  0  0  0  # atno 17370 bound_to 10713
  157.5587  131.0945  150.9591 LP  0  0  0  0  0  0  0  0  0  0  0  0  # atno 17371 bound_to 10713
  139.8839  135.0057  156.6330 LP  0  0  0  0  0  0  0  0  0  0  0  0  # atno 17394 bound_to 11000
  140.7644  133.8791  155.8443 LP  0  0  0  0  0  0  0  0  0  0  0  0  # atno 17395 bound_to 11000

$$$$
