AV-unprocessed.smi:1512|AV-procd|sdf|6107|dock1
  -GOLD-   22720 6243D 1   1.00000     0.00000
 Structure written by MMmdl.
 44 46  0  0  0  0  0  0  0  0  3 V2000
  148.0950  134.1876  154.1216 C   0  0  0  0  0  0  0  0  0  0  0  0
  146.7117  134.7947  153.8360 C   0  0  1  0  0  0  0  0  0  0  0  0
  146.8984  136.0988  153.2021 N   0  0  0  0  0  0  0  0  0  0  0  0
  146.5002  137.2806  153.6978 C   0  0  0  0  0  0  0  0  0  0  0  0
  145.9724  137.4133  154.8026 O   0  0  0  0  0  0  0  0  0  0  0  0
  146.7415  138.5023  152.8008 C   0  0  0  0  0  0  0  0  0  0  0  0
  147.3823  139.6170  153.5197 N   0  0  0  0  0  0  0  0  0  0  0  0
  146.7198  140.8587  153.4950 C   0  0  0  0  0  0  0  0  0  0  0  0
  147.2229  141.9422  154.1034 C   0  0  0  0  0  0  0  0  0  0  0  0
  148.4785  141.8124  154.8015 C   0  0  0  0  0  0  0  0  0  0  0  0
  149.1329  140.6289  154.8408 C   0  0  0  0  0  0  0  0  0  0  0  0
  150.3837  140.5672  155.5615 N   0  3  0  0  0  0  0  0  0  0  0  0
  151.3257  139.9587  155.0633 O   0  0  0  0  0  0  0  0  0  0  0  0
  150.4561  141.1159  156.6572 O   0  5  0  0  0  0  0  0  0  0  0  0
  148.5785  139.4386  154.1634 C   0  0  0  0  0  0  0  0  0  0  0  0
  149.1490  138.3457  154.1584 O   0  0  0  0  0  0  0  0  0  0  0  0
  145.8445  133.8861  152.9294 C   0  0  1  0  0  0  0  0  0  0  0  0
  144.4267  134.4490  152.6640 C   0  0  0  0  0  0  0  0  0  0  0  0
  144.3262  134.4503  151.1282 C   0  0  2  0  0  0  0  0  0  0  0  0
  144.2502  133.0008  150.6156 C   0  0  0  0  0  0  0  0  0  0  0  0
  145.6843  132.4878  150.8418 C   0  0  0  0  0  0  0  0  0  0  0  0
  146.3818  133.7015  151.4853 C   0  0  1  0  0  0  0  0  0  0  0  0
  145.7379  134.8578  150.7286 C   0  0  0  0  0  0  0  0  0  0  0  0
  148.0146  133.2344  154.6436 H   0  0  0  0  0  0  0  0  0  0  0  0
  148.6906  134.8509  154.7500 H   0  0  0  0  0  0  0  0  0  0  0  0
  148.6513  134.0150  153.1997 H   0  0  0  0  0  0  0  0  0  0  0  0
  146.2010  134.9158  154.7925 H   0  0  0  0  0  0  0  0  0  0  0  0
  147.3292  136.0960  152.2890 H   0  0  0  0  0  0  0  0  0  0  0  0
  147.3483  138.1836  151.9523 H   0  0  0  0  0  0  0  0  0  0  0  0
  145.7971  138.8379  152.3676 H   0  0  0  0  0  0  0  0  0  0  0  0
  145.7889  140.8754  152.9469 H   0  0  0  0  0  0  0  0  0  0  0  0
  146.7029  142.8884  154.0700 H   0  0  0  0  0  0  0  0  0  0  0  0
  148.8868  142.6782  155.3025 H   0  0  0  0  0  0  0  0  0  0  0  0
  145.7680  132.9090  153.4096 H   0  0  0  0  0  0  0  0  0  0  0  0
  143.6473  133.8453  153.1300 H   0  0  0  0  0  0  0  0  0  0  0  0
  144.3224  135.4677  153.0397 H   0  0  0  0  0  0  0  0  0  0  0  0
  143.5343  135.0931  150.7426 H   0  0  0  0  0  0  0  0  0  0  0  0
  143.5071  132.4113  151.1539 H   0  0  0  0  0  0  0  0  0  0  0  0
  143.9966  132.9745  149.5551 H   0  0  0  0  0  0  0  0  0  0  0  0
  145.7168  131.6015  151.4763 H   0  0  0  0  0  0  0  0  0  0  0  0
  146.1535  132.2326  149.8907 H   0  0  0  0  0  0  0  0  0  0  0  0
  147.4673  133.6522  151.4008 H   0  0  0  0  0  0  0  0  0  0  0  0
  145.9112  134.8200  149.6515 H   0  0  0  0  0  0  0  0  0  0  0  0
  146.0298  135.8405  151.1021 H   0  0  0  0  0  0  0  0  0  0  0  0
  1  2  1  0  0  0  0
  1 24  1  0  0  0  0
  1 25  1  0  0  0  0
  1 26  1  0  0  0  0
  2  3  1  0  0  0  0
  2 17  1  0  0  0  0
  2 27  1  0  0  0  0
  3  4  1  0  0  0  0
  3 28  1  0  0  0  0
  4  5  2  0  0  0  0
  4  6  1  0  0  0  0
  6  7  1  0  0  0  0
  6 29  1  0  0  0  0
  6 30  1  0  0  0  0
  7 15  1  0  0  0  0
  7  8  1  0  0  0  0
  8  9  2  0  0  0  0
  8 31  1  0  0  0  0
  9 10  1  0  0  0  0
  9 32  1  0  0  0  0
 10 11  2  0  0  0  0
 10 33  1  0  0  0  0
 11 12  1  0  0  0  0
 11 15  1  0  0  0  0
 12 13  2  0  0  0  0
 12 14  1  0  0  0  0
 15 16  2  0  0  0  0
 17 22  1  0  0  0  0
 17 18  1  0  0  0  0
 17 34  1  0  0  0  0
 18 19  1  0  0  0  0
 18 35  1  0  0  0  0
 18 36  1  0  0  0  0
 19 23  1  0  0  0  0
 19 20  1  0  0  0  0
 19 37  1  0  0  0  0
 20 21  1  0  0  0  0
 20 38  1  0  0  0  0
 20 39  1  0  0  0  0
 21 22  1  0  0  0  0
 21 40  1  0  0  0  0
 21 41  1  0  0  0  0
 22 23  1  0  0  0  0
 22 42  1  0  0  0  0
 23 43  1  0  0  0  0
 23 44  1  0  0  0  0
M  CHG  1  12   1
M  CHG  1  14  -1
M  END
> <s_m_source_file>
AV-unprocessed.smi

> <i_m_source_file_index>
1512

> <i_lp_mmshare_version>
43012

> <i_f3d_flags>
0

> <s_epik_input>
W0NIMl0xW0NIMl1bQ0BIXShbQ0gyXTIpW0NAQEhdKFtDSDJdW0NAQEhdMTIpW0NASF0oW0NIM10pW05IXUMoPU8pW0NIMl1uM1tjSF1bY0hdW2NIXWMoW04rXSg9TylbTy1dKWMzPU8=

> <s_epik_cmdline>
J2VwaWtfcHl0aG9uJywgJy1waCcsICc3LjAnLCAnLXRuJywgJzgnLCAnLW1hJywgJzIwMCcsICctbWV0YWxfYmluZGluZycsICctaW1hZScsICc8aW5maWxlLm1hZT4nLCAnLW9tYWUnLCAnPG91dGZpbGUubWFlPic=

> <r_lp_tautomer_probability>
1

> <r_epik_Ionization_Penalty>
2.17697e-08

> <r_epik_Ionization_Penalty_Charging>
1.42735e-10

> <r_epik_Ionization_Penalty_Neutral>
2.16269e-08

> <r_epik_State_Penalty>
-0

> <r_epik_Charging_Adjusted_Penalty>
1.42735e-10

> <i_epik_Tot_Q>
0

> <i_epik_Tot_abs_Q>
2

> <r_epik_Metal_State_Penalty>
-0

> <b_epik_Metal_Only>
0

> <s_lp_Force_Field>
OPLS_2005

> <r_lp_Energy>
63.9552

> <b_lp_Chiralities_Consistent>
1

> <s_lp_Variant>
AV-unprocessed.smi:1512-8

> <Gold.Version>
5.8.1

> <Gold.Id.Protein>
6NUR|6NUR_protein|mol2

> <Gold.PLP.Fitness>
43.9072

> <Gold.PLP.PLP>
-37.8344

> <Gold.PLP.part.hbond>
-1.9814

> <Gold.PLP.part.metal>
0.0000

> <Gold.PLP.part.buried>
-2.7035

> <Gold.PLP.part.nonpolar>
-33.9592

> <Gold.PLP.part.repulsive>
0.8999

> <Gold.PLP.ligand.clash>
0.0000

> <Gold.PLP.ligand.torsion>
0.8581

> <Gold.PLP.Chemscore.Hbond>
1.5760

> <Gold.PLP.Chemscore.CHOScore>
1.0000

> <Gold.PLP.Chemscore.Metal>
0.0000

> <Gold.Chemscore.Hbonds>
donor molecule, donor type, donor heavy atom, donor atom, acceptor molecule, acceptor atom, score
      L1  H     3    28       P1  7948  0.62
      P1  H  7989  7998       L1    13  1.00
      L1  C     8    31       P1 10175  1.00

> <Gold.PLP.Chemscore.Internal.Correction>
0.0610

> <Gold.Rescore>
     Score         DG    S(hbond)    S(metal)    S(lipo)     H(rot)  DE(clash)    DE(int)     intcor
     10.97     -15.83       1.58        0.00      81.54       1.75       0.27       4.59       ----

> <Gold.Chemscore.Fitness>
10.9749

> <Gold.Chemscore.DG>
-15.8333

> <Gold.Chemscore.ZeroCoef>
-5.4800

> <Gold.Chemscore.Hbond>
1.5827

> <Gold.Chemscore.Metal>
0.0000

> <Gold.Chemscore.Lipo>
81.5421

> <Gold.Chemscore.Internal_Hbond>
0.0000

> <Gold.Chemscore.DEClash>
0.2695

> <Gold.Chemscore.DEInternal>
4.5889

> <Gold.Chemscore.Rot>
1.7474

> <Gold.Chemscore.Internal.Correction>
   9.000000E+99

> <Gold.Chemscore.Hbonds>
donor molecule, donor type, donor heavy atom, donor atom, acceptor molecule, acceptor atom, score
      L1  H     3    28       P1  7948  0.62
      P1  H  7989  7998       L1    13  0.45

> <Gold.Chemscore.Hbond.Weighted>
-5.2862

> <Gold.Chemscore.Metal.Weighted>
-0.0000

> <Gold.Chemscore.Lipo.Weighted>
-9.5404

> <Gold.Chemscore.Internal_Hbond.Weighted>
0.0000

> <Gold.Chemscore.DEClash.Weighted>
0.2695

> <Gold.Chemscore.DEInternal.Weighted>
4.5889

> <Gold.Chemscore.Rot.Weighted>
4.4733

> <Gold.Chemscore.Internal.Correction.Weighted>
   9.000000E+99

> <Gold.Protein.RotatedTorsions>
[ 6907 6896 6895 6894 ] final  -44.27 input  -60.11 | X-H torsion
[ 7974 7965 7964 7962 ] final  149.64 input  175.53 | X-H torsion
[ 8008 7997 7996 7995 ] final  -30.45 input   59.86 | X-H torsion
[ 10167 10162 10161 10158 ] final  -58.21 input  -65.29 | X-H torsion
[ 10718 10713 10712 10709 ] final   97.60 input   66.30 | X-H torsion
[ 10763 10752 10751 10750 ] final    5.39 input  -60.55 | X-H torsion
[ 11005 11000 10999 10996 ] final -152.04 input  -57.11 | X-H torsion

> <Gold.Protein.ActiveResidues>
 VAL166  LYS551  ARG553  GLY616  TRP617  ASP618  TYR619  PRO620  LYS621  CYS622 
 ASP623  PHE694  ASN695  SER759  ASP760  ASP761  ALA762  ILE779  LEU786  VAL792 
 PHE793  MET794  SER795  GLU796  ALA797  LYS798  CYS799  TRP800  GLU811  SER814 

> <Gold.Protein.RotatedAtoms>
  150.9347  134.8760  159.7573 H   0  0  0  0  0  0  0  0  0  0  0  0  # atno 6907 bound_to 6896
  152.5054  134.4028  159.9432 H   0  0  0  0  0  0  0  0  0  0  0  0  # atno 6908 bound_to 6896
  151.4053  133.3704  159.2772 H   0  0  0  0  0  0  0  0  0  0  0  0  # atno 6909 bound_to 6896
  144.8423  139.6306  143.6011 H   0  0  0  0  0  0  0  0  0  0  0  0  # atno 7974 bound_to 7965
  154.4250  140.1791  156.1408 H   0  0  0  0  0  0  0  0  0  0  0  0  # atno 8008 bound_to 7997
  155.9993  140.3361  155.6805 H   0  0  0  0  0  0  0  0  0  0  0  0  # atno 8009 bound_to 7997
  155.6265  140.0665  157.2653 H   0  0  0  0  0  0  0  0  0  0  0  0  # atno 8010 bound_to 7997
  140.6211  143.2420  151.5477 H   0  0  0  0  0  0  0  0  0  0  0  0  # atno 10167 bound_to 10162
  157.6910  131.0614  150.4669 H   0  0  0  0  0  0  0  0  0  0  0  0  # atno 10718 bound_to 10713
  153.2600  135.6922  153.7589 H   0  0  0  0  0  0  0  0  0  0  0  0  # atno 10763 bound_to 10752
  153.6651  135.3353  155.3139 H   0  0  0  0  0  0  0  0  0  0  0  0  # atno 10764 bound_to 10752
  154.8426  135.4486  154.1587 H   0  0  0  0  0  0  0  0  0  0  0  0  # atno 10765 bound_to 10752
  140.7232  134.3704  157.5180 H   0  0  0  0  0  0  0  0  0  0  0  0  # atno 11005 bound_to 11000
  146.2713  139.6643  142.9294 LP  0  0  0  0  0  0  0  0  0  0  0  0  # atno 17320 bound_to 7965
  145.4669  141.0435  143.2720 LP  0  0  0  0  0  0  0  0  0  0  0  0  # atno 17321 bound_to 7965
  139.5440  144.2571  152.1406 LP  0  0  0  0  0  0  0  0  0  0  0  0  # atno 17342 bound_to 10162
  140.1792  144.4861  150.6537 LP  0  0  0  0  0  0  0  0  0  0  0  0  # atno 17343 bound_to 10162
  156.5009  130.4117  149.6353 LP  0  0  0  0  0  0  0  0  0  0  0  0  # atno 17370 bound_to 10713
  156.3329  130.7341  151.2273 LP  0  0  0  0  0  0  0  0  0  0  0  0  # atno 17371 bound_to 10713
  139.8843  134.8968  156.2710 LP  0  0  0  0  0  0  0  0  0  0  0  0  # atno 17394 bound_to 11000
  140.9986  133.7165  156.0924 LP  0  0  0  0  0  0  0  0  0  0  0  0  # atno 17395 bound_to 11000

$$$$
