AV-unprocessed.smi:657|AV-procd|sdf|3228|dock4
  -GOLD-   22720 0173D 1   1.00000     0.00000
 Structure written by MMmdl.
 46 47  0  0  0  0  0  0  0  0  3 V2000
  146.6256  138.7082  151.6692 C   0  0  0  0  0  0  0  0  0  0  0  0
  146.6878  138.7418  153.2111 C   0  0  0  0  0  0  0  0  0  0  0  0
  145.7672  137.6267  153.7511 C   0  0  0  0  0  0  0  0  0  0  0  0
  146.3378  140.0871  153.7868 N   0  3  2  0  0  0  0  0  0  0  0  0
  147.2699  141.1936  153.4085 C   0  0  0  0  0  0  0  0  0  0  0  0
  146.7383  142.5690  153.8452 C   0  0  0  0  0  0  0  0  0  0  0  0
  146.4586  142.6166  155.3480 C   0  0  0  0  0  0  0  0  0  0  0  0
  145.5134  141.4703  155.7288 C   0  0  0  0  0  0  0  0  0  0  0  0
  146.0119  140.0838  155.2550 C   0  0  2  0  0  0  0  0  0  0  0  0
  147.1418  139.5243  156.1580 C   0  0  0  0  0  0  0  0  0  0  0  0
  146.9464  138.4825  156.7925 O   0  0  0  0  0  0  0  0  0  0  0  0
  148.2398  140.3272  156.1209 N   0  5  0  0  0  0  0  0  0  0  0  0
  149.4399  140.1023  156.9231 C   0  0  0  0  0  0  0  0  0  0  0  0
  150.6523  140.8169  156.2910 C   0  0  0  0  0  0  0  0  0  0  0  0
  151.3391  141.7938  157.2181 C   0  0  0  0  0  0  0  0  0  0  0  0
  152.0197  141.5159  158.4398 C   0  0  0  0  0  0  0  0  0  0  0  0
  152.5250  142.5985  159.0087 N   0  0  0  0  0  0  0  0  0  0  0  0
  152.1929  143.6024  158.1715 N   0  0  0  0  0  0  0  0  0  0  0  0
  152.5917  144.9573  158.4873 C   0  0  0  0  0  0  0  0  0  0  0  0
  151.4806  143.1476  157.0830 C   0  0  0  0  0  0  0  0  0  0  0  0
  146.7512  137.6922  151.2938 H   0  0  0  0  0  0  0  0  0  0  0  0
  147.4231  139.2941  151.2125 H   0  0  0  0  0  0  0  0  0  0  0  0
  145.6689  139.0782  151.2989 H   0  0  0  0  0  0  0  0  0  0  0  0
  147.7141  138.4972  153.4874 H   0  0  0  0  0  0  0  0  0  0  0  0
  145.9736  136.6756  153.2595 H   0  0  0  0  0  0  0  0  0  0  0  0
  144.7166  137.8633  153.5809 H   0  0  0  0  0  0  0  0  0  0  0  0
  145.9042  137.4478  154.8164 H   0  0  0  0  0  0  0  0  0  0  0  0
  148.2628  141.0138  153.8204 H   0  0  0  0  0  0  0  0  0  0  0  0
  147.3902  141.2477  152.3285 H   0  0  0  0  0  0  0  0  0  0  0  0
  147.4551  143.3460  153.5778 H   0  0  0  0  0  0  0  0  0  0  0  0
  145.8223  142.7944  153.2977 H   0  0  0  0  0  0  0  0  0  0  0  0
  147.3923  142.5528  155.9060 H   0  0  0  0  0  0  0  0  0  0  0  0
  146.0100  143.5738  155.6148 H   0  0  0  0  0  0  0  0  0  0  0  0
  145.3529  141.4667  156.8080 H   0  0  0  0  0  0  0  0  0  0  0  0
  144.5354  141.6621  155.2850 H   0  0  0  0  0  0  0  0  0  0  0  0
  145.1328  139.4487  155.3713 H   0  0  0  0  0  0  0  0  0  0  0  0
  149.3072  140.4853  157.9357 H   0  0  0  0  0  0  0  0  0  0  0  0
  149.6660  139.0413  157.0348 H   0  0  0  0  0  0  0  0  0  0  0  0
  151.3608  140.0706  155.9291 H   0  0  0  0  0  0  0  0  0  0  0  0
  150.3092  141.3375  155.3966 H   0  0  0  0  0  0  0  0  0  0  0  0
  152.1567  140.5617  158.9270 H   0  0  0  0  0  0  0  0  0  0  0  0
  152.4634  145.5967  157.6134 H   0  0  0  0  0  0  0  0  0  0  0  0
  153.6396  144.9776  158.7886 H   0  0  0  0  0  0  0  0  0  0  0  0
  151.9764  145.3400  159.3019 H   0  0  0  0  0  0  0  0  0  0  0  0
  151.1337  143.8164  156.3091 H   0  0  0  0  0  0  0  0  0  0  0  0
  145.4677  140.3339  153.3388 H   0  0  0  0  0  0  0  0  0  0  0  0
  1  2  1  0  0  0  0
  1 21  1  0  0  0  0
  1 22  1  0  0  0  0
  1 23  1  0  0  0  0
  2  3  1  0  0  0  0
  2  4  1  0  0  0  0
  2 24  1  0  0  0  0
  3 25  1  0  0  0  0
  3 26  1  0  0  0  0
  3 27  1  0  0  0  0
  4  9  1  0  0  0  0
  4  5  1  0  0  0  0
  4 46  1  0  0  0  0
  5  6  1  0  0  0  0
  5 28  1  0  0  0  0
  5 29  1  0  0  0  0
  6  7  1  0  0  0  0
  6 30  1  0  0  0  0
  6 31  1  0  0  0  0
  7  8  1  0  0  0  0
  7 32  1  0  0  0  0
  7 33  1  0  0  0  0
  8  9  1  0  0  0  0
  8 34  1  0  0  0  0
  8 35  1  0  0  0  0
  9 10  1  0  0  0  0
  9 36  1  0  0  0  0
 10 11  2  0  0  0  0
 10 12  1  0  0  0  0
 12 13  1  0  0  0  0
 13 14  1  0  0  0  0
 13 37  1  0  0  0  0
 13 38  1  0  0  0  0
 14 15  1  0  0  0  0
 14 39  1  0  0  0  0
 14 40  1  0  0  0  0
 15 20  2  0  0  0  0
 15 16  1  0  0  0  0
 16 17  2  0  0  0  0
 16 41  1  0  0  0  0
 17 18  1  0  0  0  0
 18 19  1  0  0  0  0
 18 20  1  0  0  0  0
 19 42  1  0  0  0  0
 19 43  1  0  0  0  0
 19 44  1  0  0  0  0
 20 45  1  0  0  0  0
M  CHG  1   4   1
M  CHG  1  12  -1
M  END
> <s_m_source_file>
AV-unprocessed.smi

> <i_m_source_file_index>
657

> <i_lp_mmshare_version>
43012

> <i_f3d_flags>
0

> <s_epik_input>
W0NIM11bQ0hdKFtDSDNdKU4xW0NIMl1bQ0gyXVtDSDJdW0NIMl1bQ0BIXTFDKD1PKVtOSF1bQ0gyXVtDSDJdYzJbY0hdbm4oW0NIM10pW2NIXTI=

> <s_epik_cmdline>
J2VwaWtfcHl0aG9uJywgJy1waCcsICc3LjAnLCAnLXRuJywgJzgnLCAnLW1hJywgJzIwMCcsICctbWV0YWxfYmluZGluZycsICctaW1hZScsICc8aW5maWxlLm1hZT4nLCAnLW9tYWUnLCAnPG91dGZpbGUubWFlPic=

> <r_lp_tautomer_probability>
1

> <r_epik_Ionization_Penalty>
6.1622

> <r_epik_Ionization_Penalty_Charging>
6.16146

> <r_epik_Ionization_Penalty_Neutral>
0.00073675

> <r_epik_State_Penalty>
6.18018

> <r_epik_Charging_Adjusted_Penalty>
12.3416

> <i_epik_Tot_Q>
0

> <i_epik_Tot_abs_Q>
2

> <r_epik_Metal_State_Penalty>
2.12232

> <b_epik_Metal_Only>
1

> <s_lp_Force_Field>
OPLS_2005

> <r_lp_Energy>
13.854

> <b_lp_Chiralities_Consistent>
1

> <s_lp_Variant>
AV-unprocessed.smi:657-9

> <Gold.Version>
5.8.1

> <Gold.Id.Protein>
6NUR|6NUR_protein|mol2

> <Gold.PLP.Fitness>
44.3152

> <Gold.PLP.PLP>
-36.5541

> <Gold.PLP.part.hbond>
-1.0000

> <Gold.PLP.part.metal>
0.0000

> <Gold.PLP.part.buried>
-3.7991

> <Gold.PLP.part.nonpolar>
-32.1723

> <Gold.PLP.part.repulsive>
0.0254

> <Gold.PLP.ligand.clash>
0.0000

> <Gold.PLP.ligand.torsion>
0.7303

> <Gold.PLP.Chemscore.Hbond>
2.0000

> <Gold.PLP.Chemscore.CHOScore>
1.0000

> <Gold.PLP.Chemscore.Metal>
0.0000

> <Gold.Chemscore.Hbonds>
donor molecule, donor type, donor heavy atom, donor atom, acceptor molecule, acceptor atom, score
      L1  H     4    46       P1 10175  2.00
      L1  C    20    45       P1  8028  1.00

> <Gold.PLP.Chemscore.Internal.Correction>
0.2216

> <Gold.Rescore>
     Score         DG    S(hbond)    S(metal)    S(lipo)     H(rot)  DE(clash)    DE(int)     intcor
     12.39     -15.40       0.99        0.00      91.11       1.57       0.11       2.91       ----

> <Gold.Chemscore.Fitness>
12.3859

> <Gold.Chemscore.DG>
-15.4049

> <Gold.Chemscore.ZeroCoef>
-5.4800

> <Gold.Chemscore.Hbond>
0.9866

> <Gold.Chemscore.Metal>
0.0000

> <Gold.Chemscore.Lipo>
91.1059

> <Gold.Chemscore.Internal_Hbond>
0.0000

> <Gold.Chemscore.DEClash>
0.1061

> <Gold.Chemscore.DEInternal>
2.9130

> <Gold.Chemscore.Rot>
1.5741

> <Gold.Chemscore.Internal.Correction>
   9.000000E+99

> <Gold.Chemscore.Hbonds>
donor molecule, donor type, donor heavy atom, donor atom, acceptor molecule, acceptor atom, score
      L1  H     4    46       P1 10175  0.96

> <Gold.Chemscore.Hbond.Weighted>
-3.2952

> <Gold.Chemscore.Metal.Weighted>
-0.0000

> <Gold.Chemscore.Lipo.Weighted>
-10.6594

> <Gold.Chemscore.Internal_Hbond.Weighted>
0.0000

> <Gold.Chemscore.DEClash.Weighted>
0.1061

> <Gold.Chemscore.DEInternal.Weighted>
2.9130

> <Gold.Chemscore.Rot.Weighted>
4.0297

> <Gold.Chemscore.Internal.Correction.Weighted>
   9.000000E+99

> <Gold.Protein.RotatedTorsions>
[ 6907 6896 6895 6894 ] final -177.92 input  -60.11 | X-H torsion
[ 7974 7965 7964 7962 ] final   28.73 input  175.53 | X-H torsion
[ 8008 7997 7996 7995 ] final  -75.59 input   59.86 | X-H torsion
[ 10167 10162 10161 10158 ] final -171.30 input  -65.29 | X-H torsion
[ 10718 10713 10712 10709 ] final  122.83 input   66.30 | X-H torsion
[ 10763 10752 10751 10750 ] final  -56.54 input  -60.55 | X-H torsion
[ 11005 11000 10999 10996 ] final   14.12 input  -57.11 | X-H torsion

> <Gold.Protein.ActiveResidues>
 VAL166  LYS551  ARG553  GLY616  TRP617  ASP618  TYR619  PRO620  LYS621  CYS622 
 ASP623  PHE694  ASN695  SER759  ASP760  ASP761  ALA762  ILE779  LEU786  VAL792 
 PHE793  MET794  SER795  GLU796  ALA797  LYS798  CYS799  TRP800  GLU811  SER814 

> <Gold.Protein.RotatedAtoms>
  151.6288  133.3333  159.3103 H   0  0  0  0  0  0  0  0  0  0  0  0  # atno 6907 bound_to 6896
  150.8067  134.7201  159.6662 H   0  0  0  0  0  0  0  0  0  0  0  0  # atno 6908 bound_to 6896
  152.4163  134.6040  160.0059 H   0  0  0  0  0  0  0  0  0  0  0  0  # atno 6909 bound_to 6896
  146.1712  139.7017  142.8966 H   0  0  0  0  0  0  0  0  0  0  0  0  # atno 7974 bound_to 7965
  154.5430  140.0741  156.8542 H   0  0  0  0  0  0  0  0  0  0  0  0  # atno 8008 bound_to 7997
  155.3143  140.3392  155.4225 H   0  0  0  0  0  0  0  0  0  0  0  0  # atno 8009 bound_to 7997
  156.1892  140.1680  156.8112 H   0  0  0  0  0  0  0  0  0  0  0  0  # atno 8010 bound_to 7997
  139.5810  144.1423  152.1515 H   0  0  0  0  0  0  0  0  0  0  0  0  # atno 10167 bound_to 10162
  157.5712  131.1083  150.8364 H   0  0  0  0  0  0  0  0  0  0  0  0  # atno 10718 bound_to 10713
  154.2082  135.6399  153.5107 H   0  0  0  0  0  0  0  0  0  0  0  0  # atno 10763 bound_to 10752
  152.9996  135.5468  154.6243 H   0  0  0  0  0  0  0  0  0  0  0  0  # atno 10764 bound_to 10752
  154.5673  135.2914  155.0835 H   0  0  0  0  0  0  0  0  0  0  0  0  # atno 10765 bound_to 10752
  140.4730  134.1012  155.7736 H   0  0  0  0  0  0  0  0  0  0  0  0  # atno 11005 bound_to 11000
  145.4334  141.0417  143.2898 LP  0  0  0  0  0  0  0  0  0  0  0  0  # atno 17320 bound_to 7965
  144.8167  139.5865  143.7005 LP  0  0  0  0  0  0  0  0  0  0  0  0  # atno 17321 bound_to 7965
  140.0976  144.5567  150.7011 LP  0  0  0  0  0  0  0  0  0  0  0  0  # atno 17342 bound_to 10162
  140.7088  143.2489  151.4644 LP  0  0  0  0  0  0  0  0  0  0  0  0  # atno 17343 bound_to 10162
  156.8835  130.5187  149.5289 LP  0  0  0  0  0  0  0  0  0  0  0  0  # atno 17370 bound_to 10713
  156.0757  130.5780  150.9469 LP  0  0  0  0  0  0  0  0  0  0  0  0  # atno 17371 bound_to 10713
  141.1568  133.8868  157.1956 LP  0  0  0  0  0  0  0  0  0  0  0  0  # atno 17394 bound_to 11000
  139.9873  135.0077  156.9893 LP  0  0  0  0  0  0  0  0  0  0  0  0  # atno 17395 bound_to 11000

$$$$
