AV-unprocessed.smi:798|AV-procd|sdf|3770|dock1
  -GOLD-   22720 1203D 1   1.00000     0.00000
 Structure written by MMmdl.
 34 36  0  0  0  0  0  0  0  0  1 V2000
  146.0253  138.1715  154.5529 O   0  0  0  0  0  0  0  0  0  0  0  0
  146.8345  137.5942  153.8266 C   0  0  0  0  0  0  0  0  0  0  0  0
  148.0682  138.0370  153.5280 N   0  0  0  0  0  0  0  0  0  0  0  0
  148.7225  139.2069  153.9957 C   0  0  0  0  0  0  0  0  0  0  0  0
  150.0046  139.2357  154.3917 N   0  0  0  0  0  0  0  0  0  0  0  0
  150.3949  140.5063  154.7955 N   0  0  0  0  0  0  0  0  0  0  0  0
  149.3933  141.3840  154.6879 C   0  0  0  0  0  0  0  0  0  0  0  0
  147.8756  140.7449  154.0808 S   0  0  0  0  0  0  0  0  0  0  0  0
  146.5873  136.4185  153.2312 N   0  0  0  0  0  0  0  0  0  0  0  0
  145.3398  135.6594  153.3323 C   0  0  1  0  0  0  0  0  0  0  0  0
  144.2436  136.3302  152.4769 C   0  0  2  0  0  0  0  0  0  0  0  0
  142.8698  135.7657  152.8821 C   0  0  0  0  0  0  0  0  0  0  0  0
  142.9114  134.3383  152.3040 C   0  0  0  0  0  0  0  0  0  0  0  0
  144.3055  134.2738  151.6487 C   0  0  1  0  0  0  0  0  0  0  0  0
  144.4509  135.6907  151.1090 C   0  0  0  0  0  0  0  0  0  0  0  0
  145.3903  134.2121  152.7527 C   0  0  1  0  0  0  0  0  0  0  0  0
  146.7644  133.7293  152.2346 C   0  0  0  0  0  0  0  0  0  0  0  0
  147.7618  133.9348  153.2126 O   0  0  0  0  0  0  0  0  0  0  0  0
  148.6107  137.4607  152.9019 H   0  0  0  0  0  0  0  0  0  0  0  0
  149.5495  142.4155  154.9666 H   0  0  0  0  0  0  0  0  0  0  0  0
  147.3120  136.0183  152.6534 H   0  0  0  0  0  0  0  0  0  0  0  0
  145.0267  135.6396  154.3780 H   0  0  0  0  0  0  0  0  0  0  0  0
  144.2779  137.4206  152.4864 H   0  0  0  0  0  0  0  0  0  0  0  0
  142.7158  135.7751  153.9617 H   0  0  0  0  0  0  0  0  0  0  0  0
  142.0632  136.3401  152.4245 H   0  0  0  0  0  0  0  0  0  0  0  0
  142.7742  133.5731  153.0689 H   0  0  0  0  0  0  0  0  0  0  0  0
  142.1263  134.2067  151.5582 H   0  0  0  0  0  0  0  0  0  0  0  0
  144.3862  133.4885  150.8966 H   0  0  0  0  0  0  0  0  0  0  0  0
  143.6796  135.9592  150.3848 H   0  0  0  0  0  0  0  0  0  0  0  0
  145.4310  135.8953  150.6756 H   0  0  0  0  0  0  0  0  0  0  0  0
  145.0767  133.5132  153.5303 H   0  0  0  0  0  0  0  0  0  0  0  0
  146.7430  132.6741  151.9620 H   0  0  0  0  0  0  0  0  0  0  0  0
  147.0568  134.2908  151.3472 H   0  0  0  0  0  0  0  0  0  0  0  0
  148.2796  134.6841  152.9604 H   0  0  0  0  0  0  0  0  0  0  0  0
  1  2  2  0  0  0  0
  2  3  1  0  0  0  0
  2  9  1  0  0  0  0
  3  4  1  0  0  0  0
  3 19  1  0  0  0  0
  4  8  1  0  0  0  0
  4  5  2  0  0  0  0
  5  6  1  0  0  0  0
  6  7  2  0  0  0  0
  7  8  1  0  0  0  0
  7 20  1  0  0  0  0
  9 10  1  0  0  0  0
  9 21  1  0  0  0  0
 10 16  1  0  0  0  0
 10 11  1  0  0  0  0
 10 22  1  0  0  0  0
 11 15  1  0  0  0  0
 11 12  1  0  0  0  0
 11 23  1  0  0  0  0
 12 13  1  0  0  0  0
 12 24  1  0  0  0  0
 12 25  1  0  0  0  0
 13 14  1  0  0  0  0
 13 26  1  0  0  0  0
 13 27  1  0  0  0  0
 14 15  1  0  0  0  0
 14 16  1  0  0  0  0
 14 28  1  0  0  0  0
 15 29  1  0  0  0  0
 15 30  1  0  0  0  0
 16 17  1  0  0  0  0
 16 31  1  0  0  0  0
 17 18  1  0  0  0  0
 17 32  1  0  0  0  0
 17 33  1  0  0  0  0
 18 34  1  0  0  0  0
M  END
> <s_m_source_file>
AV-unprocessed.smi

> <i_m_source_file_index>
798

> <i_lp_mmshare_version>
43012

> <i_f3d_flags>
0

> <s_epik_input>
W0NIMl0xW0NIMl1bQ0BASF0oW0NIMl0yKVtDQEBIXShbQ0gyXVtPSF0pW0NAQEhdKFtDQEhdMTIpW05IXUMoPU8pW05IXWMzbm5bY0hdczM=

> <s_epik_cmdline>
J2VwaWtfcHl0aG9uJywgJy1waCcsICc3LjAnLCAnLXRuJywgJzgnLCAnLW1hJywgJzIwMCcsICctbWV0YWxfYmluZGluZycsICctaW1hZScsICc8aW5maWxlLm1hZT4nLCAnLW9tYWUnLCAnPG91dGZpbGUubWFlPic=

> <r_lp_tautomer_probability>
1

> <r_epik_Ionization_Penalty>
0.000329046

> <r_epik_Ionization_Penalty_Charging>
0

> <r_epik_Ionization_Penalty_Neutral>
0.000329046

> <r_epik_State_Penalty>
-0

> <r_epik_Charging_Adjusted_Penalty>
0

> <i_epik_Tot_Q>
0

> <i_epik_Tot_abs_Q>
0

> <r_epik_Metal_State_Penalty>
0.173433

> <b_epik_Metal_Only>
0

> <s_lp_Force_Field>
OPLS_2005

> <r_lp_Energy>
49.2939

> <b_lp_Chiralities_Consistent>
1

> <s_lp_Variant>
AV-unprocessed.smi:798-2

> <Gold.Version>
5.8.1

> <Gold.Id.Protein>
6NUR|6NUR_protein|mol2

> <Gold.PLP.Fitness>
40.1874

> <Gold.PLP.PLP>
-26.3565

> <Gold.PLP.part.hbond>
-4.0000

> <Gold.PLP.part.metal>
0.0000

> <Gold.PLP.part.buried>
-3.2103

> <Gold.PLP.part.nonpolar>
-18.8388

> <Gold.PLP.part.repulsive>
0.3584

> <Gold.PLP.ligand.clash>
0.0000

> <Gold.PLP.ligand.torsion>
0.5488

> <Gold.PLP.Chemscore.Hbond>
3.9680

> <Gold.PLP.Chemscore.CHOScore>
1.0000

> <Gold.PLP.Chemscore.Metal>
0.0000

> <Gold.Chemscore.Hbonds>
donor molecule, donor type, donor heavy atom, donor atom, acceptor molecule, acceptor atom, score
      L1  H     3    19       P1  7948  1.00
      L1  H     9    21       P1  7948  0.98
      L1  H    18    34       P1  7948  1.00
      P1  H  7989  7998       L1     6  0.99
      L1  C     7    20       P1  8028  1.00

> <Gold.PLP.Chemscore.Internal.Correction>
0.0244

> <Gold.Rescore>
     Score         DG    S(hbond)    S(metal)    S(lipo)     H(rot)  DE(clash)    DE(int)     intcor
     14.28     -16.57       3.15        0.00      47.52       1.94       0.14       2.14       ----

> <Gold.Chemscore.Fitness>
14.2845

> <Gold.Chemscore.DG>
-16.5708

> <Gold.Chemscore.ZeroCoef>
-5.4800

> <Gold.Chemscore.Hbond>
3.1461

> <Gold.Chemscore.Metal>
0.0000

> <Gold.Chemscore.Lipo>
47.5209

> <Gold.Chemscore.Internal_Hbond>
0.0000

> <Gold.Chemscore.DEClash>
0.1415

> <Gold.Chemscore.DEInternal>
2.1449

> <Gold.Chemscore.Rot>
1.9442

> <Gold.Chemscore.Internal.Correction>
   9.000000E+99

> <Gold.Chemscore.Hbonds>
donor molecule, donor type, donor heavy atom, donor atom, acceptor molecule, acceptor atom, score
      L1  H     3    19       P1  7948  0.99
      L1  H     9    21       P1  7948  0.92
      L1  H    18    34       P1  7948  0.59
      P1  H  7989  7998       L1     6  0.16

> <Gold.Chemscore.Hbond.Weighted>
-10.5080

> <Gold.Chemscore.Metal.Weighted>
-0.0000

> <Gold.Chemscore.Lipo.Weighted>
-5.5600

> <Gold.Chemscore.Internal_Hbond.Weighted>
0.0000

> <Gold.Chemscore.DEClash.Weighted>
0.1415

> <Gold.Chemscore.DEInternal.Weighted>
2.1449

> <Gold.Chemscore.Rot.Weighted>
4.9771

> <Gold.Chemscore.Internal.Correction.Weighted>
   9.000000E+99

> <Gold.Protein.RotatedTorsions>
[ 6907 6896 6895 6894 ] final  166.82 input  -60.11 | X-H torsion
[ 7974 7965 7964 7962 ] final  115.55 input  175.53 | X-H torsion
[ 8008 7997 7996 7995 ] final  123.62 input   59.86 | X-H torsion
[ 10167 10162 10161 10158 ] final -148.17 input  -65.29 | X-H torsion
[ 10718 10713 10712 10709 ] final   34.11 input   66.30 | X-H torsion
[ 10763 10752 10751 10750 ] final  155.52 input  -60.55 | X-H torsion
[ 11005 11000 10999 10996 ] final   95.90 input  -57.11 | X-H torsion

> <Gold.Protein.ActiveResidues>
 VAL166  LYS551  ARG553  GLY616  TRP617  ASP618  TYR619  PRO620  LYS621  CYS622 
 ASP623  PHE694  ASN695  SER759  ASP760  ASP761  ALA762  ILE779  LEU786  VAL792 
 PHE793  MET794  SER795  GLU796  ALA797  LYS798  CYS799  TRP800  GLU811  SER814 

> <Gold.Protein.RotatedAtoms>
  151.8730  133.3479  159.3740 H   0  0  0  0  0  0  0  0  0  0  0  0  # atno 6907 bound_to 6896
  150.7148  134.5094  159.5609 H   0  0  0  0  0  0  0  0  0  0  0  0  # atno 6908 bound_to 6896
  152.2631  134.8014  160.0478 H   0  0  0  0  0  0  0  0  0  0  0  0  # atno 6909 bound_to 6896
  145.1906  139.3002  143.4370 H   0  0  0  0  0  0  0  0  0  0  0  0  # atno 7974 bound_to 7965
  156.2772  140.2759  156.1656 H   0  0  0  0  0  0  0  0  0  0  0  0  # atno 8008 bound_to 7997
  155.0708  140.0387  157.2625 H   0  0  0  0  0  0  0  0  0  0  0  0  # atno 8009 bound_to 7997
  154.7042  140.2655  155.6696 H   0  0  0  0  0  0  0  0  0  0  0  0  # atno 8010 bound_to 7997
  139.7556  143.8453  152.2596 H   0  0  0  0  0  0  0  0  0  0  0  0  # atno 10167 bound_to 10162
  157.3063  130.7376  149.6697 H   0  0  0  0  0  0  0  0  0  0  0  0  # atno 10718 bound_to 10713
  154.1697  135.2805  155.3084 H   0  0  0  0  0  0  0  0  0  0  0  0  # atno 10763 bound_to 10752
  154.6084  135.5507  153.7451 H   0  0  0  0  0  0  0  0  0  0  0  0  # atno 10764 bound_to 10752
  153.0168  135.6409  154.1838 H   0  0  0  0  0  0  0  0  0  0  0  0  # atno 10765 bound_to 10752
  139.8785  134.8923  156.4079 H   0  0  0  0  0  0  0  0  0  0  0  0  # atno 11005 bound_to 11000
  146.3437  140.2117  142.8590 LP  0  0  0  0  0  0  0  0  0  0  0  0  # atno 17320 bound_to 7965
  145.0045  140.8661  143.5261 LP  0  0  0  0  0  0  0  0  0  0  0  0  # atno 17321 bound_to 7965
  139.8444  144.7194  150.9291 LP  0  0  0  0  0  0  0  0  0  0  0  0  # atno 17342 bound_to 10162
  140.7802  143.3954  151.1238 LP  0  0  0  0  0  0  0  0  0  0  0  0  # atno 17343 bound_to 10162
  155.9674  130.4265  150.4700 LP  0  0  0  0  0  0  0  0  0  0  0  0  # atno 17370 bound_to 10713
  157.2691  131.0583  151.2271 LP  0  0  0  0  0  0  0  0  0  0  0  0  # atno 17371 bound_to 10713
  140.9221  133.7638  155.9919 LP  0  0  0  0  0  0  0  0  0  0  0  0  # atno 17394 bound_to 11000
  140.8427  134.3047  157.5307 LP  0  0  0  0  0  0  0  0  0  0  0  0  # atno 17395 bound_to 11000

$$$$
