AV-unprocessed.smi:19|AV-procd|sdf|112|dock5
  -GOLD-   2262015273D 1   1.00000     0.00000
 Structure written by MMmdl.
 57 60  0  0  0  0  0  0  0  0  1 V2000
  152.2192  143.8138  161.1227 C   0  0  0  0  0  0  0  0  0  0  0  0
  151.6646  142.9144  160.1789 O   0  0  0  0  0  0  0  0  0  0  0  0
  152.6416  142.0656  159.5971 C   0  0  0  0  0  0  0  0  0  0  0  0
  151.9606  140.9068  158.8554 C   0  0  1  0  0  0  0  0  0  0  0  0
  151.0232  141.3804  157.7292 C   0  0  0  0  0  0  0  0  0  0  0  0
  150.4879  140.2326  157.0067 N   0  0  0  0  0  0  0  0  0  0  0  0
  149.4287  140.5057  156.2023 C   0  0  0  0  0  0  0  0  0  0  0  0
  149.5369  140.3417  154.8563 N   0  0  0  0  0  0  0  0  0  0  0  0
  148.5045  140.6211  154.0558 C   0  0  0  0  0  0  0  0  0  0  0  0
  147.2903  141.0639  154.3851 N   0  0  0  0  0  0  0  0  0  0  0  0
  147.1667  141.2165  155.7343 C   0  0  0  0  0  0  0  0  0  0  0  0
  148.1782  140.9656  156.7052 C   0  0  0  0  0  0  0  0  0  0  0  0
  147.6860  141.2314  157.9773 N   0  0  0  0  0  0  0  0  0  0  0  0
  146.4611  141.6294  157.7692 C   0  0  0  0  0  0  0  0  0  0  0  0
  146.0589  141.6357  156.4521 N   0  0  0  0  0  0  0  0  0  0  0  0
  144.7534  142.0348  155.9422 C   0  0  0  0  0  0  0  0  0  0  0  0
  144.6016  143.5548  155.6346 C   0  0  0  0  0  0  0  0  0  0  0  0
  145.5191  143.9691  154.4485 C   0  0  0  0  0  0  0  0  0  0  0  0
  145.1512  143.3351  153.2401 O   0  0  0  0  0  0  0  0  0  0  0  0
  143.1265  143.8804  155.2856 C   0  0  0  0  0  0  0  0  0  0  0  0
  142.8217  145.3905  155.2892 C   0  0  0  0  0  0  0  0  0  0  0  0
  143.1807  145.9623  156.5400 O   0  0  0  0  0  0  0  0  0  0  0  0
  144.5681  145.8377  156.8235 C   0  0  0  0  0  0  0  0  0  0  0  0
  144.9468  144.3495  156.9199 C   0  0  0  0  0  0  0  0  0  0  0  0
  151.5304  139.3477  156.4927 C   0  0  0  0  0  0  0  0  0  0  0  0
  152.4828  138.9068  157.6213 C   0  0  2  0  0  0  0  0  0  0  0  0
  151.8684  137.8579  158.5648 C   0  0  0  0  0  0  0  0  0  0  0  0
  152.9722  140.0473  158.3303 O   0  0  0  0  0  0  0  0  0  0  0  0
  151.4301  144.4371  161.5431 H   0  0  0  0  0  0  0  0  0  0  0  0
  152.9543  144.4711  160.6563 H   0  0  0  0  0  0  0  0  0  0  0  0
  152.6983  143.2785  161.9436 H   0  0  0  0  0  0  0  0  0  0  0  0
  153.2708  142.6297  158.9066 H   0  0  0  0  0  0  0  0  0  0  0  0
  153.2917  141.6690  160.3785 H   0  0  0  0  0  0  0  0  0  0  0  0
  151.3775  140.3530  159.5912 H   0  0  0  0  0  0  0  0  0  0  0  0
  150.2298  141.9946  158.1528 H   0  0  0  0  0  0  0  0  0  0  0  0
  151.5660  142.0103  157.0231 H   0  0  0  0  0  0  0  0  0  0  0  0
  148.6759  140.4688  153.0004 H   0  0  0  0  0  0  0  0  0  0  0  0
  145.8100  141.9255  158.5789 H   0  0  0  0  0  0  0  0  0  0  0  0
  144.5652  141.4519  155.0396 H   0  0  0  0  0  0  0  0  0  0  0  0
  143.9952  141.7145  156.6577 H   0  0  0  0  0  0  0  0  0  0  0  0
  145.4932  145.0480  154.2955 H   0  0  0  0  0  0  0  0  0  0  0  0
  146.5616  143.7207  154.6392 H   0  0  0  0  0  0  0  0  0  0  0  0
  144.2227  143.4524  153.1093 H   0  0  0  0  0  0  0  0  0  0  0  0
  142.8603  143.4647  154.3133 H   0  0  0  0  0  0  0  0  0  0  0  0
  142.4686  143.4015  156.0123 H   0  0  0  0  0  0  0  0  0  0  0  0
  143.3356  145.9069  154.4781 H   0  0  0  0  0  0  0  0  0  0  0  0
  141.7556  145.5515  155.1295 H   0  0  0  0  0  0  0  0  0  0  0  0
  145.1594  146.3558  156.0678 H   0  0  0  0  0  0  0  0  0  0  0  0
  144.7739  146.3333  157.7723 H   0  0  0  0  0  0  0  0  0  0  0  0
  144.4081  143.9223  157.7668 H   0  0  0  0  0  0  0  0  0  0  0  0
  146.0046  144.2515  157.1654 H   0  0  0  0  0  0  0  0  0  0  0  0
  151.0872  138.4708  156.0186 H   0  0  0  0  0  0  0  0  0  0  0  0
  152.0960  139.8776  155.7249 H   0  0  0  0  0  0  0  0  0  0  0  0
  153.3533  138.4417  157.1579 H   0  0  0  0  0  0  0  0  0  0  0  0
  151.6308  136.9430  158.0214 H   0  0  0  0  0  0  0  0  0  0  0  0
  150.9455  138.2073  159.0266 H   0  0  0  0  0  0  0  0  0  0  0  0
  152.5647  137.5964  159.3617 H   0  0  0  0  0  0  0  0  0  0  0  0
  1  2  1  0  0  0  0
  1 29  1  0  0  0  0
  1 30  1  0  0  0  0
  1 31  1  0  0  0  0
  2  3  1  0  0  0  0
  3  4  1  0  0  0  0
  3 32  1  0  0  0  0
  3 33  1  0  0  0  0
  4 28  1  0  0  0  0
  4  5  1  0  0  0  0
  4 34  1  0  0  0  0
  5  6  1  0  0  0  0
  5 35  1  0  0  0  0
  5 36  1  0  0  0  0
  6  7  1  0  0  0  0
  6 25  1  0  0  0  0
  7 12  1  0  0  0  0
  7  8  2  0  0  0  0
  8  9  1  0  0  0  0
  9 10  2  0  0  0  0
  9 37  1  0  0  0  0
 10 11  1  0  0  0  0
 11 15  1  0  0  0  0
 11 12  2  0  0  0  0
 12 13  1  0  0  0  0
 13 14  2  0  0  0  0
 14 15  1  0  0  0  0
 14 38  1  0  0  0  0
 15 16  1  0  0  0  0
 16 17  1  0  0  0  0
 16 39  1  0  0  0  0
 16 40  1  0  0  0  0
 17 24  1  0  0  0  0
 17 18  1  0  0  0  0
 17 20  1  0  0  0  0
 18 19  1  0  0  0  0
 18 41  1  0  0  0  0
 18 42  1  0  0  0  0
 19 43  1  0  0  0  0
 20 21  1  0  0  0  0
 20 44  1  0  0  0  0
 20 45  1  0  0  0  0
 21 22  1  0  0  0  0
 21 46  1  0  0  0  0
 21 47  1  0  0  0  0
 22 23  1  0  0  0  0
 23 24  1  0  0  0  0
 23 48  1  0  0  0  0
 23 49  1  0  0  0  0
 24 50  1  0  0  0  0
 24 51  1  0  0  0  0
 25 26  1  0  0  0  0
 25 52  1  0  0  0  0
 25 53  1  0  0  0  0
 26 27  1  0  0  0  0
 26 28  1  0  0  0  0
 26 54  1  0  0  0  0
 27 55  1  0  0  0  0
 27 56  1  0  0  0  0
 27 57  1  0  0  0  0
M  END
> <s_m_source_file>
AV-unprocessed.smi

> <i_m_source_file_index>
19

> <i_lp_mmshare_version>
43012

> <i_f3d_flags>
0

> <s_epik_input>
W0NIM11PW0NIMl1bQ0BASF0xW0NIMl1OKFtDSDJdW0NASF0oTzEpW0NIM10pYyhuW2NIXW4yKWMoYzIzKW5bY0hdbjNbQ0gyXUM0KFtDSDJdW09IXSlbQ0gyXVtDSDJdT1tDSDJdW0NIMl00

> <s_epik_cmdline>
J2VwaWtfcHl0aG9uJywgJy1waCcsICc3LjAnLCAnLXRuJywgJzgnLCAnLW1hJywgJzIwMCcsICctbWV0YWxfYmluZGluZycsICctaW1hZScsICc8aW5maWxlLm1hZT4nLCAnLW9tYWUnLCAnPG91dGZpbGUubWFlPic=

> <r_lp_tautomer_probability>
1

> <r_epik_Ionization_Penalty>
6.20357e-05

> <r_epik_Ionization_Penalty_Charging>
0

> <r_epik_Ionization_Penalty_Neutral>
6.20357e-05

> <r_epik_State_Penalty>
-0

> <r_epik_Charging_Adjusted_Penalty>
0

> <i_epik_Tot_Q>
0

> <i_epik_Tot_abs_Q>
0

> <r_epik_Metal_State_Penalty>
-0

> <b_epik_Metal_Only>
0

> <s_lp_Force_Field>
OPLS_2005

> <r_lp_Energy>
39.077

> <b_lp_Chiralities_Consistent>
1

> <s_lp_Variant>
AV-unprocessed.smi:19-4

> <Gold.Version>
5.8.1

> <Gold.Id.Protein>
6NUR|6NUR_protein|mol2

> <Gold.PLP.Fitness>
38.1856

> <Gold.PLP.PLP>
-33.3407

> <Gold.PLP.part.hbond>
-3.3836

> <Gold.PLP.part.metal>
0.0000

> <Gold.PLP.part.buried>
-5.8747

> <Gold.PLP.part.nonpolar>
-24.7695

> <Gold.PLP.part.repulsive>
0.2938

> <Gold.PLP.ligand.clash>
0.0000

> <Gold.PLP.ligand.torsion>
0.7742

> <Gold.PLP.Chemscore.Hbond>
1.0224

> <Gold.PLP.Chemscore.CHOScore>
1.0000

> <Gold.PLP.Chemscore.Metal>
0.0000

> <Gold.Chemscore.Hbonds>
donor molecule, donor type, donor heavy atom, donor atom, acceptor molecule, acceptor atom, score
      L1  H    19    43       P1 10174  0.56
      P1  H  7997  8010       L1    28  0.38
      L1  C     9    37       P1  7957  1.00

> <Gold.PLP.Chemscore.Internal.Correction>
0.3261

> <Gold.Rescore>
     Score         DG    S(hbond)    S(metal)    S(lipo)     H(rot)  DE(clash)    DE(int)     intcor
      6.34      -8.38       0.28        0.00      79.57       2.87       1.26       0.78       ----

> <Gold.Chemscore.Fitness>
6.3376

> <Gold.Chemscore.DG>
-8.3803

> <Gold.Chemscore.ZeroCoef>
-5.4800

> <Gold.Chemscore.Hbond>
0.2831

> <Gold.Chemscore.Metal>
0.0000

> <Gold.Chemscore.Lipo>
79.5667

> <Gold.Chemscore.Internal_Hbond>
0.0000

> <Gold.Chemscore.DEClash>
1.2585

> <Gold.Chemscore.DEInternal>
0.7842

> <Gold.Chemscore.Rot>
2.8729

> <Gold.Chemscore.Internal.Correction>
   9.000000E+99

> <Gold.Chemscore.Hbonds>
donor molecule, donor type, donor heavy atom, donor atom, acceptor molecule, acceptor atom, score
      L1  H    19    43       P1 10174  0.08
      P1  H  7997  8010       L1    28  0.01

> <Gold.Chemscore.Hbond.Weighted>
-0.9456

> <Gold.Chemscore.Metal.Weighted>
-0.0000

> <Gold.Chemscore.Lipo.Weighted>
-9.3093

> <Gold.Chemscore.Internal_Hbond.Weighted>
0.0000

> <Gold.Chemscore.DEClash.Weighted>
1.2585

> <Gold.Chemscore.DEInternal.Weighted>
0.7842

> <Gold.Chemscore.Rot.Weighted>
7.3546

> <Gold.Chemscore.Internal.Correction.Weighted>
   9.000000E+99

> <Gold.Protein.RotatedTorsions>
[ 6907 6896 6895 6894 ] final   -4.18 input  -60.11 | X-H torsion
[ 7974 7965 7964 7962 ] final   64.73 input  175.53 | X-H torsion
[ 8008 7997 7996 7995 ] final   27.68 input   59.86 | X-H torsion
[ 10167 10162 10161 10158 ] final   28.30 input  -65.29 | X-H torsion
[ 10718 10713 10712 10709 ] final   15.96 input   66.30 | X-H torsion
[ 10763 10752 10751 10750 ] final -101.30 input  -60.55 | X-H torsion
[ 11005 11000 10999 10996 ] final   -2.29 input  -57.11 | X-H torsion

> <Gold.Protein.ActiveResidues>
 VAL166  LYS551  ARG553  GLY616  TRP617  ASP618  TYR619  PRO620  LYS621  CYS622 
 ASP623  PHE694  ASN695  SER759  ASP760  ASP761  ALA762  ILE779  LEU786  VAL792 
 PHE793  MET794  SER795  GLU796  ALA797  LYS798  CYS799  TRP800  GLU811  SER814 

> <Gold.Protein.RotatedAtoms>
  151.5019  135.1062  159.9830 H   0  0  0  0  0  0  0  0  0  0  0  0  # atno 6907 bound_to 6896
  152.4698  133.8000  159.6958 H   0  0  0  0  0  0  0  0  0  0  0  0  # atno 6908 bound_to 6896
  150.8701  133.7454  159.2990 H   0  0  0  0  0  0  0  0  0  0  0  0  # atno 6909 bound_to 6896
  145.8468  139.3229  143.0899 H   0  0  0  0  0  0  0  0  0  0  0  0  # atno 7974 bound_to 7965
  155.0467  140.3175  155.4706 H   0  0  0  0  0  0  0  0  0  0  0  0  # atno 8008 bound_to 7997
  156.2843  140.2153  156.5536 H   0  0  0  0  0  0  0  0  0  0  0  0  # atno 8009 bound_to 7997
  154.7244  140.0487  157.0657 H   0  0  0  0  0  0  0  0  0  0  0  0  # atno 8010 bound_to 7997
  140.4864  144.0535  150.6282 H   0  0  0  0  0  0  0  0  0  0  0  0  # atno 10167 bound_to 10162
  157.0610  130.6309  149.5786 H   0  0  0  0  0  0  0  0  0  0  0  0  # atno 10718 bound_to 10713
  154.7647  135.4903  153.9531 H   0  0  0  0  0  0  0  0  0  0  0  0  # atno 10763 bound_to 10752
  153.1293  135.6749  153.9212 H   0  0  0  0  0  0  0  0  0  0  0  0  # atno 10764 bound_to 10752
  153.8920  135.3120  155.3426 H   0  0  0  0  0  0  0  0  0  0  0  0  # atno 10765 bound_to 10752
  140.6567  133.9356  155.8412 H   0  0  0  0  0  0  0  0  0  0  0  0  # atno 11005 bound_to 11000
  145.9403  140.8984  143.0311 LP  0  0  0  0  0  0  0  0  0  0  0  0  # atno 17320 bound_to 7965
  144.6731  140.1540  143.7428 LP  0  0  0  0  0  0  0  0  0  0  0  0  # atno 17321 bound_to 7965
  140.3792  143.2812  152.0190 LP  0  0  0  0  0  0  0  0  0  0  0  0  # atno 17342 bound_to 10162
  139.4843  144.6168  151.7330 LP  0  0  0  0  0  0  0  0  0  0  0  0  # atno 17343 bound_to 10162
  155.9978  130.5051  150.7548 LP  0  0  0  0  0  0  0  0  0  0  0  0  # atno 17370 bound_to 10713
  157.4954  131.0914  151.0377 LP  0  0  0  0  0  0  0  0  0  0  0  0  # atno 17371 bound_to 10713
  141.0496  134.0504  157.3800 LP  0  0  0  0  0  0  0  0  0  0  0  0  # atno 17394 bound_to 11000
  139.9027  135.0170  156.7343 LP  0  0  0  0  0  0  0  0  0  0  0  0  # atno 17395 bound_to 11000

$$$$
