AV-unprocessed.smi:1512|AV-procd|sdf|6105|dock10
  -GOLD-   22720 6233D 1   1.00000     0.00000
 Structure written by MMmdl.
 44 46  0  0  0  0  0  0  0  0  3 V2000
  146.1063  129.8426  151.5036 C   0  0  0  0  0  0  0  0  0  0  0  0
  146.0573  131.2795  152.0486 C   0  0  1  0  0  0  0  0  0  0  0  0
  147.3692  131.6656  152.5562 N   0  0  0  0  0  0  0  0  0  0  0  0
  147.6172  132.3300  153.6976 C   0  0  0  0  0  0  0  0  0  0  0  0
  146.7419  132.6015  154.5181 O   0  0  0  0  0  0  0  0  0  0  0  0
  149.0626  132.7905  153.9588 C   0  0  0  0  0  0  0  0  0  0  0  0
  149.9522  131.7429  154.4974 N   0  0  0  0  0  0  0  0  0  0  0  0
  149.9532  130.5030  153.8315 C   0  0  0  0  0  0  0  0  0  0  0  0
  150.7443  129.4920  154.2176 C   0  0  0  0  0  0  0  0  0  0  0  0
  151.6242  129.7038  155.3412 C   0  0  0  0  0  0  0  0  0  0  0  0
  151.6413  130.8870  155.9965 C   0  0  0  0  0  0  0  0  0  0  0  0
  152.5664  131.0437  157.0942 N   0  3  0  0  0  0  0  0  0  0  0  0
  153.3113  130.1102  157.3774 O   0  0  0  0  0  0  0  0  0  0  0  0
  152.5626  132.1010  157.7173 O   0  5  0  0  0  0  0  0  0  0  0  0
  150.7467  131.9884  155.5865 C   0  0  0  0  0  0  0  0  0  0  0  0
  150.7090  133.0717  156.1727 O   0  0  0  0  0  0  0  0  0  0  0  0
  145.6244  132.3040  150.9733 C   0  0  2  0  0  0  0  0  0  0  0  0
  145.8321  133.7877  151.3598 C   0  0  0  0  0  0  0  0  0  0  0  0
  144.4760  134.4279  151.0115 C   0  0  2  0  0  0  0  0  0  0  0  0
  143.4391  134.0091  152.0693 C   0  0  0  0  0  0  0  0  0  0  0  0
  143.1825  132.5309  151.7232 C   0  0  0  0  0  0  0  0  0  0  0  0
  144.1384  132.2839  150.5374 C   0  0  1  0  0  0  0  0  0  0  0  0
  144.0352  133.6150  149.7989 C   0  0  0  0  0  0  0  0  0  0  0  0
  145.1248  129.5180  151.1577 H   0  0  0  0  0  0  0  0  0  0  0  0
  146.4272  129.1390  152.2724 H   0  0  0  0  0  0  0  0  0  0  0  0
  146.7995  129.7594  150.6660 H   0  0  0  0  0  0  0  0  0  0  0  0
  145.3537  131.3151  152.8805 H   0  0  0  0  0  0  0  0  0  0  0  0
  148.1539  131.4739  151.9506 H   0  0  0  0  0  0  0  0  0  0  0  0
  149.4750  133.1845  153.0283 H   0  0  0  0  0  0  0  0  0  0  0  0
  149.0243  133.6464  154.6336 H   0  0  0  0  0  0  0  0  0  0  0  0
  149.2770  130.4281  152.9922 H   0  0  0  0  0  0  0  0  0  0  0  0
  150.7317  128.5473  153.6938 H   0  0  0  0  0  0  0  0  0  0  0  0
  152.2876  128.9053  155.6407 H   0  0  0  0  0  0  0  0  0  0  0  0
  146.2244  132.1111  150.0816 H   0  0  0  0  0  0  0  0  0  0  0  0
  146.0825  133.9272  152.4124 H   0  0  0  0  0  0  0  0  0  0  0  0
  146.6383  134.2267  150.7706 H   0  0  0  0  0  0  0  0  0  0  0  0
  144.5289  135.5053  150.8533 H   0  0  0  0  0  0  0  0  0  0  0  0
  143.8094  134.1400  153.0868 H   0  0  0  0  0  0  0  0  0  0  0  0
  142.5224  134.5914  151.9695 H   0  0  0  0  0  0  0  0  0  0  0  0
  143.3492  131.8624  152.5665 H   0  0  0  0  0  0  0  0  0  0  0  0
  142.1472  132.3945  151.4082 H   0  0  0  0  0  0  0  0  0  0  0  0
  143.8706  131.4149  149.9357 H   0  0  0  0  0  0  0  0  0  0  0  0
  143.0226  133.8487  149.4654 H   0  0  0  0  0  0  0  0  0  0  0  0
  144.7178  133.6974  148.9509 H   0  0  0  0  0  0  0  0  0  0  0  0
  1  2  1  0  0  0  0
  1 24  1  0  0  0  0
  1 25  1  0  0  0  0
  1 26  1  0  0  0  0
  2  3  1  0  0  0  0
  2 17  1  0  0  0  0
  2 27  1  0  0  0  0
  3  4  1  0  0  0  0
  3 28  1  0  0  0  0
  4  5  2  0  0  0  0
  4  6  1  0  0  0  0
  6  7  1  0  0  0  0
  6 29  1  0  0  0  0
  6 30  1  0  0  0  0
  7 15  1  0  0  0  0
  7  8  1  0  0  0  0
  8  9  2  0  0  0  0
  8 31  1  0  0  0  0
  9 10  1  0  0  0  0
  9 32  1  0  0  0  0
 10 11  2  0  0  0  0
 10 33  1  0  0  0  0
 11 12  1  0  0  0  0
 11 15  1  0  0  0  0
 12 13  2  0  0  0  0
 12 14  1  0  0  0  0
 15 16  2  0  0  0  0
 17 22  1  0  0  0  0
 17 18  1  0  0  0  0
 17 34  1  0  0  0  0
 18 19  1  0  0  0  0
 18 35  1  0  0  0  0
 18 36  1  0  0  0  0
 19 23  1  0  0  0  0
 19 20  1  0  0  0  0
 19 37  1  0  0  0  0
 20 21  1  0  0  0  0
 20 38  1  0  0  0  0
 20 39  1  0  0  0  0
 21 22  1  0  0  0  0
 21 40  1  0  0  0  0
 21 41  1  0  0  0  0
 22 23  1  0  0  0  0
 22 42  1  0  0  0  0
 23 43  1  0  0  0  0
 23 44  1  0  0  0  0
M  CHG  1  12   1
M  CHG  1  14  -1
M  END
> <s_m_source_file>
AV-unprocessed.smi

> <i_m_source_file_index>
1512

> <i_lp_mmshare_version>
43012

> <i_f3d_flags>
0

> <s_epik_input>
W0NIMl0xW0NIMl1bQ0BIXShbQ0gyXTIpW0NAQEhdKFtDSDJdW0NAQEhdMTIpW0NASF0oW0NIM10pW05IXUMoPU8pW0NIMl1uM1tjSF1bY0hdW2NIXWMoW04rXSg9TylbTy1dKWMzPU8=

> <s_epik_cmdline>
J2VwaWtfcHl0aG9uJywgJy1waCcsICc3LjAnLCAnLXRuJywgJzgnLCAnLW1hJywgJzIwMCcsICctbWV0YWxfYmluZGluZycsICctaW1hZScsICc8aW5maWxlLm1hZT4nLCAnLW9tYWUnLCAnPG91dGZpbGUubWFlPic=

> <r_lp_tautomer_probability>
1

> <r_epik_Ionization_Penalty>
2.17697e-08

> <r_epik_Ionization_Penalty_Charging>
1.42735e-10

> <r_epik_Ionization_Penalty_Neutral>
2.16269e-08

> <r_epik_State_Penalty>
-0

> <r_epik_Charging_Adjusted_Penalty>
1.42735e-10

> <i_epik_Tot_Q>
0

> <i_epik_Tot_abs_Q>
2

> <r_epik_Metal_State_Penalty>
-0

> <b_epik_Metal_Only>
0

> <s_lp_Force_Field>
OPLS_2005

> <r_lp_Energy>
64.4109

> <b_lp_Chiralities_Consistent>
1

> <s_lp_Variant>
AV-unprocessed.smi:1512-6

> <Gold.Version>
5.8.1

> <Gold.Id.Protein>
6NUR|6NUR_protein|mol2

> <Gold.PLP.Fitness>
47.4495

> <Gold.PLP.PLP>
-43.1296

> <Gold.PLP.part.hbond>
-2.0000

> <Gold.PLP.part.metal>
0.0000

> <Gold.PLP.part.buried>
-3.4903

> <Gold.PLP.part.nonpolar>
-37.2254

> <Gold.PLP.part.repulsive>
0.0549

> <Gold.PLP.ligand.clash>
0.0000

> <Gold.PLP.ligand.torsion>
0.8362

> <Gold.PLP.Chemscore.Hbond>
1.9920

> <Gold.PLP.Chemscore.CHOScore>
0.0000

> <Gold.PLP.Chemscore.Metal>
0.0000

> <Gold.Chemscore.Hbonds>
donor molecule, donor type, donor heavy atom, donor atom, acceptor molecule, acceptor atom, score
      L1  H     3    28       P1 10747  1.00
      P1  H  6896  6907       L1    14  0.71
      L1  C     8    31       P1 10747  0.36

> <Gold.PLP.Chemscore.Internal.Correction>
0.0162

> <Gold.Rescore>
     Score         DG    S(hbond)    S(metal)    S(lipo)     H(rot)  DE(clash)    DE(int)     intcor
     16.33     -18.80       1.83        0.00      99.76       1.75       0.07       2.40       ----

> <Gold.Chemscore.Fitness>
16.3338

> <Gold.Chemscore.DG>
-18.7968

> <Gold.Chemscore.ZeroCoef>
-5.4800

> <Gold.Chemscore.Hbond>
1.8319

> <Gold.Chemscore.Metal>
0.0000

> <Gold.Chemscore.Lipo>
99.7569

> <Gold.Chemscore.Internal_Hbond>
0.0000

> <Gold.Chemscore.DEClash>
0.0665

> <Gold.Chemscore.DEInternal>
2.3966

> <Gold.Chemscore.Rot>
1.7474

> <Gold.Chemscore.Internal.Correction>
   9.000000E+99

> <Gold.Chemscore.Hbonds>
donor molecule, donor type, donor heavy atom, donor atom, acceptor molecule, acceptor atom, score
      L1  H     3    28       P1 10747  0.97
      P1  H  6896  6907       L1    14  0.70

> <Gold.Chemscore.Hbond.Weighted>
-6.1186

> <Gold.Chemscore.Metal.Weighted>
-0.0000

> <Gold.Chemscore.Lipo.Weighted>
-11.6716

> <Gold.Chemscore.Internal_Hbond.Weighted>
0.0000

> <Gold.Chemscore.DEClash.Weighted>
0.0665

> <Gold.Chemscore.DEInternal.Weighted>
2.3966

> <Gold.Chemscore.Rot.Weighted>
4.4733

> <Gold.Chemscore.Internal.Correction.Weighted>
   9.000000E+99

> <Gold.Protein.RotatedTorsions>
[ 6907 6896 6895 6894 ] final  155.02 input  -60.11 | X-H torsion
[ 7974 7965 7964 7962 ] final -127.90 input  175.53 | X-H torsion
[ 8008 7997 7996 7995 ] final -178.86 input   59.86 | X-H torsion
[ 10167 10162 10161 10158 ] final   83.00 input  -65.29 | X-H torsion
[ 10718 10713 10712 10709 ] final    6.95 input   66.30 | X-H torsion
[ 10763 10752 10751 10750 ] final -175.77 input  -60.55 | X-H torsion
[ 11005 11000 10999 10996 ] final  -25.18 input  -57.11 | X-H torsion

> <Gold.Protein.ActiveResidues>
 VAL166  LYS551  ARG553  GLY616  TRP617  ASP618  TYR619  PRO620  LYS621  CYS622 
 ASP623  PHE694  ASN695  SER759  ASP760  ASP761  ALA762  ILE779  LEU786  VAL792 
 PHE793  MET794  SER795  GLU796  ALA797  LYS798  CYS799  TRP800  GLU811  SER814 

> <Gold.Protein.RotatedAtoms>
  152.0501  133.4015  159.4373 H   0  0  0  0  0  0  0  0  0  0  0  0  # atno 6907 bound_to 6896
  150.6870  134.3318  159.4839 H   0  0  0  0  0  0  0  0  0  0  0  0  # atno 6908 bound_to 6896
  152.1127  134.9263  160.0616 H   0  0  0  0  0  0  0  0  0  0  0  0  # atno 6909 bound_to 6896
  144.9724  140.7559  143.4662 H   0  0  0  0  0  0  0  0  0  0  0  0  # atno 7974 bound_to 7965
  156.0237  140.1267  157.0330 H   0  0  0  0  0  0  0  0  0  0  0  0  # atno 8008 bound_to 7997
  154.4322  140.1063  156.6071 H   0  0  0  0  0  0  0  0  0  0  0  0  # atno 8009 bound_to 7997
  155.5907  140.3469  155.4568 H   0  0  0  0  0  0  0  0  0  0  0  0  # atno 8010 bound_to 7997
  139.9229  144.6201  150.8421 H   0  0  0  0  0  0  0  0  0  0  0  0  # atno 10167 bound_to 10162
  156.9298  130.5821  149.5649 H   0  0  0  0  0  0  0  0  0  0  0  0  # atno 10718 bound_to 10713
  154.5804  135.2836  155.0738 H   0  0  0  0  0  0  0  0  0  0  0  0  # atno 10763 bound_to 10752
  154.2076  135.6413  153.5109 H   0  0  0  0  0  0  0  0  0  0  0  0  # atno 10764 bound_to 10752
  153.0086  135.5484  154.6456 H   0  0  0  0  0  0  0  0  0  0  0  0  # atno 10765 bound_to 10752
  140.8914  133.7586  156.0426 H   0  0  0  0  0  0  0  0  0  0  0  0  # atno 11005 bound_to 11000
  145.2539  139.2020  143.4927 LP  0  0  0  0  0  0  0  0  0  0  0  0  # atno 17320 bound_to 7965
  146.3386  140.2457  142.8597 LP  0  0  0  0  0  0  0  0  0  0  0  0  # atno 17321 bound_to 7965
  140.7657  143.3284  151.2465 LP  0  0  0  0  0  0  0  0  0  0  0  0  # atno 17342 bound_to 10162
  139.6846  143.9796  152.2827 LP  0  0  0  0  0  0  0  0  0  0  0  0  # atno 17343 bound_to 10162
  156.0452  130.5530  150.8865 LP  0  0  0  0  0  0  0  0  0  0  0  0  # atno 17370 bound_to 10713
  157.5854  131.0945  150.9204 LP  0  0  0  0  0  0  0  0  0  0  0  0  # atno 17371 bound_to 10713
  140.8342  134.3143  157.5338 LP  0  0  0  0  0  0  0  0  0  0  0  0  # atno 17394 bound_to 11000
  139.8730  134.9380  156.3703 LP  0  0  0  0  0  0  0  0  0  0  0  0  # atno 17395 bound_to 11000

$$$$
