AV-unprocessed.smi:107|AV-procd|sdf|1027|dock2
  -GOLD-   2262018 23D 1   1.00000     0.00000
 Structure written by MMmdl.
 30 31  0  0  0  0  0  0  0  0  2 V2000
  150.5374  142.7998  158.9103 C   0  0  0  0  0  0  0  0  0  0  0  0
  150.8496  141.8568  157.7615 C   0  0  0  0  0  0  0  0  0  0  0  0
  150.0676  141.7756  156.6619 C   0  0  0  0  0  0  0  0  0  0  0  0
  150.3588  140.9162  155.6174 N   0  0  0  0  0  0  0  0  0  0  0  0
  149.4780  140.8672  154.3922 C   0  0  2  0  0  0  0  0  0  0  0  0
  148.3092  141.8360  154.5189 C   0  0  0  0  0  0  0  0  0  0  0  0
  147.2317  141.1471  153.6898 C   0  0  2  0  0  0  0  0  0  0  0  0
  145.9922  141.1940  154.3722 O   0  0  0  0  0  0  0  0  0  0  0  0
  147.7720  139.7179  153.4349 C   0  0  2  0  0  0  0  0  0  0  0  0
  146.7968  138.5597  153.7186 C   0  0  0  0  0  0  0  0  0  0  0  0
  145.8420  138.4631  152.6828 O   0  0  0  0  0  0  0  0  0  0  0  0
  148.9056  139.6066  154.2873 O   0  0  0  0  0  0  0  0  0  0  0  0
  151.5272  140.1135  155.6718 C   0  0  0  0  0  0  0  0  0  0  0  0
  151.7815  139.3930  154.7061 O   0  0  0  0  0  0  0  0  0  0  0  0
  152.3171  140.1811  156.7814 N   0  5  0  0  0  0  0  0  0  0  0  0
  152.0430  141.0045  157.8342 C   0  0  0  0  0  0  0  0  0  0  0  0
  152.7637  141.0536  158.8306 O   0  0  0  0  0  0  0  0  0  0  0  0
  149.6280  143.3701  158.7193 H   0  0  0  0  0  0  0  0  0  0  0  0
  151.3554  143.5061  159.0553 H   0  0  0  0  0  0  0  0  0  0  0  0
  150.3970  142.2399  159.8353 H   0  0  0  0  0  0  0  0  0  0  0  0
  149.1944  142.4081  156.5979 H   0  0  0  0  0  0  0  0  0  0  0  0
  150.1105  141.0443  153.5202 H   0  0  0  0  0  0  0  0  0  0  0  0
  148.0167  141.9081  155.5683 H   0  0  0  0  0  0  0  0  0  0  0  0
  148.5819  142.8275  154.1564 H   0  0  0  0  0  0  0  0  0  0  0  0
  147.1095  141.6611  152.7356 H   0  0  0  0  0  0  0  0  0  0  0  0
  145.3179  140.8763  153.7916 H   0  0  0  0  0  0  0  0  0  0  0  0
  148.1184  139.6693  152.4009 H   0  0  0  0  0  0  0  0  0  0  0  0
  147.3279  137.6145  153.8357 H   0  0  0  0  0  0  0  0  0  0  0  0
  146.2428  138.7420  154.6397 H   0  0  0  0  0  0  0  0  0  0  0  0
  145.2963  139.2342  152.7047 H   0  0  0  0  0  0  0  0  0  0  0  0
  1  2  1  0  0  0  0
  1 18  1  0  0  0  0
  1 19  1  0  0  0  0
  1 20  1  0  0  0  0
  2 16  1  0  0  0  0
  2  3  2  0  0  0  0
  3  4  1  0  0  0  0
  3 21  1  0  0  0  0
  4  5  1  0  0  0  0
  4 13  1  0  0  0  0
  5 12  1  0  0  0  0
  5  6  1  0  0  0  0
  5 22  1  0  0  0  0
  6  7  1  0  0  0  0
  6 23  1  0  0  0  0
  6 24  1  0  0  0  0
  7  8  1  0  0  0  0
  7  9  1  0  0  0  0
  7 25  1  0  0  0  0
  8 26  1  0  0  0  0
  9 10  1  0  0  0  0
  9 12  1  0  0  0  0
  9 27  1  0  0  0  0
 10 11  1  0  0  0  0
 10 28  1  0  0  0  0
 10 29  1  0  0  0  0
 11 30  1  0  0  0  0
 13 14  2  0  0  0  0
 13 15  1  0  0  0  0
 15 16  1  0  0  0  0
 16 17  2  0  0  0  0
M  CHG  1  15  -1
M  END
> <s_m_source_file>
AV-unprocessed.smi

> <i_m_source_file_index>
107

> <i_lp_mmshare_version>
43012

> <i_f3d_flags>
0

> <s_epik_input>
Tz1jMVtuSF1jKD1PKW4oW2NIXWMxW0NIM10pW0NAQEhdMltDSDJdW0NAQEhdKFtPSF0pW0NASF0oTzIpW0NIMl1bT0hd

> <s_epik_cmdline>
J2VwaWtfcHl0aG9uJywgJy1waCcsICc3LjAnLCAnLXRuJywgJzgnLCAnLW1hJywgJzIwMCcsICctbWV0YWxfYmluZGluZycsICctaW1hZScsICc8aW5maWxlLm1hZT4nLCAnLW9tYWUnLCAnPG91dGZpbGUubWFlPic=

> <r_lp_tautomer_probability>
0.999537

> <r_epik_Ionization_Penalty>
3.66603

> <r_epik_Ionization_Penalty_Charging>
1.09773e-07

> <r_epik_Ionization_Penalty_Neutral>
3.66603

> <r_epik_State_Penalty>
3.66562

> <r_epik_Charging_Adjusted_Penalty>
3.66562

> <i_epik_Tot_Q>
-1

> <i_epik_Tot_abs_Q>
1

> <r_epik_Metal_State_Penalty>
0.234536

> <b_epik_Metal_Only>
1

> <s_epik_Chemistry_Notes>
This compound contains an acetal/aminal-like group ( X-CH(R)-Y where X, Y are N, S, or O) that may be acid/base labile, releasing an aldehyde.

> <s_lp_Force_Field>
OPLS_2005

> <r_lp_Energy>
40.7454

> <b_lp_Chiralities_Consistent>
1

> <s_lp_Variant>
AV-unprocessed.smi:107-15

> <Gold.Version>
5.8.1

> <Gold.Id.Protein>
6NUR|6NUR_protein|mol2

> <Gold.PLP.Fitness>
43.5254

> <Gold.PLP.PLP>
-27.8279

> <Gold.PLP.part.hbond>
-3.8216

> <Gold.PLP.part.metal>
0.0000

> <Gold.PLP.part.buried>
0.5711

> <Gold.PLP.part.nonpolar>
-23.7674

> <Gold.PLP.part.repulsive>
0.2020

> <Gold.PLP.ligand.clash>
0.0000

> <Gold.PLP.ligand.torsion>
0.1359

> <Gold.PLP.Chemscore.Hbond>
4.3150

> <Gold.PLP.Chemscore.CHOScore>
1.0000

> <Gold.PLP.Chemscore.Metal>
0.0000

> <Gold.Chemscore.Hbonds>
donor molecule, donor type, donor heavy atom, donor atom, acceptor molecule, acceptor atom, score
      L1  H     8    26       P1 10175  0.76
      L1  H    11    30       P1 10175  0.96
      P1  H  7989  7998       L1    14  0.60
      P1  H  7997  8009       L1    15  1.95
      L1  C     3    21       P1  8028  1.00

> <Gold.PLP.Chemscore.Internal.Correction>
0.0243

> <Gold.Rescore>
     Score         DG    S(hbond)    S(metal)    S(lipo)     H(rot)  DE(clash)    DE(int)     intcor
     10.34     -12.57       2.67        0.00      43.20       2.69       0.96       1.27       ----

> <Gold.Chemscore.Fitness>
10.3393

> <Gold.Chemscore.DG>
-12.5723

> <Gold.Chemscore.ZeroCoef>
-5.4800

> <Gold.Chemscore.Hbond>
2.6696

> <Gold.Chemscore.Metal>
0.0000

> <Gold.Chemscore.Lipo>
43.2043

> <Gold.Chemscore.Internal_Hbond>
0.0000

> <Gold.Chemscore.DEClash>
0.9591

> <Gold.Chemscore.DEInternal>
1.2739

> <Gold.Chemscore.Rot>
2.6871

> <Gold.Chemscore.Internal.Correction>
   9.000000E+99

> <Gold.Chemscore.Hbonds>
donor molecule, donor type, donor heavy atom, donor atom, acceptor molecule, acceptor atom, score
      L1  H     8    26       P1 10175  0.66
      L1  H    11    30       P1 10175  0.91
      P1  H  7989  7998       L1    14  0.04
      P1  H  7997  8009       L1    15  0.56

> <Gold.Chemscore.Hbond.Weighted>
-8.9165

> <Gold.Chemscore.Metal.Weighted>
-0.0000

> <Gold.Chemscore.Lipo.Weighted>
-5.0549

> <Gold.Chemscore.Internal_Hbond.Weighted>
0.0000

> <Gold.Chemscore.DEClash.Weighted>
0.9591

> <Gold.Chemscore.DEInternal.Weighted>
1.2739

> <Gold.Chemscore.Rot.Weighted>
6.8791

> <Gold.Chemscore.Internal.Correction.Weighted>
   9.000000E+99

> <Gold.Protein.RotatedTorsions>
[ 6907 6896 6895 6894 ] final  -47.87 input  -60.11 | X-H torsion
[ 7974 7965 7964 7962 ] final  -85.72 input  175.53 | X-H torsion
[ 8008 7997 7996 7995 ] final -172.78 input   59.86 | X-H torsion
[ 10167 10162 10161 10158 ] final -106.83 input  -65.29 | X-H torsion
[ 10718 10713 10712 10709 ] final  -73.58 input   66.30 | X-H torsion
[ 10763 10752 10751 10750 ] final   -6.92 input  -60.55 | X-H torsion
[ 11005 11000 10999 10996 ] final  -40.21 input  -57.11 | X-H torsion

> <Gold.Protein.ActiveResidues>
 VAL166  LYS551  ARG553  GLY616  TRP617  ASP618  TYR619  PRO620  LYS621  CYS622 
 ASP623  PHE694  ASN695  SER759  ASP760  ASP761  ALA762  ILE779  LEU786  VAL792 
 PHE793  MET794  SER795  GLU796  ALA797  LYS798  CYS799  TRP800  GLU811  SER814 

> <Gold.Protein.RotatedAtoms>
  150.8963  134.8371  159.7328 H   0  0  0  0  0  0  0  0  0  0  0  0  # atno 6907 bound_to 6896
  152.4867  134.4571  159.9603 H   0  0  0  0  0  0  0  0  0  0  0  0  # atno 6908 bound_to 6896
  151.4628  133.3549  159.2847 H   0  0  0  0  0  0  0  0  0  0  0  0  # atno 6909 bound_to 6896
  145.4895  140.9553  143.1820 H   0  0  0  0  0  0  0  0  0  0  0  0  # atno 7974 bound_to 7965
  155.9490  140.1123  157.0993 H   0  0  0  0  0  0  0  0  0  0  0  0  # atno 8008 bound_to 7997
  154.4105  140.1204  156.5093 H   0  0  0  0  0  0  0  0  0  0  0  0  # atno 8009 bound_to 7997
  155.6866  140.3473  155.4879 H   0  0  0  0  0  0  0  0  0  0  0  0  # atno 8010 bound_to 7997
  140.1835  143.3948  152.1263 H   0  0  0  0  0  0  0  0  0  0  0  0  # atno 10167 bound_to 10162
  156.0275  130.4397  150.2764 H   0  0  0  0  0  0  0  0  0  0  0  0  # atno 10718 bound_to 10713
  153.4191  135.7009  153.6306 H   0  0  0  0  0  0  0  0  0  0  0  0  # atno 10763 bound_to 10752
  153.4769  135.3702  155.2421 H   0  0  0  0  0  0  0  0  0  0  0  0  # atno 10764 bound_to 10752
  154.8721  135.4056  154.3556 H   0  0  0  0  0  0  0  0  0  0  0  0  # atno 10765 bound_to 10752
  141.0158  133.6886  156.2291 H   0  0  0  0  0  0  0  0  0  0  0  0  # atno 11005 bound_to 11000
  144.7842  139.6461  143.7141 LP  0  0  0  0  0  0  0  0  0  0  0  0  # atno 17320 bound_to 7965
  146.2293  139.5782  142.9566 LP  0  0  0  0  0  0  0  0  0  0  0  0  # atno 17321 bound_to 7965
  139.5286  144.7132  151.5138 LP  0  0  0  0  0  0  0  0  0  0  0  0  # atno 17342 bound_to 10162
  140.6504  143.8709  150.6779 LP  0  0  0  0  0  0  0  0  0  0  0  0  # atno 17343 bound_to 10162
  157.0867  131.0158  151.3137 LP  0  0  0  0  0  0  0  0  0  0  0  0  # atno 17370 bound_to 10713
  157.4886  130.7808  149.7485 LP  0  0  0  0  0  0  0  0  0  0  0  0  # atno 17371 bound_to 10713
  140.6656  134.4921  157.5585 LP  0  0  0  0  0  0  0  0  0  0  0  0  # atno 17394 bound_to 11000
  139.9116  134.8332  156.1508 LP  0  0  0  0  0  0  0  0  0  0  0  0  # atno 17395 bound_to 11000

$$$$
