AV-unprocessed.smi:1011|AV-procd|sdf|4419|dock6
  -GOLD-   22720 2363D 1   1.00000     0.00000
 Structure written by MMmdl.
 44 46  0  0  0  0  0  0  0  0  2 V2000
  147.1863  142.2814  153.9771 C   0  0  0  0  0  0  0  0  0  0  0  0
  148.3098  141.3174  154.2286 C   0  0  0  0  0  0  0  0  0  0  0  0
  149.5646  141.5825  154.8469 C   0  0  0  0  0  0  0  0  0  0  0  0
  150.3370  140.5109  154.9219 N   0  0  0  0  0  0  0  0  0  0  0  0
  149.6066  139.5276  154.3534 N   0  0  0  0  0  0  0  0  0  0  0  0
  150.1434  138.1799  154.2753 C   0  0  0  0  0  0  0  0  0  0  0  0
  149.3693  137.2043  155.1756 C   0  0  0  0  0  0  0  0  0  0  0  0
  149.2588  135.8736  154.5482 N   0  3  0  0  0  0  0  0  0  0  0  0
  148.3571  134.9421  155.2494 C   0  0  0  0  0  0  0  0  0  0  0  0
  147.6507  134.2468  154.1262 C   0  0  0  0  0  0  0  0  0  0  0  0
  146.6222  134.8091  153.4913 N   0  0  0  0  0  0  0  0  0  0  0  0
  146.2822  133.8521  152.5547 C   0  0  0  0  0  0  0  0  0  0  0  0
  145.2646  133.8472  151.5743 C   0  0  0  0  0  0  0  0  0  0  0  0
  145.1060  132.7398  150.7151 C   0  0  0  0  0  0  0  0  0  0  0  0
  143.8576  132.7499  149.5244 Cl  0  0  0  0  0  0  0  0  0  0  0  0
  145.9622  131.6246  150.8242 C   0  0  0  0  0  0  0  0  0  0  0  0
  146.9836  131.6095  151.7936 C   0  0  0  0  0  0  0  0  0  0  0  0
  147.1366  132.7171  152.6485 C   0  0  0  0  0  0  0  0  0  0  0  0
  148.0170  133.0155  153.6838 N   0  0  0  0  0  0  0  0  0  0  0  0
  149.0952  132.1569  154.1605 C   0  0  0  0  0  0  0  0  0  0  0  0
  148.6170  130.7294  154.4710 C   0  0  0  0  0  0  0  0  0  0  0  0
  149.6765  129.9351  154.9618 O   0  0  0  0  0  0  0  0  0  0  0  0
  148.3787  139.9868  153.9266 C   0  0  0  0  0  0  0  0  0  0  0  0
  147.5564  143.2632  153.6815 H   0  0  0  0  0  0  0  0  0  0  0  0
  146.5729  142.4232  154.8670 H   0  0  0  0  0  0  0  0  0  0  0  0
  146.5251  141.9360  153.1821 H   0  0  0  0  0  0  0  0  0  0  0  0
  149.9340  142.5170  155.2431 H   0  0  0  0  0  0  0  0  0  0  0  0
  150.0858  137.8508  153.2371 H   0  0  0  0  0  0  0  0  0  0  0  0
  151.2019  138.1989  154.5396 H   0  0  0  0  0  0  0  0  0  0  0  0
  149.8759  137.1193  156.1381 H   0  0  0  0  0  0  0  0  0  0  0  0
  148.3670  137.5845  155.3747 H   0  0  0  0  0  0  0  0  0  0  0  0
  148.9528  135.9762  153.5911 H   0  0  0  0  0  0  0  0  0  0  0  0
  148.9050  134.2284  155.8646 H   0  0  0  0  0  0  0  0  0  0  0  0
  147.6505  135.4816  155.8813 H   0  0  0  0  0  0  0  0  0  0  0  0
  144.6044  134.6972  151.4839 H   0  0  0  0  0  0  0  0  0  0  0  0
  145.8350  130.7794  150.1633 H   0  0  0  0  0  0  0  0  0  0  0  0
  147.6393  130.7558  151.8790 H   0  0  0  0  0  0  0  0  0  0  0  0
  149.8682  132.1254  153.3918 H   0  0  0  0  0  0  0  0  0  0  0  0
  149.5657  132.5987  155.0384 H   0  0  0  0  0  0  0  0  0  0  0  0
  147.8140  130.7452  155.2085 H   0  0  0  0  0  0  0  0  0  0  0  0
  148.2163  130.2636  153.5704 H   0  0  0  0  0  0  0  0  0  0  0  0
  149.3250  129.1004  155.2329 H   0  0  0  0  0  0  0  0  0  0  0  0
  147.6605  139.3347  153.4510 H   0  0  0  0  0  0  0  0  0  0  0  0
  150.1806  135.4595  154.5455 H   0  0  0  0  0  0  0  0  0  0  0  0
  1  2  1  0  0  0  0
  1 24  1  0  0  0  0
  1 25  1  0  0  0  0
  1 26  1  0  0  0  0
  2 23  2  0  0  0  0
  2  3  1  0  0  0  0
  3  4  2  0  0  0  0
  3 27  1  0  0  0  0
  4  5  1  0  0  0  0
  5  6  1  0  0  0  0
  5 23  1  0  0  0  0
  6  7  1  0  0  0  0
  6 28  1  0  0  0  0
  6 29  1  0  0  0  0
  7  8  1  0  0  0  0
  7 30  1  0  0  0  0
  7 31  1  0  0  0  0
  8  9  1  0  0  0  0
  8 32  1  0  0  0  0
  8 44  1  0  0  0  0
  9 10  1  0  0  0  0
  9 33  1  0  0  0  0
  9 34  1  0  0  0  0
 10 19  1  0  0  0  0
 10 11  2  0  0  0  0
 11 12  1  0  0  0  0
 12 18  2  0  0  0  0
 12 13  1  0  0  0  0
 13 14  2  0  0  0  0
 13 35  1  0  0  0  0
 14 15  1  0  0  0  0
 14 16  1  0  0  0  0
 16 17  2  0  0  0  0
 16 36  1  0  0  0  0
 17 18  1  0  0  0  0
 17 37  1  0  0  0  0
 18 19  1  0  0  0  0
 19 20  1  0  0  0  0
 20 21  1  0  0  0  0
 20 38  1  0  0  0  0
 20 39  1  0  0  0  0
 21 22  1  0  0  0  0
 21 40  1  0  0  0  0
 21 41  1  0  0  0  0
 22 42  1  0  0  0  0
 23 43  1  0  0  0  0
M  CHG  1   8   1
M  END
> <s_m_source_file>
AV-unprocessed.smi

> <i_m_source_file_index>
1011

> <i_lp_mmshare_version>
43012

> <i_f3d_flags>
0

> <s_epik_input>
W0NIM11jMVtjSF1ubihbY0hdMSlbQ0gyXVtDSDJdW05IXVtDSDJdYyhuMiluKFtDSDJdW0NIMl1bT0hdKWMoYzIzKVtjSF1bY0hdYyhDbClbY0hdMw==

> <s_epik_cmdline>
J2VwaWtfcHl0aG9uJywgJy1waCcsICc3LjAnLCAnLXRuJywgJzgnLCAnLW1hJywgJzIwMCcsICctbWV0YWxfYmluZGluZycsICctaW1hZScsICc8aW5maWxlLm1hZT4nLCAnLW9tYWUnLCAnPG91dGZpbGUubWFlPic=

> <r_lp_tautomer_probability>
1

> <r_epik_Ionization_Penalty>
0.234823

> <r_epik_Ionization_Penalty_Charging>
0.2345

> <r_epik_Ionization_Penalty_Neutral>
0.00032281

> <r_epik_State_Penalty>
0.238632

> <r_epik_Charging_Adjusted_Penalty>
0.473132

> <i_epik_Tot_Q>
1

> <i_epik_Tot_abs_Q>
1

> <r_epik_Metal_State_Penalty>
0.25397

> <b_epik_Metal_Only>
0

> <s_lp_Force_Field>
OPLS_2005

> <r_lp_Energy>
6.60255

> <b_lp_Chiralities_Consistent>
1

> <s_lp_Variant>
AV-unprocessed.smi:1011-1

> <Gold.Version>
5.8.1

> <Gold.Id.Protein>
6NUR|6NUR_protein|mol2

> <Gold.PLP.Fitness>
50.0855

> <Gold.PLP.PLP>
-39.9455

> <Gold.PLP.part.hbond>
-2.0000

> <Gold.PLP.part.metal>
0.0000

> <Gold.PLP.part.buried>
0.8830

> <Gold.PLP.part.nonpolar>
-39.8928

> <Gold.PLP.part.repulsive>
0.2011

> <Gold.PLP.ligand.clash>
0.0000

> <Gold.PLP.ligand.torsion>
0.9665

> <Gold.PLP.Chemscore.Hbond>
2.9920

> <Gold.PLP.Chemscore.CHOScore>
1.0000

> <Gold.PLP.Chemscore.Metal>
0.0000

> <Gold.Chemscore.Hbonds>
donor molecule, donor type, donor heavy atom, donor atom, acceptor molecule, acceptor atom, score
      L1  H     8    32       P1  7948  2.00
      P1  H  7989  7998       L1     4  0.98
      L1  C     3    27       P1  8028  1.00

> <Gold.PLP.Chemscore.Internal.Correction>
0.0970

> <Gold.Rescore>
     Score         DG    S(hbond)    S(metal)    S(lipo)     H(rot)  DE(clash)    DE(int)     intcor
     13.26     -15.05       1.71        0.00      97.19       2.94       0.84       0.94       ----

> <Gold.Chemscore.Fitness>
13.2620

> <Gold.Chemscore.DG>
-15.0466

> <Gold.Chemscore.ZeroCoef>
-5.4800

> <Gold.Chemscore.Hbond>
1.7114

> <Gold.Chemscore.Metal>
0.0000

> <Gold.Chemscore.Lipo>
97.1916

> <Gold.Chemscore.Internal_Hbond>
0.0000

> <Gold.Chemscore.DEClash>
0.8405

> <Gold.Chemscore.DEInternal>
0.9441

> <Gold.Chemscore.Rot>
2.9378

> <Gold.Chemscore.Internal.Correction>
   9.000000E+99

> <Gold.Chemscore.Hbonds>
donor molecule, donor type, donor heavy atom, donor atom, acceptor molecule, acceptor atom, score
      L1  H     8    32       P1  7948  0.97
      P1  H  7989  7998       L1     4  0.08

> <Gold.Chemscore.Hbond.Weighted>
-5.7161

> <Gold.Chemscore.Metal.Weighted>
-0.0000

> <Gold.Chemscore.Lipo.Weighted>
-11.3714

> <Gold.Chemscore.Internal_Hbond.Weighted>
0.0000

> <Gold.Chemscore.DEClash.Weighted>
0.8405

> <Gold.Chemscore.DEInternal.Weighted>
0.9441

> <Gold.Chemscore.Rot.Weighted>
7.5209

> <Gold.Chemscore.Internal.Correction.Weighted>
   9.000000E+99

> <Gold.Protein.RotatedTorsions>
[ 6907 6896 6895 6894 ] final  129.82 input  -60.11 | X-H torsion
[ 7974 7965 7964 7962 ] final -139.25 input  175.53 | X-H torsion
[ 8008 7997 7996 7995 ] final   31.77 input   59.86 | X-H torsion
[ 10167 10162 10161 10158 ] final   86.92 input  -65.29 | X-H torsion
[ 10718 10713 10712 10709 ] final  167.25 input   66.30 | X-H torsion
[ 10763 10752 10751 10750 ] final -177.68 input  -60.55 | X-H torsion
[ 11005 11000 10999 10996 ] final  -77.01 input  -57.11 | X-H torsion

> <Gold.Protein.ActiveResidues>
 VAL166  LYS551  ARG553  GLY616  TRP617  ASP618  TYR619  PRO620  LYS621  CYS622 
 ASP623  PHE694  ASN695  SER759  ASP760  ASP761  ALA762  ILE779  LEU786  VAL792 
 PHE793  MET794  SER795  GLU796  ALA797  LYS798  CYS799  TRP800  GLU811  SER814 

> <Gold.Protein.RotatedAtoms>
  152.3586  133.6269  159.5997 H   0  0  0  0  0  0  0  0  0  0  0  0  # atno 6907 bound_to 6896
  150.7586  133.9459  159.3479 H   0  0  0  0  0  0  0  0  0  0  0  0  # atno 6908 bound_to 6896
  151.7301  135.0877  160.0350 H   0  0  0  0  0  0  0  0  0  0  0  0  # atno 6909 bound_to 6896
  144.8692  140.6341  143.5278 H   0  0  0  0  0  0  0  0  0  0  0  0  # atno 7974 bound_to 7965
  155.1117  140.3239  155.4520 H   0  0  0  0  0  0  0  0  0  0  0  0  # atno 8008 bound_to 7997
  156.2688  140.2043  156.6189 H   0  0  0  0  0  0  0  0  0  0  0  0  # atno 8009 bound_to 7997
  154.6751  140.0532  157.0193 H   0  0  0  0  0  0  0  0  0  0  0  0  # atno 8010 bound_to 7997
  139.8827  144.6431  150.8826 H   0  0  0  0  0  0  0  0  0  0  0  0  # atno 10167 bound_to 10162
  157.0542  131.0322  151.2670 H   0  0  0  0  0  0  0  0  0  0  0  0  # atno 10718 bound_to 10713
  154.5571  135.2817  155.0954 H   0  0  0  0  0  0  0  0  0  0  0  0  # atno 10763 bound_to 10752
  154.2378  135.6362  153.5200 H   0  0  0  0  0  0  0  0  0  0  0  0  # atno 10764 bound_to 10752
  153.0018  135.5552  154.6154 H   0  0  0  0  0  0  0  0  0  0  0  0  # atno 10765 bound_to 10752
  141.1658  133.7006  156.7756 H   0  0  0  0  0  0  0  0  0  0  0  0  # atno 11005 bound_to 11000
  145.4162  139.1571  143.4099 LP  0  0  0  0  0  0  0  0  0  0  0  0  # atno 17320 bound_to 7965
  146.2918  140.4270  142.8736 LP  0  0  0  0  0  0  0  0  0  0  0  0  # atno 17321 bound_to 7965
  140.7741  143.3573  151.1896 LP  0  0  0  0  0  0  0  0  0  0  0  0  # atno 17342 bound_to 10162
  139.7181  143.9267  152.2975 LP  0  0  0  0  0  0  0  0  0  0  0  0  # atno 17343 bound_to 10162
  157.5006  130.7877  149.7600 LP  0  0  0  0  0  0  0  0  0  0  0  0  # atno 17370 bound_to 10713
  155.9998  130.3887  150.2650 LP  0  0  0  0  0  0  0  0  0  0  0  0  # atno 17371 bound_to 10713
  140.2432  134.8597  157.3594 LP  0  0  0  0  0  0  0  0  0  0  0  0  # atno 17394 bound_to 11000
  140.1775  134.4531  155.7792 LP  0  0  0  0  0  0  0  0  0  0  0  0  # atno 17395 bound_to 11000

$$$$
