AV-unprocessed.smi:2775|AV-procd|sdf|10697|dock5
  -GOLD-   2272015133D 1   1.00000     0.00000
 Structure written by MMmdl.
 43 46  0  0  0  0  0  0  0  0  2 V2000
  144.3066  132.8491  149.9059 C   0  0  0  0  0  0  0  0  0  0  0  0
  144.3510  134.0353  150.8500 C   0  0  0  0  0  0  0  0  0  0  0  0
  143.1797  134.6267  151.1724 N   0  3  0  0  0  0  0  0  0  0  0  0
  143.0950  135.6829  152.0071 C   0  0  0  0  0  0  0  0  0  0  0  0
  144.2631  136.2213  152.5813 C   0  0  0  0  0  0  0  0  0  0  0  0
  145.5218  135.6491  152.2658 C   0  0  0  0  0  0  0  0  0  0  0  0
  146.7541  136.1119  152.8054 N   0  0  0  0  0  0  0  0  0  0  0  0
  146.9820  137.0019  153.7903 C   0  0  0  0  0  0  0  0  0  0  0  0
  146.1094  137.6102  154.4052 O   0  0  0  0  0  0  0  0  0  0  0  0
  148.2859  137.1979  154.0515 N   0  0  0  0  0  0  0  0  0  0  0  0
  148.8653  138.0925  155.0538 C   0  0  1  0  0  0  0  0  0  0  0  0
  150.3495  138.3677  154.8057 C   0  0  2  0  0  0  0  0  0  0  0  0
  151.6039  137.9717  155.4973 C   0  0  0  0  0  0  0  0  0  0  0  0
  152.3051  139.3536  155.4643 C   0  0  0  0  0  0  0  0  0  0  0  0
  151.3031  140.2936  155.0055 O   0  0  0  0  0  0  0  0  0  0  0  0
  150.0754  139.7296  155.4249 C   0  0  1  0  0  0  0  0  0  0  0  0
  148.7143  139.6171  154.7259 C   0  0  0  0  0  0  0  0  0  0  0  0
  147.5025  140.4269  155.2022 C   0  0  0  0  0  0  0  0  0  0  0  0
  147.0440  140.5223  153.7427 C   0  0  0  0  0  0  0  0  0  0  0  0
  148.4716  140.1725  153.3101 C   0  0  0  0  0  0  0  0  0  0  0  0
  145.5586  134.5314  151.3954 C   0  0  0  0  0  0  0  0  0  0  0  0
  147.0660  133.7769  150.9961 Cl  0  0  0  0  0  0  0  0  0  0  0  0
  144.9009  133.0511  149.0143 H   0  0  0  0  0  0  0  0  0  0  0  0
  143.2865  132.6286  149.5896 H   0  0  0  0  0  0  0  0  0  0  0  0
  144.7086  131.9612  150.3939 H   0  0  0  0  0  0  0  0  0  0  0  0
  142.1005  136.0610  152.1940 H   0  0  0  0  0  0  0  0  0  0  0  0
  144.1639  137.0536  153.2603 H   0  0  0  0  0  0  0  0  0  0  0  0
  147.5801  135.7502  152.3510 H   0  0  0  0  0  0  0  0  0  0  0  0
  148.9454  136.6752  153.4930 H   0  0  0  0  0  0  0  0  0  0  0  0
  148.6462  137.8281  156.0922 H   0  0  0  0  0  0  0  0  0  0  0  0
  150.5353  138.4384  153.7274 H   0  0  0  0  0  0  0  0  0  0  0  0
  151.4178  137.6319  156.5170 H   0  0  0  0  0  0  0  0  0  0  0  0
  152.1613  137.2045  154.9593 H   0  0  0  0  0  0  0  0  0  0  0  0
  152.6609  139.6314  156.4571 H   0  0  0  0  0  0  0  0  0  0  0  0
  153.1565  139.3643  154.7834 H   0  0  0  0  0  0  0  0  0  0  0  0
  149.9884  139.7127  156.5166 H   0  0  0  0  0  0  0  0  0  0  0  0
  146.8194  139.8893  155.8596 H   0  0  0  0  0  0  0  0  0  0  0  0
  147.7828  141.3956  155.6182 H   0  0  0  0  0  0  0  0  0  0  0  0
  146.3209  139.7509  153.4750 H   0  0  0  0  0  0  0  0  0  0  0  0
  146.7070  141.5133  153.4371 H   0  0  0  0  0  0  0  0  0  0  0  0
  149.0743  141.0574  153.1005 H   0  0  0  0  0  0  0  0  0  0  0  0
  148.5351  139.4453  152.5004 H   0  0  0  0  0  0  0  0  0  0  0  0
  142.3192  134.2541  150.7700 H   0  0  0  0  0  0  0  0  0  0  0  0
  1  2  1  0  0  0  0
  1 23  1  0  0  0  0
  1 24  1  0  0  0  0
  1 25  1  0  0  0  0
  2 21  1  0  0  0  0
  2  3  2  0  0  0  0
  3  4  1  0  0  0  0
  3 43  1  0  0  0  0
  4  5  2  0  0  0  0
  4 26  1  0  0  0  0
  5  6  1  0  0  0  0
  5 27  1  0  0  0  0
  6  7  1  0  0  0  0
  6 21  2  0  0  0  0
  7  8  1  0  0  0  0
  7 28  1  0  0  0  0
  8  9  2  0  0  0  0
  8 10  1  0  0  0  0
 10 11  1  0  0  0  0
 10 29  1  0  0  0  0
 11 17  1  0  0  0  0
 11 12  1  0  0  0  0
 11 30  1  0  0  0  0
 12 16  1  0  0  0  0
 12 13  1  0  0  0  0
 12 31  1  0  0  0  0
 13 14  1  0  0  0  0
 13 32  1  0  0  0  0
 13 33  1  0  0  0  0
 14 15  1  0  0  0  0
 14 34  1  0  0  0  0
 14 35  1  0  0  0  0
 15 16  1  0  0  0  0
 16 17  1  0  0  0  0
 16 36  1  0  0  0  0
 17 20  1  0  0  0  0
 17 18  1  0  0  0  0
 18 19  1  0  0  0  0
 18 37  1  0  0  0  0
 18 38  1  0  0  0  0
 19 20  1  0  0  0  0
 19 39  1  0  0  0  0
 19 40  1  0  0  0  0
 20 41  1  0  0  0  0
 20 42  1  0  0  0  0
 21 22  1  0  0  0  0
M  CHG  1   3   1
M  END
> <s_m_source_file>
AV-unprocessed.smi

> <i_m_source_file_index>
2775

> <i_lp_mmshare_version>
43012

> <i_f3d_flags>
0

> <s_epik_input>
W0NIM11jMW5bY0hdW2NIXWMoYzFDbClbTkhdQyg9TylbTkhdW0NAQEhdMltDQEhdKFtDSDJdW0NIMl1PMylbQ0BASF0zQzI0W0NIMl1bQ0gyXVtDSDJdNA==

> <s_epik_cmdline>
J2VwaWtfcHl0aG9uJywgJy1waCcsICc3LjAnLCAnLXRuJywgJzgnLCAnLW1hJywgJzIwMCcsICctbWV0YWxfYmluZGluZycsICctaW1hZScsICc8aW5maWxlLm1hZT4nLCAnLW9tYWUnLCAnPG91dGZpbGUubWFlPic=

> <r_epik_Ionization_Penalty>
2.4104

> <r_epik_Ionization_Penalty_Charging>
2.41038

> <r_epik_Ionization_Penalty_Neutral>
1.9872e-05

> <r_epik_State_Penalty>
2.56896

> <r_epik_Charging_Adjusted_Penalty>
4.97934

> <i_epik_Tot_Q>
1

> <i_epik_Tot_abs_Q>
1

> <r_epik_Metal_State_Penalty>
2.57906

> <b_epik_Metal_Only>
0

> <s_lp_Force_Field>
OPLS_2005

> <r_lp_Energy>
84.4101

> <b_lp_Chiralities_Consistent>
1

> <s_lp_Variant>
AV-unprocessed.smi:2775-10

> <Gold.Version>
5.8.1

> <Gold.Id.Protein>
6NUR|6NUR_protein|mol2

> <Gold.PLP.Fitness>
39.7444

> <Gold.PLP.PLP>
-28.0109

> <Gold.PLP.part.hbond>
-3.8788

> <Gold.PLP.part.metal>
0.0000

> <Gold.PLP.part.buried>
0.9344

> <Gold.PLP.part.nonpolar>
-24.6253

> <Gold.PLP.part.repulsive>
0.1368

> <Gold.PLP.ligand.clash>
0.0000

> <Gold.PLP.ligand.torsion>
0.1844

> <Gold.PLP.Chemscore.Hbond>
3.9280

> <Gold.PLP.Chemscore.CHOScore>
0.0000

> <Gold.PLP.Chemscore.Metal>
0.0000

> <Gold.Chemscore.Hbonds>
donor molecule, donor type, donor heavy atom, donor atom, acceptor molecule, acceptor atom, score
      L1  H     3    43       P1 10186  1.92
      L1  H     7    28       P1  7948  0.78
      L1  H    10    29       P1  7948  0.67
      P1  H  7989  7998       L1    15  1.00

> <Gold.PLP.Chemscore.Internal.Correction>
0.3183

> <Gold.Rescore>
     Score         DG    S(hbond)    S(metal)    S(lipo)     H(rot)  DE(clash)    DE(int)     intcor
     18.38     -21.77       2.46        0.00      90.79       1.00       2.02       1.37       ----

> <Gold.Chemscore.Fitness>
18.3846

> <Gold.Chemscore.DG>
-21.7712

> <Gold.Chemscore.ZeroCoef>
-5.4800

> <Gold.Chemscore.Hbond>
2.4638

> <Gold.Chemscore.Metal>
0.0000

> <Gold.Chemscore.Lipo>
90.7858

> <Gold.Chemscore.Internal_Hbond>
0.0000

> <Gold.Chemscore.DEClash>
2.0161

> <Gold.Chemscore.DEInternal>
1.3705

> <Gold.Chemscore.Rot>
1.0000

> <Gold.Chemscore.Internal.Correction>
   9.000000E+99

> <Gold.Chemscore.Hbonds>
donor molecule, donor type, donor heavy atom, donor atom, acceptor molecule, acceptor atom, score
      L1  H     3    43       P1 10186  0.24
      L1  H     7    28       P1  7948  0.74
      L1  H    10    29       P1  7948  0.66
      P1  H  7989  7998       L1    15  0.80

> <Gold.Chemscore.Hbond.Weighted>
-8.2292

> <Gold.Chemscore.Metal.Weighted>
-0.0000

> <Gold.Chemscore.Lipo.Weighted>
-10.6219

> <Gold.Chemscore.Internal_Hbond.Weighted>
0.0000

> <Gold.Chemscore.DEClash.Weighted>
2.0161

> <Gold.Chemscore.DEInternal.Weighted>
1.3705

> <Gold.Chemscore.Rot.Weighted>
2.5600

> <Gold.Chemscore.Internal.Correction.Weighted>
   9.000000E+99

> <Gold.Protein.RotatedTorsions>
[ 6907 6896 6895 6894 ] final  -43.66 input  -60.11 | X-H torsion
[ 7974 7965 7964 7962 ] final  -38.66 input  175.53 | X-H torsion
[ 8008 7997 7996 7995 ] final -165.71 input   59.86 | X-H torsion
[ 10167 10162 10161 10158 ] final -149.16 input  -65.29 | X-H torsion
[ 10718 10713 10712 10709 ] final   15.27 input   66.30 | X-H torsion
[ 10763 10752 10751 10750 ] final  106.69 input  -60.55 | X-H torsion
[ 11005 11000 10999 10996 ] final -112.44 input  -57.11 | X-H torsion

> <Gold.Protein.ActiveResidues>
 VAL166  LYS551  ARG553  GLY616  TRP617  ASP618  TYR619  PRO620  LYS621  CYS622 
 ASP623  PHE694  ASN695  SER759  ASP760  ASP761  ALA762  ILE779  LEU786  VAL792 
 PHE793  MET794  SER795  GLU796  ALA797  LYS798  CYS799  TRP800  GLU811  SER814 

> <Gold.Protein.RotatedAtoms>
  150.9414  134.8823  159.7614 H   0  0  0  0  0  0  0  0  0  0  0  0  # atno 6907 bound_to 6896
  152.5082  134.3936  159.9402 H   0  0  0  0  0  0  0  0  0  0  0  0  # atno 6908 bound_to 6896
  151.3957  133.3734  159.2761 H   0  0  0  0  0  0  0  0  0  0  0  0  # atno 6909 bound_to 6896
  146.0466  140.6538  142.9062 H   0  0  0  0  0  0  0  0  0  0  0  0  # atno 7974 bound_to 7965
  155.8536  140.0967  157.1659 H   0  0  0  0  0  0  0  0  0  0  0  0  # atno 8008 bound_to 7997
  154.3986  140.1378  156.3936 H   0  0  0  0  0  0  0  0  0  0  0  0  # atno 8009 bound_to 7997
  155.7934  140.3455  155.5364 H   0  0  0  0  0  0  0  0  0  0  0  0  # atno 8010 bound_to 7997
  139.7467  143.8580  152.2576 H   0  0  0  0  0  0  0  0  0  0  0  0  # atno 10167 bound_to 10162
  157.0511  130.6270  149.5768 H   0  0  0  0  0  0  0  0  0  0  0  0  # atno 10718 bound_to 10713
  153.3965  135.3868  155.1958 H   0  0  0  0  0  0  0  0  0  0  0  0  # atno 10763 bound_to 10752
  154.8725  135.3761  154.4673 H   0  0  0  0  0  0  0  0  0  0  0  0  # atno 10764 bound_to 10752
  153.5165  135.7087  153.5815 H   0  0  0  0  0  0  0  0  0  0  0  0  # atno 10765 bound_to 10752
  141.0675  133.9435  157.2550 H   0  0  0  0  0  0  0  0  0  0  0  0  # atno 11005 bound_to 11000
  144.7101  140.4005  143.7087 LP  0  0  0  0  0  0  0  0  0  0  0  0  # atno 17320 bound_to 7965
  145.6795  139.1615  143.2709 LP  0  0  0  0  0  0  0  0  0  0  0  0  # atno 17321 bound_to 7965
  139.8546  144.7147  150.9173 LP  0  0  0  0  0  0  0  0  0  0  0  0  # atno 17342 bound_to 10162
  140.7793  143.3870  151.1377 LP  0  0  0  0  0  0  0  0  0  0  0  0  # atno 17343 bound_to 10162
  156.0007  130.5086  150.7653 LP  0  0  0  0  0  0  0  0  0  0  0  0  # atno 17370 bound_to 10713
  157.5029  131.0920  151.0292 LP  0  0  0  0  0  0  0  0  0  0  0  0  # atno 17371 bound_to 10713
  139.9491  135.0179  156.8940 LP  0  0  0  0  0  0  0  0  0  0  0  0  # atno 17394 bound_to 11000
  140.5743  134.0413  155.7441 LP  0  0  0  0  0  0  0  0  0  0  0  0  # atno 17395 bound_to 11000

$$$$
