AV-unprocessed.smi:2807|AV-procd|sdf|10822|dock5
  -GOLD-   2272015263D 1   1.00000     0.00000
 Structure written by MMmdl.
 31 32  0  0  0  0  0  0  0  0  2 V2000
  151.5808  140.2539  155.2023 O   0  0  0  0  0  0  0  0  0  0  0  0
  150.8059  140.7102  156.0507 C   0  0  0  0  0  0  0  0  0  0  0  0
  149.6039  141.3332  155.8883 N   0  5  0  0  0  0  0  0  0  0  0  0
  148.3215  140.6374  155.7300 C   0  0  2  0  0  0  0  0  0  0  0  0
  148.2341  140.0442  154.3157 C   0  0  0  0  0  0  0  0  0  0  0  0
  147.6331  141.1362  153.4109 C   0  0  0  0  0  0  0  0  0  0  0  0
  147.0735  142.2234  154.3414 C   0  0  0  0  0  0  0  0  0  0  0  0
  147.1357  141.6207  155.7506 C   0  0  2  0  0  0  0  0  0  0  0  0
  147.2065  142.6068  156.7630 O   0  0  0  0  0  0  0  0  0  0  0  0
  151.1997  140.6020  157.5393 C   0  0  0  0  0  0  0  0  0  0  0  0
  150.1977  140.0511  158.2330 F   0  0  0  0  0  0  0  0  0  0  0  0
  152.2532  139.7883  157.6481 F   0  0  0  0  0  0  0  0  0  0  0  0
  151.5755  141.9717  158.1033 C   0  0  0  0  0  0  0  0  0  0  0  0
  151.5833  143.1142  157.2707 C   0  0  0  0  0  0  0  0  0  0  0  0
  151.9209  144.3595  157.8338 C   0  0  0  0  0  0  0  0  0  0  0  0
  152.2394  144.4207  159.2036 C   0  0  0  0  0  0  0  0  0  0  0  0
  152.2046  143.2278  159.9521 C   0  0  0  0  0  0  0  0  0  0  0  0
  151.8835  142.0290  159.4217 N   0  0  0  0  0  0  0  0  0  0  0  0
  148.1756  139.8541  156.4757 H   0  0  0  0  0  0  0  0  0  0  0  0
  149.1923  139.6766  153.9448 H   0  0  0  0  0  0  0  0  0  0  0  0
  147.5561  139.1900  154.3333 H   0  0  0  0  0  0  0  0  0  0  0  0
  148.3927  141.5593  152.7518 H   0  0  0  0  0  0  0  0  0  0  0  0
  146.8514  140.7186  152.7753 H   0  0  0  0  0  0  0  0  0  0  0  0
  147.6992  143.1163  154.2746 H   0  0  0  0  0  0  0  0  0  0  0  0
  146.0604  142.5203  154.0689 H   0  0  0  0  0  0  0  0  0  0  0  0
  146.2253  141.0435  155.9186 H   0  0  0  0  0  0  0  0  0  0  0  0
  147.9732  143.1351  156.6014 H   0  0  0  0  0  0  0  0  0  0  0  0
  151.3268  143.0374  156.2244 H   0  0  0  0  0  0  0  0  0  0  0  0
  151.9334  145.2522  157.2262 H   0  0  0  0  0  0  0  0  0  0  0  0
  152.5020  145.3584  159.6702 H   0  0  0  0  0  0  0  0  0  0  0  0
  152.4428  143.2365  161.0054 H   0  0  0  0  0  0  0  0  0  0  0  0
  1  2  2  0  0  0  0
  2  3  1  0  0  0  0
  2 10  1  0  0  0  0
  3  4  1  0  0  0  0
  4  8  1  0  0  0  0
  4  5  1  0  0  0  0
  4 19  1  0  0  0  0
  5  6  1  0  0  0  0
  5 20  1  0  0  0  0
  5 21  1  0  0  0  0
  6  7  1  0  0  0  0
  6 22  1  0  0  0  0
  6 23  1  0  0  0  0
  7  8  1  0  0  0  0
  7 24  1  0  0  0  0
  7 25  1  0  0  0  0
  8  9  1  0  0  0  0
  8 26  1  0  0  0  0
  9 27  1  0  0  0  0
 10 11  1  0  0  0  0
 10 12  1  0  0  0  0
 10 13  1  0  0  0  0
 13 18  1  0  0  0  0
 13 14  2  0  0  0  0
 14 15  1  0  0  0  0
 14 28  1  0  0  0  0
 15 16  2  0  0  0  0
 15 29  1  0  0  0  0
 16 17  1  0  0  0  0
 16 30  1  0  0  0  0
 17 18  2  0  0  0  0
 17 31  1  0  0  0  0
M  CHG  1   3  -1
M  END
> <s_m_source_file>
AV-unprocessed.smi

> <i_m_source_file_index>
2807

> <i_lp_mmshare_version>
43012

> <i_f3d_flags>
0

> <s_epik_input>
bjFbY0hdW2NIXVtjSF1bY0hdYzFDKEYpKEYpQyg9TylbTkhdW0NAQEhdMltDSDJdW0NIMl1bQ0gyXVtDQEhdMltPSF0=

> <s_epik_cmdline>
J2VwaWtfcHl0aG9uJywgJy1waCcsICc3LjAnLCAnLXRuJywgJzgnLCAnLW1hJywgJzIwMCcsICctbWV0YWxfYmluZGluZycsICctaW1hZScsICc8aW5maWxlLm1hZT4nLCAnLW9tYWUnLCAnPG91dGZpbGUubWFlPic=

> <r_lp_tautomer_probability>
1

> <r_epik_Ionization_Penalty>
5.72231

> <r_epik_Ionization_Penalty_Charging>
5.72231

> <r_epik_Ionization_Penalty_Neutral>
5.49816e-06

> <r_epik_State_Penalty>
5.72227

> <r_epik_Charging_Adjusted_Penalty>
11.4446

> <i_epik_Tot_Q>
-1

> <i_epik_Tot_abs_Q>
1

> <r_epik_Metal_State_Penalty>
1.70075

> <b_epik_Metal_Only>
1

> <s_lp_Force_Field>
OPLS_2005

> <r_lp_Energy>
37.6883

> <b_lp_Chiralities_Consistent>
1

> <s_lp_Variant>
AV-unprocessed.smi:2807-7

> <Gold.Version>
5.8.1

> <Gold.Id.Protein>
6NUR|6NUR_protein|mol2

> <Gold.PLP.Fitness>
38.7903

> <Gold.PLP.PLP>
-36.0273

> <Gold.PLP.part.hbond>
-2.0000

> <Gold.PLP.part.metal>
0.0000

> <Gold.PLP.part.buried>
-4.6307

> <Gold.PLP.part.nonpolar>
-29.4883

> <Gold.PLP.part.repulsive>
0.1125

> <Gold.PLP.ligand.clash>
0.4523

> <Gold.PLP.ligand.torsion>
1.1948

> <Gold.PLP.Chemscore.Hbond>
1.8440

> <Gold.PLP.Chemscore.CHOScore>
0.0000

> <Gold.PLP.Chemscore.Metal>
0.0000

> <Gold.Chemscore.Hbonds>
donor molecule, donor type, donor heavy atom, donor atom, acceptor molecule, acceptor atom, score
      L1  H     9    27       P1  8028  0.87
      P1  H  7989  7998       L1     1  0.94

> <Gold.PLP.Chemscore.Internal.Correction>
0.0729

> <Gold.Rescore>
     Score         DG    S(hbond)    S(metal)    S(lipo)     H(rot)  DE(clash)    DE(int)     intcor
     12.48     -14.89       1.18        0.00      90.40       2.00       0.16       2.25       ----

> <Gold.Chemscore.Fitness>
12.4831

> <Gold.Chemscore.DG>
-14.8946

> <Gold.Chemscore.ZeroCoef>
-5.4800

> <Gold.Chemscore.Hbond>
1.1823

> <Gold.Chemscore.Metal>
0.0000

> <Gold.Chemscore.Lipo>
90.3968

> <Gold.Chemscore.Internal_Hbond>
0.0000

> <Gold.Chemscore.DEClash>
0.1581

> <Gold.Chemscore.DEInternal>
2.2534

> <Gold.Chemscore.Rot>
1.9964

> <Gold.Chemscore.Internal.Correction>
   9.000000E+99

> <Gold.Chemscore.Hbonds>
donor molecule, donor type, donor heavy atom, donor atom, acceptor molecule, acceptor atom, score
      L1  H     9    27       P1  8028  0.15
      P1  H  7989  7998       L1     1  0.90

> <Gold.Chemscore.Hbond.Weighted>
-3.9490

> <Gold.Chemscore.Metal.Weighted>
-0.0000

> <Gold.Chemscore.Lipo.Weighted>
-10.5764

> <Gold.Chemscore.Internal_Hbond.Weighted>
0.0000

> <Gold.Chemscore.DEClash.Weighted>
0.1581

> <Gold.Chemscore.DEInternal.Weighted>
2.2534

> <Gold.Chemscore.Rot.Weighted>
5.1108

> <Gold.Chemscore.Internal.Correction.Weighted>
   9.000000E+99

> <Gold.Protein.RotatedTorsions>
[ 6907 6896 6895 6894 ] final  -91.01 input  -60.11 | X-H torsion
[ 7974 7965 7964 7962 ] final  115.97 input  175.53 | X-H torsion
[ 8008 7997 7996 7995 ] final -141.38 input   59.86 | X-H torsion
[ 10167 10162 10161 10158 ] final  -65.25 input  -65.29 | X-H torsion
[ 10718 10713 10712 10709 ] final  163.76 input   66.30 | X-H torsion
[ 10763 10752 10751 10750 ] final -118.83 input  -60.55 | X-H torsion
[ 11005 11000 10999 10996 ] final   -5.62 input  -57.11 | X-H torsion

> <Gold.Protein.ActiveResidues>
 VAL166  LYS551  ARG553  GLY616  TRP617  ASP618  TYR619  PRO620  LYS621  CYS622 
 ASP623  PHE694  ASN695  SER759  ASP760  ASP761  ALA762  ILE779  LEU786  VAL792 
 PHE793  MET794  SER795  GLU796  ALA797  LYS798  CYS799  TRP800  GLU811  SER814 

> <Gold.Protein.RotatedAtoms>
  150.6887  134.2344  159.4446 H   0  0  0  0  0  0  0  0  0  0  0  0  # atno 6907 bound_to 6896
  152.0292  134.9775  160.0581 H   0  0  0  0  0  0  0  0  0  0  0  0  # atno 6908 bound_to 6896
  152.1321  133.4379  159.4763 H   0  0  0  0  0  0  0  0  0  0  0  0  # atno 6909 bound_to 6896
  145.1854  139.3028  143.4396 H   0  0  0  0  0  0  0  0  0  0  0  0  # atno 7974 bound_to 7965
  155.4769  140.0557  157.2972 H   0  0  0  0  0  0  0  0  0  0  0  0  # atno 8008 bound_to 7997
  154.4676  140.2025  156.0031 H   0  0  0  0  0  0  0  0  0  0  0  0  # atno 8009 bound_to 7997
  156.1001  140.3220  155.7934 H   0  0  0  0  0  0  0  0  0  0  0  0  # atno 8010 bound_to 7997
  140.5743  143.2320  151.6475 H   0  0  0  0  0  0  0  0  0  0  0  0  # atno 10167 bound_to 10162
  157.1040  131.0450  151.2486 H   0  0  0  0  0  0  0  0  0  0  0  0  # atno 10718 bound_to 10713
  154.8599  135.4260  154.2202 H   0  0  0  0  0  0  0  0  0  0  0  0  # atno 10763 bound_to 10752
  153.3208  135.6982  153.7038 H   0  0  0  0  0  0  0  0  0  0  0  0  # atno 10764 bound_to 10752
  153.6093  135.3522  155.2947 H   0  0  0  0  0  0  0  0  0  0  0  0  # atno 10765 bound_to 10752
  140.6931  133.9054  155.8632 H   0  0  0  0  0  0  0  0  0  0  0  0  # atno 11005 bound_to 11000
  146.3446  140.2048  142.8589 LP  0  0  0  0  0  0  0  0  0  0  0  0  # atno 17320 bound_to 7965
  145.0094  140.8701  143.5233 LP  0  0  0  0  0  0  0  0  0  0  0  0  # atno 17321 bound_to 7965
  139.5134  144.3444  152.0710 LP  0  0  0  0  0  0  0  0  0  0  0  0  # atno 17342 bound_to 10162
  140.2586  144.4092  150.6194 LP  0  0  0  0  0  0  0  0  0  0  0  0  # atno 17343 bound_to 10162
  157.4616  130.7657  149.7241 LP  0  0  0  0  0  0  0  0  0  0  0  0  # atno 17370 bound_to 10713
  155.9866  130.3973  150.3202 LP  0  0  0  0  0  0  0  0  0  0  0  0  # atno 17371 bound_to 10713
  141.0225  134.0869  157.4105 LP  0  0  0  0  0  0  0  0  0  0  0  0  # atno 17394 bound_to 11000
  139.8918  135.0120  156.6809 LP  0  0  0  0  0  0  0  0  0  0  0  0  # atno 17395 bound_to 11000

$$$$
