AV-unprocessed.smi:3193|AV-procd|sdf|12206|dock8
  -GOLD-   2272018 43D 1   1.00000     0.00000
 Structure written by MMmdl.
 41 42  0  0  0  0  0  0  0  0  3 V2000
  153.4754  142.3233  159.3573 C   0  0  0  0  0  0  0  0  0  0  0  0
  152.0020  142.5774  159.7371 C   0  0  1  0  0  0  0  0  0  0  0  0
  151.8737  143.6807  160.8087 C   0  0  0  0  0  0  0  0  0  0  0  0
  152.1457  145.0837  160.2404 C   0  0  0  0  0  0  0  0  0  0  0  0
  151.2398  145.3807  159.0366 C   0  0  0  0  0  0  0  0  0  0  0  0
  151.3640  144.2945  157.9558 C   0  0  0  0  0  0  0  0  0  0  0  0
  151.0771  142.8886  158.5296 C   0  0  1  0  0  0  0  0  0  0  0  0
  151.1228  141.7900  157.4483 C   0  0  0  0  0  0  0  0  0  0  0  0
  150.4462  142.2180  156.2070 N   0  3  0  0  0  0  0  0  0  0  0  0
  149.2873  141.3816  155.8370 C   0  0  0  0  0  0  0  0  0  0  0  0
  149.5465  140.6205  154.5288 C   0  0  0  0  0  0  0  0  0  0  0  0
  148.3274  139.9955  154.0095 N   0  0  0  0  0  0  0  0  0  0  0  0
  148.1701  138.6969  153.5967 C   0  0  0  0  0  0  0  0  0  0  0  0
  146.8656  138.5699  153.1936 C   0  0  0  0  0  0  0  0  0  0  0  0
  146.2826  139.7952  153.3763 N   0  3  0  0  0  0  0  0  0  0  0  0
  147.1726  140.6609  153.8732 C   0  0  0  0  0  0  0  0  0  0  0  0
  153.9256  143.1785  158.8539 H   0  0  0  0  0  0  0  0  0  0  0  0
  153.5786  141.4603  158.7001 H   0  0  0  0  0  0  0  0  0  0  0  0
  154.0733  142.1164  160.2453 H   0  0  0  0  0  0  0  0  0  0  0  0
  151.6423  141.6541  160.1933 H   0  0  0  0  0  0  0  0  0  0  0  0
  150.8664  143.6578  161.2272 H   0  0  0  0  0  0  0  0  0  0  0  0
  152.5477  143.4793  161.6419 H   0  0  0  0  0  0  0  0  0  0  0  0
  151.9868  145.8338  161.0159 H   0  0  0  0  0  0  0  0  0  0  0  0
  153.1915  145.1702  159.9444 H   0  0  0  0  0  0  0  0  0  0  0  0
  150.2034  145.4456  159.3699 H   0  0  0  0  0  0  0  0  0  0  0  0
  151.4892  146.3555  158.6163 H   0  0  0  0  0  0  0  0  0  0  0  0
  150.6697  144.5216  157.1466 H   0  0  0  0  0  0  0  0  0  0  0  0
  152.3613  144.3269  157.5159 H   0  0  0  0  0  0  0  0  0  0  0  0
  150.0583  142.9028  158.9214 H   0  0  0  0  0  0  0  0  0  0  0  0
  152.1539  141.5166  157.2206 H   0  0  0  0  0  0  0  0  0  0  0  0
  150.6259  140.8911  157.8159 H   0  0  0  0  0  0  0  0  0  0  0  0
  150.1313  143.1701  156.3294 H   0  0  0  0  0  0  0  0  0  0  0  0
  149.0798  140.6783  156.6449 H   0  0  0  0  0  0  0  0  0  0  0  0
  148.4077  142.0179  155.7293 H   0  0  0  0  0  0  0  0  0  0  0  0
  149.9278  141.2940  153.7599 H   0  0  0  0  0  0  0  0  0  0  0  0
  150.2953  139.8400  154.6731 H   0  0  0  0  0  0  0  0  0  0  0  0
  148.9752  137.9762  153.6194 H   0  0  0  0  0  0  0  0  0  0  0  0
  146.3229  137.7219  152.8010 H   0  0  0  0  0  0  0  0  0  0  0  0
  146.9917  141.6932  154.1151 H   0  0  0  0  0  0  0  0  0  0  0  0
  151.1185  142.1953  155.4533 H   0  0  0  0  0  0  0  0  0  0  0  0
  145.3165  140.0155  153.1676 H   0  0  0  0  0  0  0  0  0  0  0  0
  1  2  1  0  0  0  0
  1 17  1  0  0  0  0
  1 18  1  0  0  0  0
  1 19  1  0  0  0  0
  2  7  1  0  0  0  0
  2  3  1  0  0  0  0
  2 20  1  0  0  0  0
  3  4  1  0  0  0  0
  3 21  1  0  0  0  0
  3 22  1  0  0  0  0
  4  5  1  0  0  0  0
  4 23  1  0  0  0  0
  4 24  1  0  0  0  0
  5  6  1  0  0  0  0
  5 25  1  0  0  0  0
  5 26  1  0  0  0  0
  6  7  1  0  0  0  0
  6 27  1  0  0  0  0
  6 28  1  0  0  0  0
  7  8  1  0  0  0  0
  7 29  1  0  0  0  0
  8  9  1  0  0  0  0
  8 30  1  0  0  0  0
  8 31  1  0  0  0  0
  9 10  1  0  0  0  0
  9 32  1  0  0  0  0
  9 40  1  0  0  0  0
 10 11  1  0  0  0  0
 10 33  1  0  0  0  0
 10 34  1  0  0  0  0
 11 12  1  0  0  0  0
 11 35  1  0  0  0  0
 11 36  1  0  0  0  0
 12 16  1  0  0  0  0
 12 13  1  0  0  0  0
 13 14  2  0  0  0  0
 13 37  1  0  0  0  0
 14 15  1  0  0  0  0
 14 38  1  0  0  0  0
 15 16  2  0  0  0  0
 15 41  1  0  0  0  0
 16 39  1  0  0  0  0
M  CHG  1   9   1
M  CHG  1  15   1
M  END
> <s_m_source_file>
AV-unprocessed.smi

> <i_m_source_file_index>
3193

> <i_lp_mmshare_version>
43012

> <i_f3d_flags>
0

> <s_epik_input>
W0NIM11bQ0BASF0xW0NIMl1bQ0gyXVtDSDJdW0NIMl1bQ0BIXTFbQ0gyXVtOSF1bQ0gyXVtDSDJdbjJbY0hdW2NIXW5bY0hdMg==

> <s_epik_cmdline>
J2VwaWtfcHl0aG9uJywgJy1waCcsICc3LjAnLCAnLXRuJywgJzgnLCAnLW1hJywgJzIwMCcsICctbWV0YWxfYmluZGluZycsICctaW1hZScsICc8aW5maWxlLm1hZT4nLCAnLW9tYWUnLCAnPG91dGZpbGUubWFlPic=

> <r_lp_tautomer_probability>
1

> <r_epik_Ionization_Penalty>
1.50262

> <r_epik_Ionization_Penalty_Charging>
0.00193432

> <r_epik_Ionization_Penalty_Neutral>
1.50068

> <r_epik_State_Penalty>
1.11854

> <r_epik_Charging_Adjusted_Penalty>
1.12048

> <i_epik_Tot_Q>
2

> <i_epik_Tot_abs_Q>
2

> <r_epik_Metal_State_Penalty>
5.11322

> <b_epik_Metal_Only>
0

> <s_lp_Force_Field>
OPLS_2005

> <r_lp_Energy>
27.2728

> <b_lp_Chiralities_Consistent>
1

> <s_lp_Variant>
AV-unprocessed.smi:3193-6

> <Gold.Version>
5.8.1

> <Gold.Id.Protein>
6NUR|6NUR_protein|mol2

> <Gold.PLP.Fitness>
49.9798

> <Gold.PLP.PLP>
-37.9142

> <Gold.PLP.part.hbond>
-2.0000

> <Gold.PLP.part.metal>
0.0000

> <Gold.PLP.part.buried>
-0.0279

> <Gold.PLP.part.nonpolar>
-35.7006

> <Gold.PLP.part.repulsive>
0.1041

> <Gold.PLP.ligand.clash>
0.0000

> <Gold.PLP.ligand.torsion>
0.9785

> <Gold.PLP.Chemscore.Hbond>
3.7600

> <Gold.PLP.Chemscore.CHOScore>
0.9056

> <Gold.PLP.Chemscore.Metal>
0.0000

> <Gold.Chemscore.Hbonds>
donor molecule, donor type, donor heavy atom, donor atom, acceptor molecule, acceptor atom, score
      L1  H     9    32       P1  8028  1.62
      L1  H    15    41       P1 10175  2.00
      L1  C    13    37       P1  7948  0.74

> <Gold.PLP.Chemscore.Internal.Correction>
0.0259

> <Gold.Rescore>
     Score         DG    S(hbond)    S(metal)    S(lipo)     H(rot)  DE(clash)    DE(int)     intcor
     18.36     -19.55       1.87        0.00     110.02       1.98       0.30       0.89       ----

> <Gold.Chemscore.Fitness>
18.3625

> <Gold.Chemscore.DG>
-19.5499

> <Gold.Chemscore.ZeroCoef>
-5.4800

> <Gold.Chemscore.Hbond>
1.8743

> <Gold.Chemscore.Metal>
0.0000

> <Gold.Chemscore.Lipo>
110.0178

> <Gold.Chemscore.Internal_Hbond>
0.0000

> <Gold.Chemscore.DEClash>
0.2961

> <Gold.Chemscore.DEInternal>
0.8913

> <Gold.Chemscore.Rot>
1.9774

> <Gold.Chemscore.Internal.Correction>
   9.000000E+99

> <Gold.Chemscore.Hbonds>
donor molecule, donor type, donor heavy atom, donor atom, acceptor molecule, acceptor atom, score
      L1  H     9    32       P1  8028  0.76
      L1  H    15    41       P1 10175  1.00

> <Gold.Chemscore.Hbond.Weighted>
-6.2600

> <Gold.Chemscore.Metal.Weighted>
-0.0000

> <Gold.Chemscore.Lipo.Weighted>
-12.8721

> <Gold.Chemscore.Internal_Hbond.Weighted>
0.0000

> <Gold.Chemscore.DEClash.Weighted>
0.2961

> <Gold.Chemscore.DEInternal.Weighted>
0.8913

> <Gold.Chemscore.Rot.Weighted>
5.0622

> <Gold.Chemscore.Internal.Correction.Weighted>
   9.000000E+99

> <Gold.Protein.RotatedTorsions>
[ 6907 6896 6895 6894 ] final   -9.50 input  -60.11 | X-H torsion
[ 7974 7965 7964 7962 ] final -153.71 input  175.53 | X-H torsion
[ 8008 7997 7996 7995 ] final   -7.45 input   59.86 | X-H torsion
[ 10167 10162 10161 10158 ] final  -85.19 input  -65.29 | X-H torsion
[ 10718 10713 10712 10709 ] final   29.66 input   66.30 | X-H torsion
[ 10763 10752 10751 10750 ] final  126.10 input  -60.55 | X-H torsion
[ 11005 11000 10999 10996 ] final  111.58 input  -57.11 | X-H torsion

> <Gold.Protein.ActiveResidues>
 VAL166  LYS551  ARG553  GLY616  TRP617  ASP618  TYR619  PRO620  LYS621  CYS622 
 ASP623  PHE694  ASN695  SER759  ASP760  ASP761  ALA762  ILE779  LEU786  VAL792 
 PHE793  MET794  SER795  GLU796  ALA797  LYS798  CYS799  TRP800  GLU811  SER814 

> <Gold.Protein.RotatedAtoms>
  151.4168  135.0992  159.9601 H   0  0  0  0  0  0  0  0  0  0  0  0  # atno 6907 bound_to 6896
  152.5002  133.8745  159.7325 H   0  0  0  0  0  0  0  0  0  0  0  0  # atno 6908 bound_to 6896
  150.9252  133.6775  159.2851 H   0  0  0  0  0  0  0  0  0  0  0  0  # atno 6909 bound_to 6896
  144.7727  140.4489  143.5896 H   0  0  0  0  0  0  0  0  0  0  0  0  # atno 7974 bound_to 7965
  154.5837  140.2406  155.8017 H   0  0  0  0  0  0  0  0  0  0  0  0  # atno 8008 bound_to 7997
  156.2198  140.3001  155.9880 H   0  0  0  0  0  0  0  0  0  0  0  0  # atno 8009 bound_to 7997
  155.2495  140.0410  157.2975 H   0  0  0  0  0  0  0  0  0  0  0  0  # atno 8010 bound_to 7997
  140.4061  143.2642  151.9079 H   0  0  0  0  0  0  0  0  0  0  0  0  # atno 10167 bound_to 10162
  157.2494  130.7108  149.6398 H   0  0  0  0  0  0  0  0  0  0  0  0  # atno 10718 bound_to 10713
  153.6879  135.3303  155.3195 H   0  0  0  0  0  0  0  0  0  0  0  0  # atno 10763 bound_to 10752
  154.8448  135.4424  154.1539 H   0  0  0  0  0  0  0  0  0  0  0  0  # atno 10764 bound_to 10752
  153.2572  135.6987  153.7693 H   0  0  0  0  0  0  0  0  0  0  0  0  # atno 10765 bound_to 10752
  139.8907  134.9511  156.6455 H   0  0  0  0  0  0  0  0  0  0  0  0  # atno 11005 bound_to 11000
  145.6277  139.1532  143.2986 LP  0  0  0  0  0  0  0  0  0  0  0  0  # atno 17320 bound_to 7965
  146.1885  140.6383  142.9157 LP  0  0  0  0  0  0  0  0  0  0  0  0  # atno 17321 bound_to 7965
  139.4783  144.5584  151.8277 LP  0  0  0  0  0  0  0  0  0  0  0  0  # atno 17342 bound_to 10162
  140.4688  144.1617  150.5915 LP  0  0  0  0  0  0  0  0  0  0  0  0  # atno 17343 bound_to 10162
  155.9667  130.4432  150.5413 LP  0  0  0  0  0  0  0  0  0  0  0  0  # atno 17370 bound_to 10713
  157.3294  131.0696  151.1872 LP  0  0  0  0  0  0  0  0  0  0  0  0  # atno 17371 bound_to 10713
  140.7561  133.8856  155.8383 LP  0  0  0  0  0  0  0  0  0  0  0  0  # atno 17394 bound_to 11000
  140.9961  134.1214  157.4362 LP  0  0  0  0  0  0  0  0  0  0  0  0  # atno 17395 bound_to 11000

$$$$
