AV-unprocessed.smi:1509|AV-procd|sdf|6092|dock8
  -GOLD-   22720 6223D 1   1.00000     0.00000
 Structure written by MMmdl.
 42 43  0  0  0  0  0  0  0  0  2 V2000
  147.8843  133.4173  153.1814 C   0  0  0  0  0  0  0  0  0  0  0  0
  146.3602  133.5924  153.3014 C   0  0  2  0  0  0  0  0  0  0  0  0
  145.5927  132.9732  152.1188 C   0  0  0  0  0  0  0  0  0  0  0  0
  145.7383  133.8282  150.8523 C   0  0  0  0  0  0  0  0  0  0  0  0
  145.3422  135.2882  151.1236 C   0  0  0  0  0  0  0  0  0  0  0  0
  146.1316  135.8593  152.2454 N   0  3  1  0  0  0  0  0  0  0  0  0
  145.8759  137.3106  152.4290 C   0  0  0  0  0  0  0  0  0  0  0  0
  147.1290  138.1666  152.1770 C   0  0  0  0  0  0  0  0  0  0  0  0
  147.1673  139.4183  153.0699 C   0  0  0  0  0  0  0  0  0  0  0  0
  148.5343  139.8443  153.3475 N   0  0  0  0  0  0  0  0  0  0  0  0
  149.0961  139.8791  154.5663 C   0  0  0  0  0  0  0  0  0  0  0  0
  148.4981  139.5691  155.5963 O   0  0  0  0  0  0  0  0  0  0  0  0
  150.5554  140.3294  154.6359 C   0  0  0  0  0  0  0  0  0  0  0  0
  151.4540  139.1999  154.4915 N   0  0  0  0  0  0  0  0  0  0  0  0
  151.2598  137.9847  153.9748 C   0  0  0  0  0  0  0  0  0  0  0  0
  152.3544  137.2426  154.0447 N   0  0  0  0  0  0  0  0  0  0  0  0
  153.2685  138.0872  154.6526 N   0  0  0  0  0  0  0  0  0  0  0  0
  152.7399  139.2500  154.9199 N   0  0  0  0  0  0  0  0  0  0  0  0
  145.9566  135.0691  153.4947 C   0  0  0  0  0  0  0  0  0  0  0  0
  148.2903  133.9488  152.3207 H   0  0  0  0  0  0  0  0  0  0  0  0
  148.1503  132.3651  153.0770 H   0  0  0  0  0  0  0  0  0  0  0  0
  148.3919  133.7952  154.0695 H   0  0  0  0  0  0  0  0  0  0  0  0
  146.0602  133.0516  154.2000 H   0  0  0  0  0  0  0  0  0  0  0  0
  145.9339  131.9548  151.9306 H   0  0  0  0  0  0  0  0  0  0  0  0
  144.5355  132.8979  152.3771 H   0  0  0  0  0  0  0  0  0  0  0  0
  146.7658  133.7864  150.4895 H   0  0  0  0  0  0  0  0  0  0  0  0
  145.1171  133.4178  150.0557 H   0  0  0  0  0  0  0  0  0  0  0  0
  145.5073  135.8734  150.2181 H   0  0  0  0  0  0  0  0  0  0  0  0
  144.2779  135.3546  151.3548 H   0  0  0  0  0  0  0  0  0  0  0  0
  145.1080  137.6285  151.7219 H   0  0  0  0  0  0  0  0  0  0  0  0
  145.4714  137.4950  153.4254 H   0  0  0  0  0  0  0  0  0  0  0  0
  148.0321  137.5826  152.3524 H   0  0  0  0  0  0  0  0  0  0  0  0
  147.1523  138.4642  151.1279 H   0  0  0  0  0  0  0  0  0  0  0  0
  146.6110  140.2364  152.6087 H   0  0  0  0  0  0  0  0  0  0  0  0
  146.6789  139.2102  154.0222 H   0  0  0  0  0  0  0  0  0  0  0  0
  149.0982  140.1165  152.5550 H   0  0  0  0  0  0  0  0  0  0  0  0
  150.7699  141.0534  153.8488 H   0  0  0  0  0  0  0  0  0  0  0  0
  150.7471  140.8244  155.5892 H   0  0  0  0  0  0  0  0  0  0  0  0
  150.3246  137.6461  153.5534 H   0  0  0  0  0  0  0  0  0  0  0  0
  144.9126  135.1268  153.8074 H   0  0  0  0  0  0  0  0  0  0  0  0
  146.5442  135.4964  154.3065 H   0  0  0  0  0  0  0  0  0  0  0  0
  147.1012  135.7729  151.9759 H   0  0  0  0  0  0  0  0  0  0  0  0
  1  2  1  0  0  0  0
  1 20  1  0  0  0  0
  1 21  1  0  0  0  0
  1 22  1  0  0  0  0
  2 19  1  0  0  0  0
  2  3  1  0  0  0  0
  2 23  1  0  0  0  0
  3  4  1  0  0  0  0
  3 24  1  0  0  0  0
  3 25  1  0  0  0  0
  4  5  1  0  0  0  0
  4 26  1  0  0  0  0
  4 27  1  0  0  0  0
  5  6  1  0  0  0  0
  5 28  1  0  0  0  0
  5 29  1  0  0  0  0
  6  7  1  0  0  0  0
  6 19  1  0  0  0  0
  6 42  1  0  0  0  0
  7  8  1  0  0  0  0
  7 30  1  0  0  0  0
  7 31  1  0  0  0  0
  8  9  1  0  0  0  0
  8 32  1  0  0  0  0
  8 33  1  0  0  0  0
  9 10  1  0  0  0  0
  9 34  1  0  0  0  0
  9 35  1  0  0  0  0
 10 11  1  0  0  0  0
 10 36  1  0  0  0  0
 11 12  2  0  0  0  0
 11 13  1  0  0  0  0
 13 14  1  0  0  0  0
 13 37  1  0  0  0  0
 13 38  1  0  0  0  0
 14 18  1  0  0  0  0
 14 15  1  0  0  0  0
 15 16  2  0  0  0  0
 15 39  1  0  0  0  0
 16 17  1  0  0  0  0
 17 18  2  0  0  0  0
 19 40  1  0  0  0  0
 19 41  1  0  0  0  0
M  CHG  1   6   1
M  END
> <s_m_source_file>
AV-unprocessed.smi

> <i_m_source_file_index>
1509

> <i_lp_mmshare_version>
43012

> <i_f3d_flags>
0

> <s_epik_input>
W0NIM11bQ0BASF0xW0NIMl1bQ0gyXVtDSDJdTihbQ0gyXTEpW0NIMl1bQ0gyXVtDSDJdW05IXUMoPU8pW0NIMl1uMltjSF1ubm4y

> <s_epik_cmdline>
J2VwaWtfcHl0aG9uJywgJy1waCcsICc3LjAnLCAnLXRuJywgJzgnLCAnLW1hJywgJzIwMCcsICctbWV0YWxfYmluZGluZycsICctaW1hZScsICc8aW5maWxlLm1hZT4nLCAnLW9tYWUnLCAnPG91dGZpbGUubWFlPic=

> <r_lp_tautomer_probability>
1

> <r_epik_Ionization_Penalty>
0.00044216

> <r_epik_Ionization_Penalty_Charging>
0.000440775

> <r_epik_Ionization_Penalty_Neutral>
1.38512e-06

> <r_epik_State_Penalty>
0.000271914

> <r_epik_Charging_Adjusted_Penalty>
0.000712689

> <i_epik_Tot_Q>
1

> <i_epik_Tot_abs_Q>
1

> <r_epik_Metal_State_Penalty>
-0

> <b_epik_Metal_Only>
0

> <s_lp_Force_Field>
OPLS_2005

> <r_lp_Energy>
22.816

> <b_lp_Chiralities_Consistent>
1

> <s_lp_Variant>
AV-unprocessed.smi:1509-3

> <Gold.Version>
5.8.1

> <Gold.Id.Protein>
6NUR|6NUR_protein|mol2

> <Gold.PLP.Fitness>
43.5215

> <Gold.PLP.PLP>
-30.9425

> <Gold.PLP.part.hbond>
-4.4630

> <Gold.PLP.part.metal>
0.0000

> <Gold.PLP.part.buried>
2.4225

> <Gold.PLP.part.nonpolar>
-28.4134

> <Gold.PLP.part.repulsive>
0.3879

> <Gold.PLP.ligand.clash>
0.0000

> <Gold.PLP.ligand.torsion>
1.8021

> <Gold.PLP.Chemscore.Hbond>
4.4653

> <Gold.PLP.Chemscore.CHOScore>
0.9107

> <Gold.PLP.Chemscore.Metal>
0.0000

> <Gold.Chemscore.Hbonds>
donor molecule, donor type, donor heavy atom, donor atom, acceptor molecule, acceptor atom, score
      L1  H     6    42       P1  7948  2.00
      L1  H    10    36       P1  7957  0.89
      P1  H  7997  8008       L1    18  0.59
      P1  H 10752 10765       L1    16  0.83
      L1  C    15    39       P1  7948  0.89
      L1  C    15    39       P1  7949  0.07

> <Gold.PLP.Chemscore.Internal.Correction>
0.0554

> <Gold.Rescore>
     Score         DG    S(hbond)    S(metal)    S(lipo)     H(rot)  DE(clash)    DE(int)     intcor
     10.79     -14.76       3.18        0.00      53.40       2.97       2.12       1.85       ----

> <Gold.Chemscore.Fitness>
10.7887

> <Gold.Chemscore.DG>
-14.7621

> <Gold.Chemscore.ZeroCoef>
-5.4800

> <Gold.Chemscore.Hbond>
3.1832

> <Gold.Chemscore.Metal>
0.0000

> <Gold.Chemscore.Lipo>
53.4033

> <Gold.Chemscore.Internal_Hbond>
0.0000

> <Gold.Chemscore.DEClash>
2.1221

> <Gold.Chemscore.DEInternal>
1.8512

> <Gold.Chemscore.Rot>
2.9680

> <Gold.Chemscore.Internal.Correction>
   9.000000E+99

> <Gold.Chemscore.Hbonds>
donor molecule, donor type, donor heavy atom, donor atom, acceptor molecule, acceptor atom, score
      L1  H     6    42       P1  7948  0.99
      L1  H    10    36       P1  7957  0.84
      P1  H  7997  8008       L1    18  0.15
      P1  H 10752 10765       L1    16  0.46

> <Gold.Chemscore.Hbond.Weighted>
-10.6319

> <Gold.Chemscore.Metal.Weighted>
-0.0000

> <Gold.Chemscore.Lipo.Weighted>
-6.2482

> <Gold.Chemscore.Internal_Hbond.Weighted>
0.0000

> <Gold.Chemscore.DEClash.Weighted>
2.1221

> <Gold.Chemscore.DEInternal.Weighted>
1.8512

> <Gold.Chemscore.Rot.Weighted>
7.5980

> <Gold.Chemscore.Internal.Correction.Weighted>
   9.000000E+99

> <Gold.Protein.RotatedTorsions>
[ 6907 6896 6895 6894 ] final  106.30 input  -60.11 | X-H torsion
[ 7974 7965 7964 7962 ] final  -54.69 input  175.53 | X-H torsion
[ 8008 7997 7996 7995 ] final  -26.92 input   59.86 | X-H torsion
[ 10167 10162 10161 10158 ] final   31.87 input  -65.29 | X-H torsion
[ 10718 10713 10712 10709 ] final -141.02 input   66.30 | X-H torsion
[ 10763 10752 10751 10750 ] final  150.86 input  -60.55 | X-H torsion
[ 11005 11000 10999 10996 ] final -123.60 input  -57.11 | X-H torsion

> <Gold.Protein.ActiveResidues>
 VAL166  LYS551  ARG553  GLY616  TRP617  ASP618  TYR619  PRO620  LYS621  CYS622 
 ASP623  PHE694  ASN695  SER759  ASP760  ASP761  ALA762  ILE779  LEU786  VAL792 
 PHE793  MET794  SER795  GLU796  ALA797  LYS798  CYS799  TRP800  GLU811  SER814 

> <Gold.Protein.RotatedAtoms>
  152.5199  133.9401  159.7622 H   0  0  0  0  0  0  0  0  0  0  0  0  # atno 6907 bound_to 6896
  150.9733  133.6313  159.2741 H   0  0  0  0  0  0  0  0  0  0  0  0  # atno 6908 bound_to 6896
  151.3516  135.0891  159.9458 H   0  0  0  0  0  0  0  0  0  0  0  0  # atno 6909 bound_to 6896
  145.8827  140.8132  142.9831 H   0  0  0  0  0  0  0  0  0  0  0  0  # atno 7974 bound_to 7965
  154.4402  140.1886  156.0851 H   0  0  0  0  0  0  0  0  0  0  0  0  # atno 8008 bound_to 7997
  156.0409  140.3320  155.7216 H   0  0  0  0  0  0  0  0  0  0  0  0  # atno 8009 bound_to 7997
  155.5701  140.0612  157.2799 H   0  0  0  0  0  0  0  0  0  0  0  0  # atno 8010 bound_to 7997
  140.4550  144.0992  150.6200 H   0  0  0  0  0  0  0  0  0  0  0  0  # atno 10167 bound_to 10162
  156.3292  130.7576  151.1691 H   0  0  0  0  0  0  0  0  0  0  0  0  # atno 10718 bound_to 10713
  154.0944  135.2850  155.3265 H   0  0  0  0  0  0  0  0  0  0  0  0  # atno 10763 bound_to 10752
  154.6598  135.5339  153.8007 H   0  0  0  0  0  0  0  0  0  0  0  0  # atno 10764 bound_to 10752
  153.0401  135.6531  154.1112 H   0  0  0  0  0  0  0  0  0  0  0  0  # atno 10765 bound_to 10752
  140.9906  134.0544  157.3659 H   0  0  0  0  0  0  0  0  0  0  0  0  # atno 11005 bound_to 11000
  144.6727  140.1409  143.7437 LP  0  0  0  0  0  0  0  0  0  0  0  0  # atno 17320 bound_to 7965
  145.9004  139.2427  143.1497 LP  0  0  0  0  0  0  0  0  0  0  0  0  # atno 17321 bound_to 7965
  140.4162  143.2633  151.9772 LP  0  0  0  0  0  0  0  0  0  0  0  0  # atno 17342 bound_to 10162
  139.4800  144.5872  151.7834 LP  0  0  0  0  0  0  0  0  0  0  0  0  # atno 17343 bound_to 10162
  157.7427  131.0486  150.5004 LP  0  0  0  0  0  0  0  0  0  0  0  0  # atno 17370 bound_to 10713
  156.5167  130.4152  149.6272 LP  0  0  0  0  0  0  0  0  0  0  0  0  # atno 17371 bound_to 10713
  139.8990  135.0157  156.7178 LP  0  0  0  0  0  0  0  0  0  0  0  0  # atno 17394 bound_to 11000
  140.7045  133.9277  155.8045 LP  0  0  0  0  0  0  0  0  0  0  0  0  # atno 17395 bound_to 11000

$$$$
