AV-unprocessed.smi:1240|AV-procd|sdf|5203|dock4
  -GOLD-   22720 4293D 1   1.00000     0.00000
 Structure written by MMmdl.
 48 50  0  0  0  0  0  0  0  0  2 V2000
  146.6822  138.6906  151.1443 O   0  0  0  0  0  0  0  0  0  0  0  0
  146.8006  137.9264  152.1018 C   0  0  0  0  0  0  0  0  0  0  0  0
  146.3972  136.6478  152.0802 N   0  0  0  0  0  0  0  0  0  0  0  0
  145.7600  135.9860  150.9457 C   0  0  0  0  0  0  0  0  0  0  0  0
  144.4961  135.1332  151.3093 C   0  0  2  0  0  0  0  0  0  0  0  0
  143.9077  135.6335  152.6805 C   0  0  2  0  0  0  0  0  0  0  0  0
  142.6494  134.9599  153.2069 C   0  0  0  0  0  0  0  0  0  0  0  0
  142.2054  135.9042  154.3142 C   0  0  0  0  0  0  0  0  0  0  0  0
  142.4998  137.1995  153.8164 O   0  0  0  0  0  0  0  0  0  0  0  0
  143.4380  137.0981  152.7496 C   0  0  0  0  0  0  0  0  0  0  0  0
  144.7485  133.6619  151.3332 N   0  0  0  0  0  0  0  0  0  0  0  0
  145.5631  133.1688  152.4512 C   0  0  0  0  0  0  0  0  0  0  0  0
  145.7510  131.6411  152.4216 C   0  0  0  0  0  0  0  0  0  0  0  0
  146.3409  131.2499  151.1895 O   0  0  0  0  0  0  0  0  0  0  0  0
  145.5679  131.6610  150.0705 C   0  0  0  0  0  0  0  0  0  0  0  0
  145.3958  133.1888  150.1011 C   0  0  0  0  0  0  0  0  0  0  0  0
  147.3171  138.2524  153.2994 N   0  0  0  0  0  0  0  0  0  0  0  0
  147.8303  139.5045  153.7359 C   0  0  0  0  0  0  0  0  0  0  0  0
  147.1153  140.6655  153.3662 C   0  0  0  0  0  0  0  0  0  0  0  0
  147.5754  141.9303  153.7860 C   0  0  0  0  0  0  0  0  0  0  0  0
  148.6884  142.0229  154.5445 N   0  3  0  0  0  0  0  0  0  0  0  0
  149.3978  140.9421  154.9345 C   0  0  0  0  0  0  0  0  0  0  0  0
  148.9861  139.6510  154.5454 C   0  0  0  0  0  0  0  0  0  0  0  0
  146.5285  136.0912  152.9123 H   0  0  0  0  0  0  0  0  0  0  0  0
  145.5247  136.7964  150.2566 H   0  0  0  0  0  0  0  0  0  0  0  0
  146.5029  135.3642  150.4450 H   0  0  0  0  0  0  0  0  0  0  0  0
  143.7575  135.3291  150.5307 H   0  0  0  0  0  0  0  0  0  0  0  0
  144.6804  135.4986  153.4395 H   0  0  0  0  0  0  0  0  0  0  0  0
  141.8781  134.9276  152.4360 H   0  0  0  0  0  0  0  0  0  0  0  0
  142.8229  133.9517  153.5842 H   0  0  0  0  0  0  0  0  0  0  0  0
  141.1488  135.7979  154.5610 H   0  0  0  0  0  0  0  0  0  0  0  0
  142.7885  135.7322  155.2200 H   0  0  0  0  0  0  0  0  0  0  0  0
  144.2595  137.7929  152.9233 H   0  0  0  0  0  0  0  0  0  0  0  0
  142.9306  137.3879  151.8286 H   0  0  0  0  0  0  0  0  0  0  0  0
  146.5401  133.6547  152.4454 H   0  0  0  0  0  0  0  0  0  0  0  0
  145.0855  133.4057  153.4015 H   0  0  0  0  0  0  0  0  0  0  0  0
  146.3958  131.3228  153.2407 H   0  0  0  0  0  0  0  0  0  0  0  0
  144.7944  131.1327  152.5516 H   0  0  0  0  0  0  0  0  0  0  0  0
  146.0778  131.3555  149.1569 H   0  0  0  0  0  0  0  0  0  0  0  0
  144.5979  131.1613  150.0797 H   0  0  0  0  0  0  0  0  0  0  0  0
  144.8468  133.4734  149.2124 H   0  0  0  0  0  0  0  0  0  0  0  0
  146.3769  133.6566  150.0040 H   0  0  0  0  0  0  0  0  0  0  0  0
  147.2790  137.5318  154.0055 H   0  0  0  0  0  0  0  0  0  0  0  0
  146.2231  140.5921  152.7611 H   0  0  0  0  0  0  0  0  0  0  0  0
  147.0888  142.8631  153.5413 H   0  0  0  0  0  0  0  0  0  0  0  0
  150.2648  141.1402  155.5480 H   0  0  0  0  0  0  0  0  0  0  0  0
  149.5583  138.8020  154.8858 H   0  0  0  0  0  0  0  0  0  0  0  0
  149.0045  142.9474  154.8394 H   0  0  0  0  0  0  0  0  0  0  0  0
  1  2  2  0  0  0  0
  2  3  1  0  0  0  0
  2 17  1  0  0  0  0
  3  4  1  0  0  0  0
  3 24  1  0  0  0  0
  4  5  1  0  0  0  0
  4 25  1  0  0  0  0
  4 26  1  0  0  0  0
  5  6  1  0  0  0  0
  5 11  1  0  0  0  0
  5 27  1  0  0  0  0
  6 10  1  0  0  0  0
  6  7  1  0  0  0  0
  6 28  1  0  0  0  0
  7  8  1  0  0  0  0
  7 29  1  0  0  0  0
  7 30  1  0  0  0  0
  8  9  1  0  0  0  0
  8 31  1  0  0  0  0
  8 32  1  0  0  0  0
  9 10  1  0  0  0  0
 10 33  1  0  0  0  0
 10 34  1  0  0  0  0
 11 16  1  0  0  0  0
 11 12  1  0  0  0  0
 12 13  1  0  0  0  0
 12 35  1  0  0  0  0
 12 36  1  0  0  0  0
 13 14  1  0  0  0  0
 13 37  1  0  0  0  0
 13 38  1  0  0  0  0
 14 15  1  0  0  0  0
 15 16  1  0  0  0  0
 15 39  1  0  0  0  0
 15 40  1  0  0  0  0
 16 41  1  0  0  0  0
 16 42  1  0  0  0  0
 17 18  1  0  0  0  0
 17 43  1  0  0  0  0
 18 23  1  0  0  0  0
 18 19  2  0  0  0  0
 19 20  1  0  0  0  0
 19 44  1  0  0  0  0
 20 21  2  0  0  0  0
 20 45  1  0  0  0  0
 21 22  1  0  0  0  0
 21 48  1  0  0  0  0
 22 23  2  0  0  0  0
 22 46  1  0  0  0  0
 23 47  1  0  0  0  0
M  CHG  1  21   1
M  END
> <s_m_source_file>
AV-unprocessed.smi

> <i_m_source_file_index>
1240

> <i_lp_mmshare_version>
43012

> <i_f3d_flags>
0

> <s_epik_input>
W2NIXTFbY0hdbltjSF1bY0hdYzFbTkhdQyg9TylbTkhdW0NIMl1bQ0BIXShbQ0BASF0yW0NIMl1bQ0gyXU9bQ0gyXTIpTjNbQ0gyXVtDSDJdT1tDSDJdW0NIMl0z

> <s_epik_cmdline>
J2VwaWtfcHl0aG9uJywgJy1waCcsICc3LjAnLCAnLXRuJywgJzgnLCAnLW1hJywgJzIwMCcsICctbWV0YWxfYmluZGluZycsICctaW1hZScsICc8aW5maWxlLm1hZT4nLCAnLW9tYWUnLCAnPG91dGZpbGUubWFlPic=

> <r_epik_Ionization_Penalty>
1.15944

> <r_epik_Ionization_Penalty_Charging>
1.0344

> <r_epik_Ionization_Penalty_Neutral>
0.125034

> <r_epik_State_Penalty>
1.2199

> <r_epik_Charging_Adjusted_Penalty>
2.25431

> <i_epik_Tot_Q>
1

> <i_epik_Tot_abs_Q>
1

> <r_epik_Metal_State_Penalty>
1.3155

> <b_epik_Metal_Only>
0

> <s_lp_Force_Field>
OPLS_2005

> <r_lp_Energy>
66.7815

> <b_lp_Chiralities_Consistent>
1

> <s_lp_Variant>
AV-unprocessed.smi:1240-9

> <Gold.Version>
5.8.1

> <Gold.Id.Protein>
6NUR|6NUR_protein|mol2

> <Gold.PLP.Fitness>
45.0314

> <Gold.PLP.PLP>
-37.9305

> <Gold.PLP.part.hbond>
-4.0000

> <Gold.PLP.part.metal>
0.0000

> <Gold.PLP.part.buried>
-2.4813

> <Gold.PLP.part.nonpolar>
-32.0667

> <Gold.PLP.part.repulsive>
2.5896

> <Gold.PLP.ligand.clash>
0.0000

> <Gold.PLP.ligand.torsion>
1.0657

> <Gold.PLP.Chemscore.Hbond>
2.9920

> <Gold.PLP.Chemscore.CHOScore>
0.0000

> <Gold.PLP.Chemscore.Metal>
0.0000

> <Gold.Chemscore.Hbonds>
donor molecule, donor type, donor heavy atom, donor atom, acceptor molecule, acceptor atom, score
      L1  H    21    48       P1  8028  2.00
      P1  H  7954  7966       L1     1  0.78

> <Gold.PLP.Chemscore.Internal.Correction>
0.2564

> <Gold.Rescore>
     Score         DG    S(hbond)    S(metal)    S(lipo)     H(rot)  DE(clash)    DE(int)     intcor
     12.21     -16.75       1.57        0.00      88.59       1.69       2.18       2.36       ----

> <Gold.Chemscore.Fitness>
12.2053

> <Gold.Chemscore.DG>
-16.7466

> <Gold.Chemscore.ZeroCoef>
-5.4800

> <Gold.Chemscore.Hbond>
1.5663

> <Gold.Chemscore.Metal>
0.0000

> <Gold.Chemscore.Lipo>
88.5869

> <Gold.Chemscore.Internal_Hbond>
0.0000

> <Gold.Chemscore.DEClash>
2.1848

> <Gold.Chemscore.DEInternal>
2.3565

> <Gold.Chemscore.Rot>
1.6912

> <Gold.Chemscore.Internal.Correction>
   9.000000E+99

> <Gold.Chemscore.Hbonds>
donor molecule, donor type, donor heavy atom, donor atom, acceptor molecule, acceptor atom, score
      L1  H    21    48       P1  8028  0.98
      P1  H  7954  7966       L1     1  0.16

> <Gold.Chemscore.Hbond.Weighted>
-5.2314

> <Gold.Chemscore.Metal.Weighted>
-0.0000

> <Gold.Chemscore.Lipo.Weighted>
-10.3647

> <Gold.Chemscore.Internal_Hbond.Weighted>
0.0000

> <Gold.Chemscore.DEClash.Weighted>
2.1848

> <Gold.Chemscore.DEInternal.Weighted>
2.3565

> <Gold.Chemscore.Rot.Weighted>
4.3295

> <Gold.Chemscore.Internal.Correction.Weighted>
   9.000000E+99

> <Gold.Protein.RotatedTorsions>
[ 6907 6896 6895 6894 ] final  -85.14 input  -60.11 | X-H torsion
[ 7974 7965 7964 7962 ] final  -46.94 input  175.53 | X-H torsion
[ 8008 7997 7996 7995 ] final -158.34 input   59.86 | X-H torsion
[ 10167 10162 10161 10158 ] final  117.99 input  -65.29 | X-H torsion
[ 10718 10713 10712 10709 ] final  173.61 input   66.30 | X-H torsion
[ 10763 10752 10751 10750 ] final  162.43 input  -60.55 | X-H torsion
[ 11005 11000 10999 10996 ] final -101.99 input  -57.11 | X-H torsion

> <Gold.Protein.ActiveResidues>
 VAL166  LYS551  ARG553  GLY616  TRP617  ASP618  TYR619  PRO620  LYS621  CYS622 
 ASP623  PHE694  ASN695  SER759  ASP760  ASP761  ALA762  ILE779  LEU786  VAL792 
 PHE793  MET794  SER795  GLU796  ALA797  LYS798  CYS799  TRP800  GLU811  SER814 

> <Gold.Protein.RotatedAtoms>
  150.6872  134.3250  159.4802 H   0  0  0  0  0  0  0  0  0  0  0  0  # atno 6907 bound_to 6896
  152.1121  134.9264  160.0575 H   0  0  0  0  0  0  0  0  0  0  0  0  # atno 6908 bound_to 6896
  152.0503  133.3981  159.4411 H   0  0  0  0  0  0  0  0  0  0  0  0  # atno 6909 bound_to 6896
  145.9667  140.7424  142.9430 H   0  0  0  0  0  0  0  0  0  0  0  0  # atno 7974 bound_to 7965
  155.7460  140.0820  157.2223 H   0  0  0  0  0  0  0  0  0  0  0  0  # atno 8008 bound_to 7997
  154.4017  140.1569  156.2726 H   0  0  0  0  0  0  0  0  0  0  0  0  # atno 8009 bound_to 7997
  155.8975  140.3411  155.6004 H   0  0  0  0  0  0  0  0  0  0  0  0  # atno 8010 bound_to 7997
  139.6141  144.7088  151.2778 H   0  0  0  0  0  0  0  0  0  0  0  0  # atno 10167 bound_to 10162
  156.9617  131.0063  151.2926 H   0  0  0  0  0  0  0  0  0  0  0  0  # atno 10718 bound_to 10713
  154.2783  135.2764  155.2708 H   0  0  0  0  0  0  0  0  0  0  0  0  # atno 10763 bound_to 10752
  154.5241  135.5748  153.6708 H   0  0  0  0  0  0  0  0  0  0  0  0  # atno 10764 bound_to 10752
  152.9933  135.6211  154.2941 H   0  0  0  0  0  0  0  0  0  0  0  0  # atno 10765 bound_to 10752
  141.1208  133.8522  157.1302 H   0  0  0  0  0  0  0  0  0  0  0  0  # atno 11005 bound_to 11000
  144.6827  140.2681  143.7309 LP  0  0  0  0  0  0  0  0  0  0  0  0  # atno 17320 bound_to 7965
  145.7964  139.1947  143.2073 LP  0  0  0  0  0  0  0  0  0  0  0  0  # atno 17321 bound_to 7965
  140.7339  143.6781  150.8024 LP  0  0  0  0  0  0  0  0  0  0  0  0  # atno 17342 bound_to 10162
  140.0380  143.5375  152.2730 LP  0  0  0  0  0  0  0  0  0  0  0  0  # atno 17343 bound_to 10162
  157.5653  130.8273  149.8319 LP  0  0  0  0  0  0  0  0  0  0  0  0  # atno 17370 bound_to 10713
  156.0319  130.3762  150.1664 LP  0  0  0  0  0  0  0  0  0  0  0  0  # atno 17371 bound_to 10713
  140.0164  134.9965  157.0502 LP  0  0  0  0  0  0  0  0  0  0  0  0  # atno 17394 bound_to 11000
  140.4513  134.1580  155.7182 LP  0  0  0  0  0  0  0  0  0  0  0  0  # atno 17395 bound_to 11000

$$$$
