AV-unprocessed.smi:246|AV-procd|sdf|1880|dock4
  -GOLD-   2262020523D 1   1.00000     0.00000
 Structure written by MMmdl.
 57 60  0  0  0  0  0  0  0  0  1 V2000
  147.3711  135.7793  162.8048 C   0  0  0  0  0  0  0  0  0  0  0  0
  146.9439  134.3405  162.4841 C   0  0  0  0  0  0  0  0  0  0  0  0
  146.9391  134.0891  161.0858 O   0  0  0  0  0  0  0  0  0  0  0  0
  148.2146  133.7846  160.5400 C   0  0  0  0  0  0  0  0  0  0  0  0
  148.2712  134.3075  159.1019 C   0  0  0  0  0  0  0  0  0  0  0  0
  149.6265  134.5296  158.7415 O   0  0  0  0  0  0  0  0  0  0  0  0
  149.8435  134.5752  157.3386 C   0  0  1  0  0  0  0  0  0  0  0  0
  148.8553  135.4850  156.6117 C   0  0  0  0  0  0  0  0  0  0  0  0
  149.6250  135.8677  155.3503 C   0  0  0  0  0  0  0  0  0  0  0  0
  151.0364  135.8922  155.7262 N   0  0  0  0  0  0  0  0  0  0  0  0
  151.6677  137.0869  155.6632 C   0  0  0  0  0  0  0  0  0  0  0  0
  152.7278  137.2597  154.8293 N   0  0  0  0  0  0  0  0  0  0  0  0
  153.3331  138.4491  154.7560 C   0  0  0  0  0  0  0  0  0  0  0  0
  153.0461  139.5741  155.4152 N   0  0  0  0  0  0  0  0  0  0  0  0
  151.9802  139.4020  156.2491 C   0  0  0  0  0  0  0  0  0  0  0  0
  151.2358  138.2027  156.4268 C   0  0  0  0  0  0  0  0  0  0  0  0
  150.2174  138.4049  157.3493 N   0  0  0  0  0  0  0  0  0  0  0  0
  150.3569  139.6534  157.7046 C   0  0  0  0  0  0  0  0  0  0  0  0
  151.4018  140.3220  157.1062 N   0  0  0  0  0  0  0  0  0  0  0  0
  151.7796  141.7087  157.3159 C   0  0  0  0  0  0  0  0  0  0  0  0
  150.9462  142.4269  158.4024 C   0  0  2  0  0  0  0  0  0  0  0  0
  150.1584  143.3741  157.7095 O   0  0  0  0  0  0  0  0  0  0  0  0
  151.7628  143.2018  159.4633 C   0  0  2  0  0  0  0  0  0  0  0  0
  152.6010  142.3508  160.4245 C   0  0  0  0  0  0  0  0  0  0  0  0
  152.6617  143.1688  161.7059 C   0  0  0  0  0  0  0  0  0  0  0  0
  151.6423  144.2832  161.4792 C   0  0  0  0  0  0  0  0  0  0  0  0
  150.8741  143.8333  160.3747 O   0  0  0  0  0  0  0  0  0  0  0  0
  151.1916  135.2278  157.0181 C   0  0  0  0  0  0  0  0  0  0  0  0
  149.8211  133.5736  156.9051 H   0  0  0  0  0  0  0  0  0  0  0  0
  147.2752  135.9793  163.8721 H   0  0  0  0  0  0  0  0  0  0  0  0
  146.7472  136.4991  162.2747 H   0  0  0  0  0  0  0  0  0  0  0  0
  148.4089  135.9666  162.5309 H   0  0  0  0  0  0  0  0  0  0  0  0
  147.5699  133.6176  163.0089 H   0  0  0  0  0  0  0  0  0  0  0  0
  145.9269  134.1880  162.8462 H   0  0  0  0  0  0  0  0  0  0  0  0
  149.0224  134.2161  161.1312 H   0  0  0  0  0  0  0  0  0  0  0  0
  148.3523  132.7024  160.5352 H   0  0  0  0  0  0  0  0  0  0  0  0
  147.8405  133.5674  158.4259 H   0  0  0  0  0  0  0  0  0  0  0  0
  147.6763  135.2171  159.0128 H   0  0  0  0  0  0  0  0  0  0  0  0
  147.9018  135.0033  156.3943 H   0  0  0  0  0  0  0  0  0  0  0  0
  148.6595  136.3769  157.2086 H   0  0  0  0  0  0  0  0  0  0  0  0
  149.4962  135.1000  154.5869 H   0  0  0  0  0  0  0  0  0  0  0  0
  149.2663  136.8062  154.9253 H   0  0  0  0  0  0  0  0  0  0  0  0
  154.1666  138.5074  154.0716 H   0  0  0  0  0  0  0  0  0  0  0  0
  149.7011  140.1221  158.4241 H   0  0  0  0  0  0  0  0  0  0  0  0
  152.8420  141.7593  157.5577 H   0  0  0  0  0  0  0  0  0  0  0  0
  151.6582  142.2176  156.3584 H   0  0  0  0  0  0  0  0  0  0  0  0
  150.2753  141.7176  158.8881 H   0  0  0  0  0  0  0  0  0  0  0  0
  149.3724  143.5343  158.2091 H   0  0  0  0  0  0  0  0  0  0  0  0
  152.3969  143.9553  158.9912 H   0  0  0  0  0  0  0  0  0  0  0  0
  152.1016  141.4031  160.6289 H   0  0  0  0  0  0  0  0  0  0  0  0
  153.5935  142.1333  160.0313 H   0  0  0  0  0  0  0  0  0  0  0  0
  152.3917  142.5531  162.5647 H   0  0  0  0  0  0  0  0  0  0  0  0
  153.6568  143.5776  161.8842 H   0  0  0  0  0  0  0  0  0  0  0  0
  151.0161  144.4666  162.3525 H   0  0  0  0  0  0  0  0  0  0  0  0
  152.1431  145.2157  161.2145 H   0  0  0  0  0  0  0  0  0  0  0  0
  151.4477  135.9533  157.7930 H   0  0  0  0  0  0  0  0  0  0  0  0
  151.9928  134.4893  156.9826 H   0  0  0  0  0  0  0  0  0  0  0  0
  1  2  1  0  0  0  0
  1 30  1  0  0  0  0
  1 31  1  0  0  0  0
  1 32  1  0  0  0  0
  2  3  1  0  0  0  0
  2 33  1  0  0  0  0
  2 34  1  0  0  0  0
  3  4  1  0  0  0  0
  4  5  1  0  0  0  0
  4 35  1  0  0  0  0
  4 36  1  0  0  0  0
  5  6  1  0  0  0  0
  5 37  1  0  0  0  0
  5 38  1  0  0  0  0
  6  7  1  0  0  0  0
  7 29  1  0  0  0  0
  7 28  1  0  0  0  0
  7  8  1  0  0  0  0
  8  9  1  0  0  0  0
  8 39  1  0  0  0  0
  8 40  1  0  0  0  0
  9 10  1  0  0  0  0
  9 41  1  0  0  0  0
  9 42  1  0  0  0  0
 10 11  1  0  0  0  0
 10 28  1  0  0  0  0
 11 16  1  0  0  0  0
 11 12  2  0  0  0  0
 12 13  1  0  0  0  0
 13 14  2  0  0  0  0
 13 43  1  0  0  0  0
 14 15  1  0  0  0  0
 15 19  1  0  0  0  0
 15 16  2  0  0  0  0
 16 17  1  0  0  0  0
 17 18  2  0  0  0  0
 18 19  1  0  0  0  0
 18 44  1  0  0  0  0
 19 20  1  0  0  0  0
 20 21  1  0  0  0  0
 20 45  1  0  0  0  0
 20 46  1  0  0  0  0
 21 22  1  0  0  0  0
 21 23  1  0  0  0  0
 21 47  1  0  0  0  0
 22 48  1  0  0  0  0
 23 27  1  0  0  0  0
 23 24  1  0  0  0  0
 23 49  1  0  0  0  0
 24 25  1  0  0  0  0
 24 50  1  0  0  0  0
 24 51  1  0  0  0  0
 25 26  1  0  0  0  0
 25 52  1  0  0  0  0
 25 53  1  0  0  0  0
 26 27  1  0  0  0  0
 26 54  1  0  0  0  0
 26 55  1  0  0  0  0
 28 56  1  0  0  0  0
 28 57  1  0  0  0  0
M  END
> <s_m_source_file>
AV-unprocessed.smi

> <i_m_source_file_index>
246

> <i_lp_mmshare_version>
43012

> <i_f3d_flags>
0

> <s_epik_input>
W0NIM11bQ0gyXU9bQ0gyXVtDSDJdT1tDQEhdMVtDSDJdW0NIMl1OKFtDSDJdMSljKG5bY0hdbjIpYyhjMjMpbltjSF1uM1tDSDJdW0NASF0oW09IXSlbQ0BASF00W0NIMl1bQ0gyXVtDSDJdTzQ=

> <s_epik_cmdline>
J2VwaWtfcHl0aG9uJywgJy1waCcsICc3LjAnLCAnLXRuJywgJzgnLCAnLW1hJywgJzIwMCcsICctbWV0YWxfYmluZGluZycsICctaW1hZScsICc8aW5maWxlLm1hZT4nLCAnLW9tYWUnLCAnPG91dGZpbGUubWFlPic=

> <r_lp_tautomer_probability>
1

> <r_epik_Ionization_Penalty>
0.0024631

> <r_epik_Ionization_Penalty_Charging>
0

> <r_epik_Ionization_Penalty_Neutral>
0.0024631

> <r_epik_State_Penalty>
0.00162428

> <r_epik_Charging_Adjusted_Penalty>
0.00162428

> <i_epik_Tot_Q>
0

> <i_epik_Tot_abs_Q>
0

> <r_epik_Metal_State_Penalty>
-0

> <b_epik_Metal_Only>
0

> <s_lp_Force_Field>
OPLS_2005

> <r_lp_Energy>
54.9549

> <b_lp_Chiralities_Consistent>
1

> <s_lp_Variant>
AV-unprocessed.smi:246-1

> <Gold.Version>
5.8.1

> <Gold.Id.Protein>
6NUR|6NUR_protein|mol2

> <Gold.PLP.Fitness>
56.2043

> <Gold.PLP.PLP>
-49.0984

> <Gold.PLP.part.hbond>
-5.5428

> <Gold.PLP.part.metal>
0.0000

> <Gold.PLP.part.buried>
-8.8733

> <Gold.PLP.part.nonpolar>
-35.3065

> <Gold.PLP.part.repulsive>
0.3597

> <Gold.PLP.ligand.clash>
0.0000

> <Gold.PLP.ligand.torsion>
1.4343

> <Gold.PLP.Chemscore.Hbond>
3.0274

> <Gold.PLP.Chemscore.CHOScore>
0.0000

> <Gold.PLP.Chemscore.Metal>
0.0000

> <Gold.Chemscore.Hbonds>
donor molecule, donor type, donor heavy atom, donor atom, acceptor molecule, acceptor atom, score
      P1  H  6896  6907       L1     6  0.28
      P1  H  7997  8009       L1    14  1.00
      P1  H 10752 10765       L1    12  0.46

> <Gold.PLP.Chemscore.Internal.Correction>
0.8922

> <Gold.Rescore>
     Score         DG    S(hbond)    S(metal)    S(lipo)     H(rot)  DE(clash)    DE(int)     intcor
     15.73     -17.15       2.50        0.00     102.23       3.37       0.08       1.33       ----

> <Gold.Chemscore.Fitness>
15.7333

> <Gold.Chemscore.DG>
-17.1454

> <Gold.Chemscore.ZeroCoef>
-5.4800

> <Gold.Chemscore.Hbond>
2.4974

> <Gold.Chemscore.Metal>
0.0000

> <Gold.Chemscore.Lipo>
102.2312

> <Gold.Chemscore.Internal_Hbond>
0.0000

> <Gold.Chemscore.DEClash>
0.0834

> <Gold.Chemscore.DEInternal>
1.3287

> <Gold.Chemscore.Rot>
3.3739

> <Gold.Chemscore.Internal.Correction>
   9.000000E+99

> <Gold.Chemscore.Hbonds>
donor molecule, donor type, donor heavy atom, donor atom, acceptor molecule, acceptor atom, score
      P1  H  6896  6907       L1     6  0.26
      P1  H  7997  8009       L1    14  0.66
      P1  H 10752 10765       L1    12  0.14

> <Gold.Chemscore.Hbond.Weighted>
-8.3415

> <Gold.Chemscore.Metal.Weighted>
-0.0000

> <Gold.Chemscore.Lipo.Weighted>
-11.9611

> <Gold.Chemscore.Internal_Hbond.Weighted>
0.0000

> <Gold.Chemscore.DEClash.Weighted>
0.0834

> <Gold.Chemscore.DEInternal.Weighted>
1.3287

> <Gold.Chemscore.Rot.Weighted>
8.6371

> <Gold.Chemscore.Internal.Correction.Weighted>
   9.000000E+99

> <Gold.Protein.RotatedTorsions>
[ 6907 6896 6895 6894 ] final  -93.24 input  -60.11 | X-H torsion
[ 7974 7965 7964 7962 ] final -132.97 input  175.53 | X-H torsion
[ 8008 7997 7996 7995 ] final -144.40 input   59.86 | X-H torsion
[ 10167 10162 10161 10158 ] final  135.96 input  -65.29 | X-H torsion
[ 10718 10713 10712 10709 ] final   27.63 input   66.30 | X-H torsion
[ 10763 10752 10751 10750 ] final  161.88 input  -60.55 | X-H torsion
[ 11005 11000 10999 10996 ] final  -27.20 input  -57.11 | X-H torsion

> <Gold.Protein.ActiveResidues>
 VAL166  LYS551  ARG553  GLY616  TRP617  ASP618  TYR619  PRO620  LYS621  CYS622 
 ASP623  PHE694  ASN695  SER759  ASP760  ASP761  ALA762  ILE779  LEU786  VAL792 
 PHE793  MET794  SER795  GLU796  ALA797  LYS798  CYS799  TRP800  GLU811  SER814 

> <Gold.Protein.RotatedAtoms>
  150.6919  134.1998  159.4317 H   0  0  0  0  0  0  0  0  0  0  0  0  # atno 6907 bound_to 6896
  151.9965  134.9949  160.0573 H   0  0  0  0  0  0  0  0  0  0  0  0  # atno 6908 bound_to 6896
  152.1619  133.4552  159.4902 H   0  0  0  0  0  0  0  0  0  0  0  0  # atno 6909 bound_to 6896
  144.9236  140.7044  143.4950 H   0  0  0  0  0  0  0  0  0  0  0  0  # atno 7974 bound_to 7965
  155.5263  140.0596  157.2897 H   0  0  0  0  0  0  0  0  0  0  0  0  # atno 8008 bound_to 7997
  154.4500  140.1944  156.0494 H   0  0  0  0  0  0  0  0  0  0  0  0  # atno 8009 bound_to 7997
  156.0684  140.3263  155.7549 H   0  0  0  0  0  0  0  0  0  0  0  0  # atno 8010 bound_to 7997
  139.5197  144.6489  151.5359 H   0  0  0  0  0  0  0  0  0  0  0  0  # atno 10167 bound_to 10162
  157.2228  130.6987  149.6278 H   0  0  0  0  0  0  0  0  0  0  0  0  # atno 10718 bound_to 10713
  154.2697  135.2766  155.2743 H   0  0  0  0  0  0  0  0  0  0  0  0  # atno 10763 bound_to 10752
  154.5312  135.5729  153.6764 H   0  0  0  0  0  0  0  0  0  0  0  0  # atno 10764 bound_to 10752
  152.9947  135.6228  154.2851 H   0  0  0  0  0  0  0  0  0  0  0  0  # atno 10765 bound_to 10752
  140.9098  133.7468  156.0655 H   0  0  0  0  0  0  0  0  0  0  0  0  # atno 11005 bound_to 11000
  145.3255  139.1775  143.4565 LP  0  0  0  0  0  0  0  0  0  0  0  0  # atno 17320 bound_to 7965
  146.3216  140.3278  142.8638 LP  0  0  0  0  0  0  0  0  0  0  0  0  # atno 17321 bound_to 7965
  140.6286  143.9120  150.6586 LP  0  0  0  0  0  0  0  0  0  0  0  0  # atno 17342 bound_to 10162
  140.2417  143.3659  152.1481 LP  0  0  0  0  0  0  0  0  0  0  0  0  # atno 17343 bound_to 10162
  155.9681  130.4514  150.5735 LP  0  0  0  0  0  0  0  0  0  0  0  0  # atno 17370 bound_to 10713
  157.3558  131.0741  151.1676 LP  0  0  0  0  0  0  0  0  0  0  0  0  # atno 17371 bound_to 10713
  140.8125  134.3383  157.5407 LP  0  0  0  0  0  0  0  0  0  0  0  0  # atno 17394 bound_to 11000
  139.8755  134.9262  156.3394 LP  0  0  0  0  0  0  0  0  0  0  0  0  # atno 17395 bound_to 11000

$$$$
