AV-unprocessed.smi:1841|AV-procd|sdf|7497|dock3
  -GOLD-   22720 9193D 1   1.00000     0.00000
 Structure written by MMmdl.
 40 41  0  0  0  0  0  0  0  0  1 V2000
  152.0641  141.4282  158.4792 C   0  0  0  0  0  0  0  0  0  0  0  0
  151.2582  140.7285  157.5474 O   0  0  0  0  0  0  0  0  0  0  0  0
  151.9578  140.4081  156.3564 C   0  0  0  0  0  0  0  0  0  0  0  0
  151.0727  139.5169  155.4799 C   0  0  0  0  0  0  0  0  0  0  0  0
  150.1692  140.3438  154.7529 O   0  0  0  0  0  0  0  0  0  0  0  0
  148.9635  139.8086  154.3493 C   0  0  0  0  0  0  0  0  0  0  0  0
  148.6788  138.4685  154.6782 C   0  0  0  0  0  0  0  0  0  0  0  0
  147.4539  137.9106  154.2651 C   0  0  0  0  0  0  0  0  0  0  0  0
  146.5522  138.7120  153.5251 C   0  0  0  0  0  0  0  0  0  0  0  0
  145.2827  138.2708  153.0631 N   0  0  0  0  0  0  0  0  0  0  0  0
  144.7820  137.0214  153.0525 C   0  0  0  0  0  0  0  0  0  0  0  0
  145.3840  136.0245  153.4518 O   0  0  0  0  0  0  0  0  0  0  0  0
  143.3663  136.8712  152.4716 C   0  0  1  0  0  0  0  0  0  0  0  0
  142.8667  135.4153  152.5739 C   0  0  0  0  0  0  0  0  0  0  0  0
  141.7329  135.4845  153.5833 C   0  0  0  0  0  0  0  0  0  0  0  0
  141.1497  134.4858  154.0024 O   0  0  0  0  0  0  0  0  0  0  0  0
  141.4865  136.7482  153.9394 N   0  0  0  0  0  0  0  0  0  0  0  0
  140.4896  137.1827  154.9086 C   0  0  0  0  0  0  0  0  0  0  0  0
  142.3214  137.7102  153.2407 C   0  0  0  0  0  0  0  0  0  0  0  0
  146.9242  140.0471  153.2639 C   0  0  0  0  0  0  0  0  0  0  0  0
  148.0967  140.5880  153.6566 N   0  0  0  0  0  0  0  0  0  0  0  0
  151.4833  141.6446  159.3757 H   0  0  0  0  0  0  0  0  0  0  0  0
  152.4108  142.3763  158.0659 H   0  0  0  0  0  0  0  0  0  0  0  0
  152.9313  140.8361  158.7742 H   0  0  0  0  0  0  0  0  0  0  0  0
  152.2458  141.3106  155.8151 H   0  0  0  0  0  0  0  0  0  0  0  0
  152.8731  139.8726  156.6124 H   0  0  0  0  0  0  0  0  0  0  0  0
  151.7013  138.9653  154.7789 H   0  0  0  0  0  0  0  0  0  0  0  0
  150.5414  138.7913  156.0983 H   0  0  0  0  0  0  0  0  0  0  0  0
  149.3881  137.8785  155.2398 H   0  0  0  0  0  0  0  0  0  0  0  0
  147.2288  136.8902  154.5336 H   0  0  0  0  0  0  0  0  0  0  0  0
  144.7114  138.9796  152.6263 H   0  0  0  0  0  0  0  0  0  0  0  0
  143.3759  137.1808  151.4250 H   0  0  0  0  0  0  0  0  0  0  0  0
  142.4806  135.0632  151.6169 H   0  0  0  0  0  0  0  0  0  0  0  0
  143.6308  134.7109  152.9078 H   0  0  0  0  0  0  0  0  0  0  0  0
  139.5290  136.7002  154.7227 H   0  0  0  0  0  0  0  0  0  0  0  0
  140.3394  138.2615  154.8582 H   0  0  0  0  0  0  0  0  0  0  0  0
  140.8110  136.9307  155.9195 H   0  0  0  0  0  0  0  0  0  0  0  0
  142.7699  138.4110  153.9474 H   0  0  0  0  0  0  0  0  0  0  0  0
  141.7054  138.2884  152.5506 H   0  0  0  0  0  0  0  0  0  0  0  0
  146.2634  140.7029  152.7159 H   0  0  0  0  0  0  0  0  0  0  0  0
  1  2  1  0  0  0  0
  1 22  1  0  0  0  0
  1 23  1  0  0  0  0
  1 24  1  0  0  0  0
  2  3  1  0  0  0  0
  3  4  1  0  0  0  0
  3 25  1  0  0  0  0
  3 26  1  0  0  0  0
  4  5  1  0  0  0  0
  4 27  1  0  0  0  0
  4 28  1  0  0  0  0
  5  6  1  0  0  0  0
  6 21  1  0  0  0  0
  6  7  2  0  0  0  0
  7  8  1  0  0  0  0
  7 29  1  0  0  0  0
  8  9  2  0  0  0  0
  8 30  1  0  0  0  0
  9 10  1  0  0  0  0
  9 20  1  0  0  0  0
 10 11  1  0  0  0  0
 10 31  1  0  0  0  0
 11 12  2  0  0  0  0
 11 13  1  0  0  0  0
 13 19  1  0  0  0  0
 13 14  1  0  0  0  0
 13 32  1  0  0  0  0
 14 15  1  0  0  0  0
 14 33  1  0  0  0  0
 14 34  1  0  0  0  0
 15 16  2  0  0  0  0
 15 17  1  0  0  0  0
 17 18  1  0  0  0  0
 17 19  1  0  0  0  0
 18 35  1  0  0  0  0
 18 36  1  0  0  0  0
 18 37  1  0  0  0  0
 19 38  1  0  0  0  0
 19 39  1  0  0  0  0
 20 21  2  0  0  0  0
 20 40  1  0  0  0  0
M  END
> <s_m_source_file>
AV-unprocessed.smi

> <i_m_source_file_index>
1841

> <i_lp_mmshare_version>
43012

> <i_f3d_flags>
0

> <s_epik_input>
W0NIM11PW0NIMl1bQ0gyXU9jMVtjSF1bY0hdYyhbY0hdbjEpW05IXUMoPU8pW0NAQEhdMltDSDJdQyg9TylOKFtDSDNdKVtDSDJdMg==

> <s_epik_cmdline>
J2VwaWtfcHl0aG9uJywgJy1waCcsICc3LjAnLCAnLXRuJywgJzgnLCAnLW1hJywgJzIwMCcsICctbWV0YWxfYmluZGluZycsICctaW1hZScsICc8aW5maWxlLm1hZT4nLCAnLW9tYWUnLCAnPG91dGZpbGUubWFlPic=

> <r_lp_tautomer_probability>
1

> <r_epik_Ionization_Penalty>
1.70347e-05

> <r_epik_Ionization_Penalty_Charging>
0

> <r_epik_Ionization_Penalty_Neutral>
1.70347e-05

> <r_epik_State_Penalty>
-0

> <r_epik_Charging_Adjusted_Penalty>
0

> <i_epik_Tot_Q>
0

> <i_epik_Tot_abs_Q>
0

> <r_epik_Metal_State_Penalty>
-0

> <b_epik_Metal_Only>
0

> <s_lp_Force_Field>
OPLS_2005

> <r_lp_Energy>
17.1342

> <b_lp_Chiralities_Consistent>
1

> <s_lp_Variant>
AV-unprocessed.smi:1841-2

> <Gold.Version>
5.8.1

> <Gold.Id.Protein>
6NUR|6NUR_protein|mol2

> <Gold.PLP.Fitness>
39.7736

> <Gold.PLP.PLP>
-30.7170

> <Gold.PLP.part.hbond>
-3.8602

> <Gold.PLP.part.metal>
0.0000

> <Gold.PLP.part.buried>
-6.3416

> <Gold.PLP.part.nonpolar>
-23.0302

> <Gold.PLP.part.repulsive>
1.7092

> <Gold.PLP.ligand.clash>
0.5928

> <Gold.PLP.ligand.torsion>
0.3115

> <Gold.PLP.Chemscore.Hbond>
2.5900

> <Gold.PLP.Chemscore.CHOScore>
0.8168

> <Gold.PLP.Chemscore.Metal>
0.0000

> <Gold.Chemscore.Hbonds>
donor molecule, donor type, donor heavy atom, donor atom, acceptor molecule, acceptor atom, score
      L1  H    10    31       P1 10175  1.00
      P1  H  7989  7998       L1     5  0.55
      P1  H 11000 11005       L1    16  1.00
      L1  C    20    40       P1 10175  0.81

> <Gold.PLP.Chemscore.Internal.Correction>
0.0520

> <Gold.Rescore>
     Score         DG    S(hbond)    S(metal)    S(lipo)     H(rot)  DE(clash)    DE(int)     intcor
     12.01     -13.62       2.01        0.00      54.76       1.95       0.06       1.54       ----

> <Gold.Chemscore.Fitness>
12.0105

> <Gold.Chemscore.DG>
-13.6162

> <Gold.Chemscore.ZeroCoef>
-5.4800

> <Gold.Chemscore.Hbond>
2.0098

> <Gold.Chemscore.Metal>
0.0000

> <Gold.Chemscore.Lipo>
54.7623

> <Gold.Chemscore.Internal_Hbond>
0.0000

> <Gold.Chemscore.DEClash>
0.0628

> <Gold.Chemscore.DEInternal>
1.5429

> <Gold.Chemscore.Rot>
1.9468

> <Gold.Chemscore.Internal.Correction>
   9.000000E+99

> <Gold.Chemscore.Hbonds>
donor molecule, donor type, donor heavy atom, donor atom, acceptor molecule, acceptor atom, score
      L1  H    10    31       P1 10175  1.00
      P1  H  7989  7998       L1     5  0.03
      P1  H 11000 11005       L1    16  1.00

> <Gold.Chemscore.Hbond.Weighted>
-6.7129

> <Gold.Chemscore.Metal.Weighted>
-0.0000

> <Gold.Chemscore.Lipo.Weighted>
-6.4072

> <Gold.Chemscore.Internal_Hbond.Weighted>
0.0000

> <Gold.Chemscore.DEClash.Weighted>
0.0628

> <Gold.Chemscore.DEInternal.Weighted>
1.5429

> <Gold.Chemscore.Rot.Weighted>
4.9839

> <Gold.Chemscore.Internal.Correction.Weighted>
   9.000000E+99

> <Gold.Protein.RotatedTorsions>
[ 6907 6896 6895 6894 ] final  145.52 input  -60.11 | X-H torsion
[ 7974 7965 7964 7962 ] final  -98.08 input  175.53 | X-H torsion
[ 8008 7997 7996 7995 ] final   69.48 input   59.86 | X-H torsion
[ 10167 10162 10161 10158 ] final -135.74 input  -65.29 | X-H torsion
[ 10718 10713 10712 10709 ] final  164.52 input   66.30 | X-H torsion
[ 10763 10752 10751 10750 ] final  -91.85 input  -60.55 | X-H torsion
[ 11005 11000 10999 10996 ] final   15.08 input  -57.11 | X-H torsion

> <Gold.Protein.ActiveResidues>
 VAL166  LYS551  ARG553  GLY616  TRP617  ASP618  TYR619  PRO620  LYS621  CYS622 
 ASP623  PHE694  ASN695  SER759  ASP760  ASP761  ALA762  ILE779  LEU786  VAL792 
 PHE793  MET794  SER795  GLU796  ALA797  LYS798  CYS799  TRP800  GLU811  SER814 

> <Gold.Protein.RotatedAtoms>
  152.1798  133.4700  159.4952 H   0  0  0  0  0  0  0  0  0  0  0  0  # atno 6907 bound_to 6896
  150.6933  134.1847  159.4271 H   0  0  0  0  0  0  0  0  0  0  0  0  # atno 6908 bound_to 6896
  151.9758  135.0053  160.0605 H   0  0  0  0  0  0  0  0  0  0  0  0  # atno 6909 bound_to 6896
  145.3252  140.9430  143.2693 H   0  0  0  0  0  0  0  0  0  0  0  0  # atno 7974 bound_to 7965
  155.7243  140.3493  155.5030 H   0  0  0  0  0  0  0  0  0  0  0  0  # atno 8008 bound_to 7997
  155.9241  140.1072  157.1205 H   0  0  0  0  0  0  0  0  0  0  0  0  # atno 8009 bound_to 7997
  154.4074  140.1244  156.4704 H   0  0  0  0  0  0  0  0  0  0  0  0  # atno 8010 bound_to 7997
  139.8748  143.6912  152.2635 H   0  0  0  0  0  0  0  0  0  0  0  0  # atno 10167 bound_to 10162
  157.0932  131.0423  151.2528 H   0  0  0  0  0  0  0  0  0  0  0  0  # atno 10718 bound_to 10713
  154.6802  135.5252  153.8253 H   0  0  0  0  0  0  0  0  0  0  0  0  # atno 10763 bound_to 10752
  153.0560  135.6550  154.0587 H   0  0  0  0  0  0  0  0  0  0  0  0  # atno 10764 bound_to 10752
  154.0475  135.2972  155.3325 H   0  0  0  0  0  0  0  0  0  0  0  0  # atno 10765 bound_to 10752
  140.4623  134.1115  155.7718 H   0  0  0  0  0  0  0  0  0  0  0  0  # atno 11005 bound_to 11000
  144.8907  139.4778  143.6679 LP  0  0  0  0  0  0  0  0  0  0  0  0  # atno 17320 bound_to 7965
  146.3067  139.7603  142.9051 LP  0  0  0  0  0  0  0  0  0  0  0  0  # atno 17321 bound_to 7965
  139.7250  144.7595  151.0894 LP  0  0  0  0  0  0  0  0  0  0  0  0  # atno 17342 bound_to 10162
  140.7754  143.5160  150.9595 LP  0  0  0  0  0  0  0  0  0  0  0  0  # atno 17343 bound_to 10162
  157.4704  130.7705  149.7318 LP  0  0  0  0  0  0  0  0  0  0  0  0  # atno 17370 bound_to 10713
  155.9892  130.3953  150.3081 LP  0  0  0  0  0  0  0  0  0  0  0  0  # atno 17371 bound_to 10713
  141.1615  133.8783  157.1833 LP  0  0  0  0  0  0  0  0  0  0  0  0  # atno 17394 bound_to 11000
  139.9937  135.0055  157.0035 LP  0  0  0  0  0  0  0  0  0  0  0  0  # atno 17395 bound_to 11000

$$$$
