AV-unprocessed.smi:2822|AV-procd|sdf|10879|dock9
  -GOLD-   2272015323D 1   1.00000     0.00000
 Structure written by MMmdl.
 40 42  0  0  0  0  0  0  0  0  2 V2000
  156.4473  140.6040  164.6572 Cl  0  0  0  0  0  0  0  0  0  0  0  0
  155.5266  139.1842  164.3014 C   0  0  0  0  0  0  0  0  0  0  0  0
  155.2713  138.2538  165.3299 C   0  0  0  0  0  0  0  0  0  0  0  0
  154.5538  137.1401  165.0712 N   0  3  0  0  0  0  0  0  0  0  0  0
  154.0556  136.8620  163.8480 C   0  0  0  0  0  0  0  0  0  0  0  0
  154.2778  137.7534  162.7789 C   0  0  0  0  0  0  0  0  0  0  0  0
  155.0243  138.9382  162.9994 C   0  0  0  0  0  0  0  0  0  0  0  0
  155.2808  139.8640  161.9766 N   0  0  0  0  0  0  0  0  0  0  0  0
  154.9363  139.5731  160.5932 C   0  0  0  0  0  0  0  0  0  0  0  0
  153.6485  140.2929  160.1713 C   0  0  1  0  0  0  0  0  0  0  0  0
  153.7129  141.8016  160.4729 C   0  0  0  0  0  0  0  0  0  0  0  0
  152.5201  142.4987  160.0096 N   0  0  0  0  0  0  0  0  0  0  0  0
  152.5940  143.9297  160.2992 C   0  0  0  0  0  0  0  0  0  0  0  0
  151.3316  144.6837  159.8524 C   0  0  0  0  0  0  0  0  0  0  0  0
  151.0753  144.4554  158.3558 C   0  0  0  0  0  0  0  0  0  0  0  0
  151.0541  142.9503  158.0464 C   0  0  0  0  0  0  0  0  0  0  0  0
  152.3279  142.2593  158.5759 C   0  0  2  0  0  0  0  0  0  0  0  0
  152.2945  140.7475  158.2713 C   0  0  0  0  0  0  0  0  0  0  0  0
  153.4762  140.1255  158.7664 O   0  0  0  0  0  0  0  0  0  0  0  0
  155.6182  138.3673  166.3468 H   0  0  0  0  0  0  0  0  0  0  0  0
  153.4984  135.9406  163.7604 H   0  0  0  0  0  0  0  0  0  0  0  0
  153.8738  137.5125  161.8070 H   0  0  0  0  0  0  0  0  0  0  0  0
  155.5166  140.8164  162.2196 H   0  0  0  0  0  0  0  0  0  0  0  0
  155.7584  139.9027  159.9567 H   0  0  0  0  0  0  0  0  0  0  0  0
  154.8277  138.4965  160.4548 H   0  0  0  0  0  0  0  0  0  0  0  0
  152.7982  139.8556  160.6985 H   0  0  0  0  0  0  0  0  0  0  0  0
  153.8316  141.9527  161.5465 H   0  0  0  0  0  0  0  0  0  0  0  0
  154.5977  142.2292  159.9984 H   0  0  0  0  0  0  0  0  0  0  0  0
  152.7364  144.0788  161.3701 H   0  0  0  0  0  0  0  0  0  0  0  0
  153.4672  144.3624  159.8085 H   0  0  0  0  0  0  0  0  0  0  0  0
  150.4739  144.3378  160.4309 H   0  0  0  0  0  0  0  0  0  0  0  0
  151.4378  145.7492  160.0572 H   0  0  0  0  0  0  0  0  0  0  0  0
  150.1343  144.9179  158.0567 H   0  0  0  0  0  0  0  0  0  0  0  0
  151.8610  144.9373  157.7728 H   0  0  0  0  0  0  0  0  0  0  0  0
  150.1723  142.4977  158.5021 H   0  0  0  0  0  0  0  0  0  0  0  0
  150.9611  142.7976  156.9706 H   0  0  0  0  0  0  0  0  0  0  0  0
  153.1797  142.6810  158.0391 H   0  0  0  0  0  0  0  0  0  0  0  0
  151.4179  140.2781  158.7207 H   0  0  0  0  0  0  0  0  0  0  0  0
  152.2328  140.5760  157.1965 H   0  0  0  0  0  0  0  0  0  0  0  0
  154.3818  136.4815  165.8316 H   0  0  0  0  0  0  0  0  0  0  0  0
  1  2  1  0  0  0  0
  2  7  1  0  0  0  0
  2  3  2  0  0  0  0
  3  4  1  0  0  0  0
  3 20  1  0  0  0  0
  4  5  2  0  0  0  0
  4 40  1  0  0  0  0
  5  6  1  0  0  0  0
  5 21  1  0  0  0  0
  6  7  2  0  0  0  0
  6 22  1  0  0  0  0
  7  8  1  0  0  0  0
  8  9  1  0  0  0  0
  8 23  1  0  0  0  0
  9 10  1  0  0  0  0
  9 24  1  0  0  0  0
  9 25  1  0  0  0  0
 10 19  1  0  0  0  0
 10 11  1  0  0  0  0
 10 26  1  0  0  0  0
 11 12  1  0  0  0  0
 11 27  1  0  0  0  0
 11 28  1  0  0  0  0
 12 17  1  0  0  0  0
 12 13  1  0  0  0  0
 13 14  1  0  0  0  0
 13 29  1  0  0  0  0
 13 30  1  0  0  0  0
 14 15  1  0  0  0  0
 14 31  1  0  0  0  0
 14 32  1  0  0  0  0
 15 16  1  0  0  0  0
 15 33  1  0  0  0  0
 15 34  1  0  0  0  0
 16 17  1  0  0  0  0
 16 35  1  0  0  0  0
 16 36  1  0  0  0  0
 17 18  1  0  0  0  0
 17 37  1  0  0  0  0
 18 19  1  0  0  0  0
 18 38  1  0  0  0  0
 18 39  1  0  0  0  0
M  CHG  1   4   1
M  END
> <s_m_source_file>
AV-unprocessed.smi

> <i_m_source_file_index>
2822

> <i_lp_mmshare_version>
43012

> <i_f3d_flags>
0

> <s_epik_input>
Q2xjMVtjSF1uW2NIXVtjSF1jMVtOSF1bQ0gyXVtDQEhdKFtDSDJdMilPW0NIMl1bQ0BASF0oTjIzKVtDSDJdW0NIMl1bQ0gyXVtDSDJdMw==

> <s_epik_cmdline>
J2VwaWtfcHl0aG9uJywgJy1waCcsICc3LjAnLCAnLXRuJywgJzgnLCAnLW1hJywgJzIwMCcsICctbWV0YWxfYmluZGluZycsICctaW1hZScsICc8aW5maWxlLm1hZT4nLCAnLW9tYWUnLCAnPG91dGZpbGUubWFlPic=

> <r_epik_Ionization_Penalty>
1.37653

> <r_epik_Ionization_Penalty_Charging>
0.152973

> <r_epik_Ionization_Penalty_Neutral>
1.22356

> <r_epik_State_Penalty>
1.42693

> <r_epik_Charging_Adjusted_Penalty>
1.5799

> <i_epik_Tot_Q>
1

> <i_epik_Tot_abs_Q>
1

> <r_epik_Metal_State_Penalty>
4.59822

> <b_epik_Metal_Only>
0

> <s_lp_Force_Field>
OPLS_2005

> <r_lp_Energy>
43.1838

> <b_lp_Chiralities_Consistent>
1

> <s_lp_Variant>
AV-unprocessed.smi:2822-20

> <Gold.Version>
5.8.1

> <Gold.Id.Protein>
6NUR|6NUR_protein|mol2

> <Gold.PLP.Fitness>
43.8622

> <Gold.PLP.PLP>
-41.1972

> <Gold.PLP.part.hbond>
-1.8177

> <Gold.PLP.part.metal>
0.0000

> <Gold.PLP.part.buried>
-6.5509

> <Gold.PLP.part.nonpolar>
-33.1179

> <Gold.PLP.part.repulsive>
0.1462

> <Gold.PLP.ligand.clash>
0.0000

> <Gold.PLP.ligand.torsion>
0.1678

> <Gold.PLP.Chemscore.Hbond>
1.0000

> <Gold.PLP.Chemscore.CHOScore>
0.0000

> <Gold.PLP.Chemscore.Metal>
0.0000

> <Gold.Chemscore.Hbonds>
donor molecule, donor type, donor heavy atom, donor atom, acceptor molecule, acceptor atom, score
      P1  H  7997  8008       L1    19  0.95

> <Gold.PLP.Chemscore.Internal.Correction>
0.0006

> <Gold.Rescore>
     Score         DG    S(hbond)    S(metal)    S(lipo)     H(rot)  DE(clash)    DE(int)     intcor
     19.83     -20.03       0.82        0.00     126.88       1.18       0.01       0.19       ----

> <Gold.Chemscore.Fitness>
19.8347

> <Gold.Chemscore.DG>
-20.0301

> <Gold.Chemscore.ZeroCoef>
-5.4800

> <Gold.Chemscore.Hbond>
0.8154

> <Gold.Chemscore.Metal>
0.0000

> <Gold.Chemscore.Lipo>
126.8761

> <Gold.Chemscore.Internal_Hbond>
0.0000

> <Gold.Chemscore.DEClash>
0.0089

> <Gold.Chemscore.DEInternal>
0.1866

> <Gold.Chemscore.Rot>
1.1788

> <Gold.Chemscore.Internal.Correction>
   9.000000E+99

> <Gold.Chemscore.Hbonds>
donor molecule, donor type, donor heavy atom, donor atom, acceptor molecule, acceptor atom, score
      P1  H  7997  8008       L1    19  0.34

> <Gold.Chemscore.Hbond.Weighted>
-2.7233

> <Gold.Chemscore.Metal.Weighted>
-0.0000

> <Gold.Chemscore.Lipo.Weighted>
-14.8445

> <Gold.Chemscore.Internal_Hbond.Weighted>
0.0000

> <Gold.Chemscore.DEClash.Weighted>
0.0089

> <Gold.Chemscore.DEInternal.Weighted>
0.1866

> <Gold.Chemscore.Rot.Weighted>
3.0177

> <Gold.Chemscore.Internal.Correction.Weighted>
   9.000000E+99

> <Gold.Protein.RotatedTorsions>
[ 6907 6896 6895 6894 ] final   64.81 input  -60.11 | X-H torsion
[ 7974 7965 7964 7962 ] final  124.90 input  175.53 | X-H torsion
[ 8008 7997 7996 7995 ] final  -92.40 input   59.86 | X-H torsion
[ 10167 10162 10161 10158 ] final   71.64 input  -65.29 | X-H torsion
[ 10718 10713 10712 10709 ] final  124.66 input   66.30 | X-H torsion
[ 10763 10752 10751 10750 ] final  -88.89 input  -60.55 | X-H torsion
[ 11005 11000 10999 10996 ] final  113.90 input  -57.11 | X-H torsion

> <Gold.Protein.ActiveResidues>
 VAL166  LYS551  ARG553  GLY616  TRP617  ASP618  TYR619  PRO620  LYS621  CYS622 
 ASP623  PHE694  ASN695  SER759  ASP760  ASP761  ALA762  ILE779  LEU786  VAL792 
 PHE793  MET794  SER795  GLU796  ALA797  LYS798  CYS799  TRP800  GLU811  SER814 

> <Gold.Protein.RotatedAtoms>
  152.4360  134.5686  159.9914 H   0  0  0  0  0  0  0  0  0  0  0  0  # atno 6907 bound_to 6896
  151.5796  133.3373  159.3014 H   0  0  0  0  0  0  0  0  0  0  0  0  # atno 6908 bound_to 6896
  150.8258  134.7523  159.6876 H   0  0  0  0  0  0  0  0  0  0  0  0  # atno 6909 bound_to 6896
  145.0792  139.3670  143.4918 H   0  0  0  0  0  0  0  0  0  0  0  0  # atno 7974 bound_to 7965
  154.7227  140.0509  157.0654 H   0  0  0  0  0  0  0  0  0  0  0  0  # atno 8008 bound_to 7997
  155.0406  140.3168  155.4707 H   0  0  0  0  0  0  0  0  0  0  0  0  # atno 8009 bound_to 7997
  156.2821  140.2133  156.5530 H   0  0  0  0  0  0  0  0  0  0  0  0  # atno 8010 bound_to 7997
  140.0439  144.5366  150.7413 H   0  0  0  0  0  0  0  0  0  0  0  0  # atno 10167 bound_to 10162
  157.5567  131.1091  150.8609 H   0  0  0  0  0  0  0  0  0  0  0  0  # atno 10718 bound_to 10713
  154.6494  135.5361  153.7883 H   0  0  0  0  0  0  0  0  0  0  0  0  # atno 10763 bound_to 10752
  153.0377  135.6478  154.1040 H   0  0  0  0  0  0  0  0  0  0  0  0  # atno 10764 bound_to 10752
  154.0958  135.2937  155.3242 H   0  0  0  0  0  0  0  0  0  0  0  0  # atno 10765 bound_to 10752
  139.8965  134.9558  156.6809 H   0  0  0  0  0  0  0  0  0  0  0  0  # atno 11005 bound_to 11000
  146.3530  140.0574  142.8631 LP  0  0  0  0  0  0  0  0  0  0  0  0  # atno 17320 bound_to 7965
  145.1199  140.9456  143.4606 LP  0  0  0  0  0  0  0  0  0  0  0  0  # atno 17321 bound_to 7965
  140.7247  143.2624  151.4159 LP  0  0  0  0  0  0  0  0  0  0  0  0  # atno 17342 bound_to 10162
  139.5996  144.1324  152.2183 LP  0  0  0  0  0  0  0  0  0  0  0  0  # atno 17343 bound_to 10162
  156.9119  130.5283  149.5280 LP  0  0  0  0  0  0  0  0  0  0  0  0  # atno 17370 bound_to 10713
  156.0625  130.5675  150.9222 LP  0  0  0  0  0  0  0  0  0  0  0  0  # atno 17371 bound_to 10713
  140.7300  133.9067  155.8205 LP  0  0  0  0  0  0  0  0  0  0  0  0  # atno 17394 bound_to 11000
  141.0161  134.0954  157.4171 LP  0  0  0  0  0  0  0  0  0  0  0  0  # atno 17395 bound_to 11000

$$$$
