AV-unprocessed.smi:1406|AV-procd|sdf|5718|dock8
  -GOLD-   22720 5353D 1   1.00000     0.00000
 Structure written by MMmdl.
 41 43  0  0  0  0  0  0  0  0  2 V2000
  148.1842  139.4422  154.0768 C   0  0  0  0  0  0  0  0  0  0  0  0
  149.4975  140.1502  154.4670 C   0  0  1  0  0  0  0  0  0  0  0  0
  149.3858  140.9296  155.7869 C   0  0  0  0  0  0  0  0  0  0  0  0
  148.2954  141.0878  156.3370 O   0  0  0  0  0  0  0  0  0  0  0  0
  150.5333  141.4112  156.2899 N   0  0  0  0  0  0  0  0  0  0  0  0
  150.6548  142.1390  157.5501 C   0  0  2  0  0  0  0  0  0  0  0  0
  151.2953  143.5366  157.4130 C   0  0  0  0  0  0  0  0  0  0  0  0
  152.2467  143.6478  158.6087 C   0  0  0  0  0  0  0  0  0  0  0  0
  152.6979  142.2644  158.7986 N   0  3  1  0  0  0  0  0  0  0  0  0
  153.4458  141.9268  160.0268 C   0  0  0  0  0  0  0  0  0  0  0  0
  153.9540  140.4737  159.9045 C   0  0  0  0  0  0  0  0  0  0  0  0
  152.8200  139.4827  159.5537 C   0  0  0  0  0  0  0  0  0  0  0  0
  151.9974  139.9591  158.3365 C   0  0  0  0  0  0  0  0  0  0  0  0
  151.5230  141.4006  158.5918 C   0  0  2  0  0  0  0  0  0  0  0  0
  150.6249  139.2277  154.5235 N   0  0  0  0  0  0  0  0  0  0  0  0
  150.6736  137.9162  154.2792 C   0  0  0  0  0  0  0  0  0  0  0  0
  151.8884  137.3948  154.3750 N   0  0  0  0  0  0  0  0  0  0  0  0
  152.5945  138.5193  154.6964 C   0  0  0  0  0  0  0  0  0  0  0  0
  151.8883  139.6459  154.7866 N   0  0  0  0  0  0  0  0  0  0  0  0
  147.3629  140.1549  153.9929 H   0  0  0  0  0  0  0  0  0  0  0  0
  147.8921  138.6865  154.8071 H   0  0  0  0  0  0  0  0  0  0  0  0
  148.2835  138.9458  153.1112 H   0  0  0  0  0  0  0  0  0  0  0  0
  149.7168  140.8755  153.6816 H   0  0  0  0  0  0  0  0  0  0  0  0
  151.3850  141.2371  155.7763 H   0  0  0  0  0  0  0  0  0  0  0  0
  149.6523  142.2472  157.9693 H   0  0  0  0  0  0  0  0  0  0  0  0
  151.8720  143.5999  156.4886 H   0  0  0  0  0  0  0  0  0  0  0  0
  150.5549  144.3370  157.3936 H   0  0  0  0  0  0  0  0  0  0  0  0
  153.0788  144.3277  158.4241 H   0  0  0  0  0  0  0  0  0  0  0  0
  151.7103  143.9867  159.4965 H   0  0  0  0  0  0  0  0  0  0  0  0
  154.2864  142.6110  160.1467 H   0  0  0  0  0  0  0  0  0  0  0  0
  152.8051  142.0434  160.9023 H   0  0  0  0  0  0  0  0  0  0  0  0
  154.7177  140.4281  159.1270 H   0  0  0  0  0  0  0  0  0  0  0  0
  154.4433  140.1700  160.8305 H   0  0  0  0  0  0  0  0  0  0  0  0
  153.2339  138.4923  159.3616 H   0  0  0  0  0  0  0  0  0  0  0  0
  152.1590  139.3762  160.4150 H   0  0  0  0  0  0  0  0  0  0  0  0
  152.6080  139.9115  157.4337 H   0  0  0  0  0  0  0  0  0  0  0  0
  151.1444  139.2975  158.1805 H   0  0  0  0  0  0  0  0  0  0  0  0
  150.9503  141.4026  159.5219 H   0  0  0  0  0  0  0  0  0  0  0  0
  149.8038  137.3311  154.0193 H   0  0  0  0  0  0  0  0  0  0  0  0
  153.6620  138.5089  154.8610 H   0  0  0  0  0  0  0  0  0  0  0  0
  153.3202  142.0786  158.0249 H   0  0  0  0  0  0  0  0  0  0  0  0
  1  2  1  0  0  0  0
  1 20  1  0  0  0  0
  1 21  1  0  0  0  0
  1 22  1  0  0  0  0
  2  3  1  0  0  0  0
  2 15  1  0  0  0  0
  2 23  1  0  0  0  0
  3  4  2  0  0  0  0
  3  5  1  0  0  0  0
  5  6  1  0  0  0  0
  5 24  1  0  0  0  0
  6 14  1  0  0  0  0
  6  7  1  0  0  0  0
  6 25  1  0  0  0  0
  7  8  1  0  0  0  0
  7 26  1  0  0  0  0
  7 27  1  0  0  0  0
  8  9  1  0  0  0  0
  8 28  1  0  0  0  0
  8 29  1  0  0  0  0
  9 14  1  0  0  0  0
  9 10  1  0  0  0  0
  9 41  1  0  0  0  0
 10 11  1  0  0  0  0
 10 30  1  0  0  0  0
 10 31  1  0  0  0  0
 11 12  1  0  0  0  0
 11 32  1  0  0  0  0
 11 33  1  0  0  0  0
 12 13  1  0  0  0  0
 12 34  1  0  0  0  0
 12 35  1  0  0  0  0
 13 14  1  0  0  0  0
 13 36  1  0  0  0  0
 13 37  1  0  0  0  0
 14 38  1  0  0  0  0
 15 19  1  0  0  0  0
 15 16  1  0  0  0  0
 16 17  2  0  0  0  0
 16 39  1  0  0  0  0
 17 18  1  0  0  0  0
 18 19  2  0  0  0  0
 18 40  1  0  0  0  0
M  CHG  1   9   1
M  END
> <s_m_source_file>
AV-unprocessed.smi

> <i_m_source_file_index>
1406

> <i_lp_mmshare_version>
43012

> <i_f3d_flags>
0

> <s_epik_input>
bjFbY0hdbltjSF1uMVtDQEhdKFtDSDNdKUMoPU8pW05IXVtDQEhdKFtDSDJdW0NIMl0yKVtDQEBIXShOMjMpW0NIMl1bQ0gyXVtDSDJdW0NIMl0z

> <s_epik_cmdline>
J2VwaWtfcHl0aG9uJywgJy1waCcsICc3LjAnLCAnLXRuJywgJzgnLCAnLW1hJywgJzIwMCcsICctbWV0YWxfYmluZGluZycsICctaW1hZScsICc8aW5maWxlLm1hZT4nLCAnLW9tYWUnLCAnPG91dGZpbGUubWFlPic=

> <r_lp_tautomer_probability>
1

> <r_epik_Ionization_Penalty>
0.00197066

> <r_epik_Ionization_Penalty_Charging>
0.00196223

> <r_epik_Ionization_Penalty_Neutral>
8.43107e-06

> <r_epik_State_Penalty>
0.00133866

> <r_epik_Charging_Adjusted_Penalty>
0.00330089

> <i_epik_Tot_Q>
1

> <i_epik_Tot_abs_Q>
1

> <r_epik_Metal_State_Penalty>
-0

> <b_epik_Metal_Only>
0

> <s_lp_Force_Field>
OPLS_2005

> <r_lp_Energy>
46.7011

> <b_lp_Chiralities_Consistent>
1

> <s_lp_Variant>
AV-unprocessed.smi:1406-10

> <Gold.Version>
5.8.1

> <Gold.Id.Protein>
6NUR|6NUR_protein|mol2

> <Gold.PLP.Fitness>
45.6345

> <Gold.PLP.PLP>
-39.2084

> <Gold.PLP.part.hbond>
-2.0000

> <Gold.PLP.part.metal>
0.0000

> <Gold.PLP.part.buried>
-5.2412

> <Gold.PLP.part.nonpolar>
-33.9994

> <Gold.PLP.part.repulsive>
0.4362

> <Gold.PLP.ligand.clash>
0.0000

> <Gold.PLP.ligand.torsion>
0.3196

> <Gold.PLP.Chemscore.Hbond>
1.3344

> <Gold.PLP.Chemscore.CHOScore>
0.9875

> <Gold.PLP.Chemscore.Metal>
0.0000

> <Gold.Chemscore.Hbonds>
donor molecule, donor type, donor heavy atom, donor atom, acceptor molecule, acceptor atom, score
      P1  H  7989  7998       L1    19  0.34
      P1  H 10752 10763       L1    17  0.94
      L1  C    16    39       P1  7948  0.99

> <Gold.PLP.Chemscore.Internal.Correction>
0.0996

> <Gold.Rescore>
     Score         DG    S(hbond)    S(metal)    S(lipo)     H(rot)  DE(clash)    DE(int)     intcor
     13.25     -15.17       1.81        0.00      72.30       1.89       0.01       1.91       ----

> <Gold.Chemscore.Fitness>
13.2461

> <Gold.Chemscore.DG>
-15.1685

> <Gold.Chemscore.ZeroCoef>
-5.4800

> <Gold.Chemscore.Hbond>
1.8139

> <Gold.Chemscore.Metal>
0.0000

> <Gold.Chemscore.Lipo>
72.3035

> <Gold.Chemscore.Internal_Hbond>
0.0000

> <Gold.Chemscore.DEClash>
0.0077

> <Gold.Chemscore.DEInternal>
1.9148

> <Gold.Chemscore.Rot>
1.8865

> <Gold.Chemscore.Internal.Correction>
   9.000000E+99

> <Gold.Chemscore.Hbonds>
donor molecule, donor type, donor heavy atom, donor atom, acceptor molecule, acceptor atom, score
      P1  H  7989  7998       L1    19  0.01
      P1  H 10752 10763       L1    17  0.78

> <Gold.Chemscore.Hbond.Weighted>
-6.0585

> <Gold.Chemscore.Metal.Weighted>
-0.0000

> <Gold.Chemscore.Lipo.Weighted>
-8.4595

> <Gold.Chemscore.Internal_Hbond.Weighted>
0.0000

> <Gold.Chemscore.DEClash.Weighted>
0.0077

> <Gold.Chemscore.DEInternal.Weighted>
1.9148

> <Gold.Chemscore.Rot.Weighted>
4.8295

> <Gold.Chemscore.Internal.Correction.Weighted>
   9.000000E+99

> <Gold.Protein.RotatedTorsions>
[ 6907 6896 6895 6894 ] final   70.88 input  -60.11 | X-H torsion
[ 7974 7965 7964 7962 ] final  128.62 input  175.53 | X-H torsion
[ 8008 7997 7996 7995 ] final   32.15 input   59.86 | X-H torsion
[ 10167 10162 10161 10158 ] final -114.14 input  -65.29 | X-H torsion
[ 10718 10713 10712 10709 ] final -122.82 input   66.30 | X-H torsion
[ 10763 10752 10751 10750 ] final   33.85 input  -60.55 | X-H torsion
[ 11005 11000 10999 10996 ] final  -37.99 input  -57.11 | X-H torsion

> <Gold.Protein.ActiveResidues>
 VAL166  LYS551  ARG553  GLY616  TRP617  ASP618  TYR619  PRO620  LYS621  CYS622 
 ASP623  PHE694  ASN695  SER759  ASP760  ASP761  ALA762  ILE779  LEU786  VAL792 
 PHE793  MET794  SER795  GLU796  ALA797  LYS798  CYS799  TRP800  GLU811  SER814 

> <Gold.Protein.RotatedAtoms>
  152.4776  134.4802  159.9663 H   0  0  0  0  0  0  0  0  0  0  0  0  # atno 6907 bound_to 6896
  151.4815  133.3539  159.2847 H   0  0  0  0  0  0  0  0  0  0  0  0  # atno 6908 bound_to 6896
  150.8826  134.8246  159.7297 H   0  0  0  0  0  0  0  0  0  0  0  0  # atno 6909 bound_to 6896
  145.0375  139.3992  143.5118 H   0  0  0  0  0  0  0  0  0  0  0  0  # atno 7974 bound_to 7965
  155.1179  140.3245  155.4505 H   0  0  0  0  0  0  0  0  0  0  0  0  # atno 8008 bound_to 7997
  156.2671  140.2032  156.6249 H   0  0  0  0  0  0  0  0  0  0  0  0  # atno 8009 bound_to 7997
  154.6706  140.0537  157.0148 H   0  0  0  0  0  0  0  0  0  0  0  0  # atno 8010 bound_to 7997
  140.1042  143.4586  152.1793 H   0  0  0  0  0  0  0  0  0  0  0  0  # atno 10167 bound_to 10162
  156.1450  130.6493  150.9828 H   0  0  0  0  0  0  0  0  0  0  0  0  # atno 10718 bound_to 10713
  153.0192  135.6376  154.1576 H   0  0  0  0  0  0  0  0  0  0  0  0  # atno 10763 bound_to 10752
  154.1312  135.2840  155.3186 H   0  0  0  0  0  0  0  0  0  0  0  0  # atno 10764 bound_to 10752
  154.6193  135.5530  153.7619 H   0  0  0  0  0  0  0  0  0  0  0  0  # atno 10765 bound_to 10752
  140.9994  133.6963  156.1994 H   0  0  0  0  0  0  0  0  0  0  0  0  # atno 11005 bound_to 11000
  146.3506  139.9958  142.8681 LP  0  0  0  0  0  0  0  0  0  0  0  0  # atno 17320 bound_to 7965
  145.1690  140.9711  143.4332 LP  0  0  0  0  0  0  0  0  0  0  0  0  # atno 17321 bound_to 7965
  139.5655  144.7432  151.4036 LP  0  0  0  0  0  0  0  0  0  0  0  0  # atno 17342 bound_to 10162
  140.6961  143.7745  150.7329 LP  0  0  0  0  0  0  0  0  0  0  0  0  # atno 17343 bound_to 10162
  157.6609  131.0881  150.7841 LP  0  0  0  0  0  0  0  0  0  0  0  0  # atno 17370 bound_to 10713
  156.7913  130.4891  149.5384 LP  0  0  0  0  0  0  0  0  0  0  0  0  # atno 17371 bound_to 10713
  140.6913  134.4662  157.5588 LP  0  0  0  0  0  0  0  0  0  0  0  0  # atno 17394 bound_to 11000
  139.9031  134.8510  156.1814 LP  0  0  0  0  0  0  0  0  0  0  0  0  # atno 17395 bound_to 11000

$$$$
