AV-unprocessed.smi:1212|AV-procd|sdf|5083|dock9
  -GOLD-   22720 4133D 1   1.00000     0.00000
 Structure written by MMmdl.
 38 39  0  0  0  0  0  0  0  0  2 V2000
  143.8934  134.4021  162.9283 C   0  0  0  0  0  0  0  0  0  0  0  0
  145.1352  135.0520  162.4226 C   0  0  0  0  0  0  0  0  0  0  0  0
  146.3516  134.5430  162.6325 N   0  0  0  0  0  0  0  0  0  0  0  0
  147.3495  135.3229  162.0662 N   0  0  0  0  0  0  0  0  0  0  0  0
  146.8751  136.4035  161.4303 C   0  0  0  0  0  0  0  0  0  0  0  0
  147.6781  137.2889  160.8170 N   0  5  0  0  0  0  0  0  0  0  0  0
  148.1820  137.0092  159.5932 C   0  0  0  0  0  0  0  0  0  0  0  0
  147.7037  136.2272  158.7679 O   0  0  0  0  0  0  0  0  0  0  0  0
  149.3074  137.6791  159.3052 N   0  0  0  0  0  0  0  0  0  0  0  0
  150.0657  137.5771  158.0635 C   0  0  0  0  0  0  0  0  0  0  0  0
  151.2110  138.6050  158.0147 C   0  0  0  0  0  0  0  0  0  0  0  0
  151.0958  139.4782  156.8414 N   0  0  0  0  0  0  0  0  0  0  0  0
  151.8780  139.0758  155.6620 C   0  0  0  0  0  0  0  0  0  0  0  0
  151.0131  138.5540  154.4919 C   0  0  0  0  0  0  0  0  0  0  0  0
  149.6041  139.1665  154.3620 C   0  0  0  0  0  0  0  0  0  0  0  0
  149.5588  140.7092  154.3624 C   0  0  0  0  0  0  0  0  0  0  0  0
  150.2310  141.4229  155.5605 C   0  0  0  0  0  0  0  0  0  0  0  0
  150.3079  140.5812  156.8453 C   0  0  0  0  0  0  0  0  0  0  0  0
  149.6551  140.9374  157.8268 O   0  0  0  0  0  0  0  0  0  0  0  0
  145.1191  136.5488  161.5052 S   0  0  0  0  0  0  0  0  0  0  0  0
  143.8033  133.3966  162.5166 H   0  0  0  0  0  0  0  0  0  0  0  0
  143.0160  134.9791  162.6356 H   0  0  0  0  0  0  0  0  0  0  0  0
  143.9215  134.3363  164.0162 H   0  0  0  0  0  0  0  0  0  0  0  0
  149.6650  138.3093  160.0083 H   0  0  0  0  0  0  0  0  0  0  0  0
  150.4643  136.5648  157.9936 H   0  0  0  0  0  0  0  0  0  0  0  0
  149.3980  137.7057  157.2096 H   0  0  0  0  0  0  0  0  0  0  0  0
  151.2169  139.2073  158.9242 H   0  0  0  0  0  0  0  0  0  0  0  0
  152.1736  138.0907  158.0099 H   0  0  0  0  0  0  0  0  0  0  0  0
  152.4802  139.9205  155.3272 H   0  0  0  0  0  0  0  0  0  0  0  0
  152.6173  138.3180  155.9260 H   0  0  0  0  0  0  0  0  0  0  0  0
  151.5612  138.6944  153.5598 H   0  0  0  0  0  0  0  0  0  0  0  0
  150.8961  137.4754  154.6032 H   0  0  0  0  0  0  0  0  0  0  0  0
  149.1462  138.8006  153.4426 H   0  0  0  0  0  0  0  0  0  0  0  0
  148.9692  138.7853  155.1631 H   0  0  0  0  0  0  0  0  0  0  0  0
  150.0132  141.0760  153.4414 H   0  0  0  0  0  0  0  0  0  0  0  0
  148.5140  141.0177  154.3140 H   0  0  0  0  0  0  0  0  0  0  0  0
  151.2369  141.7430  155.2892 H   0  0  0  0  0  0  0  0  0  0  0  0
  149.6928  142.3478  155.7723 H   0  0  0  0  0  0  0  0  0  0  0  0
  1  2  1  0  0  0  0
  1 21  1  0  0  0  0
  1 22  1  0  0  0  0
  1 23  1  0  0  0  0
  2 20  1  0  0  0  0
  2  3  2  0  0  0  0
  3  4  1  0  0  0  0
  4  5  2  0  0  0  0
  5  6  1  0  0  0  0
  5 20  1  0  0  0  0
  6  7  1  0  0  0  0
  7  8  2  0  0  0  0
  7  9  1  0  0  0  0
  9 10  1  0  0  0  0
  9 24  1  0  0  0  0
 10 11  1  0  0  0  0
 10 25  1  0  0  0  0
 10 26  1  0  0  0  0
 11 12  1  0  0  0  0
 11 27  1  0  0  0  0
 11 28  1  0  0  0  0
 12 18  1  0  0  0  0
 12 13  1  0  0  0  0
 13 14  1  0  0  0  0
 13 29  1  0  0  0  0
 13 30  1  0  0  0  0
 14 15  1  0  0  0  0
 14 31  1  0  0  0  0
 14 32  1  0  0  0  0
 15 16  1  0  0  0  0
 15 33  1  0  0  0  0
 15 34  1  0  0  0  0
 16 17  1  0  0  0  0
 16 35  1  0  0  0  0
 16 36  1  0  0  0  0
 17 18  1  0  0  0  0
 17 37  1  0  0  0  0
 17 38  1  0  0  0  0
 18 19  2  0  0  0  0
M  CHG  1   6  -1
M  END
> <s_m_source_file>
AV-unprocessed.smi

> <i_m_source_file_index>
1212

> <i_lp_mmshare_version>
43012

> <i_f3d_flags>
0

> <s_epik_input>
W0NIM11jMW5uYyhzMSlbTkhdQyg9TylbTkhdW0NIMl1bQ0gyXU4yW0NIMl1bQ0gyXVtDSDJdW0NIMl1bQ0gyXUMyPU8=

> <s_epik_cmdline>
J2VwaWtfcHl0aG9uJywgJy1waCcsICc3LjAnLCAnLXRuJywgJzgnLCAnLW1hJywgJzIwMCcsICctbWV0YWxfYmluZGluZycsICctaW1hZScsICc8aW5maWxlLm1hZT4nLCAnLW9tYWUnLCAnPG91dGZpbGUubWFlPic=

> <r_lp_tautomer_probability>
1

> <r_epik_Ionization_Penalty>
3.37178

> <r_epik_Ionization_Penalty_Charging>
3.23409

> <r_epik_Ionization_Penalty_Neutral>
0.137695

> <r_epik_State_Penalty>
3.23156

> <r_epik_Charging_Adjusted_Penalty>
6.46564

> <i_epik_Tot_Q>
-1

> <i_epik_Tot_abs_Q>
1

> <r_epik_Metal_State_Penalty>
0.474775

> <b_epik_Metal_Only>
1

> <s_lp_Force_Field>
OPLS_2005

> <r_lp_Energy>
19.6793

> <b_lp_Chiralities_Consistent>
1

> <s_lp_Variant>
AV-unprocessed.smi:1212-2

> <Gold.Version>
5.8.1

> <Gold.Id.Protein>
6NUR|6NUR_protein|mol2

> <Gold.PLP.Fitness>
41.0198

> <Gold.PLP.PLP>
-33.6630

> <Gold.PLP.part.hbond>
-2.0000

> <Gold.PLP.part.metal>
0.0000

> <Gold.PLP.part.buried>
-5.7265

> <Gold.PLP.part.nonpolar>
-26.3229

> <Gold.PLP.part.repulsive>
0.3171

> <Gold.PLP.ligand.clash>
0.0000

> <Gold.PLP.ligand.torsion>
1.5776

> <Gold.PLP.Chemscore.Hbond>
3.4880

> <Gold.PLP.Chemscore.CHOScore>
0.0000

> <Gold.PLP.Chemscore.Metal>
0.0000

> <Gold.Chemscore.Hbonds>
donor molecule, donor type, donor heavy atom, donor atom, acceptor molecule, acceptor atom, score
      P1  H  6931  6943       L1     6  1.60
      P1  H  6934  6947       L1     6  1.82

> <Gold.PLP.Chemscore.Internal.Correction>
0.0481

> <Gold.Rescore>
     Score         DG    S(hbond)    S(metal)    S(lipo)     H(rot)  DE(clash)    DE(int)     intcor
     11.80     -13.32       1.30        0.00      65.48       1.63       0.09       1.43       ----

> <Gold.Chemscore.Fitness>
11.8046

> <Gold.Chemscore.DG>
-13.3245

> <Gold.Chemscore.ZeroCoef>
-5.4800

> <Gold.Chemscore.Hbond>
1.3009

> <Gold.Chemscore.Metal>
0.0000

> <Gold.Chemscore.Lipo>
65.4776

> <Gold.Chemscore.Internal_Hbond>
0.0000

> <Gold.Chemscore.DEClash>
0.0890

> <Gold.Chemscore.DEInternal>
1.4309

> <Gold.Chemscore.Rot>
1.6255

> <Gold.Chemscore.Internal.Correction>
   9.000000E+99

> <Gold.Chemscore.Hbonds>
donor molecule, donor type, donor heavy atom, donor atom, acceptor molecule, acceptor atom, score
      P1  H  6931  6943       L1     6  0.56
      P1  H  6934  6947       L1     6  0.65

> <Gold.Chemscore.Hbond.Weighted>
-4.3449

> <Gold.Chemscore.Metal.Weighted>
-0.0000

> <Gold.Chemscore.Lipo.Weighted>
-7.6609

> <Gold.Chemscore.Internal_Hbond.Weighted>
0.0000

> <Gold.Chemscore.DEClash.Weighted>
0.0890

> <Gold.Chemscore.DEInternal.Weighted>
1.4309

> <Gold.Chemscore.Rot.Weighted>
4.1613

> <Gold.Chemscore.Internal.Correction.Weighted>
   9.000000E+99

> <Gold.Protein.RotatedTorsions>
[ 6907 6896 6895 6894 ] final  -85.81 input  -60.11 | X-H torsion
[ 7974 7965 7964 7962 ] final   -1.19 input  175.53 | X-H torsion
[ 8008 7997 7996 7995 ] final  -74.22 input   59.86 | X-H torsion
[ 10167 10162 10161 10158 ] final   16.87 input  -65.29 | X-H torsion
[ 10718 10713 10712 10709 ] final   47.94 input   66.30 | X-H torsion
[ 10763 10752 10751 10750 ] final  -72.38 input  -60.55 | X-H torsion
[ 11005 11000 10999 10996 ] final  168.68 input  -57.11 | X-H torsion

> <Gold.Protein.ActiveResidues>
 VAL166  LYS551  ARG553  GLY616  TRP617  ASP618  TYR619  PRO620  LYS621  CYS622 
 ASP623  PHE694  ASN695  SER759  ASP760  ASP761  ALA762  ILE779  LEU786  VAL792 
 PHE793  MET794  SER795  GLU796  ALA797  LYS798  CYS799  TRP800  GLU811  SER814 

> <Gold.Protein.RotatedAtoms>
  150.6869  134.3148  159.4761 H   0  0  0  0  0  0  0  0  0  0  0  0  # atno 6907 bound_to 6896
  152.1030  134.9326  160.0578 H   0  0  0  0  0  0  0  0  0  0  0  0  # atno 6908 bound_to 6896
  152.0598  133.4022  159.4449 H   0  0  0  0  0  0  0  0  0  0  0  0  # atno 6909 bound_to 6896
  146.2419  140.1384  142.8336 H   0  0  0  0  0  0  0  0  0  0  0  0  # atno 7974 bound_to 7965
  154.5312  140.0765  156.8348 H   0  0  0  0  0  0  0  0  0  0  0  0  # atno 8008 bound_to 7997
  155.3371  140.3405  155.4221 H   0  0  0  0  0  0  0  0  0  0  0  0  # atno 8009 bound_to 7997
  156.1783  140.1643  156.8308 H   0  0  0  0  0  0  0  0  0  0  0  0  # atno 8010 bound_to 7997
  140.5766  143.9060  150.6755 H   0  0  0  0  0  0  0  0  0  0  0  0  # atno 10167 bound_to 10162
  157.4636  130.8211  149.7912 H   0  0  0  0  0  0  0  0  0  0  0  0  # atno 10718 bound_to 10713
  154.4449  135.5932  153.6153 H   0  0  0  0  0  0  0  0  0  0  0  0  # atno 10763 bound_to 10752
  152.9808  135.6007  154.3677 H   0  0  0  0  0  0  0  0  0  0  0  0  # atno 10764 bound_to 10752
  154.3531  135.2841  155.2340 H   0  0  0  0  0  0  0  0  0  0  0  0  # atno 10765 bound_to 10752
  140.2898  134.7683  157.3828 H   0  0  0  0  0  0  0  0  0  0  0  0  # atno 11005 bound_to 11000
  145.0267  140.8838  143.5134 LP  0  0  0  0  0  0  0  0  0  0  0  0  # atno 17320 bound_to 7965
  145.1441  139.2554  143.5475 LP  0  0  0  0  0  0  0  0  0  0  0  0  # atno 17321 bound_to 7965
  140.2549  143.3566  152.1373 LP  0  0  0  0  0  0  0  0  0  0  0  0  # atno 17342 bound_to 10162
  139.5146  144.6951  151.5654 LP  0  0  0  0  0  0  0  0  0  0  0  0  # atno 17343 bound_to 10162
  156.0040  130.3865  150.2500 LP  0  0  0  0  0  0  0  0  0  0  0  0  # atno 17370 bound_to 10713
  157.0679  131.0108  151.3200 LP  0  0  0  0  0  0  0  0  0  0  0  0  # atno 17371 bound_to 10713
  140.1206  134.5224  155.8187 LP  0  0  0  0  0  0  0  0  0  0  0  0  # atno 17394 bound_to 11000
  141.2148  133.6755  156.6859 LP  0  0  0  0  0  0  0  0  0  0  0  0  # atno 17395 bound_to 11000

$$$$
