AV-unprocessed.smi:2789|AV-procd|sdf|10763|dock5
  -GOLD-   2272015193D 1   1.00000     0.00000
 Structure written by MMmdl.
 35 36  0  0  0  0  0  0  0  0  1 V2000
  153.0798  141.3419  160.9108 C   0  0  0  0  0  0  0  0  0  0  0  0
  151.8447  141.9117  160.5054 O   0  0  0  0  0  0  0  0  0  0  0  0
  151.8961  143.3252  160.3512 C   0  0  1  0  0  0  0  0  0  0  0  0
  153.0061  143.7271  159.3821 C   0  0  0  0  0  0  0  0  0  0  0  0
  152.6387  145.1550  158.9854 C   0  0  0  0  0  0  0  0  0  0  0  0
  151.1059  145.1777  158.9417 C   0  0  0  0  0  0  0  0  0  0  0  0
  150.6209  143.9596  159.7584 C   0  0  1  0  0  0  0  0  0  0  0  0
  149.9054  143.0075  158.9101 N   0  0  0  0  0  0  0  0  0  0  0  0
  150.3178  142.5838  157.7077 C   0  0  0  0  0  0  0  0  0  0  0  0
  151.3763  142.9410  157.1903 O   0  0  0  0  0  0  0  0  0  0  0  0
  149.4278  141.7370  157.1621 N   0  0  0  0  0  0  0  0  0  0  0  0
  149.4867  141.0989  155.9631 C   0  0  0  0  0  0  0  0  0  0  0  0
  148.5850  141.1161  154.9340 C   0  0  0  0  0  0  0  0  0  0  0  0
  149.2037  140.2713  153.9685 C   0  0  0  0  0  0  0  0  0  0  0  0
  150.3721  139.7883  154.3724 N   0  0  0  0  0  0  0  0  0  0  0  0
  150.5520  140.2996  155.6100 N   0  0  0  0  0  0  0  0  0  0  0  0
  151.7483  139.9753  156.3626 C   0  0  0  0  0  0  0  0  0  0  0  0
  152.9665  140.2630  161.0144 H   0  0  0  0  0  0  0  0  0  0  0  0
  153.4094  141.7368  161.8722 H   0  0  0  0  0  0  0  0  0  0  0  0
  153.8601  141.5274  160.1719 H   0  0  0  0  0  0  0  0  0  0  0  0
  152.1157  143.7932  161.3132 H   0  0  0  0  0  0  0  0  0  0  0  0
  153.9994  143.6556  159.8260 H   0  0  0  0  0  0  0  0  0  0  0  0
  152.9842  143.0837  158.5013 H   0  0  0  0  0  0  0  0  0  0  0  0
  152.9926  145.8471  159.7506 H   0  0  0  0  0  0  0  0  0  0  0  0
  153.0890  145.4536  158.0384 H   0  0  0  0  0  0  0  0  0  0  0  0
  150.7215  146.1108  159.3553 H   0  0  0  0  0  0  0  0  0  0  0  0
  150.7620  145.1258  157.9074 H   0  0  0  0  0  0  0  0  0  0  0  0
  149.9645  144.2750  160.5715 H   0  0  0  0  0  0  0  0  0  0  0  0
  149.0217  142.6672  159.2604 H   0  0  0  0  0  0  0  0  0  0  0  0
  148.5983  141.5531  157.7071 H   0  0  0  0  0  0  0  0  0  0  0  0
  147.6419  141.6365  154.8622 H   0  0  0  0  0  0  0  0  0  0  0  0
  148.8412  139.9967  152.9891 H   0  0  0  0  0  0  0  0  0  0  0  0
  152.3280  140.8820  156.5362 H   0  0  0  0  0  0  0  0  0  0  0  0
  152.3645  139.2600  155.8163 H   0  0  0  0  0  0  0  0  0  0  0  0
  151.4704  139.5401  157.3228 H   0  0  0  0  0  0  0  0  0  0  0  0
  1  2  1  0  0  0  0
  1 18  1  0  0  0  0
  1 19  1  0  0  0  0
  1 20  1  0  0  0  0
  2  3  1  0  0  0  0
  3  7  1  0  0  0  0
  3  4  1  0  0  0  0
  3 21  1  0  0  0  0
  4  5  1  0  0  0  0
  4 22  1  0  0  0  0
  4 23  1  0  0  0  0
  5  6  1  0  0  0  0
  5 24  1  0  0  0  0
  5 25  1  0  0  0  0
  6  7  1  0  0  0  0
  6 26  1  0  0  0  0
  6 27  1  0  0  0  0
  7  8  1  0  0  0  0
  7 28  1  0  0  0  0
  8  9  1  0  0  0  0
  8 29  1  0  0  0  0
  9 10  2  0  0  0  0
  9 11  1  0  0  0  0
 11 12  1  0  0  0  0
 11 30  1  0  0  0  0
 12 16  1  0  0  0  0
 12 13  2  0  0  0  0
 13 14  1  0  0  0  0
 13 31  1  0  0  0  0
 14 15  2  0  0  0  0
 14 32  1  0  0  0  0
 15 16  1  0  0  0  0
 16 17  1  0  0  0  0
 17 33  1  0  0  0  0
 17 34  1  0  0  0  0
 17 35  1  0  0  0  0
M  END
> <s_m_source_file>
AV-unprocessed.smi

> <i_m_source_file_index>
2789

> <i_lp_mmshare_version>
43012

> <i_f3d_flags>
0

> <s_epik_input>
W0NIM11PW0NAQEhdMVtDSDJdW0NIMl1bQ0gyXVtDQEhdMVtOSF1DKD1PKVtOSF1jMltjSF1bY0hdbm4yW0NIM10=

> <s_epik_cmdline>
J2VwaWtfcHl0aG9uJywgJy1waCcsICc3LjAnLCAnLXRuJywgJzgnLCAnLW1hJywgJzIwMCcsICctbWV0YWxfYmluZGluZycsICctaW1hZScsICc8aW5maWxlLm1hZT4nLCAnLW9tYWUnLCAnPG91dGZpbGUubWFlPic=

> <r_lp_tautomer_probability>
1

> <r_epik_Ionization_Penalty>
4.40608e-05

> <r_epik_Ionization_Penalty_Charging>
0

> <r_epik_Ionization_Penalty_Neutral>
4.40608e-05

> <r_epik_State_Penalty>
-0

> <r_epik_Charging_Adjusted_Penalty>
0

> <i_epik_Tot_Q>
0

> <i_epik_Tot_abs_Q>
0

> <r_epik_Metal_State_Penalty>
-0

> <b_epik_Metal_Only>
0

> <s_lp_Force_Field>
OPLS_2005

> <r_lp_Energy>
22.0425

> <b_lp_Chiralities_Consistent>
1

> <s_lp_Variant>
AV-unprocessed.smi:2789-2

> <Gold.Version>
5.8.1

> <Gold.Id.Protein>
6NUR|6NUR_protein|mol2

> <Gold.PLP.Fitness>
36.7649

> <Gold.PLP.PLP>
-32.5424

> <Gold.PLP.part.hbond>
-1.3727

> <Gold.PLP.part.metal>
0.0000

> <Gold.PLP.part.buried>
-2.5715

> <Gold.PLP.part.nonpolar>
-28.2263

> <Gold.PLP.part.repulsive>
0.4415

> <Gold.PLP.ligand.clash>
0.0000

> <Gold.PLP.ligand.torsion>
0.6671

> <Gold.PLP.Chemscore.Hbond>
0.8500

> <Gold.PLP.Chemscore.CHOScore>
1.0000

> <Gold.PLP.Chemscore.Metal>
0.0000

> <Gold.Chemscore.Hbonds>
donor molecule, donor type, donor heavy atom, donor atom, acceptor molecule, acceptor atom, score
      P1  H  7989  7998       L1    15  0.85
      L1  C    14    32       P1  7957  0.88

> <Gold.PLP.Chemscore.Internal.Correction>
0.0067

> <Gold.Rescore>
     Score         DG    S(hbond)    S(metal)    S(lipo)     H(rot)  DE(clash)    DE(int)     intcor
      9.07     -12.65       0.03        0.00      88.30       1.27       0.24       3.34       ----

> <Gold.Chemscore.Fitness>
9.0728

> <Gold.Chemscore.DG>
-12.6526

> <Gold.Chemscore.ZeroCoef>
-5.4800

> <Gold.Chemscore.Hbond>
0.0287

> <Gold.Chemscore.Metal>
0.0000

> <Gold.Chemscore.Lipo>
88.2988

> <Gold.Chemscore.Internal_Hbond>
0.0000

> <Gold.Chemscore.DEClash>
0.2362

> <Gold.Chemscore.DEInternal>
3.3436

> <Gold.Chemscore.Rot>
1.2712

> <Gold.Chemscore.Internal.Correction>
   9.000000E+99

> <Gold.Chemscore.Hbonds>
donor molecule, donor type, donor heavy atom, donor atom, acceptor molecule, acceptor atom, score
      P1  H  7989  7998       L1    15  0.06

> <Gold.Chemscore.Hbond.Weighted>
-0.0960

> <Gold.Chemscore.Metal.Weighted>
-0.0000

> <Gold.Chemscore.Lipo.Weighted>
-10.3310

> <Gold.Chemscore.Internal_Hbond.Weighted>
0.0000

> <Gold.Chemscore.DEClash.Weighted>
0.2362

> <Gold.Chemscore.DEInternal.Weighted>
3.3436

> <Gold.Chemscore.Rot.Weighted>
3.2544

> <Gold.Chemscore.Internal.Correction.Weighted>
   9.000000E+99

> <Gold.Protein.RotatedTorsions>
[ 6907 6896 6895 6894 ] final  -28.91 input  -60.11 | X-H torsion
[ 7974 7965 7964 7962 ] final -173.45 input  175.53 | X-H torsion
[ 8008 7997 7996 7995 ] final -137.43 input   59.86 | X-H torsion
[ 10167 10162 10161 10158 ] final  -55.33 input  -65.29 | X-H torsion
[ 10718 10713 10712 10709 ] final -147.28 input   66.30 | X-H torsion
[ 10763 10752 10751 10750 ] final   25.55 input  -60.55 | X-H torsion
[ 11005 11000 10999 10996 ] final -114.49 input  -57.11 | X-H torsion

> <Gold.Protein.ActiveResidues>
 VAL166  LYS551  ARG553  GLY616  TRP617  ASP618  TYR619  PRO620  LYS621  CYS622 
 ASP623  PHE694  ASN695  SER759  ASP760  ASP761  ALA762  ILE779  LEU786  VAL792 
 PHE793  MET794  SER795  GLU796  ALA797  LYS798  CYS799  TRP800  GLU811  SER814 

> <Gold.Protein.RotatedAtoms>
  151.1264  135.0107  159.8562 H   0  0  0  0  0  0  0  0  0  0  0  0  # atno 6907 bound_to 6896
  152.5449  134.1662  159.8588 H   0  0  0  0  0  0  0  0  0  0  0  0  # atno 6908 bound_to 6896
  151.1724  133.4731  159.2627 H   0  0  0  0  0  0  0  0  0  0  0  0  # atno 6909 bound_to 6896
  144.7138  140.1621  143.6375 H   0  0  0  0  0  0  0  0  0  0  0  0  # atno 7974 bound_to 7965
  155.4116  140.0512  157.3031 H   0  0  0  0  0  0  0  0  0  0  0  0  # atno 8008 bound_to 7997
  154.4943  140.2132  155.9439 H   0  0  0  0  0  0  0  0  0  0  0  0  # atno 8009 bound_to 7997
  156.1385  140.3159  155.8463 H   0  0  0  0  0  0  0  0  0  0  0  0  # atno 8010 bound_to 7997
  140.6381  143.2492  151.5065 H   0  0  0  0  0  0  0  0  0  0  0  0  # atno 10167 bound_to 10162
  156.4055  130.7955  151.2169 H   0  0  0  0  0  0  0  0  0  0  0  0  # atno 10718 bound_to 10713
  153.0684  135.6580  154.0303 H   0  0  0  0  0  0  0  0  0  0  0  0  # atno 10763 bound_to 10752
  153.9954  135.2942  155.3409 H   0  0  0  0  0  0  0  0  0  0  0  0  # atno 10764 bound_to 10752
  154.7050  135.5229  153.8651 H   0  0  0  0  0  0  0  0  0  0  0  0  # atno 10765 bound_to 10752
  141.0549  133.9629  157.2772 H   0  0  0  0  0  0  0  0  0  0  0  0  # atno 11005 bound_to 11000
  145.9021  139.2436  143.1487 LP  0  0  0  0  0  0  0  0  0  0  0  0  # atno 17320 bound_to 7965
  145.9800  140.8690  143.0119 LP  0  0  0  0  0  0  0  0  0  0  0  0  # atno 17321 bound_to 7965
  139.5590  144.2203  152.1660 LP  0  0  0  0  0  0  0  0  0  0  0  0  # atno 17342 bound_to 10162
  140.1465  144.5154  150.6712 LP  0  0  0  0  0  0  0  0  0  0  0  0  # atno 17343 bound_to 10162
  157.7505  131.0274  150.4002 LP  0  0  0  0  0  0  0  0  0  0  0  0  # atno 17370 bound_to 10713
  156.4290  130.3968  149.6773 LP  0  0  0  0  0  0  0  0  0  0  0  0  # atno 17371 bound_to 10713
  139.9381  135.0194  156.8621 LP  0  0  0  0  0  0  0  0  0  0  0  0  # atno 17394 bound_to 11000
  140.5984  134.0195  155.7527 LP  0  0  0  0  0  0  0  0  0  0  0  0  # atno 17395 bound_to 11000

$$$$
