AV-unprocessed.smi:2892|AV-procd|sdf|11121|dock7
  -GOLD-   2272015593D 1   1.00000     0.00000
 Structure written by MMmdl.
 42 42  0  0  0  0  0  0  0  0  2 V2000
  150.3761  139.0769  154.0195 C   0  0  0  0  0  0  0  0  0  0  0  0
  151.0633  137.7763  154.4608 C   0  0  0  0  0  0  0  0  0  0  0  0
  150.3701  137.0520  155.6455 C   0  0  1  0  0  0  0  0  0  0  0  0
  150.6460  135.5318  155.5810 C   0  0  0  0  0  0  0  0  0  0  0  0
  150.7899  137.6659  157.0171 C   0  0  1  0  0  0  0  0  0  0  0  0
  150.4910  139.0970  157.0188 N   0  0  0  0  0  0  0  0  0  0  0  0
  151.3876  140.0967  157.0278 C   0  0  0  0  0  0  0  0  0  0  0  0
  152.6049  139.9212  157.0750 O   0  0  0  0  0  0  0  0  0  0  0  0
  150.8219  141.5183  156.9683 C   0  0  0  0  0  0  0  0  0  0  0  0
  151.5073  142.4044  157.9766 C   0  0  0  0  0  0  0  0  0  0  0  0
  151.5506  143.8277  158.0074 C   0  0  0  0  0  0  0  0  0  0  0  0
  152.3229  144.1110  159.0968 C   0  0  0  0  0  0  0  0  0  0  0  0
  152.6922  142.9100  159.6643 N   0  0  0  0  0  0  0  0  0  0  0  0
  153.5330  142.6864  160.8308 C   0  0  0  0  0  0  0  0  0  0  0  0
  153.9211  141.2041  160.9528 C   0  0  0  0  0  0  0  0  0  0  0  0
  152.8660  143.2139  162.1118 C   0  0  0  0  0  0  0  0  0  0  0  0
  152.1855  141.8620  158.9780 N   0  0  0  0  0  0  0  0  0  0  0  0
  150.0158  137.0341  158.1870 C   0  0  0  0  0  0  0  0  0  0  0  0
  148.7679  137.0987  158.1437 O   0  0  0  0  0  0  0  0  0  0  0  0
  150.6806  136.5000  159.1035 O   0  5  0  0  0  0  0  0  0  0  0  0
  150.9655  139.5797  153.2530 H   0  0  0  0  0  0  0  0  0  0  0  0
  150.2649  139.7671  154.8558 H   0  0  0  0  0  0  0  0  0  0  0  0
  149.3895  138.8949  153.5955 H   0  0  0  0  0  0  0  0  0  0  0  0
  151.1443  137.0983  153.6103 H   0  0  0  0  0  0  0  0  0  0  0  0
  152.0871  138.0407  154.7248 H   0  0  0  0  0  0  0  0  0  0  0  0
  149.2942  137.1943  155.5294 H   0  0  0  0  0  0  0  0  0  0  0  0
  151.7093  135.3200  155.6958 H   0  0  0  0  0  0  0  0  0  0  0  0
  150.3218  135.1002  154.6353 H   0  0  0  0  0  0  0  0  0  0  0  0
  150.1146  134.9827  156.3580 H   0  0  0  0  0  0  0  0  0  0  0  0
  151.8577  137.4946  157.1674 H   0  0  0  0  0  0  0  0  0  0  0  0
  149.5124  139.3445  157.0044 H   0  0  0  0  0  0  0  0  0  0  0  0
  150.9593  141.9089  155.9595 H   0  0  0  0  0  0  0  0  0  0  0  0
  149.7464  141.4925  157.1492 H   0  0  0  0  0  0  0  0  0  0  0  0
  151.0959  144.5306  157.3253 H   0  0  0  0  0  0  0  0  0  0  0  0
  152.6397  145.0583  159.5078 H   0  0  0  0  0  0  0  0  0  0  0  0
  154.4502  143.2570  160.6779 H   0  0  0  0  0  0  0  0  0  0  0  0
  154.6040  141.0452  161.7876 H   0  0  0  0  0  0  0  0  0  0  0  0
  154.4196  140.8555  160.0481 H   0  0  0  0  0  0  0  0  0  0  0  0
  153.0469  140.5725  161.1150 H   0  0  0  0  0  0  0  0  0  0  0  0
  153.5344  143.1169  162.9677 H   0  0  0  0  0  0  0  0  0  0  0  0
  151.9517  142.6669  162.3442 H   0  0  0  0  0  0  0  0  0  0  0  0
  152.6086  144.2689  162.0130 H   0  0  0  0  0  0  0  0  0  0  0  0
  1  2  1  0  0  0  0
  1 21  1  0  0  0  0
  1 22  1  0  0  0  0
  1 23  1  0  0  0  0
  2  3  1  0  0  0  0
  2 24  1  0  0  0  0
  2 25  1  0  0  0  0
  3  4  1  0  0  0  0
  3  5  1  0  0  0  0
  3 26  1  0  0  0  0
  4 27  1  0  0  0  0
  4 28  1  0  0  0  0
  4 29  1  0  0  0  0
  5  6  1  0  0  0  0
  5 18  1  0  0  0  0
  5 30  1  0  0  0  0
  6  7  1  0  0  0  0
  6 31  1  0  0  0  0
  7  8  2  0  0  0  0
  7  9  1  0  0  0  0
  9 10  1  0  0  0  0
  9 32  1  0  0  0  0
  9 33  1  0  0  0  0
 10 17  2  0  0  0  0
 10 11  1  0  0  0  0
 11 12  2  0  0  0  0
 11 34  1  0  0  0  0
 12 13  1  0  0  0  0
 12 35  1  0  0  0  0
 13 14  1  0  0  0  0
 13 17  1  0  0  0  0
 14 15  1  0  0  0  0
 14 16  1  0  0  0  0
 14 36  1  0  0  0  0
 15 37  1  0  0  0  0
 15 38  1  0  0  0  0
 15 39  1  0  0  0  0
 16 40  1  0  0  0  0
 16 41  1  0  0  0  0
 16 42  1  0  0  0  0
 18 19  2  0  0  0  0
 18 20  1  0  0  0  0
M  CHG  1  20  -1
M  END
> <s_m_source_file>
AV-unprocessed.smi

> <i_m_source_file_index>
2892

> <i_lp_mmshare_version>
43012

> <i_f3d_flags>
0

> <s_epik_input>
W0NIM11bQ0gyXVtDQEhdKFtDSDNdKVtDQEBIXShDKD1PKVtPSF0pW05IXUMoPU8pW0NIMl1jMVtjSF1bY0hdbihuMSlbQ0hdKFtDSDNdKVtDSDNd

> <s_epik_cmdline>
J2VwaWtfcHl0aG9uJywgJy1waCcsICc3LjAnLCAnLXRuJywgJzgnLCAnLW1hJywgJzIwMCcsICctbWV0YWxfYmluZGluZycsICctaW1hZScsICc8aW5maWxlLm1hZT4nLCAnLW9tYWUnLCAnPG91dGZpbGUubWFlPic=

> <r_lp_tautomer_probability>
1

> <r_epik_Ionization_Penalty>
0.000286846

> <r_epik_Ionization_Penalty_Charging>
0.000224481

> <r_epik_Ionization_Penalty_Neutral>
6.23655e-05

> <r_epik_State_Penalty>
-0

> <r_epik_Charging_Adjusted_Penalty>
0.000224481

> <i_epik_Tot_Q>
-1

> <i_epik_Tot_abs_Q>
1

> <r_epik_Metal_State_Penalty>
-0

> <b_epik_Metal_Only>
0

> <s_lp_Force_Field>
OPLS_2005

> <r_lp_Energy>
13.265

> <b_lp_Chiralities_Consistent>
1

> <s_lp_Variant>
AV-unprocessed.smi:2892-4

> <Gold.Version>
5.8.1

> <Gold.Id.Protein>
6NUR|6NUR_protein|mol2

> <Gold.PLP.Fitness>
48.7146

> <Gold.PLP.PLP>
-41.4182

> <Gold.PLP.part.hbond>
-2.0000

> <Gold.PLP.part.metal>
0.0000

> <Gold.PLP.part.buried>
-5.0100

> <Gold.PLP.part.nonpolar>
-33.5910

> <Gold.PLP.part.repulsive>
0.0003

> <Gold.PLP.ligand.clash>
0.0000

> <Gold.PLP.ligand.torsion>
0.9209

> <Gold.PLP.Chemscore.Hbond>
3.0000

> <Gold.PLP.Chemscore.CHOScore>
0.0000

> <Gold.PLP.Chemscore.Metal>
0.0000

> <Gold.Chemscore.Hbonds>
donor molecule, donor type, donor heavy atom, donor atom, acceptor molecule, acceptor atom, score
      P1  H  6896  6908       L1    20  1.73
      P1  H  7997  8009       L1     8  1.00

> <Gold.PLP.Chemscore.Internal.Correction>
0.1383

> <Gold.Rescore>
     Score         DG    S(hbond)    S(metal)    S(lipo)     H(rot)  DE(clash)    DE(int)     intcor
     15.68     -18.06       2.00        0.00     102.72       2.39       0.04       2.34       ----

> <Gold.Chemscore.Fitness>
15.6755

> <Gold.Chemscore.DG>
-18.0557

> <Gold.Chemscore.ZeroCoef>
-5.4800

> <Gold.Chemscore.Hbond>
1.9961

> <Gold.Chemscore.Metal>
0.0000

> <Gold.Chemscore.Lipo>
102.7189

> <Gold.Chemscore.Internal_Hbond>
0.0000

> <Gold.Chemscore.DEClash>
0.0383

> <Gold.Chemscore.DEInternal>
2.3419

> <Gold.Chemscore.Rot>
2.3865

> <Gold.Chemscore.Internal.Correction>
   9.000000E+99

> <Gold.Chemscore.Hbonds>
donor molecule, donor type, donor heavy atom, donor atom, acceptor molecule, acceptor atom, score
      P1  H  6896  6908       L1    20  0.85
      P1  H  7997  8009       L1     8  1.00

> <Gold.Chemscore.Hbond.Weighted>
-6.6669

> <Gold.Chemscore.Metal.Weighted>
-0.0000

> <Gold.Chemscore.Lipo.Weighted>
-12.0181

> <Gold.Chemscore.Internal_Hbond.Weighted>
0.0000

> <Gold.Chemscore.DEClash.Weighted>
0.0383

> <Gold.Chemscore.DEInternal.Weighted>
2.3419

> <Gold.Chemscore.Rot.Weighted>
6.1093

> <Gold.Chemscore.Internal.Correction.Weighted>
   9.000000E+99

> <Gold.Protein.RotatedTorsions>
[ 6907 6896 6895 6894 ] final -171.96 input  -60.11 | X-H torsion
[ 7974 7965 7964 7962 ] final   69.62 input  175.53 | X-H torsion
[ 8008 7997 7996 7995 ] final -174.97 input   59.86 | X-H torsion
[ 10167 10162 10161 10158 ] final   19.08 input  -65.29 | X-H torsion
[ 10718 10713 10712 10709 ] final  143.54 input   66.30 | X-H torsion
[ 10763 10752 10751 10750 ] final   76.28 input  -60.55 | X-H torsion
[ 11005 11000 10999 10996 ] final  -87.49 input  -57.11 | X-H torsion

> <Gold.Protein.ActiveResidues>
 VAL166  LYS551  ARG553  GLY616  TRP617  ASP618  TYR619  PRO620  LYS621  CYS622 
 ASP623  PHE694  ASN695  SER759  ASP760  ASP761  ALA762  ILE779  LEU786  VAL792 
 PHE793  MET794  SER795  GLU796  ALA797  LYS798  CYS799  TRP800  GLU811  SER814 

> <Gold.Protein.RotatedAtoms>
  151.5322  133.3447  159.2920 H   0  0  0  0  0  0  0  0  0  0  0  0  # atno 6907 bound_to 6896
  150.8586  134.7935  159.7076 H   0  0  0  0  0  0  0  0  0  0  0  0  # atno 6908 bound_to 6896
  152.4612  134.5187  159.9828 H   0  0  0  0  0  0  0  0  0  0  0  0  # atno 6909 bound_to 6896
  145.7882  139.2921  143.1226 H   0  0  0  0  0  0  0  0  0  0  0  0  # atno 7974 bound_to 7965
  155.9767  140.1173  157.0763 H   0  0  0  0  0  0  0  0  0  0  0  0  # atno 8008 bound_to 7997
  154.4171  140.1152  156.5448 H   0  0  0  0  0  0  0  0  0  0  0  0  # atno 8009 bound_to 7997
  155.6525  140.3473  155.4755 H   0  0  0  0  0  0  0  0  0  0  0  0  # atno 8010 bound_to 7997
  140.5606  143.9345  150.6640 H   0  0  0  0  0  0  0  0  0  0  0  0  # atno 10167 bound_to 10162
  157.3678  131.0974  151.0856 H   0  0  0  0  0  0  0  0  0  0  0  0  # atno 10718 bound_to 10713
  153.0714  135.4957  154.8312 H   0  0  0  0  0  0  0  0  0  0  0  0  # atno 10763 bound_to 10752
  154.7027  135.3005  154.9318 H   0  0  0  0  0  0  0  0  0  0  0  0  # atno 10764 bound_to 10752
  154.0037  135.6763  153.4813 H   0  0  0  0  0  0  0  0  0  0  0  0  # atno 10765 bound_to 10752
  141.1616  133.7514  156.9313 H   0  0  0  0  0  0  0  0  0  0  0  0  # atno 11005 bound_to 11000
  146.0004  140.8525  143.0021 LP  0  0  0  0  0  0  0  0  0  0  0  0  # atno 17320 bound_to 7965
  144.6786  140.2344  143.7351 LP  0  0  0  0  0  0  0  0  0  0  0  0  # atno 17321 bound_to 7965
  140.2794  143.3400  152.1165 LP  0  0  0  0  0  0  0  0  0  0  0  0  # atno 17342 bound_to 10162
  139.5068  144.6820  151.5983 LP  0  0  0  0  0  0  0  0  0  0  0  0  # atno 17343 bound_to 10162
  157.1972  130.6378  149.5725 LP  0  0  0  0  0  0  0  0  0  0  0  0  # atno 17370 bound_to 10713
  155.9749  130.4703  150.6424 LP  0  0  0  0  0  0  0  0  0  0  0  0  # atno 17371 bound_to 10713
  140.1384  134.9310  157.2433 LP  0  0  0  0  0  0  0  0  0  0  0  0  # atno 17394 bound_to 11000
  140.2867  134.3288  155.7327 LP  0  0  0  0  0  0  0  0  0  0  0  0  # atno 17395 bound_to 11000

$$$$
