AV-unprocessed.smi:37|AV-procd|sdf|309|dock8
  -GOLD-   2262016123D 1   1.00000     0.00000
 Structure written by MMmdl.
 44 45  0  0  0  0  0  0  0  0  1 V2000
  147.1119  135.4145  162.9617 C   0  0  0  0  0  0  0  0  0  0  0  0
  146.7979  135.5240  161.4637 C   0  0  0  0  0  0  0  0  0  0  0  0
  147.9185  136.2112  160.6869 C   0  0  0  0  0  0  0  0  0  0  0  0
  148.7112  136.9709  161.2441 O   0  0  0  0  0  0  0  0  0  0  0  0
  147.9093  135.8966  159.3800 O   0  0  0  0  0  0  0  0  0  0  0  0
  149.0131  136.2354  158.5542 C   0  0  0  0  0  0  0  0  0  0  0  0
  149.2218  137.7550  158.5911 C   0  0  2  0  0  0  0  0  0  0  0  0
  148.3344  138.3464  157.6434 O   0  0  0  0  0  0  0  0  0  0  0  0
  149.0561  139.1276  156.7451 C   0  0  2  0  0  0  0  0  0  0  0  0
  148.3786  139.1495  155.3905 N   0  0  0  0  0  0  0  0  0  0  0  0
  147.2565  138.3599  155.1830 C   0  0  0  0  0  0  0  0  0  0  0  0
  146.5985  138.3032  154.0011 C   0  0  0  0  0  0  0  0  0  0  0  0
  145.5128  137.5203  153.8833 F   0  0  0  0  0  0  0  0  0  0  0  0
  147.0571  139.0833  152.8562 C   0  0  0  0  0  0  0  0  0  0  0  0
  146.5279  139.1005  151.7468 O   0  0  0  0  0  0  0  0  0  0  0  0
  148.1977  139.8521  153.1029 N   0  0  0  0  0  0  0  0  0  0  0  0
  148.8866  139.9190  154.3152 C   0  0  0  0  0  0  0  0  0  0  0  0
  149.8899  140.6250  154.4033 O   0  0  0  0  0  0  0  0  0  0  0  0
  150.5112  138.6374  156.7499 C   0  0  2  0  0  0  0  0  0  0  0  0
  150.9007  137.0943  155.5443 Br  0  0  0  0  0  0  0  0  0  0  0  0
  150.6489  138.1757  158.1922 C   0  0  1  0  0  0  0  0  0  0  0  0
  151.0562  139.2514  159.0316 O   0  0  0  0  0  0  0  0  0  0  0  0
  152.2419  139.8560  158.8353 C   0  0  0  0  0  0  0  0  0  0  0  0
  153.0968  139.5110  158.0177 O   0  0  0  0  0  0  0  0  0  0  0  0
  152.4269  141.0643  159.7554 C   0  0  0  0  0  0  0  0  0  0  0  0
  153.7446  141.0402  160.5440 C   0  0  0  0  0  0  0  0  0  0  0  0
  148.5570  140.4032  152.3370 H   0  0  0  0  0  0  0  0  0  0  0  0
  146.2885  134.9352  163.4913 H   0  0  0  0  0  0  0  0  0  0  0  0
  147.2628  136.3982  163.4077 H   0  0  0  0  0  0  0  0  0  0  0  0
  148.0088  134.8205  163.1415 H   0  0  0  0  0  0  0  0  0  0  0  0
  146.6367  134.5315  161.0426 H   0  0  0  0  0  0  0  0  0  0  0  0
  145.8730  136.0829  161.3187 H   0  0  0  0  0  0  0  0  0  0  0  0
  149.9261  135.7297  158.8697 H   0  0  0  0  0  0  0  0  0  0  0  0
  148.8007  135.9083  157.5362 H   0  0  0  0  0  0  0  0  0  0  0  0
  148.9681  138.1246  159.5858 H   0  0  0  0  0  0  0  0  0  0  0  0
  148.9876  140.1510  157.1190 H   0  0  0  0  0  0  0  0  0  0  0  0
  146.8748  137.7661  156.0014 H   0  0  0  0  0  0  0  0  0  0  0  0
  151.1909  139.4455  156.4774 H   0  0  0  0  0  0  0  0  0  0  0  0
  151.3521  137.3469  158.2889 H   0  0  0  0  0  0  0  0  0  0  0  0
  152.3777  141.9705  159.1509 H   0  0  0  0  0  0  0  0  0  0  0  0
  151.5861  141.1017  160.4485 H   0  0  0  0  0  0  0  0  0  0  0  0
  153.8212  141.9152  161.1896 H   0  0  0  0  0  0  0  0  0  0  0  0
  154.6078  141.0462  159.8774 H   0  0  0  0  0  0  0  0  0  0  0  0
  153.8128  140.1561  161.1789 H   0  0  0  0  0  0  0  0  0  0  0  0
  1  2  1  0  0  0  0
  1 28  1  0  0  0  0
  1 29  1  0  0  0  0
  1 30  1  0  0  0  0
  2  3  1  0  0  0  0
  2 31  1  0  0  0  0
  2 32  1  0  0  0  0
  3  4  2  0  0  0  0
  3  5  1  0  0  0  0
  5  6  1  0  0  0  0
  6  7  1  0  0  0  0
  6 33  1  0  0  0  0
  6 34  1  0  0  0  0
  7 21  1  0  0  0  0
  7  8  1  0  0  0  0
  7 35  1  0  0  0  0
  8  9  1  0  0  0  0
  9 10  1  0  0  0  0
  9 19  1  0  0  0  0
  9 36  1  0  0  0  0
 10 17  1  0  0  0  0
 10 11  1  0  0  0  0
 11 12  2  0  0  0  0
 11 37  1  0  0  0  0
 12 13  1  0  0  0  0
 12 14  1  0  0  0  0
 14 15  2  0  0  0  0
 14 16  1  0  0  0  0
 16 27  1  0  0  0  0
 16 17  1  0  0  0  0
 17 18  2  0  0  0  0
 19 20  1  0  0  0  0
 19 21  1  0  0  0  0
 19 38  1  0  0  0  0
 21 22  1  0  0  0  0
 21 39  1  0  0  0  0
 22 23  1  0  0  0  0
 23 24  2  0  0  0  0
 23 25  1  0  0  0  0
 25 26  1  0  0  0  0
 25 40  1  0  0  0  0
 25 41  1  0  0  0  0
 26 42  1  0  0  0  0
 26 43  1  0  0  0  0
 26 44  1  0  0  0  0
M  END
> <s_m_source_file>
AV-unprocessed.smi

> <i_m_source_file_index>
37

> <i_lp_mmshare_version>
43012

> <i_f3d_flags>
0

> <s_epik_input>
W0NIM11bQ0gyXUMoPU8pT1tDSDJdW0NAQEhdMU9bQ0BASF0objJbY0hdYyhGKWMoPU8pW25IXWMyPU8pW0NAQEhdKEJyKVtDQEhdMU9DKD1PKVtDSDJdW0NIM10=

> <s_epik_cmdline>
J2VwaWtfcHl0aG9uJywgJy1waCcsICc3LjAnLCAnLXRuJywgJzgnLCAnLW1hJywgJzIwMCcsICctbWV0YWxfYmluZGluZycsICctaW1hZScsICc8aW5maWxlLm1hZT4nLCAnLW9tYWUnLCAnPG91dGZpbGUubWFlPic=

> <r_lp_tautomer_probability>
0.999537

> <r_epik_Ionization_Penalty>
0.104106

> <r_epik_Ionization_Penalty_Charging>
0.104106

> <r_epik_Ionization_Penalty_Neutral>
3.94675e-16

> <r_epik_State_Penalty>
0.0940182

> <r_epik_Charging_Adjusted_Penalty>
0.198124

> <i_epik_Tot_Q>
0

> <i_epik_Tot_abs_Q>
0

> <r_epik_Metal_State_Penalty>
3.05314

> <b_epik_Metal_Only>
0

> <s_epik_Chemistry_Notes>
This compound has an ester and may undergo hydrolysis at high or low pH. This compound contains an acetal/aminal-like group ( X-CH(R)-Y where X, Y are N, S, or O) that may be acid/base labile, releasing an aldehyde.

> <s_lp_Force_Field>
OPLS_2005

> <r_lp_Energy>
23.3394

> <b_lp_Chiralities_Consistent>
1

> <s_lp_Variant>
AV-unprocessed.smi:37-7

> <Gold.Version>
5.8.1

> <Gold.Id.Protein>
6NUR|6NUR_protein|mol2

> <Gold.PLP.Fitness>
43.3110

> <Gold.PLP.PLP>
-34.3796

> <Gold.PLP.part.hbond>
-3.4096

> <Gold.PLP.part.metal>
0.0000

> <Gold.PLP.part.buried>
-7.4401

> <Gold.PLP.part.nonpolar>
-25.1294

> <Gold.PLP.part.repulsive>
0.5795

> <Gold.PLP.ligand.clash>
0.0000

> <Gold.PLP.ligand.torsion>
0.8022

> <Gold.PLP.Chemscore.Hbond>
3.4633

> <Gold.PLP.Chemscore.CHOScore>
0.0000

> <Gold.PLP.Chemscore.Metal>
0.0000

> <Gold.Chemscore.Hbonds>
donor molecule, donor type, donor heavy atom, donor atom, acceptor molecule, acceptor atom, score
      L1  H    16    27       P1  7957  0.64
      P1  H  6931  6943       L1     4  0.84
      P1  H  7989  7998       L1    18  0.77
      P1  H  7997  8009       L1    24  1.00

> <Gold.PLP.Chemscore.Internal.Correction>
0.1459

> <Gold.Rescore>
     Score         DG    S(hbond)    S(metal)    S(lipo)     H(rot)  DE(clash)    DE(int)     intcor
     13.30     -15.50       3.58        0.00      56.20       3.33       0.07       2.13       ----

> <Gold.Chemscore.Fitness>
13.3024

> <Gold.Chemscore.DG>
-15.5008

> <Gold.Chemscore.ZeroCoef>
-5.4800

> <Gold.Chemscore.Hbond>
3.5840

> <Gold.Chemscore.Metal>
0.0000

> <Gold.Chemscore.Lipo>
56.2035

> <Gold.Chemscore.Internal_Hbond>
0.0000

> <Gold.Chemscore.DEClash>
0.0688

> <Gold.Chemscore.DEInternal>
2.1295

> <Gold.Chemscore.Rot>
3.3303

> <Gold.Chemscore.Internal.Correction>
   9.000000E+99

> <Gold.Chemscore.Hbonds>
donor molecule, donor type, donor heavy atom, donor atom, acceptor molecule, acceptor atom, score
      L1  H    16    27       P1  7957  0.63
      P1  H  6931  6943       L1     4  0.82
      P1  H  7989  7998       L1    18  0.74
      P1  H  7997  8009       L1    24  1.00

> <Gold.Chemscore.Hbond.Weighted>
-11.9706

> <Gold.Chemscore.Metal.Weighted>
-0.0000

> <Gold.Chemscore.Lipo.Weighted>
-6.5758

> <Gold.Chemscore.Internal_Hbond.Weighted>
0.0000

> <Gold.Chemscore.DEClash.Weighted>
0.0688

> <Gold.Chemscore.DEInternal.Weighted>
2.1295

> <Gold.Chemscore.Rot.Weighted>
8.5256

> <Gold.Chemscore.Internal.Correction.Weighted>
   9.000000E+99

> <Gold.Protein.RotatedTorsions>
[ 6907 6896 6895 6894 ] final   47.88 input  -60.11 | X-H torsion
[ 7974 7965 7964 7962 ] final  -95.89 input  175.53 | X-H torsion
[ 8008 7997 7996 7995 ] final  148.18 input   59.86 | X-H torsion
[ 10167 10162 10161 10158 ] final   99.62 input  -65.29 | X-H torsion
[ 10718 10713 10712 10709 ] final  -90.32 input   66.30 | X-H torsion
[ 10763 10752 10751 10750 ] final   34.28 input  -60.55 | X-H torsion
[ 11005 11000 10999 10996 ] final    7.11 input  -57.11 | X-H torsion

> <Gold.Protein.ActiveResidues>
 VAL166  LYS551  ARG553  GLY616  TRP617  ASP618  TYR619  PRO620  LYS621  CYS622 
 ASP623  PHE694  ASN695  SER759  ASP760  ASP761  ALA762  ILE779  LEU786  VAL792 
 PHE793  MET794  SER795  GLU796  ALA797  LYS798  CYS799  TRP800  GLU811  SER814 

> <Gold.Protein.RotatedAtoms>
  152.2732  134.7910  160.0410 H   0  0  0  0  0  0  0  0  0  0  0  0  # atno 6907 bound_to 6896
  151.8516  133.3435  159.3683 H   0  0  0  0  0  0  0  0  0  0  0  0  # atno 6908 bound_to 6896
  150.7160  134.5222  159.5703 H   0  0  0  0  0  0  0  0  0  0  0  0  # atno 6909 bound_to 6896
  145.3541  140.9481  143.2537 H   0  0  0  0  0  0  0  0  0  0  0  0  # atno 7974 bound_to 7965
  156.2800  140.2135  156.5657 H   0  0  0  0  0  0  0  0  0  0  0  0  # atno 8008 bound_to 7997
  154.7177  140.0506  157.0632 H   0  0  0  0  0  0  0  0  0  0  0  0  # atno 8009 bound_to 7997
  155.0521  140.3157  155.4691 H   0  0  0  0  0  0  0  0  0  0  0  0  # atno 8010 bound_to 7997
  139.7601  144.6957  151.0305 H   0  0  0  0  0  0  0  0  0  0  0  0  # atno 10167 bound_to 10162
  155.9987  130.4905  150.5305 H   0  0  0  0  0  0  0  0  0  0  0  0  # atno 10718 bound_to 10713
  153.0171  135.6364  154.1644 H   0  0  0  0  0  0  0  0  0  0  0  0  # atno 10763 bound_to 10752
  154.1382  135.2836  155.3169 H   0  0  0  0  0  0  0  0  0  0  0  0  # atno 10764 bound_to 10752
  154.6144  135.5546  153.7569 H   0  0  0  0  0  0  0  0  0  0  0  0  # atno 10765 bound_to 10752
  140.5519  134.0275  155.7940 H   0  0  0  0  0  0  0  0  0  0  0  0  # atno 11005 bound_to 11000
  144.8695  139.5058  143.6774 LP  0  0  0  0  0  0  0  0  0  0  0  0  # atno 17320 bound_to 7965
  146.2955  139.7266  142.9129 LP  0  0  0  0  0  0  0  0  0  0  0  0  # atno 17321 bound_to 7965
  140.7806  143.4707  151.0150 LP  0  0  0  0  0  0  0  0  0  0  0  0  # atno 17342 bound_to 10162
  139.8393  143.7585  152.3180 LP  0  0  0  0  0  0  0  0  0  0  0  0  # atno 17343 bound_to 10162
  157.3255  131.0690  151.1900 LP  0  0  0  0  0  0  0  0  0  0  0  0  # atno 17370 bound_to 10713
  157.2799  130.6745  149.6061 LP  0  0  0  0  0  0  0  0  0  0  0  0  # atno 17371 bound_to 10713
  141.1167  133.9529  157.2809 LP  0  0  0  0  0  0  0  0  0  0  0  0  # atno 17394 bound_to 11000
  139.9451  135.0185  156.8827 LP  0  0  0  0  0  0  0  0  0  0  0  0  # atno 17395 bound_to 11000

$$$$
