AV-unprocessed.smi:3351|AV-procd|sdf|12947|dock8
  -GOLD-   2272019383D 1   1.00000     0.00000
 Structure written by MMmdl.
 35 36  0  0  0  0  0  0  0  0  2 V2000
  148.8039  140.4399  157.3267 C   0  0  0  0  0  0  0  0  0  0  0  0
  148.8934  141.6316  156.3641 C   0  0  2  0  0  0  0  0  0  0  0  0
  149.3800  141.1866  154.9671 C   0  0  0  0  0  0  0  0  0  0  0  0
  148.3406  140.5107  154.1828 N   0  0  0  0  0  0  0  0  0  0  0  0
  148.3115  139.1943  153.8004 C   0  0  0  0  0  0  0  0  0  0  0  0
  147.1649  139.0248  153.0685 C   0  0  0  0  0  0  0  0  0  0  0  0
  146.5370  140.2413  153.0451 N   0  3  0  0  0  0  0  0  0  0  0  0
  147.2506  141.1422  153.7282 C   0  0  0  0  0  0  0  0  0  0  0  0
  149.7883  142.6370  156.9367 N   0  0  0  0  0  0  0  0  0  0  0  0
  151.0564  142.4272  157.3246 C   0  0  0  0  0  0  0  0  0  0  0  0
  151.6271  141.3411  157.2141 O   0  0  0  0  0  0  0  0  0  0  0  0
  151.7895  143.6324  157.9241 C   0  0  0  0  0  0  0  0  0  0  0  0
  152.2189  143.3924  159.3023 N   0  0  0  0  0  0  0  0  0  0  0  0
  153.1621  142.3166  159.5766 C   0  0  0  0  0  0  0  0  0  0  0  0
  153.1360  142.0410  161.0816 C   0  0  0  0  0  0  0  0  0  0  0  0
  152.5261  143.5281  161.9011 S   0  0  0  0  0  0  0  0  0  0  0  0
  151.8239  144.1736  160.3804 C   0  0  0  0  0  0  0  0  0  0  0  0
  151.0997  145.1672  160.3616 O   0  0  0  0  0  0  0  0  0  0  0  0
  148.1193  139.6804  156.9482 H   0  0  0  0  0  0  0  0  0  0  0  0
  148.4380  140.7521  158.3055 H   0  0  0  0  0  0  0  0  0  0  0  0
  149.7771  139.9686  157.4689 H   0  0  0  0  0  0  0  0  0  0  0  0
  147.8873  142.0451  156.2728 H   0  0  0  0  0  0  0  0  0  0  0  0
  149.7377  142.0414  154.3912 H   0  0  0  0  0  0  0  0  0  0  0  0
  150.2187  140.4949  155.0587 H   0  0  0  0  0  0  0  0  0  0  0  0
  149.0947  138.4960  154.0587 H   0  0  0  0  0  0  0  0  0  0  0  0
  146.7610  138.1530  152.5747 H   0  0  0  0  0  0  0  0  0  0  0  0
  147.0023  142.1786  153.8720 H   0  0  0  0  0  0  0  0  0  0  0  0
  149.4082  143.5651  157.0570 H   0  0  0  0  0  0  0  0  0  0  0  0
  152.6536  143.8594  157.2985 H   0  0  0  0  0  0  0  0  0  0  0  0
  151.1472  144.5144  157.8952 H   0  0  0  0  0  0  0  0  0  0  0  0
  152.9167  141.4187  159.0079 H   0  0  0  0  0  0  0  0  0  0  0  0
  154.1560  142.6431  159.2684 H   0  0  0  0  0  0  0  0  0  0  0  0
  152.4422  141.2286  161.2993 H   0  0  0  0  0  0  0  0  0  0  0  0
  154.1152  141.7534  161.4649 H   0  0  0  0  0  0  0  0  0  0  0  0
  145.6605  140.4348  152.5770 H   0  0  0  0  0  0  0  0  0  0  0  0
  1  2  1  0  0  0  0
  1 19  1  0  0  0  0
  1 20  1  0  0  0  0
  1 21  1  0  0  0  0
  2  3  1  0  0  0  0
  2  9  1  0  0  0  0
  2 22  1  0  0  0  0
  3  4  1  0  0  0  0
  3 23  1  0  0  0  0
  3 24  1  0  0  0  0
  4  8  1  0  0  0  0
  4  5  1  0  0  0  0
  5  6  2  0  0  0  0
  5 25  1  0  0  0  0
  6  7  1  0  0  0  0
  6 26  1  0  0  0  0
  7  8  2  0  0  0  0
  7 35  1  0  0  0  0
  8 27  1  0  0  0  0
  9 10  1  0  0  0  0
  9 28  1  0  0  0  0
 10 11  2  0  0  0  0
 10 12  1  0  0  0  0
 12 13  1  0  0  0  0
 12 29  1  0  0  0  0
 12 30  1  0  0  0  0
 13 17  1  0  0  0  0
 13 14  1  0  0  0  0
 14 15  1  0  0  0  0
 14 31  1  0  0  0  0
 14 32  1  0  0  0  0
 15 16  1  0  0  0  0
 15 33  1  0  0  0  0
 15 34  1  0  0  0  0
 16 17  1  0  0  0  0
 17 18  2  0  0  0  0
M  CHG  1   7   1
M  END
> <s_m_source_file>
AV-unprocessed.smi

> <i_m_source_file_index>
3351

> <i_lp_mmshare_version>
43012

> <i_f3d_flags>
0

> <s_epik_input>
W2NIXTFuW2NIXVtjSF1uMVtDSDJdW0NAQEhdKFtDSDNdKVtOSF1DKD1PKVtDSDJdTjJbQ0gyXVtDSDJdU0MyPU8=

> <s_epik_cmdline>
J2VwaWtfcHl0aG9uJywgJy1waCcsICc3LjAnLCAnLXRuJywgJzgnLCAnLW1hJywgJzIwMCcsICctbWV0YWxfYmluZGluZycsICctaW1hZScsICc8aW5maWxlLm1hZT4nLCAnLW9tYWUnLCAnPG91dGZpbGUubWFlPic=

> <r_lp_tautomer_probability>
1

> <r_epik_Ionization_Penalty>
0.257312

> <r_epik_Ionization_Penalty_Charging>
0

> <r_epik_Ionization_Penalty_Neutral>
0.257312

> <r_epik_State_Penalty>
0.248897

> <r_epik_Charging_Adjusted_Penalty>
0.248897

> <i_epik_Tot_Q>
1

> <i_epik_Tot_abs_Q>
1

> <r_epik_Metal_State_Penalty>
0.538022

> <b_epik_Metal_Only>
0

> <s_lp_Force_Field>
OPLS_2005

> <r_lp_Energy>
4.24041

> <b_lp_Chiralities_Consistent>
1

> <s_lp_Variant>
AV-unprocessed.smi:3351-1

> <Gold.Version>
5.8.1

> <Gold.Id.Protein>
6NUR|6NUR_protein|mol2

> <Gold.PLP.Fitness>
49.2080

> <Gold.PLP.PLP>
-42.0430

> <Gold.PLP.part.hbond>
-2.0000

> <Gold.PLP.part.metal>
0.0000

> <Gold.PLP.part.buried>
-3.6688

> <Gold.PLP.part.nonpolar>
-36.7301

> <Gold.PLP.part.repulsive>
0.2461

> <Gold.PLP.ligand.clash>
0.0000

> <Gold.PLP.ligand.torsion>
0.2253

> <Gold.PLP.Chemscore.Hbond>
2.5280

> <Gold.PLP.Chemscore.CHOScore>
0.0000

> <Gold.PLP.Chemscore.Metal>
0.0000

> <Gold.Chemscore.Hbonds>
donor molecule, donor type, donor heavy atom, donor atom, acceptor molecule, acceptor atom, score
      L1  H     7    35       P1 10175  2.00
      L1  H     9    28       P1  8028  0.53

> <Gold.PLP.Chemscore.Internal.Correction>
0.0315

> <Gold.Rescore>
     Score         DG    S(hbond)    S(metal)    S(lipo)     H(rot)  DE(clash)    DE(int)     intcor
     12.34     -14.00       1.81        0.00      73.93       2.41       0.19       1.47       ----

> <Gold.Chemscore.Fitness>
12.3406

> <Gold.Chemscore.DG>
-13.9972

> <Gold.Chemscore.ZeroCoef>
-5.4800

> <Gold.Chemscore.Hbond>
1.8105

> <Gold.Chemscore.Metal>
0.0000

> <Gold.Chemscore.Lipo>
73.9314

> <Gold.Chemscore.Internal_Hbond>
0.0000

> <Gold.Chemscore.DEClash>
0.1873

> <Gold.Chemscore.DEInternal>
1.4693

> <Gold.Chemscore.Rot>
2.4141

> <Gold.Chemscore.Internal.Correction>
   9.000000E+99

> <Gold.Chemscore.Hbonds>
donor molecule, donor type, donor heavy atom, donor atom, acceptor molecule, acceptor atom, score
      L1  H     7    35       P1 10175  0.63
      L1  H     9    28       P1  8028  0.44

> <Gold.Chemscore.Hbond.Weighted>
-6.0472

> <Gold.Chemscore.Metal.Weighted>
-0.0000

> <Gold.Chemscore.Lipo.Weighted>
-8.6500

> <Gold.Chemscore.Internal_Hbond.Weighted>
0.0000

> <Gold.Chemscore.DEClash.Weighted>
0.1873

> <Gold.Chemscore.DEInternal.Weighted>
1.4693

> <Gold.Chemscore.Rot.Weighted>
6.1800

> <Gold.Chemscore.Internal.Correction.Weighted>
   9.000000E+99

> <Gold.Protein.RotatedTorsions>
[ 6907 6896 6895 6894 ] final  -32.93 input  -60.11 | X-H torsion
[ 7974 7965 7964 7962 ] final   26.27 input  175.53 | X-H torsion
[ 8008 7997 7996 7995 ] final  -80.01 input   59.86 | X-H torsion
[ 10167 10162 10161 10158 ] final  122.66 input  -65.29 | X-H torsion
[ 10718 10713 10712 10709 ] final  -27.75 input   66.30 | X-H torsion
[ 10763 10752 10751 10750 ] final -105.67 input  -60.55 | X-H torsion
[ 11005 11000 10999 10996 ] final -120.15 input  -57.11 | X-H torsion

> <Gold.Protein.ActiveResidues>
 VAL166  LYS551  ARG553  GLY616  TRP617  ASP618  TYR619  PRO620  LYS621  CYS622 
 ASP623  PHE694  ASN695  SER759  ASP760  ASP761  ALA762  ILE779  LEU786  VAL792 
 PHE793  MET794  SER795  GLU796  ALA797  LYS798  CYS799  TRP800  GLU811  SER814 

> <Gold.Protein.RotatedAtoms>
  151.0722  134.9805  159.8314 H   0  0  0  0  0  0  0  0  0  0  0  0  # atno 6907 bound_to 6896
  152.5410  134.2285  159.8825 H   0  0  0  0  0  0  0  0  0  0  0  0  # atno 6908 bound_to 6896
  151.2310  133.4407  159.2637 H   0  0  0  0  0  0  0  0  0  0  0  0  # atno 6909 bound_to 6896
  146.1846  139.7351  142.8876 H   0  0  0  0  0  0  0  0  0  0  0  0  # atno 7974 bound_to 7965
  154.5841  140.0669  156.9146 H   0  0  0  0  0  0  0  0  0  0  0  0  # atno 8008 bound_to 7997
  155.2410  140.3344  155.4274 H   0  0  0  0  0  0  0  0  0  0  0  0  # atno 8009 bound_to 7997
  156.2210  140.1799  156.7461 H   0  0  0  0  0  0  0  0  0  0  0  0  # atno 8010 bound_to 7997
  139.5845  144.7000  151.3443 H   0  0  0  0  0  0  0  0  0  0  0  0  # atno 10167 bound_to 10162
  156.4341  130.4451  149.7097 H   0  0  0  0  0  0  0  0  0  0  0  0  # atno 10718 bound_to 10713
  154.7962  135.4740  154.0167 H   0  0  0  0  0  0  0  0  0  0  0  0  # atno 10763 bound_to 10752
  153.1707  135.6824  153.8618 H   0  0  0  0  0  0  0  0  0  0  0  0  # atno 10764 bound_to 10752
  153.8202  135.3205  155.3387 H   0  0  0  0  0  0  0  0  0  0  0  0  # atno 10765 bound_to 10752
  141.0164  134.0189  157.3344 H   0  0  0  0  0  0  0  0  0  0  0  0  # atno 11005 bound_to 11000
  145.3977  141.0381  143.3088 LP  0  0  0  0  0  0  0  0  0  0  0  0  # atno 17320 bound_to 7965
  144.8374  139.5527  143.6916 LP  0  0  0  0  0  0  0  0  0  0  0  0  # atno 17321 bound_to 7965
  140.7119  143.7368  150.7582 LP  0  0  0  0  0  0  0  0  0  0  0  0  # atno 17342 bound_to 10162
  140.0909  143.4878  152.2479 LP  0  0  0  0  0  0  0  0  0  0  0  0  # atno 17343 bound_to 10162
  156.3988  130.7664  151.2671 LP  0  0  0  0  0  0  0  0  0  0  0  0  # atno 17370 bound_to 10713
  157.7507  131.0246  150.3882 LP  0  0  0  0  0  0  0  0  0  0  0  0  # atno 17371 bound_to 10713
  139.9119  135.0191  156.7728 LP  0  0  0  0  0  0  0  0  0  0  0  0  # atno 17394 bound_to 11000
  140.6647  133.9613  155.7824 LP  0  0  0  0  0  0  0  0  0  0  0  0  # atno 17395 bound_to 11000

$$$$
