AV-unprocessed.smi:1643|AV-procd|sdf|6573|dock7
  -GOLD-   22720 7263D 1   1.00000     0.00000
 Structure written by MMmdl.
 54 56  0  0  0  0  0  0  0  0  2 V2000
  145.8817  130.9175  150.2844 C   0  0  0  0  0  0  0  0  0  0  0  0
  144.7529  131.9526  150.2641 C   0  0  0  0  0  0  0  0  0  0  0  0
  143.8907  131.8501  149.3914 O   0  0  0  0  0  0  0  0  0  0  0  0
  144.7383  132.9332  151.2007 N   0  0  0  0  0  0  0  0  0  0  0  0
  143.6455  133.9171  151.2479 C   0  0  0  0  0  0  0  0  0  0  0  0
  144.0539  135.2401  150.5757 C   0  0  0  0  0  0  0  0  0  0  0  0
  145.5389  135.6192  150.7597 C   0  0  0  0  0  0  0  0  0  0  0  0
  145.9786  135.6917  152.1806 N   0  3  1  0  0  0  0  0  0  0  0  0
  145.4506  136.8940  152.8834 C   0  0  0  0  0  0  0  0  0  0  0  0
  146.5641  137.7856  153.4840 C   0  0  2  0  0  0  0  0  0  0  0  0
  146.1869  138.2277  154.7720 O   0  0  0  0  0  0  0  0  0  0  0  0
  146.8657  139.0515  152.6543 C   0  0  0  0  0  0  0  0  0  0  0  0
  147.3948  140.1414  153.4546 N   0  0  0  0  0  0  0  0  0  0  0  0
  146.8357  141.3512  153.6532 C   0  0  0  0  0  0  0  0  0  0  0  0
  147.4989  142.2093  154.4221 N   0  0  0  0  0  0  0  0  0  0  0  0
  148.6100  141.4648  154.7778 C   0  0  0  0  0  0  0  0  0  0  0  0
  149.7131  141.7969  155.5938 C   0  0  0  0  0  0  0  0  0  0  0  0
  150.7488  140.8645  155.8269 C   0  0  0  0  0  0  0  0  0  0  0  0
  151.9135  141.2619  156.7168 C   0  0  0  0  0  0  0  0  0  0  0  0
  150.6912  139.5761  155.2371 C   0  0  0  0  0  0  0  0  0  0  0  0
  151.7906  138.5568  155.4771 C   0  0  0  0  0  0  0  0  0  0  0  0
  149.5977  139.2289  154.4165 C   0  0  0  0  0  0  0  0  0  0  0  0
  148.5732  140.1653  154.1925 C   0  0  0  0  0  0  0  0  0  0  0  0
  145.8468  134.4326  152.9789 C   0  0  0  0  0  0  0  0  0  0  0  0
  145.8327  133.1003  152.1811 C   0  0  0  0  0  0  0  0  0  0  0  0
  145.9809  130.4612  151.2696 H   0  0  0  0  0  0  0  0  0  0  0  0
  146.8316  131.3749  150.0078 H   0  0  0  0  0  0  0  0  0  0  0  0
  145.6787  130.1184  149.5705 H   0  0  0  0  0  0  0  0  0  0  0  0
  142.7349  133.5423  150.7776 H   0  0  0  0  0  0  0  0  0  0  0  0
  143.3399  134.0881  152.2789 H   0  0  0  0  0  0  0  0  0  0  0  0
  143.8598  135.1601  149.5056 H   0  0  0  0  0  0  0  0  0  0  0  0
  143.4096  136.0431  150.9343 H   0  0  0  0  0  0  0  0  0  0  0  0
  146.1795  134.9173  150.2250 H   0  0  0  0  0  0  0  0  0  0  0  0
  145.7287  136.5761  150.2717 H   0  0  0  0  0  0  0  0  0  0  0  0
  144.9033  137.4833  152.1487 H   0  0  0  0  0  0  0  0  0  0  0  0
  144.7149  136.6128  153.6384 H   0  0  0  0  0  0  0  0  0  0  0  0
  147.4806  137.2023  153.5813 H   0  0  0  0  0  0  0  0  0  0  0  0
  146.9596  138.5219  155.2305 H   0  0  0  0  0  0  0  0  0  0  0  0
  147.5796  138.8249  151.8608 H   0  0  0  0  0  0  0  0  0  0  0  0
  145.9577  139.4068  152.1644 H   0  0  0  0  0  0  0  0  0  0  0  0
  145.8935  141.6217  153.1989 H   0  0  0  0  0  0  0  0  0  0  0  0
  149.7562  142.7779  156.0444 H   0  0  0  0  0  0  0  0  0  0  0  0
  152.8555  141.1850  156.1732 H   0  0  0  0  0  0  0  0  0  0  0  0
  151.9635  140.6123  157.5912 H   0  0  0  0  0  0  0  0  0  0  0  0
  151.8134  142.2893  157.0688 H   0  0  0  0  0  0  0  0  0  0  0  0
  151.5881  137.6222  154.9534 H   0  0  0  0  0  0  0  0  0  0  0  0
  151.8778  138.3324  156.5405 H   0  0  0  0  0  0  0  0  0  0  0  0
  152.7490  138.9371  155.1231 H   0  0  0  0  0  0  0  0  0  0  0  0
  149.5408  138.2502  153.9635 H   0  0  0  0  0  0  0  0  0  0  0  0
  146.6926  134.4020  153.6660 H   0  0  0  0  0  0  0  0  0  0  0  0
  144.9693  134.4831  153.6232 H   0  0  0  0  0  0  0  0  0  0  0  0
  145.7806  132.2736  152.8911 H   0  0  0  0  0  0  0  0  0  0  0  0
  146.7956  133.0104  151.6764 H   0  0  0  0  0  0  0  0  0  0  0  0
  146.9738  135.8496  152.1084 H   0  0  0  0  0  0  0  0  0  0  0  0
  1  2  1  0  0  0  0
  1 26  1  0  0  0  0
  1 27  1  0  0  0  0
  1 28  1  0  0  0  0
  2  3  2  0  0  0  0
  2  4  1  0  0  0  0
  4 25  1  0  0  0  0
  4  5  1  0  0  0  0
  5  6  1  0  0  0  0
  5 29  1  0  0  0  0
  5 30  1  0  0  0  0
  6  7  1  0  0  0  0
  6 31  1  0  0  0  0
  6 32  1  0  0  0  0
  7  8  1  0  0  0  0
  7 33  1  0  0  0  0
  7 34  1  0  0  0  0
  8  9  1  0  0  0  0
  8 24  1  0  0  0  0
  8 54  1  0  0  0  0
  9 10  1  0  0  0  0
  9 35  1  0  0  0  0
  9 36  1  0  0  0  0
 10 11  1  0  0  0  0
 10 12  1  0  0  0  0
 10 37  1  0  0  0  0
 11 38  1  0  0  0  0
 12 13  1  0  0  0  0
 12 39  1  0  0  0  0
 12 40  1  0  0  0  0
 13 23  1  0  0  0  0
 13 14  1  0  0  0  0
 14 15  2  0  0  0  0
 14 41  1  0  0  0  0
 15 16  1  0  0  0  0
 16 23  2  0  0  0  0
 16 17  1  0  0  0  0
 17 18  2  0  0  0  0
 17 42  1  0  0  0  0
 18 19  1  0  0  0  0
 18 20  1  0  0  0  0
 19 43  1  0  0  0  0
 19 44  1  0  0  0  0
 19 45  1  0  0  0  0
 20 21  1  0  0  0  0
 20 22  2  0  0  0  0
 21 46  1  0  0  0  0
 21 47  1  0  0  0  0
 21 48  1  0  0  0  0
 22 23  1  0  0  0  0
 22 49  1  0  0  0  0
 24 25  1  0  0  0  0
 24 50  1  0  0  0  0
 24 51  1  0  0  0  0
 25 52  1  0  0  0  0
 25 53  1  0  0  0  0
M  CHG  1   8   1
M  END
> <s_m_source_file>
AV-unprocessed.smi

> <i_m_source_file_index>
1643

> <i_lp_mmshare_version>
43012

> <i_f3d_flags>
0

> <s_epik_input>
W0NIM11DKD1PKU4xW0NIMl1bQ0gyXVtDSDJdTihbQ0gyXVtDSDJdMSlbQ0gyXVtDQEhdKFtPSF0pW0NIMl1uKFtjSF1uMiljKGMyMylbY0hdYyhbQ0gzXSljKFtjSF0zKVtDSDNd

> <s_epik_cmdline>
J2VwaWtfcHl0aG9uJywgJy1waCcsICc3LjAnLCAnLXRuJywgJzgnLCAnLW1hJywgJzIwMCcsICctbWV0YWxfYmluZGluZycsICctaW1hZScsICc8aW5maWxlLm1hZT4nLCAnLW9tYWUnLCAnPG91dGZpbGUubWFlPic=

> <r_epik_Ionization_Penalty>
0.189467

> <r_epik_Ionization_Penalty_Charging>
0.101761

> <r_epik_Ionization_Penalty_Neutral>
0.0877056

> <r_epik_State_Penalty>
0.170758

> <r_epik_Charging_Adjusted_Penalty>
0.272519

> <i_epik_Tot_Q>
1

> <i_epik_Tot_abs_Q>
1

> <r_epik_Metal_State_Penalty>
0.0948013

> <b_epik_Metal_Only>
0

> <s_lp_Force_Field>
OPLS_2005

> <r_lp_Energy>
50.1894

> <b_lp_Chiralities_Consistent>
1

> <s_lp_Variant>
AV-unprocessed.smi:1643-2

> <Gold.Version>
5.8.1

> <Gold.Id.Protein>
6NUR|6NUR_protein|mol2

> <Gold.PLP.Fitness>
49.2393

> <Gold.PLP.PLP>
-42.1797

> <Gold.PLP.part.hbond>
-2.0000

> <Gold.PLP.part.metal>
0.0000

> <Gold.PLP.part.buried>
-3.5994

> <Gold.PLP.part.nonpolar>
-39.0792

> <Gold.PLP.part.repulsive>
0.5328

> <Gold.PLP.ligand.clash>
0.0000

> <Gold.PLP.ligand.torsion>
1.6171

> <Gold.PLP.Chemscore.Hbond>
2.7840

> <Gold.PLP.Chemscore.CHOScore>
0.6093

> <Gold.PLP.Chemscore.Metal>
0.0000

> <Gold.Chemscore.Hbonds>
donor molecule, donor type, donor heavy atom, donor atom, acceptor molecule, acceptor atom, score
      L1  H     8    54       P1  7948  2.00
      P1  H 10785 10796       L1     3  0.77
      L1  C    14    41       P1 10175  0.56

> <Gold.PLP.Chemscore.Internal.Correction>
0.1140

> <Gold.Rescore>
     Score         DG    S(hbond)    S(metal)    S(lipo)     H(rot)  DE(clash)    DE(int)     intcor
     15.38     -18.78       1.76        0.00     109.82       2.12       1.88       1.52       ----

> <Gold.Chemscore.Fitness>
15.3813

> <Gold.Chemscore.DG>
-18.7841

> <Gold.Chemscore.ZeroCoef>
-5.4800

> <Gold.Chemscore.Hbond>
1.7594

> <Gold.Chemscore.Metal>
0.0000

> <Gold.Chemscore.Lipo>
109.8210

> <Gold.Chemscore.Internal_Hbond>
0.0000

> <Gold.Chemscore.DEClash>
1.8789

> <Gold.Chemscore.DEInternal>
1.5239

> <Gold.Chemscore.Rot>
2.1178

> <Gold.Chemscore.Internal.Correction>
   9.000000E+99

> <Gold.Chemscore.Hbonds>
donor molecule, donor type, donor heavy atom, donor atom, acceptor molecule, acceptor atom, score
      L1  H     8    54       P1  7948  0.95
      P1  H 10785 10796       L1     3  0.76

> <Gold.Chemscore.Hbond.Weighted>
-5.8765

> <Gold.Chemscore.Metal.Weighted>
-0.0000

> <Gold.Chemscore.Lipo.Weighted>
-12.8491

> <Gold.Chemscore.Internal_Hbond.Weighted>
0.0000

> <Gold.Chemscore.DEClash.Weighted>
1.8789

> <Gold.Chemscore.DEInternal.Weighted>
1.5239

> <Gold.Chemscore.Rot.Weighted>
5.4215

> <Gold.Chemscore.Internal.Correction.Weighted>
   9.000000E+99

> <Gold.Protein.RotatedTorsions>
[ 6907 6896 6895 6894 ] final   84.64 input  -60.11 | X-H torsion
[ 7974 7965 7964 7962 ] final  -70.49 input  175.53 | X-H torsion
[ 8008 7997 7996 7995 ] final   88.18 input   59.86 | X-H torsion
[ 10167 10162 10161 10158 ] final  178.39 input  -65.29 | X-H torsion
[ 10718 10713 10712 10709 ] final   34.38 input   66.30 | X-H torsion
[ 10763 10752 10751 10750 ] final  110.96 input  -60.55 | X-H torsion
[ 11005 11000 10999 10996 ] final  143.13 input  -57.11 | X-H torsion

> <Gold.Protein.ActiveResidues>
 VAL166  LYS551  ARG553  GLY616  TRP617  ASP618  TYR619  PRO620  LYS621  CYS622 
 ASP623  PHE694  ASN695  SER759  ASP760  ASP761  ALA762  ILE779  LEU786  VAL792 
 PHE793  MET794  SER795  GLU796  ALA797  LYS798  CYS799  TRP800  GLU811  SER814 

> <Gold.Protein.RotatedAtoms>
  152.5357  134.2710  159.8971 H   0  0  0  0  0  0  0  0  0  0  0  0  # atno 6907 bound_to 6896
  151.2667  133.4269  159.2626 H   0  0  0  0  0  0  0  0  0  0  0  0  # atno 6908 bound_to 6896
  151.0404  134.9618  159.8215 H   0  0  0  0  0  0  0  0  0  0  0  0  # atno 6909 bound_to 6896
  145.6903  140.9155  143.0785 H   0  0  0  0  0  0  0  0  0  0  0  0  # atno 7974 bound_to 7965
  155.9846  140.3374  155.6695 H   0  0  0  0  0  0  0  0  0  0  0  0  # atno 8008 bound_to 7997
  155.6503  140.0705  157.2607 H   0  0  0  0  0  0  0  0  0  0  0  0  # atno 8009 bound_to 7997
  154.4201  140.1727  156.1655 H   0  0  0  0  0  0  0  0  0  0  0  0  # atno 8010 bound_to 7997
  139.5292  144.2686  152.0647 H   0  0  0  0  0  0  0  0  0  0  0  0  # atno 10167 bound_to 10162
  157.3096  130.7392  149.6717 H   0  0  0  0  0  0  0  0  0  0  0  0  # atno 10718 bound_to 10713
  153.4565  135.3732  155.2314 H   0  0  0  0  0  0  0  0  0  0  0  0  # atno 10763 bound_to 10752
  154.8757  135.3898  154.3976 H   0  0  0  0  0  0  0  0  0  0  0  0  # atno 10764 bound_to 10752
  153.4543  135.7086  153.6154 H   0  0  0  0  0  0  0  0  0  0  0  0  # atno 10765 bound_to 10752
  140.0530  134.9245  157.1051 H   0  0  0  0  0  0  0  0  0  0  0  0  # atno 11005 bound_to 11000
  144.6999  139.8812  143.7447 LP  0  0  0  0  0  0  0  0  0  0  0  0  # atno 17320 bound_to 7965
  146.0888  139.3877  143.0419 LP  0  0  0  0  0  0  0  0  0  0  0  0  # atno 17321 bound_to 7965
  140.2147  144.4527  150.6369 LP  0  0  0  0  0  0  0  0  0  0  0  0  # atno 17342 bound_to 10162
  140.6458  143.2213  151.6190 LP  0  0  0  0  0  0  0  0  0  0  0  0  # atno 17343 bound_to 10162
  155.9677  130.4255  150.4658 LP  0  0  0  0  0  0  0  0  0  0  0  0  # atno 17370 bound_to 10713
  157.2654  131.0576  151.2294 LP  0  0  0  0  0  0  0  0  0  0  0  0  # atno 17371 bound_to 10713
  140.3888  134.2207  155.7167 LP  0  0  0  0  0  0  0  0  0  0  0  0  # atno 17394 bound_to 11000
  141.1939  133.8140  157.0779 LP  0  0  0  0  0  0  0  0  0  0  0  0  # atno 17395 bound_to 11000

$$$$
