AV-unprocessed.smi:373|AV-procd|sdf|2450|dock8
  -GOLD-   2262022393D 1   1.00000     0.00000
 Structure written by MMmdl.
 40 41  0  0  0  0  0  0  0  0  1 V2000
  154.1594  140.9638  161.5794 C   0  0  0  0  0  0  0  0  0  0  0  0
  153.4298  141.8561  162.5907 C   0  0  0  0  0  0  0  0  0  0  0  0
  152.4814  142.8627  161.9272 C   0  0  0  0  0  0  0  0  0  0  0  0
  153.0434  143.2894  160.6941 O   0  0  0  0  0  0  0  0  0  0  0  0
  152.1338  143.3007  159.6020 C   0  0  1  0  0  0  0  0  0  0  0  0
  152.4999  144.4991  158.7093 C   0  0  0  0  0  0  0  0  0  0  0  0
  151.6172  144.5224  157.4516 C   0  0  0  0  0  0  0  0  0  0  0  0
  151.6996  143.1842  156.6995 C   0  0  0  0  0  0  0  0  0  0  0  0
  151.3836  142.0699  157.5899 N   0  0  0  0  0  0  0  0  0  0  0  0
  151.1515  140.8637  156.9038 C   0  0  0  0  0  0  0  0  0  0  0  0
  152.2307  140.1433  156.5126 N   0  0  0  0  0  0  0  0  0  0  0  0
  152.0342  138.9958  155.8302 C   0  0  0  0  0  0  0  0  0  0  0  0
  150.7557  138.5012  155.4889 C   0  0  0  0  0  0  0  0  0  0  0  0
  150.5797  137.2075  154.7478 C   0  0  0  0  0  0  0  0  0  0  0  0
  149.3464  136.9425  154.3058 N   0  0  0  0  0  0  0  0  0  0  0  0
  151.5126  136.4184  154.6102 O   0  0  0  0  0  0  0  0  0  0  0  0
  149.6333  139.2439  155.9120 C   0  0  0  0  0  0  0  0  0  0  0  0
  149.8273  140.4434  156.6245 C   0  0  0  0  0  0  0  0  0  0  0  0
  148.4503  141.3463  157.1544 Cl  0  0  0  0  0  0  0  0  0  0  0  0
  152.2132  141.9889  158.7920 C   0  0  0  0  0  0  0  0  0  0  0  0
  154.8124  140.2549  162.0890 H   0  0  0  0  0  0  0  0  0  0  0  0
  154.7764  141.5554  160.9027 H   0  0  0  0  0  0  0  0  0  0  0  0
  153.4534  140.3922  160.9765 H   0  0  0  0  0  0  0  0  0  0  0  0
  152.8590  141.2244  163.2719 H   0  0  0  0  0  0  0  0  0  0  0  0
  154.1580  142.3881  163.2040 H   0  0  0  0  0  0  0  0  0  0  0  0
  151.5019  142.4086  161.7761 H   0  0  0  0  0  0  0  0  0  0  0  0
  152.3454  143.7205  162.5874 H   0  0  0  0  0  0  0  0  0  0  0  0
  151.1163  143.4460  159.9699 H   0  0  0  0  0  0  0  0  0  0  0  0
  152.3866  145.4310  159.2643 H   0  0  0  0  0  0  0  0  0  0  0  0
  153.5490  144.4346  158.4171 H   0  0  0  0  0  0  0  0  0  0  0  0
  150.5820  144.7181  157.7345 H   0  0  0  0  0  0  0  0  0  0  0  0
  151.9199  145.3388  156.7957 H   0  0  0  0  0  0  0  0  0  0  0  0
  151.0221  143.2000  155.8453 H   0  0  0  0  0  0  0  0  0  0  0  0
  152.7049  143.0426  156.3006 H   0  0  0  0  0  0  0  0  0  0  0  0
  152.9321  138.4621  155.5538 H   0  0  0  0  0  0  0  0  0  0  0  0
  149.1630  136.0911  153.7952 H   0  0  0  0  0  0  0  0  0  0  0  0
  148.6011  137.6011  154.4807 H   0  0  0  0  0  0  0  0  0  0  0  0
  148.6309  138.9042  155.6940 H   0  0  0  0  0  0  0  0  0  0  0  0
  153.2482  141.7942  158.5067 H   0  0  0  0  0  0  0  0  0  0  0  0
  151.8810  141.1458  159.3979 H   0  0  0  0  0  0  0  0  0  0  0  0
  1  2  1  0  0  0  0
  1 21  1  0  0  0  0
  1 22  1  0  0  0  0
  1 23  1  0  0  0  0
  2  3  1  0  0  0  0
  2 24  1  0  0  0  0
  2 25  1  0  0  0  0
  3  4  1  0  0  0  0
  3 26  1  0  0  0  0
  3 27  1  0  0  0  0
  4  5  1  0  0  0  0
  5 20  1  0  0  0  0
  5  6  1  0  0  0  0
  5 28  1  0  0  0  0
  6  7  1  0  0  0  0
  6 29  1  0  0  0  0
  6 30  1  0  0  0  0
  7  8  1  0  0  0  0
  7 31  1  0  0  0  0
  7 32  1  0  0  0  0
  8  9  1  0  0  0  0
  8 33  1  0  0  0  0
  8 34  1  0  0  0  0
  9 10  1  0  0  0  0
  9 20  1  0  0  0  0
 10 18  1  0  0  0  0
 10 11  2  0  0  0  0
 11 12  1  0  0  0  0
 12 13  2  0  0  0  0
 12 35  1  0  0  0  0
 13 14  1  0  0  0  0
 13 17  1  0  0  0  0
 14 15  1  0  0  0  0
 14 16  2  0  0  0  0
 15 36  1  0  0  0  0
 15 37  1  0  0  0  0
 17 18  2  0  0  0  0
 17 38  1  0  0  0  0
 18 19  1  0  0  0  0
 20 39  1  0  0  0  0
 20 40  1  0  0  0  0
M  END
> <s_m_source_file>
AV-unprocessed.smi

> <i_m_source_file_index>
373

> <i_lp_mmshare_version>
43012

> <i_f3d_flags>
0

> <s_epik_input>
W0NIM11bQ0gyXVtDSDJdT1tDQEBIXTFbQ0gyXVtDSDJdW0NIMl1OKFtDSDJdMSljMm5bY0hdYyhDKD1PKVtOSDJdKVtjSF1jMkNs

> <s_epik_cmdline>
J2VwaWtfcHl0aG9uJywgJy1waCcsICc3LjAnLCAnLXRuJywgJzgnLCAnLW1hJywgJzIwMCcsICctbWV0YWxfYmluZGluZycsICctaW1hZScsICc8aW5maWxlLm1hZT4nLCAnLW9tYWUnLCAnPG91dGZpbGUubWFlPic=

> <r_lp_tautomer_probability>
1

> <r_epik_Ionization_Penalty>
3.23666e-05

> <r_epik_Ionization_Penalty_Charging>
0

> <r_epik_Ionization_Penalty_Neutral>
3.23666e-05

> <r_epik_State_Penalty>
-0

> <r_epik_Charging_Adjusted_Penalty>
0

> <i_epik_Tot_Q>
0

> <i_epik_Tot_abs_Q>
0

> <r_epik_Metal_State_Penalty>
-0

> <b_epik_Metal_Only>
0

> <s_lp_Force_Field>
OPLS_2005

> <r_lp_Energy>
19.6268

> <b_lp_Chiralities_Consistent>
1

> <s_lp_Variant>
AV-unprocessed.smi:373-2

> <Gold.Version>
5.8.1

> <Gold.Id.Protein>
6NUR|6NUR_protein|mol2

> <Gold.PLP.Fitness>
40.5677

> <Gold.PLP.PLP>
-36.6949

> <Gold.PLP.part.hbond>
-3.0000

> <Gold.PLP.part.metal>
0.0000

> <Gold.PLP.part.buried>
-2.7421

> <Gold.PLP.part.nonpolar>
-32.3099

> <Gold.PLP.part.repulsive>
0.2401

> <Gold.PLP.ligand.clash>
0.0000

> <Gold.PLP.ligand.torsion>
1.3424

> <Gold.PLP.Chemscore.Hbond>
2.0918

> <Gold.PLP.Chemscore.CHOScore>
0.0000

> <Gold.PLP.Chemscore.Metal>
0.0000

> <Gold.Chemscore.Hbonds>
donor molecule, donor type, donor heavy atom, donor atom, acceptor molecule, acceptor atom, score
      L1  H    15    36       P1  7948  0.35
      P1  H  7997  8008       L1    11  0.65
      P1  H 10752 10764       L1    16  1.00

> <Gold.PLP.Chemscore.Internal.Correction>
0.2823

> <Gold.Rescore>
     Score         DG    S(hbond)    S(metal)    S(lipo)     H(rot)  DE(clash)    DE(int)     intcor
     16.09     -19.44       1.48        0.00     111.39       1.57       1.89       1.45       ----

> <Gold.Chemscore.Fitness>
16.0931

> <Gold.Chemscore.DG>
-19.4390

> <Gold.Chemscore.ZeroCoef>
-5.4800

> <Gold.Chemscore.Hbond>
1.4796

> <Gold.Chemscore.Metal>
0.0000

> <Gold.Chemscore.Lipo>
111.3936

> <Gold.Chemscore.Internal_Hbond>
0.0000

> <Gold.Chemscore.DEClash>
1.8937

> <Gold.Chemscore.DEInternal>
1.4523

> <Gold.Chemscore.Rot>
1.5687

> <Gold.Chemscore.Internal.Correction>
   9.000000E+99

> <Gold.Chemscore.Hbonds>
donor molecule, donor type, donor heavy atom, donor atom, acceptor molecule, acceptor atom, score
      L1  H    15    36       P1  7948  0.32
      P1  H  7997  8008       L1    11  0.09
      P1  H 10752 10764       L1    16  0.99

> <Gold.Chemscore.Hbond.Weighted>
-4.9417

> <Gold.Chemscore.Metal.Weighted>
-0.0000

> <Gold.Chemscore.Lipo.Weighted>
-13.0330

> <Gold.Chemscore.Internal_Hbond.Weighted>
0.0000

> <Gold.Chemscore.DEClash.Weighted>
1.8937

> <Gold.Chemscore.DEInternal.Weighted>
1.4523

> <Gold.Chemscore.Rot.Weighted>
4.0158

> <Gold.Chemscore.Internal.Correction.Weighted>
   9.000000E+99

> <Gold.Protein.RotatedTorsions>
[ 6907 6896 6895 6894 ] final  127.17 input  -60.11 | X-H torsion
[ 7974 7965 7964 7962 ] final   87.35 input  175.53 | X-H torsion
[ 8008 7997 7996 7995 ] final  -41.71 input   59.86 | X-H torsion
[ 10167 10162 10161 10158 ] final   97.02 input  -65.29 | X-H torsion
[ 10718 10713 10712 10709 ] final  167.31 input   66.30 | X-H torsion
[ 10763 10752 10751 10750 ] final  -69.23 input  -60.55 | X-H torsion
[ 11005 11000 10999 10996 ] final -109.17 input  -57.11 | X-H torsion

> <Gold.Protein.ActiveResidues>
 VAL166  LYS551  ARG553  GLY616  TRP617  ASP618  TYR619  PRO620  LYS621  CYS622 
 ASP623  PHE694  ASN695  SER759  ASP760  ASP761  ALA762  ILE779  LEU786  VAL792 
 PHE793  MET794  SER795  GLU796  ALA797  LYS798  CYS799  TRP800  GLU811  SER814 

> <Gold.Protein.RotatedAtoms>
  152.3837  133.6581  159.6181 H   0  0  0  0  0  0  0  0  0  0  0  0  # atno 6907 bound_to 6896
  150.7761  133.9071  159.3367 H   0  0  0  0  0  0  0  0  0  0  0  0  # atno 6908 bound_to 6896
  151.6872  135.0953  160.0278 H   0  0  0  0  0  0  0  0  0  0  0  0  # atno 6909 bound_to 6896
  145.5601  139.2303  143.2464 H   0  0  0  0  0  0  0  0  0  0  0  0  # atno 7974 bound_to 7965
  154.4002  140.1492  156.3235 H   0  0  0  0  0  0  0  0  0  0  0  0  # atno 8008 bound_to 7997
  155.8508  140.3458  155.5670 H   0  0  0  0  0  0  0  0  0  0  0  0  # atno 8009 bound_to 7997
  155.7986  140.0867  157.1960 H   0  0  0  0  0  0  0  0  0  0  0  0  # atno 8010 bound_to 7997
  139.7840  144.6878  150.9984 H   0  0  0  0  0  0  0  0  0  0  0  0  # atno 10167 bound_to 10162
  157.0534  131.0320  151.2673 H   0  0  0  0  0  0  0  0  0  0  0  0  # atno 10718 bound_to 10713
  154.4005  135.6032  153.5894 H   0  0  0  0  0  0  0  0  0  0  0  0  # atno 10763 bound_to 10752
  152.9788  135.5905  154.4190 H   0  0  0  0  0  0  0  0  0  0  0  0  # atno 10764 bound_to 10752
  154.3988  135.2842  155.2088 H   0  0  0  0  0  0  0  0  0  0  0  0  # atno 10765 bound_to 10752
  141.0862  133.9134  157.2179 H   0  0  0  0  0  0  0  0  0  0  0  0  # atno 11005 bound_to 11000
  146.1857  140.6426  142.9169 LP  0  0  0  0  0  0  0  0  0  0  0  0  # atno 17320 bound_to 7965
  144.7487  140.5135  143.6817 LP  0  0  0  0  0  0  0  0  0  0  0  0  # atno 17321 bound_to 7965
  140.7819  143.4453  151.0492 LP  0  0  0  0  0  0  0  0  0  0  0  0  # atno 17342 bound_to 10162
  139.8132  143.7922  152.3172 LP  0  0  0  0  0  0  0  0  0  0  0  0  # atno 17343 bound_to 10162
  157.5012  130.7881  149.7607 LP  0  0  0  0  0  0  0  0  0  0  0  0  # atno 17370 bound_to 10713
  156.0000  130.3885  150.2641 LP  0  0  0  0  0  0  0  0  0  0  0  0  # atno 17371 bound_to 10713
  139.9681  135.0136  156.9440 LP  0  0  0  0  0  0  0  0  0  0  0  0  # atno 17394 bound_to 11000
  140.5357  134.0770  155.7327 LP  0  0  0  0  0  0  0  0  0  0  0  0  # atno 17395 bound_to 11000

$$$$
