AV-unprocessed.smi:1793|AV-procd|sdf|7228|dock1
  -GOLD-   22720 8473D 1   1.00000     0.00000
 Structure written by MMmdl.
 47 49  0  0  0  0  0  0  0  0  2 V2000
  152.0973  137.7276  155.2436 C   0  0  0  0  0  0  0  0  0  0  0  0
  150.5631  137.7989  155.1526 C   0  0  2  0  0  0  0  0  0  0  0  0
  150.0658  136.6905  154.3420 N   0  0  0  0  0  0  0  0  0  0  0  0
  150.1705  135.3917  154.6545 C   0  0  0  0  0  0  0  0  0  0  0  0
  150.7402  134.9745  155.6626 O   0  0  0  0  0  0  0  0  0  0  0  0
  149.5580  134.6230  153.7389 N   0  0  0  0  0  0  0  0  0  0  0  0
  149.3977  133.2086  153.7464 C   0  0  0  0  0  0  0  0  0  0  0  0
  150.2618  132.3750  154.5024 C   0  0  0  0  0  0  0  0  0  0  0  0
  150.0658  130.9814  154.5098 C   0  0  0  0  0  0  0  0  0  0  0  0
  149.0105  130.4395  153.7568 C   0  0  0  0  0  0  0  0  0  0  0  0
  148.2190  131.2561  153.0314 N   0  3  0  0  0  0  0  0  0  0  0  0
  148.3654  132.6036  152.9715 C   0  0  0  0  0  0  0  0  0  0  0  0
  147.4644  133.3273  152.1570 N   0  0  0  0  0  0  0  0  0  0  0  0
  146.6289  134.3764  152.7298 C   0  0  0  0  0  0  0  0  0  0  0  0
  145.5783  134.6728  151.6633 C   0  0  0  0  0  0  0  0  0  0  0  0
  145.3436  133.2990  151.0426 C   0  0  0  0  0  0  0  0  0  0  0  0
  146.7188  132.6269  151.1160 C   0  0  0  0  0  0  0  0  0  0  0  0
  150.0756  139.1254  154.5394 C   0  0  2  0  0  0  0  0  0  0  0  0
  150.3835  140.3712  155.3752 C   0  0  0  0  0  0  0  0  0  0  0  0
  149.2497  141.3322  155.0443 C   0  0  0  0  0  0  0  0  0  0  0  0
  148.2781  140.4945  154.2118 C   0  0  0  0  0  0  0  0  0  0  0  0
  148.6576  139.1517  154.4679 O   0  0  0  0  0  0  0  0  0  0  0  0
  152.4948  138.5251  155.8717 H   0  0  0  0  0  0  0  0  0  0  0  0
  152.5579  137.8187  154.2594 H   0  0  0  0  0  0  0  0  0  0  0  0
  152.4241  136.7822  155.6779 H   0  0  0  0  0  0  0  0  0  0  0  0
  150.1493  137.7172  156.1596 H   0  0  0  0  0  0  0  0  0  0  0  0
  149.5758  136.9390  153.4952 H   0  0  0  0  0  0  0  0  0  0  0  0
  149.0520  135.1153  153.0176 H   0  0  0  0  0  0  0  0  0  0  0  0
  151.0795  132.7845  155.0761 H   0  0  0  0  0  0  0  0  0  0  0  0
  150.7152  130.3393  155.0869 H   0  0  0  0  0  0  0  0  0  0  0  0
  148.7814  129.3848  153.7050 H   0  0  0  0  0  0  0  0  0  0  0  0
  146.1388  134.0207  153.6371 H   0  0  0  0  0  0  0  0  0  0  0  0
  147.2148  135.2621  152.9780 H   0  0  0  0  0  0  0  0  0  0  0  0
  144.6712  135.1190  152.0718 H   0  0  0  0  0  0  0  0  0  0  0  0
  145.9860  135.3540  150.9149 H   0  0  0  0  0  0  0  0  0  0  0  0
  144.6291  132.7413  151.6498 H   0  0  0  0  0  0  0  0  0  0  0  0
  144.9513  133.3520  150.0267 H   0  0  0  0  0  0  0  0  0  0  0  0
  147.2431  132.7494  150.1679 H   0  0  0  0  0  0  0  0  0  0  0  0
  146.6276  131.5592  151.3209 H   0  0  0  0  0  0  0  0  0  0  0  0
  150.4768  139.2493  153.5314 H   0  0  0  0  0  0  0  0  0  0  0  0
  150.3580  140.1338  156.4397 H   0  0  0  0  0  0  0  0  0  0  0  0
  151.3661  140.7867  155.1501 H   0  0  0  0  0  0  0  0  0  0  0  0
  148.7755  141.6878  155.9599 H   0  0  0  0  0  0  0  0  0  0  0  0
  149.5969  142.2025  154.4865 H   0  0  0  0  0  0  0  0  0  0  0  0
  147.2354  140.6716  154.4761 H   0  0  0  0  0  0  0  0  0  0  0  0
  148.4014  140.7057  153.1484 H   0  0  0  0  0  0  0  0  0  0  0  0
  147.4675  130.8318  152.4877 H   0  0  0  0  0  0  0  0  0  0  0  0
  1  2  1  0  0  0  0
  1 23  1  0  0  0  0
  1 24  1  0  0  0  0
  1 25  1  0  0  0  0
  2  3  1  0  0  0  0
  2 18  1  0  0  0  0
  2 26  1  0  0  0  0
  3  4  1  0  0  0  0
  3 27  1  0  0  0  0
  4  5  2  0  0  0  0
  4  6  1  0  0  0  0
  6  7  1  0  0  0  0
  6 28  1  0  0  0  0
  7 12  1  0  0  0  0
  7  8  2  0  0  0  0
  8  9  1  0  0  0  0
  8 29  1  0  0  0  0
  9 10  2  0  0  0  0
  9 30  1  0  0  0  0
 10 11  1  0  0  0  0
 10 31  1  0  0  0  0
 11 12  2  0  0  0  0
 11 47  1  0  0  0  0
 12 13  1  0  0  0  0
 13 17  1  0  0  0  0
 13 14  1  0  0  0  0
 14 15  1  0  0  0  0
 14 32  1  0  0  0  0
 14 33  1  0  0  0  0
 15 16  1  0  0  0  0
 15 34  1  0  0  0  0
 15 35  1  0  0  0  0
 16 17  1  0  0  0  0
 16 36  1  0  0  0  0
 16 37  1  0  0  0  0
 17 38  1  0  0  0  0
 17 39  1  0  0  0  0
 18 22  1  0  0  0  0
 18 19  1  0  0  0  0
 18 40  1  0  0  0  0
 19 20  1  0  0  0  0
 19 41  1  0  0  0  0
 19 42  1  0  0  0  0
 20 21  1  0  0  0  0
 20 43  1  0  0  0  0
 20 44  1  0  0  0  0
 21 22  1  0  0  0  0
 21 45  1  0  0  0  0
 21 46  1  0  0  0  0
M  CHG  1  11   1
M  END
> <s_m_source_file>
AV-unprocessed.smi

> <i_m_source_file_index>
1793

> <i_lp_mmshare_version>
43012

> <i_f3d_flags>
0

> <s_epik_input>
TzFbQ0gyXVtDSDJdW0NIMl1bQ0BIXTFbQ0BIXShbQ0gzXSlbTkhdQyg9TylbTkhdYzJbY0hdW2NIXVtjSF1uYzJOM1tDSDJdW0NIMl1bQ0gyXVtDSDJdMw==

> <s_epik_cmdline>
J2VwaWtfcHl0aG9uJywgJy1waCcsICc3LjAnLCAnLXRuJywgJzgnLCAnLW1hJywgJzIwMCcsICctbWV0YWxfYmluZGluZycsICctaW1hZScsICc8aW5maWxlLm1hZT4nLCAnLW9tYWUnLCAnPG91dGZpbGUubWFlPic=

> <r_lp_tautomer_probability>
0.999994

> <r_epik_Ionization_Penalty>
1.11092

> <r_epik_Ionization_Penalty_Charging>
1.1109

> <r_epik_Ionization_Penalty_Neutral>
1.9363e-05

> <r_epik_State_Penalty>
1.16888

> <r_epik_Charging_Adjusted_Penalty>
2.27978

> <i_epik_Tot_Q>
1

> <i_epik_Tot_abs_Q>
1

> <r_epik_Metal_State_Penalty>
1.25472

> <b_epik_Metal_Only>
0

> <s_lp_Force_Field>
OPLS_2005

> <r_lp_Energy>
52.5047

> <b_lp_Chiralities_Consistent>
1

> <s_lp_Variant>
AV-unprocessed.smi:1793-5

> <Gold.Version>
5.8.1

> <Gold.Id.Protein>
6NUR|6NUR_protein|mol2

> <Gold.PLP.Fitness>
42.0958

> <Gold.PLP.PLP>
-36.9340

> <Gold.PLP.part.hbond>
-3.1184

> <Gold.PLP.part.metal>
0.0000

> <Gold.PLP.part.buried>
0.2730

> <Gold.PLP.part.nonpolar>
-33.9448

> <Gold.PLP.part.repulsive>
0.4423

> <Gold.PLP.ligand.clash>
0.0000

> <Gold.PLP.ligand.torsion>
0.4233

> <Gold.PLP.Chemscore.Hbond>
1.8560

> <Gold.PLP.Chemscore.CHOScore>
0.0000

> <Gold.PLP.Chemscore.Metal>
0.0000

> <Gold.Chemscore.Hbonds>
donor molecule, donor type, donor heavy atom, donor atom, acceptor molecule, acceptor atom, score
      L1  H     3    27       P1  7948  0.85
      L1  H     6    28       P1  7948  0.80

> <Gold.PLP.Chemscore.Internal.Correction>
0.4405

> <Gold.Rescore>
     Score         DG    S(hbond)    S(metal)    S(lipo)     H(rot)  DE(clash)    DE(int)     intcor
     13.75     -15.61       1.27        0.00      80.42       1.38       0.06       1.79       ----

> <Gold.Chemscore.Fitness>
13.7540

> <Gold.Chemscore.DG>
-15.6055

> <Gold.Chemscore.ZeroCoef>
-5.4800

> <Gold.Chemscore.Hbond>
1.2724

> <Gold.Chemscore.Metal>
0.0000

> <Gold.Chemscore.Lipo>
80.4175

> <Gold.Chemscore.Internal_Hbond>
0.0000

> <Gold.Chemscore.DEClash>
0.0588

> <Gold.Chemscore.DEInternal>
1.7927

> <Gold.Chemscore.Rot>
1.3802

> <Gold.Chemscore.Internal.Correction>
   9.000000E+99

> <Gold.Chemscore.Hbonds>
donor molecule, donor type, donor heavy atom, donor atom, acceptor molecule, acceptor atom, score
      L1  H     3    27       P1  7948  0.65
      L1  H     6    28       P1  7948  0.11

> <Gold.Chemscore.Hbond.Weighted>
-4.2498

> <Gold.Chemscore.Metal.Weighted>
-0.0000

> <Gold.Chemscore.Lipo.Weighted>
-9.4088

> <Gold.Chemscore.Internal_Hbond.Weighted>
0.0000

> <Gold.Chemscore.DEClash.Weighted>
0.0588

> <Gold.Chemscore.DEInternal.Weighted>
1.7927

> <Gold.Chemscore.Rot.Weighted>
3.5332

> <Gold.Chemscore.Internal.Correction.Weighted>
   9.000000E+99

> <Gold.Protein.RotatedTorsions>
[ 6907 6896 6895 6894 ] final -126.45 input  -60.11 | X-H torsion
[ 7974 7965 7964 7962 ] final  169.42 input  175.53 | X-H torsion
[ 8008 7997 7996 7995 ] final  142.04 input   59.86 | X-H torsion
[ 10167 10162 10161 10158 ] final  -12.57 input  -65.29 | X-H torsion
[ 10718 10713 10712 10709 ] final   15.66 input   66.30 | X-H torsion
[ 10763 10752 10751 10750 ] final  151.41 input  -60.55 | X-H torsion
[ 11005 11000 10999 10996 ] final  137.64 input  -57.11 | X-H torsion

> <Gold.Protein.ActiveResidues>
 VAL166  LYS551  ARG553  GLY616  TRP617  ASP618  TYR619  PRO620  LYS621  CYS622 
 ASP623  PHE694  ASN695  SER759  ASP760  ASP761  ALA762  ILE779  LEU786  VAL792 
 PHE793  MET794  SER795  GLU796  ALA797  LYS798  CYS799  TRP800  GLU811  SER814 

> <Gold.Protein.RotatedAtoms>
  150.8970  133.7168  159.2888 H   0  0  0  0  0  0  0  0  0  0  0  0  # atno 6907 bound_to 6896
  151.4699  135.1043  159.9758 H   0  0  0  0  0  0  0  0  0  0  0  0  # atno 6908 bound_to 6896
  152.4854  133.8313  159.7160 H   0  0  0  0  0  0  0  0  0  0  0  0  # atno 6909 bound_to 6896
  144.7356  139.9051  143.6412 H   0  0  0  0  0  0  0  0  0  0  0  0  # atno 7974 bound_to 7965
  156.2956  140.2299  156.4663 H   0  0  0  0  0  0  0  0  0  0  0  0  # atno 8008 bound_to 7997
  154.7974  140.0450  157.1268 H   0  0  0  0  0  0  0  0  0  0  0  0  # atno 8009 bound_to 7997
  154.9573  140.3050  155.5050 H   0  0  0  0  0  0  0  0  0  0  0  0  # atno 8010 bound_to 7997
  140.7164  143.5518  150.9293 H   0  0  0  0  0  0  0  0  0  0  0  0  # atno 10167 bound_to 10162
  157.0567  130.6292  149.5778 H   0  0  0  0  0  0  0  0  0  0  0  0  # atno 10718 bound_to 10713
  154.1033  135.2844  155.3247 H   0  0  0  0  0  0  0  0  0  0  0  0  # atno 10763 bound_to 10752
  154.6540  135.5358  153.7939 H   0  0  0  0  0  0  0  0  0  0  0  0  # atno 10764 bound_to 10752
  153.0371  135.6517  154.1196 H   0  0  0  0  0  0  0  0  0  0  0  0  # atno 10765 bound_to 10752
  140.0128  134.9431  157.0313 H   0  0  0  0  0  0  0  0  0  0  0  0  # atno 11005 bound_to 11000
  146.1042  139.4041  143.0328 LP  0  0  0  0  0  0  0  0  0  0  0  0  # atno 17320 bound_to 7965
  145.7535  140.9963  143.1238 LP  0  0  0  0  0  0  0  0  0  0  0  0  # atno 17321 bound_to 7965
  139.9242  143.6569  152.3090 LP  0  0  0  0  0  0  0  0  0  0  0  0  # atno 17342 bound_to 10162
  139.6997  144.7636  151.1294 LP  0  0  0  0  0  0  0  0  0  0  0  0  # atno 17343 bound_to 10162
  155.9991  130.5066  150.7594 LP  0  0  0  0  0  0  0  0  0  0  0  0  # atno 17370 bound_to 10713
  157.4987  131.0917  151.0340 LP  0  0  0  0  0  0  0  0  0  0  0  0  # atno 17371 bound_to 10713
  140.4524  134.1569  155.7183 LP  0  0  0  0  0  0  0  0  0  0  0  0  # atno 17394 bound_to 11000
  141.1722  133.8585  157.1533 LP  0  0  0  0  0  0  0  0  0  0  0  0  # atno 17395 bound_to 11000

$$$$
