AV-unprocessed.smi:1388|AV-procd|sdf|5645|dock1
  -GOLD-   22720 5263D 1   1.00000     0.00000
 Structure written by MMmdl.
 45 46  0  0  0  0  0  0  0  0  3 V2000
  148.7605  132.5703  153.2038 C   0  0  0  0  0  0  0  0  0  0  0  0
  148.7452  133.9134  153.7718 N   0  5  0  0  0  0  0  0  0  0  0  0
  149.0863  134.1870  155.0614 C   0  0  0  0  0  0  0  0  0  0  0  0
  149.7484  133.5356  155.8752 O   0  0  0  0  0  0  0  0  0  0  0  0
  148.5204  135.5416  155.5059 C   0  0  0  0  0  0  0  0  0  0  0  0
  149.2118  136.6592  154.8131 N   0  3  2  0  0  0  0  0  0  0  0  0
  150.6712  136.6759  155.0848 C   0  0  0  0  0  0  0  0  0  0  0  0
  151.3852  137.7475  154.2407 C   0  0  0  0  0  0  0  0  0  0  0  0
  150.7753  139.1448  154.4452 C   0  0  2  0  0  0  0  0  0  0  0  0
  151.1065  139.6558  155.7750 N   0  0  0  0  0  0  0  0  0  0  0  0
  150.9116  140.9145  156.1948 C   0  0  0  0  0  0  0  0  0  0  0  0
  150.4103  141.7931  155.4931 O   0  0  0  0  0  0  0  0  0  0  0  0
  151.3305  141.0720  157.4631 N   0  0  0  0  0  0  0  0  0  0  0  0
  151.3134  142.2497  158.2626 C   0  0  0  0  0  0  0  0  0  0  0  0
  150.5195  143.3133  157.9819 N   0  0  0  0  0  0  0  0  0  0  0  0
  150.5561  144.4000  158.7800 C   0  0  0  0  0  0  0  0  0  0  0  0
  151.3865  144.4948  159.9098 C   0  0  0  0  0  0  0  0  0  0  0  0
  152.2142  143.4011  160.2158 C   0  0  0  0  0  0  0  0  0  0  0  0
  152.1827  142.2599  159.3862 C   0  0  0  0  0  0  0  0  0  0  0  0
  153.0776  141.0762  159.7160 C   0  0  0  0  0  0  0  0  0  0  0  0
  149.2521  139.0836  154.2182 C   0  0  0  0  0  0  0  0  0  0  0  0
  148.5862  137.9848  155.0652 C   0  0  0  0  0  0  0  0  0  0  0  0
  148.3916  132.5607  152.1785 H   0  0  0  0  0  0  0  0  0  0  0  0
  148.1338  131.8748  153.7629 H   0  0  0  0  0  0  0  0  0  0  0  0
  149.7627  132.1417  153.1766 H   0  0  0  0  0  0  0  0  0  0  0  0
  147.4453  135.5898  155.3253 H   0  0  0  0  0  0  0  0  0  0  0  0
  148.6576  135.6206  156.5858 H   0  0  0  0  0  0  0  0  0  0  0  0
  150.8418  136.8506  156.1480 H   0  0  0  0  0  0  0  0  0  0  0  0
  151.0979  135.6993  154.8527 H   0  0  0  0  0  0  0  0  0  0  0  0
  152.4505  137.7612  154.4744 H   0  0  0  0  0  0  0  0  0  0  0  0
  151.3105  137.4762  153.1866 H   0  0  0  0  0  0  0  0  0  0  0  0
  151.2150  139.8166  153.7056 H   0  0  0  0  0  0  0  0  0  0  0  0
  151.5281  139.0033  156.4196 H   0  0  0  0  0  0  0  0  0  0  0  0
  151.7146  140.2540  157.9115 H   0  0  0  0  0  0  0  0  0  0  0  0
  149.9042  145.2172  158.5089 H   0  0  0  0  0  0  0  0  0  0  0  0
  151.3880  145.3825  160.5249 H   0  0  0  0  0  0  0  0  0  0  0  0
  152.8640  143.4410  161.0775 H   0  0  0  0  0  0  0  0  0  0  0  0
  153.6690  141.2635  160.6127 H   0  0  0  0  0  0  0  0  0  0  0  0
  153.7673  140.8782  158.8950 H   0  0  0  0  0  0  0  0  0  0  0  0
  152.4788  140.1820  159.8907 H   0  0  0  0  0  0  0  0  0  0  0  0
  148.7923  140.0500  154.4290 H   0  0  0  0  0  0  0  0  0  0  0  0
  149.0566  138.8829  153.1638 H   0  0  0  0  0  0  0  0  0  0  0  0
  147.5234  137.9494  154.8241 H   0  0  0  0  0  0  0  0  0  0  0  0
  148.6584  138.2284  156.1263 H   0  0  0  0  0  0  0  0  0  0  0  0
  149.1056  136.4652  153.8266 H   0  0  0  0  0  0  0  0  0  0  0  0
  1  2  1  0  0  0  0
  1 23  1  0  0  0  0
  1 24  1  0  0  0  0
  1 25  1  0  0  0  0
  2  3  1  0  0  0  0
  3  4  2  0  0  0  0
  3  5  1  0  0  0  0
  5  6  1  0  0  0  0
  5 26  1  0  0  0  0
  5 27  1  0  0  0  0
  6 22  1  0  0  0  0
  6  7  1  0  0  0  0
  6 45  1  0  0  0  0
  7  8  1  0  0  0  0
  7 28  1  0  0  0  0
  7 29  1  0  0  0  0
  8  9  1  0  0  0  0
  8 30  1  0  0  0  0
  8 31  1  0  0  0  0
  9 10  1  0  0  0  0
  9 21  1  0  0  0  0
  9 32  1  0  0  0  0
 10 11  1  0  0  0  0
 10 33  1  0  0  0  0
 11 12  2  0  0  0  0
 11 13  1  0  0  0  0
 13 14  1  0  0  0  0
 13 34  1  0  0  0  0
 14 19  1  0  0  0  0
 14 15  2  0  0  0  0
 15 16  1  0  0  0  0
 16 17  2  0  0  0  0
 16 35  1  0  0  0  0
 17 18  1  0  0  0  0
 17 36  1  0  0  0  0
 18 19  2  0  0  0  0
 18 37  1  0  0  0  0
 19 20  1  0  0  0  0
 20 38  1  0  0  0  0
 20 39  1  0  0  0  0
 20 40  1  0  0  0  0
 21 22  1  0  0  0  0
 21 41  1  0  0  0  0
 21 42  1  0  0  0  0
 22 43  1  0  0  0  0
 22 44  1  0  0  0  0
M  CHG  1   2  -1
M  CHG  1   6   1
M  END
> <s_m_source_file>
AV-unprocessed.smi

> <i_m_source_file_index>
1388

> <i_lp_mmshare_version>
43012

> <i_f3d_flags>
0

> <s_epik_input>
W0NIM11bTkhdQyg9TylbQ0gyXU4xW0NIMl1bQ0gyXVtDSF0oW0NIMl1bQ0gyXTEpW05IXUMoPU8pW05IXWMybltjSF1bY0hdW2NIXWMyW0NIM10=

> <s_epik_cmdline>
J2VwaWtfcHl0aG9uJywgJy1waCcsICc3LjAnLCAnLXRuJywgJzgnLCAnLW1hJywgJzIwMCcsICctbWV0YWxfYmluZGluZycsICctaW1hZScsICc8aW5maWxlLm1hZT4nLCAnLW9tYWUnLCAnPG91dGZpbGUubWFlPic=

> <r_epik_Ionization_Penalty>
6.13951

> <r_epik_Ionization_Penalty_Charging>
6.13946

> <r_epik_Ionization_Penalty_Neutral>
4.54304e-05

> <r_epik_State_Penalty>
6.9595

> <r_epik_Charging_Adjusted_Penalty>
13.099

> <i_epik_Tot_Q>
0

> <i_epik_Tot_abs_Q>
2

> <r_epik_Metal_State_Penalty>
2.89141

> <b_epik_Metal_Only>
1

> <s_lp_Force_Field>
OPLS_2005

> <r_lp_Energy>
12.9207

> <b_lp_Chiralities_Consistent>
1

> <s_lp_Variant>
AV-unprocessed.smi:1388-5

> <Gold.Version>
5.8.1

> <Gold.Id.Protein>
6NUR|6NUR_protein|mol2

> <Gold.PLP.Fitness>
46.9315

> <Gold.PLP.PLP>
-38.5868

> <Gold.PLP.part.hbond>
-1.8739

> <Gold.PLP.part.metal>
0.0000

> <Gold.PLP.part.buried>
-3.9454

> <Gold.PLP.part.nonpolar>
-33.8856

> <Gold.PLP.part.repulsive>
1.3627

> <Gold.PLP.ligand.clash>
0.0000

> <Gold.PLP.ligand.torsion>
0.3645

> <Gold.PLP.Chemscore.Hbond>
2.0000

> <Gold.PLP.Chemscore.CHOScore>
0.9945

> <Gold.PLP.Chemscore.Metal>
0.0000

> <Gold.Chemscore.Hbonds>
donor molecule, donor type, donor heavy atom, donor atom, acceptor molecule, acceptor atom, score
      L1  H     6    45       P1  7948  2.00
      L1  C    16    35       P1  8029  1.00

> <Gold.PLP.Chemscore.Internal.Correction>
0.0902

> <Gold.Rescore>
     Score         DG    S(hbond)    S(metal)    S(lipo)     H(rot)  DE(clash)    DE(int)     intcor
     13.49     -14.96       0.92        0.00      90.28       1.63       0.02       1.45       ----

> <Gold.Chemscore.Fitness>
13.4889

> <Gold.Chemscore.DG>
-14.9575

> <Gold.Chemscore.ZeroCoef>
-5.4800

> <Gold.Chemscore.Hbond>
0.9245

> <Gold.Chemscore.Metal>
0.0000

> <Gold.Chemscore.Lipo>
90.2830

> <Gold.Chemscore.Internal_Hbond>
0.0000

> <Gold.Chemscore.DEClash>
0.0162

> <Gold.Chemscore.DEInternal>
1.4524

> <Gold.Chemscore.Rot>
1.6303

> <Gold.Chemscore.Internal.Correction>
   9.000000E+99

> <Gold.Chemscore.Hbonds>
donor molecule, donor type, donor heavy atom, donor atom, acceptor molecule, acceptor atom, score
      L1  H     6    45       P1  7948  0.97

> <Gold.Chemscore.Hbond.Weighted>
-3.0878

> <Gold.Chemscore.Metal.Weighted>
-0.0000

> <Gold.Chemscore.Lipo.Weighted>
-10.5631

> <Gold.Chemscore.Internal_Hbond.Weighted>
0.0000

> <Gold.Chemscore.DEClash.Weighted>
0.0162

> <Gold.Chemscore.DEInternal.Weighted>
1.4524

> <Gold.Chemscore.Rot.Weighted>
4.1735

> <Gold.Chemscore.Internal.Correction.Weighted>
   9.000000E+99

> <Gold.Protein.RotatedTorsions>
[ 6907 6896 6895 6894 ] final  117.74 input  -60.11 | X-H torsion
[ 7974 7965 7964 7962 ] final  133.69 input  175.53 | X-H torsion
[ 8008 7997 7996 7995 ] final   37.89 input   59.86 | X-H torsion
[ 10167 10162 10161 10158 ] final   -1.23 input  -65.29 | X-H torsion
[ 10718 10713 10712 10709 ] final   82.30 input   66.30 | X-H torsion
[ 10763 10752 10751 10750 ] final   63.94 input  -60.55 | X-H torsion
[ 11005 11000 10999 10996 ] final -169.61 input  -57.11 | X-H torsion

> <Gold.Protein.ActiveResidues>
 VAL166  LYS551  ARG553  GLY616  TRP617  ASP618  TYR619  PRO620  LYS621  CYS622 
 ASP623  PHE694  ASN695  SER759  ASP760  ASP761  ALA762  ILE779  LEU786  VAL792 
 PHE793  MET794  SER795  GLU796  ALA797  LYS798  CYS799  TRP800  GLU811  SER814 

> <Gold.Protein.RotatedAtoms>
  152.4591  133.7785  159.6837 H   0  0  0  0  0  0  0  0  0  0  0  0  # atno 6907 bound_to 6896
  150.8528  133.7750  159.3025 H   0  0  0  0  0  0  0  0  0  0  0  0  # atno 6908 bound_to 6896
  151.5340  135.1071  159.9961 H   0  0  0  0  0  0  0  0  0  0  0  0  # atno 6909 bound_to 6896
  144.9839  139.4475  143.5372 H   0  0  0  0  0  0  0  0  0  0  0  0  # atno 7974 bound_to 7965
  155.2112  140.3323  155.4328 H   0  0  0  0  0  0  0  0  0  0  0  0  # atno 8008 bound_to 7997
  156.2370  140.1877  156.7142 H   0  0  0  0  0  0  0  0  0  0  0  0  # atno 8009 bound_to 7997
  154.6077  140.0613  156.9438 H   0  0  0  0  0  0  0  0  0  0  0  0  # atno 8010 bound_to 7997
  140.6801  143.6800  150.8113 H   0  0  0  0  0  0  0  0  0  0  0  0  # atno 10167 bound_to 10162
  157.6854  131.0042  150.2354 H   0  0  0  0  0  0  0  0  0  0  0  0  # atno 10718 bound_to 10713
  153.0036  135.5411  154.6431 H   0  0  0  0  0  0  0  0  0  0  0  0  # atno 10763 bound_to 10752
  154.5682  135.2839  155.0856 H   0  0  0  0  0  0  0  0  0  0  0  0  # atno 10764 bound_to 10752
  154.2032  135.6480  153.5145 H   0  0  0  0  0  0  0  0  0  0  0  0  # atno 10765 bound_to 10752
  140.5288  134.5636  157.5069 H   0  0  0  0  0  0  0  0  0  0  0  0  # atno 11005 bound_to 11000
  146.3415  139.9130  142.8777 LP  0  0  0  0  0  0  0  0  0  0  0  0  # atno 17320 bound_to 7965
  145.2381  140.9999  143.3952 LP  0  0  0  0  0  0  0  0  0  0  0  0  # atno 17321 bound_to 7965
  140.0499  143.5260  152.2678 LP  0  0  0  0  0  0  0  0  0  0  0  0  # atno 17342 bound_to 10162
  139.6118  144.7610  151.2934 LP  0  0  0  0  0  0  0  0  0  0  0  0  # atno 17343 bound_to 10162
  156.2979  130.3754  149.7779 LP  0  0  0  0  0  0  0  0  0  0  0  0  # atno 17370 bound_to 10713
  156.5418  130.8303  151.3271 LP  0  0  0  0  0  0  0  0  0  0  0  0  # atno 17371 bound_to 10713
  139.9565  134.7526  156.0330 LP  0  0  0  0  0  0  0  0  0  0  0  0  # atno 17394 bound_to 11000
  141.1293  133.6591  156.3420 LP  0  0  0  0  0  0  0  0  0  0  0  0  # atno 17395 bound_to 11000

$$$$
