AV-unprocessed.smi:3349|AV-procd|sdf|12932|dock5
  -GOLD-   2272019363D 1   1.00000     0.00000
 Structure written by MMmdl.
 40 41  0  0  0  0  0  0  0  0  1 V2000
  151.3068  143.7109  157.3328 C   0  0  0  0  0  0  0  0  0  0  0  0
  151.2609  142.2156  157.7390 C   0  0  1  0  0  0  0  0  0  0  0  0
  151.1756  141.3503  156.4481 C   0  0  0  0  0  0  0  0  0  0  0  0
  149.9028  141.4870  155.7451 N   0  0  0  0  0  0  0  0  0  0  0  0
  149.5510  140.7963  154.6485 C   0  0  0  0  0  0  0  0  0  0  0  0
  150.2870  139.9636  154.1172 O   0  0  0  0  0  0  0  0  0  0  0  0
  148.1546  141.0911  154.0762 C   0  0  2  0  0  0  0  0  0  0  0  0
  147.4336  142.2377  154.8142 C   0  0  0  0  0  0  0  0  0  0  0  0
  147.3519  139.8746  154.0415 N   0  0  0  0  0  0  0  0  0  0  0  0
  147.5735  138.7174  153.4142 C   0  0  0  0  0  0  0  0  0  0  0  0
  146.6452  137.7975  153.6361 N   0  0  0  0  0  0  0  0  0  0  0  0
  145.8267  138.4980  154.4762 C   0  0  0  0  0  0  0  0  0  0  0  0
  146.2077  139.7436  154.7583 N   0  0  0  0  0  0  0  0  0  0  0  0
  152.3773  141.8309  158.6339 N   0  0  0  0  0  0  0  0  0  0  0  0
  152.4471  142.6733  159.8339 C   0  0  0  0  0  0  0  0  0  0  0  0
  153.5807  142.2634  160.7897 C   0  0  0  0  0  0  0  0  0  0  0  0
  153.4229  140.9013  161.1613 O   0  0  0  0  0  0  0  0  0  0  0  0
  153.4316  140.0383  160.0331 C   0  0  0  0  0  0  0  0  0  0  0  0
  152.2983  140.4312  159.0692 C   0  0  0  0  0  0  0  0  0  0  0  0
  150.5172  143.9767  156.6309 H   0  0  0  0  0  0  0  0  0  0  0  0
  152.2590  143.9628  156.8648 H   0  0  0  0  0  0  0  0  0  0  0  0
  151.1632  144.3746  158.1841 H   0  0  0  0  0  0  0  0  0  0  0  0
  150.3304  142.0650  158.2882 H   0  0  0  0  0  0  0  0  0  0  0  0
  151.9751  141.6287  155.7609 H   0  0  0  0  0  0  0  0  0  0  0  0
  151.3050  140.2889  156.6544 H   0  0  0  0  0  0  0  0  0  0  0  0
  149.2435  142.1524  156.1217 H   0  0  0  0  0  0  0  0  0  0  0  0
  148.2945  141.4119  153.0425 H   0  0  0  0  0  0  0  0  0  0  0  0
  148.0205  143.1562  154.7830 H   0  0  0  0  0  0  0  0  0  0  0  0
  147.2498  141.9986  155.8625 H   0  0  0  0  0  0  0  0  0  0  0  0
  146.4698  142.4512  154.3515 H   0  0  0  0  0  0  0  0  0  0  0  0
  148.4335  138.5431  152.7842 H   0  0  0  0  0  0  0  0  0  0  0  0
  144.9257  138.0759  154.8964 H   0  0  0  0  0  0  0  0  0  0  0  0
  152.6208  143.7130  159.5631 H   0  0  0  0  0  0  0  0  0  0  0  0
  151.4954  142.6379  160.3663 H   0  0  0  0  0  0  0  0  0  0  0  0
  154.5548  142.4118  160.3212 H   0  0  0  0  0  0  0  0  0  0  0  0
  153.5600  142.8813  161.6874 H   0  0  0  0  0  0  0  0  0  0  0  0
  154.3999  140.0901  159.5326 H   0  0  0  0  0  0  0  0  0  0  0  0
  153.3014  139.0101  160.3712 H   0  0  0  0  0  0  0  0  0  0  0  0
  151.3352  140.2459  159.5475 H   0  0  0  0  0  0  0  0  0  0  0  0
  152.3652  139.7577  158.2178 H   0  0  0  0  0  0  0  0  0  0  0  0
  1  2  1  0  0  0  0
  1 20  1  0  0  0  0
  1 21  1  0  0  0  0
  1 22  1  0  0  0  0
  2  3  1  0  0  0  0
  2 14  1  0  0  0  0
  2 23  1  0  0  0  0
  3  4  1  0  0  0  0
  3 24  1  0  0  0  0
  3 25  1  0  0  0  0
  4  5  1  0  0  0  0
  4 26  1  0  0  0  0
  5  6  2  0  0  0  0
  5  7  1  0  0  0  0
  7  8  1  0  0  0  0
  7  9  1  0  0  0  0
  7 27  1  0  0  0  0
  8 28  1  0  0  0  0
  8 29  1  0  0  0  0
  8 30  1  0  0  0  0
  9 13  1  0  0  0  0
  9 10  1  0  0  0  0
 10 11  2  0  0  0  0
 10 31  1  0  0  0  0
 11 12  1  0  0  0  0
 12 13  2  0  0  0  0
 12 32  1  0  0  0  0
 14 19  1  0  0  0  0
 14 15  1  0  0  0  0
 15 16  1  0  0  0  0
 15 33  1  0  0  0  0
 15 34  1  0  0  0  0
 16 17  1  0  0  0  0
 16 35  1  0  0  0  0
 16 36  1  0  0  0  0
 17 18  1  0  0  0  0
 18 19  1  0  0  0  0
 18 37  1  0  0  0  0
 18 38  1  0  0  0  0
 19 39  1  0  0  0  0
 19 40  1  0  0  0  0
M  END
> <s_m_source_file>
AV-unprocessed.smi

> <i_m_source_file_index>
3349

> <i_lp_mmshare_version>
43012

> <i_f3d_flags>
0

> <s_epik_input>
W0NIMl0xW0NIMl1PW0NIMl1bQ0gyXU4xW0NASF0oW0NIM10pW0NIMl1bTkhdQyg9TylbQ0BIXShbQ0gzXSluMltjSF1uW2NIXW4y

> <s_epik_cmdline>
J2VwaWtfcHl0aG9uJywgJy1waCcsICc3LjAnLCAnLXRuJywgJzgnLCAnLW1hJywgJzIwMCcsICctbWV0YWxfYmluZGluZycsICctaW1hZScsICc8aW5maWxlLm1hZT4nLCAnLW9tYWUnLCAnPG91dGZpbGUubWFlPic=

> <r_lp_tautomer_probability>
1

> <r_epik_Ionization_Penalty>
0.211373

> <r_epik_Ionization_Penalty_Charging>
0

> <r_epik_Ionization_Penalty_Neutral>
0.211373

> <r_epik_State_Penalty>
0.201459

> <r_epik_Charging_Adjusted_Penalty>
0.201459

> <i_epik_Tot_Q>
0

> <i_epik_Tot_abs_Q>
0

> <r_epik_Metal_State_Penalty>
0.201458

> <b_epik_Metal_Only>
0

> <s_lp_Force_Field>
OPLS_2005

> <r_lp_Energy>
34.2526

> <b_lp_Chiralities_Consistent>
1

> <s_lp_Variant>
AV-unprocessed.smi:3349-2

> <Gold.Version>
5.8.1

> <Gold.Id.Protein>
6NUR|6NUR_protein|mol2

> <Gold.PLP.Fitness>
38.8340

> <Gold.PLP.PLP>
-30.6268

> <Gold.PLP.part.hbond>
-1.0000

> <Gold.PLP.part.metal>
0.0000

> <Gold.PLP.part.buried>
-1.9602

> <Gold.PLP.part.nonpolar>
-28.4812

> <Gold.PLP.part.repulsive>
1.3149

> <Gold.PLP.ligand.clash>
0.2360

> <Gold.PLP.ligand.torsion>
0.1744

> <Gold.PLP.Chemscore.Hbond>
1.0000

> <Gold.PLP.Chemscore.CHOScore>
1.8824

> <Gold.PLP.Chemscore.Metal>
0.0000

> <Gold.Chemscore.Hbonds>
donor molecule, donor type, donor heavy atom, donor atom, acceptor molecule, acceptor atom, score
      P1  H  7989  7998       L1     6  1.00
      L1  C    10    31       P1  7948  0.85
      L1  C    10    31       P1  7957  1.00

> <Gold.PLP.Chemscore.Internal.Correction>
0.1450

> <Gold.Rescore>
     Score         DG    S(hbond)    S(metal)    S(lipo)     H(rot)  DE(clash)    DE(int)     intcor
      9.42     -10.56       0.89        0.00      73.81       2.56       0.13       1.01       ----

> <Gold.Chemscore.Fitness>
9.4239

> <Gold.Chemscore.DG>
-10.5578

> <Gold.Chemscore.ZeroCoef>
-5.4800

> <Gold.Chemscore.Hbond>
0.8945

> <Gold.Chemscore.Metal>
0.0000

> <Gold.Chemscore.Lipo>
73.8113

> <Gold.Chemscore.Internal_Hbond>
0.0000

> <Gold.Chemscore.DEClash>
0.1276

> <Gold.Chemscore.DEInternal>
1.0062

> <Gold.Chemscore.Rot>
2.5570

> <Gold.Chemscore.Internal.Correction>
   9.000000E+99

> <Gold.Chemscore.Hbonds>
donor molecule, donor type, donor heavy atom, donor atom, acceptor molecule, acceptor atom, score
      P1  H  7989  7998       L1     6  0.48

> <Gold.Chemscore.Hbond.Weighted>
-2.9877

> <Gold.Chemscore.Metal.Weighted>
-0.0000

> <Gold.Chemscore.Lipo.Weighted>
-8.6359

> <Gold.Chemscore.Internal_Hbond.Weighted>
0.0000

> <Gold.Chemscore.DEClash.Weighted>
0.1276

> <Gold.Chemscore.DEInternal.Weighted>
1.0062

> <Gold.Chemscore.Rot.Weighted>
6.5459

> <Gold.Chemscore.Internal.Correction.Weighted>
   9.000000E+99

> <Gold.Protein.RotatedTorsions>
[ 6907 6896 6895 6894 ] final  -50.34 input  -60.11 | X-H torsion
[ 7974 7965 7964 7962 ] final   35.29 input  175.53 | X-H torsion
[ 8008 7997 7996 7995 ] final -144.32 input   59.86 | X-H torsion
[ 10167 10162 10161 10158 ] final  -25.96 input  -65.29 | X-H torsion
[ 10718 10713 10712 10709 ] final   75.40 input   66.30 | X-H torsion
[ 10763 10752 10751 10750 ] final  138.18 input  -60.55 | X-H torsion
[ 11005 11000 10999 10996 ] final  -14.96 input  -57.11 | X-H torsion

> <Gold.Protein.ActiveResidues>
 VAL166  LYS551  ARG553  GLY616  TRP617  ASP618  TYR619  PRO620  LYS621  CYS622 
 ASP623  PHE694  ASN695  SER759  ASP760  ASP761  ALA762  ILE779  LEU786  VAL792 
 PHE793  MET794  SER795  GLU796  ALA797  LYS798  CYS799  TRP800  GLU811  SER814 

> <Gold.Protein.RotatedAtoms>
  150.8717  134.8092  159.7159 H   0  0  0  0  0  0  0  0  0  0  0  0  # atno 6907 bound_to 6896
  152.4719  134.4937  159.9713 H   0  0  0  0  0  0  0  0  0  0  0  0  # atno 6908 bound_to 6896
  151.5024  133.3463  159.2907 H   0  0  0  0  0  0  0  0  0  0  0  0  # atno 6909 bound_to 6896
  146.1293  139.6161  142.9237 H   0  0  0  0  0  0  0  0  0  0  0  0  # atno 7974 bound_to 7965
  155.5250  140.0594  157.2900 H   0  0  0  0  0  0  0  0  0  0  0  0  # atno 8008 bound_to 7997
  154.4504  140.1946  156.0482 H   0  0  0  0  0  0  0  0  0  0  0  0  # atno 8009 bound_to 7997
  156.0692  140.3262  155.7559 H   0  0  0  0  0  0  0  0  0  0  0  0  # atno 8010 bound_to 7997
  140.7285  143.4220  151.0937 H   0  0  0  0  0  0  0  0  0  0  0  0  # atno 10167 bound_to 10162
  157.6632  130.9724  150.1347 H   0  0  0  0  0  0  0  0  0  0  0  0  # atno 10718 bound_to 10713
  153.8854  135.3039  155.3446 H   0  0  0  0  0  0  0  0  0  0  0  0  # atno 10763 bound_to 10752
  154.7742  135.4870  153.9713 H   0  0  0  0  0  0  0  0  0  0  0  0  # atno 10764 bound_to 10752
  153.1328  135.6807  153.9249 H   0  0  0  0  0  0  0  0  0  0  0  0  # atno 10765 bound_to 10752
  140.7918  133.8282  155.9387 H   0  0  0  0  0  0  0  0  0  0  0  0  # atno 11005 bound_to 11000
  145.5296  141.0428  143.2390 LP  0  0  0  0  0  0  0  0  0  0  0  0  # atno 17320 bound_to 7965
  144.7674  139.6813  143.7209 LP  0  0  0  0  0  0  0  0  0  0  0  0  # atno 17321 bound_to 7965
  139.7866  143.8278  152.3146 LP  0  0  0  0  0  0  0  0  0  0  0  0  # atno 17342 bound_to 10162
  139.8247  144.7280  150.9526 LP  0  0  0  0  0  0  0  0  0  0  0  0  # atno 17343 bound_to 10162
  156.2185  130.3672  149.8584 LP  0  0  0  0  0  0  0  0  0  0  0  0  # atno 17370 bound_to 10713
  156.6443  130.8718  151.3520 LP  0  0  0  0  0  0  0  0  0  0  0  0  # atno 17371 bound_to 10713
  140.9382  134.1935  157.4816 LP  0  0  0  0  0  0  0  0  0  0  0  0  # atno 17394 bound_to 11000
  139.8730  134.9861  156.5309 LP  0  0  0  0  0  0  0  0  0  0  0  0  # atno 17395 bound_to 11000

$$$$
