AV-unprocessed.smi:21|AV-procd|sdf|151|dock1
  -GOLD-   2262015373D 1   1.00000     0.00000
 Structure written by MMmdl.
 62 65  0  0  0  0  0  0  0  0  2 V2000
  143.4498  132.8476  151.3931 C   0  0  0  0  0  0  0  0  0  0  0  0
  144.3396  133.5111  152.2776 O   0  0  0  0  0  0  0  0  0  0  0  0
  145.5469  133.9391  151.6608 C   0  0  1  0  0  0  0  0  0  0  0  0
  145.4393  135.4315  151.3734 C   0  0  0  0  0  0  0  0  0  0  0  0
  145.8364  136.0855  152.6998 C   0  0  2  0  0  0  0  0  0  0  0  0
  146.3434  137.5353  152.5568 C   0  0  0  0  0  0  0  0  0  0  0  0
  146.6669  138.1473  153.8477 N   0  0  0  0  0  0  0  0  0  0  0  0
  145.5651  138.6484  154.6597 C   0  0  0  0  0  0  0  0  0  0  0  0
  147.9439  138.5458  154.1132 C   0  0  0  0  0  0  0  0  0  0  0  0
  148.9640  137.8205  153.5808 N   0  0  0  0  0  0  0  0  0  0  0  0
  150.2365  138.1608  153.7998 C   0  0  0  0  0  0  0  0  0  0  0  0
  150.7139  139.1831  154.5084 N   0  0  0  0  0  0  0  0  0  0  0  0
  149.7038  139.9221  155.0470 C   0  0  0  0  0  0  0  0  0  0  0  0
  148.3056  139.6782  154.9080 C   0  0  0  0  0  0  0  0  0  0  0  0
  147.5990  140.6578  155.6002 N   0  0  0  0  0  0  0  0  0  0  0  0
  148.5186  141.4234  156.1196 C   0  0  0  0  0  0  0  0  0  0  0  0
  149.8116  141.0599  155.8263 N   0  0  0  0  0  0  0  0  0  0  0  0
  151.0267  141.7293  156.2554 C   0  0  0  0  0  0  0  0  0  0  0  0
  151.2953  141.5601  157.7733 C   0  0  1  0  0  0  0  0  0  0  0  0
  151.7381  140.1170  158.1089 C   0  0  0  0  0  0  0  0  0  0  0  0
  153.1291  139.9522  157.9275 O   0  0  0  0  0  0  0  0  0  0  0  0
  152.2784  142.6168  158.3483 C   0  0  1  0  0  0  0  0  0  0  0  0
  151.8954  144.0790  158.1450 C   0  0  0  0  0  0  0  0  0  0  0  0
  152.5810  144.7576  159.3222 C   0  0  0  0  0  0  0  0  0  0  0  0
  152.3709  143.8340  160.3769 O   0  0  0  0  0  0  0  0  0  0  0  0
  152.5488  142.5192  159.8610 C   0  0  0  0  0  0  0  0  0  0  0  0
  146.8797  135.1956  153.2594 N   0  3  1  0  0  0  0  0  0  0  0  0
  146.9288  135.1742  154.7378 C   0  0  0  0  0  0  0  0  0  0  0  0
  146.7208  133.8532  152.6494 C   0  0  0  0  0  0  0  0  0  0  0  0
  145.7315  133.3795  150.7422 H   0  0  0  0  0  0  0  0  0  0  0  0
  144.9709  136.0578  153.3647 H   0  0  0  0  0  0  0  0  0  0  0  0
  142.5617  132.5316  151.9401 H   0  0  0  0  0  0  0  0  0  0  0  0
  143.9024  131.9602  150.9504 H   0  0  0  0  0  0  0  0  0  0  0  0
  143.1285  133.5116  150.5895 H   0  0  0  0  0  0  0  0  0  0  0  0
  146.1542  135.6999  150.5943 H   0  0  0  0  0  0  0  0  0  0  0  0
  144.4474  135.7286  151.0308 H   0  0  0  0  0  0  0  0  0  0  0  0
  147.2543  137.5404  151.9577 H   0  0  0  0  0  0  0  0  0  0  0  0
  145.6302  138.1312  151.9871 H   0  0  0  0  0  0  0  0  0  0  0  0
  145.7876  138.5487  155.7225 H   0  0  0  0  0  0  0  0  0  0  0  0
  144.6519  138.0859  154.4628 H   0  0  0  0  0  0  0  0  0  0  0  0
  145.3662  139.6969  154.4354 H   0  0  0  0  0  0  0  0  0  0  0  0
  150.9782  137.5230  153.3413 H   0  0  0  0  0  0  0  0  0  0  0  0
  148.2766  142.2850  156.7248 H   0  0  0  0  0  0  0  0  0  0  0  0
  151.8562  141.3328  155.6700 H   0  0  0  0  0  0  0  0  0  0  0  0
  150.9334  142.7794  155.9813 H   0  0  0  0  0  0  0  0  0  0  0  0
  150.3443  141.7240  158.2828 H   0  0  0  0  0  0  0  0  0  0  0  0
  151.5196  139.8708  159.1476 H   0  0  0  0  0  0  0  0  0  0  0  0
  151.2044  139.3931  157.4926 H   0  0  0  0  0  0  0  0  0  0  0  0
  153.4849  139.5285  158.6940 H   0  0  0  0  0  0  0  0  0  0  0  0
  153.2469  142.4748  157.8668 H   0  0  0  0  0  0  0  0  0  0  0  0
  152.2212  144.4738  157.1825 H   0  0  0  0  0  0  0  0  0  0  0  0
  150.8203  144.2323  158.2252 H   0  0  0  0  0  0  0  0  0  0  0  0
  153.6508  144.8737  159.1405 H   0  0  0  0  0  0  0  0  0  0  0  0
  152.1586  145.7361  159.5518 H   0  0  0  0  0  0  0  0  0  0  0  0
  151.8940  141.8214  160.3816 H   0  0  0  0  0  0  0  0  0  0  0  0
  153.5743  142.1955  160.0431 H   0  0  0  0  0  0  0  0  0  0  0  0
  146.0002  134.7827  155.1558 H   0  0  0  0  0  0  0  0  0  0  0  0
  147.0869  136.1771  155.1352 H   0  0  0  0  0  0  0  0  0  0  0  0
  147.7507  134.5454  155.0815 H   0  0  0  0  0  0  0  0  0  0  0  0
  146.5789  133.0695  153.3944 H   0  0  0  0  0  0  0  0  0  0  0  0
  147.6428  133.6232  152.1147 H   0  0  0  0  0  0  0  0  0  0  0  0
  147.7675  135.5495  152.9322 H   0  0  0  0  0  0  0  0  0  0  0  0
  1  2  1  0  0  0  0
  1 32  1  0  0  0  0
  1 33  1  0  0  0  0
  1 34  1  0  0  0  0
  2  3  1  0  0  0  0
  3 30  1  0  0  0  0
  3 29  1  0  0  0  0
  3  4  1  0  0  0  0
  4  5  1  0  0  0  0
  4 35  1  0  0  0  0
  4 36  1  0  0  0  0
  5 31  1  0  0  0  0
  5  6  1  0  0  0  0
  5 27  1  0  0  0  0
  6  7  1  0  0  0  0
  6 37  1  0  0  0  0
  6 38  1  0  0  0  0
  7  8  1  0  0  0  0
  7  9  1  0  0  0  0
  8 39  1  0  0  0  0
  8 40  1  0  0  0  0
  8 41  1  0  0  0  0
  9 14  1  0  0  0  0
  9 10  2  0  0  0  0
 10 11  1  0  0  0  0
 11 12  2  0  0  0  0
 11 42  1  0  0  0  0
 12 13  1  0  0  0  0
 13 17  1  0  0  0  0
 13 14  2  0  0  0  0
 14 15  1  0  0  0  0
 15 16  2  0  0  0  0
 16 17  1  0  0  0  0
 16 43  1  0  0  0  0
 17 18  1  0  0  0  0
 18 19  1  0  0  0  0
 18 44  1  0  0  0  0
 18 45  1  0  0  0  0
 19 20  1  0  0  0  0
 19 22  1  0  0  0  0
 19 46  1  0  0  0  0
 20 21  1  0  0  0  0
 20 47  1  0  0  0  0
 20 48  1  0  0  0  0
 21 49  1  0  0  0  0
 22 26  1  0  0  0  0
 22 23  1  0  0  0  0
 22 50  1  0  0  0  0
 23 24  1  0  0  0  0
 23 51  1  0  0  0  0
 23 52  1  0  0  0  0
 24 25  1  0  0  0  0
 24 53  1  0  0  0  0
 24 54  1  0  0  0  0
 25 26  1  0  0  0  0
 26 55  1  0  0  0  0
 26 56  1  0  0  0  0
 27 28  1  0  0  0  0
 27 29  1  0  0  0  0
 27 62  1  0  0  0  0
 28 57  1  0  0  0  0
 28 58  1  0  0  0  0
 28 59  1  0  0  0  0
 29 60  1  0  0  0  0
 29 61  1  0  0  0  0
M  CHG  1  27   1
M  END
> <s_m_source_file>
AV-unprocessed.smi

> <i_m_source_file_index>
21

> <i_lp_mmshare_version>
43012

> <i_f3d_flags>
0

> <s_epik_input>
W0NIM11PW0NASF0xW0NIMl1bQ0BIXShOKFtDSDNdKVtDSDJdMSlbQ0gyXU4oW0NIM10pYyhuW2NIXW4yKWMoYzIzKW5bY0hdbjNbQ0gyXVtDQEhdKFtDSDJdW09IXSlbQ0BASF00W0NIMl1bQ0gyXU9bQ0gyXTQ=

> <s_epik_cmdline>
J2VwaWtfcHl0aG9uJywgJy1waCcsICc3LjAnLCAnLXRuJywgJzgnLCAnLW1hJywgJzIwMCcsICctbWV0YWxfYmluZGluZycsICctaW1hZScsICc8aW5maWxlLm1hZT4nLCAnLW9tYWUnLCAnPG91dGZpbGUubWFlPic=

> <r_lp_tautomer_probability>
1

> <r_epik_Ionization_Penalty>
0.0157465

> <r_epik_Ionization_Penalty_Charging>
0.015354

> <r_epik_Ionization_Penalty_Neutral>
0.000392529

> <r_epik_State_Penalty>
0.0120612

> <r_epik_Charging_Adjusted_Penalty>
0.0274152

> <i_epik_Tot_Q>
1

> <i_epik_Tot_abs_Q>
1

> <r_epik_Metal_State_Penalty>
0.0121253

> <b_epik_Metal_Only>
0

> <s_lp_Force_Field>
OPLS_2005

> <r_lp_Energy>
59.9021

> <b_lp_Chiralities_Consistent>
1

> <s_lp_Variant>
AV-unprocessed.smi:21-31

> <Gold.Version>
5.8.1

> <Gold.Id.Protein>
6NUR|6NUR_protein|mol2

> <Gold.PLP.Fitness>
55.5158

> <Gold.PLP.PLP>
-40.9119

> <Gold.PLP.part.hbond>
-3.0000

> <Gold.PLP.part.metal>
0.0000

> <Gold.PLP.part.buried>
-0.2051

> <Gold.PLP.part.nonpolar>
-42.7153

> <Gold.PLP.part.repulsive>
5.0957

> <Gold.PLP.ligand.clash>
0.0000

> <Gold.PLP.ligand.torsion>
1.3926

> <Gold.PLP.Chemscore.Hbond>
3.9280

> <Gold.PLP.Chemscore.CHOScore>
1.6380

> <Gold.PLP.Chemscore.Metal>
0.0000

> <Gold.Chemscore.Hbonds>
donor molecule, donor type, donor heavy atom, donor atom, acceptor molecule, acceptor atom, score
      L1  H    27    62       P1  7948  2.00
      P1  H  7989  7998       L1    12  0.50
      P1  H  7997  8008       L1    21  1.00
      L1  C    11    42       P1  7948  0.02
      L1  C    11    42       P1  7949  1.00
      L1  C    16    43       P1  8028  0.39

> <Gold.PLP.Chemscore.Internal.Correction>
0.6912

> <Gold.Rescore>
     Score         DG    S(hbond)    S(metal)    S(lipo)     H(rot)  DE(clash)    DE(int)     intcor
     10.71     -16.14       1.98        0.00     101.76       3.08       2.94       2.49       ----

> <Gold.Chemscore.Fitness>
10.7095

> <Gold.Chemscore.DG>
-16.1398

> <Gold.Chemscore.ZeroCoef>
-5.4800

> <Gold.Chemscore.Hbond>
1.9844

> <Gold.Chemscore.Metal>
0.0000

> <Gold.Chemscore.Lipo>
101.7603

> <Gold.Chemscore.Internal_Hbond>
0.0000

> <Gold.Chemscore.DEClash>
2.9417

> <Gold.Chemscore.DEInternal>
2.4886

> <Gold.Chemscore.Rot>
3.0758

> <Gold.Chemscore.Internal.Correction>
   9.000000E+99

> <Gold.Chemscore.Hbonds>
donor molecule, donor type, donor heavy atom, donor atom, acceptor molecule, acceptor atom, score
      L1  H    27    62       P1  7948  0.99
      P1  H  7989  7998       L1    12  0.06
      P1  H  7997  8008       L1    21  0.49

> <Gold.Chemscore.Hbond.Weighted>
-6.6280

> <Gold.Chemscore.Metal.Weighted>
-0.0000

> <Gold.Chemscore.Lipo.Weighted>
-11.9060

> <Gold.Chemscore.Internal_Hbond.Weighted>
0.0000

> <Gold.Chemscore.DEClash.Weighted>
2.9417

> <Gold.Chemscore.DEInternal.Weighted>
2.4886

> <Gold.Chemscore.Rot.Weighted>
7.8741

> <Gold.Chemscore.Internal.Correction.Weighted>
   9.000000E+99

> <Gold.Protein.RotatedTorsions>
[ 6907 6896 6895 6894 ] final   64.32 input  -60.11 | X-H torsion
[ 7974 7965 7964 7962 ] final   60.82 input  175.53 | X-H torsion
[ 8008 7997 7996 7995 ] final  -71.60 input   59.86 | X-H torsion
[ 10167 10162 10161 10158 ] final  -98.95 input  -65.29 | X-H torsion
[ 10718 10713 10712 10709 ] final  -61.08 input   66.30 | X-H torsion
[ 10763 10752 10751 10750 ] final  -44.87 input  -60.55 | X-H torsion
[ 11005 11000 10999 10996 ] final   29.97 input  -57.11 | X-H torsion

> <Gold.Protein.ActiveResidues>
 VAL166  LYS551  ARG553  GLY616  TRP617  ASP618  TYR619  PRO620  LYS621  CYS622 
 ASP623  PHE694  ASN695  SER759  ASP760  ASP761  ALA762  ILE779  LEU786  VAL792 
 PHE793  MET794  SER795  GLU796  ALA797  LYS798  CYS799  TRP800  GLU811  SER814 

> <Gold.Protein.RotatedAtoms>
  152.4322  134.5756  159.9933 H   0  0  0  0  0  0  0  0  0  0  0  0  # atno 6907 bound_to 6896
  151.5876  133.3364  159.3029 H   0  0  0  0  0  0  0  0  0  0  0  0  # atno 6908 bound_to 6896
  150.8216  134.7462  159.6842 H   0  0  0  0  0  0  0  0  0  0  0  0  # atno 6909 bound_to 6896
  145.8917  139.3516  143.0645 H   0  0  0  0  0  0  0  0  0  0  0  0  # atno 7974 bound_to 7965
  154.5100  140.0812  156.7971 H   0  0  0  0  0  0  0  0  0  0  0  0  # atno 8008 bound_to 7997
  155.3806  140.3427  155.4228 H   0  0  0  0  0  0  0  0  0  0  0  0  # atno 8009 bound_to 7997
  156.1562  140.1574  156.8676 H   0  0  0  0  0  0  0  0  0  0  0  0  # atno 8010 bound_to 7997
  140.2676  143.3365  152.0566 H   0  0  0  0  0  0  0  0  0  0  0  0  # atno 10167 bound_to 10162
  156.0946  130.4195  150.0943 H   0  0  0  0  0  0  0  0  0  0  0  0  # atno 10718 bound_to 10713
  154.0192  135.6671  153.4771 H   0  0  0  0  0  0  0  0  0  0  0  0  # atno 10763 bound_to 10752
  153.0587  135.5040  154.8039 H   0  0  0  0  0  0  0  0  0  0  0  0  # atno 10764 bound_to 10752
  154.6948  135.3068  154.9392 H   0  0  0  0  0  0  0  0  0  0  0  0  # atno 10765 bound_to 10752
  140.2993  134.2775  155.7757 H   0  0  0  0  0  0  0  0  0  0  0  0  # atno 11005 bound_to 11000
  145.8900  140.9310  143.0557 LP  0  0  0  0  0  0  0  0  0  0  0  0  # atno 17320 bound_to 7965
  144.6731  140.0892  143.7466 LP  0  0  0  0  0  0  0  0  0  0  0  0  # atno 17321 bound_to 7965
  139.4998  144.6678  151.6315 LP  0  0  0  0  0  0  0  0  0  0  0  0  # atno 17342 bound_to 10162
  140.5916  143.9770  150.6328 LP  0  0  0  0  0  0  0  0  0  0  0  0  # atno 17343 bound_to 10162
  156.8945  130.9599  151.3584 LP  0  0  0  0  0  0  0  0  0  0  0  0  # atno 17370 bound_to 10713
  157.6104  130.8579  149.8943 LP  0  0  0  0  0  0  0  0  0  0  0  0  # atno 17371 bound_to 10713
  141.2131  133.7636  156.9743 LP  0  0  0  0  0  0  0  0  0  0  0  0  # atno 17394 bound_to 11000
  140.1124  134.9468  157.2084 LP  0  0  0  0  0  0  0  0  0  0  0  0  # atno 17395 bound_to 11000

$$$$
