AV-unprocessed.smi:2122|AV-procd|sdf|8646|dock2
  -GOLD-   2272011393D 1   1.00000     0.00000
 Structure written by MMmdl.
 41 41  0  0  0  0  0  0  0  0  1 V2000
  152.7417  142.4491  160.4569 C   0  0  0  0  0  0  0  0  0  0  0  0
  152.3300  142.9392  159.0645 C   0  0  0  0  0  0  0  0  0  0  0  0
  151.3159  142.0072  158.3882 C   0  0  0  0  0  0  0  0  0  0  0  0
  151.0578  142.3899  156.9209 C   0  0  0  0  0  0  0  0  0  0  0  0
  150.6258  141.2632  156.1184 N   0  0  0  0  0  0  0  0  0  0  0  0
  149.5045  141.2881  155.2842 C   0  0  0  0  0  0  0  0  0  0  0  0
  148.7656  142.4587  155.2083 N   0  0  0  0  0  0  0  0  0  0  0  0
  149.1390  140.2094  154.5330 C   0  0  0  0  0  0  0  0  0  0  0  0
  148.0211  140.2144  153.7004 N   0  0  0  0  0  0  0  0  0  0  0  0
  147.1874  141.4043  153.6053 C   0  0  0  0  0  0  0  0  0  0  0  0
  147.4347  139.0073  153.1180 C   0  0  0  0  0  0  0  0  0  0  0  0
  146.8585  139.2173  151.7076 C   0  0  0  0  0  0  0  0  0  0  0  0
  146.7740  137.9610  151.0567 O   0  0  0  0  0  0  0  0  0  0  0  0
  145.9177  137.0572  151.7329 C   0  0  0  0  0  0  0  0  0  0  0  0
  149.9209  138.9673  154.5873 C   0  0  0  0  0  0  0  0  0  0  0  0
  149.6682  137.9312  153.9736 O   0  0  0  0  0  0  0  0  0  0  0  0
  151.0389  139.0127  155.4166 N   0  0  0  0  0  0  0  0  0  0  0  0
  151.4384  140.1059  156.1773 C   0  0  0  0  0  0  0  0  0  0  0  0
  152.4622  140.0274  156.8573 O   0  0  0  0  0  0  0  0  0  0  0  0
  151.6100  138.1817  155.4666 H   0  0  0  0  0  0  0  0  0  0  0  0
  153.4637  143.1282  160.9106 H   0  0  0  0  0  0  0  0  0  0  0  0
  153.1996  141.4610  160.4067 H   0  0  0  0  0  0  0  0  0  0  0  0
  151.8803  142.3859  161.1225 H   0  0  0  0  0  0  0  0  0  0  0  0
  151.9076  143.9413  159.1469 H   0  0  0  0  0  0  0  0  0  0  0  0
  153.2179  143.0290  158.4378 H   0  0  0  0  0  0  0  0  0  0  0  0
  151.6787  140.9797  158.4375 H   0  0  0  0  0  0  0  0  0  0  0  0
  150.3785  142.0299  158.9453 H   0  0  0  0  0  0  0  0  0  0  0  0
  150.3089  143.1783  156.8266 H   0  0  0  0  0  0  0  0  0  0  0  0
  151.9534  142.7938  156.4501 H   0  0  0  0  0  0  0  0  0  0  0  0
  149.0219  143.2794  155.7381 H   0  0  0  0  0  0  0  0  0  0  0  0
  147.9467  142.5380  154.6230 H   0  0  0  0  0  0  0  0  0  0  0  0
  147.6372  142.2481  154.1304 H   0  0  0  0  0  0  0  0  0  0  0  0
  146.2063  141.2194  154.0442 H   0  0  0  0  0  0  0  0  0  0  0  0
  147.0509  141.6926  152.5627 H   0  0  0  0  0  0  0  0  0  0  0  0
  148.1928  138.2234  153.0941 H   0  0  0  0  0  0  0  0  0  0  0  0
  146.6392  138.6485  153.7729 H   0  0  0  0  0  0  0  0  0  0  0  0
  145.8670  139.6688  151.7727 H   0  0  0  0  0  0  0  0  0  0  0  0
  147.4919  139.8882  151.1254 H   0  0  0  0  0  0  0  0  0  0  0  0
  145.8850  136.1103  151.1941 H   0  0  0  0  0  0  0  0  0  0  0  0
  144.9001  137.4459  151.7915 H   0  0  0  0  0  0  0  0  0  0  0  0
  146.2754  136.8569  152.7438 H   0  0  0  0  0  0  0  0  0  0  0  0
  1  2  1  0  0  0  0
  1 21  1  0  0  0  0
  1 22  1  0  0  0  0
  1 23  1  0  0  0  0
  2  3  1  0  0  0  0
  2 24  1  0  0  0  0
  2 25  1  0  0  0  0
  3  4  1  0  0  0  0
  3 26  1  0  0  0  0
  3 27  1  0  0  0  0
  4  5  1  0  0  0  0
  4 28  1  0  0  0  0
  4 29  1  0  0  0  0
  5 18  1  0  0  0  0
  5  6  1  0  0  0  0
  6  7  1  0  0  0  0
  6  8  2  0  0  0  0
  7 30  1  0  0  0  0
  7 31  1  0  0  0  0
  8  9  1  0  0  0  0
  8 15  1  0  0  0  0
  9 10  1  0  0  0  0
  9 11  1  0  0  0  0
 10 32  1  0  0  0  0
 10 33  1  0  0  0  0
 10 34  1  0  0  0  0
 11 12  1  0  0  0  0
 11 35  1  0  0  0  0
 11 36  1  0  0  0  0
 12 13  1  0  0  0  0
 12 37  1  0  0  0  0
 12 38  1  0  0  0  0
 13 14  1  0  0  0  0
 14 39  1  0  0  0  0
 14 40  1  0  0  0  0
 14 41  1  0  0  0  0
 15 16  2  0  0  0  0
 15 17  1  0  0  0  0
 17 20  1  0  0  0  0
 17 18  1  0  0  0  0
 18 19  2  0  0  0  0
M  END
> <s_m_source_file>
AV-unprocessed.smi

> <i_m_source_file_index>
2122

> <i_lp_mmshare_version>
43012

> <i_f3d_flags>
0

> <s_epik_input>
W0NIM11bQ0gyXVtDSDJdW0NIMl1uMWMoW05IMl0pYyhjKD1PKVtuSF1jMT1PKU4oW0NIM10pW0NIMl1bQ0gyXU9bQ0gzXQ==

> <s_epik_cmdline>
J2VwaWtfcHl0aG9uJywgJy1waCcsICc3LjAnLCAnLXRuJywgJzgnLCAnLW1hJywgJzIwMCcsICctbWV0YWxfYmluZGluZycsICctaW1hZScsICc8aW5maWxlLm1hZT4nLCAnLW9tYWUnLCAnPG91dGZpbGUubWFlPic=

> <r_lp_tautomer_probability>
1

> <r_epik_Ionization_Penalty>
2.26322e-05

> <r_epik_Ionization_Penalty_Charging>
2.75876e-06

> <r_epik_Ionization_Penalty_Neutral>
1.98734e-05

> <r_epik_State_Penalty>
-0

> <r_epik_Charging_Adjusted_Penalty>
2.75876e-06

> <i_epik_Tot_Q>
0

> <i_epik_Tot_abs_Q>
0

> <r_epik_Metal_State_Penalty>
-0

> <b_epik_Metal_Only>
0

> <s_epik_Chemistry_Notes>
This compound has an imine and may undergo hydrolysis.

> <s_lp_Force_Field>
OPLS_2005

> <r_lp_Energy>
20.5532

> <b_lp_Chiralities_Consistent>
1

> <s_lp_Variant>
AV-unprocessed.smi:2122-1

> <Gold.Version>
5.8.1

> <Gold.Id.Protein>
6NUR|6NUR_protein|mol2

> <Gold.PLP.Fitness>
43.1209

> <Gold.PLP.PLP>
-36.2324

> <Gold.PLP.part.hbond>
-2.2399

> <Gold.PLP.part.metal>
0.0000

> <Gold.PLP.part.buried>
-1.0940

> <Gold.PLP.part.nonpolar>
-37.7429

> <Gold.PLP.part.repulsive>
4.5869

> <Gold.PLP.ligand.clash>
20.2349

> <Gold.PLP.ligand.torsion>
0.6313

> <Gold.PLP.Chemscore.Hbond>
2.6219

> <Gold.PLP.Chemscore.CHOScore>
0.0000

> <Gold.PLP.Chemscore.Metal>
0.0000

> <Gold.Chemscore.Hbonds>
donor molecule, donor type, donor heavy atom, donor atom, acceptor molecule, acceptor atom, score
      L1  H     7    30       P1  8028  0.61
      P1  H  7954  7966       L1    13  1.00
      P1  H  7997  8010       L1    19  1.00

> <Gold.PLP.Chemscore.Internal.Correction>
20.5202

> <Gold.Rescore>
     Score         DG    S(hbond)    S(metal)    S(lipo)     H(rot)  DE(clash)    DE(int)     intcor
      9.38     -16.81       2.38        0.00      76.06       2.16       2.25       5.18       ----

> <Gold.Chemscore.Fitness>
9.3806

> <Gold.Chemscore.DG>
-16.8136

> <Gold.Chemscore.ZeroCoef>
-5.4800

> <Gold.Chemscore.Hbond>
2.3829

> <Gold.Chemscore.Metal>
0.0000

> <Gold.Chemscore.Lipo>
76.0574

> <Gold.Chemscore.Internal_Hbond>
0.0000

> <Gold.Chemscore.DEClash>
2.2511

> <Gold.Chemscore.DEInternal>
5.1819

> <Gold.Chemscore.Rot>
2.1579

> <Gold.Chemscore.Internal.Correction>
   9.000000E+99

> <Gold.Chemscore.Hbonds>
donor molecule, donor type, donor heavy atom, donor atom, acceptor molecule, acceptor atom, score
      L1  H     7    30       P1  8028  0.60
      P1  H  7954  7966       L1    13  0.60
      P1  H  7997  8010       L1    19  0.99

> <Gold.Chemscore.Hbond.Weighted>
-7.9590

> <Gold.Chemscore.Metal.Weighted>
-0.0000

> <Gold.Chemscore.Lipo.Weighted>
-8.8987

> <Gold.Chemscore.Internal_Hbond.Weighted>
0.0000

> <Gold.Chemscore.DEClash.Weighted>
2.2511

> <Gold.Chemscore.DEInternal.Weighted>
5.1819

> <Gold.Chemscore.Rot.Weighted>
5.5241

> <Gold.Chemscore.Internal.Correction.Weighted>
   9.000000E+99

> <Gold.Protein.RotatedTorsions>
[ 6907 6896 6895 6894 ] final  -11.56 input  -60.11 | X-H torsion
[ 7974 7965 7964 7962 ] final -127.65 input  175.53 | X-H torsion
[ 8008 7997 7996 7995 ] final   66.80 input   59.86 | X-H torsion
[ 10167 10162 10161 10158 ] final   17.13 input  -65.29 | X-H torsion
[ 10718 10713 10712 10709 ] final   -5.99 input   66.30 | X-H torsion
[ 10763 10752 10751 10750 ] final  157.77 input  -60.55 | X-H torsion
[ 11005 11000 10999 10996 ] final  139.28 input  -57.11 | X-H torsion

> <Gold.Protein.ActiveResidues>
 VAL166  LYS551  ARG553  GLY616  TRP617  ASP618  TYR619  PRO620  LYS621  CYS622 
 ASP623  PHE694  ASN695  SER759  ASP760  ASP761  ALA762  ILE779  LEU786  VAL792 
 PHE793  MET794  SER795  GLU796  ALA797  LYS798  CYS799  TRP800  GLU811  SER814 

> <Gold.Protein.RotatedAtoms>
  151.3843  135.0945  159.9505 H   0  0  0  0  0  0  0  0  0  0  0  0  # atno 6907 bound_to 6896
  152.5099  133.9041  159.7466 H   0  0  0  0  0  0  0  0  0  0  0  0  # atno 6908 bound_to 6896
  150.9481  133.6524  159.2806 H   0  0  0  0  0  0  0  0  0  0  0  0  # atno 6909 bound_to 6896
  144.9749  140.7582  143.4648 H   0  0  0  0  0  0  0  0  0  0  0  0  # atno 7974 bound_to 7965
  155.6829  140.3496  155.4862 H   0  0  0  0  0  0  0  0  0  0  0  0  # atno 8008 bound_to 7997
  155.9591  140.1134  157.0934 H   0  0  0  0  0  0  0  0  0  0  0  0  # atno 8009 bound_to 7997
  154.4139  140.1179  156.5141 H   0  0  0  0  0  0  0  0  0  0  0  0  # atno 8010 bound_to 7997
  140.5748  143.9093  150.6741 H   0  0  0  0  0  0  0  0  0  0  0  0  # atno 10167 bound_to 10162
  156.7385  130.5202  149.5829 H   0  0  0  0  0  0  0  0  0  0  0  0  # atno 10718 bound_to 10713
  154.2056  135.2788  155.2976 H   0  0  0  0  0  0  0  0  0  0  0  0  # atno 10763 bound_to 10752
  154.5820  135.5586  153.7197 H   0  0  0  0  0  0  0  0  0  0  0  0  # atno 10764 bound_to 10752
  153.0077  135.6347  154.2194 H   0  0  0  0  0  0  0  0  0  0  0  0  # atno 10765 bound_to 10752
  140.0243  134.9382  157.0537 H   0  0  0  0  0  0  0  0  0  0  0  0  # atno 11005 bound_to 11000
  145.2505  139.2034  143.4945 LP  0  0  0  0  0  0  0  0  0  0  0  0  # atno 17320 bound_to 7965
  146.3392  140.2417  142.8596 LP  0  0  0  0  0  0  0  0  0  0  0  0  # atno 17321 bound_to 7965
  140.2577  143.3546  152.1350 LP  0  0  0  0  0  0  0  0  0  0  0  0  # atno 17342 bound_to 10162
  139.5137  144.6936  151.5692 LP  0  0  0  0  0  0  0  0  0  0  0  0  # atno 17343 bound_to 10162
  156.1480  130.6291  151.0558 LP  0  0  0  0  0  0  0  0  0  0  0  0  # atno 17370 bound_to 10713
  157.6828  131.0833  150.7323 LP  0  0  0  0  0  0  0  0  0  0  0  0  # atno 17371 bound_to 10713
  140.4333  134.1757  155.7169 LP  0  0  0  0  0  0  0  0  0  0  0  0  # atno 17394 bound_to 11000
  141.1793  133.8448  157.1313 LP  0  0  0  0  0  0  0  0  0  0  0  0  # atno 17395 bound_to 11000

$$$$
