AV-unprocessed.smi:3250|AV-procd|sdf|12429|dock1
  -GOLD-   2272018313D 1   1.00000     0.00000
 Structure written by MMmdl.
 38 39  0  0  0  0  0  0  0  0  1 V2000
  153.0523  142.8903  162.7458 C   0  0  0  0  0  0  0  0  0  0  0  0
  153.1238  142.4011  161.2925 C   0  0  0  0  0  0  0  0  0  0  0  0
  152.0848  142.9311  160.4114 N   0  0  0  0  0  0  0  0  0  0  0  0
  152.0115  144.3897  160.4450 C   0  0  0  0  0  0  0  0  0  0  0  0
  150.9388  144.9311  159.4850 C   0  0  0  0  0  0  0  0  0  0  0  0
  151.1974  144.4586  158.1675 O   0  0  0  0  0  0  0  0  0  0  0  0
  151.2128  143.0357  158.0798 C   0  0  1  0  0  0  0  0  0  0  0  0
  151.4945  142.6429  156.6236 C   0  0  0  0  0  0  0  0  0  0  0  0
  150.2709  142.5770  155.8390 N   0  0  0  0  0  0  0  0  0  0  0  0
  149.8196  141.4360  155.2036 C   0  0  0  0  0  0  0  0  0  0  0  0
  148.5271  141.4352  154.8698 N   0  0  0  0  0  0  0  0  0  0  0  0
  148.0570  140.3359  154.2413 C   0  0  0  0  0  0  0  0  0  0  0  0
  148.8867  139.2352  153.9487 C   0  0  0  0  0  0  0  0  0  0  0  0
  150.2340  139.3399  154.3490 C   0  0  0  0  0  0  0  0  0  0  0  0
  151.0998  138.2959  154.0972 O   0  0  0  0  0  0  0  0  0  0  0  0
  152.4542  138.4335  154.5123 C   0  0  0  0  0  0  0  0  0  0  0  0
  150.6952  140.4495  154.9787 N   0  0  0  0  0  0  0  0  0  0  0  0
  152.2988  142.4999  159.0339 C   0  0  0  0  0  0  0  0  0  0  0  0
  153.7932  142.3767  163.3586 H   0  0  0  0  0  0  0  0  0  0  0  0
  152.0712  142.6937  163.1792 H   0  0  0  0  0  0  0  0  0  0  0  0
  153.2513  143.9585  162.8273 H   0  0  0  0  0  0  0  0  0  0  0  0
  154.1092  142.6249  160.8812 H   0  0  0  0  0  0  0  0  0  0  0  0
  153.0471  141.3132  161.3107 H   0  0  0  0  0  0  0  0  0  0  0  0
  151.7825  144.7347  161.4525 H   0  0  0  0  0  0  0  0  0  0  0  0
  152.9804  144.8157  160.1798 H   0  0  0  0  0  0  0  0  0  0  0  0
  149.9425  144.6192  159.8024 H   0  0  0  0  0  0  0  0  0  0  0  0
  150.9481  146.0210  159.4813 H   0  0  0  0  0  0  0  0  0  0  0  0
  150.2405  142.6407  158.3811 H   0  0  0  0  0  0  0  0  0  0  0  0
  152.1853  143.3522  156.1664 H   0  0  0  0  0  0  0  0  0  0  0  0
  151.9737  141.6635  156.5953 H   0  0  0  0  0  0  0  0  0  0  0  0
  149.7669  143.4347  155.6663 H   0  0  0  0  0  0  0  0  0  0  0  0
  147.0117  140.3343  153.9698 H   0  0  0  0  0  0  0  0  0  0  0  0
  148.5094  138.3575  153.4452 H   0  0  0  0  0  0  0  0  0  0  0  0
  153.0056  137.5308  154.2507 H   0  0  0  0  0  0  0  0  0  0  0  0
  152.5284  138.5650  155.5927 H   0  0  0  0  0  0  0  0  0  0  0  0
  152.9404  139.2742  154.0156 H   0  0  0  0  0  0  0  0  0  0  0  0
  153.2796  142.8343  158.6913 H   0  0  0  0  0  0  0  0  0  0  0  0
  152.3094  141.4101  158.9885 H   0  0  0  0  0  0  0  0  0  0  0  0
  1  2  1  0  0  0  0
  1 19  1  0  0  0  0
  1 20  1  0  0  0  0
  1 21  1  0  0  0  0
  2  3  1  0  0  0  0
  2 22  1  0  0  0  0
  2 23  1  0  0  0  0
  3 18  1  0  0  0  0
  3  4  1  0  0  0  0
  4  5  1  0  0  0  0
  4 24  1  0  0  0  0
  4 25  1  0  0  0  0
  5  6  1  0  0  0  0
  5 26  1  0  0  0  0
  5 27  1  0  0  0  0
  6  7  1  0  0  0  0
  7  8  1  0  0  0  0
  7 18  1  0  0  0  0
  7 28  1  0  0  0  0
  8  9  1  0  0  0  0
  8 29  1  0  0  0  0
  8 30  1  0  0  0  0
  9 10  1  0  0  0  0
  9 31  1  0  0  0  0
 10 17  1  0  0  0  0
 10 11  2  0  0  0  0
 11 12  1  0  0  0  0
 12 13  2  0  0  0  0
 12 32  1  0  0  0  0
 13 14  1  0  0  0  0
 13 33  1  0  0  0  0
 14 15  1  0  0  0  0
 14 17  2  0  0  0  0
 15 16  1  0  0  0  0
 16 34  1  0  0  0  0
 16 35  1  0  0  0  0
 16 36  1  0  0  0  0
 18 37  1  0  0  0  0
 18 38  1  0  0  0  0
M  END
> <s_m_source_file>
AV-unprocessed.smi

> <i_m_source_file_index>
3250

> <i_lp_mmshare_version>
43012

> <i_f3d_flags>
0

> <s_epik_input>
W0NIM11bQ0gyXU4xW0NIMl1bQ0gyXU9bQ0BIXShbQ0gyXTEpW0NIMl1bTkhdYzJuW2NIXVtjSF1jKG4yKU9bQ0gzXQ==

> <s_epik_cmdline>
J2VwaWtfcHl0aG9uJywgJy1waCcsICc3LjAnLCAnLXRuJywgJzgnLCAnLW1hJywgJzIwMCcsICctbWV0YWxfYmluZGluZycsICctaW1hZScsICc8aW5maWxlLm1hZT4nLCAnLW9tYWUnLCAnPG91dGZpbGUubWFlPic=

> <r_lp_tautomer_probability>
1

> <r_epik_Ionization_Penalty>
0.832605

> <r_epik_Ionization_Penalty_Charging>
0

> <r_epik_Ionization_Penalty_Neutral>
0.832605

> <r_epik_State_Penalty>
0.927194

> <r_epik_Charging_Adjusted_Penalty>
0.927194

> <i_epik_Tot_Q>
0

> <i_epik_Tot_abs_Q>
0

> <r_epik_Metal_State_Penalty>
0.908632

> <b_epik_Metal_Only>
0

> <s_lp_Force_Field>
OPLS_2005

> <r_lp_Energy>
15.3419

> <b_lp_Chiralities_Consistent>
1

> <s_lp_Variant>
AV-unprocessed.smi:3250-5

> <Gold.Version>
5.8.1

> <Gold.Id.Protein>
6NUR|6NUR_protein|mol2

> <Gold.PLP.Fitness>
43.7451

> <Gold.PLP.PLP>
-39.5146

> <Gold.PLP.part.hbond>
-2.0000

> <Gold.PLP.part.metal>
0.0000

> <Gold.PLP.part.buried>
-8.3213

> <Gold.PLP.part.nonpolar>
-30.1400

> <Gold.PLP.part.repulsive>
0.7433

> <Gold.PLP.ligand.clash>
0.0000

> <Gold.PLP.ligand.torsion>
0.4073

> <Gold.PLP.Chemscore.Hbond>
1.6500

> <Gold.PLP.Chemscore.CHOScore>
0.0000

> <Gold.PLP.Chemscore.Metal>
0.0000

> <Gold.Chemscore.Hbonds>
donor molecule, donor type, donor heavy atom, donor atom, acceptor molecule, acceptor atom, score
      L1  H     9    31       P1  8028  1.00
      P1  H  7989  7998       L1    17  0.50

> <Gold.PLP.Chemscore.Internal.Correction>
0.0950

> <Gold.Rescore>
     Score         DG    S(hbond)    S(metal)    S(lipo)     H(rot)  DE(clash)    DE(int)     intcor
     14.97     -15.56       0.99        0.00      94.39       1.67       0.17       0.42       ----

> <Gold.Chemscore.Fitness>
14.9657

> <Gold.Chemscore.DG>
-15.5619

> <Gold.Chemscore.ZeroCoef>
-5.4800

> <Gold.Chemscore.Hbond>
0.9889

> <Gold.Chemscore.Metal>
0.0000

> <Gold.Chemscore.Lipo>
94.3878

> <Gold.Chemscore.Internal_Hbond>
0.0000

> <Gold.Chemscore.DEClash>
0.1726

> <Gold.Chemscore.DEInternal>
0.4236

> <Gold.Chemscore.Rot>
1.6657

> <Gold.Chemscore.Internal.Correction>
   9.000000E+99

> <Gold.Chemscore.Hbonds>
donor molecule, donor type, donor heavy atom, donor atom, acceptor molecule, acceptor atom, score
      L1  H     9    31       P1  8028  0.95
      P1  H  7989  7998       L1    17  0.01

> <Gold.Chemscore.Hbond.Weighted>
-3.3028

> <Gold.Chemscore.Metal.Weighted>
-0.0000

> <Gold.Chemscore.Lipo.Weighted>
-11.0434

> <Gold.Chemscore.Internal_Hbond.Weighted>
0.0000

> <Gold.Chemscore.DEClash.Weighted>
0.1726

> <Gold.Chemscore.DEInternal.Weighted>
0.4236

> <Gold.Chemscore.Rot.Weighted>
4.2642

> <Gold.Chemscore.Internal.Correction.Weighted>
   9.000000E+99

> <Gold.Protein.RotatedTorsions>
[ 6907 6896 6895 6894 ] final   83.67 input  -60.11 | X-H torsion
[ 7974 7965 7964 7962 ] final    4.12 input  175.53 | X-H torsion
[ 8008 7997 7996 7995 ] final  -82.07 input   59.86 | X-H torsion
[ 10167 10162 10161 10158 ] final  106.61 input  -65.29 | X-H torsion
[ 10718 10713 10712 10709 ] final   95.00 input   66.30 | X-H torsion
[ 10763 10752 10751 10750 ] final  139.85 input  -60.55 | X-H torsion
[ 11005 11000 10999 10996 ] final   98.54 input  -57.11 | X-H torsion

> <Gold.Protein.ActiveResidues>
 VAL166  LYS551  ARG553  GLY616  TRP617  ASP618  TYR619  PRO620  LYS621  CYS622 
 ASP623  PHE694  ASN695  SER759  ASP760  ASP761  ALA762  ILE779  LEU786  VAL792 
 PHE793  MET794  SER795  GLU796  ALA797  LYS798  CYS799  TRP800  GLU811  SER814 

> <Gold.Protein.RotatedAtoms>
  152.5333  134.2859  159.9024 H   0  0  0  0  0  0  0  0  0  0  0  0  # atno 6907 bound_to 6896
  151.2812  133.4202  159.2634 H   0  0  0  0  0  0  0  0  0  0  0  0  # atno 6908 bound_to 6896
  151.0282  134.9535  159.8153 H   0  0  0  0  0  0  0  0  0  0  0  0  # atno 6909 bound_to 6896
  146.2444  140.0583  142.8370 H   0  0  0  0  0  0  0  0  0  0  0  0  # atno 7974 bound_to 7965
  154.6048  140.0638  156.9416 H   0  0  0  0  0  0  0  0  0  0  0  0  # atno 8008 bound_to 7997
  155.2071  140.3319  155.4316 H   0  0  0  0  0  0  0  0  0  0  0  0  # atno 8009 bound_to 7997
  156.2341  140.1854  156.7150 H   0  0  0  0  0  0  0  0  0  0  0  0  # atno 8010 bound_to 7997
  139.6995  144.7096  151.1209 H   0  0  0  0  0  0  0  0  0  0  0  0  # atno 10167 bound_to 10162
  157.6943  131.0531  150.4272 H   0  0  0  0  0  0  0  0  0  0  0  0  # atno 10718 bound_to 10713
  153.9129  135.3009  155.3448 H   0  0  0  0  0  0  0  0  0  0  0  0  # atno 10763 bound_to 10752
  154.7614  135.4932  153.9474 H   0  0  0  0  0  0  0  0  0  0  0  0  # atno 10764 bound_to 10752
  153.1183  135.6776  153.9482 H   0  0  0  0  0  0  0  0  0  0  0  0  # atno 10765 bound_to 10752
  139.8772  134.9054  156.4471 H   0  0  0  0  0  0  0  0  0  0  0  0  # atno 11005 bound_to 11000
  145.0923  140.9292  143.4762 LP  0  0  0  0  0  0  0  0  0  0  0  0  # atno 17320 bound_to 7965
  145.0758  139.2997  143.5808 LP  0  0  0  0  0  0  0  0  0  0  0  0  # atno 17321 bound_to 7965
  140.7706  143.5444  150.9276 LP  0  0  0  0  0  0  0  0  0  0  0  0  # atno 17342 bound_to 10162
  139.9125  143.6703  152.3112 LP  0  0  0  0  0  0  0  0  0  0  0  0  # atno 17343 bound_to 10162
  156.4641  130.4038  149.6558 LP  0  0  0  0  0  0  0  0  0  0  0  0  # atno 17370 bound_to 10713
  156.3662  130.7507  151.2485 LP  0  0  0  0  0  0  0  0  0  0  0  0  # atno 17371 bound_to 10713
  140.8958  133.7815  155.9623 LP  0  0  0  0  0  0  0  0  0  0  0  0  # atno 17394 bound_to 11000
  140.8705  134.2733  157.5193 LP  0  0  0  0  0  0  0  0  0  0  0  0  # atno 17395 bound_to 11000

$$$$
