AV-unprocessed.smi:158|AV-procd|sdf|1330|dock7
  -GOLD-   2262019 23D 1   1.00000     0.00000
 Structure written by MMmdl.
 31 33  0  0  0  0  0  0  0  0  1 V2000
  145.3681  135.5458  150.1870 N   0  0  0  0  0  0  0  0  0  0  0  0
  145.2836  136.1068  151.4011 C   0  0  0  0  0  0  0  0  0  0  0  0
  144.5607  135.4756  152.3553 N   0  0  0  0  0  0  0  0  0  0  0  0
  144.4538  136.0015  153.5822 C   0  0  0  0  0  0  0  0  0  0  0  0
  143.5095  135.1115  154.7175 Cl  0  0  0  0  0  0  0  0  0  0  0  0
  144.9961  137.1406  154.0267 N   0  0  0  0  0  0  0  0  0  0  0  0
  145.7222  137.7805  153.0650 C   0  0  0  0  0  0  0  0  0  0  0  0
  145.9170  137.3291  151.7333 C   0  0  0  0  0  0  0  0  0  0  0  0
  146.7186  138.2271  151.0426 N   0  0  0  0  0  0  0  0  0  0  0  0
  146.9826  139.1544  151.9242 C   0  0  0  0  0  0  0  0  0  0  0  0
  146.4049  138.9735  153.1647 N   0  0  0  0  0  0  0  0  0  0  0  0
  146.4981  139.8243  154.3950 C   0  0  1  0  0  0  0  0  0  0  0  0
  147.5226  139.3114  155.2010 O   0  0  0  0  0  0  0  0  0  0  0  0
  148.6701  140.1689  155.1871 C   0  0  1  0  0  0  0  0  0  0  0  0
  149.9642  139.3468  155.0783 C   0  0  0  0  0  0  0  0  0  0  0  0
  151.0751  140.2082  154.9566 O   0  0  0  0  0  0  0  0  0  0  0  0
  148.4311  141.0946  153.9911 C   0  0  2  0  0  0  0  0  0  0  0  0
  149.0846  142.3440  154.0962 O   0  0  0  0  0  0  0  0  0  0  0  0
  146.9223  141.2442  154.0160 C   0  0  2  0  0  0  0  0  0  0  0  0
  146.5234  142.0637  154.9917 F   0  0  0  0  0  0  0  0  0  0  0  0
  145.5141  139.7467  154.8594 H   0  0  0  0  0  0  0  0  0  0  0  0
  148.6639  140.7608  156.1046 H   0  0  0  0  0  0  0  0  0  0  0  0
  148.7371  140.6059  153.0647 H   0  0  0  0  0  0  0  0  0  0  0  0
  146.4843  141.5860  153.0780 H   0  0  0  0  0  0  0  0  0  0  0  0
  145.9035  135.9993  149.4605 H   0  0  0  0  0  0  0  0  0  0  0  0
  144.8978  134.6718  150.0005 H   0  0  0  0  0  0  0  0  0  0  0  0
  147.6140  139.9960  151.6841 H   0  0  0  0  0  0  0  0  0  0  0  0
  150.0931  138.6786  155.9287 H   0  0  0  0  0  0  0  0  0  0  0  0
  149.9363  138.7245  154.1834 H   0  0  0  0  0  0  0  0  0  0  0  0
  151.8267  139.7878  155.3458 H   0  0  0  0  0  0  0  0  0  0  0  0
  148.6278  142.8707  154.7341 H   0  0  0  0  0  0  0  0  0  0  0  0
  1  2  1  0  0  0  0
  1 25  1  0  0  0  0
  1 26  1  0  0  0  0
  2  8  1  0  0  0  0
  2  3  2  0  0  0  0
  3  4  1  0  0  0  0
  4  5  1  0  0  0  0
  4  6  2  0  0  0  0
  6  7  1  0  0  0  0
  7 11  1  0  0  0  0
  7  8  2  0  0  0  0
  8  9  1  0  0  0  0
  9 10  2  0  0  0  0
 10 11  1  0  0  0  0
 10 27  1  0  0  0  0
 11 12  1  0  0  0  0
 12 21  1  0  0  0  0
 12 19  1  0  0  0  0
 12 13  1  0  0  0  0
 13 14  1  0  0  0  0
 14 22  1  0  0  0  0
 14 15  1  0  0  0  0
 14 17  1  0  0  0  0
 15 16  1  0  0  0  0
 15 28  1  0  0  0  0
 15 29  1  0  0  0  0
 16 30  1  0  0  0  0
 17 23  1  0  0  0  0
 17 18  1  0  0  0  0
 17 19  1  0  0  0  0
 18 31  1  0  0  0  0
 19 24  1  0  0  0  0
 19 20  1  0  0  0  0
M  END
> <s_m_source_file>
AV-unprocessed.smi

> <i_m_source_file_index>
158

> <i_lp_mmshare_version>
43012

> <i_f3d_flags>
0

> <s_epik_input>
Q2xjKG4xKW5jKFtOSDJdKWMoYzEyKW5bY0hdbjJbQ0BASF0zT1tDQEhdKFtDSDJdW09IXSlbQ0BASF0oW09IXSlbQ0BASF0zRg==

> <s_epik_cmdline>
J2VwaWtfcHl0aG9uJywgJy1waCcsICc3LjAnLCAnLXRuJywgJzgnLCAnLW1hJywgJzIwMCcsICctbWV0YWxfYmluZGluZycsICctaW1hZScsICc8aW5maWxlLm1hZT4nLCAnLW9tYWUnLCAnPG91dGZpbGUubWFlPic=

> <r_lp_tautomer_probability>
1

> <r_epik_Ionization_Penalty>
6.51543e-05

> <r_epik_Ionization_Penalty_Charging>
0

> <r_epik_Ionization_Penalty_Neutral>
6.51543e-05

> <r_epik_State_Penalty>
-0

> <r_epik_Charging_Adjusted_Penalty>
0

> <i_epik_Tot_Q>
0

> <i_epik_Tot_abs_Q>
0

> <r_epik_Metal_State_Penalty>
-0

> <b_epik_Metal_Only>
0

> <s_epik_Chemistry_Notes>
This compound contains an acetal/aminal-like group ( X-CH(R)-Y where X, Y are N, S, or O) that may be acid/base labile, releasing an aldehyde.

> <s_lp_Force_Field>
OPLS_2005

> <r_lp_Energy>
30.2805

> <b_lp_Chiralities_Consistent>
1

> <s_lp_Variant>
AV-unprocessed.smi:158-8

> <Gold.Version>
5.8.1

> <Gold.Id.Protein>
6NUR|6NUR_protein|mol2

> <Gold.PLP.Fitness>
37.8403

> <Gold.PLP.PLP>
-26.7728

> <Gold.PLP.part.hbond>
-4.8369

> <Gold.PLP.part.metal>
0.0000

> <Gold.PLP.part.buried>
0.8667

> <Gold.PLP.part.nonpolar>
-24.0920

> <Gold.PLP.part.repulsive>
1.2111

> <Gold.PLP.ligand.clash>
0.0000

> <Gold.PLP.ligand.torsion>
0.6238

> <Gold.PLP.Chemscore.Hbond>
3.1021

> <Gold.PLP.Chemscore.CHOScore>
0.9937

> <Gold.PLP.Chemscore.Metal>
0.0000

> <Gold.Chemscore.Hbonds>
donor molecule, donor type, donor heavy atom, donor atom, acceptor molecule, acceptor atom, score
      L1  H     1    25       P1  7921  0.21
      L1  H    18    31       P1  8028  0.70
      P1  H  7954  7966       L1     9  1.00
      P1  H  7989  7998       L1    16  1.00
      P1  H  8011  8017       L1    18  0.20
      L1  C    10    27       P1  7957  0.98

> <Gold.PLP.Chemscore.Internal.Correction>
0.0276

> <Gold.Rescore>
     Score         DG    S(hbond)    S(metal)    S(lipo)     H(rot)  DE(clash)    DE(int)     intcor
      7.49      -9.69       2.50        0.00      32.92       3.12       1.61       0.59       ----

> <Gold.Chemscore.Fitness>
7.4901

> <Gold.Chemscore.DG>
-9.6883

> <Gold.Chemscore.ZeroCoef>
-5.4800

> <Gold.Chemscore.Hbond>
2.5004

> <Gold.Chemscore.Metal>
0.0000

> <Gold.Chemscore.Lipo>
32.9215

> <Gold.Chemscore.Internal_Hbond>
0.0000

> <Gold.Chemscore.DEClash>
1.6090

> <Gold.Chemscore.DEInternal>
0.5892

> <Gold.Chemscore.Rot>
3.1230

> <Gold.Chemscore.Internal.Correction>
   9.000000E+99

> <Gold.Chemscore.Hbonds>
donor molecule, donor type, donor heavy atom, donor atom, acceptor molecule, acceptor atom, score
      L1  H     1    25       P1  7921  0.21
      L1  H    18    31       P1  8028  0.65
      P1  H  7954  7966       L1     9  0.85
      P1  H  7989  7998       L1    16  0.50
      P1  H  8011  8017       L1    18  0.05

> <Gold.Chemscore.Hbond.Weighted>
-8.3515

> <Gold.Chemscore.Metal.Weighted>
-0.0000

> <Gold.Chemscore.Lipo.Weighted>
-3.8518

> <Gold.Chemscore.Internal_Hbond.Weighted>
0.0000

> <Gold.Chemscore.DEClash.Weighted>
1.6090

> <Gold.Chemscore.DEInternal.Weighted>
0.5892

> <Gold.Chemscore.Rot.Weighted>
7.9950

> <Gold.Chemscore.Internal.Correction.Weighted>
   9.000000E+99

> <Gold.Protein.RotatedTorsions>
[ 6907 6896 6895 6894 ] final  -51.15 input  -60.11 | X-H torsion
[ 7974 7965 7964 7962 ] final   18.51 input  175.53 | X-H torsion
[ 8008 7997 7996 7995 ] final  120.46 input   59.86 | X-H torsion
[ 10167 10162 10161 10158 ] final   47.94 input  -65.29 | X-H torsion
[ 10718 10713 10712 10709 ] final -102.74 input   66.30 | X-H torsion
[ 10763 10752 10751 10750 ] final   91.28 input  -60.55 | X-H torsion
[ 11005 11000 10999 10996 ] final  151.26 input  -57.11 | X-H torsion

> <Gold.Protein.ActiveResidues>
 VAL166  LYS551  ARG553  GLY616  TRP617  ASP618  TYR619  PRO620  LYS621  CYS622 
 ASP623  PHE694  ASN695  SER759  ASP760  ASP761  ALA762  ILE779  LEU786  VAL792 
 PHE793  MET794  SER795  GLU796  ALA797  LYS798  CYS799  TRP800  GLU811  SER814 

> <Gold.Protein.RotatedAtoms>
  150.8639  134.7997  159.7103 H   0  0  0  0  0  0  0  0  0  0  0  0  # atno 6907 bound_to 6896
  152.4667  134.5056  159.9748 H   0  0  0  0  0  0  0  0  0  0  0  0  # atno 6908 bound_to 6896
  151.5155  133.3438  159.2928 H   0  0  0  0  0  0  0  0  0  0  0  0  # atno 6909 bound_to 6896
  146.2182  139.8447  142.8634 H   0  0  0  0  0  0  0  0  0  0  0  0  # atno 7974 bound_to 7965
  156.2643  140.2830  156.1154 H   0  0  0  0  0  0  0  0  0  0  0  0  # atno 8008 bound_to 7997
  155.1213  140.0392  157.2768 H   0  0  0  0  0  0  0  0  0  0  0  0  # atno 8009 bound_to 7997
  154.6668  140.2579  155.7055 H   0  0  0  0  0  0  0  0  0  0  0  0  # atno 8010 bound_to 7997
  140.2984  144.2963  150.6224 H   0  0  0  0  0  0  0  0  0  0  0  0  # atno 10167 bound_to 10162
  156.0239  130.5434  150.7152 H   0  0  0  0  0  0  0  0  0  0  0  0  # atno 10718 bound_to 10713
  153.2066  135.4403  155.0330 H   0  0  0  0  0  0  0  0  0  0  0  0  # atno 10763 bound_to 10752
  154.8177  135.3323  154.7132 H   0  0  0  0  0  0  0  0  0  0  0  0  # atno 10764 bound_to 10752
  153.7573  135.6994  153.4988 H   0  0  0  0  0  0  0  0  0  0  0  0  # atno 10765 bound_to 10752
  140.1203  134.8868  157.2063 H   0  0  0  0  0  0  0  0  0  0  0  0  # atno 11005 bound_to 11000
  145.2863  141.0154  143.3688 LP  0  0  0  0  0  0  0  0  0  0  0  0  # atno 17320 bound_to 7965
  144.9111  139.4527  143.6586 LP  0  0  0  0  0  0  0  0  0  0  0  0  # atno 17321 bound_to 7965
  140.5672  143.2185  151.7662 LP  0  0  0  0  0  0  0  0  0  0  0  0  # atno 17342 bound_to 10162
  139.4921  144.4267  151.9918 LP  0  0  0  0  0  0  0  0  0  0  0  0  # atno 17343 bound_to 10162
  157.4781  131.0899  151.0567 LP  0  0  0  0  0  0  0  0  0  0  0  0  # atno 17370 bound_to 10713
  157.1009  130.5981  149.5460 LP  0  0  0  0  0  0  0  0  0  0  0  0  # atno 17371 bound_to 10713
  140.2973  134.3171  155.7299 LP  0  0  0  0  0  0  0  0  0  0  0  0  # atno 17394 bound_to 11000
  141.2150  133.7571  156.9590 LP  0  0  0  0  0  0  0  0  0  0  0  0  # atno 17395 bound_to 11000

$$$$
