AV-unprocessed.smi:113|AV-procd|sdf|1099|dock8
  -GOLD-   2262018213D 1   1.00000     0.00000
 Structure written by MMmdl.
 53 56  0  0  0  0  0  0  0  0  2 V2000
  148.7322  141.7729  154.4101 C   0  0  0  0  0  0  0  0  0  0  0  0
  149.7699  141.4846  155.4740 C   0  0  0  0  0  0  0  0  0  0  0  0
  150.3607  140.2144  155.6186 C   0  0  0  0  0  0  0  0  0  0  0  0
  151.3285  139.9953  156.6302 C   0  0  0  0  0  0  0  0  0  0  0  0
  151.9887  138.6243  156.8111 C   0  0  0  0  0  0  0  0  0  0  0  0
  151.1116  137.5066  157.1304 N   0  0  0  0  0  0  0  0  0  0  0  0
  150.9507  136.4911  156.1581 C   0  0  0  0  0  0  0  0  0  0  0  0
  151.5329  136.5394  155.0724 O   0  0  0  0  0  0  0  0  0  0  0  0
  150.0295  135.4161  156.5314 C   0  0  0  0  0  0  0  0  0  0  0  0
  149.7772  134.3075  155.5212 C   0  0  0  0  0  0  0  0  0  0  0  0
  149.4188  135.4409  157.7410 C   0  0  0  0  0  0  0  0  0  0  0  0
  149.6151  136.4341  158.6911 N   0  0  0  0  0  0  0  0  0  0  0  0
  148.8567  136.4865  160.0120 C   0  0  2  0  0  0  0  0  0  0  0  0
  148.1065  135.2017  160.3807 C   0  0  0  0  0  0  0  0  0  0  0  0
  146.6885  135.4613  159.8676 C   0  0  1  0  0  0  0  0  0  0  0  0
  145.7511  135.2420  160.9053 O   0  0  0  0  0  0  0  0  0  0  0  0
  146.7176  136.9179  159.3476 C   0  0  1  0  0  0  0  0  0  0  0  0
  145.4926  137.8015  159.6444 C   0  0  0  0  0  0  0  0  0  0  0  0
  145.4305  138.1100  161.0212 O   0  0  0  0  0  0  0  0  0  0  0  0
  147.8870  137.4811  159.9295 O   0  0  0  0  0  0  0  0  0  0  0  0
  150.4420  137.5329  158.3739 C   0  0  0  0  0  0  0  0  0  0  0  0
  150.5629  138.4823  159.1523 O   0  0  0  0  0  0  0  0  0  0  0  0
  151.6763  141.0834  157.4771 C   0  0  0  0  0  0  0  0  0  0  0  0
  152.6311  140.9565  158.5146 C   0  0  0  0  0  0  0  0  0  0  0  0
  152.9466  142.0575  159.3350 C   0  0  0  0  0  0  0  0  0  0  0  0
  152.3165  143.2991  159.1304 C   0  0  0  0  0  0  0  0  0  0  0  0
  151.3665  143.4435  158.1025 C   0  0  0  0  0  0  0  0  0  0  0  0
  151.0477  142.3430  157.2820 C   0  0  0  0  0  0  0  0  0  0  0  0
  150.1334  142.4870  156.2995 N   0  3  0  0  0  0  0  0  0  0  0  0
  148.2046  140.8616  154.1272 H   0  0  0  0  0  0  0  0  0  0  0  0
  149.2092  142.1840  153.5200 H   0  0  0  0  0  0  0  0  0  0  0  0
  147.9956  142.4921  154.7699 H   0  0  0  0  0  0  0  0  0  0  0  0
  150.0616  139.4220  154.9487 H   0  0  0  0  0  0  0  0  0  0  0  0
  152.5490  138.3568  155.9137 H   0  0  0  0  0  0  0  0  0  0  0  0
  152.7461  138.6709  157.5956 H   0  0  0  0  0  0  0  0  0  0  0  0
  149.0824  133.5587  155.9025 H   0  0  0  0  0  0  0  0  0  0  0  0
  150.7093  133.7990  155.2718 H   0  0  0  0  0  0  0  0  0  0  0  0
  149.3538  134.7169  154.6034 H   0  0  0  0  0  0  0  0  0  0  0  0
  148.7320  134.6370  157.9493 H   0  0  0  0  0  0  0  0  0  0  0  0
  149.6085  136.7276  160.7653 H   0  0  0  0  0  0  0  0  0  0  0  0
  148.5860  134.3056  159.9874 H   0  0  0  0  0  0  0  0  0  0  0  0
  148.1147  135.1214  161.4689 H   0  0  0  0  0  0  0  0  0  0  0  0
  146.4394  134.7850  159.0497 H   0  0  0  0  0  0  0  0  0  0  0  0
  145.9241  134.3986  161.2947 H   0  0  0  0  0  0  0  0  0  0  0  0
  146.8794  136.9025  158.2683 H   0  0  0  0  0  0  0  0  0  0  0  0
  145.5039  138.7182  159.0546 H   0  0  0  0  0  0  0  0  0  0  0  0
  144.5801  137.2676  159.3783 H   0  0  0  0  0  0  0  0  0  0  0  0
  145.6026  139.0328  161.1303 H   0  0  0  0  0  0  0  0  0  0  0  0
  153.1358  140.0208  158.7016 H   0  0  0  0  0  0  0  0  0  0  0  0
  153.6754  141.9482  160.1250 H   0  0  0  0  0  0  0  0  0  0  0  0
  152.5622  144.1403  159.7623 H   0  0  0  0  0  0  0  0  0  0  0  0
  150.8858  144.3992  157.9505 H   0  0  0  0  0  0  0  0  0  0  0  0
  149.6945  143.3993  156.1763 H   0  0  0  0  0  0  0  0  0  0  0  0
  1  2  1  0  0  0  0
  1 30  1  0  0  0  0
  1 31  1  0  0  0  0
  1 32  1  0  0  0  0
  2 29  1  0  0  0  0
  2  3  2  0  0  0  0
  3  4  1  0  0  0  0
  3 33  1  0  0  0  0
  4  5  1  0  0  0  0
  4 23  2  0  0  0  0
  5  6  1  0  0  0  0
  5 34  1  0  0  0  0
  5 35  1  0  0  0  0
  6 21  1  0  0  0  0
  6  7  1  0  0  0  0
  7  8  2  0  0  0  0
  7  9  1  0  0  0  0
  9 10  1  0  0  0  0
  9 11  2  0  0  0  0
 10 36  1  0  0  0  0
 10 37  1  0  0  0  0
 10 38  1  0  0  0  0
 11 12  1  0  0  0  0
 11 39  1  0  0  0  0
 12 13  1  0  0  0  0
 12 21  1  0  0  0  0
 13 20  1  0  0  0  0
 13 14  1  0  0  0  0
 13 40  1  0  0  0  0
 14 15  1  0  0  0  0
 14 41  1  0  0  0  0
 14 42  1  0  0  0  0
 15 16  1  0  0  0  0
 15 17  1  0  0  0  0
 15 43  1  0  0  0  0
 16 44  1  0  0  0  0
 17 18  1  0  0  0  0
 17 20  1  0  0  0  0
 17 45  1  0  0  0  0
 18 19  1  0  0  0  0
 18 46  1  0  0  0  0
 18 47  1  0  0  0  0
 19 48  1  0  0  0  0
 21 22  2  0  0  0  0
 23 28  1  0  0  0  0
 23 24  1  0  0  0  0
 24 25  2  0  0  0  0
 24 49  1  0  0  0  0
 25 26  1  0  0  0  0
 25 50  1  0  0  0  0
 26 27  2  0  0  0  0
 26 51  1  0  0  0  0
 27 28  1  0  0  0  0
 27 52  1  0  0  0  0
 28 29  2  0  0  0  0
 29 53  1  0  0  0  0
M  CHG  1  29   1
M  END
> <s_m_source_file>
AV-unprocessed.smi

> <i_m_source_file_index>
113

> <i_lp_mmshare_version>
43012

> <i_f3d_flags>
0

> <s_epik_input>
W2NIXTFbY0hdW2NIXVtjSF1jKGMxMiluYyhbQ0gzXSlbY0hdYzJbQ0gyXW4zYyg9TyljKFtDSDNdKVtjSF1uKGMzPU8pW0NAQEhdNFtDSDJdW0NAQEhdKFtPSF0pW0NASF0oTzQpW0NIMl1bT0hd

> <s_epik_cmdline>
J2VwaWtfcHl0aG9uJywgJy1waCcsICc3LjAnLCAnLXRuJywgJzgnLCAnLW1hJywgJzIwMCcsICctbWV0YWxfYmluZGluZycsICctaW1hZScsICc8aW5maWxlLm1hZT4nLCAnLW9tYWUnLCAnPG91dGZpbGUubWFlPic=

> <r_lp_tautomer_probability>
1

> <r_epik_Ionization_Penalty>
0.705471

> <r_epik_Ionization_Penalty_Charging>
0.70547

> <r_epik_Ionization_Penalty_Neutral>
1.19947e-07

> <r_epik_State_Penalty>
0.728574

> <r_epik_Charging_Adjusted_Penalty>
1.43404

> <i_epik_Tot_Q>
1

> <i_epik_Tot_abs_Q>
1

> <r_epik_Metal_State_Penalty>
4.61665

> <b_epik_Metal_Only>
0

> <s_epik_Chemistry_Notes>
This compound contains an acetal/aminal-like group ( X-CH(R)-Y where X, Y are N, S, or O) that may be acid/base labile, releasing an aldehyde.

> <s_lp_Force_Field>
OPLS_2005

> <r_lp_Energy>
45.3358

> <b_lp_Chiralities_Consistent>
1

> <s_lp_Variant>
AV-unprocessed.smi:113-9

> <Gold.Version>
5.8.1

> <Gold.Id.Protein>
6NUR|6NUR_protein|mol2

> <Gold.PLP.Fitness>
54.3586

> <Gold.PLP.PLP>
-43.8574

> <Gold.PLP.part.hbond>
-5.4095

> <Gold.PLP.part.metal>
0.0000

> <Gold.PLP.part.buried>
-5.0780

> <Gold.PLP.part.nonpolar>
-35.6766

> <Gold.PLP.part.repulsive>
0.2329

> <Gold.PLP.ligand.clash>
0.0000

> <Gold.PLP.ligand.torsion>
0.3365

> <Gold.PLP.Chemscore.Hbond>
3.7040

> <Gold.PLP.Chemscore.CHOScore>
0.0000

> <Gold.PLP.Chemscore.Metal>
0.0000

> <Gold.Chemscore.Hbonds>
donor molecule, donor type, donor heavy atom, donor atom, acceptor molecule, acceptor atom, score
      L1  H    29    53       P1  8028  2.00
      P1  H  6934  6947       L1    20  0.69
      P1  H 10752 10765       L1     8  1.00

> <Gold.PLP.Chemscore.Internal.Correction>
0.0622

> <Gold.Rescore>
     Score         DG    S(hbond)    S(metal)    S(lipo)     H(rot)  DE(clash)    DE(int)     intcor
     18.05     -19.60       2.76        0.00     107.93       3.01       0.08       1.47       ----

> <Gold.Chemscore.Fitness>
18.0505

> <Gold.Chemscore.DG>
-19.6035

> <Gold.Chemscore.ZeroCoef>
-5.4800

> <Gold.Chemscore.Hbond>
2.7564

> <Gold.Chemscore.Metal>
0.0000

> <Gold.Chemscore.Lipo>
107.9299

> <Gold.Chemscore.Internal_Hbond>
0.0000

> <Gold.Chemscore.DEClash>
0.0811

> <Gold.Chemscore.DEInternal>
1.4719

> <Gold.Chemscore.Rot>
3.0120

> <Gold.Chemscore.Internal.Correction>
   9.000000E+99

> <Gold.Chemscore.Hbonds>
donor molecule, donor type, donor heavy atom, donor atom, acceptor molecule, acceptor atom, score
      L1  H    29    53       P1  8028  0.99
      P1  H  6934  6947       L1    20  0.27
      P1  H 10752 10765       L1     8  0.99

> <Gold.Chemscore.Hbond.Weighted>
-9.2064

> <Gold.Chemscore.Metal.Weighted>
-0.0000

> <Gold.Chemscore.Lipo.Weighted>
-12.6278

> <Gold.Chemscore.Internal_Hbond.Weighted>
0.0000

> <Gold.Chemscore.DEClash.Weighted>
0.0811

> <Gold.Chemscore.DEInternal.Weighted>
1.4719

> <Gold.Chemscore.Rot.Weighted>
7.7108

> <Gold.Chemscore.Internal.Correction.Weighted>
   9.000000E+99

> <Gold.Protein.RotatedTorsions>
[ 6907 6896 6895 6894 ] final   17.78 input  -60.11 | X-H torsion
[ 7974 7965 7964 7962 ] final   81.64 input  175.53 | X-H torsion
[ 8008 7997 7996 7995 ] final  -96.84 input   59.86 | X-H torsion
[ 10167 10162 10161 10158 ] final  176.88 input  -65.29 | X-H torsion
[ 10718 10713 10712 10709 ] final  -29.46 input   66.30 | X-H torsion
[ 10763 10752 10751 10750 ] final  167.63 input  -60.55 | X-H torsion
[ 11005 11000 10999 10996 ] final -154.94 input  -57.11 | X-H torsion

> <Gold.Protein.ActiveResidues>
 VAL166  LYS551  ARG553  GLY616  TRP617  ASP618  TYR619  PRO620  LYS621  CYS622 
 ASP623  PHE694  ASN695  SER759  ASP760  ASP761  ALA762  ILE779  LEU786  VAL792 
 PHE793  MET794  SER795  GLU796  ALA797  LYS798  CYS799  TRP800  GLU811  SER814 

> <Gold.Protein.RotatedAtoms>
  151.8551  135.0544  160.0462 H   0  0  0  0  0  0  0  0  0  0  0  0  # atno 6907 bound_to 6896
  152.2707  133.5375  159.5445 H   0  0  0  0  0  0  0  0  0  0  0  0  # atno 6908 bound_to 6896
  150.7150  134.0618  159.3876 H   0  0  0  0  0  0  0  0  0  0  0  0  # atno 6909 bound_to 6896
  145.6355  139.2414  143.2060 H   0  0  0  0  0  0  0  0  0  0  0  0  # atno 7974 bound_to 7965
  154.7797  140.0468  157.1117 H   0  0  0  0  0  0  0  0  0  0  0  0  # atno 8008 bound_to 7997
  154.9719  140.3090  155.4964 H   0  0  0  0  0  0  0  0  0  0  0  0  # atno 8009 bound_to 7997
  156.2934  140.2251  156.4812 H   0  0  0  0  0  0  0  0  0  0  0  0  # atno 8010 bound_to 7997
  139.5231  144.2864  152.0502 H   0  0  0  0  0  0  0  0  0  0  0  0  # atno 10167 bound_to 10162
  156.4122  130.4410  149.7244 H   0  0  0  0  0  0  0  0  0  0  0  0  # atno 10718 bound_to 10713
  154.3566  135.2753  155.2343 H   0  0  0  0  0  0  0  0  0  0  0  0  # atno 10763 bound_to 10752
  154.4549  135.5921  153.6220 H   0  0  0  0  0  0  0  0  0  0  0  0  # atno 10764 bound_to 10752
  152.9846  135.6051  154.3782 H   0  0  0  0  0  0  0  0  0  0  0  0  # atno 10765 bound_to 10752
  140.6918  134.4032  157.5218 H   0  0  0  0  0  0  0  0  0  0  0  0  # atno 11005 bound_to 11000
  146.1323  140.7169  142.9406 LP  0  0  0  0  0  0  0  0  0  0  0  0  # atno 17320 bound_to 7965
  144.7177  140.4268  143.7031 LP  0  0  0  0  0  0  0  0  0  0  0  0  # atno 17321 bound_to 7965
  140.2317  144.4362  150.6297 LP  0  0  0  0  0  0  0  0  0  0  0  0  # atno 17342 bound_to 10162
  140.6351  143.2193  151.6412 LP  0  0  0  0  0  0  0  0  0  0  0  0  # atno 17343 bound_to 10162
  156.4218  130.7772  151.2790 LP  0  0  0  0  0  0  0  0  0  0  0  0  # atno 17370 bound_to 10713
  157.7507  131.0180  150.3610 LP  0  0  0  0  0  0  0  0  0  0  0  0  # atno 17371 bound_to 10713
  139.8921  134.8763  156.2287 LP  0  0  0  0  0  0  0  0  0  0  0  0  # atno 17394 bound_to 11000
  141.0235  133.7028  156.1308 LP  0  0  0  0  0  0  0  0  0  0  0  0  # atno 17395 bound_to 11000

$$$$
