AV-unprocessed.smi:2067|AV-procd|sdf|8426|dock10
  -GOLD-   2272011123D 1   1.00000     0.00000
 Structure written by MMmdl.
 47 48  0  0  0  0  0  0  0  0  1 V2000
  145.1977  136.0162  151.2965 C   0  0  0  0  0  0  0  0  0  0  0  0
  144.9339  134.5040  151.3648 C   0  0  1  0  0  0  0  0  0  0  0  0
  144.3641  133.9920  150.0270 C   0  0  0  0  0  0  0  0  0  0  0  0
  144.0727  132.4851  150.0734 C   0  0  0  0  0  0  0  0  0  0  0  0
  145.3287  131.6942  150.4627 C   0  0  0  0  0  0  0  0  0  0  0  0
  145.9051  132.1916  151.7969 C   0  0  0  0  0  0  0  0  0  0  0  0
  146.2004  133.7084  151.7598 C   0  0  2  0  0  0  0  0  0  0  0  0
  146.6265  134.1795  153.0339 O   0  0  0  0  0  0  0  0  0  0  0  0
  147.8804  133.6799  153.4780 C   0  0  0  0  0  0  0  0  0  0  0  0
  148.2911  134.4564  154.7334 C   0  0  0  0  0  0  0  0  0  0  0  0
  148.2382  135.8921  154.5022 N   0  0  0  0  0  0  0  0  0  0  0  0
  149.1866  136.8129  154.9340 C   0  0  0  0  0  0  0  0  0  0  0  0
  150.2908  136.4233  155.6301 C   0  0  0  0  0  0  0  0  0  0  0  0
  150.5891  135.0572  155.9246 C   0  0  0  0  0  0  0  0  0  0  0  0
  150.8148  133.9509  156.1830 N   0  0  0  0  0  0  0  0  0  0  0  0
  151.2919  137.3799  156.0996 C   0  0  0  0  0  0  0  0  0  0  0  0
  152.2951  137.0532  156.7375 O   0  0  0  0  0  0  0  0  0  0  0  0
  151.0217  138.7245  155.7629 N   0  0  0  0  0  0  0  0  0  0  0  0
  151.9425  139.7608  156.1857 C   0  0  0  0  0  0  0  0  0  0  0  0
  149.8970  139.1497  155.0306 C   0  0  0  0  0  0  0  0  0  0  0  0
  149.7226  140.3437  154.7661 O   0  0  0  0  0  0  0  0  0  0  0  0
  148.9738  138.1583  154.6210 N   0  0  0  0  0  0  0  0  0  0  0  0
  147.8233  138.6685  153.9041 C   0  0  0  0  0  0  0  0  0  0  0  0
  145.9768  136.2519  150.5713 H   0  0  0  0  0  0  0  0  0  0  0  0
  145.5114  136.4050  152.2648 H   0  0  0  0  0  0  0  0  0  0  0  0
  144.2982  136.5602  151.0076 H   0  0  0  0  0  0  0  0  0  0  0  0
  144.1779  134.3385  152.1340 H   0  0  0  0  0  0  0  0  0  0  0  0
  143.4482  134.5306  149.7804 H   0  0  0  0  0  0  0  0  0  0  0  0
  145.0701  134.2003  149.2218 H   0  0  0  0  0  0  0  0  0  0  0  0
  143.2765  132.2873  150.7924 H   0  0  0  0  0  0  0  0  0  0  0  0
  143.7054  132.1471  149.1040 H   0  0  0  0  0  0  0  0  0  0  0  0
  145.0927  130.6319  150.5325 H   0  0  0  0  0  0  0  0  0  0  0  0
  146.0814  131.7933  149.6796 H   0  0  0  0  0  0  0  0  0  0  0  0
  145.2001  131.9759  152.6009 H   0  0  0  0  0  0  0  0  0  0  0  0
  146.8106  131.6271  152.0185 H   0  0  0  0  0  0  0  0  0  0  0  0
  146.9825  133.9097  151.0251 H   0  0  0  0  0  0  0  0  0  0  0  0
  147.7784  132.6222  153.7213 H   0  0  0  0  0  0  0  0  0  0  0  0
  148.6490  133.7685  152.7079 H   0  0  0  0  0  0  0  0  0  0  0  0
  147.6785  134.1498  155.5788 H   0  0  0  0  0  0  0  0  0  0  0  0
  149.3213  134.2087  154.9894 H   0  0  0  0  0  0  0  0  0  0  0  0
  147.2906  136.2392  154.5381 H   0  0  0  0  0  0  0  0  0  0  0  0
  151.3757  140.4720  156.7894 H   0  0  0  0  0  0  0  0  0  0  0  0
  152.3359  140.2300  155.2822 H   0  0  0  0  0  0  0  0  0  0  0  0
  152.7607  139.3534  156.7782 H   0  0  0  0  0  0  0  0  0  0  0  0
  147.2933  139.3455  154.5768 H   0  0  0  0  0  0  0  0  0  0  0  0
  147.1634  137.8570  153.6065 H   0  0  0  0  0  0  0  0  0  0  0  0
  148.1914  139.1854  153.0161 H   0  0  0  0  0  0  0  0  0  0  0  0
  1  2  1  0  0  0  0
  1 24  1  0  0  0  0
  1 25  1  0  0  0  0
  1 26  1  0  0  0  0
  2  7  1  0  0  0  0
  2  3  1  0  0  0  0
  2 27  1  0  0  0  0
  3  4  1  0  0  0  0
  3 28  1  0  0  0  0
  3 29  1  0  0  0  0
  4  5  1  0  0  0  0
  4 30  1  0  0  0  0
  4 31  1  0  0  0  0
  5  6  1  0  0  0  0
  5 32  1  0  0  0  0
  5 33  1  0  0  0  0
  6  7  1  0  0  0  0
  6 34  1  0  0  0  0
  6 35  1  0  0  0  0
  7  8  1  0  0  0  0
  7 36  1  0  0  0  0
  8  9  1  0  0  0  0
  9 10  1  0  0  0  0
  9 37  1  0  0  0  0
  9 38  1  0  0  0  0
 10 11  1  0  0  0  0
 10 39  1  0  0  0  0
 10 40  1  0  0  0  0
 11 12  1  0  0  0  0
 11 41  1  0  0  0  0
 12 22  1  0  0  0  0
 12 13  2  0  0  0  0
 13 14  1  0  0  0  0
 13 16  1  0  0  0  0
 14 15  3  0  0  0  0
 16 17  2  0  0  0  0
 16 18  1  0  0  0  0
 18 19  1  0  0  0  0
 18 20  1  0  0  0  0
 19 42  1  0  0  0  0
 19 43  1  0  0  0  0
 19 44  1  0  0  0  0
 20 21  2  0  0  0  0
 20 22  1  0  0  0  0
 22 23  1  0  0  0  0
 23 45  1  0  0  0  0
 23 46  1  0  0  0  0
 23 47  1  0  0  0  0
M  END
> <s_m_source_file>
AV-unprocessed.smi

> <i_m_source_file_index>
2067

> <i_lp_mmshare_version>
43012

> <i_f3d_flags>
0

> <s_epik_input>
W0NIM11bQ0BASF0xW0NIMl1bQ0gyXVtDSDJdW0NIMl1bQ0BIXTFPW0NIMl1bQ0gyXVtOSF1jMmMoQyNOKWMoPU8pbihbQ0gzXSljKD1PKW4yW0NIM10=

> <s_epik_cmdline>
J2VwaWtfcHl0aG9uJywgJy1waCcsICc3LjAnLCAnLXRuJywgJzgnLCAnLW1hJywgJzIwMCcsICctbWV0YWxfYmluZGluZycsICctaW1hZScsICc8aW5maWxlLm1hZT4nLCAnLW9tYWUnLCAnPG91dGZpbGUubWFlPic=

> <r_epik_Ionization_Penalty>
0.00056529

> <r_epik_Ionization_Penalty_Charging>
3.94678e-10

> <r_epik_Ionization_Penalty_Neutral>
0.000565289

> <r_epik_State_Penalty>
0.000354611

> <r_epik_Charging_Adjusted_Penalty>
0.000354611

> <i_epik_Tot_Q>
0

> <i_epik_Tot_abs_Q>
0

> <r_epik_Metal_State_Penalty>
-0

> <b_epik_Metal_Only>
0

> <s_lp_Force_Field>
OPLS_2005

> <r_lp_Energy>
31.2775

> <b_lp_Chiralities_Consistent>
1

> <s_lp_Variant>
AV-unprocessed.smi:2067-4

> <Gold.Version>
5.8.1

> <Gold.Id.Protein>
6NUR|6NUR_protein|mol2

> <Gold.PLP.Fitness>
41.1372

> <Gold.PLP.PLP>
-35.6609

> <Gold.PLP.part.hbond>
-3.0000

> <Gold.PLP.part.metal>
0.0000

> <Gold.PLP.part.buried>
-0.4248

> <Gold.PLP.part.nonpolar>
-32.1691

> <Gold.PLP.part.repulsive>
0.1889

> <Gold.PLP.ligand.clash>
10.7747

> <Gold.PLP.ligand.torsion>
0.1854

> <Gold.PLP.Chemscore.Hbond>
1.9440

> <Gold.PLP.Chemscore.CHOScore>
0.0000

> <Gold.PLP.Chemscore.Metal>
0.0000

> <Gold.Chemscore.Hbonds>
donor molecule, donor type, donor heavy atom, donor atom, acceptor molecule, acceptor atom, score
      P1  H  7989  7998       L1    21  0.19

> <Gold.PLP.Chemscore.Internal.Correction>
10.7898

> <Gold.Rescore>
     Score         DG    S(hbond)    S(metal)    S(lipo)     H(rot)  DE(clash)    DE(int)     intcor
     10.98     -14.70       1.45        0.00      76.00       1.76       0.80       2.91       ----

> <Gold.Chemscore.Fitness>
10.9833

> <Gold.Chemscore.DG>
-14.6999

> <Gold.Chemscore.ZeroCoef>
-5.4800

> <Gold.Chemscore.Hbond>
1.4458

> <Gold.Chemscore.Metal>
0.0000

> <Gold.Chemscore.Lipo>
76.0007

> <Gold.Chemscore.Internal_Hbond>
0.0000

> <Gold.Chemscore.DEClash>
0.8029

> <Gold.Chemscore.DEInternal>
2.9136

> <Gold.Chemscore.Rot>
1.7583

> <Gold.Chemscore.Internal.Correction>
   9.000000E+99

> <Gold.Chemscore.Hbonds>
donor molecule, donor type, donor heavy atom, donor atom, acceptor molecule, acceptor atom, score
      P1  H  7989  7998       L1    21  0.08
      P1  H 10752 10764       L1    17  0.01

> <Gold.Chemscore.Hbond.Weighted>
-4.8290

> <Gold.Chemscore.Metal.Weighted>
-0.0000

> <Gold.Chemscore.Lipo.Weighted>
-8.8921

> <Gold.Chemscore.Internal_Hbond.Weighted>
0.0000

> <Gold.Chemscore.DEClash.Weighted>
0.8029

> <Gold.Chemscore.DEInternal.Weighted>
2.9136

> <Gold.Chemscore.Rot.Weighted>
4.5012

> <Gold.Chemscore.Internal.Correction.Weighted>
   9.000000E+99

> <Gold.Protein.RotatedTorsions>
[ 6907 6896 6895 6894 ] final  137.94 input  -60.11 | X-H torsion
[ 7974 7965 7964 7962 ] final  -69.75 input  175.53 | X-H torsion
[ 8008 7997 7996 7995 ] final   86.17 input   59.86 | X-H torsion
[ 10167 10162 10161 10158 ] final  121.62 input  -65.29 | X-H torsion
[ 10718 10713 10712 10709 ] final  -65.61 input   66.30 | X-H torsion
[ 10763 10752 10751 10750 ] final  -10.25 input  -60.55 | X-H torsion
[ 11005 11000 10999 10996 ] final -116.91 input  -57.11 | X-H torsion

> <Gold.Protein.ActiveResidues>
 VAL166  LYS551  ARG553  GLY616  TRP617  ASP618  TYR619  PRO620  LYS621  CYS622 
 ASP623  PHE694  ASN695  SER759  ASP760  ASP761  ALA762  ILE779  LEU786  VAL792 
 PHE793  MET794  SER795  GLU796  ALA797  LYS798  CYS799  TRP800  GLU811  SER814 

> <Gold.Protein.RotatedAtoms>
  152.2723  133.5394  159.5446 H   0  0  0  0  0  0  0  0  0  0  0  0  # atno 6907 bound_to 6896
  150.7164  134.0680  159.3863 H   0  0  0  0  0  0  0  0  0  0  0  0  # atno 6908 bound_to 6896
  151.8594  135.0529  160.0518 H   0  0  0  0  0  0  0  0  0  0  0  0  # atno 6909 bound_to 6896
  145.6998  140.9121  143.0737 H   0  0  0  0  0  0  0  0  0  0  0  0  # atno 7974 bound_to 7965
  155.9594  140.3394  155.6477 H   0  0  0  0  0  0  0  0  0  0  0  0  # atno 8008 bound_to 7997
  155.6818  140.0738  157.2500 H   0  0  0  0  0  0  0  0  0  0  0  0  # atno 8009 bound_to 7997
  154.4139  140.1673  156.1978 H   0  0  0  0  0  0  0  0  0  0  0  0  # atno 8010 bound_to 7997
  139.5908  144.7024  151.3295 H   0  0  0  0  0  0  0  0  0  0  0  0  # atno 10167 bound_to 10162
  156.0659  130.4250  150.1589 H   0  0  0  0  0  0  0  0  0  0  0  0  # atno 10718 bound_to 10713
  153.4664  135.7016  153.6019 H   0  0  0  0  0  0  0  0  0  0  0  0  # atno 10763 bound_to 10752
  153.4292  135.3807  155.2160 H   0  0  0  0  0  0  0  0  0  0  0  0  # atno 10764 bound_to 10752
  154.8726  135.3946  154.4096 H   0  0  0  0  0  0  0  0  0  0  0  0  # atno 10765 bound_to 10752
  141.0390  133.9865  157.3025 H   0  0  0  0  0  0  0  0  0  0  0  0  # atno 11005 bound_to 11000
  144.6972  139.8932  143.7454 LP  0  0  0  0  0  0  0  0  0  0  0  0  # atno 17320 bound_to 7965
  146.0808  139.3796  143.0465 LP  0  0  0  0  0  0  0  0  0  0  0  0  # atno 17321 bound_to 7965
  140.7171  143.7236  150.7677 LP  0  0  0  0  0  0  0  0  0  0  0  0  # atno 17342 bound_to 10162
  140.0791  143.4986  152.2539 LP  0  0  0  0  0  0  0  0  0  0  0  0  # atno 17343 bound_to 10162
  156.9649  130.9816  151.3471 LP  0  0  0  0  0  0  0  0  0  0  0  0  # atno 17370 bound_to 10713
  157.5701  130.8304  149.8379 LP  0  0  0  0  0  0  0  0  0  0  0  0  # atno 17371 bound_to 10713
  139.9262  135.0201  156.8241 LP  0  0  0  0  0  0  0  0  0  0  0  0  # atno 17394 bound_to 11000
  140.6269  133.9942  155.7644 LP  0  0  0  0  0  0  0  0  0  0  0  0  # atno 17395 bound_to 11000

$$$$
