AV-unprocessed.smi:845|AV-procd|sdf|3930|dock2
  -GOLD-   22720 1393D 1   1.00000     0.00000
 Structure written by MMmdl.
 42 43  0  0  0  0  0  0  0  0  1 V2000
  145.1123  140.3710  155.5650 C   0  0  0  0  0  0  0  0  0  0  0  0
  145.5780  138.9018  155.5679 C   0  0  0  0  0  0  0  0  0  0  0  0
  145.7593  138.3830  157.0044 C   0  0  0  0  0  0  0  0  0  0  0  0
  146.7932  138.5470  154.6532 C   0  0  1  0  0  0  0  0  0  0  0  0
  146.4455  138.5079  153.1376 C   0  0  0  0  0  0  0  0  0  0  0  0
  146.7161  137.2099  152.5273 N   0  0  0  0  0  0  0  0  0  0  0  0
  145.7789  136.3738  152.0585 C   0  0  0  0  0  0  0  0  0  0  0  0
  144.5726  136.6157  152.1008 O   0  0  0  0  0  0  0  0  0  0  0  0
  146.3309  135.2631  151.5442 N   0  0  0  0  0  0  0  0  0  0  0  0
  145.6678  134.1541  150.9627 C   0  0  0  0  0  0  0  0  0  0  0  0
  144.5639  134.3668  150.2438 N   0  0  0  0  0  0  0  0  0  0  0  0
  144.0297  133.1780  149.7386 C   0  0  0  0  0  0  0  0  0  0  0  0
  144.7473  132.0595  150.0837 C   0  0  0  0  0  0  0  0  0  0  0  0
  146.1323  132.4539  151.0658 S   0  0  0  0  0  0  0  0  0  0  0  0
  148.0469  139.2549  154.9795 N   0  0  0  0  0  0  0  0  0  0  0  0
  149.2291  138.6039  154.4176 C   0  0  0  0  0  0  0  0  0  0  0  0
  150.5292  139.2849  154.8782 C   0  0  0  0  0  0  0  0  0  0  0  0
  150.4943  140.6646  154.5285 O   0  0  0  0  0  0  0  0  0  0  0  0
  149.3808  141.3466  155.0960 C   0  0  0  0  0  0  0  0  0  0  0  0
  148.0736  140.6769  154.6381 C   0  0  0  0  0  0  0  0  0  0  0  0
  145.7698  141.0176  156.1423 H   0  0  0  0  0  0  0  0  0  0  0  0
  144.1264  140.4520  156.0232 H   0  0  0  0  0  0  0  0  0  0  0  0
  145.0252  140.7781  154.5587 H   0  0  0  0  0  0  0  0  0  0  0  0
  144.7340  138.3379  155.1692 H   0  0  0  0  0  0  0  0  0  0  0  0
  146.5525  138.9187  157.5265 H   0  0  0  0  0  0  0  0  0  0  0  0
  146.0126  137.3226  157.0109 H   0  0  0  0  0  0  0  0  0  0  0  0
  144.8436  138.5049  157.5835 H   0  0  0  0  0  0  0  0  0  0  0  0
  146.9851  137.5053  154.9152 H   0  0  0  0  0  0  0  0  0  0  0  0
  145.3923  138.7351  152.9763 H   0  0  0  0  0  0  0  0  0  0  0  0
  146.9980  139.2697  152.5874 H   0  0  0  0  0  0  0  0  0  0  0  0
  147.6845  136.9346  152.4511 H   0  0  0  0  0  0  0  0  0  0  0  0
  147.3379  135.2019  151.5718 H   0  0  0  0  0  0  0  0  0  0  0  0
  143.1321  133.2195  149.1391 H   0  0  0  0  0  0  0  0  0  0  0  0
  144.5459  131.0316  149.8206 H   0  0  0  0  0  0  0  0  0  0  0  0
  149.2529  137.5542  154.7122 H   0  0  0  0  0  0  0  0  0  0  0  0
  149.1913  138.6229  153.3286 H   0  0  0  0  0  0  0  0  0  0  0  0
  150.6608  139.1784  155.9561 H   0  0  0  0  0  0  0  0  0  0  0  0
  151.3911  138.8180  154.4013 H   0  0  0  0  0  0  0  0  0  0  0  0
  149.4572  141.3398  156.1844 H   0  0  0  0  0  0  0  0  0  0  0  0
  149.4034  142.3894  154.7794 H   0  0  0  0  0  0  0  0  0  0  0  0
  147.9725  140.8063  153.5602 H   0  0  0  0  0  0  0  0  0  0  0  0
  147.2427  141.2028  155.0962 H   0  0  0  0  0  0  0  0  0  0  0  0
  1  2  1  0  0  0  0
  1 21  1  0  0  0  0
  1 22  1  0  0  0  0
  1 23  1  0  0  0  0
  2  3  1  0  0  0  0
  2  4  1  0  0  0  0
  2 24  1  0  0  0  0
  3 25  1  0  0  0  0
  3 26  1  0  0  0  0
  3 27  1  0  0  0  0
  4  5  1  0  0  0  0
  4 15  1  0  0  0  0
  4 28  1  0  0  0  0
  5  6  1  0  0  0  0
  5 29  1  0  0  0  0
  5 30  1  0  0  0  0
  6  7  1  0  0  0  0
  6 31  1  0  0  0  0
  7  8  2  0  0  0  0
  7  9  1  0  0  0  0
  9 10  1  0  0  0  0
  9 32  1  0  0  0  0
 10 14  1  0  0  0  0
 10 11  2  0  0  0  0
 11 12  1  0  0  0  0
 12 13  2  0  0  0  0
 12 33  1  0  0  0  0
 13 14  1  0  0  0  0
 13 34  1  0  0  0  0
 15 20  1  0  0  0  0
 15 16  1  0  0  0  0
 16 17  1  0  0  0  0
 16 35  1  0  0  0  0
 16 36  1  0  0  0  0
 17 18  1  0  0  0  0
 17 37  1  0  0  0  0
 17 38  1  0  0  0  0
 18 19  1  0  0  0  0
 19 20  1  0  0  0  0
 19 39  1  0  0  0  0
 19 40  1  0  0  0  0
 20 41  1  0  0  0  0
 20 42  1  0  0  0  0
M  END
> <s_m_source_file>
AV-unprocessed.smi

> <i_m_source_file_index>
845

> <i_lp_mmshare_version>
43012

> <i_f3d_flags>
0

> <s_epik_input>
W0NIMl0xW0NIMl1PW0NIMl1bQ0gyXU4xW0NASF0oW0NIXShbQ0gzXSlbQ0gzXSlbQ0gyXVtOSF1DKD1PKVtOSF1jMm5bY0hdW2NIXXMy

> <s_epik_cmdline>
J2VwaWtfcHl0aG9uJywgJy1waCcsICc3LjAnLCAnLXRuJywgJzgnLCAnLW1hJywgJzIwMCcsICctbWV0YWxfYmluZGluZycsICctaW1hZScsICc8aW5maWxlLm1hZT4nLCAnLW9tYWUnLCAnPG91dGZpbGUubWFlPic=

> <r_lp_tautomer_probability>
0.999

> <r_epik_Ionization_Penalty>
0.423897

> <r_epik_Ionization_Penalty_Charging>
0

> <r_epik_Ionization_Penalty_Neutral>
0.423897

> <r_epik_State_Penalty>
0.424384

> <r_epik_Charging_Adjusted_Penalty>
0.424384

> <i_epik_Tot_Q>
0

> <i_epik_Tot_abs_Q>
0

> <r_epik_Metal_State_Penalty>
0.434476

> <b_epik_Metal_Only>
0

> <s_lp_Force_Field>
OPLS_2005

> <r_lp_Energy>
35.7747

> <b_lp_Chiralities_Consistent>
1

> <s_lp_Variant>
AV-unprocessed.smi:845-4

> <Gold.Version>
5.8.1

> <Gold.Id.Protein>
6NUR|6NUR_protein|mol2

> <Gold.PLP.Fitness>
36.8778

> <Gold.PLP.PLP>
-27.4580

> <Gold.PLP.part.hbond>
-2.4859

> <Gold.PLP.part.metal>
0.0000

> <Gold.PLP.part.buried>
-4.6810

> <Gold.PLP.part.nonpolar>
-21.9524

> <Gold.PLP.part.repulsive>
1.2473

> <Gold.PLP.ligand.clash>
0.0000

> <Gold.PLP.ligand.torsion>
1.2843

> <Gold.PLP.Chemscore.Hbond>
2.7842

> <Gold.PLP.Chemscore.CHOScore>
1.0000

> <Gold.PLP.Chemscore.Metal>
0.0000

> <Gold.Chemscore.Hbonds>
donor molecule, donor type, donor heavy atom, donor atom, acceptor molecule, acceptor atom, score
      L1  H     6    31       P1  7948  1.00
      L1  H     9    32       P1  7948  0.90
      P1  H  7989  7998       L1    18  0.90
      L1  C    12    33       P1 10186  1.00

> <Gold.PLP.Chemscore.Internal.Correction>
0.6360

> <Gold.Rescore>
     Score         DG    S(hbond)    S(metal)    S(lipo)     H(rot)  DE(clash)    DE(int)     intcor
     14.69     -17.30       2.76        0.00      60.58       1.75       0.06       2.55       ----

> <Gold.Chemscore.Fitness>
14.6895

> <Gold.Chemscore.DG>
-17.2970

> <Gold.Chemscore.ZeroCoef>
-5.4800

> <Gold.Chemscore.Hbond>
2.7579

> <Gold.Chemscore.Metal>
0.0000

> <Gold.Chemscore.Lipo>
60.5800

> <Gold.Chemscore.Internal_Hbond>
0.0000

> <Gold.Chemscore.DEClash>
0.0591

> <Gold.Chemscore.DEInternal>
2.5484

> <Gold.Chemscore.Rot>
1.7509

> <Gold.Chemscore.Internal.Correction>
   9.000000E+99

> <Gold.Chemscore.Hbonds>
donor molecule, donor type, donor heavy atom, donor atom, acceptor molecule, acceptor atom, score
      L1  H     6    31       P1  7948  0.95
      L1  H     9    32       P1  7948  0.78
      P1  H  7989  7998       L1    18  0.50

> <Gold.Chemscore.Hbond.Weighted>
-9.2114

> <Gold.Chemscore.Metal.Weighted>
-0.0000

> <Gold.Chemscore.Lipo.Weighted>
-7.0879

> <Gold.Chemscore.Internal_Hbond.Weighted>
0.0000

> <Gold.Chemscore.DEClash.Weighted>
0.0591

> <Gold.Chemscore.DEInternal.Weighted>
2.5484

> <Gold.Chemscore.Rot.Weighted>
4.4823

> <Gold.Chemscore.Internal.Correction.Weighted>
   9.000000E+99

> <Gold.Protein.RotatedTorsions>
[ 6907 6896 6895 6894 ] final  159.11 input  -60.11 | X-H torsion
[ 7974 7965 7964 7962 ] final  -70.10 input  175.53 | X-H torsion
[ 8008 7997 7996 7995 ] final  152.97 input   59.86 | X-H torsion
[ 10167 10162 10161 10158 ] final  154.89 input  -65.29 | X-H torsion
[ 10718 10713 10712 10709 ] final  -57.91 input   66.30 | X-H torsion
[ 10763 10752 10751 10750 ] final   15.00 input  -60.55 | X-H torsion
[ 11005 11000 10999 10996 ] final  -14.18 input  -57.11 | X-H torsion

> <Gold.Protein.ActiveResidues>
 VAL166  LYS551  ARG553  GLY616  TRP617  ASP618  TYR619  PRO620  LYS621  CYS622 
 ASP623  PHE694  ASN695  SER759  ASP760  ASP761  ALA762  ILE779  LEU786  VAL792 
 PHE793  MET794  SER795  GLU796  ALA797  LYS798  CYS799  TRP800  GLU811  SER814 

> <Gold.Protein.RotatedAtoms>
  151.9905  133.3789  159.4142 H   0  0  0  0  0  0  0  0  0  0  0  0  # atno 6907 bound_to 6896
  150.6922  134.3942  159.5099 H   0  0  0  0  0  0  0  0  0  0  0  0  # atno 6908 bound_to 6896
  152.1675  134.8861  160.0587 H   0  0  0  0  0  0  0  0  0  0  0  0  # atno 6909 bound_to 6896
  145.6953  140.9137  143.0760 H   0  0  0  0  0  0  0  0  0  0  0  0  # atno 7974 bound_to 7965
  156.2604  140.2006  156.6418 H   0  0  0  0  0  0  0  0  0  0  0  0  # atno 8008 bound_to 7997
  154.6604  140.0561  157.0080 H   0  0  0  0  0  0  0  0  0  0  0  0  # atno 8009 bound_to 7997
  155.1285  140.3231  155.4483 H   0  0  0  0  0  0  0  0  0  0  0  0  # atno 8010 bound_to 7997
  139.4822  144.5147  151.7970 H   0  0  0  0  0  0  0  0  0  0  0  0  # atno 10167 bound_to 10162
  156.1175  130.4169  150.0505 H   0  0  0  0  0  0  0  0  0  0  0  0  # atno 10718 bound_to 10713
  153.1567  135.6788  153.8802 H   0  0  0  0  0  0  0  0  0  0  0  0  # atno 10763 bound_to 10752
  153.8210  135.3130  155.3411 H   0  0  0  0  0  0  0  0  0  0  0  0  # atno 10764 bound_to 10752
  154.7903  135.4838  154.0125 H   0  0  0  0  0  0  0  0  0  0  0  0  # atno 10765 bound_to 10752
  140.7838  133.8342  155.9316 H   0  0  0  0  0  0  0  0  0  0  0  0  # atno 11005 bound_to 11000
  144.6984  139.8876  143.7451 LP  0  0  0  0  0  0  0  0  0  0  0  0  # atno 17320 bound_to 7965
  146.0845  139.3834  143.0443 LP  0  0  0  0  0  0  0  0  0  0  0  0  # atno 17321 bound_to 7965
  140.4654  144.1663  150.5911 LP  0  0  0  0  0  0  0  0  0  0  0  0  # atno 17342 bound_to 10162
  140.4440  143.2514  151.9436 LP  0  0  0  0  0  0  0  0  0  0  0  0  # atno 17343 bound_to 10162
  156.8453  130.9440  151.3629 LP  0  0  0  0  0  0  0  0  0  0  0  0  # atno 17370 bound_to 10713
  157.6358  130.8765  149.9356 LP  0  0  0  0  0  0  0  0  0  0  0  0  # atno 17371 bound_to 10713
  140.9457  134.1844  157.4765 LP  0  0  0  0  0  0  0  0  0  0  0  0  # atno 17394 bound_to 11000
  139.8739  134.9889  156.5434 LP  0  0  0  0  0  0  0  0  0  0  0  0  # atno 17395 bound_to 11000

$$$$
