AV-unprocessed.smi:2631|AV-procd|sdf|10249|dock3
  -GOLD-   2272014263D 1   1.00000     0.00000
 Structure written by MMmdl.
 34 35  0  0  0  0  0  0  0  0  2 V2000
  148.6816  134.5406  159.7002 C   0  0  0  0  0  0  0  0  0  0  0  0
  149.5272  134.1439  158.6360 O   0  0  0  0  0  0  0  0  0  0  0  0
  149.6812  135.1558  157.6549 C   0  0  0  0  0  0  0  0  0  0  0  0
  150.1863  136.4512  158.3130 C   0  0  0  0  0  0  0  0  0  0  0  0
  150.8886  137.3216  157.3456 N   0  0  0  0  0  0  0  0  0  0  0  0
  150.4602  138.6675  157.1975 C   0  0  0  0  0  0  0  0  0  0  0  0
  149.3968  139.1445  157.9467 N   0  0  0  0  0  0  0  0  0  0  0  0
  151.1042  139.4757  156.3258 C   0  0  0  0  0  0  0  0  0  0  0  0
  150.7329  141.1892  156.0242 S   0  0  0  0  0  0  0  0  0  0  0  0
  151.3372  141.9236  157.5081 C   0  0  0  0  0  0  0  0  0  0  0  0
  151.3280  143.3250  157.6532 C   0  0  0  0  0  0  0  0  0  0  0  0
  151.8016  143.9104  158.8435 C   0  0  0  0  0  0  0  0  0  0  0  0
  152.2847  143.0954  159.8866 C   0  0  0  0  0  0  0  0  0  0  0  0
  152.8619  143.8136  161.3452 Cl  0  0  0  0  0  0  0  0  0  0  0  0
  152.2962  141.6941  159.7387 C   0  0  0  0  0  0  0  0  0  0  0  0
  151.8235  141.1073  158.5487 C   0  0  0  0  0  0  0  0  0  0  0  0
  152.2282  138.9711  155.5348 C   0  0  0  0  0  0  0  0  0  0  0  0
  152.8169  139.6916  154.7275 O   0  0  0  0  0  0  0  0  0  0  0  0
  152.5843  137.6740  155.7410 N   0  5  0  0  0  0  0  0  0  0  0  0
  151.9522  136.8446  156.6242 C   0  0  0  0  0  0  0  0  0  0  0  0
  152.3169  135.6793  156.7864 O   0  0  0  0  0  0  0  0  0  0  0  0
  148.5987  133.7292  160.4233 H   0  0  0  0  0  0  0  0  0  0  0  0
  147.6790  134.7758  159.3408 H   0  0  0  0  0  0  0  0  0  0  0  0
  149.0832  135.4127  160.2178 H   0  0  0  0  0  0  0  0  0  0  0  0
  150.4022  134.8243  156.9065 H   0  0  0  0  0  0  0  0  0  0  0  0
  148.7368  135.3309  157.1375 H   0  0  0  0  0  0  0  0  0  0  0  0
  149.3527  136.9616  158.7975 H   0  0  0  0  0  0  0  0  0  0  0  0
  150.8503  136.2046  159.1417 H   0  0  0  0  0  0  0  0  0  0  0  0
  148.9091  138.5548  158.6055 H   0  0  0  0  0  0  0  0  0  0  0  0
  149.1579  140.1253  157.9605 H   0  0  0  0  0  0  0  0  0  0  0  0
  150.9556  143.9516  156.8562 H   0  0  0  0  0  0  0  0  0  0  0  0
  151.7923  144.9847  158.9554 H   0  0  0  0  0  0  0  0  0  0  0  0
  152.6655  141.0673  160.5370 H   0  0  0  0  0  0  0  0  0  0  0  0
  151.8300  140.0326  158.4393 H   0  0  0  0  0  0  0  0  0  0  0  0
  1  2  1  0  0  0  0
  1 22  1  0  0  0  0
  1 23  1  0  0  0  0
  1 24  1  0  0  0  0
  2  3  1  0  0  0  0
  3  4  1  0  0  0  0
  3 25  1  0  0  0  0
  3 26  1  0  0  0  0
  4  5  1  0  0  0  0
  4 27  1  0  0  0  0
  4 28  1  0  0  0  0
  5 20  1  0  0  0  0
  5  6  1  0  0  0  0
  6  7  1  0  0  0  0
  6  8  2  0  0  0  0
  7 29  1  0  0  0  0
  7 30  1  0  0  0  0
  8  9  1  0  0  0  0
  8 17  1  0  0  0  0
  9 10  1  0  0  0  0
 10 16  1  0  0  0  0
 10 11  2  0  0  0  0
 11 12  1  0  0  0  0
 11 31  1  0  0  0  0
 12 13  2  0  0  0  0
 12 32  1  0  0  0  0
 13 14  1  0  0  0  0
 13 15  1  0  0  0  0
 15 16  2  0  0  0  0
 15 33  1  0  0  0  0
 16 34  1  0  0  0  0
 17 18  2  0  0  0  0
 17 19  1  0  0  0  0
 19 20  1  0  0  0  0
 20 21  2  0  0  0  0
M  CHG  1  19  -1
M  END
> <s_m_source_file>
AV-unprocessed.smi

> <i_m_source_file_index>
2631

> <i_lp_mmshare_version>
43012

> <i_f3d_flags>
0

> <s_epik_input>
W0NIM11PW0NIMl1bQ0gyXW4xYyhbTkgyXSljKGMoPU8pW25IXWMxPU8pU2MyW2NIXVtjSF1jKENsKVtjSF1bY0hdMg==

> <s_epik_cmdline>
J2VwaWtfcHl0aG9uJywgJy1waCcsICc3LjAnLCAnLXRuJywgJzgnLCAnLW1hJywgJzIwMCcsICctbWV0YWxfYmluZGluZycsICctaW1hZScsICc8aW5maWxlLm1hZT4nLCAnLW9tYWUnLCAnPG91dGZpbGUubWFlPic=

> <r_lp_tautomer_probability>
1

> <r_epik_Ionization_Penalty>
5.35309

> <r_epik_Ionization_Penalty_Charging>
0.0281434

> <r_epik_Ionization_Penalty_Neutral>
5.32495

> <r_epik_State_Penalty>
5.32488

> <r_epik_Charging_Adjusted_Penalty>
5.35302

> <i_epik_Tot_Q>
-1

> <i_epik_Tot_abs_Q>
1

> <r_epik_Metal_State_Penalty>
1.30191

> <b_epik_Metal_Only>
1

> <s_epik_Chemistry_Notes>
This compound has an imine and may undergo hydrolysis.

> <s_lp_Force_Field>
OPLS_2005

> <r_lp_Energy>
29.1443

> <b_lp_Chiralities_Consistent>
1

> <s_lp_Variant>
AV-unprocessed.smi:2631-2

> <Gold.Version>
5.8.1

> <Gold.Id.Protein>
6NUR|6NUR_protein|mol2

> <Gold.PLP.Fitness>
45.3030

> <Gold.PLP.PLP>
-35.6391

> <Gold.PLP.part.hbond>
-4.7037

> <Gold.PLP.part.metal>
0.0000

> <Gold.PLP.part.buried>
-4.4037

> <Gold.PLP.part.nonpolar>
-27.2976

> <Gold.PLP.part.repulsive>
0.1618

> <Gold.PLP.ligand.clash>
0.0000

> <Gold.PLP.ligand.torsion>
0.3272

> <Gold.PLP.Chemscore.Hbond>
3.4160

> <Gold.PLP.Chemscore.CHOScore>
0.0000

> <Gold.PLP.Chemscore.Metal>
0.0000

> <Gold.Chemscore.Hbonds>
donor molecule, donor type, donor heavy atom, donor atom, acceptor molecule, acceptor atom, score
      P1  H  6896  6908       L1     2  0.71
      P1  H  7989  7998       L1    18  0.44
      P1  H  7997  8009       L1    18  0.75
      P1  H 10752 10764       L1    21  1.00

> <Gold.PLP.Chemscore.Internal.Correction>
0.0703

> <Gold.Rescore>
     Score         DG    S(hbond)    S(metal)    S(lipo)     H(rot)  DE(clash)    DE(int)     intcor
     15.21     -16.89       1.83        0.00      89.53       2.02       0.01       1.66       ----

> <Gold.Chemscore.Fitness>
15.2143

> <Gold.Chemscore.DG>
-16.8888

> <Gold.Chemscore.ZeroCoef>
-5.4800

> <Gold.Chemscore.Hbond>
1.8306

> <Gold.Chemscore.Metal>
0.0000

> <Gold.Chemscore.Lipo>
89.5250

> <Gold.Chemscore.Internal_Hbond>
0.0000

> <Gold.Chemscore.DEClash>
0.0141

> <Gold.Chemscore.DEInternal>
1.6604

> <Gold.Chemscore.Rot>
2.0234

> <Gold.Chemscore.Internal.Correction>
   9.000000E+99

> <Gold.Chemscore.Hbonds>
donor molecule, donor type, donor heavy atom, donor atom, acceptor molecule, acceptor atom, score
      P1  H  6896  6908       L1     2  0.22
      P1  H  7989  7998       L1    18  0.41
      P1  H  7997  8009       L1    18  0.13
      P1  H 10752 10764       L1    21  0.30

> <Gold.Chemscore.Hbond.Weighted>
-6.1141

> <Gold.Chemscore.Metal.Weighted>
-0.0000

> <Gold.Chemscore.Lipo.Weighted>
-10.4744

> <Gold.Chemscore.Internal_Hbond.Weighted>
0.0000

> <Gold.Chemscore.DEClash.Weighted>
0.0141

> <Gold.Chemscore.DEInternal.Weighted>
1.6604

> <Gold.Chemscore.Rot.Weighted>
5.1798

> <Gold.Chemscore.Internal.Correction.Weighted>
   9.000000E+99

> <Gold.Protein.RotatedTorsions>
[ 6907 6896 6895 6894 ] final  122.57 input  -60.11 | X-H torsion
[ 7974 7965 7964 7962 ] final  102.63 input  175.53 | X-H torsion
[ 8008 7997 7996 7995 ] final -141.39 input   59.86 | X-H torsion
[ 10167 10162 10161 10158 ] final -146.88 input  -65.29 | X-H torsion
[ 10718 10713 10712 10709 ] final   29.68 input   66.30 | X-H torsion
[ 10763 10752 10751 10750 ] final  -12.82 input  -60.55 | X-H torsion
[ 11005 11000 10999 10996 ] final  167.33 input  -57.11 | X-H torsion

> <Gold.Protein.ActiveResidues>
 VAL166  LYS551  ARG553  GLY616  TRP617  ASP618  TYR619  PRO620  LYS621  CYS622 
 ASP623  PHE694  ASN695  SER759  ASP760  ASP761  ALA762  ILE779  LEU786  VAL792 
 PHE793  MET794  SER795  GLU796  ALA797  LYS798  CYS799  TRP800  GLU811  SER814 

> <Gold.Protein.RotatedAtoms>
  152.4232  133.7152  159.6501 H   0  0  0  0  0  0  0  0  0  0  0  0  # atno 6907 bound_to 6896
  150.8109  133.8414  159.3189 H   0  0  0  0  0  0  0  0  0  0  0  0  # atno 6908 bound_to 6896
  151.6124  135.1041  160.0135 H   0  0  0  0  0  0  0  0  0  0  0  0  # atno 6909 bound_to 6896
  145.3565  139.2427  143.3530 H   0  0  0  0  0  0  0  0  0  0  0  0  # atno 7974 bound_to 7965
  155.4771  140.0557  157.2972 H   0  0  0  0  0  0  0  0  0  0  0  0  # atno 8008 bound_to 7997
  154.4675  140.2025  156.0033 H   0  0  0  0  0  0  0  0  0  0  0  0  # atno 8009 bound_to 7997
  156.0999  140.3220  155.7933 H   0  0  0  0  0  0  0  0  0  0  0  0  # atno 8010 bound_to 7997
  139.7673  143.8289  152.2618 H   0  0  0  0  0  0  0  0  0  0  0  0  # atno 10167 bound_to 10162
  157.2498  130.7109  149.6399 H   0  0  0  0  0  0  0  0  0  0  0  0  # atno 10718 bound_to 10713
  153.5042  135.7017  153.5815 H   0  0  0  0  0  0  0  0  0  0  0  0  # atno 10763 bound_to 10752
  153.3934  135.3890  155.1938 H   0  0  0  0  0  0  0  0  0  0  0  0  # atno 10764 bound_to 10752
  154.8708  135.3864  154.4515 H   0  0  0  0  0  0  0  0  0  0  0  0  # atno 10765 bound_to 10752
  140.2757  134.7791  157.3715 H   0  0  0  0  0  0  0  0  0  0  0  0  # atno 11005 bound_to 11000
  146.2946  140.4191  142.8727 LP  0  0  0  0  0  0  0  0  0  0  0  0  # atno 17320 bound_to 7965
  144.8678  140.7231  143.6066 LP  0  0  0  0  0  0  0  0  0  0  0  0  # atno 17321 bound_to 7965
  139.8313  144.7252  150.9447 LP  0  0  0  0  0  0  0  0  0  0  0  0  # atno 17342 bound_to 10162
  140.7811  143.4067  151.1059 LP  0  0  0  0  0  0  0  0  0  0  0  0  # atno 17343 bound_to 10162
  155.9666  130.4431  150.5409 LP  0  0  0  0  0  0  0  0  0  0  0  0  # atno 17370 bound_to 10713
  157.3290  131.0696  151.1875 LP  0  0  0  0  0  0  0  0  0  0  0  0  # atno 17371 bound_to 10713
  140.1331  134.5070  155.8090 LP  0  0  0  0  0  0  0  0  0  0  0  0  # atno 17394 bound_to 11000
  141.2170  133.6797  156.7074 LP  0  0  0  0  0  0  0  0  0  0  0  0  # atno 17395 bound_to 11000

$$$$
