AV-unprocessed.smi:1005|AV-procd|sdf|4376|dock5
  -GOLD-   22720 2293D 1   1.00000     0.00000
 Structure written by MMmdl.
 57 59  0  0  0  0  0  0  0  0  3 V2000
  151.9195  144.9612  160.7232 C   0  0  0  0  0  0  0  0  0  0  0  0
  151.8895  143.7980  159.7463 C   0  0  0  0  0  0  0  0  0  0  0  0
  151.2417  143.9778  158.5036 C   0  0  0  0  0  0  0  0  0  0  0  0
  151.2357  142.8977  157.6291 C   0  0  0  0  0  0  0  0  0  0  0  0
  150.6940  142.7613  156.3493 N   0  3  0  0  0  0  0  0  0  0  0  0
  150.9460  141.5083  155.8801 C   0  0  0  0  0  0  0  0  0  0  0  0
  151.6421  140.8420  156.8407 N   0  0  0  0  0  0  0  0  0  0  0  0
  152.1539  139.4643  156.8358 C   0  0  0  0  0  0  0  0  0  0  0  0
  152.2445  138.8610  155.4199 C   0  0  2  0  0  0  0  0  0  0  0  0
  153.0619  139.7178  154.6507 O   0  0  0  0  0  0  0  0  0  0  0  0
  150.8759  138.7328  154.7164 C   0  0  0  0  0  0  0  0  0  0  0  0
  150.0429  137.6104  155.1502 N   0  0  0  0  0  0  0  0  0  0  0  0
  150.7179  136.3419  154.8985 C   0  0  0  0  0  0  0  0  0  0  0  0
  149.8673  135.1407  155.3402 C   0  0  0  0  0  0  0  0  0  0  0  0
  148.6099  135.1850  154.6750 O   0  0  0  0  0  0  0  0  0  0  0  0
  147.8823  136.3829  154.9357 C   0  0  2  0  0  0  0  0  0  0  0  0
  146.5546  136.3079  154.1613 C   0  0  0  0  0  0  0  0  0  0  0  0
  146.7081  135.6644  152.8316 N   0  3  0  0  0  0  0  0  0  0  0  0
  146.6863  134.1844  152.8886 C   0  0  0  0  0  0  0  0  0  0  0  0
  145.7374  136.1846  151.8435 C   0  0  0  0  0  0  0  0  0  0  0  0
  148.7371  137.5888  154.4927 C   0  0  0  0  0  0  0  0  0  0  0  0
  151.8417  141.6681  157.9539 C   0  0  0  0  0  0  0  0  0  0  0  0
  152.4804  141.4736  159.1768 C   0  0  0  0  0  0  0  0  0  0  0  0
  152.5026  142.5622  160.0777 C   0  0  0  0  0  0  0  0  0  0  0  0
  153.2015  142.3811  161.4144 C   0  0  0  0  0  0  0  0  0  0  0  0
  151.3557  145.8145  160.3449 H   0  0  0  0  0  0  0  0  0  0  0  0
  152.9453  145.2884  160.8949 H   0  0  0  0  0  0  0  0  0  0  0  0
  151.4828  144.6721  161.6794 H   0  0  0  0  0  0  0  0  0  0  0  0
  150.7739  144.9163  158.2438 H   0  0  0  0  0  0  0  0  0  0  0  0
  150.6474  141.1139  154.9193 H   0  0  0  0  0  0  0  0  0  0  0  0
  153.1177  139.4330  157.3445 H   0  0  0  0  0  0  0  0  0  0  0  0
  151.4705  138.8727  157.4468 H   0  0  0  0  0  0  0  0  0  0  0  0
  152.7379  137.8923  155.4915 H   0  0  0  0  0  0  0  0  0  0  0  0
  153.4719  139.2076  153.9689 H   0  0  0  0  0  0  0  0  0  0  0  0
  150.3082  139.6539  154.8487 H   0  0  0  0  0  0  0  0  0  0  0  0
  151.0592  138.6512  153.6438 H   0  0  0  0  0  0  0  0  0  0  0  0
  150.9476  136.2486  153.8356 H   0  0  0  0  0  0  0  0  0  0  0  0
  151.6724  136.3184  155.4260 H   0  0  0  0  0  0  0  0  0  0  0  0
  150.3708  134.2066  155.0905 H   0  0  0  0  0  0  0  0  0  0  0  0
  149.7178  135.1468  156.4211 H   0  0  0  0  0  0  0  0  0  0  0  0
  147.6918  136.4634  156.0065 H   0  0  0  0  0  0  0  0  0  0  0  0
  145.7999  135.7730  154.7399 H   0  0  0  0  0  0  0  0  0  0  0  0
  146.1786  137.3242  154.0325 H   0  0  0  0  0  0  0  0  0  0  0  0
  145.7319  133.8221  153.2731 H   0  0  0  0  0  0  0  0  0  0  0  0
  147.4805  133.7954  153.5245 H   0  0  0  0  0  0  0  0  0  0  0  0
  146.8330  133.7611  151.8944 H   0  0  0  0  0  0  0  0  0  0  0  0
  144.7141  135.9483  152.1388 H   0  0  0  0  0  0  0  0  0  0  0  0
  145.9188  135.7513  150.8593 H   0  0  0  0  0  0  0  0  0  0  0  0
  145.8250  137.2674  151.7458 H   0  0  0  0  0  0  0  0  0  0  0  0
  148.1870  138.5022  154.7148 H   0  0  0  0  0  0  0  0  0  0  0  0
  148.8711  137.5610  153.4100 H   0  0  0  0  0  0  0  0  0  0  0  0
  152.9500  140.5351  159.4313 H   0  0  0  0  0  0  0  0  0  0  0  0
  153.6772  141.4026  161.4870 H   0  0  0  0  0  0  0  0  0  0  0  0
  152.4868  142.4668  162.2331 H   0  0  0  0  0  0  0  0  0  0  0  0
  153.9762  143.1364  161.5493 H   0  0  0  0  0  0  0  0  0  0  0  0
  147.6209  135.9324  152.4905 H   0  0  0  0  0  0  0  0  0  0  0  0
  150.1881  143.4693  155.8323 H   0  0  0  0  0  0  0  0  0  0  0  0
  1  2  1  0  0  0  0
  1 26  1  0  0  0  0
  1 27  1  0  0  0  0
  1 28  1  0  0  0  0
  2 24  1  0  0  0  0
  2  3  2  0  0  0  0
  3  4  1  0  0  0  0
  3 29  1  0  0  0  0
  4 22  2  0  0  0  0
  4  5  1  0  0  0  0
  5  6  2  0  0  0  0
  5 57  1  0  0  0  0
  6  7  1  0  0  0  0
  6 30  1  0  0  0  0
  7  8  1  0  0  0  0
  7 22  1  0  0  0  0
  8  9  1  0  0  0  0
  8 31  1  0  0  0  0
  8 32  1  0  0  0  0
  9 10  1  0  0  0  0
  9 11  1  0  0  0  0
  9 33  1  0  0  0  0
 10 34  1  0  0  0  0
 11 12  1  0  0  0  0
 11 35  1  0  0  0  0
 11 36  1  0  0  0  0
 12 21  1  0  0  0  0
 12 13  1  0  0  0  0
 13 14  1  0  0  0  0
 13 37  1  0  0  0  0
 13 38  1  0  0  0  0
 14 15  1  0  0  0  0
 14 39  1  0  0  0  0
 14 40  1  0  0  0  0
 15 16  1  0  0  0  0
 16 17  1  0  0  0  0
 16 21  1  0  0  0  0
 16 41  1  0  0  0  0
 17 18  1  0  0  0  0
 17 42  1  0  0  0  0
 17 43  1  0  0  0  0
 18 19  1  0  0  0  0
 18 20  1  0  0  0  0
 18 56  1  0  0  0  0
 19 44  1  0  0  0  0
 19 45  1  0  0  0  0
 19 46  1  0  0  0  0
 20 47  1  0  0  0  0
 20 48  1  0  0  0  0
 20 49  1  0  0  0  0
 21 50  1  0  0  0  0
 21 51  1  0  0  0  0
 22 23  1  0  0  0  0
 23 24  2  0  0  0  0
 23 52  1  0  0  0  0
 24 25  1  0  0  0  0
 25 53  1  0  0  0  0
 25 54  1  0  0  0  0
 25 55  1  0  0  0  0
M  CHG  1   5   1
M  CHG  1  18   1
M  END
> <s_m_source_file>
AV-unprocessed.smi

> <i_m_source_file_index>
1005

> <i_lp_mmshare_version>
43012

> <i_f3d_flags>
0

> <s_epik_input>
W0NIM11jKFtjSF0xKWMoW0NIM10pW2NIXWMoYzEyKW4oW2NIXW4yKVtDSDJdW0NASF0oW09IXSlbQ0gyXU4zW0NIMl1bQ0gyXU9bQ0BIXShbQ0gyXTMpW0NIMl1OKFtDSDNdKVtDSDNd

> <s_epik_cmdline>
J2VwaWtfcHl0aG9uJywgJy1waCcsICc3LjAnLCAnLXRuJywgJzgnLCAnLW1hJywgJzIwMCcsICctbWV0YWxfYmluZGluZycsICctaW1hZScsICc8aW5maWxlLm1hZT4nLCAnLW9tYWUnLCAnPG91dGZpbGUubWFlPic=

> <r_epik_Ionization_Penalty>
1.3281

> <r_epik_Ionization_Penalty_Charging>
1.21988

> <r_epik_Ionization_Penalty_Neutral>
0.10822

> <r_epik_State_Penalty>
1.32886

> <r_epik_Charging_Adjusted_Penalty>
2.54875

> <i_epik_Tot_Q>
2

> <i_epik_Tot_abs_Q>
2

> <r_epik_Metal_State_Penalty>
5.33912

> <b_epik_Metal_Only>
0

> <s_lp_Force_Field>
OPLS_2005

> <r_lp_Energy>
45.8235

> <b_lp_Chiralities_Consistent>
1

> <s_lp_Variant>
AV-unprocessed.smi:1005-15

> <Gold.Version>
5.8.1

> <Gold.Id.Protein>
6NUR|6NUR_protein|mol2

> <Gold.PLP.Fitness>
62.0972

> <Gold.PLP.PLP>
-48.0596

> <Gold.PLP.part.hbond>
-4.0000

> <Gold.PLP.part.metal>
0.0000

> <Gold.PLP.part.buried>
-5.6394

> <Gold.PLP.part.nonpolar>
-38.5410

> <Gold.PLP.part.repulsive>
0.3327

> <Gold.PLP.ligand.clash>
0.0000

> <Gold.PLP.ligand.torsion>
0.9293

> <Gold.PLP.Chemscore.Hbond>
5.2746

> <Gold.PLP.Chemscore.CHOScore>
0.0000

> <Gold.PLP.Chemscore.Metal>
0.0000

> <Gold.Chemscore.Hbonds>
donor molecule, donor type, donor heavy atom, donor atom, acceptor molecule, acceptor atom, score
      L1  H     5    57       P1  8028  2.00
      L1  H    18    56       P1  7948  1.79
      P1  H  7989  7998       L1    10  0.24
      P1  H  7997  8008       L1    10  1.00

> <Gold.PLP.Chemscore.Internal.Correction>
0.0725

> <Gold.Rescore>
     Score         DG    S(hbond)    S(metal)    S(lipo)     H(rot)  DE(clash)    DE(int)     intcor
     19.66     -23.34       2.81        0.00     126.82       2.49       0.05       3.63       ----

> <Gold.Chemscore.Fitness>
19.6589

> <Gold.Chemscore.DG>
-23.3401

> <Gold.Chemscore.ZeroCoef>
-5.4800

> <Gold.Chemscore.Hbond>
2.8130

> <Gold.Chemscore.Metal>
0.0000

> <Gold.Chemscore.Lipo>
126.8237

> <Gold.Chemscore.Internal_Hbond>
0.0000

> <Gold.Chemscore.DEClash>
0.0507

> <Gold.Chemscore.DEInternal>
3.6304

> <Gold.Chemscore.Rot>
2.4897

> <Gold.Chemscore.Internal.Correction>
   9.000000E+99

> <Gold.Chemscore.Hbonds>
donor molecule, donor type, donor heavy atom, donor atom, acceptor molecule, acceptor atom, score
      L1  H     5    57       P1  8028  0.97
      L1  H    18    56       P1  7948  0.87
      P1  H  7989  7998       L1    10  0.03
      P1  H  7997  8008       L1    10  0.26

> <Gold.Chemscore.Hbond.Weighted>
-9.3954

> <Gold.Chemscore.Metal.Weighted>
-0.0000

> <Gold.Chemscore.Lipo.Weighted>
-14.8384

> <Gold.Chemscore.Internal_Hbond.Weighted>
0.0000

> <Gold.Chemscore.DEClash.Weighted>
0.0507

> <Gold.Chemscore.DEInternal.Weighted>
3.6304

> <Gold.Chemscore.Rot.Weighted>
6.3737

> <Gold.Chemscore.Internal.Correction.Weighted>
   9.000000E+99

> <Gold.Protein.RotatedTorsions>
[ 6907 6896 6895 6894 ] final  106.28 input  -60.11 | X-H torsion
[ 7974 7965 7964 7962 ] final  113.48 input  175.53 | X-H torsion
[ 8008 7997 7996 7995 ] final   -5.58 input   59.86 | X-H torsion
[ 10167 10162 10161 10158 ] final   57.33 input  -65.29 | X-H torsion
[ 10718 10713 10712 10709 ] final -167.24 input   66.30 | X-H torsion
[ 10763 10752 10751 10750 ] final  140.42 input  -60.55 | X-H torsion
[ 11005 11000 10999 10996 ] final -117.38 input  -57.11 | X-H torsion

> <Gold.Protein.ActiveResidues>
 VAL166  LYS551  ARG553  GLY616  TRP617  ASP618  TYR619  PRO620  LYS621  CYS622 
 ASP623  PHE694  ASN695  SER759  ASP760  ASP761  ALA762  ILE779  LEU786  VAL792 
 PHE793  MET794  SER795  GLU796  ALA797  LYS798  CYS799  TRP800  GLU811  SER814 

> <Gold.Protein.RotatedAtoms>
  152.5200  133.9405  159.7623 H   0  0  0  0  0  0  0  0  0  0  0  0  # atno 6907 bound_to 6896
  150.9736  133.6310  159.2741 H   0  0  0  0  0  0  0  0  0  0  0  0  # atno 6908 bound_to 6896
  151.3512  135.0890  159.9456 H   0  0  0  0  0  0  0  0  0  0  0  0  # atno 6909 bound_to 6896
  145.2164  139.2882  143.4241 H   0  0  0  0  0  0  0  0  0  0  0  0  # atno 7974 bound_to 7965
  154.6025  140.2455  155.7774 H   0  0  0  0  0  0  0  0  0  0  0  0  # atno 8008 bound_to 7997
  156.2320  140.2963  156.0164 H   0  0  0  0  0  0  0  0  0  0  0  0  # atno 8009 bound_to 7997
  155.2188  140.0399  157.2935 H   0  0  0  0  0  0  0  0  0  0  0  0  # atno 8010 bound_to 7997
  140.1991  144.4006  150.6537 H   0  0  0  0  0  0  0  0  0  0  0  0  # atno 10167 bound_to 10162
  156.6796  130.9116  151.3055 H   0  0  0  0  0  0  0  0  0  0  0  0  # atno 10718 bound_to 10713
  153.9223  135.2999  155.3447 H   0  0  0  0  0  0  0  0  0  0  0  0  # atno 10763 bound_to 10752
  154.7569  135.4953  153.9394 H   0  0  0  0  0  0  0  0  0  0  0  0  # atno 10764 bound_to 10752
  153.1135  135.6765  153.9562 H   0  0  0  0  0  0  0  0  0  0  0  0  # atno 10765 bound_to 10752
  141.0358  133.9911  157.3072 H   0  0  0  0  0  0  0  0  0  0  0  0  # atno 11005 bound_to 11000
  146.3386  140.2456  142.8597 LP  0  0  0  0  0  0  0  0  0  0  0  0  # atno 17320 bound_to 7965
  144.9807  140.8456  143.5399 LP  0  0  0  0  0  0  0  0  0  0  0  0  # atno 17321 bound_to 7965
  140.6403  143.2202  151.6305 LP  0  0  0  0  0  0  0  0  0  0  0  0  # atno 17342 bound_to 10162
  139.5224  144.3163  152.0949 LP  0  0  0  0  0  0  0  0  0  0  0  0  # atno 17343 bound_to 10162
  157.7048  130.9373  150.0898 LP  0  0  0  0  0  0  0  0  0  0  0  0  # atno 17370 bound_to 10713
  156.1878  130.3653  149.8950 LP  0  0  0  0  0  0  0  0  0  0  0  0  # atno 17371 bound_to 10713
  139.9240  135.0201  156.8167 LP  0  0  0  0  0  0  0  0  0  0  0  0  # atno 17394 bound_to 11000
  140.6324  133.9894  155.7668 LP  0  0  0  0  0  0  0  0  0  0  0  0  # atno 17395 bound_to 11000

$$$$
