AV-unprocessed.smi:429|AV-procd|sdf|2545|dock4
  -GOLD-   2262022503D 1   1.00000     0.00000
 Structure written by MMmdl.
 43 44  0  0  0  0  0  0  0  0  1 V2000
  148.3421  132.1280  153.1489 C   0  0  0  0  0  0  0  0  0  0  0  0
  148.6448  132.8807  154.4491 C   0  0  0  0  0  0  0  0  0  0  0  0
  149.6243  134.0450  154.2423 C   0  0  0  0  0  0  0  0  0  0  0  0
  149.7439  134.9409  155.4887 C   0  0  0  0  0  0  0  0  0  0  0  0
  150.7179  136.1080  155.2988 C   0  0  0  0  0  0  0  0  0  0  0  0
  151.6842  136.2470  156.0492 O   0  0  0  0  0  0  0  0  0  0  0  0
  150.4452  136.9498  154.2899 N   0  0  0  0  0  0  0  0  0  0  0  0
  151.2427  138.1213  153.9400 C   0  0  0  0  0  0  0  0  0  0  0  0
  151.4224  139.1193  155.0752 C   0  0  0  0  0  0  0  0  0  0  0  0
  150.5247  140.1875  155.2813 C   0  0  0  0  0  0  0  0  0  0  0  0
  150.7525  141.0757  156.3494 C   0  0  0  0  0  0  0  0  0  0  0  0
  151.8756  140.8762  157.1874 C   0  0  0  0  0  0  0  0  0  0  0  0
  152.1197  141.7497  158.2699 N   0  0  0  0  0  0  0  0  0  0  0  0
  152.3707  141.1588  159.5835 C   0  0  0  0  0  0  0  0  0  0  0  0
  152.8908  142.2253  160.5618 C   0  0  0  0  0  0  0  0  0  0  0  0
  151.9752  143.3139  160.6153 O   0  0  0  0  0  0  0  0  0  0  0  0
  151.8318  143.9463  159.3481 C   0  0  0  0  0  0  0  0  0  0  0  0
  151.2768  142.9419  158.3234 C   0  0  0  0  0  0  0  0  0  0  0  0
  152.7451  139.8572  156.9748 N   0  0  0  0  0  0  0  0  0  0  0  0
  152.5213  139.0079  155.9502 C   0  0  0  0  0  0  0  0  0  0  0  0
  147.6422  131.3113  153.3268 H   0  0  0  0  0  0  0  0  0  0  0  0
  149.2495  131.7010  152.7208 H   0  0  0  0  0  0  0  0  0  0  0  0
  147.8990  132.7898  152.4044 H   0  0  0  0  0  0  0  0  0  0  0  0
  147.7122  133.2578  154.8700 H   0  0  0  0  0  0  0  0  0  0  0  0
  149.0545  132.1832  155.1804 H   0  0  0  0  0  0  0  0  0  0  0  0
  150.6047  133.6439  153.9806 H   0  0  0  0  0  0  0  0  0  0  0  0
  149.2972  134.6434  153.3906 H   0  0  0  0  0  0  0  0  0  0  0  0
  148.7601  135.3349  155.7494 H   0  0  0  0  0  0  0  0  0  0  0  0
  150.0800  134.3496  156.3411 H   0  0  0  0  0  0  0  0  0  0  0  0
  149.6307  136.7644  153.7225 H   0  0  0  0  0  0  0  0  0  0  0  0
  152.2182  137.8021  153.5684 H   0  0  0  0  0  0  0  0  0  0  0  0
  150.7503  138.6322  153.1125 H   0  0  0  0  0  0  0  0  0  0  0  0
  149.6735  140.3324  154.6326 H   0  0  0  0  0  0  0  0  0  0  0  0
  150.0750  141.9022  156.5026 H   0  0  0  0  0  0  0  0  0  0  0  0
  151.4473  140.7212  159.9654 H   0  0  0  0  0  0  0  0  0  0  0  0
  153.1043  140.3558  159.5030 H   0  0  0  0  0  0  0  0  0  0  0  0
  152.9954  141.7999  161.5599 H   0  0  0  0  0  0  0  0  0  0  0  0
  153.8783  142.5802  160.2620 H   0  0  0  0  0  0  0  0  0  0  0  0
  151.1524  144.7927  159.4492 H   0  0  0  0  0  0  0  0  0  0  0  0
  152.7919  144.3470  159.0187 H   0  0  0  0  0  0  0  0  0  0  0  0
  151.2051  143.4316  157.3535 H   0  0  0  0  0  0  0  0  0  0  0  0
  150.2654  142.6443  158.6033 H   0  0  0  0  0  0  0  0  0  0  0  0
  153.2429  138.2136  155.8282 H   0  0  0  0  0  0  0  0  0  0  0  0
  1  2  1  0  0  0  0
  1 21  1  0  0  0  0
  1 22  1  0  0  0  0
  1 23  1  0  0  0  0
  2  3  1  0  0  0  0
  2 24  1  0  0  0  0
  2 25  1  0  0  0  0
  3  4  1  0  0  0  0
  3 26  1  0  0  0  0
  3 27  1  0  0  0  0
  4  5  1  0  0  0  0
  4 28  1  0  0  0  0
  4 29  1  0  0  0  0
  5  6  2  0  0  0  0
  5  7  1  0  0  0  0
  7  8  1  0  0  0  0
  7 30  1  0  0  0  0
  8  9  1  0  0  0  0
  8 31  1  0  0  0  0
  8 32  1  0  0  0  0
  9 20  1  0  0  0  0
  9 10  2  0  0  0  0
 10 11  1  0  0  0  0
 10 33  1  0  0  0  0
 11 12  2  0  0  0  0
 11 34  1  0  0  0  0
 12 13  1  0  0  0  0
 12 19  1  0  0  0  0
 13 18  1  0  0  0  0
 13 14  1  0  0  0  0
 14 15  1  0  0  0  0
 14 35  1  0  0  0  0
 14 36  1  0  0  0  0
 15 16  1  0  0  0  0
 15 37  1  0  0  0  0
 15 38  1  0  0  0  0
 16 17  1  0  0  0  0
 17 18  1  0  0  0  0
 17 39  1  0  0  0  0
 17 40  1  0  0  0  0
 18 41  1  0  0  0  0
 18 42  1  0  0  0  0
 19 20  2  0  0  0  0
 20 43  1  0  0  0  0
M  END
> <s_m_source_file>
AV-unprocessed.smi

> <i_m_source_file_index>
429

> <i_lp_mmshare_version>
43012

> <i_f3d_flags>
0

> <s_epik_input>
W0NIM11bQ0gyXVtDSDJdW0NIMl1DKD1PKVtOSF1bQ0gyXWMxW2NIXVtjSF1jKG5bY0hdMSlOMltDSDJdW0NIMl1PW0NIMl1bQ0gyXTI=

> <s_epik_cmdline>
J2VwaWtfcHl0aG9uJywgJy1waCcsICc3LjAnLCAnLXRuJywgJzgnLCAnLW1hJywgJzIwMCcsICctbWV0YWxfYmluZGluZycsICctaW1hZScsICc8aW5maWxlLm1hZT4nLCAnLW9tYWUnLCAnPG91dGZpbGUubWFlPic=

> <r_lp_tautomer_probability>
1

> <r_epik_Ionization_Penalty>
0.00508978

> <r_epik_Ionization_Penalty_Charging>
0

> <r_epik_Ionization_Penalty_Neutral>
0.00508978

> <r_epik_State_Penalty>
0.0037045

> <r_epik_Charging_Adjusted_Penalty>
0.0037045

> <i_epik_Tot_Q>
0

> <i_epik_Tot_abs_Q>
0

> <r_epik_Metal_State_Penalty>
-0

> <b_epik_Metal_Only>
0

> <s_lp_Force_Field>
OPLS_2005

> <r_lp_Energy>
15.7693

> <b_lp_Chiralities_Consistent>
1

> <s_lp_Variant>
AV-unprocessed.smi:429-1

> <Gold.Version>
5.8.1

> <Gold.Id.Protein>
6NUR|6NUR_protein|mol2

> <Gold.PLP.Fitness>
48.8572

> <Gold.PLP.PLP>
-41.0564

> <Gold.PLP.part.hbond>
-3.9085

> <Gold.PLP.part.metal>
0.0000

> <Gold.PLP.part.buried>
-2.3634

> <Gold.PLP.part.nonpolar>
-34.0433

> <Gold.PLP.part.repulsive>
0.1499

> <Gold.PLP.ligand.clash>
0.0000

> <Gold.PLP.ligand.torsion>
0.5732

> <Gold.PLP.Chemscore.Hbond>
2.8640

> <Gold.PLP.Chemscore.CHOScore>
0.0000

> <Gold.PLP.Chemscore.Metal>
0.0000

> <Gold.Chemscore.Hbonds>
donor molecule, donor type, donor heavy atom, donor atom, acceptor molecule, acceptor atom, score
      L1  H     7    30       P1  7948  0.88
      P1  H  7997  8008       L1    19  1.00
      P1  H 10752 10763       L1     6  1.00

> <Gold.PLP.Chemscore.Internal.Correction>
0.3552

> <Gold.Rescore>
     Score         DG    S(hbond)    S(metal)    S(lipo)     H(rot)  DE(clash)    DE(int)     intcor
     18.14     -19.42       2.10        0.00      97.80       1.77       0.05       1.23       ----

> <Gold.Chemscore.Fitness>
18.1424

> <Gold.Chemscore.DG>
-19.4199

> <Gold.Chemscore.ZeroCoef>
-5.4800

> <Gold.Chemscore.Hbond>
2.1029

> <Gold.Chemscore.Metal>
0.0000

> <Gold.Chemscore.Lipo>
97.8045

> <Gold.Chemscore.Internal_Hbond>
0.0000

> <Gold.Chemscore.DEClash>
0.0492

> <Gold.Chemscore.DEInternal>
1.2283

> <Gold.Chemscore.Rot>
1.7684

> <Gold.Chemscore.Internal.Correction>
   9.000000E+99

> <Gold.Chemscore.Hbonds>
donor molecule, donor type, donor heavy atom, donor atom, acceptor molecule, acceptor atom, score
      L1  H     7    30       P1  7948  0.61
      P1  H  7997  8008       L1    19  0.25
      P1  H 10752 10763       L1     6  0.35

> <Gold.Chemscore.Hbond.Weighted>
-7.0238

> <Gold.Chemscore.Metal.Weighted>
-0.0000

> <Gold.Chemscore.Lipo.Weighted>
-11.4431

> <Gold.Chemscore.Internal_Hbond.Weighted>
0.0000

> <Gold.Chemscore.DEClash.Weighted>
0.0492

> <Gold.Chemscore.DEInternal.Weighted>
1.2283

> <Gold.Chemscore.Rot.Weighted>
4.5271

> <Gold.Chemscore.Internal.Correction.Weighted>
   9.000000E+99

> <Gold.Protein.RotatedTorsions>
[ 6907 6896 6895 6894 ] final  143.23 input  -60.11 | X-H torsion
[ 7974 7965 7964 7962 ] final  -50.40 input  175.53 | X-H torsion
[ 8008 7997 7996 7995 ] final  -71.91 input   59.86 | X-H torsion
[ 10167 10162 10161 10158 ] final  176.77 input  -65.29 | X-H torsion
[ 10718 10713 10712 10709 ] final   -3.37 input   66.30 | X-H torsion
[ 10763 10752 10751 10750 ] final   86.40 input  -60.55 | X-H torsion
[ 11005 11000 10999 10996 ] final  -60.57 input  -57.11 | X-H torsion

> <Gold.Protein.ActiveResidues>
 VAL166  LYS551  ARG553  GLY616  TRP617  ASP618  TYR619  PRO620  LYS621  CYS622 
 ASP623  PHE694  ASN695  SER759  ASP760  ASP761  ALA762  ILE779  LEU786  VAL792 
 PHE793  MET794  SER795  GLU796  ALA797  LYS798  CYS799  TRP800  GLU811  SER814 

> <Gold.Protein.RotatedAtoms>
  152.2089  133.4896  159.5099 H   0  0  0  0  0  0  0  0  0  0  0  0  # atno 6907 bound_to 6896
  150.6986  134.1493  159.4143 H   0  0  0  0  0  0  0  0  0  0  0  0  # atno 6908 bound_to 6896
  151.9412  135.0212  160.0586 H   0  0  0  0  0  0  0  0  0  0  0  0  # atno 6909 bound_to 6896
  145.9302  140.7756  142.9603 H   0  0  0  0  0  0  0  0  0  0  0  0  # atno 7974 bound_to 7965
  154.5125  140.0807  156.8017 H   0  0  0  0  0  0  0  0  0  0  0  0  # atno 8008 bound_to 7997
  155.3754  140.3425  155.4226 H   0  0  0  0  0  0  0  0  0  0  0  0  # atno 8009 bound_to 7997
  156.1589  140.1582  156.8633 H   0  0  0  0  0  0  0  0  0  0  0  0  # atno 8010 bound_to 7997
  139.5227  144.2877  152.0491 H   0  0  0  0  0  0  0  0  0  0  0  0  # atno 10167 bound_to 10162
  156.7770  130.5318  149.5757 H   0  0  0  0  0  0  0  0  0  0  0  0  # atno 10718 bound_to 10713
  153.1567  135.4581  154.9714 H   0  0  0  0  0  0  0  0  0  0  0  0  # atno 10763 bound_to 10752
  154.7867  135.3206  154.7873 H   0  0  0  0  0  0  0  0  0  0  0  0  # atno 10764 bound_to 10752
  153.8369  135.6933  153.4862 H   0  0  0  0  0  0  0  0  0  0  0  0  # atno 10765 bound_to 10752
  141.1292  133.6623  156.5244 H   0  0  0  0  0  0  0  0  0  0  0  0  # atno 11005 bound_to 11000
  144.6764  140.2115  143.7376 LP  0  0  0  0  0  0  0  0  0  0  0  0  # atno 17320 bound_to 7965
  145.8436  139.2141  143.1813 LP  0  0  0  0  0  0  0  0  0  0  0  0  # atno 17321 bound_to 7965
  140.2329  144.4349  150.6292 LP  0  0  0  0  0  0  0  0  0  0  0  0  # atno 17342 bound_to 10162
  140.6343  143.2192  151.6429 LP  0  0  0  0  0  0  0  0  0  0  0  0  # atno 17343 bound_to 10162
  156.1242  130.6131  151.0238 LP  0  0  0  0  0  0  0  0  0  0  0  0  # atno 17370 bound_to 10713
  157.6664  131.0871  150.7718 LP  0  0  0  0  0  0  0  0  0  0  0  0  # atno 17371 bound_to 10713
  140.4266  134.7139  157.4919 LP  0  0  0  0  0  0  0  0  0  0  0  0  # atno 17394 bound_to 11000
  140.0322  134.6389  155.9090 LP  0  0  0  0  0  0  0  0  0  0  0  0  # atno 17395 bound_to 11000

$$$$
