AV-unprocessed.smi:1239|AV-procd|sdf|5185|dock5
  -GOLD-   22720 4263D 1   1.00000     0.00000
 Structure written by MMmdl.
 48 49  0  0  0  0  0  0  0  0  2 V2000
  151.7845  145.4600  159.3823 C   0  0  0  0  0  0  0  0  0  0  0  0
  152.1099  144.0117  158.9506 C   0  0  2  0  0  0  0  0  0  0  0  0
  150.7700  143.2624  158.7403 C   0  0  0  0  0  0  0  0  0  0  0  0
  150.7101  142.6192  157.4297 N   0  0  0  0  0  0  0  0  0  0  0  0
  149.6592  141.9456  156.9424 C   0  0  0  0  0  0  0  0  0  0  0  0
  148.6018  141.8005  157.5548 O   0  0  0  0  0  0  0  0  0  0  0  0
  149.9251  141.4491  155.7215 N   0  0  0  0  0  0  0  0  0  0  0  0
  149.0893  140.6716  154.8723 C   0  0  0  0  0  0  0  0  0  0  0  0
  147.7181  140.9994  154.8246 C   0  0  0  0  0  0  0  0  0  0  0  0
  146.8447  140.2560  154.0043 C   0  0  0  0  0  0  0  0  0  0  0  0
  147.3469  139.1777  153.2352 C   0  0  0  0  0  0  0  0  0  0  0  0
  146.5388  138.3875  152.3895 N   0  0  0  0  0  0  0  0  0  0  0  0
  145.7984  137.2584  152.9417 C   0  0  0  0  0  0  0  0  0  0  0  0
  146.4672  138.6888  150.9656 C   0  0  0  0  0  0  0  0  0  0  0  0
  148.6692  138.8937  153.3219 N   0  3  0  0  0  0  0  0  0  0  0  0
  149.5404  139.5787  154.0939 C   0  0  0  0  0  0  0  0  0  0  0  0
  153.0542  143.3232  159.8582 N   0  0  0  0  0  0  0  0  0  0  0  0
  152.5148  143.1586  161.2116 C   0  0  0  0  0  0  0  0  0  0  0  0
  153.4854  142.4212  162.1503 C   0  0  0  0  0  0  0  0  0  0  0  0
  153.8173  141.1547  161.5968 O   0  0  0  0  0  0  0  0  0  0  0  0
  154.4085  141.2695  160.3092 C   0  0  0  0  0  0  0  0  0  0  0  0
  153.4442  142.0009  159.3596 C   0  0  0  0  0  0  0  0  0  0  0  0
  151.0055  145.8940  158.7548 H   0  0  0  0  0  0  0  0  0  0  0  0
  152.6471  146.1194  159.2923 H   0  0  0  0  0  0  0  0  0  0  0  0
  151.4349  145.5011  160.4144 H   0  0  0  0  0  0  0  0  0  0  0  0
  152.5801  144.0794  157.9683 H   0  0  0  0  0  0  0  0  0  0  0  0
  150.6462  142.5274  159.5376 H   0  0  0  0  0  0  0  0  0  0  0  0
  149.9160  143.9308  158.8451 H   0  0  0  0  0  0  0  0  0  0  0  0
  151.5418  142.6845  156.8608 H   0  0  0  0  0  0  0  0  0  0  0  0
  150.8592  141.6133  155.3754 H   0  0  0  0  0  0  0  0  0  0  0  0
  147.3325  141.8209  155.4107 H   0  0  0  0  0  0  0  0  0  0  0  0
  145.8001  140.5280  153.9789 H   0  0  0  0  0  0  0  0  0  0  0  0
  145.0865  137.5985  153.6946 H   0  0  0  0  0  0  0  0  0  0  0  0
  146.4789  136.5432  153.4050 H   0  0  0  0  0  0  0  0  0  0  0  0
  145.2388  136.7330  152.1677 H   0  0  0  0  0  0  0  0  0  0  0  0
  147.4506  138.5936  150.5038 H   0  0  0  0  0  0  0  0  0  0  0  0
  146.1026  139.7039  150.8061 H   0  0  0  0  0  0  0  0  0  0  0  0
  145.7895  138.0083  150.4499 H   0  0  0  0  0  0  0  0  0  0  0  0
  150.5548  139.2126  154.0567 H   0  0  0  0  0  0  0  0  0  0  0  0
  152.3024  144.1277  161.6597 H   0  0  0  0  0  0  0  0  0  0  0  0
  151.5694  142.6154  161.1695 H   0  0  0  0  0  0  0  0  0  0  0  0
  154.3919  143.0080  162.3071 H   0  0  0  0  0  0  0  0  0  0  0  0
  153.0271  142.2724  163.1281 H   0  0  0  0  0  0  0  0  0  0  0  0
  155.3581  141.8021  160.3821 H   0  0  0  0  0  0  0  0  0  0  0  0
  154.6297  140.2719  159.9294 H   0  0  0  0  0  0  0  0  0  0  0  0
  152.5553  141.3873  159.2049 H   0  0  0  0  0  0  0  0  0  0  0  0
  153.9399  142.0872  158.3938 H   0  0  0  0  0  0  0  0  0  0  0  0
  149.0300  138.1136  152.7725 H   0  0  0  0  0  0  0  0  0  0  0  0
  1  2  1  0  0  0  0
  1 23  1  0  0  0  0
  1 24  1  0  0  0  0
  1 25  1  0  0  0  0
  2  3  1  0  0  0  0
  2 17  1  0  0  0  0
  2 26  1  0  0  0  0
  3  4  1  0  0  0  0
  3 27  1  0  0  0  0
  3 28  1  0  0  0  0
  4  5  1  0  0  0  0
  4 29  1  0  0  0  0
  5  6  2  0  0  0  0
  5  7  1  0  0  0  0
  7  8  1  0  0  0  0
  7 30  1  0  0  0  0
  8 16  1  0  0  0  0
  8  9  2  0  0  0  0
  9 10  1  0  0  0  0
  9 31  1  0  0  0  0
 10 11  2  0  0  0  0
 10 32  1  0  0  0  0
 11 12  1  0  0  0  0
 11 15  1  0  0  0  0
 12 13  1  0  0  0  0
 12 14  1  0  0  0  0
 13 33  1  0  0  0  0
 13 34  1  0  0  0  0
 13 35  1  0  0  0  0
 14 36  1  0  0  0  0
 14 37  1  0  0  0  0
 14 38  1  0  0  0  0
 15 16  2  0  0  0  0
 15 48  1  0  0  0  0
 16 39  1  0  0  0  0
 17 22  1  0  0  0  0
 17 18  1  0  0  0  0
 18 19  1  0  0  0  0
 18 40  1  0  0  0  0
 18 41  1  0  0  0  0
 19 20  1  0  0  0  0
 19 42  1  0  0  0  0
 19 43  1  0  0  0  0
 20 21  1  0  0  0  0
 21 22  1  0  0  0  0
 21 44  1  0  0  0  0
 21 45  1  0  0  0  0
 22 46  1  0  0  0  0
 22 47  1  0  0  0  0
M  CHG  1  15   1
M  END
> <s_m_source_file>
AV-unprocessed.smi

> <i_m_source_file_index>
1239

> <i_lp_mmshare_version>
43012

> <i_f3d_flags>
0

> <s_epik_input>
W0NIMl0xW0NIMl1PW0NIMl1bQ0gyXU4xW0NASF0oW0NIM10pW0NIMl1bTkhdQyg9TylbTkhdYzJbY0hdW2NIXWMoTihbQ0gzXSlbQ0gzXSluW2NIXTI=

> <s_epik_cmdline>
J2VwaWtfcHl0aG9uJywgJy1waCcsICc3LjAnLCAnLXRuJywgJzgnLCAnLW1hJywgJzIwMCcsICctbWV0YWxfYmluZGluZycsICctaW1hZScsICc8aW5maWxlLm1hZT4nLCAnLW9tYWUnLCAnPG91dGZpbGUubWFlPic=

> <r_lp_tautomer_probability>
0.999994

> <r_epik_Ionization_Penalty>
0.528791

> <r_epik_Ionization_Penalty_Charging>
0.26278

> <r_epik_Ionization_Penalty_Neutral>
0.26601

> <r_epik_State_Penalty>
0.520375

> <r_epik_Charging_Adjusted_Penalty>
0.783156

> <i_epik_Tot_Q>
1

> <i_epik_Tot_abs_Q>
1

> <r_epik_Metal_State_Penalty>
0.806531

> <b_epik_Metal_Only>
0

> <s_lp_Force_Field>
OPLS_2005

> <r_lp_Energy>
44.5879

> <b_lp_Chiralities_Consistent>
1

> <s_lp_Variant>
AV-unprocessed.smi:1239-1

> <Gold.Version>
5.8.1

> <Gold.Id.Protein>
6NUR|6NUR_protein|mol2

> <Gold.PLP.Fitness>
46.7650

> <Gold.PLP.PLP>
-45.6781

> <Gold.PLP.part.hbond>
-2.0842

> <Gold.PLP.part.metal>
0.0000

> <Gold.PLP.part.buried>
-0.5813

> <Gold.PLP.part.nonpolar>
-43.2794

> <Gold.PLP.part.repulsive>
0.3350

> <Gold.PLP.ligand.clash>
0.0000

> <Gold.PLP.ligand.torsion>
2.4777

> <Gold.PLP.Chemscore.Hbond>
1.9825

> <Gold.PLP.Chemscore.CHOScore>
0.0000

> <Gold.PLP.Chemscore.Metal>
0.0000

> <Gold.Chemscore.Hbonds>
donor molecule, donor type, donor heavy atom, donor atom, acceptor molecule, acceptor atom, score
      L1  H    15    48       P1  7948  1.85

> <Gold.PLP.Chemscore.Internal.Correction>
0.0948

> <Gold.Rescore>
     Score         DG    S(hbond)    S(metal)    S(lipo)     H(rot)  DE(clash)    DE(int)     intcor
     14.01     -18.30       0.98        0.00     113.56       1.46       0.70       3.60       ----

> <Gold.Chemscore.Fitness>
14.0059

> <Gold.Chemscore.DG>
-18.3033

> <Gold.Chemscore.ZeroCoef>
-5.4800

> <Gold.Chemscore.Hbond>
0.9808

> <Gold.Chemscore.Metal>
0.0000

> <Gold.Chemscore.Lipo>
113.5553

> <Gold.Chemscore.Internal_Hbond>
0.0000

> <Gold.Chemscore.DEClash>
0.6977

> <Gold.Chemscore.DEInternal>
3.5997

> <Gold.Chemscore.Rot>
1.4604

> <Gold.Chemscore.Internal.Correction>
   9.000000E+99

> <Gold.Chemscore.Hbonds>
donor molecule, donor type, donor heavy atom, donor atom, acceptor molecule, acceptor atom, score
      L1  H    15    48       P1  7948  0.87

> <Gold.Chemscore.Hbond.Weighted>
-3.2759

> <Gold.Chemscore.Metal.Weighted>
-0.0000

> <Gold.Chemscore.Lipo.Weighted>
-13.2860

> <Gold.Chemscore.Internal_Hbond.Weighted>
0.0000

> <Gold.Chemscore.DEClash.Weighted>
0.6977

> <Gold.Chemscore.DEInternal.Weighted>
3.5997

> <Gold.Chemscore.Rot.Weighted>
3.7385

> <Gold.Chemscore.Internal.Correction.Weighted>
   9.000000E+99

> <Gold.Protein.RotatedTorsions>
[ 6907 6896 6895 6894 ] final  -34.32 input  -60.11 | X-H torsion
[ 7974 7965 7964 7962 ] final -165.69 input  175.53 | X-H torsion
[ 8008 7997 7996 7995 ] final  179.06 input   59.86 | X-H torsion
[ 10167 10162 10161 10158 ] final  135.57 input  -65.29 | X-H torsion
[ 10718 10713 10712 10709 ] final  -96.29 input   66.30 | X-H torsion
[ 10763 10752 10751 10750 ] final  123.72 input  -60.55 | X-H torsion
[ 11005 11000 10999 10996 ] final   14.00 input  -57.11 | X-H torsion

> <Gold.Protein.ActiveResidues>
 VAL166  LYS551  ARG553  GLY616  TRP617  ASP618  TYR619  PRO620  LYS621  CYS622 
 ASP623  PHE694  ASN695  SER759  ASP760  ASP761  ALA762  ILE779  LEU786  VAL792 
 PHE793  MET794  SER795  GLU796  ALA797  LYS798  CYS799  TRP800  GLU811  SER814 

> <Gold.Protein.RotatedAtoms>
  151.0541  134.9693  159.8226 H   0  0  0  0  0  0  0  0  0  0  0  0  # atno 6907 bound_to 6896
  152.5385  134.2500  159.8905 H   0  0  0  0  0  0  0  0  0  0  0  0  # atno 6908 bound_to 6896
  151.2517  133.4304  159.2645 H   0  0  0  0  0  0  0  0  0  0  0  0  # atno 6909 bound_to 6896
  144.7263  140.2776  143.6241 H   0  0  0  0  0  0  0  0  0  0  0  0  # atno 7974 bound_to 7965
  156.0477  140.1318  157.0085 H   0  0  0  0  0  0  0  0  0  0  0  0  # atno 8008 bound_to 7997
  154.4420  140.1017  156.6400 H   0  0  0  0  0  0  0  0  0  0  0  0  # atno 8009 bound_to 7997
  155.5571  140.3464  155.4484 H   0  0  0  0  0  0  0  0  0  0  0  0  # atno 8010 bound_to 7997
  139.5212  144.6510  151.5302 H   0  0  0  0  0  0  0  0  0  0  0  0  # atno 10167 bound_to 10162
  156.0059  130.5145  150.6204 H   0  0  0  0  0  0  0  0  0  0  0  0  # atno 10718 bound_to 10713
  153.6500  135.3364  155.3097 H   0  0  0  0  0  0  0  0  0  0  0  0  # atno 10763 bound_to 10752
  154.8540  135.4338  154.1914 H   0  0  0  0  0  0  0  0  0  0  0  0  # atno 10764 bound_to 10752
  153.2854  135.7012  153.7419 H   0  0  0  0  0  0  0  0  0  0  0  0  # atno 10765 bound_to 10752
  140.4745  134.0998  155.7739 H   0  0  0  0  0  0  0  0  0  0  0  0  # atno 11005 bound_to 11000
  145.7981  139.1953  143.2064 LP  0  0  0  0  0  0  0  0  0  0  0  0  # atno 17320 bound_to 7965
  146.0700  140.7879  142.9693 LP  0  0  0  0  0  0  0  0  0  0  0  0  # atno 17321 bound_to 7965
  140.6315  143.9067  150.6609 LP  0  0  0  0  0  0  0  0  0  0  0  0  # atno 17342 bound_to 10162
  140.2372  143.3691  152.1516 LP  0  0  0  0  0  0  0  0  0  0  0  0  # atno 17343 bound_to 10162
  157.4020  131.0811  151.1300 LP  0  0  0  0  0  0  0  0  0  0  0  0  # atno 17370 bound_to 10713
  157.1958  130.6372  149.5720 LP  0  0  0  0  0  0  0  0  0  0  0  0  # atno 17371 bound_to 10713
  141.1561  133.8880  157.1973 LP  0  0  0  0  0  0  0  0  0  0  0  0  # atno 17394 bound_to 11000
  139.9865  135.0080  156.9874 LP  0  0  0  0  0  0  0  0  0  0  0  0  # atno 17395 bound_to 11000

$$$$
