AV-unprocessed.smi:2420|AV-procd|sdf|9554|dock3
  -GOLD-   2272013183D 1   1.00000     0.00000
 Structure written by MMmdl.
 33 34  0  0  0  0  0  0  0  0  1 V2000
  153.1533  142.3234  160.6272 C   0  0  0  0  0  0  0  0  0  0  0  0
  152.4515  143.6787  160.4573 C   0  0  0  0  0  0  0  0  0  0  0  0
  151.7579  143.8510  159.1093 C   0  0  0  0  0  0  0  0  0  0  0  0
  150.9000  142.6279  158.7723 C   0  0  0  0  0  0  0  0  0  0  0  0
  150.1182  142.6840  157.5393 N   0  0  0  0  0  0  0  0  0  0  0  0
  149.7673  141.6260  156.7940 C   0  0  0  0  0  0  0  0  0  0  0  0
  150.0592  140.4636  157.0759 O   0  0  0  0  0  0  0  0  0  0  0  0
  149.0376  141.9970  155.7292 N   0  0  0  0  0  0  0  0  0  0  0  0
  148.4701  141.1425  154.7494 C   0  0  0  0  0  0  0  0  0  0  0  0
  148.9996  139.8431  154.6082 C   0  0  0  0  0  0  0  0  0  0  0  0
  148.4282  138.9803  153.6518 C   0  0  0  0  0  0  0  0  0  0  0  0
  147.3840  139.3266  152.8694 N   0  0  0  0  0  0  0  0  0  0  0  0
  146.8625  140.5626  153.0253 C   0  0  0  0  0  0  0  0  0  0  0  0
  147.3570  141.5037  153.9512 C   0  0  0  0  0  0  0  0  0  0  0  0
  146.7468  142.7066  154.0787 F   0  0  0  0  0  0  0  0  0  0  0  0
  151.3009  145.2434  158.7113 C   0  0  0  0  0  0  0  0  0  0  0  0
  152.4721  144.6064  158.0058 C   0  0  0  0  0  0  0  0  0  0  0  0
  153.6954  142.2884  161.5723 H   0  0  0  0  0  0  0  0  0  0  0  0
  153.8730  142.1487  159.8272 H   0  0  0  0  0  0  0  0  0  0  0  0
  152.4442  141.4964  160.6296 H   0  0  0  0  0  0  0  0  0  0  0  0
  151.7263  143.8286  161.2581 H   0  0  0  0  0  0  0  0  0  0  0  0
  153.1949  144.4681  160.5738 H   0  0  0  0  0  0  0  0  0  0  0  0
  151.5543  141.7625  158.6751 H   0  0  0  0  0  0  0  0  0  0  0  0
  150.2454  142.4115  159.6183 H   0  0  0  0  0  0  0  0  0  0  0  0
  149.8247  143.5997  157.2321 H   0  0  0  0  0  0  0  0  0  0  0  0
  148.7613  142.9667  155.6847 H   0  0  0  0  0  0  0  0  0  0  0  0
  149.8338  139.5137  155.2103 H   0  0  0  0  0  0  0  0  0  0  0  0
  148.8192  137.9831  153.5136 H   0  0  0  0  0  0  0  0  0  0  0  0
  146.0148  140.8050  152.4015 H   0  0  0  0  0  0  0  0  0  0  0  0
  150.3790  145.3532  158.1455 H   0  0  0  0  0  0  0  0  0  0  0  0
  151.5176  146.0647  159.3913 H   0  0  0  0  0  0  0  0  0  0  0  0
  153.4616  145.0038  158.2230 H   0  0  0  0  0  0  0  0  0  0  0  0
  152.3219  144.2805  156.9786 H   0  0  0  0  0  0  0  0  0  0  0  0
  1  2  1  0  0  0  0
  1 18  1  0  0  0  0
  1 19  1  0  0  0  0
  1 20  1  0  0  0  0
  2  3  1  0  0  0  0
  2 21  1  0  0  0  0
  2 22  1  0  0  0  0
  3 17  1  0  0  0  0
  3  4  1  0  0  0  0
  3 16  1  0  0  0  0
  4  5  1  0  0  0  0
  4 23  1  0  0  0  0
  4 24  1  0  0  0  0
  5  6  1  0  0  0  0
  5 25  1  0  0  0  0
  6  7  2  0  0  0  0
  6  8  1  0  0  0  0
  8  9  1  0  0  0  0
  8 26  1  0  0  0  0
  9 14  1  0  0  0  0
  9 10  2  0  0  0  0
 10 11  1  0  0  0  0
 10 27  1  0  0  0  0
 11 12  2  0  0  0  0
 11 28  1  0  0  0  0
 12 13  1  0  0  0  0
 13 14  2  0  0  0  0
 13 29  1  0  0  0  0
 14 15  1  0  0  0  0
 16 17  1  0  0  0  0
 16 30  1  0  0  0  0
 16 31  1  0  0  0  0
 17 32  1  0  0  0  0
 17 33  1  0  0  0  0
M  END
> <s_m_source_file>
AV-unprocessed.smi

> <i_m_source_file_index>
2420

> <i_lp_mmshare_version>
43012

> <i_f3d_flags>
0

> <s_epik_input>
W0NIM11bQ0gyXUMxKFtDSDJdW0NIMl0xKVtDSDJdW05IXUMoPU8pW05IXWMyW2NIXVtjSF1uW2NIXWMyRg==

> <s_epik_cmdline>
J2VwaWtfcHl0aG9uJywgJy1waCcsICc3LjAnLCAnLXRuJywgJzgnLCAnLW1hJywgJzIwMCcsICctbWV0YWxfYmluZGluZycsICctaW1hZScsICc8aW5maWxlLm1hZT4nLCAnLW9tYWUnLCAnPG91dGZpbGUubWFlPic=

> <r_epik_Ionization_Penalty>
0.00332283

> <r_epik_Ionization_Penalty_Charging>
0

> <r_epik_Ionization_Penalty_Neutral>
0.00332283

> <r_epik_State_Penalty>
0.00231995

> <r_epik_Charging_Adjusted_Penalty>
0.00231995

> <i_epik_Tot_Q>
0

> <i_epik_Tot_abs_Q>
0

> <r_epik_Metal_State_Penalty>
-0

> <b_epik_Metal_Only>
0

> <s_lp_Force_Field>
OPLS_2005

> <r_lp_Energy>
25.9136

> <b_lp_Chiralities_Consistent>
1

> <s_lp_Variant>
AV-unprocessed.smi:2420-1

> <Gold.Version>
5.8.1

> <Gold.Id.Protein>
6NUR|6NUR_protein|mol2

> <Gold.PLP.Fitness>
49.8356

> <Gold.PLP.PLP>
-39.3475

> <Gold.PLP.part.hbond>
-2.0000

> <Gold.PLP.part.metal>
0.0000

> <Gold.PLP.part.buried>
-3.3324

> <Gold.PLP.part.nonpolar>
-35.4799

> <Gold.PLP.part.repulsive>
1.9573

> <Gold.PLP.ligand.clash>
0.0000

> <Gold.PLP.ligand.torsion>
0.9083

> <Gold.PLP.Chemscore.Hbond>
1.7540

> <Gold.PLP.Chemscore.CHOScore>
1.9230

> <Gold.PLP.Chemscore.Metal>
0.0000

> <Gold.Chemscore.Hbonds>
donor molecule, donor type, donor heavy atom, donor atom, acceptor molecule, acceptor atom, score
      L1  H     5    25       P1  8028  0.69
      L1  H     8    26       P1  8028  1.00
      L1  C    11    28       P1  7948  1.00
      L1  C    13    29       P1 10175  0.87

> <Gold.PLP.Chemscore.Internal.Correction>
1.2738

> <Gold.Rescore>
     Score         DG    S(hbond)    S(metal)    S(lipo)     H(rot)  DE(clash)    DE(int)     intcor
     16.29     -18.72       1.42        0.00     103.58       1.41       0.05       2.38       ----

> <Gold.Chemscore.Fitness>
16.2890

> <Gold.Chemscore.DG>
-18.7237

> <Gold.Chemscore.ZeroCoef>
-5.4800

> <Gold.Chemscore.Hbond>
1.4171

> <Gold.Chemscore.Metal>
0.0000

> <Gold.Chemscore.Lipo>
103.5818

> <Gold.Chemscore.Internal_Hbond>
0.0000

> <Gold.Chemscore.DEClash>
0.0508

> <Gold.Chemscore.DEInternal>
2.3839

> <Gold.Chemscore.Rot>
1.4096

> <Gold.Chemscore.Internal.Correction>
   9.000000E+99

> <Gold.Chemscore.Hbonds>
donor molecule, donor type, donor heavy atom, donor atom, acceptor molecule, acceptor atom, score
      L1  H     5    25       P1  8028  0.61
      L1  H     8    26       P1  8028  1.00

> <Gold.Chemscore.Hbond.Weighted>
-4.7332

> <Gold.Chemscore.Metal.Weighted>
-0.0000

> <Gold.Chemscore.Lipo.Weighted>
-12.1191

> <Gold.Chemscore.Internal_Hbond.Weighted>
0.0000

> <Gold.Chemscore.DEClash.Weighted>
0.0508

> <Gold.Chemscore.DEInternal.Weighted>
2.3839

> <Gold.Chemscore.Rot.Weighted>
3.6085

> <Gold.Chemscore.Internal.Correction.Weighted>
   9.000000E+99

> <Gold.Protein.RotatedTorsions>
[ 6907 6896 6895 6894 ] final  -38.49 input  -60.11 | X-H torsion
[ 7974 7965 7964 7962 ] final   13.09 input  175.53 | X-H torsion
[ 8008 7997 7996 7995 ] final   85.28 input   59.86 | X-H torsion
[ 10167 10162 10161 10158 ] final -152.71 input  -65.29 | X-H torsion
[ 10718 10713 10712 10709 ] final  132.58 input   66.30 | X-H torsion
[ 10763 10752 10751 10750 ] final  -54.84 input  -60.55 | X-H torsion
[ 11005 11000 10999 10996 ] final   88.04 input  -57.11 | X-H torsion

> <Gold.Protein.ActiveResidues>
 VAL166  LYS551  ARG553  GLY616  TRP617  ASP618  TYR619  PRO620  LYS621  CYS622 
 ASP623  PHE694  ASN695  SER759  ASP760  ASP761  ALA762  ILE779  LEU786  VAL792 
 PHE793  MET794  SER795  GLU796  ALA797  LYS798  CYS799  TRP800  GLU811  SER814 

> <Gold.Protein.RotatedAtoms>
  151.0019  134.9328  159.7958 H   0  0  0  0  0  0  0  0  0  0  0  0  # atno 6907 bound_to 6896
  152.5280  134.3143  159.9135 H   0  0  0  0  0  0  0  0  0  0  0  0  # atno 6908 bound_to 6896
  151.3149  133.4023  159.2684 H   0  0  0  0  0  0  0  0  0  0  0  0  # atno 6909 bound_to 6896
  146.2337  139.9240  142.8506 H   0  0  0  0  0  0  0  0  0  0  0  0  # atno 7974 bound_to 7965
  155.9479  140.3403  155.6383 H   0  0  0  0  0  0  0  0  0  0  0  0  # atno 8008 bound_to 7997
  155.6957  140.0754  157.2449 H   0  0  0  0  0  0  0  0  0  0  0  0  # atno 8009 bound_to 7997
  154.4116  140.1649  156.2122 H   0  0  0  0  0  0  0  0  0  0  0  0  # atno 8010 bound_to 7997
  139.7158  143.9035  152.2485 H   0  0  0  0  0  0  0  0  0  0  0  0  # atno 10167 bound_to 10162
  157.4857  131.1088  150.9623 H   0  0  0  0  0  0  0  0  0  0  0  0  # atno 10718 bound_to 10713
  154.1813  135.6443  153.5035 H   0  0  0  0  0  0  0  0  0  0  0  0  # atno 10763 bound_to 10752
  153.0058  135.5407  154.6511 H   0  0  0  0  0  0  0  0  0  0  0  0  # atno 10764 bound_to 10752
  154.5876  135.2931  155.0641 H   0  0  0  0  0  0  0  0  0  0  0  0  # atno 10765 bound_to 10752
  139.8905  134.8462  156.2944 H   0  0  0  0  0  0  0  0  0  0  0  0  # atno 11005 bound_to 11000
  145.2108  140.9895  143.4101 LP  0  0  0  0  0  0  0  0  0  0  0  0  # atno 17320 bound_to 7965
  144.9693  139.3897  143.6317 LP  0  0  0  0  0  0  0  0  0  0  0  0  # atno 17321 bound_to 7965
  139.8917  144.6961  150.8763 LP  0  0  0  0  0  0  0  0  0  0  0  0  # atno 17342 bound_to 10162
  140.7743  143.3581  151.1881 LP  0  0  0  0  0  0  0  0  0  0  0  0  # atno 17343 bound_to 10162
  157.0341  130.5723  149.5347 LP  0  0  0  0  0  0  0  0  0  0  0  0  # atno 17370 bound_to 10713
  156.0146  130.5239  150.8094 LP  0  0  0  0  0  0  0  0  0  0  0  0  # atno 17371 bound_to 10713
  140.9955  133.7183  156.0879 LP  0  0  0  0  0  0  0  0  0  0  0  0  # atno 17394 bound_to 11000
  140.7568  134.3983  157.5532 LP  0  0  0  0  0  0  0  0  0  0  0  0  # atno 17395 bound_to 11000

$$$$
