AV-unprocessed.smi:276|AV-procd|sdf|2072|dock6
  -GOLD-   2262021333D 1   1.00000     0.00000
 Structure written by MMmdl.
 57 61  0  0  0  0  0  0  0  0  1 V2000
  142.2012  135.3219  153.7268 C   0  0  0  0  0  0  0  0  0  0  0  0
  142.9519  136.5058  153.9326 O   0  0  0  0  0  0  0  0  0  0  0  0
  144.1688  136.2672  154.6214 C   0  0  2  0  0  0  0  0  0  0  0  0
  145.0927  137.4870  154.7099 C   0  0  0  0  0  0  0  0  0  0  0  0
  146.2622  136.5177  154.4939 C   0  0  2  0  0  0  0  0  0  0  0  0
  147.3390  137.0930  153.6843 N   0  0  0  0  0  0  0  0  0  0  0  0
  146.9250  137.9904  152.6128 C   0  0  0  0  0  0  0  0  0  0  0  0
  148.3832  137.6227  154.3614 C   0  0  0  0  0  0  0  0  0  0  0  0
  149.2288  136.7495  154.9637 N   0  0  0  0  0  0  0  0  0  0  0  0
  150.2773  137.2014  155.6577 C   0  0  0  0  0  0  0  0  0  0  0  0
  150.6596  138.4629  155.8651 N   0  0  0  0  0  0  0  0  0  0  0  0
  149.8241  139.3428  155.2429 C   0  0  0  0  0  0  0  0  0  0  0  0
  148.6754  139.0133  154.4691 C   0  0  0  0  0  0  0  0  0  0  0  0
  148.0911  140.1751  153.9771 N   0  0  0  0  0  0  0  0  0  0  0  0
  148.8389  141.1351  154.4479 C   0  0  0  0  0  0  0  0  0  0  0  0
  149.9021  140.7238  155.2181 N   0  0  0  0  0  0  0  0  0  0  0  0
  150.8892  141.5757  155.8575 C   0  0  0  0  0  0  0  0  0  0  0  0
  150.6464  141.7178  157.3721 C   0  0  2  0  0  0  0  0  0  0  0  0
  149.3776  142.2924  157.6222 O   0  0  0  0  0  0  0  0  0  0  0  0
  151.7579  142.5165  158.0828 C   0  0  2  0  0  0  0  0  0  0  0  0
  151.6841  142.5809  159.6108 C   0  0  0  0  0  0  0  0  0  0  0  0
  152.4962  143.8253  159.8905 C   0  0  0  0  0  0  0  0  0  0  0  0
  152.0848  144.7325  158.7329 C   0  0  0  0  0  0  0  0  0  0  0  0
  151.8226  143.8670  157.6311 O   0  0  0  0  0  0  0  0  0  0  0  0
  145.2542  135.5921  153.7601 C   0  0  0  0  0  0  0  0  0  0  0  0
  145.4074  134.0653  153.7620 C   0  0  0  0  0  0  0  0  0  0  0  0
  145.6941  134.1144  152.2577 C   0  0  0  0  0  0  0  0  0  0  0  0
  145.1226  135.5360  152.2240 C   0  0  0  0  0  0  0  0  0  0  0  0
  141.2816  135.5598  153.1923 H   0  0  0  0  0  0  0  0  0  0  0  0
  141.9274  134.8546  154.6734 H   0  0  0  0  0  0  0  0  0  0  0  0
  142.7609  134.6007  153.1300 H   0  0  0  0  0  0  0  0  0  0  0  0
  144.0365  135.7619  155.5808 H   0  0  0  0  0  0  0  0  0  0  0  0
  144.9481  138.1878  153.8851 H   0  0  0  0  0  0  0  0  0  0  0  0
  145.0901  137.9919  155.6761 H   0  0  0  0  0  0  0  0  0  0  0  0
  146.5912  136.0975  155.4452 H   0  0  0  0  0  0  0  0  0  0  0  0
  146.4081  138.8613  153.0176 H   0  0  0  0  0  0  0  0  0  0  0  0
  146.2487  137.4823  151.9258 H   0  0  0  0  0  0  0  0  0  0  0  0
  147.7806  138.3382  152.0321 H   0  0  0  0  0  0  0  0  0  0  0  0
  150.8975  136.4436  156.1136 H   0  0  0  0  0  0  0  0  0  0  0  0
  148.6371  142.1763  154.2414 H   0  0  0  0  0  0  0  0  0  0  0  0
  151.8757  141.1489  155.6727 H   0  0  0  0  0  0  0  0  0  0  0  0
  150.8775  142.5520  155.3715 H   0  0  0  0  0  0  0  0  0  0  0  0
  150.6241  140.7198  157.8119 H   0  0  0  0  0  0  0  0  0  0  0  0
  149.3053  143.0901  157.1206 H   0  0  0  0  0  0  0  0  0  0  0  0
  152.7181  142.0711  157.8172 H   0  0  0  0  0  0  0  0  0  0  0  0
  150.6617  142.7282  159.9602 H   0  0  0  0  0  0  0  0  0  0  0  0
  152.0846  141.6896  160.0944 H   0  0  0  0  0  0  0  0  0  0  0  0
  152.2917  144.2619  160.8686 H   0  0  0  0  0  0  0  0  0  0  0  0
  153.5616  143.5989  159.8319 H   0  0  0  0  0  0  0  0  0  0  0  0
  151.1657  145.2663  158.9779 H   0  0  0  0  0  0  0  0  0  0  0  0
  152.8494  145.4698  158.4877 H   0  0  0  0  0  0  0  0  0  0  0  0
  146.2319  133.6878  154.3662 H   0  0  0  0  0  0  0  0  0  0  0  0
  144.4736  133.5508  153.9927 H   0  0  0  0  0  0  0  0  0  0  0  0
  146.7585  134.0746  152.0265 H   0  0  0  0  0  0  0  0  0  0  0  0
  145.1317  133.3891  151.6693 H   0  0  0  0  0  0  0  0  0  0  0  0
  144.0887  135.5476  151.8781 H   0  0  0  0  0  0  0  0  0  0  0  0
  145.7263  136.2546  151.6706 H   0  0  0  0  0  0  0  0  0  0  0  0
  1  2  1  0  0  0  0
  1 29  1  0  0  0  0
  1 30  1  0  0  0  0
  1 31  1  0  0  0  0
  2  3  1  0  0  0  0
  3 25  1  0  0  0  0
  3  4  1  0  0  0  0
  3 32  1  0  0  0  0
  4  5  1  0  0  0  0
  4 33  1  0  0  0  0
  4 34  1  0  0  0  0
  5  6  1  0  0  0  0
  5 25  1  0  0  0  0
  5 35  1  0  0  0  0
  6  7  1  0  0  0  0
  6  8  1  0  0  0  0
  7 36  1  0  0  0  0
  7 37  1  0  0  0  0
  7 38  1  0  0  0  0
  8 13  1  0  0  0  0
  8  9  2  0  0  0  0
  9 10  1  0  0  0  0
 10 11  2  0  0  0  0
 10 39  1  0  0  0  0
 11 12  1  0  0  0  0
 12 16  1  0  0  0  0
 12 13  2  0  0  0  0
 13 14  1  0  0  0  0
 14 15  2  0  0  0  0
 15 16  1  0  0  0  0
 15 40  1  0  0  0  0
 16 17  1  0  0  0  0
 17 18  1  0  0  0  0
 17 41  1  0  0  0  0
 17 42  1  0  0  0  0
 18 19  1  0  0  0  0
 18 20  1  0  0  0  0
 18 43  1  0  0  0  0
 19 44  1  0  0  0  0
 20 24  1  0  0  0  0
 20 21  1  0  0  0  0
 20 45  1  0  0  0  0
 21 22  1  0  0  0  0
 21 46  1  0  0  0  0
 21 47  1  0  0  0  0
 22 23  1  0  0  0  0
 22 48  1  0  0  0  0
 22 49  1  0  0  0  0
 23 24  1  0  0  0  0
 23 50  1  0  0  0  0
 23 51  1  0  0  0  0
 25 28  1  0  0  0  0
 25 26  1  0  0  0  0
 26 27  1  0  0  0  0
 26 52  1  0  0  0  0
 26 53  1  0  0  0  0
 27 28  1  0  0  0  0
 27 54  1  0  0  0  0
 27 55  1  0  0  0  0
 28 56  1  0  0  0  0
 28 57  1  0  0  0  0
M  END
> <s_m_source_file>
AV-unprocessed.smi

> <i_m_source_file_index>
276

> <i_lp_mmshare_version>
43012

> <i_f3d_flags>
0

> <s_epik_input>
W0NIMl0xW0NIMl1bQ0gyXUMxMltDQEhdKE9bQ0gzXSlbQ0gyXVtDQEhdMk4oW0NIM10pYyhuW2NIXW4zKWMoYzM0KW5bY0hdbjRbQ0gyXVtDQEhdKFtPSF0pW0NAQEhdNVtDSDJdW0NIMl1bQ0gyXU81

> <s_epik_cmdline>
J2VwaWtfcHl0aG9uJywgJy1waCcsICc3LjAnLCAnLXRuJywgJzgnLCAnLW1hJywgJzIwMCcsICctbWV0YWxfYmluZGluZycsICctaW1hZScsICc8aW5maWxlLm1hZT4nLCAnLW9tYWUnLCAnPG91dGZpbGUubWFlPic=

> <r_lp_tautomer_probability>
1

> <r_epik_Ionization_Penalty>
0.00204117

> <r_epik_Ionization_Penalty_Charging>
0

> <r_epik_Ionization_Penalty_Neutral>
0.00204117

> <r_epik_State_Penalty>
0.00127401

> <r_epik_Charging_Adjusted_Penalty>
0.00127401

> <i_epik_Tot_Q>
0

> <i_epik_Tot_abs_Q>
0

> <r_epik_Metal_State_Penalty>
-0

> <b_epik_Metal_Only>
0

> <s_lp_Force_Field>
OPLS_2005

> <r_lp_Energy>
58.4332

> <b_lp_Chiralities_Consistent>
1

> <s_lp_Variant>
AV-unprocessed.smi:276-3

> <Gold.Version>
5.8.1

> <Gold.Id.Protein>
6NUR|6NUR_protein|mol2

> <Gold.PLP.Fitness>
42.1983

> <Gold.PLP.PLP>
-37.9334

> <Gold.PLP.part.hbond>
-1.0000

> <Gold.PLP.part.metal>
0.0000

> <Gold.PLP.part.buried>
-6.2946

> <Gold.PLP.part.nonpolar>
-32.7283

> <Gold.PLP.part.repulsive>
1.6415

> <Gold.PLP.ligand.clash>
0.0428

> <Gold.PLP.ligand.torsion>
1.2436

> <Gold.PLP.Chemscore.Hbond>
1.0000

> <Gold.PLP.Chemscore.CHOScore>
1.0000

> <Gold.PLP.Chemscore.Metal>
0.0000

> <Gold.Chemscore.Hbonds>
donor molecule, donor type, donor heavy atom, donor atom, acceptor molecule, acceptor atom, score
      L1  H    19    44       P1  8028  0.52
      L1  C    15    40       P1  8028  0.08

> <Gold.PLP.Chemscore.Internal.Correction>
0.7949

> <Gold.Rescore>
     Score         DG    S(hbond)    S(metal)    S(lipo)     H(rot)  DE(clash)    DE(int)     intcor
      9.80     -13.07       0.91        0.00      98.42       2.72       0.68       2.58       ----

> <Gold.Chemscore.Fitness>
9.8043

> <Gold.Chemscore.DG>
-13.0652

> <Gold.Chemscore.ZeroCoef>
-5.4800

> <Gold.Chemscore.Hbond>
0.9059

> <Gold.Chemscore.Metal>
0.0000

> <Gold.Chemscore.Lipo>
98.4228

> <Gold.Chemscore.Internal_Hbond>
0.0000

> <Gold.Chemscore.DEClash>
0.6834

> <Gold.Chemscore.DEInternal>
2.5775

> <Gold.Chemscore.Rot>
2.7172

> <Gold.Chemscore.Internal.Correction>
   9.000000E+99

> <Gold.Chemscore.Hbonds>
donor molecule, donor type, donor heavy atom, donor atom, acceptor molecule, acceptor atom, score
      L1  H    19    44       P1  8028  0.48

> <Gold.Chemscore.Hbond.Weighted>
-3.0257

> <Gold.Chemscore.Metal.Weighted>
-0.0000

> <Gold.Chemscore.Lipo.Weighted>
-11.5155

> <Gold.Chemscore.Internal_Hbond.Weighted>
0.0000

> <Gold.Chemscore.DEClash.Weighted>
0.6834

> <Gold.Chemscore.DEInternal.Weighted>
2.5775

> <Gold.Chemscore.Rot.Weighted>
6.9560

> <Gold.Chemscore.Internal.Correction.Weighted>
   9.000000E+99

> <Gold.Protein.RotatedTorsions>
[ 6907 6896 6895 6894 ] final  171.04 input  -60.11 | X-H torsion
[ 7974 7965 7964 7962 ] final -162.80 input  175.53 | X-H torsion
[ 8008 7997 7996 7995 ] final -146.54 input   59.86 | X-H torsion
[ 10167 10162 10161 10158 ] final  127.61 input  -65.29 | X-H torsion
[ 10718 10713 10712 10709 ] final  177.23 input   66.30 | X-H torsion
[ 10763 10752 10751 10750 ] final  -26.16 input  -60.55 | X-H torsion
[ 11005 11000 10999 10996 ] final  -70.72 input  -57.11 | X-H torsion

> <Gold.Protein.ActiveResidues>
 VAL166  LYS551  ARG553  GLY616  TRP617  ASP618  TYR619  PRO620  LYS621  CYS622 
 ASP623  PHE694  ASN695  SER759  ASP760  ASP761  ALA762  ILE779  LEU786  VAL792 
 PHE793  MET794  SER795  GLU796  ALA797  LYS798  CYS799  TRP800  GLU811  SER814 

> <Gold.Protein.RotatedAtoms>
  151.8065  133.3376  159.3542 H   0  0  0  0  0  0  0  0  0  0  0  0  # atno 6907 bound_to 6896
  150.7340  134.5704  159.5897 H   0  0  0  0  0  0  0  0  0  0  0  0  # atno 6908 bound_to 6896
  152.3106  134.7504  160.0388 H   0  0  0  0  0  0  0  0  0  0  0  0  # atno 6909 bound_to 6896
  144.7346  140.3199  143.6172 H   0  0  0  0  0  0  0  0  0  0  0  0  # atno 7974 bound_to 7965
  155.5610  140.0625  157.2828 H   0  0  0  0  0  0  0  0  0  0  0  0  # atno 8008 bound_to 7997
  154.4390  140.1885  156.0828 H   0  0  0  0  0  0  0  0  0  0  0  0  # atno 8009 bound_to 7997
  156.0446  140.3291  155.7286 H   0  0  0  0  0  0  0  0  0  0  0  0  # atno 8010 bound_to 7997
  139.5569  144.6855  151.4155 H   0  0  0  0  0  0  0  0  0  0  0  0  # atno 10167 bound_to 10162
  156.9084  130.9902  151.3024 H   0  0  0  0  0  0  0  0  0  0  0  0  # atno 10718 bound_to 10713
  153.7115  135.6950  153.5036 H   0  0  0  0  0  0  0  0  0  0  0  0  # atno 10763 bound_to 10752
  153.2269  135.4350  155.0551 H   0  0  0  0  0  0  0  0  0  0  0  0  # atno 10764 bound_to 10752
  154.8313  135.3474  154.6651 H   0  0  0  0  0  0  0  0  0  0  0  0  # atno 10765 bound_to 10752
  141.1579  133.6797  156.6795 H   0  0  0  0  0  0  0  0  0  0  0  0  # atno 11005 bound_to 11000
  145.7579  139.1815  143.2284 LP  0  0  0  0  0  0  0  0  0  0  0  0  # atno 17320 bound_to 7965
  146.1009  140.7544  142.9549 LP  0  0  0  0  0  0  0  0  0  0  0  0  # atno 17321 bound_to 7965
  140.6844  143.8009  150.7165 LP  0  0  0  0  0  0  0  0  0  0  0  0  # atno 17342 bound_to 10162
  140.1472  143.4389  152.2155 LP  0  0  0  0  0  0  0  0  0  0  0  0  # atno 17343 bound_to 10162
  157.5983  130.8493  149.8762 LP  0  0  0  0  0  0  0  0  0  0  0  0  # atno 17370 bound_to 10713
  156.0548  130.3710  150.1117 LP  0  0  0  0  0  0  0  0  0  0  0  0  # atno 17371 bound_to 10713
  140.3113  134.8084  157.4178 LP  0  0  0  0  0  0  0  0  0  0  0  0  # atno 17394 bound_to 11000
  140.1176  134.5262  155.8211 LP  0  0  0  0  0  0  0  0  0  0  0  0  # atno 17395 bound_to 11000

$$$$
