AV-unprocessed.smi:1956|AV-procd|sdf|7900|dock8
  -GOLD-   2272010 53D 1   1.00000     0.00000
 Structure written by MMmdl.
 46 47  0  0  0  0  0  0  0  0  2 V2000
  154.3341  140.4485  161.4868 C   0  0  0  0  0  0  0  0  0  0  0  0
  154.1024  141.7963  161.0926 O   0  0  0  0  0  0  0  0  0  0  0  0
  153.2383  142.0325  160.0432 C   0  0  0  0  0  0  0  0  0  0  0  0
  153.0527  143.3597  159.6091 C   0  0  0  0  0  0  0  0  0  0  0  0
  152.1712  143.6112  158.5407 C   0  0  0  0  0  0  0  0  0  0  0  0
  151.5047  142.5208  157.9313 C   0  0  0  0  0  0  0  0  0  0  0  0
  150.5767  142.6371  156.8599 N   0  0  0  0  0  0  0  0  0  0  0  0
  150.1119  141.6812  156.0373 C   0  0  0  0  0  0  0  0  0  0  0  0
  150.3803  140.4830  156.1087 O   0  0  0  0  0  0  0  0  0  0  0  0
  149.2952  142.1966  155.1074 N   0  0  0  0  0  0  0  0  0  0  0  0
  148.6194  141.4281  154.0640 C   0  0  0  0  0  0  0  0  0  0  0  0
  147.0847  141.3867  154.2356 C   0  0  0  0  0  0  0  0  0  0  0  0
  146.4526  140.2218  153.5643 N   0  3  1  0  0  0  0  0  0  0  0  0
  147.2179  139.7690  152.3752 C   0  0  0  0  0  0  0  0  0  0  0  0
  146.4600  138.6655  151.6210 C   0  0  0  0  0  0  0  0  0  0  0  0
  146.1453  137.4853  152.5486 C   0  0  0  0  0  0  0  0  0  0  0  0
  145.3813  137.9710  153.7923 C   0  0  1  0  0  0  0  0  0  0  0  0
  145.0841  136.8120  154.7542 C   0  0  0  0  0  0  0  0  0  0  0  0
  146.1639  139.0987  154.4948 C   0  0  0  0  0  0  0  0  0  0  0  0
  151.7537  141.2318  158.4468 C   0  0  0  0  0  0  0  0  0  0  0  0
  152.5963  140.9840  159.4714 N   0  0  0  0  0  0  0  0  0  0  0  0
  155.0381  140.4323  162.3186 H   0  0  0  0  0  0  0  0  0  0  0  0
  154.7683  139.8635  160.6749 H   0  0  0  0  0  0  0  0  0  0  0  0
  153.4140  139.9677  161.8226 H   0  0  0  0  0  0  0  0  0  0  0  0
  153.5744  144.1729  160.0920 H   0  0  0  0  0  0  0  0  0  0  0  0
  152.0197  144.6315  158.2268 H   0  0  0  0  0  0  0  0  0  0  0  0
  150.2007  143.5636  156.7194 H   0  0  0  0  0  0  0  0  0  0  0  0
  149.1149  143.1900  155.1314 H   0  0  0  0  0  0  0  0  0  0  0  0
  148.8753  141.8334  153.0838 H   0  0  0  0  0  0  0  0  0  0  0  0
  149.0246  140.4166  154.0840 H   0  0  0  0  0  0  0  0  0  0  0  0
  146.8684  141.3381  155.3036 H   0  0  0  0  0  0  0  0  0  0  0  0
  146.6338  142.3149  153.8821 H   0  0  0  0  0  0  0  0  0  0  0  0
  147.3853  140.6101  151.7014 H   0  0  0  0  0  0  0  0  0  0  0  0
  148.2000  139.4097  152.6868 H   0  0  0  0  0  0  0  0  0  0  0  0
  145.5329  139.0705  151.2131 H   0  0  0  0  0  0  0  0  0  0  0  0
  147.0491  138.3231  150.7698 H   0  0  0  0  0  0  0  0  0  0  0  0
  145.5598  136.7377  152.0121 H   0  0  0  0  0  0  0  0  0  0  0  0
  147.0741  136.9976  152.8482 H   0  0  0  0  0  0  0  0  0  0  0  0
  144.4244  138.3794  153.4634 H   0  0  0  0  0  0  0  0  0  0  0  0
  146.0041  136.3539  155.1191 H   0  0  0  0  0  0  0  0  0  0  0  0
  144.4978  136.0346  154.2634 H   0  0  0  0  0  0  0  0  0  0  0  0
  144.5170  137.1545  155.6202 H   0  0  0  0  0  0  0  0  0  0  0  0
  147.1010  138.7130  154.9001 H   0  0  0  0  0  0  0  0  0  0  0  0
  145.5807  139.4620  155.3409 H   0  0  0  0  0  0  0  0  0  0  0  0
  151.2622  140.3679  158.0234 H   0  0  0  0  0  0  0  0  0  0  0  0
  145.5637  140.5490  153.2134 H   0  0  0  0  0  0  0  0  0  0  0  0
  1  2  1  0  0  0  0
  1 22  1  0  0  0  0
  1 23  1  0  0  0  0
  1 24  1  0  0  0  0
  2  3  1  0  0  0  0
  3 21  1  0  0  0  0
  3  4  2  0  0  0  0
  4  5  1  0  0  0  0
  4 25  1  0  0  0  0
  5  6  2  0  0  0  0
  5 26  1  0  0  0  0
  6  7  1  0  0  0  0
  6 20  1  0  0  0  0
  7  8  1  0  0  0  0
  7 27  1  0  0  0  0
  8  9  2  0  0  0  0
  8 10  1  0  0  0  0
 10 11  1  0  0  0  0
 10 28  1  0  0  0  0
 11 12  1  0  0  0  0
 11 29  1  0  0  0  0
 11 30  1  0  0  0  0
 12 13  1  0  0  0  0
 12 31  1  0  0  0  0
 12 32  1  0  0  0  0
 13 19  1  0  0  0  0
 13 14  1  0  0  0  0
 13 46  1  0  0  0  0
 14 15  1  0  0  0  0
 14 33  1  0  0  0  0
 14 34  1  0  0  0  0
 15 16  1  0  0  0  0
 15 35  1  0  0  0  0
 15 36  1  0  0  0  0
 16 17  1  0  0  0  0
 16 37  1  0  0  0  0
 16 38  1  0  0  0  0
 17 18  1  0  0  0  0
 17 19  1  0  0  0  0
 17 39  1  0  0  0  0
 18 40  1  0  0  0  0
 18 41  1  0  0  0  0
 18 42  1  0  0  0  0
 19 43  1  0  0  0  0
 19 44  1  0  0  0  0
 20 21  2  0  0  0  0
 20 45  1  0  0  0  0
M  CHG  1  13   1
M  END
> <s_m_source_file>
AV-unprocessed.smi

> <i_m_source_file_index>
1956

> <i_lp_mmshare_version>
43012

> <i_f3d_flags>
0

> <s_epik_input>
W0NIM11PYzFbY0hdW2NIXWMoW2NIXW4xKVtOSF1DKD1PKVtOSF1bQ0gyXVtDSDJdTjJbQ0gyXVtDSDJdW0NIMl1bQ0BASF0oW0NIM10pW0NIMl0y

> <s_epik_cmdline>
J2VwaWtfcHl0aG9uJywgJy1waCcsICc3LjAnLCAnLXRuJywgJzgnLCAnLW1hJywgJzIwMCcsICctbWV0YWxfYmluZGluZycsICctaW1hZScsICc8aW5maWxlLm1hZT4nLCAnLW9tYWUnLCAnPG91dGZpbGUubWFlPic=

> <r_lp_tautomer_probability>
1

> <r_epik_Ionization_Penalty>
0.00179545

> <r_epik_Ionization_Penalty_Charging>
0.00171832

> <r_epik_Ionization_Penalty_Neutral>
7.7124e-05

> <r_epik_State_Penalty>
0.0011618

> <r_epik_Charging_Adjusted_Penalty>
0.00288012

> <i_epik_Tot_Q>
1

> <i_epik_Tot_abs_Q>
1

> <r_epik_Metal_State_Penalty>
-0

> <b_epik_Metal_Only>
0

> <s_lp_Force_Field>
OPLS_2005

> <r_lp_Energy>
26.1696

> <b_lp_Chiralities_Consistent>
1

> <s_lp_Variant>
AV-unprocessed.smi:1956-1

> <Gold.Version>
5.8.1

> <Gold.Id.Protein>
6NUR|6NUR_protein|mol2

> <Gold.PLP.Fitness>
49.4863

> <Gold.PLP.PLP>
-38.9686

> <Gold.PLP.part.hbond>
-3.6435

> <Gold.PLP.part.metal>
0.0000

> <Gold.PLP.part.buried>
0.8215

> <Gold.PLP.part.nonpolar>
-37.0124

> <Gold.PLP.part.repulsive>
0.2708

> <Gold.PLP.ligand.clash>
0.0000

> <Gold.PLP.ligand.torsion>
0.6826

> <Gold.PLP.Chemscore.Hbond>
3.9440

> <Gold.PLP.Chemscore.CHOScore>
0.0000

> <Gold.PLP.Chemscore.Metal>
0.0000

> <Gold.Chemscore.Hbonds>
donor molecule, donor type, donor heavy atom, donor atom, acceptor molecule, acceptor atom, score
      L1  H     7    27       P1  8028  0.94
      L1  H    10    28       P1  8028  1.00
      L1  H    13    46       P1 10175  2.00

> <Gold.PLP.Chemscore.Internal.Correction>
0.0508

> <Gold.Rescore>
     Score         DG    S(hbond)    S(metal)    S(lipo)     H(rot)  DE(clash)    DE(int)     intcor
     19.25     -21.42       2.96        0.00      89.13       1.71       0.05       2.12       ----

> <Gold.Chemscore.Fitness>
19.2455

> <Gold.Chemscore.DG>
-21.4168

> <Gold.Chemscore.ZeroCoef>
-5.4800

> <Gold.Chemscore.Hbond>
2.9605

> <Gold.Chemscore.Metal>
0.0000

> <Gold.Chemscore.Lipo>
89.1306

> <Gold.Chemscore.Internal_Hbond>
0.0000

> <Gold.Chemscore.DEClash>
0.0492

> <Gold.Chemscore.DEInternal>
2.1221

> <Gold.Chemscore.Rot>
1.7107

> <Gold.Chemscore.Internal.Correction>
   9.000000E+99

> <Gold.Chemscore.Hbonds>
donor molecule, donor type, donor heavy atom, donor atom, acceptor molecule, acceptor atom, score
      L1  H     7    27       P1  8028  0.84
      L1  H    10    28       P1  8028  0.99
      L1  H    13    46       P1 10175  0.85

> <Gold.Chemscore.Hbond.Weighted>
-9.8880

> <Gold.Chemscore.Metal.Weighted>
-0.0000

> <Gold.Chemscore.Lipo.Weighted>
-10.4283

> <Gold.Chemscore.Internal_Hbond.Weighted>
0.0000

> <Gold.Chemscore.DEClash.Weighted>
0.0492

> <Gold.Chemscore.DEInternal.Weighted>
2.1221

> <Gold.Chemscore.Rot.Weighted>
4.3794

> <Gold.Chemscore.Internal.Correction.Weighted>
   9.000000E+99

> <Gold.Protein.RotatedTorsions>
[ 6907 6896 6895 6894 ] final -131.38 input  -60.11 | X-H torsion
[ 7974 7965 7964 7962 ] final  -31.55 input  175.53 | X-H torsion
[ 8008 7997 7996 7995 ] final  -13.80 input   59.86 | X-H torsion
[ 10167 10162 10161 10158 ] final -145.62 input  -65.29 | X-H torsion
[ 10718 10713 10712 10709 ] final  157.91 input   66.30 | X-H torsion
[ 10763 10752 10751 10750 ] final  152.05 input  -60.55 | X-H torsion
[ 11005 11000 10999 10996 ] final  139.71 input  -57.11 | X-H torsion

> <Gold.Protein.ActiveResidues>
 VAL166  LYS551  ARG553  GLY616  TRP617  ASP618  TYR619  PRO620  LYS621  CYS622 
 ASP623  PHE694  ASN695  SER759  ASP760  ASP761  ALA762  ILE779  LEU786  VAL792 
 PHE793  MET794  SER795  GLU796  ALA797  LYS798  CYS799  TRP800  GLU811  SER814 

> <Gold.Protein.RotatedAtoms>
  150.9504  133.6556  159.2772 H   0  0  0  0  0  0  0  0  0  0  0  0  # atno 6907 bound_to 6896
  151.3914  135.0955  159.9537 H   0  0  0  0  0  0  0  0  0  0  0  0  # atno 6908 bound_to 6896
  152.5107  133.9017  159.7499 H   0  0  0  0  0  0  0  0  0  0  0  0  # atno 6909 bound_to 6896
  146.1059  140.5681  142.8800 H   0  0  0  0  0  0  0  0  0  0  0  0  # atno 7974 bound_to 7965
  154.5262  140.2240  155.8885 H   0  0  0  0  0  0  0  0  0  0  0  0  # atno 8008 bound_to 7997
  156.1716  140.3120  155.8948 H   0  0  0  0  0  0  0  0  0  0  0  0  # atno 8009 bound_to 7997
  155.3546  140.0457  157.3037 H   0  0  0  0  0  0  0  0  0  0  0  0  # atno 8010 bound_to 7997
  139.7788  143.8130  152.2636 H   0  0  0  0  0  0  0  0  0  0  0  0  # atno 10167 bound_to 10162
  157.1850  131.0641  151.2111 H   0  0  0  0  0  0  0  0  0  0  0  0  # atno 10718 bound_to 10713
  154.1136  135.2837  155.3225 H   0  0  0  0  0  0  0  0  0  0  0  0  # atno 10763 bound_to 10752
  154.6472  135.5381  153.7862 H   0  0  0  0  0  0  0  0  0  0  0  0  # atno 10764 bound_to 10752
  153.0337  135.6501  154.1294 H   0  0  0  0  0  0  0  0  0  0  0  0  # atno 10765 bound_to 10752
  140.0274  134.9368  157.0595 H   0  0  0  0  0  0  0  0  0  0  0  0  # atno 11005 bound_to 11000
  144.7470  140.5094  143.6828 LP  0  0  0  0  0  0  0  0  0  0  0  0  # atno 17320 bound_to 7965
  145.5762  139.1486  143.3261 LP  0  0  0  0  0  0  0  0  0  0  0  0  # atno 17321 bound_to 7965
  139.8187  144.7305  150.9601 LP  0  0  0  0  0  0  0  0  0  0  0  0  # atno 17342 bound_to 10162
  140.7817  143.4180  151.0887 LP  0  0  0  0  0  0  0  0  0  0  0  0  # atno 17343 bound_to 10162
  157.3916  130.7285  149.6701 LP  0  0  0  0  0  0  0  0  0  0  0  0  # atno 17370 bound_to 10713
  155.9719  130.4145  150.4135 LP  0  0  0  0  0  0  0  0  0  0  0  0  # atno 17371 bound_to 10713
  140.4283  134.1807  155.7167 LP  0  0  0  0  0  0  0  0  0  0  0  0  # atno 17394 bound_to 11000
  141.1811  133.8412  157.1255 LP  0  0  0  0  0  0  0  0  0  0  0  0  # atno 17395 bound_to 11000

$$$$
