AV-unprocessed.smi:1679|AV-procd|sdf|6736|dock3
  -GOLD-   22720 7483D 1   1.00000     0.00000
 Structure written by MMmdl.
 44 45  0  0  0  0  0  0  0  0  2 V2000
  153.9698  140.9209  160.2245 C   0  0  0  0  0  0  0  0  0  0  0  0
  152.8430  141.9479  160.4256 C   0  0  1  0  0  0  0  0  0  0  0  0
  153.0774  142.7677  161.7108 C   0  0  0  0  0  0  0  0  0  0  0  0
  151.9687  143.8072  161.9339 C   0  0  0  0  0  0  0  0  0  0  0  0
  151.8321  144.7357  160.7193 C   0  0  0  0  0  0  0  0  0  0  0  0
  151.5857  143.9304  159.4350 C   0  0  0  0  0  0  0  0  0  0  0  0
  152.6930  142.8805  159.2020 C   0  0  2  0  0  0  0  0  0  0  0  0
  152.3622  142.0704  158.0808 O   0  0  0  0  0  0  0  0  0  0  0  0
  151.0662  141.4907  158.1270 C   0  0  0  0  0  0  0  0  0  0  0  0
  150.3111  141.8682  156.8485 C   0  0  0  0  0  0  0  0  0  0  0  0
  149.8616  140.6720  156.1501 N   0  0  0  0  0  0  0  0  0  0  0  0
  150.5699  140.0255  155.2145 C   0  0  0  0  0  0  0  0  0  0  0  0
  151.7002  140.3714  154.8675 O   0  0  0  0  0  0  0  0  0  0  0  0
  149.9032  138.7848  154.6040 C   0  0  0  0  0  0  0  0  0  0  0  0
  150.5143  137.5222  155.0499 N   0  0  0  0  0  0  0  0  0  0  0  0
  149.6879  136.5906  155.7028 C   0  0  0  0  0  0  0  0  0  0  0  0
  150.1607  135.4109  156.1481 C   0  0  0  0  0  0  0  0  0  0  0  0
  151.5714  135.1088  155.9380 C   0  0  0  0  0  0  0  0  0  0  0  0
  152.0191  134.0340  156.3333 O   0  0  0  0  0  0  0  0  0  0  0  0
  152.3337  136.0472  155.3039 N   0  5  0  0  0  0  0  0  0  0  0  0
  151.8394  137.2444  154.8588 C   0  0  0  0  0  0  0  0  0  0  0  0
  152.5457  138.0786  154.2912 O   0  0  0  0  0  0  0  0  0  0  0  0
  154.9329  141.4117  160.0809 H   0  0  0  0  0  0  0  0  0  0  0  0
  153.7846  140.2915  159.3535 H   0  0  0  0  0  0  0  0  0  0  0  0
  154.0580  140.2614  161.0882 H   0  0  0  0  0  0  0  0  0  0  0  0
  151.9098  141.3954  160.5470 H   0  0  0  0  0  0  0  0  0  0  0  0
  153.1301  142.1019  162.5731 H   0  0  0  0  0  0  0  0  0  0  0  0
  154.0420  143.2741  161.6540 H   0  0  0  0  0  0  0  0  0  0  0  0
  151.0208  143.2992  162.1161 H   0  0  0  0  0  0  0  0  0  0  0  0
  152.1829  144.3934  162.8280 H   0  0  0  0  0  0  0  0  0  0  0  0
  151.0152  145.4399  160.8795 H   0  0  0  0  0  0  0  0  0  0  0  0
  152.7388  145.3320  160.6096 H   0  0  0  0  0  0  0  0  0  0  0  0
  150.6177  143.4317  159.5003 H   0  0  0  0  0  0  0  0  0  0  0  0
  151.5222  144.6163  158.5906 H   0  0  0  0  0  0  0  0  0  0  0  0
  153.6469  143.3848  159.0346 H   0  0  0  0  0  0  0  0  0  0  0  0
  151.1384  140.4058  158.2018 H   0  0  0  0  0  0  0  0  0  0  0  0
  150.5171  141.8439  159.0013 H   0  0  0  0  0  0  0  0  0  0  0  0
  149.4537  142.4993  157.0868 H   0  0  0  0  0  0  0  0  0  0  0  0
  150.9655  142.4455  156.1937 H   0  0  0  0  0  0  0  0  0  0  0  0
  148.9406  140.3262  156.3771 H   0  0  0  0  0  0  0  0  0  0  0  0
  148.8441  138.8073  154.8641 H   0  0  0  0  0  0  0  0  0  0  0  0
  149.9318  138.8500  153.5144 H   0  0  0  0  0  0  0  0  0  0  0  0
  148.6582  136.8940  155.8232 H   0  0  0  0  0  0  0  0  0  0  0  0
  149.5132  134.7074  156.6505 H   0  0  0  0  0  0  0  0  0  0  0  0
  1  2  1  0  0  0  0
  1 23  1  0  0  0  0
  1 24  1  0  0  0  0
  1 25  1  0  0  0  0
  2  7  1  0  0  0  0
  2  3  1  0  0  0  0
  2 26  1  0  0  0  0
  3  4  1  0  0  0  0
  3 27  1  0  0  0  0
  3 28  1  0  0  0  0
  4  5  1  0  0  0  0
  4 29  1  0  0  0  0
  4 30  1  0  0  0  0
  5  6  1  0  0  0  0
  5 31  1  0  0  0  0
  5 32  1  0  0  0  0
  6  7  1  0  0  0  0
  6 33  1  0  0  0  0
  6 34  1  0  0  0  0
  7  8  1  0  0  0  0
  7 35  1  0  0  0  0
  8  9  1  0  0  0  0
  9 10  1  0  0  0  0
  9 36  1  0  0  0  0
  9 37  1  0  0  0  0
 10 11  1  0  0  0  0
 10 38  1  0  0  0  0
 10 39  1  0  0  0  0
 11 12  1  0  0  0  0
 11 40  1  0  0  0  0
 12 13  2  0  0  0  0
 12 14  1  0  0  0  0
 14 15  1  0  0  0  0
 14 41  1  0  0  0  0
 14 42  1  0  0  0  0
 15 21  1  0  0  0  0
 15 16  1  0  0  0  0
 16 17  2  0  0  0  0
 16 43  1  0  0  0  0
 17 18  1  0  0  0  0
 17 44  1  0  0  0  0
 18 19  2  0  0  0  0
 18 20  1  0  0  0  0
 20 21  1  0  0  0  0
 21 22  2  0  0  0  0
M  CHG  1  20  -1
M  END
> <s_m_source_file>
AV-unprocessed.smi

> <i_m_source_file_index>
1679

> <i_lp_mmshare_version>
43012

> <i_f3d_flags>
0

> <s_epik_input>
W0NIM11bQ0BASF0xW0NIMl1bQ0gyXVtDSDJdW0NIMl1bQ0BIXTFPW0NIMl1bQ0gyXVtOSF1DKD1PKVtDSDJdbjJbY0hdW2NIXWMoPU8pW25IXWMyPU8=

> <s_epik_cmdline>
J2VwaWtfcHl0aG9uJywgJy1waCcsICc3LjAnLCAnLXRuJywgJzgnLCAnLW1hJywgJzIwMCcsICctbWV0YWxfYmluZGluZycsICctaW1hZScsICc8aW5maWxlLm1hZT4nLCAnLW9tYWUnLCAnPG91dGZpbGUubWFlPic=

> <r_lp_tautomer_probability>
0.999537

> <r_epik_Ionization_Penalty>
3.07454

> <r_epik_Ionization_Penalty_Charging>
2.80088e-08

> <r_epik_Ionization_Penalty_Neutral>
3.07454

> <r_epik_State_Penalty>
3.07357

> <r_epik_Charging_Adjusted_Penalty>
3.07357

> <i_epik_Tot_Q>
-1

> <i_epik_Tot_abs_Q>
1

> <r_epik_Metal_State_Penalty>
0.45948

> <b_epik_Metal_Only>
1

> <s_lp_Force_Field>
OPLS_2005

> <r_lp_Energy>
20.702

> <b_lp_Chiralities_Consistent>
1

> <s_lp_Variant>
AV-unprocessed.smi:1679-8

> <Gold.Version>
5.8.1

> <Gold.Id.Protein>
6NUR|6NUR_protein|mol2

> <Gold.PLP.Fitness>
49.7087

> <Gold.PLP.PLP>
-42.0104

> <Gold.PLP.part.hbond>
-4.0000

> <Gold.PLP.part.metal>
0.0000

> <Gold.PLP.part.buried>
-2.8879

> <Gold.PLP.part.nonpolar>
-34.8142

> <Gold.PLP.part.repulsive>
0.2564

> <Gold.PLP.ligand.clash>
0.0000

> <Gold.PLP.ligand.torsion>
1.0906

> <Gold.PLP.Chemscore.Hbond>
3.2621

> <Gold.PLP.Chemscore.CHOScore>
0.0000

> <Gold.PLP.Chemscore.Metal>
0.0000

> <Gold.Chemscore.Hbonds>
donor molecule, donor type, donor heavy atom, donor atom, acceptor molecule, acceptor atom, score
      P1  H  7989  7998       L1    13  0.71

> <Gold.PLP.Chemscore.Internal.Correction>
0.0932

> <Gold.Rescore>
     Score         DG    S(hbond)    S(metal)    S(lipo)     H(rot)  DE(clash)    DE(int)     intcor
     13.07     -17.27       1.83        0.00     102.20       2.45       0.52       3.68       ----

> <Gold.Chemscore.Fitness>
13.0670

> <Gold.Chemscore.DG>
-17.2694

> <Gold.Chemscore.ZeroCoef>
-5.4800

> <Gold.Chemscore.Hbond>
1.8267

> <Gold.Chemscore.Metal>
0.0000

> <Gold.Chemscore.Lipo>
102.2021

> <Gold.Chemscore.Internal_Hbond>
0.0000

> <Gold.Chemscore.DEClash>
0.5189

> <Gold.Chemscore.DEInternal>
3.6835

> <Gold.Chemscore.Rot>
2.4490

> <Gold.Chemscore.Internal.Correction>
   9.000000E+99

> <Gold.Chemscore.Hbonds>
donor molecule, donor type, donor heavy atom, donor atom, acceptor molecule, acceptor atom, score
      P1  H  7989  7998       L1    13  0.51

> <Gold.Chemscore.Hbond.Weighted>
-6.1012

> <Gold.Chemscore.Metal.Weighted>
-0.0000

> <Gold.Chemscore.Lipo.Weighted>
-11.9577

> <Gold.Chemscore.Internal_Hbond.Weighted>
0.0000

> <Gold.Chemscore.DEClash.Weighted>
0.5189

> <Gold.Chemscore.DEInternal.Weighted>
3.6835

> <Gold.Chemscore.Rot.Weighted>
6.2694

> <Gold.Chemscore.Internal.Correction.Weighted>
   9.000000E+99

> <Gold.Protein.RotatedTorsions>
[ 6907 6896 6895 6894 ] final -135.20 input  -60.11 | X-H torsion
[ 7974 7965 7964 7962 ] final  103.29 input  175.53 | X-H torsion
[ 8008 7997 7996 7995 ] final  -85.95 input   59.86 | X-H torsion
[ 10167 10162 10161 10158 ] final  -16.38 input  -65.29 | X-H torsion
[ 10718 10713 10712 10709 ] final   -6.47 input   66.30 | X-H torsion
[ 10763 10752 10751 10750 ] final  -31.83 input  -60.55 | X-H torsion
[ 11005 11000 10999 10996 ] final -142.71 input  -57.11 | X-H torsion

> <Gold.Protein.ActiveResidues>
 VAL166  LYS551  ARG553  GLY616  TRP617  ASP618  TYR619  PRO620  LYS621  CYS622 
 ASP623  PHE694  ASN695  SER759  ASP760  ASP761  ALA762  ILE779  LEU786  VAL792 
 PHE793  MET794  SER795  GLU796  ALA797  LYS798  CYS799  TRP800  GLU811  SER814 

> <Gold.Protein.RotatedAtoms>
  150.9950  133.6112  159.2702 H   0  0  0  0  0  0  0  0  0  0  0  0  # atno 6907 bound_to 6896
  151.3319  135.0843  159.9351 H   0  0  0  0  0  0  0  0  0  0  0  0  # atno 6908 bound_to 6896
  152.5257  133.9577  159.7756 H   0  0  0  0  0  0  0  0  0  0  0  0  # atno 6909 bound_to 6896
  145.3478  139.2446  143.3574 H   0  0  0  0  0  0  0  0  0  0  0  0  # atno 7974 bound_to 7965
  154.6464  140.0585  156.9905 H   0  0  0  0  0  0  0  0  0  0  0  0  # atno 8008 bound_to 7997
  155.1438  140.3268  155.4428 H   0  0  0  0  0  0  0  0  0  0  0  0  # atno 8009 bound_to 7997
  156.2555  140.1959  156.6552 H   0  0  0  0  0  0  0  0  0  0  0  0  # atno 8010 bound_to 7997
  140.7233  143.5122  150.9736 H   0  0  0  0  0  0  0  0  0  0  0  0  # atno 10167 bound_to 10162
  156.7314  130.5181  149.5845 H   0  0  0  0  0  0  0  0  0  0  0  0  # atno 10718 bound_to 10713
  153.8039  135.6888  153.4851 H   0  0  0  0  0  0  0  0  0  0  0  0  # atno 10763 bound_to 10752
  153.1671  135.4557  154.9850 H   0  0  0  0  0  0  0  0  0  0  0  0  # atno 10764 bound_to 10752
  154.7995  135.3332  154.7525 H   0  0  0  0  0  0  0  0  0  0  0  0  # atno 10765 bound_to 10752
  140.8198  134.2645  157.4905 H   0  0  0  0  0  0  0  0  0  0  0  0  # atno 11005 bound_to 11000
  146.2981  140.4088  142.8714 LP  0  0  0  0  0  0  0  0  0  0  0  0  # atno 17320 bound_to 7965
  144.8741  140.7312  143.6028 LP  0  0  0  0  0  0  0  0  0  0  0  0  # atno 17321 bound_to 7965
  139.8836  143.7041  152.3154 LP  0  0  0  0  0  0  0  0  0  0  0  0  # atno 17342 bound_to 10162
  139.7332  144.7577  151.0769 LP  0  0  0  0  0  0  0  0  0  0  0  0  # atno 17343 bound_to 10162
  156.1526  130.6320  151.0616 LP  0  0  0  0  0  0  0  0  0  0  0  0  # atno 17370 bound_to 10713
  157.6857  131.0825  150.7249 LP  0  0  0  0  0  0  0  0  0  0  0  0  # atno 17371 bound_to 10713
  139.8709  134.9529  156.4129 LP  0  0  0  0  0  0  0  0  0  0  0  0  # atno 17394 bound_to 11000
  140.9111  133.7711  155.9792 LP  0  0  0  0  0  0  0  0  0  0  0  0  # atno 17395 bound_to 11000

$$$$
