AV-unprocessed.smi:28|AV-procd|sdf|190|dock1
  -GOLD-   2262015453D 1   1.00000     0.00000
 Structure written by MMmdl.
 41 44  0  0  0  0  0  0  0  0  1 V2000
  147.6146  139.0647  155.9242 O   0  0  0  0  0  0  0  0  0  0  0  0
  146.9838  140.1194  155.8364 C   0  0  0  0  0  0  0  0  0  0  0  0
  145.7626  140.3864  156.5887 C   0  0  0  0  0  0  0  0  0  0  0  0
  145.2885  139.4579  157.4367 F   0  0  0  0  0  0  0  0  0  0  0  0
  145.0929  141.5500  156.4425 C   0  0  0  0  0  0  0  0  0  0  0  0
  145.5062  142.5576  155.5863 N   0  0  0  0  0  0  0  0  0  0  0  0
  144.7166  143.8398  155.4283 C   0  0  1  0  0  0  0  0  0  0  0  0
  143.2270  143.5262  155.2516 C   0  0  0  0  0  0  0  0  0  0  0  0
  142.7401  143.5405  156.6840 C   0  0  0  0  0  0  0  0  0  0  0  0
  143.5958  144.6481  157.2903 C   0  0  0  0  0  0  0  0  0  0  0  0
  144.8397  144.6061  156.5921 O   0  0  0  0  0  0  0  0  0  0  0  0
  146.6770  142.3846  154.8165 C   0  0  0  0  0  0  0  0  0  0  0  0
  147.0475  143.2576  154.0276 O   0  0  0  0  0  0  0  0  0  0  0  0
  147.3863  141.1707  154.9760 N   0  0  0  0  0  0  0  0  0  0  0  0
  148.5621  140.9607  154.1475 C   0  0  0  0  0  0  0  0  0  0  0  0
  149.7867  140.8697  155.0028 C   0  0  0  0  0  0  0  0  0  0  0  0
  150.8176  140.0352  154.8603 N   0  0  0  0  0  0  0  0  0  0  0  0
  151.7018  140.3608  155.8631 N   0  0  0  0  0  0  0  0  0  0  0  0
  151.1356  141.3588  156.5502 C   0  0  0  0  0  0  0  0  0  0  0  0
  151.6548  142.1033  157.6947 C   0  0  0  0  0  0  0  0  0  0  0  0
  151.4864  143.5064  157.7173 C   0  0  0  0  0  0  0  0  0  0  0  0
  151.9658  144.2697  158.7984 C   0  0  0  0  0  0  0  0  0  0  0  0
  152.6149  143.6349  159.8726 C   0  0  0  0  0  0  0  0  0  0  0  0
  152.7773  142.2371  159.8654 C   0  0  0  0  0  0  0  0  0  0  0  0
  152.2979  141.4658  158.7872 C   0  0  0  0  0  0  0  0  0  0  0  0
  152.5167  139.5726  158.8750 Br  0  0  0  0  0  0  0  0  0  0  0  0
  149.9266  141.7258  156.0471 O   0  0  0  0  0  0  0  0  0  0  0  0
  144.1916  141.6805  157.0223 H   0  0  0  0  0  0  0  0  0  0  0  0
  145.1669  144.3667  154.5854 H   0  0  0  0  0  0  0  0  0  0  0  0
  142.7664  144.3341  154.6820 H   0  0  0  0  0  0  0  0  0  0  0  0
  143.0545  142.5834  154.7312 H   0  0  0  0  0  0  0  0  0  0  0  0
  141.6703  143.7310  156.7720 H   0  0  0  0  0  0  0  0  0  0  0  0
  142.9572  142.5861  157.1656 H   0  0  0  0  0  0  0  0  0  0  0  0
  143.1335  145.6207  157.1168 H   0  0  0  0  0  0  0  0  0  0  0  0
  143.7369  144.5271  158.3645 H   0  0  0  0  0  0  0  0  0  0  0  0
  148.4178  140.0503  153.5634 H   0  0  0  0  0  0  0  0  0  0  0  0
  148.6433  141.7770  153.4286 H   0  0  0  0  0  0  0  0  0  0  0  0
  150.9926  144.0081  156.8977 H   0  0  0  0  0  0  0  0  0  0  0  0
  151.8354  145.3418  158.8032 H   0  0  0  0  0  0  0  0  0  0  0  0
  152.9826  144.2182  160.7039 H   0  0  0  0  0  0  0  0  0  0  0  0
  153.2673  141.7522  160.6968 H   0  0  0  0  0  0  0  0  0  0  0  0
  1  2  2  0  0  0  0
  2 14  1  0  0  0  0
  2  3  1  0  0  0  0
  3  4  1  0  0  0  0
  3  5  2  0  0  0  0
  5  6  1  0  0  0  0
  5 28  1  0  0  0  0
  6  7  1  0  0  0  0
  6 12  1  0  0  0  0
  7 11  1  0  0  0  0
  7  8  1  0  0  0  0
  7 29  1  0  0  0  0
  8  9  1  0  0  0  0
  8 30  1  0  0  0  0
  8 31  1  0  0  0  0
  9 10  1  0  0  0  0
  9 32  1  0  0  0  0
  9 33  1  0  0  0  0
 10 11  1  0  0  0  0
 10 34  1  0  0  0  0
 10 35  1  0  0  0  0
 12 13  2  0  0  0  0
 12 14  1  0  0  0  0
 14 15  1  0  0  0  0
 15 16  1  0  0  0  0
 15 36  1  0  0  0  0
 15 37  1  0  0  0  0
 16 27  1  0  0  0  0
 16 17  2  0  0  0  0
 17 18  1  0  0  0  0
 18 19  2  0  0  0  0
 19 20  1  0  0  0  0
 19 27  1  0  0  0  0
 20 25  1  0  0  0  0
 20 21  2  0  0  0  0
 21 22  1  0  0  0  0
 21 38  1  0  0  0  0
 22 23  2  0  0  0  0
 22 39  1  0  0  0  0
 23 24  1  0  0  0  0
 23 40  1  0  0  0  0
 24 25  2  0  0  0  0
 24 41  1  0  0  0  0
 25 26  1  0  0  0  0
M  END
> <s_m_source_file>
AV-unprocessed.smi

> <i_m_source_file_index>
28

> <i_lp_mmshare_version>
43012

> <i_f3d_flags>
0

> <s_epik_input>
TzFbQ0gyXVtDSDJdW0NIMl1bQ0BIXTFuKFtjSF1jKEYpYzI9TyljKD1PKW4yW0NIMl1jM25uYyhvMyktYzRbY0hdW2NIXVtjSF1bY0hdYzRCcg==

> <s_epik_cmdline>
J2VwaWtfcHl0aG9uJywgJy1waCcsICc3LjAnLCAnLXRuJywgJzgnLCAnLW1hJywgJzIwMCcsICctbWV0YWxfYmluZGluZycsICctaW1hZScsICc8aW5maWxlLm1hZT4nLCAnLW9tYWUnLCAnPG91dGZpbGUubWFlPic=

> <r_lp_tautomer_probability>
1

> <r_epik_Ionization_Penalty>
2.5628e-09

> <r_epik_Ionization_Penalty_Charging>
2.54231e-09

> <r_epik_Ionization_Penalty_Neutral>
2.0492e-11

> <r_epik_State_Penalty>
-0

> <r_epik_Charging_Adjusted_Penalty>
2.54231e-09

> <i_epik_Tot_Q>
0

> <i_epik_Tot_abs_Q>
0

> <r_epik_Metal_State_Penalty>
-0

> <b_epik_Metal_Only>
0

> <s_epik_Chemistry_Notes>
This compound contains an acetal/aminal-like group ( X-CH(R)-Y where X, Y are N, S, or O) that may be acid/base labile, releasing an aldehyde.

> <s_lp_Force_Field>
OPLS_2005

> <r_lp_Energy>
35.5142

> <b_lp_Chiralities_Consistent>
1

> <s_lp_Variant>
AV-unprocessed.smi:28-2

> <Gold.Version>
5.8.1

> <Gold.Id.Protein>
6NUR|6NUR_protein|mol2

> <Gold.PLP.Fitness>
41.8879

> <Gold.PLP.PLP>
-40.7275

> <Gold.PLP.part.hbond>
-2.5087

> <Gold.PLP.part.metal>
0.0000

> <Gold.PLP.part.buried>
-5.3082

> <Gold.PLP.part.nonpolar>
-34.7389

> <Gold.PLP.part.repulsive>
2.0329

> <Gold.PLP.ligand.clash>
0.0000

> <Gold.PLP.ligand.torsion>
1.2149

> <Gold.PLP.Chemscore.Hbond>
1.1820

> <Gold.PLP.Chemscore.CHOScore>
0.0000

> <Gold.PLP.Chemscore.Metal>
0.0000

> <Gold.Chemscore.Hbonds>
donor molecule, donor type, donor heavy atom, donor atom, acceptor molecule, acceptor atom, score
      P1  H  7989  7998       L1    17  0.86
      P1  H  8022  8030       L1    13  0.29

> <Gold.PLP.Chemscore.Internal.Correction>
0.0443

> <Gold.Rescore>
     Score         DG    S(hbond)    S(metal)    S(lipo)     H(rot)  DE(clash)    DE(int)     intcor
      8.94     -11.82       0.04        0.00      90.29       1.70       0.23       2.66       ----

> <Gold.Chemscore.Fitness>
8.9383

> <Gold.Chemscore.DG>
-11.8241

> <Gold.Chemscore.ZeroCoef>
-5.4800

> <Gold.Chemscore.Hbond>
0.0381

> <Gold.Chemscore.Metal>
0.0000

> <Gold.Chemscore.Lipo>
90.2881

> <Gold.Chemscore.Internal_Hbond>
0.0000

> <Gold.Chemscore.DEClash>
0.2251

> <Gold.Chemscore.DEInternal>
2.6608

> <Gold.Chemscore.Rot>
1.6980

> <Gold.Chemscore.Internal.Correction>
   9.000000E+99

> <Gold.Chemscore.Hbonds>
donor molecule, donor type, donor heavy atom, donor atom, acceptor molecule, acceptor atom, score
      P1  H  7989  7998       L1    17  0.04
      P1  H  8022  8030       L1    13  0.30

> <Gold.Chemscore.Hbond.Weighted>
-0.1273

> <Gold.Chemscore.Metal.Weighted>
-0.0000

> <Gold.Chemscore.Lipo.Weighted>
-10.5637

> <Gold.Chemscore.Internal_Hbond.Weighted>
0.0000

> <Gold.Chemscore.DEClash.Weighted>
0.2251

> <Gold.Chemscore.DEInternal.Weighted>
2.6608

> <Gold.Chemscore.Rot.Weighted>
4.3469

> <Gold.Chemscore.Internal.Correction.Weighted>
   9.000000E+99

> <Gold.Protein.RotatedTorsions>
[ 6907 6896 6895 6894 ] final -118.73 input  -60.11 | X-H torsion
[ 7974 7965 7964 7962 ] final   72.38 input  175.53 | X-H torsion
[ 8008 7997 7996 7995 ] final  -14.40 input   59.86 | X-H torsion
[ 10167 10162 10161 10158 ] final  159.57 input  -65.29 | X-H torsion
[ 10718 10713 10712 10709 ] final  135.95 input   66.30 | X-H torsion
[ 10763 10752 10751 10750 ] final   19.26 input  -60.55 | X-H torsion
[ 11005 11000 10999 10996 ] final   62.09 input  -57.11 | X-H torsion

> <Gold.Protein.ActiveResidues>
 VAL166  LYS551  ARG553  GLY616  TRP617  ASP618  TYR619  PRO620  LYS621  CYS622 
 ASP623  PHE694  ASN695  SER759  ASP760  ASP761  ALA762  ILE779  LEU786  VAL792 
 PHE793  MET794  SER795  GLU796  ALA797  LYS798  CYS799  TRP800  GLU811  SER814 

> <Gold.Protein.RotatedAtoms>
  150.8245  133.8196  159.3124 H   0  0  0  0  0  0  0  0  0  0  0  0  # atno 6907 bound_to 6896
  151.5944  135.1049  160.0056 H   0  0  0  0  0  0  0  0  0  0  0  0  # atno 6908 bound_to 6896
  152.4331  133.7271  159.6623 H   0  0  0  0  0  0  0  0  0  0  0  0  # atno 6909 bound_to 6896
  145.7540  139.2772  143.1414 H   0  0  0  0  0  0  0  0  0  0  0  0  # atno 7974 bound_to 7965
  154.5213  140.2224  155.8970 H   0  0  0  0  0  0  0  0  0  0  0  0  # atno 8008 bound_to 7997
  156.1665  140.3131  155.8863 H   0  0  0  0  0  0  0  0  0  0  0  0  # atno 8009 bound_to 7997
  155.3645  140.0463  157.3037 H   0  0  0  0  0  0  0  0  0  0  0  0  # atno 8010 bound_to 7997
  139.4833  144.4717  151.8567 H   0  0  0  0  0  0  0  0  0  0  0  0  # atno 10167 bound_to 10162
  157.4518  131.1066  151.0024 H   0  0  0  0  0  0  0  0  0  0  0  0  # atno 10718 bound_to 10713
  153.1177  135.6712  153.9389 H   0  0  0  0  0  0  0  0  0  0  0  0  # atno 10763 bound_to 10752
  153.8914  135.3046  155.3449 H   0  0  0  0  0  0  0  0  0  0  0  0  # atno 10764 bound_to 10752
  154.7592  135.4996  153.9510 H   0  0  0  0  0  0  0  0  0  0  0  0  # atno 10765 bound_to 10752
  140.0116  134.6288  155.9772 H   0  0  0  0  0  0  0  0  0  0  0  0  # atno 11005 bound_to 11000
  146.0328  140.8241  142.9867 LP  0  0  0  0  0  0  0  0  0  0  0  0  # atno 17320 bound_to 7965
  144.6844  140.2795  143.7294 LP  0  0  0  0  0  0  0  0  0  0  0  0  # atno 17321 bound_to 7965
  140.4186  144.2273  150.5887 LP  0  0  0  0  0  0  0  0  0  0  0  0  # atno 17342 bound_to 10162
  140.4896  143.2352  151.8838 LP  0  0  0  0  0  0  0  0  0  0  0  0  # atno 17343 bound_to 10162
  157.0852  130.5919  149.5428 LP  0  0  0  0  0  0  0  0  0  0  0  0  # atno 17370 bound_to 10713
  155.9990  130.5065  150.7592 LP  0  0  0  0  0  0  0  0  0  0  0  0  # atno 17371 bound_to 10713
  141.1714  133.6537  156.4667 LP  0  0  0  0  0  0  0  0  0  0  0  0  # atno 17394 bound_to 11000
  140.4545  134.6898  157.5055 LP  0  0  0  0  0  0  0  0  0  0  0  0  # atno 17395 bound_to 11000

$$$$
