AV-unprocessed.smi:1056|AV-procd|sdf|4638|dock8
  -GOLD-   22720 3143D 1   1.00000     0.00000
 Structure written by MMmdl.
 44 46  0  0  0  0  0  0  0  0  1 V2000
  153.2594  142.4019  161.8809 C   0  0  0  0  0  0  0  0  0  0  0  0
  152.6985  142.1649  160.4899 C   0  0  0  0  0  0  0  0  0  0  0  0
  153.0549  140.9857  159.7974 C   0  0  0  0  0  0  0  0  0  0  0  0
  152.5548  140.7268  158.5025 C   0  0  0  0  0  0  0  0  0  0  0  0
  152.7695  139.6547  157.6533 N   0  0  0  0  0  0  0  0  0  0  0  0
  152.0308  139.9948  156.6007 C   0  0  0  0  0  0  0  0  0  0  0  0
  151.3616  141.1618  156.6685 N   0  0  0  0  0  0  0  0  0  0  0  0
  150.4986  141.7401  155.6537 C   0  0  0  0  0  0  0  0  0  0  0  0
  149.5714  140.6951  155.0001 C   0  0  2  0  0  0  0  0  0  0  0  0
  150.2963  140.0360  153.9780 O   0  0  0  0  0  0  0  0  0  0  0  0
  148.3049  141.3401  154.3921 C   0  0  0  0  0  0  0  0  0  0  0  0
  147.3021  140.4013  153.8771 N   0  0  0  0  0  0  0  0  0  0  0  0
  147.0309  139.2826  154.7809 C   0  0  0  0  0  0  0  0  0  0  0  0
  145.8884  138.3937  154.2649 C   0  0  0  0  0  0  0  0  0  0  0  0
  146.0368  138.0758  152.8487 N   0  0  0  0  0  0  0  0  0  0  0  0
  146.8032  138.7671  151.9896 C   0  0  0  0  0  0  0  0  0  0  0  0
  146.8494  138.4853  150.7944 O   0  0  0  0  0  0  0  0  0  0  0  0
  147.6668  139.9207  152.5349 C   0  0  0  0  0  0  0  0  0  0  0  0
  151.6800  141.6871  157.9155 C   0  0  0  0  0  0  0  0  0  0  0  0
  151.3169  142.8636  158.5944 C   0  0  0  0  0  0  0  0  0  0  0  0
  151.8262  143.1070  159.8872 C   0  0  0  0  0  0  0  0  0  0  0  0
  151.4281  144.3800  160.6125 C   0  0  0  0  0  0  0  0  0  0  0  0
  153.9495  141.6094  162.1723 H   0  0  0  0  0  0  0  0  0  0  0  0
  152.4544  142.4324  162.6157 H   0  0  0  0  0  0  0  0  0  0  0  0
  153.8013  143.3469  161.9209 H   0  0  0  0  0  0  0  0  0  0  0  0
  153.7177  140.2672  160.2566 H   0  0  0  0  0  0  0  0  0  0  0  0
  151.9695  139.3575  155.7306 H   0  0  0  0  0  0  0  0  0  0  0  0
  149.9084  142.5268  156.1251 H   0  0  0  0  0  0  0  0  0  0  0  0
  151.1199  142.2257  154.8993 H   0  0  0  0  0  0  0  0  0  0  0  0
  149.2850  139.9622  155.7561 H   0  0  0  0  0  0  0  0  0  0  0  0
  149.7776  140.0470  153.1883 H   0  0  0  0  0  0  0  0  0  0  0  0
  147.8277  141.9222  155.1823 H   0  0  0  0  0  0  0  0  0  0  0  0
  148.5759  142.0718  153.6282 H   0  0  0  0  0  0  0  0  0  0  0  0
  147.9349  138.6842  154.9085 H   0  0  0  0  0  0  0  0  0  0  0  0
  146.7537  139.6420  155.7710 H   0  0  0  0  0  0  0  0  0  0  0  0
  145.8352  137.4690  154.8401 H   0  0  0  0  0  0  0  0  0  0  0  0
  144.9335  138.9042  154.3961 H   0  0  0  0  0  0  0  0  0  0  0  0
  145.4903  137.3073  152.4877 H   0  0  0  0  0  0  0  0  0  0  0  0
  147.6296  140.7484  151.8251 H   0  0  0  0  0  0  0  0  0  0  0  0
  148.6977  139.5626  152.5391 H   0  0  0  0  0  0  0  0  0  0  0  0
  150.6510  143.5715  158.1235 H   0  0  0  0  0  0  0  0  0  0  0  0
  150.7369  144.9775  160.0174 H   0  0  0  0  0  0  0  0  0  0  0  0
  152.3063  144.9921  160.8196 H   0  0  0  0  0  0  0  0  0  0  0  0
  150.9378  144.1445  161.5574 H   0  0  0  0  0  0  0  0  0  0  0  0
  1  2  1  0  0  0  0
  1 23  1  0  0  0  0
  1 24  1  0  0  0  0
  1 25  1  0  0  0  0
  2 21  1  0  0  0  0
  2  3  2  0  0  0  0
  3  4  1  0  0  0  0
  3 26  1  0  0  0  0
  4 19  2  0  0  0  0
  4  5  1  0  0  0  0
  5  6  2  0  0  0  0
  6  7  1  0  0  0  0
  6 27  1  0  0  0  0
  7  8  1  0  0  0  0
  7 19  1  0  0  0  0
  8  9  1  0  0  0  0
  8 28  1  0  0  0  0
  8 29  1  0  0  0  0
  9 10  1  0  0  0  0
  9 11  1  0  0  0  0
  9 30  1  0  0  0  0
 10 31  1  0  0  0  0
 11 12  1  0  0  0  0
 11 32  1  0  0  0  0
 11 33  1  0  0  0  0
 12 18  1  0  0  0  0
 12 13  1  0  0  0  0
 13 14  1  0  0  0  0
 13 34  1  0  0  0  0
 13 35  1  0  0  0  0
 14 15  1  0  0  0  0
 14 36  1  0  0  0  0
 14 37  1  0  0  0  0
 15 16  1  0  0  0  0
 15 38  1  0  0  0  0
 16 17  2  0  0  0  0
 16 18  1  0  0  0  0
 18 39  1  0  0  0  0
 18 40  1  0  0  0  0
 19 20  1  0  0  0  0
 20 21  2  0  0  0  0
 20 41  1  0  0  0  0
 21 22  1  0  0  0  0
 22 42  1  0  0  0  0
 22 43  1  0  0  0  0
 22 44  1  0  0  0  0
M  END
> <s_m_source_file>
AV-unprocessed.smi

> <i_m_source_file_index>
1056

> <i_lp_mmshare_version>
43012

> <i_f3d_flags>
0

> <s_epik_input>
W0NIM11jKFtjSF0xKWMoW0NIM10pW2NIXWMoYzEyKW4oW2NIXW4yKVtDSDJdW0NASF0oW09IXSlbQ0gyXU4zW0NIMl1bQ0gyXVtOSF1DKD1PKVtDSDJdMw==

> <s_epik_cmdline>
J2VwaWtfcHl0aG9uJywgJy1waCcsICc3LjAnLCAnLXRuJywgJzgnLCAnLW1hJywgJzIwMCcsICctbWV0YWxfYmluZGluZycsICctaW1hZScsICc8aW5maWxlLm1hZT4nLCAnLW9tYWUnLCAnPG91dGZpbGUubWFlPic=

> <r_epik_Ionization_Penalty>
1.40166

> <r_epik_Ionization_Penalty_Charging>
0

> <r_epik_Ionization_Penalty_Neutral>
1.40166

> <r_epik_State_Penalty>
1.44226

> <r_epik_Charging_Adjusted_Penalty>
1.44226

> <i_epik_Tot_Q>
0

> <i_epik_Tot_abs_Q>
0

> <r_epik_Metal_State_Penalty>
1.50267

> <b_epik_Metal_Only>
0

> <s_lp_Force_Field>
OPLS_2005

> <r_lp_Energy>
30.6142

> <b_lp_Chiralities_Consistent>
1

> <s_lp_Variant>
AV-unprocessed.smi:1056-9

> <Gold.Version>
5.8.1

> <Gold.Id.Protein>
6NUR|6NUR_protein|mol2

> <Gold.PLP.Fitness>
53.8696

> <Gold.PLP.PLP>
-43.3731

> <Gold.PLP.part.hbond>
-4.0000

> <Gold.PLP.part.metal>
0.0000

> <Gold.PLP.part.buried>
-1.1063

> <Gold.PLP.part.nonpolar>
-38.2116

> <Gold.PLP.part.repulsive>
0.7331

> <Gold.PLP.ligand.clash>
0.0000

> <Gold.PLP.ligand.torsion>
0.6552

> <Gold.PLP.Chemscore.Hbond>
3.9188

> <Gold.PLP.Chemscore.CHOScore>
0.0000

> <Gold.PLP.Chemscore.Metal>
0.0000

> <Gold.Chemscore.Hbonds>
donor molecule, donor type, donor heavy atom, donor atom, acceptor molecule, acceptor atom, score
      L1  H    10    31       P1  7957  0.99
      P1  H  7954  7966       L1    17  0.98
      P1  H  7989  7998       L1    10  0.99
      P1  H  7997  8009       L1     5  1.00

> <Gold.PLP.Chemscore.Internal.Correction>
0.0504

> <Gold.Rescore>
     Score         DG    S(hbond)    S(metal)    S(lipo)     H(rot)  DE(clash)    DE(int)     intcor
     19.34     -22.52       2.88        0.00     113.92       2.31       2.38       0.80       ----

> <Gold.Chemscore.Fitness>
19.3396

> <Gold.Chemscore.DG>
-22.5165

> <Gold.Chemscore.ZeroCoef>
-5.4800

> <Gold.Chemscore.Hbond>
2.8843

> <Gold.Chemscore.Metal>
0.0000

> <Gold.Chemscore.Lipo>
113.9181

> <Gold.Chemscore.Internal_Hbond>
0.0000

> <Gold.Chemscore.DEClash>
2.3798

> <Gold.Chemscore.DEInternal>
0.7971

> <Gold.Chemscore.Rot>
2.3147

> <Gold.Chemscore.Internal.Correction>
   9.000000E+99

> <Gold.Chemscore.Hbonds>
donor molecule, donor type, donor heavy atom, donor atom, acceptor molecule, acceptor atom, score
      L1  H    10    31       P1  7957  0.88
      P1  H  7954  7966       L1    17  0.92
      P1  H  7989  7998       L1    10  0.20
      P1  H  7997  8009       L1     5  0.09

> <Gold.Chemscore.Hbond.Weighted>
-9.6336

> <Gold.Chemscore.Metal.Weighted>
-0.0000

> <Gold.Chemscore.Lipo.Weighted>
-13.3284

> <Gold.Chemscore.Internal_Hbond.Weighted>
0.0000

> <Gold.Chemscore.DEClash.Weighted>
2.3798

> <Gold.Chemscore.DEInternal.Weighted>
0.7971

> <Gold.Chemscore.Rot.Weighted>
5.9256

> <Gold.Chemscore.Internal.Correction.Weighted>
   9.000000E+99

> <Gold.Protein.RotatedTorsions>
[ 6907 6896 6895 6894 ] final -120.19 input  -60.11 | X-H torsion
[ 7974 7965 7964 7962 ] final  -48.82 input  175.53 | X-H torsion
[ 8008 7997 7996 7995 ] final  150.34 input   59.86 | X-H torsion
[ 10167 10162 10161 10158 ] final -150.09 input  -65.29 | X-H torsion
[ 10718 10713 10712 10709 ] final  -96.94 input   66.30 | X-H torsion
[ 10763 10752 10751 10750 ] final  173.35 input  -60.55 | X-H torsion
[ 11005 11000 10999 10996 ] final -160.27 input  -57.11 | X-H torsion

> <Gold.Protein.ActiveResidues>
 VAL166  LYS551  ARG553  GLY616  TRP617  ASP618  TYR619  PRO620  LYS621  CYS622 
 ASP623  PHE694  ASN695  SER759  ASP760  ASP761  ALA762  ILE779  LEU786  VAL792 
 PHE793  MET794  SER795  GLU796  ALA797  LYS798  CYS799  TRP800  GLU811  SER814 

> <Gold.Protein.RotatedAtoms>
  150.8371  133.7996  159.3075 H   0  0  0  0  0  0  0  0  0  0  0  0  # atno 6907 bound_to 6896
  151.5708  135.1061  160.0004 H   0  0  0  0  0  0  0  0  0  0  0  0  # atno 6908 bound_to 6896
  152.4441  133.7462  159.6724 H   0  0  0  0  0  0  0  0  0  0  0  0  # atno 6909 bound_to 6896
  145.9471  140.7608  142.9523 H   0  0  0  0  0  0  0  0  0  0  0  0  # atno 7974 bound_to 7965
  156.2719  140.2077  156.6002 H   0  0  0  0  0  0  0  0  0  0  0  0  # atno 8008 bound_to 7997
  154.6912  140.0530  157.0389 H   0  0  0  0  0  0  0  0  0  0  0  0  # atno 8009 bound_to 7997
  155.0863  140.3192  155.4589 H   0  0  0  0  0  0  0  0  0  0  0  0  # atno 8010 bound_to 7997
  139.7385  143.8698  152.2556 H   0  0  0  0  0  0  0  0  0  0  0  0  # atno 10167 bound_to 10162
  156.0073  130.5173  150.6301 H   0  0  0  0  0  0  0  0  0  0  0  0  # atno 10718 bound_to 10713
  154.4388  135.2761  155.1862 H   0  0  0  0  0  0  0  0  0  0  0  0  # atno 10763 bound_to 10752
  154.3737  135.6103  153.5757 H   0  0  0  0  0  0  0  0  0  0  0  0  # atno 10764 bound_to 10752
  152.9840  135.5863  154.4712 H   0  0  0  0  0  0  0  0  0  0  0  0  # atno 10765 bound_to 10752
  140.6333  134.4628  157.5230 H   0  0  0  0  0  0  0  0  0  0  0  0  # atno 11005 bound_to 11000
  144.6789  140.2374  143.7348 LP  0  0  0  0  0  0  0  0  0  0  0  0  # atno 17320 bound_to 7965
  145.8222  139.2048  143.1931 LP  0  0  0  0  0  0  0  0  0  0  0  0  # atno 17321 bound_to 7965
  139.8642  144.7102  150.9064 LP  0  0  0  0  0  0  0  0  0  0  0  0  # atno 17342 bound_to 10162
  140.7782  143.3792  151.1507 LP  0  0  0  0  0  0  0  0  0  0  0  0  # atno 17343 bound_to 10162
  157.4101  131.0822  151.1229 LP  0  0  0  0  0  0  0  0  0  0  0  0  # atno 17370 bound_to 10713
  157.1863  130.6332  149.5689 LP  0  0  0  0  0  0  0  0  0  0  0  0  # atno 17371 bound_to 10713
  139.9108  134.8350  156.1537 LP  0  0  0  0  0  0  0  0  0  0  0  0  # atno 17394 bound_to 11000
  141.0659  133.6819  156.2044 LP  0  0  0  0  0  0  0  0  0  0  0  0  # atno 17395 bound_to 11000

$$$$
