AV-unprocessed.smi:1433|AV-procd|sdf|5836|dock5
  -GOLD-   22720 5493D 1   1.00000     0.00000
 Structure written by MMmdl.
 44 45  0  0  0  0  0  0  0  0  1 V2000
  152.1086  144.7815  158.9263 C   0  0  0  0  0  0  0  0  0  0  0  0
  151.8480  143.3385  159.3707 C   0  0  1  0  0  0  0  0  0  0  0  0
  151.4391  142.4317  158.1943 C   0  0  0  0  0  0  0  0  0  0  0  0
  151.2573  141.0303  158.5880 N   0  0  0  0  0  0  0  0  0  0  0  0
  150.8805  140.1640  157.4465 C   0  0  2  0  0  0  0  0  0  0  0  0
  149.5498  140.5983  156.7782 C   0  0  0  0  0  0  0  0  0  0  0  0
  150.7857  138.6594  157.8224 C   0  0  0  0  0  0  0  0  0  0  0  0
  149.4415  138.2804  158.2394 N   0  0  0  0  0  0  0  0  0  0  0  0
  149.1294  137.1658  158.9166 C   0  0  0  0  0  0  0  0  0  0  0  0
  149.9526  136.3033  159.2210 O   0  0  0  0  0  0  0  0  0  0  0  0
  147.6612  136.9993  159.3127 C   0  0  0  0  0  0  0  0  0  0  0  0
  147.5354  136.5033  160.6727 N   0  0  0  0  0  0  0  0  0  0  0  0
  147.2557  135.2196  161.0933 C   0  0  0  0  0  0  0  0  0  0  0  0
  147.2529  135.2308  162.4586 C   0  0  0  0  0  0  0  0  0  0  0  0
  147.5465  136.5839  162.7864 C   0  0  0  0  0  0  0  0  0  0  0  0
  147.7146  137.3435  161.7160 N   0  0  0  0  0  0  0  0  0  0  0  0
  152.4856  140.5871  159.2563 C   0  0  0  0  0  0  0  0  0  0  0  0
  152.8932  141.4985  160.4298 C   0  0  1  0  0  0  0  0  0  0  0  0
  154.2188  141.0661  161.0655 C   0  0  0  0  0  0  0  0  0  0  0  0
  153.0398  142.8314  159.9574 O   0  0  0  0  0  0  0  0  0  0  0  0
  151.2171  145.2218  158.4787 H   0  0  0  0  0  0  0  0  0  0  0  0
  152.9114  144.8294  158.1900 H   0  0  0  0  0  0  0  0  0  0  0  0
  152.3964  145.4037  159.7740 H   0  0  0  0  0  0  0  0  0  0  0  0
  151.0558  143.3424  160.1216 H   0  0  0  0  0  0  0  0  0  0  0  0
  150.5145  142.8367  157.7873 H   0  0  0  0  0  0  0  0  0  0  0  0
  152.1893  142.4979  157.4046 H   0  0  0  0  0  0  0  0  0  0  0  0
  151.6598  140.2522  156.6875 H   0  0  0  0  0  0  0  0  0  0  0  0
  149.2467  139.9306  155.9723 H   0  0  0  0  0  0  0  0  0  0  0  0
  149.6211  141.5815  156.3152 H   0  0  0  0  0  0  0  0  0  0  0  0
  148.7356  140.6245  157.5032 H   0  0  0  0  0  0  0  0  0  0  0  0
  151.0212  138.0157  156.9765 H   0  0  0  0  0  0  0  0  0  0  0  0
  151.5035  138.4307  158.6121 H   0  0  0  0  0  0  0  0  0  0  0  0
  148.6979  138.9318  158.0323 H   0  0  0  0  0  0  0  0  0  0  0  0
  147.1416  137.9545  159.2210 H   0  0  0  0  0  0  0  0  0  0  0  0
  147.1679  136.2985  158.6379 H   0  0  0  0  0  0  0  0  0  0  0  0
  147.0866  134.4149  160.3927 H   0  0  0  0  0  0  0  0  0  0  0  0
  147.0698  134.3983  163.1216 H   0  0  0  0  0  0  0  0  0  0  0  0
  147.6418  137.0336  163.7636 H   0  0  0  0  0  0  0  0  0  0  0  0
  152.3602  139.5866  159.6648 H   0  0  0  0  0  0  0  0  0  0  0  0
  153.3006  140.5356  158.5328 H   0  0  0  0  0  0  0  0  0  0  0  0
  152.1157  141.4768  161.1955 H   0  0  0  0  0  0  0  0  0  0  0  0
  154.1546  140.0497  161.4546 H   0  0  0  0  0  0  0  0  0  0  0  0
  154.4857  141.7225  161.8944 H   0  0  0  0  0  0  0  0  0  0  0  0
  155.0328  141.0971  160.3407 H   0  0  0  0  0  0  0  0  0  0  0  0
  1  2  1  0  0  0  0
  1 21  1  0  0  0  0
  1 22  1  0  0  0  0
  1 23  1  0  0  0  0
  2 20  1  0  0  0  0
  2  3  1  0  0  0  0
  2 24  1  0  0  0  0
  3  4  1  0  0  0  0
  3 25  1  0  0  0  0
  3 26  1  0  0  0  0
  4  5  1  0  0  0  0
  4 17  1  0  0  0  0
  5  6  1  0  0  0  0
  5  7  1  0  0  0  0
  5 27  1  0  0  0  0
  6 28  1  0  0  0  0
  6 29  1  0  0  0  0
  6 30  1  0  0  0  0
  7  8  1  0  0  0  0
  7 31  1  0  0  0  0
  7 32  1  0  0  0  0
  8  9  1  0  0  0  0
  8 33  1  0  0  0  0
  9 10  2  0  0  0  0
  9 11  1  0  0  0  0
 11 12  1  0  0  0  0
 11 34  1  0  0  0  0
 11 35  1  0  0  0  0
 12 16  1  0  0  0  0
 12 13  1  0  0  0  0
 13 14  2  0  0  0  0
 13 36  1  0  0  0  0
 14 15  1  0  0  0  0
 14 37  1  0  0  0  0
 15 16  2  0  0  0  0
 15 38  1  0  0  0  0
 17 18  1  0  0  0  0
 17 39  1  0  0  0  0
 17 40  1  0  0  0  0
 18 19  1  0  0  0  0
 18 20  1  0  0  0  0
 18 41  1  0  0  0  0
 19 42  1  0  0  0  0
 19 43  1  0  0  0  0
 19 44  1  0  0  0  0
M  END
> <s_m_source_file>
AV-unprocessed.smi

> <i_m_source_file_index>
1433

> <i_lp_mmshare_version>
43012

> <i_f3d_flags>
0

> <s_epik_input>
W0NIM11bQ0BASF0xW0NIMl1OKFtDSDJdW0NASF0oTzEpW0NIM10pW0NASF0oW0NIM10pW0NIMl1bTkhdQyg9TylbQ0gyXW4yW2NIXVtjSF1bY0hdbjI=

> <s_epik_cmdline>
J2VwaWtfcHl0aG9uJywgJy1waCcsICc3LjAnLCAnLXRuJywgJzgnLCAnLW1hJywgJzIwMCcsICctbWV0YWxfYmluZGluZycsICctaW1hZScsICc8aW5maWxlLm1hZT4nLCAnLW9tYWUnLCAnPG91dGZpbGUubWFlPic=

> <r_lp_tautomer_probability>
1

> <r_epik_Ionization_Penalty>
0.196927

> <r_epik_Ionization_Penalty_Charging>
0

> <r_epik_Ionization_Penalty_Neutral>
0.196927

> <r_epik_State_Penalty>
0.186684

> <r_epik_Charging_Adjusted_Penalty>
0.186684

> <i_epik_Tot_Q>
0

> <i_epik_Tot_abs_Q>
0

> <r_epik_Metal_State_Penalty>
0.186682

> <b_epik_Metal_Only>
0

> <s_lp_Force_Field>
OPLS_2005

> <r_lp_Energy>
26.9477

> <b_lp_Chiralities_Consistent>
1

> <s_lp_Variant>
AV-unprocessed.smi:1433-2

> <Gold.Version>
5.8.1

> <Gold.Id.Protein>
6NUR|6NUR_protein|mol2

> <Gold.PLP.Fitness>
48.6405

> <Gold.PLP.PLP>
-42.8603

> <Gold.PLP.part.hbond>
-2.8953

> <Gold.PLP.part.metal>
0.0000

> <Gold.PLP.part.buried>
-5.6164

> <Gold.PLP.part.nonpolar>
-34.2893

> <Gold.PLP.part.repulsive>
0.1336

> <Gold.PLP.ligand.clash>
0.2817

> <Gold.PLP.ligand.torsion>
0.9415

> <Gold.PLP.Chemscore.Hbond>
2.6344

> <Gold.PLP.Chemscore.CHOScore>
0.0000

> <Gold.PLP.Chemscore.Metal>
0.0000

> <Gold.Chemscore.Hbonds>
donor molecule, donor type, donor heavy atom, donor atom, acceptor molecule, acceptor atom, score
      P1  H  6896  6907       L1    10  1.00
      P1  H  6931  6943       L1    16  0.94
      P1  H  6934  6947       L1    16  0.66

> <Gold.PLP.Chemscore.Internal.Correction>
0.0417

> <Gold.Rescore>
     Score         DG    S(hbond)    S(metal)    S(lipo)     H(rot)  DE(clash)    DE(int)     intcor
     19.48     -20.39       2.44        0.00      97.31       1.80       0.00       0.90       ----

> <Gold.Chemscore.Fitness>
19.4833

> <Gold.Chemscore.DG>
-20.3857

> <Gold.Chemscore.ZeroCoef>
-5.4800

> <Gold.Chemscore.Hbond>
2.4367

> <Gold.Chemscore.Metal>
0.0000

> <Gold.Chemscore.Lipo>
97.3062

> <Gold.Chemscore.Internal_Hbond>
0.0000

> <Gold.Chemscore.DEClash>
0.0000

> <Gold.Chemscore.DEInternal>
0.9024

> <Gold.Chemscore.Rot>
1.8038

> <Gold.Chemscore.Internal.Correction>
   9.000000E+99

> <Gold.Chemscore.Hbonds>
donor molecule, donor type, donor heavy atom, donor atom, acceptor molecule, acceptor atom, score
      P1  H  6896  6907       L1    10  1.00
      P1  H  6931  6943       L1    16  0.63
      P1  H  6934  6947       L1    16  0.23

> <Gold.Chemscore.Hbond.Weighted>
-8.1386

> <Gold.Chemscore.Metal.Weighted>
-0.0000

> <Gold.Chemscore.Lipo.Weighted>
-11.3848

> <Gold.Chemscore.Internal_Hbond.Weighted>
0.0000

> <Gold.Chemscore.DEClash.Weighted>
0.0000

> <Gold.Chemscore.DEInternal.Weighted>
0.9024

> <Gold.Chemscore.Rot.Weighted>
4.6178

> <Gold.Chemscore.Internal.Correction.Weighted>
   9.000000E+99

> <Gold.Protein.RotatedTorsions>
[ 6907 6896 6895 6894 ] final  -53.27 input  -60.11 | X-H torsion
[ 7974 7965 7964 7962 ] final -154.86 input  175.53 | X-H torsion
[ 8008 7997 7996 7995 ] final -174.68 input   59.86 | X-H torsion
[ 10167 10162 10161 10158 ] final  -91.79 input  -65.29 | X-H torsion
[ 10718 10713 10712 10709 ] final   72.02 input   66.30 | X-H torsion
[ 10763 10752 10751 10750 ] final -137.83 input  -60.55 | X-H torsion
[ 11005 11000 10999 10996 ] final   73.27 input  -57.11 | X-H torsion

> <Gold.Protein.ActiveResidues>
 VAL166  LYS551  ARG553  GLY616  TRP617  ASP618  TYR619  PRO620  LYS621  CYS622 
 ASP623  PHE694  ASN695  SER759  ASP760  ASP761  ALA762  ILE779  LEU786  VAL792 
 PHE793  MET794  SER795  GLU796  ALA797  LYS798  CYS799  TRP800  GLU811  SER814 

> <Gold.Protein.RotatedAtoms>
  150.8442  134.7745  159.6956 H   0  0  0  0  0  0  0  0  0  0  0  0  # atno 6907 bound_to 6896
  152.4523  134.5364  159.9836 H   0  0  0  0  0  0  0  0  0  0  0  0  # atno 6908 bound_to 6896
  151.5498  133.3381  159.2986 H   0  0  0  0  0  0  0  0  0  0  0  0  # atno 6909 bound_to 6896
  144.7668  140.4330  143.5936 H   0  0  0  0  0  0  0  0  0  0  0  0  # atno 7974 bound_to 7965
  155.9731  140.1167  157.0794 H   0  0  0  0  0  0  0  0  0  0  0  0  # atno 8008 bound_to 7997
  154.4162  140.1159  156.5401 H   0  0  0  0  0  0  0  0  0  0  0  0  # atno 8009 bound_to 7997
  155.6570  140.3473  155.4771 H   0  0  0  0  0  0  0  0  0  0  0  0  # atno 8010 bound_to 7997
  140.3413  143.2940  151.9832 H   0  0  0  0  0  0  0  0  0  0  0  0  # atno 10167 bound_to 10162
  157.6481  130.9558  150.0871 H   0  0  0  0  0  0  0  0  0  0  0  0  # atno 10718 bound_to 10713
  154.8652  135.3630  154.5286 H   0  0  0  0  0  0  0  0  0  0  0  0  # atno 10763 bound_to 10752
  153.5913  135.7015  153.5427 H   0  0  0  0  0  0  0  0  0  0  0  0  # atno 10764 bound_to 10752
  153.3371  135.4108  155.1504 H   0  0  0  0  0  0  0  0  0  0  0  0  # atno 10765 bound_to 10752
  139.9448  134.7332  156.1006 H   0  0  0  0  0  0  0  0  0  0  0  0  # atno 11005 bound_to 11000
  145.6444  139.1555  143.2897 LP  0  0  0  0  0  0  0  0  0  0  0  0  # atno 17320 bound_to 7965
  146.1783  140.6538  142.9201 LP  0  0  0  0  0  0  0  0  0  0  0  0  # atno 17321 bound_to 7965
  139.4840  144.6154  151.7356 LP  0  0  0  0  0  0  0  0  0  0  0  0  # atno 17342 bound_to 10162
  140.5306  144.0736  150.6052 LP  0  0  0  0  0  0  0  0  0  0  0  0  # atno 17343 bound_to 10162
  156.1830  130.3651  149.9009 LP  0  0  0  0  0  0  0  0  0  0  0  0  # atno 17370 bound_to 10713
  156.6957  130.8913  151.3593 LP  0  0  0  0  0  0  0  0  0  0  0  0  # atno 17371 bound_to 10713
  141.1095  133.6648  156.2945 LP  0  0  0  0  0  0  0  0  0  0  0  0  # atno 17394 bound_to 11000
  140.5861  134.5697  157.5490 LP  0  0  0  0  0  0  0  0  0  0  0  0  # atno 17395 bound_to 11000

$$$$
