AV-unprocessed.smi:1487|AV-procd|sdf|6022|dock1
  -GOLD-   22720 6123D 1   1.00000     0.00000
 Structure written by MMmdl.
 49 51  0  0  0  0  0  0  0  0  3 V2000
  152.1376  143.4352  160.7603 C   0  0  0  0  0  0  0  0  0  0  0  0
  151.9710  142.5376  159.5460 C   0  0  0  0  0  0  0  0  0  0  0  0
  151.0555  142.9250  158.5419 C   0  0  0  0  0  0  0  0  0  0  0  0
  150.9253  142.0840  157.4432 C   0  0  0  0  0  0  0  0  0  0  0  0
  150.1223  142.1850  156.3056 N   0  3  0  0  0  0  0  0  0  0  0  0
  150.3399  141.1105  155.4982 C   0  0  0  0  0  0  0  0  0  0  0  0
  151.2739  140.3251  156.1013 N   0  0  0  0  0  0  0  0  0  0  0  0
  151.8557  139.0491  155.6576 C   0  0  0  0  0  0  0  0  0  0  0  0
  150.9739  138.3076  154.6332 C   0  0  1  0  0  0  0  0  0  0  0  0
  151.6857  137.2066  154.1022 O   0  0  0  0  0  0  0  0  0  0  0  0
  149.6732  137.7856  155.2762 C   0  0  0  0  0  0  0  0  0  0  0  0
  148.5483  137.7073  154.3088 N   0  3  2  0  0  0  0  0  0  0  0  0
  148.1206  139.0369  153.7955 C   0  0  0  0  0  0  0  0  0  0  0  0
  147.0471  138.8931  152.7034 C   0  0  0  0  0  0  0  0  0  0  0  0
  145.8411  138.0984  153.2202 C   0  0  0  0  0  0  0  0  0  0  0  0
  146.3091  136.7431  153.7698 C   0  0  2  0  0  0  0  0  0  0  0  0
  145.2107  136.0580  154.3326 O   0  0  0  0  0  0  0  0  0  0  0  0
  147.3980  136.9317  154.8423 C   0  0  0  0  0  0  0  0  0  0  0  0
  151.6666  140.8925  157.3206 C   0  0  0  0  0  0  0  0  0  0  0  0
  152.5738  140.4968  158.3012 C   0  0  0  0  0  0  0  0  0  0  0  0
  152.7196  141.3381  159.4276 C   0  0  0  0  0  0  0  0  0  0  0  0
  153.7005  140.9310  160.5139 C   0  0  0  0  0  0  0  0  0  0  0  0
  151.5410  144.3435  160.6696 H   0  0  0  0  0  0  0  0  0  0  0  0
  153.1795  143.7336  160.8783 H   0  0  0  0  0  0  0  0  0  0  0  0
  151.8202  142.9161  161.6651 H   0  0  0  0  0  0  0  0  0  0  0  0
  150.4820  143.8367  158.6261 H   0  0  0  0  0  0  0  0  0  0  0  0
  149.8560  140.9169  154.5516 H   0  0  0  0  0  0  0  0  0  0  0  0
  152.8574  139.2264  155.2657 H   0  0  0  0  0  0  0  0  0  0  0  0
  151.9848  138.4323  156.5478 H   0  0  0  0  0  0  0  0  0  0  0  0
  150.7487  138.9908  153.8148 H   0  0  0  0  0  0  0  0  0  0  0  0
  151.2944  136.9665  153.2755 H   0  0  0  0  0  0  0  0  0  0  0  0
  149.8716  136.7975  155.6953 H   0  0  0  0  0  0  0  0  0  0  0  0
  149.3800  138.4156  156.1173 H   0  0  0  0  0  0  0  0  0  0  0  0
  147.7344  139.6385  154.6200 H   0  0  0  0  0  0  0  0  0  0  0  0
  148.9712  139.5786  153.3839 H   0  0  0  0  0  0  0  0  0  0  0  0
  146.7246  139.8783  152.3655 H   0  0  0  0  0  0  0  0  0  0  0  0
  147.4733  138.3914  151.8334 H   0  0  0  0  0  0  0  0  0  0  0  0
  145.3380  138.6670  154.0039 H   0  0  0  0  0  0  0  0  0  0  0  0
  145.1145  137.9559  152.4192 H   0  0  0  0  0  0  0  0  0  0  0  0
  146.7036  136.1355  152.9540 H   0  0  0  0  0  0  0  0  0  0  0  0
  144.9578  136.4955  155.1317 H   0  0  0  0  0  0  0  0  0  0  0  0
  147.7414  135.9529  155.1805 H   0  0  0  0  0  0  0  0  0  0  0  0
  146.9903  137.4454  155.7150 H   0  0  0  0  0  0  0  0  0  0  0  0
  153.1493  139.5873  158.2119 H   0  0  0  0  0  0  0  0  0  0  0  0
  154.1577  139.9650  160.2974 H   0  0  0  0  0  0  0  0  0  0  0  0
  153.1959  140.8504  161.4770 H   0  0  0  0  0  0  0  0  0  0  0  0
  154.5000  141.6669  160.6011 H   0  0  0  0  0  0  0  0  0  0  0  0
  148.8951  137.1807  153.5194 H   0  0  0  0  0  0  0  0  0  0  0  0
  149.4702  142.9303  156.0953 H   0  0  0  0  0  0  0  0  0  0  0  0
  1  2  1  0  0  0  0
  1 23  1  0  0  0  0
  1 24  1  0  0  0  0
  1 25  1  0  0  0  0
  2 21  1  0  0  0  0
  2  3  2  0  0  0  0
  3  4  1  0  0  0  0
  3 26  1  0  0  0  0
  4 19  2  0  0  0  0
  4  5  1  0  0  0  0
  5  6  2  0  0  0  0
  5 49  1  0  0  0  0
  6  7  1  0  0  0  0
  6 27  1  0  0  0  0
  7  8  1  0  0  0  0
  7 19  1  0  0  0  0
  8  9  1  0  0  0  0
  8 28  1  0  0  0  0
  8 29  1  0  0  0  0
  9 10  1  0  0  0  0
  9 11  1  0  0  0  0
  9 30  1  0  0  0  0
 10 31  1  0  0  0  0
 11 12  1  0  0  0  0
 11 32  1  0  0  0  0
 11 33  1  0  0  0  0
 12 18  1  0  0  0  0
 12 13  1  0  0  0  0
 12 48  1  0  0  0  0
 13 14  1  0  0  0  0
 13 34  1  0  0  0  0
 13 35  1  0  0  0  0
 14 15  1  0  0  0  0
 14 36  1  0  0  0  0
 14 37  1  0  0  0  0
 15 16  1  0  0  0  0
 15 38  1  0  0  0  0
 15 39  1  0  0  0  0
 16 17  1  0  0  0  0
 16 18  1  0  0  0  0
 16 40  1  0  0  0  0
 17 41  1  0  0  0  0
 18 42  1  0  0  0  0
 18 43  1  0  0  0  0
 19 20  1  0  0  0  0
 20 21  2  0  0  0  0
 20 44  1  0  0  0  0
 21 22  1  0  0  0  0
 22 45  1  0  0  0  0
 22 46  1  0  0  0  0
 22 47  1  0  0  0  0
M  CHG  1   5   1
M  CHG  1  12   1
M  END
> <s_m_source_file>
AV-unprocessed.smi

> <i_m_source_file_index>
1487

> <i_lp_mmshare_version>
43012

> <i_f3d_flags>
0

> <s_epik_input>
W0NIM11jKFtjSF0xKWMoW0NIM10pW2NIXWMoYzEyKW4oW2NIXW4yKVtDSDJdW0NASF0oW09IXSlbQ0gyXU4zW0NIMl1bQ0gyXVtDSDJdW0NAQEhdKFtPSF0pW0NIMl0z

> <s_epik_cmdline>
J2VwaWtfcHl0aG9uJywgJy1waCcsICc3LjAnLCAnLXRuJywgJzgnLCAnLW1hJywgJzIwMCcsICctbWV0YWxfYmluZGluZycsICctaW1hZScsICc8aW5maWxlLm1hZT4nLCAnLW9tYWUnLCAnPG91dGZpbGUubWFlPic=

> <r_epik_Ionization_Penalty>
1.1857

> <r_epik_Ionization_Penalty_Charging>
1.1857

> <r_epik_Ionization_Penalty_Neutral>
1.75578e-06

> <r_epik_State_Penalty>
1.26953

> <r_epik_Charging_Adjusted_Penalty>
2.45524

> <i_epik_Tot_Q>
2

> <i_epik_Tot_abs_Q>
2

> <r_epik_Metal_State_Penalty>
5.28243

> <b_epik_Metal_Only>
0

> <s_lp_Force_Field>
OPLS_2005

> <r_lp_Energy>
30.804

> <b_lp_Chiralities_Consistent>
1

> <s_lp_Variant>
AV-unprocessed.smi:1487-16

> <Gold.Version>
5.8.1

> <Gold.Id.Protein>
6NUR|6NUR_protein|mol2

> <Gold.PLP.Fitness>
58.5351

> <Gold.PLP.PLP>
-41.9557

> <Gold.PLP.part.hbond>
-4.0000

> <Gold.PLP.part.metal>
0.0000

> <Gold.PLP.part.buried>
-3.1713

> <Gold.PLP.part.nonpolar>
-34.7611

> <Gold.PLP.part.repulsive>
0.0869

> <Gold.PLP.ligand.clash>
0.0000

> <Gold.PLP.ligand.torsion>
0.7466

> <Gold.PLP.Chemscore.Hbond>
5.9913

> <Gold.PLP.Chemscore.CHOScore>
0.0000

> <Gold.PLP.Chemscore.Metal>
0.0000

> <Gold.Chemscore.Hbonds>
donor molecule, donor type, donor heavy atom, donor atom, acceptor molecule, acceptor atom, score
      L1  H     5    49       P1  8028  2.00
      L1  H    10    31       P1  7949  0.98
      L1  H    12    48       P1  7948  2.00
      P1  H 10752 10765       L1    10  1.00

> <Gold.PLP.Chemscore.Internal.Correction>
0.0989

> <Gold.Rescore>
     Score         DG    S(hbond)    S(metal)    S(lipo)     H(rot)  DE(clash)    DE(int)     intcor
     21.38     -22.10       3.22        0.00     110.16       2.74       0.04       0.68       ----

> <Gold.Chemscore.Fitness>
21.3786

> <Gold.Chemscore.DG>
-22.1022

> <Gold.Chemscore.ZeroCoef>
-5.4800

> <Gold.Chemscore.Hbond>
3.2167

> <Gold.Chemscore.Metal>
0.0000

> <Gold.Chemscore.Lipo>
110.1602

> <Gold.Chemscore.Internal_Hbond>
0.0000

> <Gold.Chemscore.DEClash>
0.0391

> <Gold.Chemscore.DEInternal>
0.6844

> <Gold.Chemscore.Rot>
2.7384

> <Gold.Chemscore.Internal.Correction>
   9.000000E+99

> <Gold.Chemscore.Hbonds>
donor molecule, donor type, donor heavy atom, donor atom, acceptor molecule, acceptor atom, score
      L1  H     5    49       P1  8028  0.98
      L1  H    10    31       P1  7949  0.64
      L1  H    12    48       P1  7948  1.00
      P1  H 10752 10765       L1    10  0.24

> <Gold.Chemscore.Hbond.Weighted>
-10.7438

> <Gold.Chemscore.Metal.Weighted>
-0.0000

> <Gold.Chemscore.Lipo.Weighted>
-12.8887

> <Gold.Chemscore.Internal_Hbond.Weighted>
0.0000

> <Gold.Chemscore.DEClash.Weighted>
0.0391

> <Gold.Chemscore.DEInternal.Weighted>
0.6844

> <Gold.Chemscore.Rot.Weighted>
7.0103

> <Gold.Chemscore.Internal.Correction.Weighted>
   9.000000E+99

> <Gold.Protein.RotatedTorsions>
[ 6907 6896 6895 6894 ] final  134.76 input  -60.11 | X-H torsion
[ 7974 7965 7964 7962 ] final  160.01 input  175.53 | X-H torsion
[ 8008 7997 7996 7995 ] final   -3.53 input   59.86 | X-H torsion
[ 10167 10162 10161 10158 ] final   11.56 input  -65.29 | X-H torsion
[ 10718 10713 10712 10709 ] final  120.54 input   66.30 | X-H torsion
[ 10763 10752 10751 10750 ] final  168.09 input  -60.55 | X-H torsion
[ 11005 11000 10999 10996 ] final  -84.62 input  -57.11 | X-H torsion

> <Gold.Protein.ActiveResidues>
 VAL166  LYS551  ARG553  GLY616  TRP617  ASP618  TYR619  PRO620  LYS621  CYS622 
 ASP623  PHE694  ASN695  SER759  ASP760  ASP761  ALA762  ILE779  LEU786  VAL792 
 PHE793  MET794  SER795  GLU796  ALA797  LYS798  CYS799  TRP800  GLU811  SER814 

> <Gold.Protein.RotatedAtoms>
  152.3078  133.5721  159.5660 H   0  0  0  0  0  0  0  0  0  0  0  0  # atno 6907 bound_to 6896
  150.7308  134.0197  159.3706 H   0  0  0  0  0  0  0  0  0  0  0  0  # atno 6908 bound_to 6896
  151.8092  135.0686  160.0461 H   0  0  0  0  0  0  0  0  0  0  0  0  # atno 6909 bound_to 6896
  144.7760  139.7697  143.6278 H   0  0  0  0  0  0  0  0  0  0  0  0  # atno 7974 bound_to 7965
  154.6239  140.2507  155.7515 H   0  0  0  0  0  0  0  0  0  0  0  0  # atno 8008 bound_to 7997
  156.2442  140.2921  156.0479 H   0  0  0  0  0  0  0  0  0  0  0  0  # atno 8009 bound_to 7997
  155.1852  140.0390  157.2880 H   0  0  0  0  0  0  0  0  0  0  0  0  # atno 8010 bound_to 7997
  140.6124  143.8380  150.7080 H   0  0  0  0  0  0  0  0  0  0  0  0  # atno 10167 bound_to 10162
  157.5883  131.1067  150.8050 H   0  0  0  0  0  0  0  0  0  0  0  0  # atno 10718 bound_to 10713
  154.3635  135.2753  155.2307 H   0  0  0  0  0  0  0  0  0  0  0  0  # atno 10763 bound_to 10752
  154.4485  135.5937  153.6179 H   0  0  0  0  0  0  0  0  0  0  0  0  # atno 10764 bound_to 10752
  152.9842  135.6036  154.3858 H   0  0  0  0  0  0  0  0  0  0  0  0  # atno 10765 bound_to 10752
  141.1649  133.7356  156.8895 H   0  0  0  0  0  0  0  0  0  0  0  0  # atno 11005 bound_to 11000
  146.1939  139.5194  142.9787 LP  0  0  0  0  0  0  0  0  0  0  0  0  # atno 17320 bound_to 7965
  145.6186  141.0327  143.1927 LP  0  0  0  0  0  0  0  0  0  0  0  0  # atno 17321 bound_to 7965
  140.1952  143.4004  152.1833 LP  0  0  0  0  0  0  0  0  0  0  0  0  # atno 17342 bound_to 10162
  139.5371  144.7220  151.4856 LP  0  0  0  0  0  0  0  0  0  0  0  0  # atno 17343 bound_to 10162
  156.8478  130.5070  149.5314 LP  0  0  0  0  0  0  0  0  0  0  0  0  # atno 17370 bound_to 10713
  156.0934  130.5914  150.9773 LP  0  0  0  0  0  0  0  0  0  0  0  0  # atno 17371 bound_to 10713
  140.1659  134.9134  157.2773 LP  0  0  0  0  0  0  0  0  0  0  0  0  # atno 17394 bound_to 11000
  140.2558  134.3629  155.7425 LP  0  0  0  0  0  0  0  0  0  0  0  0  # atno 17395 bound_to 11000

$$$$
