AV-unprocessed.smi:2547|AV-procd|sdf|10003|dock1
  -GOLD-   2272014 53D 1   1.00000     0.00000
 Structure written by MMmdl.
 45 46  0  0  0  0  0  0  0  0  3 V2000
  148.4571  133.4964  153.7437 C   0  0  0  0  0  0  0  0  0  0  0  0
  149.0205  134.7844  154.2018 N   0  3  2  0  0  0  0  0  0  0  0  0
  150.3566  134.6255  154.8282 C   0  0  0  0  0  0  0  0  0  0  0  0
  150.9692  135.9919  155.1796 C   0  0  0  0  0  0  0  0  0  0  0  0
  150.0329  136.8022  156.0912 C   0  0  1  0  0  0  0  0  0  0  0  0
  150.6028  138.1232  156.3415 N   0  0  0  0  0  0  0  0  0  0  0  0
  151.0583  138.5533  157.5271 C   0  0  0  0  0  0  0  0  0  0  0  0
  151.0377  137.8691  158.5500 O   0  0  0  0  0  0  0  0  0  0  0  0
  151.5101  139.8170  157.4485 N   0  0  0  0  0  0  0  0  0  0  0  0
  152.0650  140.6133  158.4850 C   0  0  0  0  0  0  0  0  0  0  0  0
  152.8927  140.1104  159.5171 C   0  0  0  0  0  0  0  0  0  0  0  0
  153.4036  140.9958  160.4854 C   0  0  0  0  0  0  0  0  0  0  0  0
  153.0897  142.3668  160.4072 C   0  0  0  0  0  0  0  0  0  0  0  0
  152.2707  142.8390  159.3530 C   0  0  0  0  0  0  0  0  0  0  0  0
  151.9139  144.1964  159.2008 N   0  0  0  0  0  0  0  0  0  0  0  0
  152.0939  145.1220  160.3119 C   0  0  0  0  0  0  0  0  0  0  0  0
  151.4452  144.6813  157.9073 C   0  0  0  0  0  0  0  0  0  0  0  0
  151.8082  141.9404  158.4483 N   0  3  0  0  0  0  0  0  0  0  0  0
  148.6453  136.9185  155.4327 C   0  0  0  0  0  0  0  0  0  0  0  0
  148.0825  135.5325  155.0754 C   0  0  0  0  0  0  0  0  0  0  0  0
  148.2863  132.8226  154.5843 H   0  0  0  0  0  0  0  0  0  0  0  0
  149.1359  133.0066  153.0447 H   0  0  0  0  0  0  0  0  0  0  0  0
  147.5075  133.6516  153.2304 H   0  0  0  0  0  0  0  0  0  0  0  0
  150.2695  134.0111  155.7258 H   0  0  0  0  0  0  0  0  0  0  0  0
  151.0202  134.0947  154.1444 H   0  0  0  0  0  0  0  0  0  0  0  0
  151.9341  135.8477  155.6673 H   0  0  0  0  0  0  0  0  0  0  0  0
  151.1668  136.5470  154.2611 H   0  0  0  0  0  0  0  0  0  0  0  0
  149.9341  136.2692  157.0392 H   0  0  0  0  0  0  0  0  0  0  0  0
  150.6550  138.7535  155.5543 H   0  0  0  0  0  0  0  0  0  0  0  0
  151.3810  140.2821  156.5619 H   0  0  0  0  0  0  0  0  0  0  0  0
  153.1545  139.0646  159.5769 H   0  0  0  0  0  0  0  0  0  0  0  0
  154.0350  140.6265  161.2800 H   0  0  0  0  0  0  0  0  0  0  0  0
  153.4871  143.0340  161.1574 H   0  0  0  0  0  0  0  0  0  0  0  0
  153.1389  145.1498  160.6220 H   0  0  0  0  0  0  0  0  0  0  0  0
  151.4843  144.8214  161.1645 H   0  0  0  0  0  0  0  0  0  0  0  0
  151.8014  146.1351  160.0355 H   0  0  0  0  0  0  0  0  0  0  0  0
  150.5494  144.1425  157.5967 H   0  0  0  0  0  0  0  0  0  0  0  0
  152.2137  144.5458  157.1458 H   0  0  0  0  0  0  0  0  0  0  0  0
  151.1977  145.7423  157.9467 H   0  0  0  0  0  0  0  0  0  0  0  0
  147.9518  137.4333  156.0989 H   0  0  0  0  0  0  0  0  0  0  0  0
  148.7130  137.5260  154.5287 H   0  0  0  0  0  0  0  0  0  0  0  0
  147.1244  135.6499  154.5677 H   0  0  0  0  0  0  0  0  0  0  0  0
  147.8925  134.9589  155.9840 H   0  0  0  0  0  0  0  0  0  0  0  0
  149.1545  135.3479  153.3742 H   0  0  0  0  0  0  0  0  0  0  0  0
  151.2197  142.2903  157.6924 H   0  0  0  0  0  0  0  0  0  0  0  0
  1  2  1  0  0  0  0
  1 21  1  0  0  0  0
  1 22  1  0  0  0  0
  1 23  1  0  0  0  0
  2 20  1  0  0  0  0
  2  3  1  0  0  0  0
  2 44  1  0  0  0  0
  3  4  1  0  0  0  0
  3 24  1  0  0  0  0
  3 25  1  0  0  0  0
  4  5  1  0  0  0  0
  4 26  1  0  0  0  0
  4 27  1  0  0  0  0
  5  6  1  0  0  0  0
  5 19  1  0  0  0  0
  5 28  1  0  0  0  0
  6  7  1  0  0  0  0
  6 29  1  0  0  0  0
  7  8  2  0  0  0  0
  7  9  1  0  0  0  0
  9 10  1  0  0  0  0
  9 30  1  0  0  0  0
 10 18  1  0  0  0  0
 10 11  2  0  0  0  0
 11 12  1  0  0  0  0
 11 31  1  0  0  0  0
 12 13  2  0  0  0  0
 12 32  1  0  0  0  0
 13 14  1  0  0  0  0
 13 33  1  0  0  0  0
 14 15  1  0  0  0  0
 14 18  2  0  0  0  0
 15 16  1  0  0  0  0
 15 17  1  0  0  0  0
 16 34  1  0  0  0  0
 16 35  1  0  0  0  0
 16 36  1  0  0  0  0
 17 37  1  0  0  0  0
 17 38  1  0  0  0  0
 17 39  1  0  0  0  0
 18 45  1  0  0  0  0
 19 20  1  0  0  0  0
 19 40  1  0  0  0  0
 19 41  1  0  0  0  0
 20 42  1  0  0  0  0
 20 43  1  0  0  0  0
M  CHG  1   2   1
M  CHG  1  18   1
M  END
> <s_m_source_file>
AV-unprocessed.smi

> <i_m_source_file_index>
2547

> <i_lp_mmshare_version>
43012

> <i_f3d_flags>
0

> <s_epik_input>
W0NIM11OMVtDSDJdW0NIMl1bQ0hdKFtDSDJdW0NIMl0xKVtOSF1DKD1PKVtOSF1jMltjSF1bY0hdW2NIXWMobjIpTihbQ0gzXSlbQ0gzXQ==

> <s_epik_cmdline>
J2VwaWtfcHl0aG9uJywgJy1waCcsICc3LjAnLCAnLXRuJywgJzgnLCAnLW1hJywgJzIwMCcsICctbWV0YWxfYmluZGluZycsICctaW1hZScsICc8aW5maWxlLm1hZT4nLCAnLW9tYWUnLCAnPG91dGZpbGUubWFlPic=

> <r_lp_tautomer_probability>
0.999994

> <r_epik_Ionization_Penalty>
2.17028

> <r_epik_Ionization_Penalty_Charging>
2.10368

> <r_epik_Ionization_Penalty_Neutral>
0.0666017

> <r_epik_State_Penalty>
2.2357

> <r_epik_Charging_Adjusted_Penalty>
4.33938

> <i_epik_Tot_Q>
2

> <i_epik_Tot_abs_Q>
2

> <r_epik_Metal_State_Penalty>
2.25749

> <b_epik_Metal_Only>
0

> <s_lp_Force_Field>
OPLS_2005

> <r_lp_Energy>
26.2357

> <b_lp_Chiralities_Consistent>
1

> <s_lp_Variant>
AV-unprocessed.smi:2547-3

> <Gold.Version>
5.8.1

> <Gold.Id.Protein>
6NUR|6NUR_protein|mol2

> <Gold.PLP.Fitness>
41.6202

> <Gold.PLP.PLP>
-36.4942

> <Gold.PLP.part.hbond>
-1.0000

> <Gold.PLP.part.metal>
0.0000

> <Gold.PLP.part.buried>
-5.7244

> <Gold.PLP.part.nonpolar>
-29.9761

> <Gold.PLP.part.repulsive>
0.1245

> <Gold.PLP.ligand.clash>
0.0000

> <Gold.PLP.ligand.torsion>
0.4400

> <Gold.PLP.Chemscore.Hbond>
2.0000

> <Gold.PLP.Chemscore.CHOScore>
0.0000

> <Gold.PLP.Chemscore.Metal>
0.0000

> <Gold.Chemscore.Hbonds>
donor molecule, donor type, donor heavy atom, donor atom, acceptor molecule, acceptor atom, score
      L1  H     2    44       P1  7948  2.00

> <Gold.PLP.Chemscore.Internal.Correction>
0.0061

> <Gold.Rescore>
     Score         DG    S(hbond)    S(metal)    S(lipo)     H(rot)  DE(clash)    DE(int)     intcor
     13.97     -14.48       0.98        0.00      70.88       1.00       0.00       0.51       ----

> <Gold.Chemscore.Fitness>
13.9704

> <Gold.Chemscore.DG>
-14.4774

> <Gold.Chemscore.ZeroCoef>
-5.4800

> <Gold.Chemscore.Hbond>
0.9774

> <Gold.Chemscore.Metal>
0.0000

> <Gold.Chemscore.Lipo>
70.8782

> <Gold.Chemscore.Internal_Hbond>
0.0000

> <Gold.Chemscore.DEClash>
0.0000

> <Gold.Chemscore.DEInternal>
0.5071

> <Gold.Chemscore.Rot>
1.0000

> <Gold.Chemscore.Internal.Correction>
   9.000000E+99

> <Gold.Chemscore.Hbonds>
donor molecule, donor type, donor heavy atom, donor atom, acceptor molecule, acceptor atom, score
      L1  H     2    44       P1  7948  0.35

> <Gold.Chemscore.Hbond.Weighted>
-3.2647

> <Gold.Chemscore.Metal.Weighted>
-0.0000

> <Gold.Chemscore.Lipo.Weighted>
-8.2928

> <Gold.Chemscore.Internal_Hbond.Weighted>
0.0000

> <Gold.Chemscore.DEClash.Weighted>
0.0000

> <Gold.Chemscore.DEInternal.Weighted>
0.5071

> <Gold.Chemscore.Rot.Weighted>
2.5600

> <Gold.Chemscore.Internal.Correction.Weighted>
   9.000000E+99

> <Gold.Protein.RotatedTorsions>
[ 6907 6896 6895 6894 ] final  -69.14 input  -60.11 | X-H torsion
[ 7974 7965 7964 7962 ] final -135.24 input  175.53 | X-H torsion
[ 8008 7997 7996 7995 ] final   35.97 input   59.86 | X-H torsion
[ 10167 10162 10161 10158 ] final -159.73 input  -65.29 | X-H torsion
[ 10718 10713 10712 10709 ] final -119.65 input   66.30 | X-H torsion
[ 10763 10752 10751 10750 ] final  -10.47 input  -60.55 | X-H torsion
[ 11005 11000 10999 10996 ] final   89.44 input  -57.11 | X-H torsion

> <Gold.Protein.ActiveResidues>
 VAL166  LYS551  ARG553  GLY616  TRP617  ASP618  TYR619  PRO620  LYS621  CYS622 
 ASP623  PHE694  ASN695  SER759  ASP760  ASP761  ALA762  ILE779  LEU786  VAL792 
 PHE793  MET794  SER795  GLU796  ALA797  LYS798  CYS799  TRP800  GLU811  SER814 

> <Gold.Protein.RotatedAtoms>
  150.7320  134.5639  159.5856 H   0  0  0  0  0  0  0  0  0  0  0  0  # atno 6907 bound_to 6896
  152.3096  134.7511  160.0348 H   0  0  0  0  0  0  0  0  0  0  0  0  # atno 6908 bound_to 6896
  151.8063  133.3340  159.3579 H   0  0  0  0  0  0  0  0  0  0  0  0  # atno 6909 bound_to 6896
  144.9032  140.6798  143.5072 H   0  0  0  0  0  0  0  0  0  0  0  0  # atno 7974 bound_to 7965
  155.1797  140.3299  155.4377 H   0  0  0  0  0  0  0  0  0  0  0  0  # atno 8008 bound_to 7997
  156.2481  140.1929  156.6846 H   0  0  0  0  0  0  0  0  0  0  0  0  # atno 8009 bound_to 7997
  154.6280  140.0586  156.9683 H   0  0  0  0  0  0  0  0  0  0  0  0  # atno 8010 bound_to 7997
  139.6593  143.9942  152.2215 H   0  0  0  0  0  0  0  0  0  0  0  0  # atno 10167 bound_to 10162
  156.1197  130.6313  150.9442 H   0  0  0  0  0  0  0  0  0  0  0  0  # atno 10718 bound_to 10713
  153.4696  135.7016  153.6001 H   0  0  0  0  0  0  0  0  0  0  0  0  # atno 10763 bound_to 10752
  153.4261  135.3814  155.2141 H   0  0  0  0  0  0  0  0  0  0  0  0  # atno 10764 bound_to 10752
  154.8725  135.3939  154.4132 H   0  0  0  0  0  0  0  0  0  0  0  0  # atno 10765 bound_to 10752
  139.8875  134.8552  156.3143 H   0  0  0  0  0  0  0  0  0  0  0  0  # atno 11005 bound_to 11000
  145.3581  139.1689  143.4398 LP  0  0  0  0  0  0  0  0  0  0  0  0  # atno 17320 bound_to 7965
  146.3119  140.3640  142.8667 LP  0  0  0  0  0  0  0  0  0  0  0  0  # atno 17321 bound_to 7965
  139.9676  144.6515  150.8019 LP  0  0  0  0  0  0  0  0  0  0  0  0  # atno 17342 bound_to 10162
  140.7573  143.3083  151.2907 LP  0  0  0  0  0  0  0  0  0  0  0  0  # atno 17343 bound_to 10162
  157.6380  131.0913  150.8308 LP  0  0  0  0  0  0  0  0  0  0  0  0  # atno 17370 bound_to 10713
  156.8407  130.5047  149.5321 LP  0  0  0  0  0  0  0  0  0  0  0  0  # atno 17371 bound_to 10713
  140.9829  133.7256  156.0699 LP  0  0  0  0  0  0  0  0  0  0  0  0  # atno 17394 bound_to 11000
  140.7725  134.3816  157.5504 LP  0  0  0  0  0  0  0  0  0  0  0  0  # atno 17395 bound_to 11000

$$$$
