AV-unprocessed.smi:701|AV-procd|sdf|3415|dock9
  -GOLD-   22720 0403D 1   1.00000     0.00000
 Structure written by MMmdl.
 48 50  0  0  0  0  0  0  0  0  2 V2000
  146.8315  144.2064  159.6741 C   0  0  0  0  0  0  0  0  0  0  0  0
  147.5164  143.2084  158.7382 C   0  0  0  0  0  0  0  0  0  0  0  0
  148.8948  143.5298  158.6605 O   0  0  0  0  0  0  0  0  0  0  0  0
  149.6977  142.4366  158.2471 C   0  0  1  0  0  0  0  0  0  0  0  0
  149.5799  142.0936  156.7596 C   0  0  0  0  0  0  0  0  0  0  0  0
  151.0962  141.8712  156.7673 C   0  0  2  0  0  0  0  0  0  0  0  0
  151.4304  140.4731  157.0394 N   0  0  0  0  0  0  0  0  0  0  0  0
  151.7229  139.5599  156.1040 C   0  0  0  0  0  0  0  0  0  0  0  0
  151.7122  139.8004  154.8964 O   0  0  0  0  0  0  0  0  0  0  0  0
  152.0482  138.1506  156.6126 C   0  0  0  0  0  0  0  0  0  0  0  0
  151.0417  137.6583  157.5654 N   0  0  0  0  0  0  0  0  0  0  0  0
  149.7126  137.5501  157.1199 C   0  0  0  0  0  0  0  0  0  0  0  0
  148.7285  137.1040  157.9235 C   0  0  0  0  0  0  0  0  0  0  0  0
  149.0703  136.7276  159.2897 C   0  0  0  0  0  0  0  0  0  0  0  0
  148.1835  136.3231  160.0391 O   0  0  0  0  0  0  0  0  0  0  0  0
  150.3754  136.8453  159.6732 N   0  5  0  0  0  0  0  0  0  0  0  0
  151.3663  137.2985  158.8442 C   0  0  0  0  0  0  0  0  0  0  0  0
  152.5387  137.3948  159.2095 O   0  0  0  0  0  0  0  0  0  0  0  0
  151.1927  142.7876  158.0212 C   0  0  0  0  0  0  0  0  0  0  0  0
  151.5192  144.2589  157.6706 C   0  0  0  0  0  0  0  0  0  0  0  0
  151.5228  145.2148  158.8787 C   0  0  0  0  0  0  0  0  0  0  0  0
  152.4516  144.7164  159.9904 C   0  0  0  0  0  0  0  0  0  0  0  0
  152.1222  143.2691  160.3686 C   0  0  0  0  0  0  0  0  0  0  0  0
  152.1672  142.3530  159.1360 C   0  0  0  0  0  0  0  0  0  0  0  0
  145.7665  143.9917  159.7618 H   0  0  0  0  0  0  0  0  0  0  0  0
  146.9382  145.2264  159.3044 H   0  0  0  0  0  0  0  0  0  0  0  0
  147.2650  144.1644  160.6737 H   0  0  0  0  0  0  0  0  0  0  0  0
  147.3869  142.1943  159.1188 H   0  0  0  0  0  0  0  0  0  0  0  0
  147.0598  143.2518  157.7485 H   0  0  0  0  0  0  0  0  0  0  0  0
  149.5776  141.5594  158.8868 H   0  0  0  0  0  0  0  0  0  0  0  0
  148.9761  141.2117  156.5412 H   0  0  0  0  0  0  0  0  0  0  0  0
  149.2803  142.9441  156.1458 H   0  0  0  0  0  0  0  0  0  0  0  0
  151.5988  142.2835  155.8905 H   0  0  0  0  0  0  0  0  0  0  0  0
  151.4647  140.1884  158.0074 H   0  0  0  0  0  0  0  0  0  0  0  0
  152.1462  137.4572  155.7747 H   0  0  0  0  0  0  0  0  0  0  0  0
  153.0344  138.1772  157.0776 H   0  0  0  0  0  0  0  0  0  0  0  0
  149.5460  137.8424  156.0935 H   0  0  0  0  0  0  0  0  0  0  0  0
  147.7130  137.0237  157.5652 H   0  0  0  0  0  0  0  0  0  0  0  0
  152.4977  144.3068  157.1910 H   0  0  0  0  0  0  0  0  0  0  0  0
  150.8178  144.6419  156.9288 H   0  0  0  0  0  0  0  0  0  0  0  0
  151.8326  146.2102  158.5594 H   0  0  0  0  0  0  0  0  0  0  0  0
  150.5139  145.3277  159.2739 H   0  0  0  0  0  0  0  0  0  0  0  0
  153.4875  144.7777  159.6546 H   0  0  0  0  0  0  0  0  0  0  0  0
  152.3698  145.3620  160.8652 H   0  0  0  0  0  0  0  0  0  0  0  0
  152.8266  142.9139  161.1210 H   0  0  0  0  0  0  0  0  0  0  0  0
  151.1319  143.2231  160.8239 H   0  0  0  0  0  0  0  0  0  0  0  0
  151.9482  141.3379  159.4677 H   0  0  0  0  0  0  0  0  0  0  0  0
  153.1863  142.3220  158.7477 H   0  0  0  0  0  0  0  0  0  0  0  0
  1  2  1  0  0  0  0
  1 25  1  0  0  0  0
  1 26  1  0  0  0  0
  1 27  1  0  0  0  0
  2  3  1  0  0  0  0
  2 28  1  0  0  0  0
  2 29  1  0  0  0  0
  3  4  1  0  0  0  0
  4 19  1  0  0  0  0
  4  5  1  0  0  0  0
  4 30  1  0  0  0  0
  5  6  1  0  0  0  0
  5 31  1  0  0  0  0
  5 32  1  0  0  0  0
  6  7  1  0  0  0  0
  6 19  1  0  0  0  0
  6 33  1  0  0  0  0
  7  8  1  0  0  0  0
  7 34  1  0  0  0  0
  8  9  2  0  0  0  0
  8 10  1  0  0  0  0
 10 11  1  0  0  0  0
 10 35  1  0  0  0  0
 10 36  1  0  0  0  0
 11 17  1  0  0  0  0
 11 12  1  0  0  0  0
 12 13  2  0  0  0  0
 12 37  1  0  0  0  0
 13 14  1  0  0  0  0
 13 38  1  0  0  0  0
 14 15  2  0  0  0  0
 14 16  1  0  0  0  0
 16 17  1  0  0  0  0
 17 18  2  0  0  0  0
 19 24  1  0  0  0  0
 19 20  1  0  0  0  0
 20 21  1  0  0  0  0
 20 39  1  0  0  0  0
 20 40  1  0  0  0  0
 21 22  1  0  0  0  0
 21 41  1  0  0  0  0
 21 42  1  0  0  0  0
 22 23  1  0  0  0  0
 22 43  1  0  0  0  0
 22 44  1  0  0  0  0
 23 24  1  0  0  0  0
 23 45  1  0  0  0  0
 23 46  1  0  0  0  0
 24 47  1  0  0  0  0
 24 48  1  0  0  0  0
M  CHG  1  16  -1
M  END
> <s_m_source_file>
AV-unprocessed.smi

> <i_m_source_file_index>
701

> <i_lp_mmshare_version>
43012

> <i_f3d_flags>
0

> <s_epik_input>
W0NIMl0xW0NIMl1bQ0gyXVtDSDJdW0NIMl1DMTJbQ0BIXShPW0NIMl1bQ0gzXSlbQ0gyXVtDQEhdMltOSF1DKD1PKVtDSDJdbjNbY0hdW2NIXWMoPU8pW25IXWMzPU8=

> <s_epik_cmdline>
J2VwaWtfcHl0aG9uJywgJy1waCcsICc3LjAnLCAnLXRuJywgJzgnLCAnLW1hJywgJzIwMCcsICctbWV0YWxfYmluZGluZycsICctaW1hZScsICc8aW5maWxlLm1hZT4nLCAnLW9tYWUnLCAnPG91dGZpbGUubWFlPic=

> <r_lp_tautomer_probability>
0.999537

> <r_epik_Ionization_Penalty>
3.12423

> <r_epik_Ionization_Penalty_Charging>
2.92877e-08

> <r_epik_Ionization_Penalty_Neutral>
3.12423

> <r_epik_State_Penalty>
3.12332

> <r_epik_Charging_Adjusted_Penalty>
3.12332

> <i_epik_Tot_Q>
-1

> <i_epik_Tot_abs_Q>
1

> <r_epik_Metal_State_Penalty>
0.463873

> <b_epik_Metal_Only>
1

> <s_lp_Force_Field>
OPLS_2005

> <r_lp_Energy>
37.69

> <b_lp_Chiralities_Consistent>
1

> <s_lp_Variant>
AV-unprocessed.smi:701-8

> <Gold.Version>
5.8.1

> <Gold.Id.Protein>
6NUR|6NUR_protein|mol2

> <Gold.PLP.Fitness>
45.2455

> <Gold.PLP.PLP>
-36.9511

> <Gold.PLP.part.hbond>
-2.0000

> <Gold.PLP.part.metal>
0.0000

> <Gold.PLP.part.buried>
-5.9544

> <Gold.PLP.part.nonpolar>
-29.7019

> <Gold.PLP.part.repulsive>
0.5378

> <Gold.PLP.ligand.clash>
0.0000

> <Gold.PLP.ligand.torsion>
0.5196

> <Gold.PLP.Chemscore.Hbond>
3.0000

> <Gold.PLP.Chemscore.CHOScore>
0.0000

> <Gold.PLP.Chemscore.Metal>
0.0000

> <Gold.Chemscore.Hbonds>
donor molecule, donor type, donor heavy atom, donor atom, acceptor molecule, acceptor atom, score
      P1  H  6896  6907       L1    16  1.80
      P1  H  7989  7998       L1     9  1.00

> <Gold.PLP.Chemscore.Internal.Correction>
0.3335

> <Gold.Rescore>
     Score         DG    S(hbond)    S(metal)    S(lipo)     H(rot)  DE(clash)    DE(int)     intcor
     16.33     -17.21       1.64        0.00      98.21       2.04       0.34       0.54       ----

> <Gold.Chemscore.Fitness>
16.3280

> <Gold.Chemscore.DG>
-17.2106

> <Gold.Chemscore.ZeroCoef>
-5.4800

> <Gold.Chemscore.Hbond>
1.6353

> <Gold.Chemscore.Metal>
0.0000

> <Gold.Chemscore.Lipo>
98.2116

> <Gold.Chemscore.Internal_Hbond>
0.0000

> <Gold.Chemscore.DEClash>
0.3425

> <Gold.Chemscore.DEInternal>
0.5401

> <Gold.Chemscore.Rot>
2.0399

> <Gold.Chemscore.Internal.Correction>
   9.000000E+99

> <Gold.Chemscore.Hbonds>
donor molecule, donor type, donor heavy atom, donor atom, acceptor molecule, acceptor atom, score
      P1  H  6896  6907       L1    16  0.06
      P1  H  7989  7998       L1     9  0.97

> <Gold.Chemscore.Hbond.Weighted>
-5.4620

> <Gold.Chemscore.Metal.Weighted>
-0.0000

> <Gold.Chemscore.Lipo.Weighted>
-11.4908

> <Gold.Chemscore.Internal_Hbond.Weighted>
0.0000

> <Gold.Chemscore.DEClash.Weighted>
0.3425

> <Gold.Chemscore.DEInternal.Weighted>
0.5401

> <Gold.Chemscore.Rot.Weighted>
5.2222

> <Gold.Chemscore.Internal.Correction.Weighted>
   9.000000E+99

> <Gold.Protein.RotatedTorsions>
[ 6907 6896 6895 6894 ] final  -42.41 input  -60.11 | X-H torsion
[ 7974 7965 7964 7962 ] final   12.52 input  175.53 | X-H torsion
[ 8008 7997 7996 7995 ] final -125.50 input   59.86 | X-H torsion
[ 10167 10162 10161 10158 ] final   29.37 input  -65.29 | X-H torsion
[ 10718 10713 10712 10709 ] final  -81.60 input   66.30 | X-H torsion
[ 10763 10752 10751 10750 ] final   -4.73 input  -60.55 | X-H torsion
[ 11005 11000 10999 10996 ] final   81.46 input  -57.11 | X-H torsion

> <Gold.Protein.ActiveResidues>
 VAL166  LYS551  ARG553  GLY616  TRP617  ASP618  TYR619  PRO620  LYS621  CYS622 
 ASP623  PHE694  ASN695  SER759  ASP760  ASP761  ALA762  ILE779  LEU786  VAL792 
 PHE793  MET794  SER795  GLU796  ALA797  LYS798  CYS799  TRP800  GLU811  SER814 

> <Gold.Protein.RotatedAtoms>
  150.9555  134.8950  159.7698 H   0  0  0  0  0  0  0  0  0  0  0  0  # atno 6907 bound_to 6896
  152.5136  134.3746  159.9340 H   0  0  0  0  0  0  0  0  0  0  0  0  # atno 6908 bound_to 6896
  151.3760  133.3797  159.2739 H   0  0  0  0  0  0  0  0  0  0  0  0  # atno 6909 bound_to 6896
  146.2349  139.9325  142.8494 H   0  0  0  0  0  0  0  0  0  0  0  0  # atno 7974 bound_to 7965
  155.2143  140.0420  157.2938 H   0  0  0  0  0  0  0  0  0  0  0  0  # atno 8008 bound_to 7997
  154.5991  140.2447  155.7788 H   0  0  0  0  0  0  0  0  0  0  0  0  # atno 8009 bound_to 7997
  156.2309  140.2938  156.0196 H   0  0  0  0  0  0  0  0  0  0  0  0  # atno 8010 bound_to 7997
  140.4772  144.0672  150.6254 H   0  0  0  0  0  0  0  0  0  0  0  0  # atno 10167 bound_to 10162
  156.0047  130.4609  150.3977 H   0  0  0  0  0  0  0  0  0  0  0  0  # atno 10718 bound_to 10713
  153.3888  135.7001  153.6510 H   0  0  0  0  0  0  0  0  0  0  0  0  # atno 10763 bound_to 10752
  153.5091  135.3636  155.2578 H   0  0  0  0  0  0  0  0  0  0  0  0  # atno 10764 bound_to 10752
  154.8700  135.4130  154.3201 H   0  0  0  0  0  0  0  0  0  0  0  0  # atno 10765 bound_to 10752
  139.9097  134.7998  156.2045 H   0  0  0  0  0  0  0  0  0  0  0  0  # atno 11005 bound_to 11000
  145.2030  140.9863  143.4144 LP  0  0  0  0  0  0  0  0  0  0  0  0  # atno 17320 bound_to 7965
  144.9757  139.3835  143.6287 LP  0  0  0  0  0  0  0  0  0  0  0  0  # atno 17321 bound_to 7965
  140.3903  143.2756  152.0067 LP  0  0  0  0  0  0  0  0  0  0  0  0  # atno 17342 bound_to 10162
  139.4827  144.6082  151.7482 LP  0  0  0  0  0  0  0  0  0  0  0  0  # atno 17343 bound_to 10162
  157.2048  131.0446  151.2631 LP  0  0  0  0  0  0  0  0  0  0  0  0  # atno 17370 bound_to 10713
  157.3943  130.7298  149.6720 LP  0  0  0  0  0  0  0  0  0  0  0  0  # atno 17371 bound_to 10713
  141.0504  133.6891  156.1762 LP  0  0  0  0  0  0  0  0  0  0  0  0  # atno 17394 bound_to 11000
  140.6819  134.4758  157.5589 LP  0  0  0  0  0  0  0  0  0  0  0  0  # atno 17395 bound_to 11000

$$$$
