AV-unprocessed.smi:3227|AV-procd|sdf|12317|dock5
  -GOLD-   2272018163D 1   1.00000     0.00000
 Structure written by MMmdl.
 37 38  0  0  0  0  0  0  0  0  1 V2000
  152.1424  144.9861  158.6654 C   0  0  0  0  0  0  0  0  0  0  0  0
  151.3485  143.9850  159.3639 N   0  0  0  0  0  0  0  0  0  0  0  0
  150.2130  144.4848  160.1291 C   0  0  0  0  0  0  0  0  0  0  0  0
  152.1349  142.9950  159.9868 C   0  0  0  0  0  0  0  0  0  0  0  0
  152.6208  143.2776  161.2207 N   0  0  0  0  0  0  0  0  0  0  0  0
  153.3941  142.3645  161.8421 C   0  0  0  0  0  0  0  0  0  0  0  0
  153.7210  141.1205  161.2752 C   0  0  0  0  0  0  0  0  0  0  0  0
  153.2196  140.8168  159.9969 C   0  0  0  0  0  0  0  0  0  0  0  0
  152.4182  141.7704  159.3229 C   0  0  0  0  0  0  0  0  0  0  0  0
  151.8379  141.5129  158.0478 N   0  0  0  0  0  0  0  0  0  0  0  0
  152.0730  140.4825  157.2155 C   0  0  0  0  0  0  0  0  0  0  0  0
  152.8770  139.5764  157.4329 O   0  0  0  0  0  0  0  0  0  0  0  0
  151.2897  140.4903  155.9045 C   0  0  0  0  0  0  0  0  0  0  0  0
  149.9194  140.2718  156.1954 O   0  0  0  0  0  0  0  0  0  0  0  0
  149.1675  139.9295  155.0442 C   0  0  0  0  0  0  0  0  0  0  0  0
  148.6059  141.1922  154.4266 C   0  0  0  0  0  0  0  0  0  0  0  0
  147.3152  141.7944  154.9341 C   0  0  0  0  0  0  0  0  0  0  0  0
  147.3544  141.1336  153.5800 C   0  0  0  0  0  0  0  0  0  0  0  0
  152.7906  144.5320  157.9159 H   0  0  0  0  0  0  0  0  0  0  0  0
  152.7672  145.5367  159.3697 H   0  0  0  0  0  0  0  0  0  0  0  0
  151.4939  145.6996  158.1567 H   0  0  0  0  0  0  0  0  0  0  0  0
  149.6746  143.6664  160.6085 H   0  0  0  0  0  0  0  0  0  0  0  0
  149.5153  145.0038  159.4715 H   0  0  0  0  0  0  0  0  0  0  0  0
  150.5397  145.1844  160.8991 H   0  0  0  0  0  0  0  0  0  0  0  0
  153.7577  142.6314  162.8234 H   0  0  0  0  0  0  0  0  0  0  0  0
  154.3344  140.4121  161.8118 H   0  0  0  0  0  0  0  0  0  0  0  0
  153.4414  139.8528  159.5657 H   0  0  0  0  0  0  0  0  0  0  0  0
  151.2343  142.2407  157.6930 H   0  0  0  0  0  0  0  0  0  0  0  0
  151.4275  141.4558  155.4154 H   0  0  0  0  0  0  0  0  0  0  0  0
  151.6621  139.7182  155.2285 H   0  0  0  0  0  0  0  0  0  0  0  0
  149.8036  139.4310  154.3113 H   0  0  0  0  0  0  0  0  0  0  0  0
  148.3545  139.2491  155.3027 H   0  0  0  0  0  0  0  0  0  0  0  0
  149.3675  141.8938  154.0913 H   0  0  0  0  0  0  0  0  0  0  0  0
  146.7910  141.2729  155.7324 H   0  0  0  0  0  0  0  0  0  0  0  0
  147.2463  142.8799  154.9629 H   0  0  0  0  0  0  0  0  0  0  0  0
  147.3101  141.7780  152.7042 H   0  0  0  0  0  0  0  0  0  0  0  0
  146.8544  140.1723  153.4773 H   0  0  0  0  0  0  0  0  0  0  0  0
  1  2  1  0  0  0  0
  1 19  1  0  0  0  0
  1 20  1  0  0  0  0
  1 21  1  0  0  0  0
  2  3  1  0  0  0  0
  2  4  1  0  0  0  0
  3 22  1  0  0  0  0
  3 23  1  0  0  0  0
  3 24  1  0  0  0  0
  4  9  1  0  0  0  0
  4  5  2  0  0  0  0
  5  6  1  0  0  0  0
  6  7  2  0  0  0  0
  6 25  1  0  0  0  0
  7  8  1  0  0  0  0
  7 26  1  0  0  0  0
  8  9  2  0  0  0  0
  8 27  1  0  0  0  0
  9 10  1  0  0  0  0
 10 11  1  0  0  0  0
 10 28  1  0  0  0  0
 11 12  2  0  0  0  0
 11 13  1  0  0  0  0
 13 14  1  0  0  0  0
 13 29  1  0  0  0  0
 13 30  1  0  0  0  0
 14 15  1  0  0  0  0
 15 16  1  0  0  0  0
 15 31  1  0  0  0  0
 15 32  1  0  0  0  0
 16 18  1  0  0  0  0
 16 17  1  0  0  0  0
 16 33  1  0  0  0  0
 17 18  1  0  0  0  0
 17 34  1  0  0  0  0
 17 35  1  0  0  0  0
 18 36  1  0  0  0  0
 18 37  1  0  0  0  0
M  END
> <s_m_source_file>
AV-unprocessed.smi

> <i_m_source_file_index>
3227

> <i_lp_mmshare_version>
43012

> <i_f3d_flags>
0

> <s_epik_input>
W0NIM11OKFtDSDNdKWMxbltjSF1bY0hdW2NIXWMxW05IXUMoPU8pW0NIMl1PW0NIMl1bQ0hdMltDSDJdW0NIMl0y

> <s_epik_cmdline>
J2VwaWtfcHl0aG9uJywgJy1waCcsICc3LjAnLCAnLXRuJywgJzgnLCAnLW1hJywgJzIwMCcsICctbWV0YWxfYmluZGluZycsICctaW1hZScsICc8aW5maWxlLm1hZT4nLCAnLW9tYWUnLCAnPG91dGZpbGUubWFlPic=

> <r_lp_tautomer_probability>
1

> <r_epik_Ionization_Penalty>
0.25353

> <r_epik_Ionization_Penalty_Charging>
0

> <r_epik_Ionization_Penalty_Neutral>
0.25353

> <r_epik_State_Penalty>
0.244789

> <r_epik_Charging_Adjusted_Penalty>
0.244789

> <i_epik_Tot_Q>
0

> <i_epik_Tot_abs_Q>
0

> <r_epik_Metal_State_Penalty>
0.170372

> <b_epik_Metal_Only>
0

> <s_lp_Force_Field>
OPLS_2005

> <r_lp_Energy>
22.5303

> <b_lp_Chiralities_Consistent>
1

> <s_lp_Variant>
AV-unprocessed.smi:3227-1

> <Gold.Version>
5.8.1

> <Gold.Id.Protein>
6NUR|6NUR_protein|mol2

> <Gold.PLP.Fitness>
42.5896

> <Gold.PLP.PLP>
-40.7160

> <Gold.PLP.part.hbond>
-1.0000

> <Gold.PLP.part.metal>
0.0000

> <Gold.PLP.part.buried>
-5.8206

> <Gold.PLP.part.nonpolar>
-33.6155

> <Gold.PLP.part.repulsive>
0.2344

> <Gold.PLP.ligand.clash>
0.0000

> <Gold.PLP.ligand.torsion>
0.9960

> <Gold.PLP.Chemscore.Hbond>
1.0000

> <Gold.PLP.Chemscore.CHOScore>
0.0000

> <Gold.PLP.Chemscore.Metal>
0.0000

> <Gold.Chemscore.Hbonds>
donor molecule, donor type, donor heavy atom, donor atom, acceptor molecule, acceptor atom, score
      P1  H  7997  8008       L1    12  1.00

> <Gold.PLP.Chemscore.Internal.Correction>
0.8657

> <Gold.Rescore>
     Score         DG    S(hbond)    S(metal)    S(lipo)     H(rot)  DE(clash)    DE(int)     intcor
     13.49     -15.62       0.97        0.00      95.64       1.68       0.08       2.04       ----

> <Gold.Chemscore.Fitness>
13.4912

> <Gold.Chemscore.DG>
-15.6155

> <Gold.Chemscore.ZeroCoef>
-5.4800

> <Gold.Chemscore.Hbond>
0.9697

> <Gold.Chemscore.Metal>
0.0000

> <Gold.Chemscore.Lipo>
95.6428

> <Gold.Chemscore.Internal_Hbond>
0.0000

> <Gold.Chemscore.DEClash>
0.0831

> <Gold.Chemscore.DEInternal>
2.0412

> <Gold.Chemscore.Rot>
1.6771

> <Gold.Chemscore.Internal.Correction>
   9.000000E+99

> <Gold.Chemscore.Hbonds>
donor molecule, donor type, donor heavy atom, donor atom, acceptor molecule, acceptor atom, score
      P1  H  7997  8008       L1    12  0.65

> <Gold.Chemscore.Hbond.Weighted>
-3.2387

> <Gold.Chemscore.Metal.Weighted>
-0.0000

> <Gold.Chemscore.Lipo.Weighted>
-11.1902

> <Gold.Chemscore.Internal_Hbond.Weighted>
0.0000

> <Gold.Chemscore.DEClash.Weighted>
0.0831

> <Gold.Chemscore.DEInternal.Weighted>
2.0412

> <Gold.Chemscore.Rot.Weighted>
4.2935

> <Gold.Chemscore.Internal.Correction.Weighted>
   9.000000E+99

> <Gold.Protein.RotatedTorsions>
[ 6907 6896 6895 6894 ] final  -82.90 input  -60.11 | X-H torsion
[ 7974 7965 7964 7962 ] final  -47.77 input  175.53 | X-H torsion
[ 8008 7997 7996 7995 ] final  -68.15 input   59.86 | X-H torsion
[ 10167 10162 10161 10158 ] final  -15.48 input  -65.29 | X-H torsion
[ 10718 10713 10712 10709 ] final  -37.23 input   66.30 | X-H torsion
[ 10763 10752 10751 10750 ] final   73.37 input  -60.55 | X-H torsion
[ 11005 11000 10999 10996 ] final  -22.86 input  -57.11 | X-H torsion

> <Gold.Protein.ActiveResidues>
 VAL166  LYS551  ARG553  GLY616  TRP617  ASP618  TYR619  PRO620  LYS621  CYS622 
 ASP623  PHE694  ASN695  SER759  ASP760  ASP761  ALA762  ILE779  LEU786  VAL792 
 PHE793  MET794  SER795  GLU796  ALA797  LYS798  CYS799  TRP800  GLU811  SER814 

> <Gold.Protein.RotatedAtoms>
  150.6891  134.3594  159.4943 H   0  0  0  0  0  0  0  0  0  0  0  0  # atno 6907 bound_to 6896
  152.1425  134.9049  160.0562 H   0  0  0  0  0  0  0  0  0  0  0  0  # atno 6908 bound_to 6896
  152.0177  133.3851  159.4282 H   0  0  0  0  0  0  0  0  0  0  0  0  # atno 6909 bound_to 6896
  145.9581  140.7506  142.9471 H   0  0  0  0  0  0  0  0  0  0  0  0  # atno 7974 bound_to 7965
  154.4848  140.0878  156.7462 H   0  0  0  0  0  0  0  0  0  0  0  0  # atno 8008 bound_to 7997
  155.4377  140.3452  155.4268 H   0  0  0  0  0  0  0  0  0  0  0  0  # atno 8009 bound_to 7997
  156.1246  140.1484  156.9144 H   0  0  0  0  0  0  0  0  0  0  0  0  # atno 8010 bound_to 7997
  140.7219  143.5214  150.9629 H   0  0  0  0  0  0  0  0  0  0  0  0  # atno 10167 bound_to 10162
  156.3176  130.4261  149.7990 H   0  0  0  0  0  0  0  0  0  0  0  0  # atno 10718 bound_to 10713
  153.0517  135.5065  154.7884 H   0  0  0  0  0  0  0  0  0  0  0  0  # atno 10763 bound_to 10752
  154.6740  135.2957  154.9705 H   0  0  0  0  0  0  0  0  0  0  0  0  # atno 10764 bound_to 10752
  154.0514  135.6703  153.4853 H   0  0  0  0  0  0  0  0  0  0  0  0  # atno 10765 bound_to 10752
  140.8697  133.7729  156.0172 H   0  0  0  0  0  0  0  0  0  0  0  0  # atno 11005 bound_to 11000
  144.6809  140.2546  143.7327 LP  0  0  0  0  0  0  0  0  0  0  0  0  # atno 17320 bound_to 7965
  145.8078  139.1990  143.2011 LP  0  0  0  0  0  0  0  0  0  0  0  0  # atno 17321 bound_to 7965
  139.8931  143.6928  152.3142 LP  0  0  0  0  0  0  0  0  0  0  0  0  # atno 17342 bound_to 10162
  139.7251  144.7594  151.0892 LP  0  0  0  0  0  0  0  0  0  0  0  0  # atno 17343 bound_to 10162
  156.5310  130.8258  151.3237 LP  0  0  0  0  0  0  0  0  0  0  0  0  # atno 17370 bound_to 10713
  157.7405  130.9851  150.2381 LP  0  0  0  0  0  0  0  0  0  0  0  0  # atno 17371 bound_to 10713
  140.8587  134.2867  157.5244 LP  0  0  0  0  0  0  0  0  0  0  0  0  # atno 17394 bound_to 11000
  139.8711  134.9507  156.4062 LP  0  0  0  0  0  0  0  0  0  0  0  0  # atno 17395 bound_to 11000

$$$$
