AV-unprocessed.smi:2999|AV-procd|sdf|11422|dock3
  -GOLD-   2272016343D 1   1.00000     0.00000
 Structure written by MMmdl.
 38 40  0  0  0  0  0  0  0  0  2 V2000
  146.5011  139.4592  153.7333 O   0  0  0  0  0  0  0  0  0  0  0  0
  147.2748  138.6239  153.2660 C   0  0  0  0  0  0  0  0  0  0  0  0
  146.8852  137.6330  152.4511 N   0  0  0  0  0  0  0  0  0  0  0  0
  145.5114  137.3797  152.0233 C   0  0  0  0  0  0  0  0  0  0  0  0
  144.9835  136.0039  152.4752 C   0  0  1  0  0  0  0  0  0  0  0  0
  145.1022  134.8928  151.4098 C   0  0  0  0  0  0  0  0  0  0  0  0
  144.5803  133.6144  151.9423 N   0  3  1  0  0  0  0  0  0  0  0  0
  144.6316  132.5246  150.9440 C   0  0  0  0  0  0  0  0  0  0  0  0
  145.8052  132.6226  149.9976 C   0  0  0  0  0  0  0  0  0  0  0  0
  144.4169  132.9914  149.5233 C   0  0  0  0  0  0  0  0  0  0  0  0
  145.2689  133.2585  153.2038 C   0  0  0  0  0  0  0  0  0  0  0  0
  145.1576  134.4105  154.2164 C   0  0  0  0  0  0  0  0  0  0  0  0
  145.6859  135.6039  153.6487 O   0  0  0  0  0  0  0  0  0  0  0  0
  148.5985  138.5820  153.4857 N   0  0  0  0  0  0  0  0  0  0  0  0
  149.3771  139.4747  154.2632 C   0  0  0  0  0  0  0  0  0  0  0  0
  148.8815  140.6794  154.5512 N   0  0  0  0  0  0  0  0  0  0  0  0
  149.7637  141.4385  155.3257 C   0  0  0  0  0  0  0  0  0  0  0  0
  150.9373  140.7900  155.6206 C   0  0  0  0  0  0  0  0  0  0  0  0
  150.9847  139.1883  154.9345 S   0  0  0  0  0  0  0  0  0  0  0  0
  147.5898  136.9957  152.1093 H   0  0  0  0  0  0  0  0  0  0  0  0
  144.8825  138.1641  152.4453 H   0  0  0  0  0  0  0  0  0  0  0  0
  145.4210  137.4759  150.9401 H   0  0  0  0  0  0  0  0  0  0  0  0
  143.9302  136.1306  152.7322 H   0  0  0  0  0  0  0  0  0  0  0  0
  144.5464  135.1742  150.5145 H   0  0  0  0  0  0  0  0  0  0  0  0
  146.1411  134.7489  151.1113 H   0  0  0  0  0  0  0  0  0  0  0  0
  144.2658  131.5519  151.2688 H   0  0  0  0  0  0  0  0  0  0  0  0
  146.5182  133.4324  150.1414 H   0  0  0  0  0  0  0  0  0  0  0  0
  146.2280  131.6918  149.6252 H   0  0  0  0  0  0  0  0  0  0  0  0
  143.9262  132.3043  148.8370 H   0  0  0  0  0  0  0  0  0  0  0  0
  144.2097  134.0463  149.3514 H   0  0  0  0  0  0  0  0  0  0  0  0
  144.8288  132.3525  153.6218 H   0  0  0  0  0  0  0  0  0  0  0  0
  146.3186  133.0410  152.9999 H   0  0  0  0  0  0  0  0  0  0  0  0
  144.1202  134.5652  154.5179 H   0  0  0  0  0  0  0  0  0  0  0  0
  145.7186  134.1719  155.1202 H   0  0  0  0  0  0  0  0  0  0  0  0
  149.1098  137.8342  153.0406 H   0  0  0  0  0  0  0  0  0  0  0  0
  149.4744  142.4351  155.6247 H   0  0  0  0  0  0  0  0  0  0  0  0
  151.7734  141.1559  156.1979 H   0  0  0  0  0  0  0  0  0  0  0  0
  143.6071  133.7633  152.1676 H   0  0  0  0  0  0  0  0  0  0  0  0
  1  2  2  0  0  0  0
  2  3  1  0  0  0  0
  2 14  1  0  0  0  0
  3  4  1  0  0  0  0
  3 20  1  0  0  0  0
  4  5  1  0  0  0  0
  4 21  1  0  0  0  0
  4 22  1  0  0  0  0
  5 13  1  0  0  0  0
  5  6  1  0  0  0  0
  5 23  1  0  0  0  0
  6  7  1  0  0  0  0
  6 24  1  0  0  0  0
  6 25  1  0  0  0  0
  7  8  1  0  0  0  0
  7 11  1  0  0  0  0
  7 38  1  0  0  0  0
  8 10  1  0  0  0  0
  8  9  1  0  0  0  0
  8 26  1  0  0  0  0
  9 10  1  0  0  0  0
  9 27  1  0  0  0  0
  9 28  1  0  0  0  0
 10 29  1  0  0  0  0
 10 30  1  0  0  0  0
 11 12  1  0  0  0  0
 11 31  1  0  0  0  0
 11 32  1  0  0  0  0
 12 13  1  0  0  0  0
 12 33  1  0  0  0  0
 12 34  1  0  0  0  0
 14 15  1  0  0  0  0
 14 35  1  0  0  0  0
 15 19  1  0  0  0  0
 15 16  2  0  0  0  0
 16 17  1  0  0  0  0
 17 18  2  0  0  0  0
 17 36  1  0  0  0  0
 18 19  1  0  0  0  0
 18 37  1  0  0  0  0
M  CHG  1   7   1
M  END
> <s_m_source_file>
AV-unprocessed.smi

> <i_m_source_file_index>
2999

> <i_lp_mmshare_version>
43012

> <i_f3d_flags>
0

> <s_epik_input>
czFbY0hdW2NIXW5jMVtOSF1DKD1PKVtOSF1bQ0gyXVtDQEBIXTJbQ0gyXU4oW0NIMl1bQ0gyXU8yKVtDSF0zW0NIMl1bQ0gyXTM=

> <s_epik_cmdline>
J2VwaWtfcHl0aG9uJywgJy1waCcsICc3LjAnLCAnLXRuJywgJzgnLCAnLW1hJywgJzIwMCcsICctbWV0YWxfYmluZGluZycsICctaW1hZScsICc8aW5maWxlLm1hZT4nLCAnLW9tYWUnLCAnPG91dGZpbGUubWFlPic=

> <r_lp_tautomer_probability>
0.999

> <r_epik_Ionization_Penalty>
1.55235

> <r_epik_Ionization_Penalty_Charging>
1.55221

> <r_epik_Ionization_Penalty_Neutral>
0.000139685

> <r_epik_State_Penalty>
1.64652

> <r_epik_Charging_Adjusted_Penalty>
3.19873

> <i_epik_Tot_Q>
1

> <i_epik_Tot_abs_Q>
1

> <r_epik_Metal_State_Penalty>
1.68612

> <b_epik_Metal_Only>
0

> <s_lp_Force_Field>
OPLS_2005

> <r_lp_Energy>
20.9615

> <b_lp_Chiralities_Consistent>
1

> <s_lp_Variant>
AV-unprocessed.smi:2999-6

> <Gold.Version>
5.8.1

> <Gold.Id.Protein>
6NUR|6NUR_protein|mol2

> <Gold.PLP.Fitness>
37.3986

> <Gold.PLP.PLP>
-29.7238

> <Gold.PLP.part.hbond>
-3.0000

> <Gold.PLP.part.metal>
0.0000

> <Gold.PLP.part.buried>
-0.6076

> <Gold.PLP.part.nonpolar>
-26.2053

> <Gold.PLP.part.repulsive>
0.4657

> <Gold.PLP.ligand.clash>
0.0000

> <Gold.PLP.ligand.torsion>
1.1859

> <Gold.PLP.Chemscore.Hbond>
1.9280

> <Gold.PLP.Chemscore.CHOScore>
1.0000

> <Gold.PLP.Chemscore.Metal>
0.0000

> <Gold.Chemscore.Hbonds>
donor molecule, donor type, donor heavy atom, donor atom, acceptor molecule, acceptor atom, score
      L1  H     3    20       P1  7948  1.00
      L1  H    14    35       P1  7948  0.91
      L1  C    17    36       P1  8028  1.00

> <Gold.PLP.Chemscore.Internal.Correction>
1.2626

> <Gold.Rescore>
     Score         DG    S(hbond)    S(metal)    S(lipo)     H(rot)  DE(clash)    DE(int)     intcor
     13.32     -15.98       1.92        0.00      69.41       1.58       0.09       2.57       ----

> <Gold.Chemscore.Fitness>
13.3191

> <Gold.Chemscore.DG>
-15.9783

> <Gold.Chemscore.ZeroCoef>
-5.4800

> <Gold.Chemscore.Hbond>
1.9225

> <Gold.Chemscore.Metal>
0.0000

> <Gold.Chemscore.Lipo>
69.4068

> <Gold.Chemscore.Internal_Hbond>
0.0000

> <Gold.Chemscore.DEClash>
0.0890

> <Gold.Chemscore.DEInternal>
2.5702

> <Gold.Chemscore.Rot>
1.5795

> <Gold.Chemscore.Internal.Correction>
   9.000000E+99

> <Gold.Chemscore.Hbonds>
donor molecule, donor type, donor heavy atom, donor atom, acceptor molecule, acceptor atom, score
      L1  H     3    20       P1  7948  0.97
      L1  H    14    35       P1  7948  0.88

> <Gold.Chemscore.Hbond.Weighted>
-6.4211

> <Gold.Chemscore.Metal.Weighted>
-0.0000

> <Gold.Chemscore.Lipo.Weighted>
-8.1206

> <Gold.Chemscore.Internal_Hbond.Weighted>
0.0000

> <Gold.Chemscore.DEClash.Weighted>
0.0890

> <Gold.Chemscore.DEInternal.Weighted>
2.5702

> <Gold.Chemscore.Rot.Weighted>
4.0434

> <Gold.Chemscore.Internal.Correction.Weighted>
   9.000000E+99

> <Gold.Protein.RotatedTorsions>
[ 6907 6896 6895 6894 ] final -164.44 input  -60.11 | X-H torsion
[ 7974 7965 7964 7962 ] final  131.12 input  175.53 | X-H torsion
[ 8008 7997 7996 7995 ] final   62.12 input   59.86 | X-H torsion
[ 10167 10162 10161 10158 ] final -112.62 input  -65.29 | X-H torsion
[ 10718 10713 10712 10709 ] final   57.08 input   66.30 | X-H torsion
[ 10763 10752 10751 10750 ] final   60.04 input  -60.55 | X-H torsion
[ 11005 11000 10999 10996 ] final  -84.42 input  -57.11 | X-H torsion

> <Gold.Protein.ActiveResidues>
 VAL166  LYS551  ARG553  GLY616  TRP617  ASP618  TYR619  PRO620  LYS621  CYS622 
 ASP623  PHE694  ASN695  SER759  ASP760  ASP761  ALA762  ILE779  LEU786  VAL792 
 PHE793  MET794  SER795  GLU796  ALA797  LYS798  CYS799  TRP800  GLU811  SER814 

> <Gold.Protein.RotatedAtoms>
  151.4119  133.3724  159.2744 H   0  0  0  0  0  0  0  0  0  0  0  0  # atno 6907 bound_to 6896
  150.9356  134.8770  159.7590 H   0  0  0  0  0  0  0  0  0  0  0  0  # atno 6908 bound_to 6896
  152.5048  134.4067  159.9487 H   0  0  0  0  0  0  0  0  0  0  0  0  # atno 6909 bound_to 6896
  145.0107  139.4223  143.5246 H   0  0  0  0  0  0  0  0  0  0  0  0  # atno 7974 bound_to 7965
  155.6092  140.3495  155.4617 H   0  0  0  0  0  0  0  0  0  0  0  0  # atno 8008 bound_to 7997
  156.0167  140.1245  157.0423 H   0  0  0  0  0  0  0  0  0  0  0  0  # atno 8009 bound_to 7997
  154.4300  140.1070  156.5892 H   0  0  0  0  0  0  0  0  0  0  0  0  # atno 8010 bound_to 7997
  140.1208  143.4445  152.1692 H   0  0  0  0  0  0  0  0  0  0  0  0  # atno 10167 bound_to 10162
  157.5485  130.8748  149.8927 H   0  0  0  0  0  0  0  0  0  0  0  0  # atno 10718 bound_to 10713
  152.9910  135.5550  154.5810 H   0  0  0  0  0  0  0  0  0  0  0  0  # atno 10763 bound_to 10752
  154.5191  135.2806  155.1280 H   0  0  0  0  0  0  0  0  0  0  0  0  # atno 10764 bound_to 10752
  154.2640  135.6375  153.5338 H   0  0  0  0  0  0  0  0  0  0  0  0  # atno 10765 bound_to 10752
  141.1650  133.7345  156.8865 H   0  0  0  0  0  0  0  0  0  0  0  0  # atno 11005 bound_to 11000
  146.3469  139.9549  142.8724 LP  0  0  0  0  0  0  0  0  0  0  0  0  # atno 17320 bound_to 7965
  145.2027  140.9861  143.4146 LP  0  0  0  0  0  0  0  0  0  0  0  0  # atno 17321 bound_to 7965
  139.5570  144.7379  151.4266 LP  0  0  0  0  0  0  0  0  0  0  0  0  # atno 17342 bound_to 10162
  140.6873  143.7944  150.7204 LP  0  0  0  0  0  0  0  0  0  0  0  0  # atno 17343 bound_to 10162
  156.0556  130.3709  150.1099 LP  0  0  0  0  0  0  0  0  0  0  0  0  # atno 17370 bound_to 10713
  156.9274  130.9702  151.3538 LP  0  0  0  0  0  0  0  0  0  0  0  0  # atno 17371 bound_to 10713
  140.1678  134.9121  157.2796 LP  0  0  0  0  0  0  0  0  0  0  0  0  # atno 17394 bound_to 11000
  140.2536  134.3654  155.7433 LP  0  0  0  0  0  0  0  0  0  0  0  0  # atno 17395 bound_to 11000

$$$$
