AV-unprocessed.smi:1047|AV-procd|sdf|4568|dock1
  -GOLD-   22720 3 23D 1   1.00000     0.00000
 Structure written by MMmdl.
 56 58  0  0  0  0  0  0  0  0  2 V2000
  151.5232  129.1371  154.8675 C   0  0  0  0  0  0  0  0  0  0  0  0
  151.0785  130.4743  155.4773 C   0  0  0  0  0  0  0  0  0  0  0  0
  150.1783  131.2640  154.6386 N   0  0  0  0  0  0  0  0  0  0  0  0
  148.8629  130.6453  154.4919 C   0  0  0  0  0  0  0  0  0  0  0  0
  147.9174  131.5048  153.6354 C   0  0  0  0  0  0  0  0  0  0  0  0
  147.8202  132.8119  154.1920 O   0  0  0  0  0  0  0  0  0  0  0  0
  149.0810  133.4693  154.2914 C   0  0  1  0  0  0  0  0  0  0  0  0
  148.8498  134.8653  154.8848 C   0  0  0  0  0  0  0  0  0  0  0  0
  149.8846  135.8138  154.4275 N   0  3  0  0  0  0  0  0  0  0  0  0
  150.2022  136.8731  155.4055 C   0  0  0  0  0  0  0  0  0  0  0  0
  151.2332  137.8744  154.8468 C   0  0  2  0  0  0  0  0  0  0  0  0
  152.1606  137.1819  154.0351 O   0  0  0  0  0  0  0  0  0  0  0  0
  152.0383  138.6047  155.9403 C   0  0  0  0  0  0  0  0  0  0  0  0
  151.5261  139.9336  156.2218 N   0  0  0  0  0  0  0  0  0  0  0  0
  150.6398  140.6308  155.4856 C   0  0  0  0  0  0  0  0  0  0  0  0
  150.2969  141.8371  155.9278 N   0  0  0  0  0  0  0  0  0  0  0  0
  151.0543  141.9378  157.0819 C   0  0  0  0  0  0  0  0  0  0  0  0
  151.1502  142.9818  158.0278 C   0  0  0  0  0  0  0  0  0  0  0  0
  151.9965  142.8646  159.1533 C   0  0  0  0  0  0  0  0  0  0  0  0
  152.0668  144.0111  160.1468 C   0  0  0  0  0  0  0  0  0  0  0  0
  152.7651  141.6883  159.3453 C   0  0  0  0  0  0  0  0  0  0  0  0
  153.6805  141.5404  160.5477 C   0  0  0  0  0  0  0  0  0  0  0  0
  152.6831  140.6368  158.4088 C   0  0  0  0  0  0  0  0  0  0  0  0
  151.8362  140.7648  157.2934 C   0  0  0  0  0  0  0  0  0  0  0  0
  150.0116  132.6115  155.1717 C   0  0  0  0  0  0  0  0  0  0  0  0
  152.2716  128.6589  155.4996 H   0  0  0  0  0  0  0  0  0  0  0  0
  151.9673  129.2828  153.8823 H   0  0  0  0  0  0  0  0  0  0  0  0
  150.6932  128.4384  154.7653 H   0  0  0  0  0  0  0  0  0  0  0  0
  150.6197  130.2957  156.4509 H   0  0  0  0  0  0  0  0  0  0  0  0
  151.9790  131.0579  155.6732 H   0  0  0  0  0  0  0  0  0  0  0  0
  148.9560  129.6634  154.0286 H   0  0  0  0  0  0  0  0  0  0  0  0
  148.4162  130.4868  155.4746 H   0  0  0  0  0  0  0  0  0  0  0  0
  148.2771  131.5666  152.6070 H   0  0  0  0  0  0  0  0  0  0  0  0
  146.9244  131.0567  153.6011 H   0  0  0  0  0  0  0  0  0  0  0  0
  149.5177  133.5687  153.2956 H   0  0  0  0  0  0  0  0  0  0  0  0
  147.8610  135.2348  154.6095 H   0  0  0  0  0  0  0  0  0  0  0  0
  148.8832  134.8134  155.9737 H   0  0  0  0  0  0  0  0  0  0  0  0
  150.7290  135.2966  154.2289 H   0  0  0  0  0  0  0  0  0  0  0  0
  149.2707  137.3855  155.6460 H   0  0  0  0  0  0  0  0  0  0  0  0
  150.5679  136.4263  156.3314 H   0  0  0  0  0  0  0  0  0  0  0  0
  150.7266  138.6159  154.2271 H   0  0  0  0  0  0  0  0  0  0  0  0
  151.7198  136.8732  153.2586 H   0  0  0  0  0  0  0  0  0  0  0  0
  152.0381  138.0280  156.8662 H   0  0  0  0  0  0  0  0  0  0  0  0
  153.0819  138.7023  155.6373 H   0  0  0  0  0  0  0  0  0  0  0  0
  150.2188  140.2278  154.5759 H   0  0  0  0  0  0  0  0  0  0  0  0
  150.5643  143.8775  157.8819 H   0  0  0  0  0  0  0  0  0  0  0  0
  153.0909  144.3723  160.2436 H   0  0  0  0  0  0  0  0  0  0  0  0
  151.7184  143.6873  161.1279 H   0  0  0  0  0  0  0  0  0  0  0  0
  151.4458  144.8502  159.8314 H   0  0  0  0  0  0  0  0  0  0  0  0
  154.1668  140.5646  160.5604 H   0  0  0  0  0  0  0  0  0  0  0  0
  153.1160  141.6445  161.4746 H   0  0  0  0  0  0  0  0  0  0  0  0
  154.4599  142.3025  160.5293 H   0  0  0  0  0  0  0  0  0  0  0  0
  153.2631  139.7360  158.5438 H   0  0  0  0  0  0  0  0  0  0  0  0
  149.6097  132.5604  156.1849 H   0  0  0  0  0  0  0  0  0  0  0  0
  150.9847  133.0985  155.2475 H   0  0  0  0  0  0  0  0  0  0  0  0
  149.5627  136.2485  153.5742 H   0  0  0  0  0  0  0  0  0  0  0  0
  1  2  1  0  0  0  0
  1 26  1  0  0  0  0
  1 27  1  0  0  0  0
  1 28  1  0  0  0  0
  2  3  1  0  0  0  0
  2 29  1  0  0  0  0
  2 30  1  0  0  0  0
  3 25  1  0  0  0  0
  3  4  1  0  0  0  0
  4  5  1  0  0  0  0
  4 31  1  0  0  0  0
  4 32  1  0  0  0  0
  5  6  1  0  0  0  0
  5 33  1  0  0  0  0
  5 34  1  0  0  0  0
  6  7  1  0  0  0  0
  7  8  1  0  0  0  0
  7 25  1  0  0  0  0
  7 35  1  0  0  0  0
  8  9  1  0  0  0  0
  8 36  1  0  0  0  0
  8 37  1  0  0  0  0
  9 10  1  0  0  0  0
  9 38  1  0  0  0  0
  9 56  1  0  0  0  0
 10 11  1  0  0  0  0
 10 39  1  0  0  0  0
 10 40  1  0  0  0  0
 11 12  1  0  0  0  0
 11 13  1  0  0  0  0
 11 41  1  0  0  0  0
 12 42  1  0  0  0  0
 13 14  1  0  0  0  0
 13 43  1  0  0  0  0
 13 44  1  0  0  0  0
 14 24  1  0  0  0  0
 14 15  1  0  0  0  0
 15 16  2  0  0  0  0
 15 45  1  0  0  0  0
 16 17  1  0  0  0  0
 17 24  2  0  0  0  0
 17 18  1  0  0  0  0
 18 19  2  0  0  0  0
 18 46  1  0  0  0  0
 19 20  1  0  0  0  0
 19 21  1  0  0  0  0
 20 47  1  0  0  0  0
 20 48  1  0  0  0  0
 20 49  1  0  0  0  0
 21 22  1  0  0  0  0
 21 23  2  0  0  0  0
 22 50  1  0  0  0  0
 22 51  1  0  0  0  0
 22 52  1  0  0  0  0
 23 24  1  0  0  0  0
 23 53  1  0  0  0  0
 25 54  1  0  0  0  0
 25 55  1  0  0  0  0
M  CHG  1   9   1
M  END
> <s_m_source_file>
AV-unprocessed.smi

> <i_m_source_file_index>
1047

> <i_lp_mmshare_version>
43012

> <i_f3d_flags>
0

> <s_epik_input>
W0NIM11bQ0gyXU4xW0NIMl1bQ0gyXU9bQ0BIXShbQ0gyXTEpW0NIMl1bTkhdW0NIMl1bQ0BIXShbT0hdKVtDSDJdbihbY0hdbjIpYyhjMjMpW2NIXWMoW0NIM10pYyhbY0hdMylbQ0gzXQ==

> <s_epik_cmdline>
J2VwaWtfcHl0aG9uJywgJy1waCcsICc3LjAnLCAnLXRuJywgJzgnLCAnLW1hJywgJzIwMCcsICctbWV0YWxfYmluZGluZycsICctaW1hZScsICc8aW5maWxlLm1hZT4nLCAnLW9tYWUnLCAnPG91dGZpbGUubWFlPic=

> <r_epik_Ionization_Penalty>
0.692425

> <r_epik_Ionization_Penalty_Charging>
0.0243549

> <r_epik_Ionization_Penalty_Neutral>
0.66807

> <r_epik_State_Penalty>
0.592789

> <r_epik_Charging_Adjusted_Penalty>
0.617144

> <i_epik_Tot_Q>
1

> <i_epik_Tot_abs_Q>
1

> <r_epik_Metal_State_Penalty>
0.508021

> <b_epik_Metal_Only>
0

> <s_lp_Force_Field>
OPLS_2005

> <r_lp_Energy>
31.7658

> <b_lp_Chiralities_Consistent>
1

> <s_lp_Variant>
AV-unprocessed.smi:1047-9

> <Gold.Version>
5.8.1

> <Gold.Id.Protein>
6NUR|6NUR_protein|mol2

> <Gold.PLP.Fitness>
58.0253

> <Gold.PLP.PLP>
-49.5323

> <Gold.PLP.part.hbond>
-3.6072

> <Gold.PLP.part.metal>
0.0000

> <Gold.PLP.part.buried>
-2.7640

> <Gold.PLP.part.nonpolar>
-42.8829

> <Gold.PLP.part.repulsive>
0.2478

> <Gold.PLP.ligand.clash>
0.0000

> <Gold.PLP.ligand.torsion>
1.5604

> <Gold.PLP.Chemscore.Hbond>
3.6480

> <Gold.PLP.Chemscore.CHOScore>
0.0000

> <Gold.PLP.Chemscore.Metal>
0.0000

> <Gold.Chemscore.Hbonds>
donor molecule, donor type, donor heavy atom, donor atom, acceptor molecule, acceptor atom, score
      L1  H     9    56       P1  7948  2.00
      L1  H    12    42       P1  7949  0.96
      P1  H 10752 10765       L1    12  0.64

> <Gold.PLP.Chemscore.Internal.Correction>
0.6698

> <Gold.Rescore>
     Score         DG    S(hbond)    S(metal)    S(lipo)     H(rot)  DE(clash)    DE(int)     intcor
     19.28     -20.74       2.26        0.00     123.03       2.60       0.08       1.38       ----

> <Gold.Chemscore.Fitness>
19.2819

> <Gold.Chemscore.DG>
-20.7424

> <Gold.Chemscore.ZeroCoef>
-5.4800

> <Gold.Chemscore.Hbond>
2.2563

> <Gold.Chemscore.Metal>
0.0000

> <Gold.Chemscore.Lipo>
123.0340

> <Gold.Chemscore.Internal_Hbond>
0.0000

> <Gold.Chemscore.DEClash>
0.0801

> <Gold.Chemscore.DEInternal>
1.3805

> <Gold.Chemscore.Rot>
2.6049

> <Gold.Chemscore.Internal.Correction>
   9.000000E+99

> <Gold.Chemscore.Hbonds>
donor molecule, donor type, donor heavy atom, donor atom, acceptor molecule, acceptor atom, score
      L1  H     9    56       P1  7948  0.48
      L1  H    12    42       P1  7949  0.88
      P1  H 10752 10765       L1    12  0.11

> <Gold.Chemscore.Hbond.Weighted>
-7.5359

> <Gold.Chemscore.Metal.Weighted>
-0.0000

> <Gold.Chemscore.Lipo.Weighted>
-14.3950

> <Gold.Chemscore.Internal_Hbond.Weighted>
0.0000

> <Gold.Chemscore.DEClash.Weighted>
0.0801

> <Gold.Chemscore.DEInternal.Weighted>
1.3805

> <Gold.Chemscore.Rot.Weighted>
6.6685

> <Gold.Chemscore.Internal.Correction.Weighted>
   9.000000E+99

> <Gold.Protein.RotatedTorsions>
[ 6907 6896 6895 6894 ] final  100.43 input  -60.11 | X-H torsion
[ 7974 7965 7964 7962 ] final  -18.80 input  175.53 | X-H torsion
[ 8008 7997 7996 7995 ] final -113.76 input   59.86 | X-H torsion
[ 10167 10162 10161 10158 ] final  -43.72 input  -65.29 | X-H torsion
[ 10718 10713 10712 10709 ] final -127.97 input   66.30 | X-H torsion
[ 10763 10752 10751 10750 ] final  172.39 input  -60.55 | X-H torsion
[ 11005 11000 10999 10996 ] final  -25.22 input  -57.11 | X-H torsion

> <Gold.Protein.ActiveResidues>
 VAL166  LYS551  ARG553  GLY616  TRP617  ASP618  TYR619  PRO620  LYS621  CYS622 
 ASP623  PHE694  ASN695  SER759  ASP760  ASP761  ALA762  ILE779  LEU786  VAL792 
 PHE793  MET794  SER795  GLU796  ALA797  LYS798  CYS799  TRP800  GLU811  SER814 

> <Gold.Protein.RotatedAtoms>
  152.5372  134.0278  159.8010 H   0  0  0  0  0  0  0  0  0  0  0  0  # atno 6907 bound_to 6896
  151.0454  133.5662  159.2654 H   0  0  0  0  0  0  0  0  0  0  0  0  # atno 6908 bound_to 6896
  151.2616  135.0663  159.9154 H   0  0  0  0  0  0  0  0  0  0  0  0  # atno 6909 bound_to 6896
  146.1874  140.3972  142.8471 H   0  0  0  0  0  0  0  0  0  0  0  0  # atno 7974 bound_to 7965
  155.0257  140.0393  157.2454 H   0  0  0  0  0  0  0  0  0  0  0  0  # atno 8008 bound_to 7997
  154.7340  140.2736  155.6408 H   0  0  0  0  0  0  0  0  0  0  0  0  # atno 8009 bound_to 7997
  156.2848  140.2678  156.2048 H   0  0  0  0  0  0  0  0  0  0  0  0  # atno 8010 bound_to 7997
  140.6923  143.2968  151.3392 H   0  0  0  0  0  0  0  0  0  0  0  0  # atno 10167 bound_to 10162
  156.1907  130.6793  151.0421 H   0  0  0  0  0  0  0  0  0  0  0  0  # atno 10718 bound_to 10713
  154.4254  135.2758  155.1948 H   0  0  0  0  0  0  0  0  0  0  0  0  # atno 10763 bound_to 10752
  154.3876  135.6073  153.5829 H   0  0  0  0  0  0  0  0  0  0  0  0  # atno 10764 bound_to 10752
  152.9834  135.5895  154.4556 H   0  0  0  0  0  0  0  0  0  0  0  0  # atno 10765 bound_to 10752
  140.8918  133.7583  156.0430 H   0  0  0  0  0  0  0  0  0  0  0  0  # atno 11005 bound_to 11000
  144.8422  140.6875  143.6222 LP  0  0  0  0  0  0  0  0  0  0  0  0  # atno 17320 bound_to 7965
  145.3898  139.1619  143.4235 LP  0  0  0  0  0  0  0  0  0  0  0  0  # atno 17321 bound_to 7965
  139.6340  144.0666  152.2500 LP  0  0  0  0  0  0  0  0  0  0  0  0  # atno 17342 bound_to 10162
  140.0150  144.6195  150.7615 LP  0  0  0  0  0  0  0  0  0  0  0  0  # atno 17343 bound_to 10162
  157.6927  131.0804  150.7060 LP  0  0  0  0  0  0  0  0  0  0  0  0  # atno 17370 bound_to 10713
  156.7117  130.4653  149.5545 LP  0  0  0  0  0  0  0  0  0  0  0  0  # atno 17371 bound_to 10713
  140.8338  134.3147  157.5339 LP  0  0  0  0  0  0  0  0  0  0  0  0  # atno 17394 bound_to 11000
  139.8730  134.9378  156.3697 LP  0  0  0  0  0  0  0  0  0  0  0  0  # atno 17395 bound_to 11000

$$$$
