AV-unprocessed.smi:3318|AV-procd|sdf|12762|dock6
  -GOLD-   2272019103D 1   1.00000     0.00000
 Structure written by MMmdl.
 45 46  0  0  0  0  0  0  0  0  3 V2000
  144.7493  131.8965  150.8562 C   0  0  0  0  0  0  0  0  0  0  0  0
  144.8658  133.2434  151.5782 C   0  0  0  0  0  0  0  0  0  0  0  0
  146.3284  133.6905  151.7490 C   0  0  0  0  0  0  0  0  0  0  0  0
  146.4458  135.1160  152.1499 N   0  3  2  0  0  0  0  0  0  0  0  0
  146.1383  135.3217  153.5892 C   0  0  0  0  0  0  0  0  0  0  0  0
  146.3964  136.7782  154.0132 C   0  0  0  0  0  0  0  0  0  0  0  0
  145.5875  137.7658  153.1559 C   0  0  1  0  0  0  0  0  0  0  0  0
  145.8956  139.1574  153.5590 N   0  3  0  0  0  0  0  0  0  0  0  0
  147.1599  139.7091  153.0242 C   0  0  0  0  0  0  0  0  0  0  0  0
  147.9306  140.4972  154.0952 C   0  0  0  0  0  0  0  0  0  0  0  0
  149.2790  139.8837  154.4283 C   0  0  0  0  0  0  0  0  0  0  0  0
  150.1733  140.5354  155.3045 C   0  0  0  0  0  0  0  0  0  0  0  0
  151.4104  139.9204  155.5788 C   0  0  0  0  0  0  0  0  0  0  0  0
  151.7051  138.6869  154.9666 C   0  0  0  0  0  0  0  0  0  0  0  0
  150.7455  138.1193  154.1051 C   0  0  0  0  0  0  0  0  0  0  0  0
  149.5570  138.7015  153.8349 N   0  0  0  0  0  0  0  0  0  0  0  0
  145.9005  137.5080  151.6690 C   0  0  0  0  0  0  0  0  0  0  0  0
  145.6543  136.0365  151.2905 C   0  0  0  0  0  0  0  0  0  0  0  0
  143.7050  131.6021  150.7498 H   0  0  0  0  0  0  0  0  0  0  0  0
  145.2626  131.1079  151.4070 H   0  0  0  0  0  0  0  0  0  0  0  0
  145.1832  131.9452  149.8570 H   0  0  0  0  0  0  0  0  0  0  0  0
  144.3149  133.9980  151.0156 H   0  0  0  0  0  0  0  0  0  0  0  0
  144.3738  133.1597  152.5468 H   0  0  0  0  0  0  0  0  0  0  0  0
  146.8476  133.0556  152.4687 H   0  0  0  0  0  0  0  0  0  0  0  0
  146.8343  133.5484  150.7929 H   0  0  0  0  0  0  0  0  0  0  0  0
  145.0994  135.0502  153.7839 H   0  0  0  0  0  0  0  0  0  0  0  0
  146.7573  134.6601  154.1967 H   0  0  0  0  0  0  0  0  0  0  0  0
  146.1419  136.9022  155.0667 H   0  0  0  0  0  0  0  0  0  0  0  0
  147.4622  136.9960  153.9260 H   0  0  0  0  0  0  0  0  0  0  0  0
  144.5262  137.5862  153.3367 H   0  0  0  0  0  0  0  0  0  0  0  0
  145.1484  139.7455  153.2168 H   0  0  0  0  0  0  0  0  0  0  0  0
  147.7877  138.8959  152.6608 H   0  0  0  0  0  0  0  0  0  0  0  0
  146.9465  140.3545  152.1709 H   0  0  0  0  0  0  0  0  0  0  0  0
  148.0693  141.5297  153.7710 H   0  0  0  0  0  0  0  0  0  0  0  0
  147.3372  140.5461  155.0093 H   0  0  0  0  0  0  0  0  0  0  0  0
  149.9196  141.4808  155.7614 H   0  0  0  0  0  0  0  0  0  0  0  0
  152.1200  140.3857  156.2469 H   0  0  0  0  0  0  0  0  0  0  0  0
  152.6432  138.1860  155.1555 H   0  0  0  0  0  0  0  0  0  0  0  0
  150.9372  137.1735  153.6202 H   0  0  0  0  0  0  0  0  0  0  0  0
  145.2843  138.1414  151.0307 H   0  0  0  0  0  0  0  0  0  0  0  0
  146.9382  137.7693  151.4563 H   0  0  0  0  0  0  0  0  0  0  0  0
  145.9166  135.8977  150.2424 H   0  0  0  0  0  0  0  0  0  0  0  0
  144.5933  135.7991  151.3827 H   0  0  0  0  0  0  0  0  0  0  0  0
  147.4186  135.3613  152.0317 H   0  0  0  0  0  0  0  0  0  0  0  0
  145.9102  139.2163  154.5672 H   0  0  0  0  0  0  0  0  0  0  0  0
  1  2  1  0  0  0  0
  1 19  1  0  0  0  0
  1 20  1  0  0  0  0
  1 21  1  0  0  0  0
  2  3  1  0  0  0  0
  2 22  1  0  0  0  0
  2 23  1  0  0  0  0
  3  4  1  0  0  0  0
  3 24  1  0  0  0  0
  3 25  1  0  0  0  0
  4 18  1  0  0  0  0
  4  5  1  0  0  0  0
  4 44  1  0  0  0  0
  5  6  1  0  0  0  0
  5 26  1  0  0  0  0
  5 27  1  0  0  0  0
  6  7  1  0  0  0  0
  6 28  1  0  0  0  0
  6 29  1  0  0  0  0
  7  8  1  0  0  0  0
  7 17  1  0  0  0  0
  7 30  1  0  0  0  0
  8  9  1  0  0  0  0
  8 31  1  0  0  0  0
  8 45  1  0  0  0  0
  9 10  1  0  0  0  0
  9 32  1  0  0  0  0
  9 33  1  0  0  0  0
 10 11  1  0  0  0  0
 10 34  1  0  0  0  0
 10 35  1  0  0  0  0
 11 16  1  0  0  0  0
 11 12  2  0  0  0  0
 12 13  1  0  0  0  0
 12 36  1  0  0  0  0
 13 14  2  0  0  0  0
 13 37  1  0  0  0  0
 14 15  1  0  0  0  0
 14 38  1  0  0  0  0
 15 16  2  0  0  0  0
 15 39  1  0  0  0  0
 17 18  1  0  0  0  0
 17 40  1  0  0  0  0
 17 41  1  0  0  0  0
 18 42  1  0  0  0  0
 18 43  1  0  0  0  0
M  CHG  1   4   1
M  CHG  1   8   1
M  END
> <s_m_source_file>
AV-unprocessed.smi

> <i_m_source_file_index>
3318

> <i_lp_mmshare_version>
43012

> <i_f3d_flags>
0

> <s_epik_input>
W0NIM11bQ0gyXVtDSDJdTjFbQ0gyXVtDSDJdW0NIXShbQ0gyXVtDSDJdMSlbTkhdW0NIMl1bQ0gyXWMyW2NIXVtjSF1bY0hdW2NIXW4y

> <s_epik_cmdline>
J2VwaWtfcHl0aG9uJywgJy1waCcsICc3LjAnLCAnLXRuJywgJzgnLCAnLW1hJywgJzIwMCcsICctbWV0YWxfYmluZGluZycsICctaW1hZScsICc8aW5maWxlLm1hZT4nLCAnLW9tYWUnLCAnPG91dGZpbGUubWFlPic=

> <r_epik_Ionization_Penalty>
0.0638186

> <r_epik_Ionization_Penalty_Charging>
0.0628538

> <r_epik_Ionization_Penalty_Neutral>
0.000964829

> <r_epik_State_Penalty>
0.0518488

> <r_epik_Charging_Adjusted_Penalty>
0.114703

> <i_epik_Tot_Q>
2

> <i_epik_Tot_abs_Q>
2

> <r_epik_Metal_State_Penalty>
0.0535981

> <b_epik_Metal_Only>
0

> <s_lp_Force_Field>
OPLS_2005

> <r_lp_Energy>
28.1617

> <b_lp_Chiralities_Consistent>
1

> <s_lp_Variant>
AV-unprocessed.smi:3318-1

> <Gold.Version>
5.8.1

> <Gold.Id.Protein>
6NUR|6NUR_protein|mol2

> <Gold.PLP.Fitness>
47.4416

> <Gold.PLP.PLP>
-34.1195

> <Gold.PLP.part.hbond>
-2.0000

> <Gold.PLP.part.metal>
0.0000

> <Gold.PLP.part.buried>
-1.5981

> <Gold.PLP.part.nonpolar>
-31.5431

> <Gold.PLP.part.repulsive>
1.2078

> <Gold.PLP.ligand.clash>
0.0000

> <Gold.PLP.ligand.torsion>
1.0078

> <Gold.PLP.Chemscore.Hbond>
4.0000

> <Gold.PLP.Chemscore.CHOScore>
1.0950

> <Gold.PLP.Chemscore.Metal>
0.0000

> <Gold.Chemscore.Hbonds>
donor molecule, donor type, donor heavy atom, donor atom, acceptor molecule, acceptor atom, score
      L1  H     4    44       P1  7948  2.00
      L1  H     8    31       P1 10175  2.00
      L1  C    15    39       P1  7948  0.09
      L1  C    15    39       P1  7949  1.00

> <Gold.PLP.Chemscore.Internal.Correction>
0.0527

> <Gold.Rescore>
     Score         DG    S(hbond)    S(metal)    S(lipo)     H(rot)  DE(clash)    DE(int)     intcor
     17.65     -18.79       1.99        0.00      91.01       1.55       0.14       1.00       ----

> <Gold.Chemscore.Fitness>
17.6455

> <Gold.Chemscore.DG>
-18.7911

> <Gold.Chemscore.ZeroCoef>
-5.4800

> <Gold.Chemscore.Hbond>
1.9877

> <Gold.Chemscore.Metal>
0.0000

> <Gold.Chemscore.Lipo>
91.0125

> <Gold.Chemscore.Internal_Hbond>
0.0000

> <Gold.Chemscore.DEClash>
0.1440

> <Gold.Chemscore.DEInternal>
1.0016

> <Gold.Chemscore.Rot>
1.5532

> <Gold.Chemscore.Internal.Correction>
   9.000000E+99

> <Gold.Chemscore.Hbonds>
donor molecule, donor type, donor heavy atom, donor atom, acceptor molecule, acceptor atom, score
      L1  H     4    44       P1  7948  1.00
      L1  H     8    31       P1 10175  1.00

> <Gold.Chemscore.Hbond.Weighted>
-6.6389

> <Gold.Chemscore.Metal.Weighted>
-0.0000

> <Gold.Chemscore.Lipo.Weighted>
-10.6485

> <Gold.Chemscore.Internal_Hbond.Weighted>
0.0000

> <Gold.Chemscore.DEClash.Weighted>
0.1440

> <Gold.Chemscore.DEInternal.Weighted>
1.0016

> <Gold.Chemscore.Rot.Weighted>
3.9762

> <Gold.Chemscore.Internal.Correction.Weighted>
   9.000000E+99

> <Gold.Protein.RotatedTorsions>
[ 6907 6896 6895 6894 ] final  170.94 input  -60.11 | X-H torsion
[ 7974 7965 7964 7962 ] final   12.67 input  175.53 | X-H torsion
[ 8008 7997 7996 7995 ] final   85.37 input   59.86 | X-H torsion
[ 10167 10162 10161 10158 ] final  132.92 input  -65.29 | X-H torsion
[ 10718 10713 10712 10709 ] final  144.79 input   66.30 | X-H torsion
[ 10763 10752 10751 10750 ] final  138.67 input  -60.55 | X-H torsion
[ 11005 11000 10999 10996 ] final   63.21 input  -57.11 | X-H torsion

> <Gold.Protein.ActiveResidues>
 VAL166  LYS551  ARG553  GLY616  TRP617  ASP618  TYR619  PRO620  LYS621  CYS622 
 ASP623  PHE694  ASN695  SER759  ASP760  ASP761  ALA762  ILE779  LEU786  VAL792 
 PHE793  MET794  SER795  GLU796  ALA797  LYS798  CYS799  TRP800  GLU811  SER814 

> <Gold.Protein.RotatedAtoms>
  151.8081  133.3378  159.3546 H   0  0  0  0  0  0  0  0  0  0  0  0  # atno 6907 bound_to 6896
  150.7335  134.5690  159.5890 H   0  0  0  0  0  0  0  0  0  0  0  0  # atno 6908 bound_to 6896
  152.3095  134.7516  160.0391 H   0  0  0  0  0  0  0  0  0  0  0  0  # atno 6909 bound_to 6896
  146.2346  139.9302  142.8497 H   0  0  0  0  0  0  0  0  0  0  0  0  # atno 7974 bound_to 7965
  155.9491  140.3402  155.6392 H   0  0  0  0  0  0  0  0  0  0  0  0  # atno 8008 bound_to 7997
  155.6942  140.0752  157.2454 H   0  0  0  0  0  0  0  0  0  0  0  0  # atno 8009 bound_to 7997
  154.4118  140.1651  156.2108 H   0  0  0  0  0  0  0  0  0  0  0  0  # atno 8010 bound_to 7997
  139.5319  144.6640  151.4921 H   0  0  0  0  0  0  0  0  0  0  0  0  # atno 10167 bound_to 10162
  157.3530  131.0953  151.0983 H   0  0  0  0  0  0  0  0  0  0  0  0  # atno 10718 bound_to 10713
  153.8935  135.3030  155.3448 H   0  0  0  0  0  0  0  0  0  0  0  0  # atno 10763 bound_to 10752
  154.7705  135.4888  153.9642 H   0  0  0  0  0  0  0  0  0  0  0  0  # atno 10764 bound_to 10752
  153.1285  135.6798  153.9317 H   0  0  0  0  0  0  0  0  0  0  0  0  # atno 10765 bound_to 10752
  140.0040  134.6399  155.9885 H   0  0  0  0  0  0  0  0  0  0  0  0  # atno 11005 bound_to 11000
  145.2052  140.9872  143.4132 LP  0  0  0  0  0  0  0  0  0  0  0  0  # atno 17320 bound_to 7965
  144.9739  139.3852  143.6295 LP  0  0  0  0  0  0  0  0  0  0  0  0  # atno 17321 bound_to 7965
  140.6502  143.8712  150.6778 LP  0  0  0  0  0  0  0  0  0  0  0  0  # atno 17342 bound_to 10162
  140.2074  143.3910  152.1744 LP  0  0  0  0  0  0  0  0  0  0  0  0  # atno 17343 bound_to 10162
  157.2152  130.6456  149.5789 LP  0  0  0  0  0  0  0  0  0  0  0  0  # atno 17370 bound_to 10713
  155.9724  130.4647  150.6227 LP  0  0  0  0  0  0  0  0  0  0  0  0  # atno 17371 bound_to 10713
  141.1663  133.6537  156.4491 LP  0  0  0  0  0  0  0  0  0  0  0  0  # atno 17394 bound_to 11000
  140.4676  134.6783  157.5114 LP  0  0  0  0  0  0  0  0  0  0  0  0  # atno 17395 bound_to 11000

$$$$
