AV-unprocessed.smi:2357|AV-procd|sdf|9401|dock1
  -GOLD-   2272013 33D 1   1.00000     0.00000
 Structure written by MMmdl.
 37 38  0  0  0  0  0  0  0  0  1 V2000
  154.5767  140.9214  161.8635 C   0  0  0  0  0  0  0  0  0  0  0  0
  153.7127  141.4722  160.7442 C   0  0  0  0  0  0  0  0  0  0  0  0
  153.0958  142.7758  160.8776 C   0  0  0  0  0  0  0  0  0  0  0  0
  152.3421  143.2515  159.8750 C   0  0  0  0  0  0  0  0  0  0  0  0
  152.1279  142.5194  158.6940 N   0  0  0  0  0  0  0  0  0  0  0  0
  151.3007  143.1473  157.6509 C   0  0  0  0  0  0  0  0  0  0  0  0
  150.2183  142.1943  157.1295 C   0  0  0  0  0  0  0  0  0  0  0  0
  149.4510  141.6389  157.9159 O   0  0  0  0  0  0  0  0  0  0  0  0
  150.1732  142.0162  155.8011 N   0  0  0  0  0  0  0  0  0  0  0  0
  149.1629  141.2403  155.0890 C   0  0  0  0  0  0  0  0  0  0  0  0
  149.7591  140.0380  154.3260 C   0  0  2  0  0  0  0  0  0  0  0  0
  149.3400  138.6496  154.8246 C   0  0  0  0  0  0  0  0  0  0  0  0
  150.5129  137.8009  154.3895 C   0  0  0  0  0  0  0  0  0  0  0  0
  151.6832  138.7459  154.6387 C   0  0  0  0  0  0  0  0  0  0  0  0
  151.1853  140.0510  154.3614 O   0  0  0  0  0  0  0  0  0  0  0  0
  152.6724  141.2798  158.5018 C   0  0  0  0  0  0  0  0  0  0  0  0
  152.4759  140.6396  157.4666 O   0  0  0  0  0  0  0  0  0  0  0  0
  153.5027  140.7707  159.6046 C   0  0  0  0  0  0  0  0  0  0  0  0
  154.0820  139.4825  159.3966 C   0  0  0  0  0  0  0  0  0  0  0  0
  154.5684  138.4469  159.2204 N   0  0  0  0  0  0  0  0  0  0  0  0
  154.6491  141.6284  162.6904 H   0  0  0  0  0  0  0  0  0  0  0  0
  155.5855  140.7195  161.5027 H   0  0  0  0  0  0  0  0  0  0  0  0
  154.1549  139.9926  162.2484 H   0  0  0  0  0  0  0  0  0  0  0  0
  153.2429  143.3656  161.7705 H   0  0  0  0  0  0  0  0  0  0  0  0
  151.8646  144.2200  159.9110 H   0  0  0  0  0  0  0  0  0  0  0  0
  150.8475  144.0641  158.0333 H   0  0  0  0  0  0  0  0  0  0  0  0
  151.9128  143.4614  156.8046 H   0  0  0  0  0  0  0  0  0  0  0  0
  150.8527  142.5035  155.2352 H   0  0  0  0  0  0  0  0  0  0  0  0
  148.4485  140.8777  155.8285 H   0  0  0  0  0  0  0  0  0  0  0  0
  148.5990  141.8806  154.4087 H   0  0  0  0  0  0  0  0  0  0  0  0
  149.4828  140.1217  153.2740 H   0  0  0  0  0  0  0  0  0  0  0  0
  149.2575  138.6152  155.9112 H   0  0  0  0  0  0  0  0  0  0  0  0
  148.3916  138.3161  154.4025 H   0  0  0  0  0  0  0  0  0  0  0  0
  150.5953  136.8649  154.9429 H   0  0  0  0  0  0  0  0  0  0  0  0
  150.4356  137.5677  153.3266 H   0  0  0  0  0  0  0  0  0  0  0  0
  151.9885  138.7063  155.6849 H   0  0  0  0  0  0  0  0  0  0  0  0
  152.5516  138.5097  154.0237 H   0  0  0  0  0  0  0  0  0  0  0  0
  1  2  1  0  0  0  0
  1 21  1  0  0  0  0
  1 22  1  0  0  0  0
  1 23  1  0  0  0  0
  2 18  2  0  0  0  0
  2  3  1  0  0  0  0
  3  4  2  0  0  0  0
  3 24  1  0  0  0  0
  4  5  1  0  0  0  0
  4 25  1  0  0  0  0
  5  6  1  0  0  0  0
  5 16  1  0  0  0  0
  6  7  1  0  0  0  0
  6 26  1  0  0  0  0
  6 27  1  0  0  0  0
  7  8  2  0  0  0  0
  7  9  1  0  0  0  0
  9 10  1  0  0  0  0
  9 28  1  0  0  0  0
 10 11  1  0  0  0  0
 10 29  1  0  0  0  0
 10 30  1  0  0  0  0
 11 15  1  0  0  0  0
 11 12  1  0  0  0  0
 11 31  1  0  0  0  0
 12 13  1  0  0  0  0
 12 32  1  0  0  0  0
 12 33  1  0  0  0  0
 13 14  1  0  0  0  0
 13 34  1  0  0  0  0
 13 35  1  0  0  0  0
 14 15  1  0  0  0  0
 14 36  1  0  0  0  0
 14 37  1  0  0  0  0
 16 17  2  0  0  0  0
 16 18  1  0  0  0  0
 18 19  1  0  0  0  0
 19 20  3  0  0  0  0
M  END
> <s_m_source_file>
AV-unprocessed.smi

> <i_m_source_file_index>
2357

> <i_lp_mmshare_version>
43012

> <i_f3d_flags>
0

> <s_epik_input>
W0NIM11jMVtjSF1bY0hdbihjKD1PKWMxQyNOKVtDSDJdQyg9TylbTkhdW0NIMl1bQ0BASF0yW0NIMl1bQ0gyXVtDSDJdTzI=

> <s_epik_cmdline>
J2VwaWtfcHl0aG9uJywgJy1waCcsICc3LjAnLCAnLXRuJywgJzgnLCAnLW1hJywgJzIwMCcsICctbWV0YWxfYmluZGluZycsICctaW1hZScsICc8aW5maWxlLm1hZT4nLCAnLW9tYWUnLCAnPG91dGZpbGUubWFlPic=

> <r_lp_tautomer_probability>
1

> <r_epik_Ionization_Penalty>
2.71597e-08

> <r_epik_Ionization_Penalty_Charging>
3.00645e-10

> <r_epik_Ionization_Penalty_Neutral>
2.6859e-08

> <r_epik_State_Penalty>
-0

> <r_epik_Charging_Adjusted_Penalty>
3.00645e-10

> <i_epik_Tot_Q>
0

> <i_epik_Tot_abs_Q>
0

> <r_epik_Metal_State_Penalty>
-0

> <b_epik_Metal_Only>
0

> <s_lp_Force_Field>
OPLS_2005

> <r_lp_Energy>
27.3681

> <b_lp_Chiralities_Consistent>
1

> <s_lp_Variant>
AV-unprocessed.smi:2357-1

> <Gold.Version>
5.8.1

> <Gold.Id.Protein>
6NUR|6NUR_protein|mol2

> <Gold.PLP.Fitness>
42.2854

> <Gold.PLP.PLP>
-41.0555

> <Gold.PLP.part.hbond>
-2.4743

> <Gold.PLP.part.metal>
0.0000

> <Gold.PLP.part.buried>
-3.1717

> <Gold.PLP.part.nonpolar>
-35.7196

> <Gold.PLP.part.repulsive>
0.3017

> <Gold.PLP.ligand.clash>
0.0000

> <Gold.PLP.ligand.torsion>
0.8890

> <Gold.PLP.Chemscore.Hbond>
0.9913

> <Gold.PLP.Chemscore.CHOScore>
0.0000

> <Gold.PLP.Chemscore.Metal>
0.0000

> <Gold.Chemscore.Hbonds>
donor molecule, donor type, donor heavy atom, donor atom, acceptor molecule, acceptor atom, score
      P1  H  7989  7998       L1    15  0.34

> <Gold.PLP.Chemscore.Internal.Correction>
0.0342

> <Gold.Rescore>
     Score         DG    S(hbond)    S(metal)    S(lipo)     H(rot)  DE(clash)    DE(int)     intcor
     12.52     -14.72       0.90        0.00      91.73       1.76       0.01       2.18       ----

> <Gold.Chemscore.Fitness>
12.5242

> <Gold.Chemscore.DG>
-14.7169

> <Gold.Chemscore.ZeroCoef>
-5.4800

> <Gold.Chemscore.Hbond>
0.8996

> <Gold.Chemscore.Metal>
0.0000

> <Gold.Chemscore.Lipo>
91.7270

> <Gold.Chemscore.Internal_Hbond>
0.0000

> <Gold.Chemscore.DEClash>
0.0110

> <Gold.Chemscore.DEInternal>
2.1817

> <Gold.Chemscore.Rot>
1.7577

> <Gold.Chemscore.Internal.Correction>
   9.000000E+99

> <Gold.Chemscore.Hbonds>
donor molecule, donor type, donor heavy atom, donor atom, acceptor molecule, acceptor atom, score
      P1  H  7989  7998       L1    15  0.26

> <Gold.Chemscore.Hbond.Weighted>
-3.0046

> <Gold.Chemscore.Metal.Weighted>
-0.0000

> <Gold.Chemscore.Lipo.Weighted>
-10.7321

> <Gold.Chemscore.Internal_Hbond.Weighted>
0.0000

> <Gold.Chemscore.DEClash.Weighted>
0.0110

> <Gold.Chemscore.DEInternal.Weighted>
2.1817

> <Gold.Chemscore.Rot.Weighted>
4.4998

> <Gold.Chemscore.Internal.Correction.Weighted>
   9.000000E+99

> <Gold.Protein.RotatedTorsions>
[ 6907 6896 6895 6894 ] final  -76.81 input  -60.11 | X-H torsion
[ 7974 7965 7964 7962 ] final  102.63 input  175.53 | X-H torsion
[ 8008 7997 7996 7995 ] final   11.44 input   59.86 | X-H torsion
[ 10167 10162 10161 10158 ] final -160.29 input  -65.29 | X-H torsion
[ 10718 10713 10712 10709 ] final -139.70 input   66.30 | X-H torsion
[ 10763 10752 10751 10750 ] final -156.10 input  -60.55 | X-H torsion
[ 11005 11000 10999 10996 ] final  -11.44 input  -57.11 | X-H torsion

> <Gold.Protein.ActiveResidues>
 VAL166  LYS551  ARG553  GLY616  TRP617  ASP618  TYR619  PRO620  LYS621  CYS622 
 ASP623  PHE694  ASN695  SER759  ASP760  ASP761  ALA762  ILE779  LEU786  VAL792 
 PHE793  MET794  SER795  GLU796  ALA797  LYS798  CYS799  TRP800  GLU811  SER814 

> <Gold.Protein.RotatedAtoms>
  150.7016  134.4516  159.5338 H   0  0  0  0  0  0  0  0  0  0  0  0  # atno 6907 bound_to 6896
  152.2207  134.8412  160.0495 H   0  0  0  0  0  0  0  0  0  0  0  0  # atno 6908 bound_to 6896
  151.9264  133.3564  159.3952 H   0  0  0  0  0  0  0  0  0  0  0  0  # atno 6909 bound_to 6896
  145.3565  139.2427  143.3529 H   0  0  0  0  0  0  0  0  0  0  0  0  # atno 7974 bound_to 7965
  154.8069  140.2861  155.5881 H   0  0  0  0  0  0  0  0  0  0  0  0  # atno 8008 bound_to 7997
  156.2984  140.2576  156.2879 H   0  0  0  0  0  0  0  0  0  0  0  0  # atno 8009 bound_to 7997
  154.9493  140.0379  157.2125 H   0  0  0  0  0  0  0  0  0  0  0  0  # atno 8010 bound_to 7997
  139.6550  144.0014  152.2188 H   0  0  0  0  0  0  0  0  0  0  0  0  # atno 10167 bound_to 10162
  156.3138  130.7496  151.1578 H   0  0  0  0  0  0  0  0  0  0  0  0  # atno 10718 bound_to 10713
  154.7738  135.3153  154.8135 H   0  0  0  0  0  0  0  0  0  0  0  0  # atno 10763 bound_to 10752
  153.8864  135.6830  153.4767 H   0  0  0  0  0  0  0  0  0  0  0  0  # atno 10764 bound_to 10752
  153.1357  135.4761  154.9353 H   0  0  0  0  0  0  0  0  0  0  0  0  # atno 10765 bound_to 10752
  140.7553  133.8559  155.9078 H   0  0  0  0  0  0  0  0  0  0  0  0  # atno 11005 bound_to 11000
  146.2945  140.4191  142.8727 LP  0  0  0  0  0  0  0  0  0  0  0  0  # atno 17320 bound_to 7965
  144.8678  140.7230  143.6066 LP  0  0  0  0  0  0  0  0  0  0  0  0  # atno 17321 bound_to 7965
  139.9738  144.6475  150.7964 LP  0  0  0  0  0  0  0  0  0  0  0  0  # atno 17342 bound_to 10162
  140.7555  143.3048  151.2990 LP  0  0  0  0  0  0  0  0  0  0  0  0  # atno 17343 bound_to 10162
  157.7397  131.0526  150.5215 LP  0  0  0  0  0  0  0  0  0  0  0  0  # atno 17370 bound_to 10713
  156.5358  130.4196  149.6178 LP  0  0  0  0  0  0  0  0  0  0  0  0  # atno 17371 bound_to 10713
  140.9714  134.1527  157.4573 LP  0  0  0  0  0  0  0  0  0  0  0  0  # atno 17394 bound_to 11000
  139.8780  134.9979  156.5874 LP  0  0  0  0  0  0  0  0  0  0  0  0  # atno 17395 bound_to 11000

$$$$
