AV-unprocessed.smi:2855|AV-procd|sdf|10978|dock4
  -GOLD-   2272015433D 1   1.00000     0.00000
 Structure written by MMmdl.
 47 48  0  0  0  0  0  0  0  0  1 V2000
  146.7459  142.8097  154.2696 C   0  0  0  0  0  0  0  0  0  0  0  0
  147.7265  141.7207  153.8118 C   0  0  1  0  0  0  0  0  0  0  0  0
  148.8156  141.4606  154.8724 C   0  0  0  0  0  0  0  0  0  0  0  0
  149.7594  140.3170  154.4543 C   0  0  0  0  0  0  0  0  0  0  0  0
  148.9935  138.9978  154.1804 C   0  0  1  0  0  0  0  0  0  0  0  0
  148.3928  138.3505  155.4786 C   0  0  0  0  0  0  0  0  0  0  0  0
  149.4015  138.3284  156.6451 C   0  0  0  0  0  0  0  0  0  0  0  0
  147.8654  136.9154  155.2800 C   0  0  0  0  0  0  0  0  0  0  0  0
  147.9913  139.3180  153.0286 C   0  0  1  0  0  0  0  0  0  0  0  0
  147.2957  138.1557  152.4843 N   0  0  0  0  0  0  0  0  0  0  0  0
  146.1340  137.6588  152.9370 C   0  0  0  0  0  0  0  0  0  0  0  0
  145.5253  138.1363  153.8958 O   0  0  0  0  0  0  0  0  0  0  0  0
  145.5806  136.4511  152.1667 C   0  0  0  0  0  0  0  0  0  0  0  0
  144.2705  135.9980  152.6569 N   0  0  0  0  0  0  0  0  0  0  0  0
  143.1780  136.8529  152.6161 C   0  0  0  0  0  0  0  0  0  0  0  0
  141.9475  136.5129  153.0676 C   0  0  0  0  0  0  0  0  0  0  0  0
  141.7088  135.1909  153.6366 C   0  0  0  0  0  0  0  0  0  0  0  0
  140.6318  134.7901  154.0721 O   0  0  0  0  0  0  0  0  0  0  0  0
  142.8324  134.3605  153.6615 N   0  0  0  0  0  0  0  0  0  0  0  0
  144.1037  134.7049  153.1991 C   0  0  0  0  0  0  0  0  0  0  0  0
  145.0283  133.8967  153.2741 O   0  0  0  0  0  0  0  0  0  0  0  0
  146.9920  140.4170  153.4379 C   0  0  0  0  0  0  0  0  0  0  0  0
  142.7162  133.4358  154.0498 H   0  0  0  0  0  0  0  0  0  0  0  0
  146.2177  142.5116  155.1758 H   0  0  0  0  0  0  0  0  0  0  0  0
  146.0001  143.0152  153.5014 H   0  0  0  0  0  0  0  0  0  0  0  0
  147.2681  143.7435  154.4808 H   0  0  0  0  0  0  0  0  0  0  0  0
  148.2241  142.0873  152.9127 H   0  0  0  0  0  0  0  0  0  0  0  0
  149.3972  142.3694  155.0304 H   0  0  0  0  0  0  0  0  0  0  0  0
  148.3544  141.2286  155.8326 H   0  0  0  0  0  0  0  0  0  0  0  0
  150.2868  140.6162  153.5475 H   0  0  0  0  0  0  0  0  0  0  0  0
  150.5464  140.1830  155.1946 H   0  0  0  0  0  0  0  0  0  0  0  0
  149.7284  138.2914  153.7919 H   0  0  0  0  0  0  0  0  0  0  0  0
  147.5478  138.9501  155.8152 H   0  0  0  0  0  0  0  0  0  0  0  0
  150.3325  137.8397  156.3561 H   0  0  0  0  0  0  0  0  0  0  0  0
  149.0015  137.7924  157.5062 H   0  0  0  0  0  0  0  0  0  0  0  0
  149.6385  139.3307  156.9999 H   0  0  0  0  0  0  0  0  0  0  0  0
  148.6001  136.2853  154.7777 H   0  0  0  0  0  0  0  0  0  0  0  0
  146.9427  136.8965  154.7033 H   0  0  0  0  0  0  0  0  0  0  0  0
  147.6262  136.4435  156.2332 H   0  0  0  0  0  0  0  0  0  0  0  0
  148.5677  139.7256  152.1951 H   0  0  0  0  0  0  0  0  0  0  0  0
  147.7254  137.7017  151.6913 H   0  0  0  0  0  0  0  0  0  0  0  0
  145.5056  136.7216  151.1122 H   0  0  0  0  0  0  0  0  0  0  0  0
  146.3096  135.6392  152.2027 H   0  0  0  0  0  0  0  0  0  0  0  0
  143.3103  137.8449  152.2077 H   0  0  0  0  0  0  0  0  0  0  0  0
  141.1359  137.2237  153.0098 H   0  0  0  0  0  0  0  0  0  0  0  0
  146.3735  140.0774  154.2687 H   0  0  0  0  0  0  0  0  0  0  0  0
  146.3072  140.6154  152.6126 H   0  0  0  0  0  0  0  0  0  0  0  0
  1  2  1  0  0  0  0
  1 24  1  0  0  0  0
  1 25  1  0  0  0  0
  1 26  1  0  0  0  0
  2 22  1  0  0  0  0
  2  3  1  0  0  0  0
  2 27  1  0  0  0  0
  3  4  1  0  0  0  0
  3 28  1  0  0  0  0
  3 29  1  0  0  0  0
  4  5  1  0  0  0  0
  4 30  1  0  0  0  0
  4 31  1  0  0  0  0
  5  6  1  0  0  0  0
  5  9  1  0  0  0  0
  5 32  1  0  0  0  0
  6  7  1  0  0  0  0
  6  8  1  0  0  0  0
  6 33  1  0  0  0  0
  7 34  1  0  0  0  0
  7 35  1  0  0  0  0
  7 36  1  0  0  0  0
  8 37  1  0  0  0  0
  8 38  1  0  0  0  0
  8 39  1  0  0  0  0
  9 10  1  0  0  0  0
  9 22  1  0  0  0  0
  9 40  1  0  0  0  0
 10 11  1  0  0  0  0
 10 41  1  0  0  0  0
 11 12  2  0  0  0  0
 11 13  1  0  0  0  0
 13 14  1  0  0  0  0
 13 42  1  0  0  0  0
 13 43  1  0  0  0  0
 14 20  1  0  0  0  0
 14 15  1  0  0  0  0
 15 16  2  0  0  0  0
 15 44  1  0  0  0  0
 16 17  1  0  0  0  0
 16 45  1  0  0  0  0
 17 18  2  0  0  0  0
 17 19  1  0  0  0  0
 19 23  1  0  0  0  0
 19 20  1  0  0  0  0
 20 21  2  0  0  0  0
 22 46  1  0  0  0  0
 22 47  1  0  0  0  0
M  END
> <s_m_source_file>
AV-unprocessed.smi

> <i_m_source_file_index>
2855

> <i_lp_mmshare_version>
43012

> <i_f3d_flags>
0

> <s_epik_input>
W0NIM11bQ0BASF0xW0NIMl1bQ0gyXVtDQEBIXShbQ0hdKFtDSDNdKVtDSDNdKVtDQEhdKFtDSDJdMSlbTkhdQyg9TylbQ0gyXW4yW2NIXVtjSF1jKD1PKVtuSF1jMj1P

> <s_epik_cmdline>
J2VwaWtfcHl0aG9uJywgJy1waCcsICc3LjAnLCAnLXRuJywgJzgnLCAnLW1hJywgJzIwMCcsICctbWV0YWxfYmluZGluZycsICctaW1hZScsICc8aW5maWxlLm1hZT4nLCAnLW9tYWUnLCAnPG91dGZpbGUubWFlPic=

> <r_lp_tautomer_probability>
0.999537

> <r_epik_Ionization_Penalty>
0.00306256

> <r_epik_Ionization_Penalty_Charging>
0.00306254

> <r_epik_Ionization_Penalty_Neutral>
2.0223e-08

> <r_epik_State_Penalty>
0.0021533

> <r_epik_Charging_Adjusted_Penalty>
0.00521583

> <i_epik_Tot_Q>
0

> <i_epik_Tot_abs_Q>
0

> <r_epik_Metal_State_Penalty>
0.362116

> <b_epik_Metal_Only>
0

> <s_lp_Force_Field>
OPLS_2005

> <r_lp_Energy>
18.9466

> <b_lp_Chiralities_Consistent>
1

> <s_lp_Variant>
AV-unprocessed.smi:2855-2

> <Gold.Version>
5.8.1

> <Gold.Id.Protein>
6NUR|6NUR_protein|mol2

> <Gold.PLP.Fitness>
44.8561

> <Gold.PLP.PLP>
-32.4198

> <Gold.PLP.part.hbond>
-4.3048

> <Gold.PLP.part.metal>
0.0000

> <Gold.PLP.part.buried>
-0.6243

> <Gold.PLP.part.nonpolar>
-27.8120

> <Gold.PLP.part.repulsive>
0.5315

> <Gold.PLP.ligand.clash>
0.0003

> <Gold.PLP.ligand.torsion>
0.4788

> <Gold.PLP.Chemscore.Hbond>
2.4800

> <Gold.PLP.Chemscore.CHOScore>
1.9652

> <Gold.PLP.Chemscore.Metal>
0.0000

> <Gold.Chemscore.Hbonds>
donor molecule, donor type, donor heavy atom, donor atom, acceptor molecule, acceptor atom, score
      L1  H    10    41       P1  7948  0.50
      L1  H    19    23       P1 10957  1.00
      P1  H 11000 11005       L1    18  1.00
      L1  C    15    44       P1 10171  0.95
      L1  C    15    44       P1 10175  0.79

> <Gold.PLP.Chemscore.Internal.Correction>
0.0588

> <Gold.Rescore>
     Score         DG    S(hbond)    S(metal)    S(lipo)     H(rot)  DE(clash)    DE(int)     intcor
     14.18     -17.38       2.98        0.00      57.16       1.85       0.18       3.02       ----

> <Gold.Chemscore.Fitness>
14.1753

> <Gold.Chemscore.DG>
-17.3772

> <Gold.Chemscore.ZeroCoef>
-5.4800

> <Gold.Chemscore.Hbond>
2.9807

> <Gold.Chemscore.Metal>
0.0000

> <Gold.Chemscore.Lipo>
57.1580

> <Gold.Chemscore.Internal_Hbond>
0.0000

> <Gold.Chemscore.DEClash>
0.1790

> <Gold.Chemscore.DEInternal>
3.0229

> <Gold.Chemscore.Rot>
1.8539

> <Gold.Chemscore.Internal.Correction>
   9.000000E+99

> <Gold.Chemscore.Hbonds>
donor molecule, donor type, donor heavy atom, donor atom, acceptor molecule, acceptor atom, score
      L1  H    10    41       P1  7948  0.50
      L1  H    19    23       P1 10957  1.00
      P1  H 11000 11005       L1    18  1.00

> <Gold.Chemscore.Hbond.Weighted>
-9.9557

> <Gold.Chemscore.Metal.Weighted>
-0.0000

> <Gold.Chemscore.Lipo.Weighted>
-6.6875

> <Gold.Chemscore.Internal_Hbond.Weighted>
0.0000

> <Gold.Chemscore.DEClash.Weighted>
0.1790

> <Gold.Chemscore.DEInternal.Weighted>
3.0229

> <Gold.Chemscore.Rot.Weighted>
4.7460

> <Gold.Chemscore.Internal.Correction.Weighted>
   9.000000E+99

> <Gold.Protein.RotatedTorsions>
[ 6907 6896 6895 6894 ] final  -85.41 input  -60.11 | X-H torsion
[ 7974 7965 7964 7962 ] final  -96.68 input  175.53 | X-H torsion
[ 8008 7997 7996 7995 ] final  -82.31 input   59.86 | X-H torsion
[ 10167 10162 10161 10158 ] final   94.69 input  -65.29 | X-H torsion
[ 10718 10713 10712 10709 ] final    1.32 input   66.30 | X-H torsion
[ 10763 10752 10751 10750 ] final  -74.47 input  -60.55 | X-H torsion
[ 11005 11000 10999 10996 ] final   31.28 input  -57.11 | X-H torsion

> <Gold.Protein.ActiveResidues>
 VAL166  LYS551  ARG553  GLY616  TRP617  ASP618  TYR619  PRO620  LYS621  CYS622 
 ASP623  PHE694  ASN695  SER759  ASP760  ASP761  ALA762  ILE779  LEU786  VAL792 
 PHE793  MET794  SER795  GLU796  ALA797  LYS798  CYS799  TRP800  GLU811  SER814 

> <Gold.Protein.RotatedAtoms>
  150.6870  134.3209  159.4785 H   0  0  0  0  0  0  0  0  0  0  0  0  # atno 6907 bound_to 6896
  152.1084  134.9289  160.0576 H   0  0  0  0  0  0  0  0  0  0  0  0  # atno 6908 bound_to 6896
  152.0541  133.3997  159.4426 H   0  0  0  0  0  0  0  0  0  0  0  0  # atno 6909 bound_to 6896
  145.3437  140.9464  143.2594 H   0  0  0  0  0  0  0  0  0  0  0  0  # atno 7974 bound_to 7965
  154.6073  140.0635  156.9448 H   0  0  0  0  0  0  0  0  0  0  0  0  # atno 8008 bound_to 7997
  155.2031  140.3316  155.4322 H   0  0  0  0  0  0  0  0  0  0  0  0  # atno 8009 bound_to 7997
  156.2355  140.1861  156.7113 H   0  0  0  0  0  0  0  0  0  0  0  0  # atno 8010 bound_to 7997
  139.8060  144.6794  150.9703 H   0  0  0  0  0  0  0  0  0  0  0  0  # atno 10167 bound_to 10162
  156.8464  130.5539  149.5673 H   0  0  0  0  0  0  0  0  0  0  0  0  # atno 10718 bound_to 10713
  154.4735  135.5863  153.6338 H   0  0  0  0  0  0  0  0  0  0  0  0  # atno 10763 bound_to 10752
  152.9837  135.6072  154.3337 H   0  0  0  0  0  0  0  0  0  0  0  0  # atno 10764 bound_to 10752
  154.3221  135.2843  155.2493 H   0  0  0  0  0  0  0  0  0  0  0  0  # atno 10765 bound_to 10752
  140.2855  134.2923  155.7789 H   0  0  0  0  0  0  0  0  0  0  0  0  # atno 11005 bound_to 11000
  144.8771  139.4956  143.6740 LP  0  0  0  0  0  0  0  0  0  0  0  0  # atno 17320 bound_to 7965
  146.2997  139.7387  142.9100 LP  0  0  0  0  0  0  0  0  0  0  0  0  # atno 17321 bound_to 7965
  140.7819  143.4233  151.0807 LP  0  0  0  0  0  0  0  0  0  0  0  0  # atno 17342 bound_to 10162
  139.7902  143.8229  152.3150 LP  0  0  0  0  0  0  0  0  0  0  0  0  # atno 17343 bound_to 10162
  156.0852  130.5852  150.9635 LP  0  0  0  0  0  0  0  0  0  0  0  0  # atno 17370 bound_to 10713
  157.6327  131.0919  150.8409 LP  0  0  0  0  0  0  0  0  0  0  0  0  # atno 17371 bound_to 10713
  141.2155  133.7552  156.9546 LP  0  0  0  0  0  0  0  0  0  0  0  0  # atno 17394 bound_to 11000
  140.1243  134.9397  157.2248 LP  0  0  0  0  0  0  0  0  0  0  0  0  # atno 17395 bound_to 11000

$$$$
