AV-unprocessed.smi:2521|AV-procd|sdf|9917|dock8
  -GOLD-   2272013553D 1   1.00000     0.00000
 Structure written by MMmdl.
 35 36  0  0  0  0  0  0  0  0  2 V2000
  151.8596  141.6327  159.1293 C   0  0  0  0  0  0  0  0  0  0  0  0
  152.4490  140.2554  159.4670 C   0  0  0  0  0  0  0  0  0  0  0  0
  153.8316  140.3372  160.1303 C   0  0  0  0  0  0  0  0  0  0  0  0
  152.4425  139.3331  158.2879 C   0  0  0  0  0  0  0  0  0  0  0  0
  153.1342  139.5697  157.1710 N   0  0  0  0  0  0  0  0  0  0  0  0
  152.9674  138.5654  156.2306 N   0  0  0  0  0  0  0  0  0  0  0  0
  152.1509  137.5755  156.6368 C   0  0  0  0  0  0  0  0  0  0  0  0
  151.8134  136.4730  155.9303 N   0  5  0  0  0  0  0  0  0  0  0  0
  151.0643  135.4397  156.3933 C   0  0  0  0  0  0  0  0  0  0  0  0
  150.6650  135.2578  157.5452 O   0  0  0  0  0  0  0  0  0  0  0  0
  150.7541  134.5464  155.4440 N   0  0  0  0  0  0  0  0  0  0  0  0
  149.9622  133.3400  155.6504 C   0  0  0  0  0  0  0  0  0  0  0  0
  149.3235  132.8686  154.3340 C   0  0  2  0  0  0  0  0  0  0  0  0
  148.2761  133.8063  153.7663 C   0  0  0  0  0  0  0  0  0  0  0  0
  147.5175  132.8902  152.8107 C   0  0  0  0  0  0  0  0  0  0  0  0
  147.6035  131.5820  153.3698 O   0  0  0  0  0  0  0  0  0  0  0  0
  148.5193  131.5756  154.4610 C   0  0  0  0  0  0  0  0  0  0  0  0
  151.5197  137.8403  158.2617 S   0  0  0  0  0  0  0  0  0  0  0  0
  150.8448  141.5395  158.7414 H   0  0  0  0  0  0  0  0  0  0  0  0
  152.4583  142.1471  158.3769 H   0  0  0  0  0  0  0  0  0  0  0  0
  151.8186  142.2696  160.0132 H   0  0  0  0  0  0  0  0  0  0  0  0
  151.7817  139.8109  160.2063 H   0  0  0  0  0  0  0  0  0  0  0  0
  154.1794  139.3491  160.4328 H   0  0  0  0  0  0  0  0  0  0  0  0
  153.8031  140.9649  161.0215 H   0  0  0  0  0  0  0  0  0  0  0  0
  154.5734  140.7584  159.4512 H   0  0  0  0  0  0  0  0  0  0  0  0
  151.0940  134.7197  154.5094 H   0  0  0  0  0  0  0  0  0  0  0  0
  150.6041  132.5549  156.0526 H   0  0  0  0  0  0  0  0  0  0  0  0
  149.1903  133.5371  156.3964 H   0  0  0  0  0  0  0  0  0  0  0  0
  150.1029  132.7194  153.5846 H   0  0  0  0  0  0  0  0  0  0  0  0
  147.6103  134.1565  154.5566 H   0  0  0  0  0  0  0  0  0  0  0  0
  148.7025  134.6776  153.2685 H   0  0  0  0  0  0  0  0  0  0  0  0
  146.4806  133.1987  152.6757 H   0  0  0  0  0  0  0  0  0  0  0  0
  147.9978  132.8799  151.8316 H   0  0  0  0  0  0  0  0  0  0  0  0
  149.1516  130.6876  154.4447 H   0  0  0  0  0  0  0  0  0  0  0  0
  147.9464  131.5648  155.3893 H   0  0  0  0  0  0  0  0  0  0  0  0
  1  2  1  0  0  0  0
  1 19  1  0  0  0  0
  1 20  1  0  0  0  0
  1 21  1  0  0  0  0
  2  3  1  0  0  0  0
  2  4  1  0  0  0  0
  2 22  1  0  0  0  0
  3 23  1  0  0  0  0
  3 24  1  0  0  0  0
  3 25  1  0  0  0  0
  4 18  1  0  0  0  0
  4  5  2  0  0  0  0
  5  6  1  0  0  0  0
  6  7  2  0  0  0  0
  7  8  1  0  0  0  0
  7 18  1  0  0  0  0
  8  9  1  0  0  0  0
  9 10  2  0  0  0  0
  9 11  1  0  0  0  0
 11 12  1  0  0  0  0
 11 26  1  0  0  0  0
 12 13  1  0  0  0  0
 12 27  1  0  0  0  0
 12 28  1  0  0  0  0
 13 17  1  0  0  0  0
 13 14  1  0  0  0  0
 13 29  1  0  0  0  0
 14 15  1  0  0  0  0
 14 30  1  0  0  0  0
 14 31  1  0  0  0  0
 15 16  1  0  0  0  0
 15 32  1  0  0  0  0
 15 33  1  0  0  0  0
 16 17  1  0  0  0  0
 17 34  1  0  0  0  0
 17 35  1  0  0  0  0
M  CHG  1   8  -1
M  END
> <s_m_source_file>
AV-unprocessed.smi

> <i_m_source_file_index>
2521

> <i_lp_mmshare_version>
43012

> <i_f3d_flags>
0

> <s_epik_input>
W0NIM11bQ0hdKFtDSDNdKWMxbm5jKHMxKVtOSF1DKD1PKVtOSF1bQ0gyXVtDQEBIXTJbQ0gyXVtDSDJdT1tDSDJdMg==

> <s_epik_cmdline>
J2VwaWtfcHl0aG9uJywgJy1waCcsICc3LjAnLCAnLXRuJywgJzgnLCAnLW1hJywgJzIwMCcsICctbWV0YWxfYmluZGluZycsICctaW1hZScsICc8aW5maWxlLm1hZT4nLCAnLW9tYWUnLCAnPG91dGZpbGUubWFlPic=

> <r_lp_tautomer_probability>
1

> <r_epik_Ionization_Penalty>
4.4451

> <r_epik_Ionization_Penalty_Charging>
4.28522

> <r_epik_Ionization_Penalty_Neutral>
0.159875

> <r_epik_State_Penalty>
4.28479

> <r_epik_Charging_Adjusted_Penalty>
8.57002

> <i_epik_Tot_Q>
-1

> <i_epik_Tot_abs_Q>
1

> <r_epik_Metal_State_Penalty>
0.721771

> <b_epik_Metal_Only>
1

> <s_lp_Force_Field>
OPLS_2005

> <r_lp_Energy>
14.6033

> <b_lp_Chiralities_Consistent>
1

> <s_lp_Variant>
AV-unprocessed.smi:2521-3

> <Gold.Version>
5.8.1

> <Gold.Id.Protein>
6NUR|6NUR_protein|mol2

> <Gold.PLP.Fitness>
36.6850

> <Gold.PLP.PLP>
-26.6256

> <Gold.PLP.part.hbond>
-3.9284

> <Gold.PLP.part.metal>
0.0000

> <Gold.PLP.part.buried>
-3.3899

> <Gold.PLP.part.nonpolar>
-20.1905

> <Gold.PLP.part.repulsive>
0.2243

> <Gold.PLP.ligand.clash>
0.0000

> <Gold.PLP.ligand.torsion>
0.2341

> <Gold.PLP.Chemscore.Hbond>
3.4800

> <Gold.PLP.Chemscore.CHOScore>
0.0000

> <Gold.PLP.Chemscore.Metal>
0.0000

> <Gold.Chemscore.Hbonds>
donor molecule, donor type, donor heavy atom, donor atom, acceptor molecule, acceptor atom, score
      P1  H  6896  6909       L1    10  0.39
      P1  H  7997  8009       L1     5  0.84
      P1  H 10752 10763       L1     8  2.00

> <Gold.PLP.Chemscore.Internal.Correction>
0.0875

> <Gold.Rescore>
     Score         DG    S(hbond)    S(metal)    S(lipo)     H(rot)  DE(clash)    DE(int)     intcor
     14.66     -16.23       2.30        0.00      57.31       1.42       0.01       1.55       ----

> <Gold.Chemscore.Fitness>
14.6645

> <Gold.Chemscore.DG>
-16.2265

> <Gold.Chemscore.ZeroCoef>
-5.4800

> <Gold.Chemscore.Hbond>
2.2979

> <Gold.Chemscore.Metal>
0.0000

> <Gold.Chemscore.Lipo>
57.3056

> <Gold.Chemscore.Internal_Hbond>
0.0000

> <Gold.Chemscore.DEClash>
0.0149

> <Gold.Chemscore.DEInternal>
1.5472

> <Gold.Chemscore.Rot>
1.4193

> <Gold.Chemscore.Internal.Correction>
   9.000000E+99

> <Gold.Chemscore.Hbonds>
donor molecule, donor type, donor heavy atom, donor atom, acceptor molecule, acceptor atom, score
      P1  H  6896  6909       L1    10  0.38
      P1  H  7997  8009       L1     5  0.33
      P1  H 10752 10763       L1     8  0.25

> <Gold.Chemscore.Hbond.Weighted>
-7.6751

> <Gold.Chemscore.Metal.Weighted>
-0.0000

> <Gold.Chemscore.Lipo.Weighted>
-6.7048

> <Gold.Chemscore.Internal_Hbond.Weighted>
0.0000

> <Gold.Chemscore.DEClash.Weighted>
0.0149

> <Gold.Chemscore.DEInternal.Weighted>
1.5472

> <Gold.Chemscore.Rot.Weighted>
3.6333

> <Gold.Chemscore.Internal.Correction.Weighted>
   9.000000E+99

> <Gold.Protein.RotatedTorsions>
[ 6907 6896 6895 6894 ] final   35.81 input  -60.11 | X-H torsion
[ 7974 7965 7964 7962 ] final  118.53 input  175.53 | X-H torsion
[ 8008 7997 7996 7995 ] final  162.25 input   59.86 | X-H torsion
[ 10167 10162 10161 10158 ] final  175.57 input  -65.29 | X-H torsion
[ 10718 10713 10712 10709 ] final -118.82 input   66.30 | X-H torsion
[ 10763 10752 10751 10750 ] final   70.16 input  -60.55 | X-H torsion
[ 11005 11000 10999 10996 ] final  152.56 input  -57.11 | X-H torsion

> <Gold.Protein.ActiveResidues>
 VAL166  LYS551  ARG553  GLY616  TRP617  ASP618  TYR619  PRO620  LYS621  CYS622 
 ASP623  PHE694  ASN695  SER759  ASP760  ASP761  ALA762  ILE779  LEU786  VAL792 
 PHE793  MET794  SER795  GLU796  ALA797  LYS798  CYS799  TRP800  GLU811  SER814 

> <Gold.Protein.RotatedAtoms>
  152.1212  134.9204  160.0562 H   0  0  0  0  0  0  0  0  0  0  0  0  # atno 6907 bound_to 6896
  152.0344  133.3946  159.4319 H   0  0  0  0  0  0  0  0  0  0  0  0  # atno 6908 bound_to 6896
  150.6849  134.3405  159.4910 H   0  0  0  0  0  0  0  0  0  0  0  0  # atno 6909 bound_to 6896
  145.1541  139.3193  143.4551 H   0  0  0  0  0  0  0  0  0  0  0  0  # atno 7974 bound_to 7965
  156.2044  140.1755  156.7830 H   0  0  0  0  0  0  0  0  0  0  0  0  # atno 8008 bound_to 7997
  154.5635  140.0695  156.8887 H   0  0  0  0  0  0  0  0  0  0  0  0  # atno 8009 bound_to 7997
  155.2803  140.3348  155.4261 H   0  0  0  0  0  0  0  0  0  0  0  0  # atno 8010 bound_to 7997
  139.5182  144.3016  152.0373 H   0  0  0  0  0  0  0  0  0  0  0  0  # atno 10167 bound_to 10162
  156.1134  130.6267  150.9339 H   0  0  0  0  0  0  0  0  0  0  0  0  # atno 10718 bound_to 10713
  153.0326  135.5184  154.7399 H   0  0  0  0  0  0  0  0  0  0  0  0  # atno 10763 bound_to 10752
  154.6402  135.2911  155.0115 H   0  0  0  0  0  0  0  0  0  0  0  0  # atno 10764 bound_to 10752
  154.1036  135.6632  153.4925 H   0  0  0  0  0  0  0  0  0  0  0  0  # atno 10765 bound_to 10752
  140.1318  134.8796  157.2214 H   0  0  0  0  0  0  0  0  0  0  0  0  # atno 11005 bound_to 11000
  146.3491  140.1626  142.8590 LP  0  0  0  0  0  0  0  0  0  0  0  0  # atno 17320 bound_to 7965
  145.0400  140.8938  143.5058 LP  0  0  0  0  0  0  0  0  0  0  0  0  # atno 17321 bound_to 7965
  140.2463  144.4216  150.6239 LP  0  0  0  0  0  0  0  0  0  0  0  0  # atno 17342 bound_to 10162
  140.6255  143.2181  151.6605 LP  0  0  0  0  0  0  0  0  0  0  0  0  # atno 17343 bound_to 10162
  157.6317  131.0920  150.8428 LP  0  0  0  0  0  0  0  0  0  0  0  0  # atno 17370 bound_to 10713
  156.8536  130.5089  149.5309 LP  0  0  0  0  0  0  0  0  0  0  0  0  # atno 17371 bound_to 10713
  140.2832  134.3326  155.7337 LP  0  0  0  0  0  0  0  0  0  0  0  0  # atno 17394 bound_to 11000
  141.2171  133.7490  156.9394 LP  0  0  0  0  0  0  0  0  0  0  0  0  # atno 17395 bound_to 11000

$$$$
