AV-unprocessed.smi:527|AV-procd|sdf|2817|dock8
  -GOLD-   2262023293D 1   1.00000     0.00000
 Structure written by MMmdl.
 42 43  0  0  0  0  0  0  0  0  1 V2000
  153.0495  142.4479  161.5845 C   0  0  0  0  0  0  0  0  0  0  0  0
  152.6930  143.2626  160.3273 C   0  0  2  0  0  0  0  0  0  0  0  0
  152.1360  144.6375  160.7466 C   0  0  0  0  0  0  0  0  0  0  0  0
  151.8015  145.5096  159.5323 C   0  0  0  0  0  0  0  0  0  0  0  0
  150.7936  144.8005  158.6237 C   0  0  0  0  0  0  0  0  0  0  0  0
  151.3144  143.4224  158.1734 C   0  0  2  0  0  0  0  0  0  0  0  0
  150.2879  142.7731  157.3589 N   0  0  0  0  0  0  0  0  0  0  0  0
  150.5149  141.8867  156.3779 C   0  0  0  0  0  0  0  0  0  0  0  0
  151.6000  141.3263  156.2078 O   0  0  0  0  0  0  0  0  0  0  0  0
  149.4123  141.7091  155.6245 N   0  0  0  0  0  0  0  0  0  0  0  0
  149.2379  140.8302  154.6165 C   0  0  0  0  0  0  0  0  0  0  0  0
  150.0839  140.0163  154.2363 O   0  0  0  0  0  0  0  0  0  0  0  0
  147.8629  140.8970  153.9385 C   0  0  0  0  0  0  0  0  0  0  0  0
  146.8899  141.6600  154.7019 N   0  0  0  0  0  0  0  0  0  0  0  0
  146.2201  142.8081  154.2979 C   0  0  0  0  0  0  0  0  0  0  0  0
  145.4012  143.1734  155.3424 C   0  0  0  0  0  0  0  0  0  0  0  0
  145.5495  142.2704  156.3926 N   0  0  0  0  0  0  0  0  0  0  0  0
  146.4446  141.4020  155.9396 C   0  0  0  0  0  0  0  0  0  0  0  0
  151.7057  142.5243  159.3786 C   0  0  1  0  0  0  0  0  0  0  0  0
  152.2718  141.1703  158.8968 C   0  0  0  0  0  0  0  0  0  0  0  0
  152.1550  142.1590  162.1374 H   0  0  0  0  0  0  0  0  0  0  0  0
  153.6816  143.0269  162.2586 H   0  0  0  0  0  0  0  0  0  0  0  0
  153.6031  141.5420  161.3401 H   0  0  0  0  0  0  0  0  0  0  0  0
  153.6197  143.4384  159.7789 H   0  0  0  0  0  0  0  0  0  0  0  0
  151.2404  144.5030  161.3550 H   0  0  0  0  0  0  0  0  0  0  0  0
  152.8593  145.1588  161.3747 H   0  0  0  0  0  0  0  0  0  0  0  0
  151.3964  146.4671  159.8610 H   0  0  0  0  0  0  0  0  0  0  0  0
  152.7115  145.7316  158.9733 H   0  0  0  0  0  0  0  0  0  0  0  0
  149.8474  144.6849  159.1548 H   0  0  0  0  0  0  0  0  0  0  0  0
  150.5855  145.4256  157.7543 H   0  0  0  0  0  0  0  0  0  0  0  0
  152.2125  143.5776  157.5717 H   0  0  0  0  0  0  0  0  0  0  0  0
  149.3308  143.0246  157.5585 H   0  0  0  0  0  0  0  0  0  0  0  0
  148.6262  142.3057  155.8354 H   0  0  0  0  0  0  0  0  0  0  0  0
  147.9671  141.3479  152.9507 H   0  0  0  0  0  0  0  0  0  0  0  0
  147.4753  139.8875  153.7944 H   0  0  0  0  0  0  0  0  0  0  0  0
  146.3753  143.2556  153.3272 H   0  0  0  0  0  0  0  0  0  0  0  0
  144.7216  144.0095  155.4177 H   0  0  0  0  0  0  0  0  0  0  0  0
  146.7843  140.5578  156.5216 H   0  0  0  0  0  0  0  0  0  0  0  0
  150.7968  142.3156  159.9454 H   0  0  0  0  0  0  0  0  0  0  0  0
  153.2147  141.3039  158.3659 H   0  0  0  0  0  0  0  0  0  0  0  0
  151.5853  140.6580  158.2230 H   0  0  0  0  0  0  0  0  0  0  0  0
  152.4491  140.4865  159.7259 H   0  0  0  0  0  0  0  0  0  0  0  0
  1  2  1  0  0  0  0
  1 21  1  0  0  0  0
  1 22  1  0  0  0  0
  1 23  1  0  0  0  0
  2 19  1  0  0  0  0
  2  3  1  0  0  0  0
  2 24  1  0  0  0  0
  3  4  1  0  0  0  0
  3 25  1  0  0  0  0
  3 26  1  0  0  0  0
  4  5  1  0  0  0  0
  4 27  1  0  0  0  0
  4 28  1  0  0  0  0
  5  6  1  0  0  0  0
  5 29  1  0  0  0  0
  5 30  1  0  0  0  0
  6  7  1  0  0  0  0
  6 19  1  0  0  0  0
  6 31  1  0  0  0  0
  7  8  1  0  0  0  0
  7 32  1  0  0  0  0
  8  9  2  0  0  0  0
  8 10  1  0  0  0  0
 10 11  1  0  0  0  0
 10 33  1  0  0  0  0
 11 12  2  0  0  0  0
 11 13  1  0  0  0  0
 13 14  1  0  0  0  0
 13 34  1  0  0  0  0
 13 35  1  0  0  0  0
 14 18  1  0  0  0  0
 14 15  1  0  0  0  0
 15 16  2  0  0  0  0
 15 36  1  0  0  0  0
 16 17  1  0  0  0  0
 16 37  1  0  0  0  0
 17 18  2  0  0  0  0
 18 38  1  0  0  0  0
 19 20  1  0  0  0  0
 19 39  1  0  0  0  0
 20 40  1  0  0  0  0
 20 41  1  0  0  0  0
 20 42  1  0  0  0  0
M  END
> <s_m_source_file>
AV-unprocessed.smi

> <i_m_source_file_index>
527

> <i_lp_mmshare_version>
43012

> <i_f3d_flags>
0

> <s_epik_input>
W0NIM11bQ0BASF0xW0NIMl1bQ0gyXVtDSDJdW0NASF0oW0NASF0xW0NIM10pW05IXUMoPU8pW05IXUMoPU8pW0NIMl1uMltjSF1bY0hdbltjSF0y

> <s_epik_cmdline>
J2VwaWtfcHl0aG9uJywgJy1waCcsICc3LjAnLCAnLXRuJywgJzgnLCAnLW1hJywgJzIwMCcsICctbWV0YWxfYmluZGluZycsICctaW1hZScsICc8aW5maWxlLm1hZT4nLCAnLW9tYWUnLCAnPG91dGZpbGUubWFlPic=

> <r_lp_tautomer_probability>
1

> <r_epik_Ionization_Penalty>
0.172132

> <r_epik_Ionization_Penalty_Charging>
0.172105

> <r_epik_Ionization_Penalty_Neutral>
2.71747e-05

> <r_epik_State_Penalty>
0.161503

> <r_epik_Charging_Adjusted_Penalty>
0.333607

> <i_epik_Tot_Q>
0

> <i_epik_Tot_abs_Q>
0

> <r_epik_Metal_State_Penalty>
0.124763

> <b_epik_Metal_Only>
0

> <s_lp_Force_Field>
OPLS_2005

> <r_lp_Energy>
15.8984

> <b_lp_Chiralities_Consistent>
1

> <s_lp_Variant>
AV-unprocessed.smi:527-3

> <Gold.Version>
5.8.1

> <Gold.Id.Protein>
6NUR|6NUR_protein|mol2

> <Gold.PLP.Fitness>
49.7620

> <Gold.PLP.PLP>
-47.1155

> <Gold.PLP.part.hbond>
-3.0000

> <Gold.PLP.part.metal>
0.0000

> <Gold.PLP.part.buried>
-3.6518

> <Gold.PLP.part.nonpolar>
-40.2500

> <Gold.PLP.part.repulsive>
0.8377

> <Gold.PLP.ligand.clash>
0.0000

> <Gold.PLP.ligand.torsion>
0.5858

> <Gold.PLP.Chemscore.Hbond>
1.2666

> <Gold.PLP.Chemscore.CHOScore>
0.0000

> <Gold.PLP.Chemscore.Metal>
0.0000

> <Gold.Chemscore.Hbonds>
donor molecule, donor type, donor heavy atom, donor atom, acceptor molecule, acceptor atom, score
      P1  H  7989  7998       L1    12  1.00

> <Gold.PLP.Chemscore.Internal.Correction>
0.0185

> <Gold.Rescore>
     Score         DG    S(hbond)    S(metal)    S(lipo)     H(rot)  DE(clash)    DE(int)     intcor
     13.31     -16.96       1.08        0.00     103.74       1.66       1.02       2.63       ----

> <Gold.Chemscore.Fitness>
13.3102

> <Gold.Chemscore.DG>
-16.9634

> <Gold.Chemscore.ZeroCoef>
-5.4800

> <Gold.Chemscore.Hbond>
1.0785

> <Gold.Chemscore.Metal>
0.0000

> <Gold.Chemscore.Lipo>
103.7449

> <Gold.Chemscore.Internal_Hbond>
0.0000

> <Gold.Chemscore.DEClash>
1.0197

> <Gold.Chemscore.DEInternal>
2.6335

> <Gold.Chemscore.Rot>
1.6629

> <Gold.Chemscore.Internal.Correction>
   9.000000E+99

> <Gold.Chemscore.Hbonds>
donor molecule, donor type, donor heavy atom, donor atom, acceptor molecule, acceptor atom, score
      L1  H    10    33       P1  8028  0.03
      P1  H  7989  7998       L1    12  0.78

> <Gold.Chemscore.Hbond.Weighted>
-3.6021

> <Gold.Chemscore.Metal.Weighted>
-0.0000

> <Gold.Chemscore.Lipo.Weighted>
-12.1382

> <Gold.Chemscore.Internal_Hbond.Weighted>
0.0000

> <Gold.Chemscore.DEClash.Weighted>
1.0197

> <Gold.Chemscore.DEInternal.Weighted>
2.6335

> <Gold.Chemscore.Rot.Weighted>
4.2569

> <Gold.Chemscore.Internal.Correction.Weighted>
   9.000000E+99

> <Gold.Protein.RotatedTorsions>
[ 6907 6896 6895 6894 ] final -143.11 input  -60.11 | X-H torsion
[ 7974 7965 7964 7962 ] final   30.20 input  175.53 | X-H torsion
[ 8008 7997 7996 7995 ] final -143.30 input   59.86 | X-H torsion
[ 10167 10162 10161 10158 ] final -126.99 input  -65.29 | X-H torsion
[ 10718 10713 10712 10709 ] final   97.15 input   66.30 | X-H torsion
[ 10763 10752 10751 10750 ] final  -14.25 input  -60.55 | X-H torsion
[ 11005 11000 10999 10996 ] final  123.79 input  -57.11 | X-H torsion

> <Gold.Protein.ActiveResidues>
 VAL166  LYS551  ARG553  GLY616  TRP617  ASP618  TYR619  PRO620  LYS621  CYS622 
 ASP623  PHE694  ASN695  SER759  ASP760  ASP761  ALA762  ILE779  LEU786  VAL792 
 PHE793  MET794  SER795  GLU796  ALA797  LYS798  CYS799  TRP800  GLU811  SER814 

> <Gold.Protein.RotatedAtoms>
  151.0961  133.5279  159.2612 H   0  0  0  0  0  0  0  0  0  0  0  0  # atno 6907 bound_to 6896
  151.2128  135.0487  159.8928 H   0  0  0  0  0  0  0  0  0  0  0  0  # atno 6908 bound_to 6896
  152.5439  134.0774  159.8274 H   0  0  0  0  0  0  0  0  0  0  0  0  # atno 6909 bound_to 6896
  146.1626  139.6820  142.9023 H   0  0  0  0  0  0  0  0  0  0  0  0  # atno 7974 bound_to 7965
  155.5083  140.0581  157.2928 H   0  0  0  0  0  0  0  0  0  0  0  0  # atno 8008 bound_to 7997
  154.4561  140.1973  156.0324 H   0  0  0  0  0  0  0  0  0  0  0  0  # atno 8009 bound_to 7997
  156.0802  140.3248  155.7688 H   0  0  0  0  0  0  0  0  0  0  0  0  # atno 8010 bound_to 7997
  139.9656  143.5902  152.2430 H   0  0  0  0  0  0  0  0  0  0  0  0  # atno 10167 bound_to 10162
  157.6917  131.0600  150.4601 H   0  0  0  0  0  0  0  0  0  0  0  0  # atno 10718 bound_to 10713
  153.5254  135.7015  153.5710 H   0  0  0  0  0  0  0  0  0  0  0  0  # atno 10763 bound_to 10752
  153.3741  135.3937  155.1809 H   0  0  0  0  0  0  0  0  0  0  0  0  # atno 10764 bound_to 10752
  154.8690  135.3819  154.4746 H   0  0  0  0  0  0  0  0  0  0  0  0  # atno 10765 bound_to 10752
  139.9329  134.9641  156.8312 H   0  0  0  0  0  0  0  0  0  0  0  0  # atno 11005 bound_to 11000
  145.4549  141.0430  143.2784 LP  0  0  0  0  0  0  0  0  0  0  0  0  # atno 17320 bound_to 7965
  144.8048  139.6072  143.7056 LP  0  0  0  0  0  0  0  0  0  0  0  0  # atno 17321 bound_to 7965
  139.6520  144.7661  151.2129 LP  0  0  0  0  0  0  0  0  0  0  0  0  # atno 17342 bound_to 10162
  140.7539  143.6145  150.8573 LP  0  0  0  0  0  0  0  0  0  0  0  0  # atno 17343 bound_to 10162
  156.4946  130.4103  149.6387 LP  0  0  0  0  0  0  0  0  0  0  0  0  # atno 17370 bound_to 10713
  156.3385  130.7369  151.2311 LP  0  0  0  0  0  0  0  0  0  0  0  0  # atno 17371 bound_to 10713
  140.6154  134.0043  155.7595 LP  0  0  0  0  0  0  0  0  0  0  0  0  # atno 17394 bound_to 11000
  141.0927  133.9891  157.3211 LP  0  0  0  0  0  0  0  0  0  0  0  0  # atno 17395 bound_to 11000

$$$$
