AV-unprocessed.smi:2482|AV-procd|sdf|9775|dock3
  -GOLD-   2272013413D 1   1.00000     0.00000
 Structure written by MMmdl.
 35 36  0  0  0  0  0  0  0  0  2 V2000
  153.4467  141.9065  160.0028 C   0  0  0  0  0  0  0  0  0  0  0  0
  152.5006  141.9274  158.8168 C   0  0  0  0  0  0  0  0  0  0  0  0
  152.0633  143.1484  158.4389 N   0  0  0  0  0  0  0  0  0  0  0  0
  151.2237  143.2245  157.3862 C   0  0  0  0  0  0  0  0  0  0  0  0
  150.7773  142.0987  156.6681 C   0  0  0  0  0  0  0  0  0  0  0  0
  151.2212  140.8164  157.0709 C   0  0  0  0  0  0  0  0  0  0  0  0
  150.8526  139.6138  156.4067 N   0  0  0  0  0  0  0  0  0  0  0  0
  150.4331  139.4379  155.1396 C   0  0  0  0  0  0  0  0  0  0  0  0
  150.3133  140.3441  154.3151 O   0  0  0  0  0  0  0  0  0  0  0  0
  150.0960  137.9918  154.7430 C   0  0  2  0  0  0  0  0  0  0  0  0
  148.6246  137.6172  155.0394 C   0  0  0  0  0  0  0  0  0  0  0  0
  148.3712  136.1958  154.7098 N   0  3  2  0  0  0  0  0  0  0  0  0
  146.9658  135.7991  154.9405 C   0  0  0  0  0  0  0  0  0  0  0  0
  149.3348  135.3115  155.4024 C   0  0  0  0  0  0  0  0  0  0  0  0
  150.7748  135.7468  155.0891 C   0  0  0  0  0  0  0  0  0  0  0  0
  150.9522  137.1069  155.4647 O   0  0  0  0  0  0  0  0  0  0  0  0
  152.1150  140.7328  158.1643 C   0  0  0  0  0  0  0  0  0  0  0  0
  152.7193  139.1994  158.6979 Cl  0  0  0  0  0  0  0  0  0  0  0  0
  153.0250  141.3110  160.8129 H   0  0  0  0  0  0  0  0  0  0  0  0
  153.6328  142.9109  160.3857 H   0  0  0  0  0  0  0  0  0  0  0  0
  154.4051  141.4722  159.7169 H   0  0  0  0  0  0  0  0  0  0  0  0
  150.9021  144.2155  157.1020 H   0  0  0  0  0  0  0  0  0  0  0  0
  150.1218  142.2439  155.8239 H   0  0  0  0  0  0  0  0  0  0  0  0
  150.8258  138.7927  156.9943 H   0  0  0  0  0  0  0  0  0  0  0  0
  150.2951  137.8920  153.6745 H   0  0  0  0  0  0  0  0  0  0  0  0
  148.3926  137.7921  156.0919 H   0  0  0  0  0  0  0  0  0  0  0  0
  147.9499  138.2428  154.4530 H   0  0  0  0  0  0  0  0  0  0  0  0
  146.7007  135.8886  155.9948 H   0  0  0  0  0  0  0  0  0  0  0  0
  146.8022  134.7662  154.6322 H   0  0  0  0  0  0  0  0  0  0  0  0
  146.2893  136.4299  154.3629 H   0  0  0  0  0  0  0  0  0  0  0  0
  149.1594  135.3471  156.4790 H   0  0  0  0  0  0  0  0  0  0  0  0
  149.1818  134.2794  155.0852 H   0  0  0  0  0  0  0  0  0  0  0  0
  151.4830  135.1317  155.6443 H   0  0  0  0  0  0  0  0  0  0  0  0
  151.0011  135.6166  154.0297 H   0  0  0  0  0  0  0  0  0  0  0  0
  148.5425  136.0919  153.7196 H   0  0  0  0  0  0  0  0  0  0  0  0
  1  2  1  0  0  0  0
  1 19  1  0  0  0  0
  1 20  1  0  0  0  0
  1 21  1  0  0  0  0
  2 17  1  0  0  0  0
  2  3  2  0  0  0  0
  3  4  1  0  0  0  0
  4  5  2  0  0  0  0
  4 22  1  0  0  0  0
  5  6  1  0  0  0  0
  5 23  1  0  0  0  0
  6  7  1  0  0  0  0
  6 17  2  0  0  0  0
  7  8  1  0  0  0  0
  7 24  1  0  0  0  0
  8  9  2  0  0  0  0
  8 10  1  0  0  0  0
 10 16  1  0  0  0  0
 10 11  1  0  0  0  0
 10 25  1  0  0  0  0
 11 12  1  0  0  0  0
 11 26  1  0  0  0  0
 11 27  1  0  0  0  0
 12 13  1  0  0  0  0
 12 14  1  0  0  0  0
 12 35  1  0  0  0  0
 13 28  1  0  0  0  0
 13 29  1  0  0  0  0
 13 30  1  0  0  0  0
 14 15  1  0  0  0  0
 14 31  1  0  0  0  0
 14 32  1  0  0  0  0
 15 16  1  0  0  0  0
 15 33  1  0  0  0  0
 15 34  1  0  0  0  0
 17 18  1  0  0  0  0
M  CHG  1  12   1
M  END
> <s_m_source_file>
AV-unprocessed.smi

> <i_m_source_file_index>
2482

> <i_lp_mmshare_version>
43012

> <i_f3d_flags>
0

> <s_epik_input>
W0NIM11jMW5bY0hdW2NIXWMoYzFDbClbTkhdQyg9TylbQ0BASF0yW0NIMl1OKFtDSDNdKVtDSDJdW0NIMl1PMg==

> <s_epik_cmdline>
J2VwaWtfcHl0aG9uJywgJy1waCcsICc3LjAnLCAnLXRuJywgJzgnLCAnLW1hJywgJzIwMCcsICctbWV0YWxfYmluZGluZycsICctaW1hZScsICc8aW5maWxlLm1hZT4nLCAnLW9tYWUnLCAnPG91dGZpbGUubWFlPic=

> <r_epik_Ionization_Penalty>
0.314226

> <r_epik_Ionization_Penalty_Charging>
0.314023

> <r_epik_Ionization_Penalty_Neutral>
0.00020299

> <r_epik_State_Penalty>
0.308208

> <r_epik_Charging_Adjusted_Penalty>
0.62223

> <i_epik_Tot_Q>
1

> <i_epik_Tot_abs_Q>
1

> <r_epik_Metal_State_Penalty>
0.314444

> <b_epik_Metal_Only>
0

> <s_lp_Force_Field>
OPLS_2005

> <r_lp_Energy>
22.3098

> <b_lp_Chiralities_Consistent>
1

> <s_lp_Variant>
AV-unprocessed.smi:2482-1

> <Gold.Version>
5.8.1

> <Gold.Id.Protein>
6NUR|6NUR_protein|mol2

> <Gold.PLP.Fitness>
38.1775

> <Gold.PLP.PLP>
-28.2310

> <Gold.PLP.part.hbond>
-1.8812

> <Gold.PLP.part.metal>
0.0000

> <Gold.PLP.part.buried>
-4.5745

> <Gold.PLP.part.nonpolar>
-22.7235

> <Gold.PLP.part.repulsive>
0.2913

> <Gold.PLP.ligand.clash>
0.0000

> <Gold.PLP.ligand.torsion>
0.8687

> <Gold.PLP.Chemscore.Hbond>
3.0000

> <Gold.PLP.Chemscore.CHOScore>
0.8941

> <Gold.PLP.Chemscore.Metal>
0.0000

> <Gold.Chemscore.Hbonds>
donor molecule, donor type, donor heavy atom, donor atom, acceptor molecule, acceptor atom, score
      L1  H    12    35       P1  7948  2.00
      P1  H  7989  7998       L1     9  0.99
      L1  C     4    22       P1  8028  0.92

> <Gold.PLP.Chemscore.Internal.Correction>
0.0016

> <Gold.Rescore>
     Score         DG    S(hbond)    S(metal)    S(lipo)     H(rot)  DE(clash)    DE(int)     intcor
     16.83     -17.86       1.96        0.00      71.82       1.00       0.04       1.00       ----

> <Gold.Chemscore.Fitness>
16.8266

> <Gold.Chemscore.DG>
-17.8589

> <Gold.Chemscore.ZeroCoef>
-5.4800

> <Gold.Chemscore.Hbond>
1.9568

> <Gold.Chemscore.Metal>
0.0000

> <Gold.Chemscore.Lipo>
71.8216

> <Gold.Chemscore.Internal_Hbond>
0.0000

> <Gold.Chemscore.DEClash>
0.0354

> <Gold.Chemscore.DEInternal>
0.9969

> <Gold.Chemscore.Rot>
1.0000

> <Gold.Chemscore.Internal.Correction>
   9.000000E+99

> <Gold.Chemscore.Hbonds>
donor molecule, donor type, donor heavy atom, donor atom, acceptor molecule, acceptor atom, score
      L1  H    12    35       P1  7948  1.00
      P1  H  7989  7998       L1     9  0.92

> <Gold.Chemscore.Hbond.Weighted>
-6.5358

> <Gold.Chemscore.Metal.Weighted>
-0.0000

> <Gold.Chemscore.Lipo.Weighted>
-8.4031

> <Gold.Chemscore.Internal_Hbond.Weighted>
0.0000

> <Gold.Chemscore.DEClash.Weighted>
0.0354

> <Gold.Chemscore.DEInternal.Weighted>
0.9969

> <Gold.Chemscore.Rot.Weighted>
2.5600

> <Gold.Chemscore.Internal.Correction.Weighted>
   9.000000E+99

> <Gold.Protein.RotatedTorsions>
[ 6907 6896 6895 6894 ] final  166.10 input  -60.11 | X-H torsion
[ 7974 7965 7964 7962 ] final  141.79 input  175.53 | X-H torsion
[ 8008 7997 7996 7995 ] final  157.13 input   59.86 | X-H torsion
[ 10167 10162 10161 10158 ] final  160.28 input  -65.29 | X-H torsion
[ 10718 10713 10712 10709 ] final  177.38 input   66.30 | X-H torsion
[ 10763 10752 10751 10750 ] final -125.20 input  -60.55 | X-H torsion
[ 11005 11000 10999 10996 ] final  179.41 input  -57.11 | X-H torsion

> <Gold.Protein.ActiveResidues>
 VAL166  LYS551  ARG553  GLY616  TRP617  ASP618  TYR619  PRO620  LYS621  CYS622 
 ASP623  PHE694  ASN695  SER759  ASP760  ASP761  ALA762  ILE779  LEU786  VAL792 
 PHE793  MET794  SER795  GLU796  ALA797  LYS798  CYS799  TRP800  GLU811  SER814 

> <Gold.Protein.RotatedAtoms>
  151.8841  133.3501  159.3775 H   0  0  0  0  0  0  0  0  0  0  0  0  # atno 6907 bound_to 6896
  150.7120  134.4989  159.5561 H   0  0  0  0  0  0  0  0  0  0  0  0  # atno 6908 bound_to 6896
  152.2547  134.8097  160.0491 H   0  0  0  0  0  0  0  0  0  0  0  0  # atno 6909 bound_to 6896
  144.9065  139.5351  143.5729 H   0  0  0  0  0  0  0  0  0  0  0  0  # atno 7974 bound_to 7965
  156.2382  140.1893  156.7061 H   0  0  0  0  0  0  0  0  0  0  0  0  # atno 8008 bound_to 7997
  154.6146  140.0617  156.9565 H   0  0  0  0  0  0  0  0  0  0  0  0  # atno 8009 bound_to 7997
  155.1960  140.3288  155.4353 H   0  0  0  0  0  0  0  0  0  0  0  0  # atno 8010 bound_to 7997
  139.4838  144.4649  151.8654 H   0  0  0  0  0  0  0  0  0  0  0  0  # atno 10167 bound_to 10162
  156.9062  130.9895  151.3028 H   0  0  0  0  0  0  0  0  0  0  0  0  # atno 10718 bound_to 10713
  154.8733  135.4037  154.3230 H   0  0  0  0  0  0  0  0  0  0  0  0  # atno 10763 bound_to 10752
  153.4055  135.7019  153.6401 H   0  0  0  0  0  0  0  0  0  0  0  0  # atno 10764 bound_to 10752
  153.5126  135.3704  155.2564 H   0  0  0  0  0  0  0  0  0  0  0  0  # atno 10765 bound_to 10752
  140.4058  134.6736  157.4587 H   0  0  0  0  0  0  0  0  0  0  0  0  # atno 11005 bound_to 11000
  146.3136  139.7837  142.9000 LP  0  0  0  0  0  0  0  0  0  0  0  0  # atno 17320 bound_to 7965
  145.3527  141.0310  143.3329 LP  0  0  0  0  0  0  0  0  0  0  0  0  # atno 17321 bound_to 7965
  140.4114  144.2364  150.5889 LP  0  0  0  0  0  0  0  0  0  0  0  0  # atno 17342 bound_to 10162
  140.4962  143.2332  151.8745 LP  0  0  0  0  0  0  0  0  0  0  0  0  # atno 17343 bound_to 10162
  157.5996  130.8503  149.8781 LP  0  0  0  0  0  0  0  0  0  0  0  0  # atno 17370 bound_to 10713
  156.0558  130.3709  150.1094 LP  0  0  0  0  0  0  0  0  0  0  0  0  # atno 17371 bound_to 10713
  140.0303  134.6416  155.9116 LP  0  0  0  0  0  0  0  0  0  0  0  0  # atno 17394 bound_to 11000
  141.1839  133.6552  156.5137 LP  0  0  0  0  0  0  0  0  0  0  0  0  # atno 17395 bound_to 11000

$$$$
