AV-unprocessed.smi:2881|AV-procd|sdf|11064|dock8
  -GOLD-   2272015533D 1   1.00000     0.00000
 Structure written by MMmdl.
 40 42  0  0  0  0  0  0  0  0  1 V2000
  152.6881  143.3035  162.2601 C   0  0  0  0  0  0  0  0  0  0  0  0
  152.1431  143.5480  160.8840 C   0  0  0  0  0  0  0  0  0  0  0  0
  152.0622  142.6325  159.7941 C   0  0  0  0  0  0  0  0  0  0  0  0
  151.4859  143.3553  158.7871 C   0  0  0  0  0  0  0  0  0  0  0  0
  151.1278  142.9815  157.3821 C   0  0  0  0  0  0  0  0  0  0  0  0
  150.1463  141.8060  157.3062 C   0  0  0  0  0  0  0  0  0  0  0  0
  150.4391  140.7005  157.7643 O   0  0  0  0  0  0  0  0  0  0  0  0
  148.9762  142.0676  156.7041 N   0  0  0  0  0  0  0  0  0  0  0  0
  147.8858  141.1124  156.4966 C   0  0  1  0  0  0  0  0  0  0  0  0
  146.5822  141.5493  157.2117 C   0  0  1  0  0  0  0  0  0  0  0  0
  146.2235  143.0146  156.8837 C   0  0  0  0  0  0  0  0  0  0  0  0
  145.8193  142.9354  155.4006 C   0  0  0  0  0  0  0  0  0  0  0  0
  145.9450  141.4290  155.0878 C   0  0  2  0  0  0  0  0  0  0  0  0
  145.5140  140.8101  156.4123 C   0  0  0  0  0  0  0  0  0  0  0  0
  147.4220  140.9762  155.0154 C   0  0  1  0  0  0  0  0  0  0  0  0
  148.2562  141.6682  153.9132 C   0  0  0  0  0  0  0  0  0  0  0  0
  149.5289  141.0662  153.8030 O   0  0  0  0  0  0  0  0  0  0  0  0
  151.2646  144.6146  159.2987 N   0  0  0  0  0  0  0  0  0  0  0  0
  151.6603  144.7431  160.5785 N   0  0  0  0  0  0  0  0  0  0  0  0
  150.8441  145.3824  158.7948 H   0  0  0  0  0  0  0  0  0  0  0  0
  153.1569  142.3217  162.3290 H   0  0  0  0  0  0  0  0  0  0  0  0
  151.8960  143.3462  163.0082 H   0  0  0  0  0  0  0  0  0  0  0  0
  153.4390  144.0484  162.5247 H   0  0  0  0  0  0  0  0  0  0  0  0
  152.3778  141.6002  159.7587 H   0  0  0  0  0  0  0  0  0  0  0  0
  152.0297  142.7129  156.8309 H   0  0  0  0  0  0  0  0  0  0  0  0
  150.6959  143.8433  156.8717 H   0  0  0  0  0  0  0  0  0  0  0  0
  148.8249  143.0040  156.3581 H   0  0  0  0  0  0  0  0  0  0  0  0
  148.1723  140.1270  156.8696 H   0  0  0  0  0  0  0  0  0  0  0  0
  146.5809  141.3338  158.2805 H   0  0  0  0  0  0  0  0  0  0  0  0
  145.3759  143.3405  157.4880 H   0  0  0  0  0  0  0  0  0  0  0  0
  147.0337  143.7205  157.0639 H   0  0  0  0  0  0  0  0  0  0  0  0
  144.7887  143.2689  155.2729 H   0  0  0  0  0  0  0  0  0  0  0  0
  146.4431  143.5597  154.7622 H   0  0  0  0  0  0  0  0  0  0  0  0
  145.3538  141.1131  154.2277 H   0  0  0  0  0  0  0  0  0  0  0  0
  145.6232  139.7245  156.4429 H   0  0  0  0  0  0  0  0  0  0  0  0
  144.4949  141.0721  156.7030 H   0  0  0  0  0  0  0  0  0  0  0  0
  147.4062  139.9114  154.7733 H   0  0  0  0  0  0  0  0  0  0  0  0
  147.7555  141.5655  152.9501 H   0  0  0  0  0  0  0  0  0  0  0  0
  148.3778  142.7357  154.0951 H   0  0  0  0  0  0  0  0  0  0  0  0
  149.7292  140.9483  152.8871 H   0  0  0  0  0  0  0  0  0  0  0  0
  1 21  1  0  0  0  0
  1 22  1  0  0  0  0
  1 23  1  0  0  0  0
  1  2  1  0  0  0  0
  2 19  2  0  0  0  0
  2  3  1  0  0  0  0
  3  4  2  0  0  0  0
  3 24  1  0  0  0  0
  4 18  1  0  0  0  0
  4  5  1  0  0  0  0
  5  6  1  0  0  0  0
  5 25  1  0  0  0  0
  5 26  1  0  0  0  0
  6  7  2  0  0  0  0
  6  8  1  0  0  0  0
  8  9  1  0  0  0  0
  8 27  1  0  0  0  0
  9 15  1  0  0  0  0
  9 10  1  0  0  0  0
  9 28  1  0  0  0  0
 10 14  1  0  0  0  0
 10 11  1  0  0  0  0
 10 29  1  0  0  0  0
 11 12  1  0  0  0  0
 11 30  1  0  0  0  0
 11 31  1  0  0  0  0
 12 13  1  0  0  0  0
 12 32  1  0  0  0  0
 12 33  1  0  0  0  0
 13 14  1  0  0  0  0
 13 15  1  0  0  0  0
 13 34  1  0  0  0  0
 14 35  1  0  0  0  0
 14 36  1  0  0  0  0
 15 16  1  0  0  0  0
 15 37  1  0  0  0  0
 16 17  1  0  0  0  0
 16 38  1  0  0  0  0
 16 39  1  0  0  0  0
 17 40  1  0  0  0  0
 18 19  1  0  0  0  0
 18 20  1  0  0  0  0
M  END
> <s_m_source_file>
AV-unprocessed.smi

> <i_m_source_file_index>
2881

> <i_lp_mmshare_version>
43012

> <i_f3d_flags>
0

> <s_epik_input>
W0NIM11jMVtjSF1jKG5bbkhdMSlbQ0gyXUMoPU8pW05IXVtDQEhdKFtDQEBIXTIzKVtDQEhdKFtDSDJdW09IXSlbQ0BASF0oW0NIMl0zKVtDSDJdW0NIMl0y

> <s_epik_cmdline>
J2VwaWtfcHl0aG9uJywgJy1waCcsICc3LjAnLCAnLXRuJywgJzgnLCAnLW1hJywgJzIwMCcsICctbWV0YWxfYmluZGluZycsICctaW1hZScsICc8aW5maWxlLm1hZT4nLCAnLW9tYWUnLCAnPG91dGZpbGUubWFlPic=

> <r_lp_tautomer_probability>
0.5

> <r_epik_Ionization_Penalty>
0.00013396

> <r_epik_Ionization_Penalty_Charging>
0

> <r_epik_Ionization_Penalty_Neutral>
0.00013396

> <r_epik_State_Penalty>
0.41068

> <r_epik_Charging_Adjusted_Penalty>
0.41068

> <i_epik_Tot_Q>
0

> <i_epik_Tot_abs_Q>
0

> <r_epik_Metal_State_Penalty>
0.41066

> <b_epik_Metal_Only>
0

> <s_lp_Force_Field>
OPLS_2005

> <r_lp_Energy>
49.8973

> <b_lp_Chiralities_Consistent>
1

> <s_lp_Variant>
AV-unprocessed.smi:2881-10

> <Gold.Version>
5.8.1

> <Gold.Id.Protein>
6NUR|6NUR_protein|mol2

> <Gold.PLP.Fitness>
40.4714

> <Gold.PLP.PLP>
-34.5453

> <Gold.PLP.part.hbond>
-4.0000

> <Gold.PLP.part.metal>
0.0000

> <Gold.PLP.part.buried>
-5.4256

> <Gold.PLP.part.nonpolar>
-24.4909

> <Gold.PLP.part.repulsive>
0.2623

> <Gold.PLP.ligand.clash>
0.0000

> <Gold.PLP.ligand.torsion>
0.0445

> <Gold.PLP.Chemscore.Hbond>
2.0000

> <Gold.PLP.Chemscore.CHOScore>
0.0000

> <Gold.PLP.Chemscore.Metal>
0.0000

> <Gold.Chemscore.Hbonds>
donor molecule, donor type, donor heavy atom, donor atom, acceptor molecule, acceptor atom, score
      L1  H     8    27       P1  8028  1.00
      L1  H    17    40       P1  7957  1.00

> <Gold.PLP.Chemscore.Internal.Correction>
0.0149

> <Gold.Rescore>
     Score         DG    S(hbond)    S(metal)    S(lipo)     H(rot)  DE(clash)    DE(int)     intcor
     15.87     -15.96       1.99        0.00      82.39       2.28       0.03       0.06       ----

> <Gold.Chemscore.Fitness>
15.8684

> <Gold.Chemscore.DG>
-15.9571

> <Gold.Chemscore.ZeroCoef>
-5.4800

> <Gold.Chemscore.Hbond>
1.9950

> <Gold.Chemscore.Metal>
0.0000

> <Gold.Chemscore.Lipo>
82.3859

> <Gold.Chemscore.Internal_Hbond>
0.0000

> <Gold.Chemscore.DEClash>
0.0291

> <Gold.Chemscore.DEInternal>
0.0596

> <Gold.Chemscore.Rot>
2.2755

> <Gold.Chemscore.Internal.Correction>
   9.000000E+99

> <Gold.Chemscore.Hbonds>
donor molecule, donor type, donor heavy atom, donor atom, acceptor molecule, acceptor atom, score
      L1  H     8    27       P1  8028  0.98
      L1  H    17    40       P1  7957  0.97

> <Gold.Chemscore.Hbond.Weighted>
-6.6632

> <Gold.Chemscore.Metal.Weighted>
-0.0000

> <Gold.Chemscore.Lipo.Weighted>
-9.6392

> <Gold.Chemscore.Internal_Hbond.Weighted>
0.0000

> <Gold.Chemscore.DEClash.Weighted>
0.0291

> <Gold.Chemscore.DEInternal.Weighted>
0.0596

> <Gold.Chemscore.Rot.Weighted>
5.8252

> <Gold.Chemscore.Internal.Correction.Weighted>
   9.000000E+99

> <Gold.Protein.RotatedTorsions>
[ 6907 6896 6895 6894 ] final   55.80 input  -60.11 | X-H torsion
[ 7974 7965 7964 7962 ] final  128.91 input  175.53 | X-H torsion
[ 8008 7997 7996 7995 ] final -114.49 input   59.86 | X-H torsion
[ 10167 10162 10161 10158 ] final  -73.38 input  -65.29 | X-H torsion
[ 10718 10713 10712 10709 ] final -107.53 input   66.30 | X-H torsion
[ 10763 10752 10751 10750 ] final  146.69 input  -60.55 | X-H torsion
[ 11005 11000 10999 10996 ] final -129.02 input  -57.11 | X-H torsion

> <Gold.Protein.ActiveResidues>
 VAL166  LYS551  ARG553  GLY616  TRP617  ASP618  TYR619  PRO620  LYS621  CYS622 
 ASP623  PHE694  ASN695  SER759  ASP760  ASP761  ALA762  ILE779  LEU786  VAL792 
 PHE793  MET794  SER795  GLU796  ALA797  LYS798  CYS799  TRP800  GLU811  SER814 

> <Gold.Protein.RotatedAtoms>
  152.3574  134.6920  160.0217 H   0  0  0  0  0  0  0  0  0  0  0  0  # atno 6907 bound_to 6896
  151.7254  133.3310  159.3334 H   0  0  0  0  0  0  0  0  0  0  0  0  # atno 6908 bound_to 6896
  150.7581  134.6344  159.6248 H   0  0  0  0  0  0  0  0  0  0  0  0  # atno 6909 bound_to 6896
  145.0344  139.4018  143.5134 H   0  0  0  0  0  0  0  0  0  0  0  0  # atno 7974 bound_to 7965
  155.0372  140.0392  157.2496 H   0  0  0  0  0  0  0  0  0  0  0  0  # atno 8008 bound_to 7997
  154.7247  140.2718  155.6486 H   0  0  0  0  0  0  0  0  0  0  0  0  # atno 8009 bound_to 7997
  156.2826  140.2696  156.1929 H   0  0  0  0  0  0  0  0  0  0  0  0  # atno 8010 bound_to 7997
  140.5115  143.2344  151.7585 H   0  0  0  0  0  0  0  0  0  0  0  0  # atno 10167 bound_to 10162
  156.0441  130.5667  150.7835 H   0  0  0  0  0  0  0  0  0  0  0  0  # atno 10718 bound_to 10713
  154.0261  135.2902  155.3374 H   0  0  0  0  0  0  0  0  0  0  0  0  # atno 10763 bound_to 10752
  154.7016  135.5186  153.8539 H   0  0  0  0  0  0  0  0  0  0  0  0  # atno 10764 bound_to 10752
  153.0660  135.6631  154.0478 H   0  0  0  0  0  0  0  0  0  0  0  0  # atno 10765 bound_to 10752
  140.9467  134.1120  157.4100 H   0  0  0  0  0  0  0  0  0  0  0  0  # atno 11005 bound_to 11000
  146.3502  139.9911  142.8685 LP  0  0  0  0  0  0  0  0  0  0  0  0  # atno 17320 bound_to 7965
  145.1729  140.9730  143.4311 LP  0  0  0  0  0  0  0  0  0  0  0  0  # atno 17321 bound_to 7965
  139.4897  144.4384  151.9793 LP  0  0  0  0  0  0  0  0  0  0  0  0  # atno 17342 bound_to 10162
  140.3476  144.3127  150.5955 LP  0  0  0  0  0  0  0  0  0  0  0  0  # atno 17343 bound_to 10162
  157.5296  131.0936  150.9973 LP  0  0  0  0  0  0  0  0  0  0  0  0  # atno 17370 bound_to 10713
  157.0282  130.5701  149.5340 LP  0  0  0  0  0  0  0  0  0  0  0  0  # atno 17371 bound_to 10713
  139.8835  135.0053  156.6308 LP  0  0  0  0  0  0  0  0  0  0  0  0  # atno 17394 bound_to 11000
  140.7659  133.8778  155.8454 LP  0  0  0  0  0  0  0  0  0  0  0  0  # atno 17395 bound_to 11000

$$$$
