AV-unprocessed.smi:2090|AV-procd|sdf|8532|dock6
  -GOLD-   2272011253D 1   1.00000     0.00000
 Structure written by MMmdl.
 42 43  0  0  0  0  0  0  0  0  2 V2000
  153.3073  141.8484  160.7206 C   0  0  0  0  0  0  0  0  0  0  0  0
  152.5468  142.4521  159.5903 C   0  0  0  0  0  0  0  0  0  0  0  0
  151.6843  141.9324  158.6667 C   0  0  0  0  0  0  0  0  0  0  0  0
  151.3248  143.0669  157.8917 C   0  0  0  0  0  0  0  0  0  0  0  0
  150.4149  142.9514  156.8102 N   0  0  0  0  0  0  0  0  0  0  0  0
  150.0858  141.8370  156.1352 C   0  0  0  0  0  0  0  0  0  0  0  0
  150.5091  140.7068  156.3798 O   0  0  0  0  0  0  0  0  0  0  0  0
  149.2296  142.1023  155.1377 N   0  0  0  0  0  0  0  0  0  0  0  0
  148.6997  141.1074  154.2121 C   0  0  0  0  0  0  0  0  0  0  0  0
  147.2130  141.3658  153.8980 C   0  0  0  0  0  0  0  0  0  0  0  0
  146.5829  140.2393  153.1647 N   0  3  2  0  0  0  0  0  0  0  0  0
  146.2786  139.0917  154.0583 C   0  0  0  0  0  0  0  0  0  0  0  0
  145.5022  137.9945  153.3113 C   0  0  0  0  0  0  0  0  0  0  0  0
  146.2729  137.5130  152.0711 C   0  0  1  0  0  0  0  0  0  0  0  0
  145.4974  136.4345  151.3019 C   0  0  0  0  0  0  0  0  0  0  0  0
  146.6029  138.7230  151.1815 C   0  0  0  0  0  0  0  0  0  0  0  0
  147.3562  139.8078  151.9698 C   0  0  0  0  0  0  0  0  0  0  0  0
  151.9177  144.1777  158.3019 N   0  0  0  0  0  0  0  0  0  0  0  0
  152.7048  143.7892  159.3924 O   0  0  0  0  0  0  0  0  0  0  0  0
  152.9700  140.8307  160.9173 H   0  0  0  0  0  0  0  0  0  0  0  0
  153.1729  142.4306  161.6325 H   0  0  0  0  0  0  0  0  0  0  0  0
  154.3728  141.8142  160.4941 H   0  0  0  0  0  0  0  0  0  0  0  0
  151.3617  140.9065  158.5675 H   0  0  0  0  0  0  0  0  0  0  0  0
  149.9848  143.8123  156.5067 H   0  0  0  0  0  0  0  0  0  0  0  0
  148.9270  143.0568  155.0075 H   0  0  0  0  0  0  0  0  0  0  0  0
  149.2899  141.1028  153.2941 H   0  0  0  0  0  0  0  0  0  0  0  0
  148.8367  140.1311  154.6750 H   0  0  0  0  0  0  0  0  0  0  0  0
  146.6535  141.5739  154.8115 H   0  0  0  0  0  0  0  0  0  0  0  0
  147.1431  142.2654  153.2847 H   0  0  0  0  0  0  0  0  0  0  0  0
  147.2078  138.6877  154.4637 H   0  0  0  0  0  0  0  0  0  0  0  0
  145.6837  139.4311  154.9071 H   0  0  0  0  0  0  0  0  0  0  0  0
  145.3143  137.1566  153.9837 H   0  0  0  0  0  0  0  0  0  0  0  0
  144.5244  138.3775  153.0156 H   0  0  0  0  0  0  0  0  0  0  0  0
  147.2124  137.0702  152.4053 H   0  0  0  0  0  0  0  0  0  0  0  0
  144.5439  136.8151  150.9341 H   0  0  0  0  0  0  0  0  0  0  0  0
  145.2889  135.5730  151.9369 H   0  0  0  0  0  0  0  0  0  0  0  0
  146.0679  136.0795  150.4430 H   0  0  0  0  0  0  0  0  0  0  0  0
  147.2039  138.4063  150.3284 H   0  0  0  0  0  0  0  0  0  0  0  0
  145.6836  139.1439  150.7716 H   0  0  0  0  0  0  0  0  0  0  0  0
  147.5413  140.6542  151.3097 H   0  0  0  0  0  0  0  0  0  0  0  0
  148.3322  139.4333  152.2827 H   0  0  0  0  0  0  0  0  0  0  0  0
  145.6910  140.5791  152.8338 H   0  0  0  0  0  0  0  0  0  0  0  0
  1  2  1  0  0  0  0
  1 20  1  0  0  0  0
  1 21  1  0  0  0  0
  1 22  1  0  0  0  0
  2 19  1  0  0  0  0
  2  3  2  0  0  0  0
  3  4  1  0  0  0  0
  3 23  1  0  0  0  0
  4  5  1  0  0  0  0
  4 18  2  0  0  0  0
  5  6  1  0  0  0  0
  5 24  1  0  0  0  0
  6  7  2  0  0  0  0
  6  8  1  0  0  0  0
  8  9  1  0  0  0  0
  8 25  1  0  0  0  0
  9 10  1  0  0  0  0
  9 26  1  0  0  0  0
  9 27  1  0  0  0  0
 10 11  1  0  0  0  0
 10 28  1  0  0  0  0
 10 29  1  0  0  0  0
 11 17  1  0  0  0  0
 11 12  1  0  0  0  0
 11 42  1  0  0  0  0
 12 13  1  0  0  0  0
 12 30  1  0  0  0  0
 12 31  1  0  0  0  0
 13 14  1  0  0  0  0
 13 32  1  0  0  0  0
 13 33  1  0  0  0  0
 14 15  1  0  0  0  0
 14 16  1  0  0  0  0
 14 34  1  0  0  0  0
 15 35  1  0  0  0  0
 15 36  1  0  0  0  0
 15 37  1  0  0  0  0
 16 17  1  0  0  0  0
 16 38  1  0  0  0  0
 16 39  1  0  0  0  0
 17 40  1  0  0  0  0
 17 41  1  0  0  0  0
 18 19  1  0  0  0  0
M  CHG  1  11   1
M  END
> <s_m_source_file>
AV-unprocessed.smi

> <i_m_source_file_index>
2090

> <i_lp_mmshare_version>
43012

> <i_f3d_flags>
0

> <s_epik_input>
W0NIM11jMVtjSF1jKG5vMSlbTkhdQyg9TylbTkhdW0NIMl1bQ0gyXU4yW0NIMl1bQ0gyXVtDSF0oW0NIM10pW0NIMl1bQ0gyXTI=

> <s_epik_cmdline>
J2VwaWtfcHl0aG9uJywgJy1waCcsICc3LjAnLCAnLXRuJywgJzgnLCAnLW1hJywgJzIwMCcsICctbWV0YWxfYmluZGluZycsICctaW1hZScsICc8aW5maWxlLm1hZT4nLCAnLW9tYWUnLCAnPG91dGZpbGUubWFlPic=

> <r_epik_Ionization_Penalty>
0.00176265

> <r_epik_Ionization_Penalty_Charging>
0.00172695

> <r_epik_Ionization_Penalty_Neutral>
3.56992e-05

> <r_epik_State_Penalty>
0.00116803

> <r_epik_Charging_Adjusted_Penalty>
0.00289498

> <i_epik_Tot_Q>
1

> <i_epik_Tot_abs_Q>
1

> <r_epik_Metal_State_Penalty>
0.0215312

> <b_epik_Metal_Only>
0

> <s_lp_Force_Field>
OPLS_2005

> <r_lp_Energy>
12.7246

> <b_lp_Chiralities_Consistent>
1

> <s_lp_Variant>
AV-unprocessed.smi:2090-1

> <Gold.Version>
5.8.1

> <Gold.Id.Protein>
6NUR|6NUR_protein|mol2

> <Gold.PLP.Fitness>
46.6129

> <Gold.PLP.PLP>
-35.3661

> <Gold.PLP.part.hbond>
-3.0000

> <Gold.PLP.part.metal>
0.0000

> <Gold.PLP.part.buried>
0.8955

> <Gold.PLP.part.nonpolar>
-34.8182

> <Gold.PLP.part.repulsive>
0.3493

> <Gold.PLP.ligand.clash>
0.0000

> <Gold.PLP.ligand.torsion>
0.3522

> <Gold.PLP.Chemscore.Hbond>
3.9760

> <Gold.PLP.Chemscore.CHOScore>
0.0000

> <Gold.PLP.Chemscore.Metal>
0.0000

> <Gold.Chemscore.Hbonds>
donor molecule, donor type, donor heavy atom, donor atom, acceptor molecule, acceptor atom, score
      L1  H     5    24       P1  8028  1.00
      L1  H     8    25       P1  8028  0.98
      L1  H    11    42       P1 10175  1.98

> <Gold.PLP.Chemscore.Internal.Correction>
0.0232

> <Gold.Rescore>
     Score         DG    S(hbond)    S(metal)    S(lipo)     H(rot)  DE(clash)    DE(int)     intcor
     17.28     -20.25       2.89        0.00      78.02       1.57       1.35       1.62       ----

> <Gold.Chemscore.Fitness>
17.2792

> <Gold.Chemscore.DG>
-20.2475

> <Gold.Chemscore.ZeroCoef>
-5.4800

> <Gold.Chemscore.Hbond>
2.8914

> <Gold.Chemscore.Metal>
0.0000

> <Gold.Chemscore.Lipo>
78.0233

> <Gold.Chemscore.Internal_Hbond>
0.0000

> <Gold.Chemscore.DEClash>
1.3529

> <Gold.Chemscore.DEInternal>
1.6154

> <Gold.Chemscore.Rot>
1.5697

> <Gold.Chemscore.Internal.Correction>
   9.000000E+99

> <Gold.Chemscore.Hbonds>
donor molecule, donor type, donor heavy atom, donor atom, acceptor molecule, acceptor atom, score
      L1  H     5    24       P1  8028  0.98
      L1  H     8    25       P1  8028  0.92
      L1  H    11    42       P1 10175  0.59

> <Gold.Chemscore.Hbond.Weighted>
-9.6572

> <Gold.Chemscore.Metal.Weighted>
-0.0000

> <Gold.Chemscore.Lipo.Weighted>
-9.1287

> <Gold.Chemscore.Internal_Hbond.Weighted>
0.0000

> <Gold.Chemscore.DEClash.Weighted>
1.3529

> <Gold.Chemscore.DEInternal.Weighted>
1.6154

> <Gold.Chemscore.Rot.Weighted>
4.0185

> <Gold.Chemscore.Internal.Correction.Weighted>
   9.000000E+99

> <Gold.Protein.RotatedTorsions>
[ 6907 6896 6895 6894 ] final -147.40 input  -60.11 | X-H torsion
[ 7974 7965 7964 7962 ] final -179.85 input  175.53 | X-H torsion
[ 8008 7997 7996 7995 ] final  -82.47 input   59.86 | X-H torsion
[ 10167 10162 10161 10158 ] final -170.93 input  -65.29 | X-H torsion
[ 10718 10713 10712 10709 ] final  -55.48 input   66.30 | X-H torsion
[ 10763 10752 10751 10750 ] final  130.92 input  -60.55 | X-H torsion
[ 11005 11000 10999 10996 ] final   24.35 input  -57.11 | X-H torsion

> <Gold.Protein.ActiveResidues>
 VAL166  LYS551  ARG553  GLY616  TRP617  ASP618  TYR619  PRO620  LYS621  CYS622 
 ASP623  PHE694  ASN695  SER759  ASP760  ASP761  ALA762  ILE779  LEU786  VAL792 
 PHE793  MET794  SER795  GLU796  ALA797  LYS798  CYS799  TRP800  GLU811  SER814 

> <Gold.Protein.RotatedAtoms>
  151.1552  133.4881  159.2594 H   0  0  0  0  0  0  0  0  0  0  0  0  # atno 6907 bound_to 6896
  151.1512  135.0228  159.8679 H   0  0  0  0  0  0  0  0  0  0  0  0  # atno 6908 bound_to 6896
  152.5463  134.1435  159.8542 H   0  0  0  0  0  0  0  0  0  0  0  0  # atno 6909 bound_to 6896
  144.7139  140.0655  143.6431 H   0  0  0  0  0  0  0  0  0  0  0  0  # atno 7974 bound_to 7965
  154.6089  140.0633  156.9468 H   0  0  0  0  0  0  0  0  0  0  0  0  # atno 8008 bound_to 7997
  155.2006  140.3314  155.4325 H   0  0  0  0  0  0  0  0  0  0  0  0  # atno 8009 bound_to 7997
  156.2365  140.1865  156.7089 H   0  0  0  0  0  0  0  0  0  0  0  0  # atno 8010 bound_to 7997
  139.5832  144.1377  152.1542 H   0  0  0  0  0  0  0  0  0  0  0  0  # atno 10167 bound_to 10162
  156.1365  130.4156  150.0176 H   0  0  0  0  0  0  0  0  0  0  0  0  # atno 10718 bound_to 10713
  153.7658  135.3189  155.3344 H   0  0  0  0  0  0  0  0  0  0  0  0  # atno 10763 bound_to 10752
  154.8214  135.4601  154.0792 H   0  0  0  0  0  0  0  0  0  0  0  0  # atno 10764 bound_to 10752
  153.2037  135.6926  153.8283 H   0  0  0  0  0  0  0  0  0  0  0  0  # atno 10765 bound_to 10752
  140.3596  134.2140  155.7673 H   0  0  0  0  0  0  0  0  0  0  0  0  # atno 11005 bound_to 11000
  145.9828  139.2954  143.1032 LP  0  0  0  0  0  0  0  0  0  0  0  0  # atno 17320 bound_to 7965
  145.8991  140.9254  143.0512 LP  0  0  0  0  0  0  0  0  0  0  0  0  # atno 17321 bound_to 7965
  140.0934  144.5601  150.7038 LP  0  0  0  0  0  0  0  0  0  0  0  0  # atno 17342 bound_to 10162
  140.7107  143.2503  151.4588 LP  0  0  0  0  0  0  0  0  0  0  0  0  # atno 17343 bound_to 10162
  156.8073  130.9312  151.3645 LP  0  0  0  0  0  0  0  0  0  0  0  0  # atno 17370 bound_to 10713
  157.6537  130.8906  149.9685 LP  0  0  0  0  0  0  0  0  0  0  0  0  # atno 17371 bound_to 10713
  141.1988  133.8027  157.0566 LP  0  0  0  0  0  0  0  0  0  0  0  0  # atno 17394 bound_to 11000
  140.0637  134.9740  157.1349 LP  0  0  0  0  0  0  0  0  0  0  0  0  # atno 17395 bound_to 11000

$$$$
