AV-unprocessed.smi:247|AV-procd|sdf|1890|dock6
  -GOLD-   2262020553D 1   1.00000     0.00000
 Structure written by MMmdl.
 61 65  0  0  0  0  0  0  0  0  1 V2000
  148.9511  139.8445  153.8017 O   0  0  0  0  0  0  0  0  0  0  0  0
  149.5241  140.7165  154.7565 C   0  0  0  0  0  0  0  0  0  0  0  0
  150.2358  139.9759  155.9231 C   0  0  0  0  0  0  0  0  0  0  0  0
  149.1460  139.3824  156.8709 C   0  0  0  0  0  0  0  0  0  0  0  0
  148.1317  138.5688  156.2151 N   0  0  0  0  0  0  0  0  0  0  0  0
  146.8836  138.9816  155.8032 C   0  0  0  0  0  0  0  0  0  0  0  0
  146.1548  138.0670  155.2243 N   0  0  0  0  0  0  0  0  0  0  0  0
  146.9695  136.9427  155.2208 C   0  0  0  0  0  0  0  0  0  0  0  0
  146.8141  135.6170  154.7369 C   0  0  0  0  0  0  0  0  0  0  0  0
  145.6671  135.2139  154.1387 N   0  0  0  0  0  0  0  0  0  0  0  0
  144.5347  135.4856  155.0075 C   0  0  0  0  0  0  0  0  0  0  0  0
  143.3601  134.7553  154.3768 C   0  0  0  0  0  0  0  0  0  0  0  0
  144.0050  133.5947  153.6188 C   0  0  0  0  0  0  0  0  0  0  0  0
  145.5326  133.8305  153.6628 C   0  0  1  0  0  0  0  0  0  0  0  0
  146.2353  133.5363  152.2892 C   0  0  1  0  0  0  0  0  0  0  0  0
  145.9932  132.1141  151.7255 C   0  0  0  0  0  0  0  0  0  0  0  0
  144.6232  131.9397  151.3747 O   0  0  0  0  0  0  0  0  0  0  0  0
  144.2043  132.7871  150.3102 C   0  0  0  0  0  0  0  0  0  0  0  0
  144.3979  134.2644  150.6888 C   0  0  0  0  0  0  0  0  0  0  0  0
  145.8457  134.5061  151.1397 C   0  0  1  0  0  0  0  0  0  0  0  0
  146.0440  135.8719  151.4400 O   0  0  0  0  0  0  0  0  0  0  0  0
  147.8477  134.7529  154.9185 N   0  0  0  0  0  0  0  0  0  0  0  0
  148.9725  135.1688  155.5082 C   0  0  0  0  0  0  0  0  0  0  0  0
  149.2629  136.3779  155.9941 N   0  0  0  0  0  0  0  0  0  0  0  0
  148.2187  137.2406  155.8323 C   0  0  0  0  0  0  0  0  0  0  0  0
  151.1726  138.8787  155.3545 C   0  0  0  0  0  0  0  0  0  0  0  0
  152.0792  138.2649  156.4362 C   0  0  0  0  0  0  0  0  0  0  0  0
  152.8461  139.2870  157.0610 O   0  0  0  0  0  0  0  0  0  0  0  0
  152.0470  140.2547  157.7311 C   0  0  0  0  0  0  0  0  0  0  0  0
  151.1182  140.9654  156.7277 C   0  0  0  0  0  0  0  0  0  0  0  0
  149.3507  140.0148  152.9624 H   0  0  0  0  0  0  0  0  0  0  0  0
  150.2266  141.3691  154.2370 H   0  0  0  0  0  0  0  0  0  0  0  0
  148.7221  141.3514  155.1328 H   0  0  0  0  0  0  0  0  0  0  0  0
  149.5904  138.7683  157.6524 H   0  0  0  0  0  0  0  0  0  0  0  0
  148.6361  140.1905  157.3974 H   0  0  0  0  0  0  0  0  0  0  0  0
  146.5249  139.9900  155.9500 H   0  0  0  0  0  0  0  0  0  0  0  0
  144.7256  135.0948  156.0088 H   0  0  0  0  0  0  0  0  0  0  0  0
  144.3410  136.5557  155.0920 H   0  0  0  0  0  0  0  0  0  0  0  0
  142.6306  134.4261  155.1174 H   0  0  0  0  0  0  0  0  0  0  0  0
  142.8496  135.4151  153.6740 H   0  0  0  0  0  0  0  0  0  0  0  0
  143.7511  132.6365  154.0734 H   0  0  0  0  0  0  0  0  0  0  0  0
  143.6205  133.5857  152.5985 H   0  0  0  0  0  0  0  0  0  0  0  0
  145.9421  133.1676  154.4245 H   0  0  0  0  0  0  0  0  0  0  0  0
  147.3097  133.6261  152.4556 H   0  0  0  0  0  0  0  0  0  0  0  0
  146.6118  131.9459  150.8424 H   0  0  0  0  0  0  0  0  0  0  0  0
  146.2963  131.3418  152.4293 H   0  0  0  0  0  0  0  0  0  0  0  0
  144.7656  132.5447  149.4064 H   0  0  0  0  0  0  0  0  0  0  0  0
  143.1546  132.5892  150.0930 H   0  0  0  0  0  0  0  0  0  0  0  0
  144.1551  134.8974  149.8345 H   0  0  0  0  0  0  0  0  0  0  0  0
  143.7012  134.5371  151.4815 H   0  0  0  0  0  0  0  0  0  0  0  0
  146.4978  134.2999  150.2895 H   0  0  0  0  0  0  0  0  0  0  0  0
  146.9733  136.0415  151.4673 H   0  0  0  0  0  0  0  0  0  0  0  0
  149.7517  134.4270  155.6028 H   0  0  0  0  0  0  0  0  0  0  0  0
  150.6056  138.0991  154.8469 H   0  0  0  0  0  0  0  0  0  0  0  0
  151.8222  139.3074  154.5908 H   0  0  0  0  0  0  0  0  0  0  0  0
  151.5036  137.7157  157.1816 H   0  0  0  0  0  0  0  0  0  0  0  0
  152.7630  137.5481  155.9814 H   0  0  0  0  0  0  0  0  0  0  0  0
  151.4874  139.7855  158.5403 H   0  0  0  0  0  0  0  0  0  0  0  0
  152.7088  140.9835  158.1992 H   0  0  0  0  0  0  0  0  0  0  0  0
  151.7529  141.5395  156.0522 H   0  0  0  0  0  0  0  0  0  0  0  0
  150.4967  141.6959  157.2467 H   0  0  0  0  0  0  0  0  0  0  0  0
  1  2  1  0  0  0  0
  1 31  1  0  0  0  0
  2  3  1  0  0  0  0
  2 32  1  0  0  0  0
  2 33  1  0  0  0  0
  3 30  1  0  0  0  0
  3  4  1  0  0  0  0
  3 26  1  0  0  0  0
  4  5  1  0  0  0  0
  4 34  1  0  0  0  0
  4 35  1  0  0  0  0
  5 25  1  0  0  0  0
  5  6  1  0  0  0  0
  6  7  2  0  0  0  0
  6 36  1  0  0  0  0
  7  8  1  0  0  0  0
  8 25  2  0  0  0  0
  8  9  1  0  0  0  0
  9 10  1  0  0  0  0
  9 22  2  0  0  0  0
 10 14  1  0  0  0  0
 10 11  1  0  0  0  0
 11 12  1  0  0  0  0
 11 37  1  0  0  0  0
 11 38  1  0  0  0  0
 12 13  1  0  0  0  0
 12 39  1  0  0  0  0
 12 40  1  0  0  0  0
 13 14  1  0  0  0  0
 13 41  1  0  0  0  0
 13 42  1  0  0  0  0
 14 15  1  0  0  0  0
 14 43  1  0  0  0  0
 15 20  1  0  0  0  0
 15 16  1  0  0  0  0
 15 44  1  0  0  0  0
 16 17  1  0  0  0  0
 16 45  1  0  0  0  0
 16 46  1  0  0  0  0
 17 18  1  0  0  0  0
 18 19  1  0  0  0  0
 18 47  1  0  0  0  0
 18 48  1  0  0  0  0
 19 20  1  0  0  0  0
 19 49  1  0  0  0  0
 19 50  1  0  0  0  0
 20 21  1  0  0  0  0
 20 51  1  0  0  0  0
 21 52  1  0  0  0  0
 22 23  1  0  0  0  0
 23 24  2  0  0  0  0
 23 53  1  0  0  0  0
 24 25  1  0  0  0  0
 26 27  1  0  0  0  0
 26 54  1  0  0  0  0
 26 55  1  0  0  0  0
 27 28  1  0  0  0  0
 27 56  1  0  0  0  0
 27 57  1  0  0  0  0
 28 29  1  0  0  0  0
 29 30  1  0  0  0  0
 29 58  1  0  0  0  0
 29 59  1  0  0  0  0
 30 60  1  0  0  0  0
 30 61  1  0  0  0  0
M  END
> <s_m_source_file>
AV-unprocessed.smi

> <i_m_source_file_index>
247

> <i_lp_mmshare_version>
43012

> <i_f3d_flags>
0

> <s_epik_input>
W0NIMl0xW0NIMl1PW0NIMl1bQ0gyXUMxKFtDSDJdW09IXSlbQ0gyXW4oW2NIXW4yKWMoYzIzKW5bY0hdbmMzTjRbQ0gyXVtDSDJdW0NIMl1bQ0BIXTRbQ0BASF01W0NIMl1PW0NIMl1bQ0gyXVtDQEhdNVtPSF0=

> <s_epik_cmdline>
J2VwaWtfcHl0aG9uJywgJy1waCcsICc3LjAnLCAnLXRuJywgJzgnLCAnLW1hJywgJzIwMCcsICctbWV0YWxfYmluZGluZycsICctaW1hZScsICc8aW5maWxlLm1hZT4nLCAnLW9tYWUnLCAnPG91dGZpbGUubWFlPic=

> <r_lp_tautomer_probability>
1

> <r_epik_Ionization_Penalty>
0.00362597

> <r_epik_Ionization_Penalty_Charging>
0

> <r_epik_Ionization_Penalty_Neutral>
0.00362597

> <r_epik_State_Penalty>
0.00241433

> <r_epik_Charging_Adjusted_Penalty>
0.00241433

> <i_epik_Tot_Q>
0

> <i_epik_Tot_abs_Q>
0

> <r_epik_Metal_State_Penalty>
-0

> <b_epik_Metal_Only>
0

> <s_lp_Force_Field>
OPLS_2005

> <r_lp_Energy>
64.2344

> <b_lp_Chiralities_Consistent>
1

> <s_lp_Variant>
AV-unprocessed.smi:247-3

> <Gold.Version>
5.8.1

> <Gold.Id.Protein>
6NUR|6NUR_protein|mol2

> <Gold.PLP.Fitness>
40.1881

> <Gold.PLP.PLP>
-32.3756

> <Gold.PLP.part.hbond>
-3.0000

> <Gold.PLP.part.metal>
0.0000

> <Gold.PLP.part.buried>
-3.6251

> <Gold.PLP.part.nonpolar>
-26.9133

> <Gold.PLP.part.repulsive>
0.4751

> <Gold.PLP.ligand.clash>
0.0000

> <Gold.PLP.ligand.torsion>
0.5589

> <Gold.PLP.Chemscore.Hbond>
2.9510

> <Gold.PLP.Chemscore.CHOScore>
0.0000

> <Gold.PLP.Chemscore.Metal>
0.0000

> <Gold.Chemscore.Hbonds>
donor molecule, donor type, donor heavy atom, donor atom, acceptor molecule, acceptor atom, score
      L1  H     1    31       P1  7957  1.00
      L1  H    21    52       P1  7948  1.00
      P1  H  7997  8009       L1    28  1.00

> <Gold.PLP.Chemscore.Internal.Correction>
0.0774

> <Gold.Rescore>
     Score         DG    S(hbond)    S(metal)    S(lipo)     H(rot)  DE(clash)    DE(int)     intcor
      9.23     -16.32       2.83        0.00      82.49       3.23       0.85       6.25       ----

> <Gold.Chemscore.Fitness>
9.2313

> <Gold.Chemscore.DG>
-16.3242

> <Gold.Chemscore.ZeroCoef>
-5.4800

> <Gold.Chemscore.Hbond>
2.8313

> <Gold.Chemscore.Metal>
0.0000

> <Gold.Chemscore.Lipo>
82.4880

> <Gold.Chemscore.Internal_Hbond>
0.0000

> <Gold.Chemscore.DEClash>
0.8467

> <Gold.Chemscore.DEInternal>
6.2462

> <Gold.Chemscore.Rot>
3.2278

> <Gold.Chemscore.Internal.Correction>
   9.000000E+99

> <Gold.Chemscore.Hbonds>
donor molecule, donor type, donor heavy atom, donor atom, acceptor molecule, acceptor atom, score
      L1  H     1    31       P1  7957  1.00
      L1  H    21    52       P1  7948  0.97
      P1  H  7997  8009       L1    28  0.55

> <Gold.Chemscore.Hbond.Weighted>
-9.4564

> <Gold.Chemscore.Metal.Weighted>
-0.0000

> <Gold.Chemscore.Lipo.Weighted>
-9.6511

> <Gold.Chemscore.Internal_Hbond.Weighted>
0.0000

> <Gold.Chemscore.DEClash.Weighted>
0.8467

> <Gold.Chemscore.DEInternal.Weighted>
6.2462

> <Gold.Chemscore.Rot.Weighted>
8.2633

> <Gold.Chemscore.Internal.Correction.Weighted>
   9.000000E+99

> <Gold.Protein.RotatedTorsions>
[ 6907 6896 6895 6894 ] final  163.80 input  -60.11 | X-H torsion
[ 7974 7965 7964 7962 ] final   59.27 input  175.53 | X-H torsion
[ 8008 7997 7996 7995 ] final  168.78 input   59.86 | X-H torsion
[ 10167 10162 10161 10158 ] final  -24.10 input  -65.29 | X-H torsion
[ 10718 10713 10712 10709 ] final  -68.51 input   66.30 | X-H torsion
[ 10763 10752 10751 10750 ] final  -89.69 input  -60.55 | X-H torsion
[ 11005 11000 10999 10996 ] final   68.87 input  -57.11 | X-H torsion

> <Gold.Protein.ActiveResidues>
 VAL166  LYS551  ARG553  GLY616  TRP617  ASP618  TYR619  PRO620  LYS621  CYS622 
 ASP623  PHE694  ASN695  SER759  ASP760  ASP761  ALA762  ILE779  LEU786  VAL792 
 PHE793  MET794  SER795  GLU796  ALA797  LYS798  CYS799  TRP800  GLU811  SER814 

> <Gold.Protein.RotatedAtoms>
  151.9196  133.3582  159.3891 H   0  0  0  0  0  0  0  0  0  0  0  0  # atno 6907 bound_to 6896
  150.7040  134.4649  159.5407 H   0  0  0  0  0  0  0  0  0  0  0  0  # atno 6908 bound_to 6896
  152.2270  134.8359  160.0529 H   0  0  0  0  0  0  0  0  0  0  0  0  # atno 6909 bound_to 6896
  145.9090  139.3639  143.0547 H   0  0  0  0  0  0  0  0  0  0  0  0  # atno 7974 bound_to 7965
  156.1517  140.1581  156.8759 H   0  0  0  0  0  0  0  0  0  0  0  0  # atno 8008 bound_to 7997
  154.5077  140.0809  156.7964 H   0  0  0  0  0  0  0  0  0  0  0  0  # atno 8009 bound_to 7997
  155.3883  140.3408  155.4252 H   0  0  0  0  0  0  0  0  0  0  0  0  # atno 8010 bound_to 7997
  140.7288  143.4383  151.0696 H   0  0  0  0  0  0  0  0  0  0  0  0  # atno 10167 bound_to 10162
  156.0502  130.4296  150.2011 H   0  0  0  0  0  0  0  0  0  0  0  0  # atno 10718 bound_to 10713
  154.6579  135.5331  153.7982 H   0  0  0  0  0  0  0  0  0  0  0  0  # atno 10763 bound_to 10752
  153.0424  135.6498  154.0916 H   0  0  0  0  0  0  0  0  0  0  0  0  # atno 10764 bound_to 10752
  154.0828  135.2946  155.3267 H   0  0  0  0  0  0  0  0  0  0  0  0  # atno 10765 bound_to 10752
  139.9686  134.6938  156.0493 H   0  0  0  0  0  0  0  0  0  0  0  0  # atno 11005 bound_to 11000
  145.8695  140.9428  143.0658 LP  0  0  0  0  0  0  0  0  0  0  0  0  # atno 17320 bound_to 7965
  144.6741  140.0636  143.7475 LP  0  0  0  0  0  0  0  0  0  0  0  0  # atno 17321 bound_to 7965
  139.8047  143.8034  152.3166 LP  0  0  0  0  0  0  0  0  0  0  0  0  # atno 17342 bound_to 10162
  139.8063  144.7354  150.9757 LP  0  0  0  0  0  0  0  0  0  0  0  0  # atno 17343 bound_to 10162
  157.0095  130.9947  151.3369 LP  0  0  0  0  0  0  0  0  0  0  0  0  # atno 17370 bound_to 10713
  157.5420  130.8126  149.8040 LP  0  0  0  0  0  0  0  0  0  0  0  0  # atno 17371 bound_to 10713
  141.1366  133.6574  156.3611 LP  0  0  0  0  0  0  0  0  0  0  0  0  # atno 17394 bound_to 11000
  140.5342  134.6183  157.5359 LP  0  0  0  0  0  0  0  0  0  0  0  0  # atno 17395 bound_to 11000

$$$$
