AV-unprocessed.smi:1839|AV-procd|sdf|7487|dock6
  -GOLD-   22720 9183D 1   1.00000     0.00000
 Structure written by MMmdl.
 47 48  0  0  0  0  0  0  0  0  2 V2000
  152.6885  143.3583  161.6670 C   0  0  0  0  0  0  0  0  0  0  0  0
  152.3757  143.0383  160.2741 N   0  0  0  0  0  0  0  0  0  0  0  0
  152.3736  144.2006  159.3773 C   0  0  0  0  0  0  0  0  0  0  0  0
  152.3986  141.7515  159.8455 C   0  0  0  0  0  0  0  0  0  0  0  0
  153.0334  140.8770  160.4386 O   0  0  0  0  0  0  0  0  0  0  0  0
  151.7144  141.4901  158.7064 N   0  0  0  0  0  0  0  0  0  0  0  0
  150.4369  142.1392  158.3779 C   0  0  0  0  0  0  0  0  0  0  0  0
  150.4083  142.4932  156.8810 C   0  0  0  0  0  0  0  0  0  0  0  0
  150.6614  141.2449  156.0184 C   0  0  0  0  0  0  0  0  0  0  0  0
  151.9371  140.4987  156.4686 C   0  0  2  0  0  0  0  0  0  0  0  0
  152.1262  139.1938  155.6847 C   0  0  0  0  0  0  0  0  0  0  0  0
  153.1478  139.0078  155.0228 O   0  0  0  0  0  0  0  0  0  0  0  0
  151.1285  138.2993  155.7604 N   0  0  0  0  0  0  0  0  0  0  0  0
  151.1076  137.0120  155.0765 C   0  0  0  0  0  0  0  0  0  0  0  0
  149.7759  136.2739  155.2969 C   0  0  0  0  0  0  0  0  0  0  0  0
  149.9166  134.7748  155.1221 C   0  0  0  0  0  0  0  0  0  0  0  0
  150.5531  133.9643  156.0868 C   0  0  0  0  0  0  0  0  0  0  0  0
  150.6412  132.5735  155.8681 C   0  0  0  0  0  0  0  0  0  0  0  0
  150.0912  132.0235  154.6915 C   0  0  0  0  0  0  0  0  0  0  0  0
  149.4651  132.8795  153.7625 C   0  0  0  0  0  0  0  0  0  0  0  0
  149.4002  134.2067  154.0083 N   0  3  0  0  0  0  0  0  0  0  0  0
  151.8863  140.2224  157.9878 C   0  0  0  0  0  0  0  0  0  0  0  0
  152.2524  142.6304  162.3535 H   0  0  0  0  0  0  0  0  0  0  0  0
  152.2940  144.3365  161.9448 H   0  0  0  0  0  0  0  0  0  0  0  0
  153.7682  143.3702  161.8214 H   0  0  0  0  0  0  0  0  0  0  0  0
  152.7740  143.9625  158.3907 H   0  0  0  0  0  0  0  0  0  0  0  0
  152.9907  145.0069  159.7759 H   0  0  0  0  0  0  0  0  0  0  0  0
  151.3629  144.5895  159.2551 H   0  0  0  0  0  0  0  0  0  0  0  0
  149.6212  141.4536  158.6126 H   0  0  0  0  0  0  0  0  0  0  0  0
  150.2523  143.0308  158.9777 H   0  0  0  0  0  0  0  0  0  0  0  0
  149.4480  142.9383  156.6195 H   0  0  0  0  0  0  0  0  0  0  0  0
  151.1667  143.2464  156.6655 H   0  0  0  0  0  0  0  0  0  0  0  0
  149.7958  140.5848  156.0952 H   0  0  0  0  0  0  0  0  0  0  0  0
  150.7390  141.5312  154.9689 H   0  0  0  0  0  0  0  0  0  0  0  0
  152.7935  141.1467  156.2716 H   0  0  0  0  0  0  0  0  0  0  0  0
  150.3263  138.5301  156.3289 H   0  0  0  0  0  0  0  0  0  0  0  0
  151.2940  137.1555  154.0107 H   0  0  0  0  0  0  0  0  0  0  0  0
  151.9348  136.4132  155.4586 H   0  0  0  0  0  0  0  0  0  0  0  0
  149.3945  136.4804  156.2980 H   0  0  0  0  0  0  0  0  0  0  0  0
  149.0193  136.6382  154.6006 H   0  0  0  0  0  0  0  0  0  0  0  0
  150.9664  134.4011  156.9845 H   0  0  0  0  0  0  0  0  0  0  0  0
  151.1240  131.9365  156.5948 H   0  0  0  0  0  0  0  0  0  0  0  0
  150.1478  130.9608  154.5052 H   0  0  0  0  0  0  0  0  0  0  0  0
  149.0176  132.5454  152.8378 H   0  0  0  0  0  0  0  0  0  0  0  0
  152.8058  139.7164  158.2901 H   0  0  0  0  0  0  0  0  0  0  0  0
  151.0642  139.5497  158.2393 H   0  0  0  0  0  0  0  0  0  0  0  0
  148.9421  134.8080  153.3229 H   0  0  0  0  0  0  0  0  0  0  0  0
  1  2  1  0  0  0  0
  1 23  1  0  0  0  0
  1 24  1  0  0  0  0
  1 25  1  0  0  0  0
  2  3  1  0  0  0  0
  2  4  1  0  0  0  0
  3 26  1  0  0  0  0
  3 27  1  0  0  0  0
  3 28  1  0  0  0  0
  4  5  2  0  0  0  0
  4  6  1  0  0  0  0
  6 22  1  0  0  0  0
  6  7  1  0  0  0  0
  7  8  1  0  0  0  0
  7 29  1  0  0  0  0
  7 30  1  0  0  0  0
  8  9  1  0  0  0  0
  8 31  1  0  0  0  0
  8 32  1  0  0  0  0
  9 10  1  0  0  0  0
  9 33  1  0  0  0  0
  9 34  1  0  0  0  0
 10 11  1  0  0  0  0
 10 22  1  0  0  0  0
 10 35  1  0  0  0  0
 11 12  2  0  0  0  0
 11 13  1  0  0  0  0
 13 14  1  0  0  0  0
 13 36  1  0  0  0  0
 14 15  1  0  0  0  0
 14 37  1  0  0  0  0
 14 38  1  0  0  0  0
 15 16  1  0  0  0  0
 15 39  1  0  0  0  0
 15 40  1  0  0  0  0
 16 21  1  0  0  0  0
 16 17  2  0  0  0  0
 17 18  1  0  0  0  0
 17 41  1  0  0  0  0
 18 19  2  0  0  0  0
 18 42  1  0  0  0  0
 19 20  1  0  0  0  0
 19 43  1  0  0  0  0
 20 21  2  0  0  0  0
 20 44  1  0  0  0  0
 21 47  1  0  0  0  0
 22 45  1  0  0  0  0
 22 46  1  0  0  0  0
M  CHG  1  21   1
M  END
> <s_m_source_file>
AV-unprocessed.smi

> <i_m_source_file_index>
1839

> <i_lp_mmshare_version>
43012

> <i_f3d_flags>
0

> <s_epik_input>
W0NIM11OKFtDSDNdKUMoPU8pTjFbQ0gyXVtDSDJdW0NIMl1bQ0BIXShbQ0gyXTEpQyg9TylbTkhdW0NIMl1bQ0gyXWMyW2NIXVtjSF1bY0hdW2NIXW4y

> <s_epik_cmdline>
J2VwaWtfcHl0aG9uJywgJy1waCcsICc3LjAnLCAnLXRuJywgJzgnLCAnLW1hJywgJzIwMCcsICctbWV0YWxfYmluZGluZycsICctaW1hZScsICc8aW5maWxlLm1hZT4nLCAnLW9tYWUnLCAnPG91dGZpbGUubWFlPic=

> <r_epik_Ionization_Penalty>
1.8476

> <r_epik_Ionization_Penalty_Charging>
1.84754

> <r_epik_Ionization_Penalty_Neutral>
5.83857e-05

> <r_epik_State_Penalty>
1.96477

> <r_epik_Charging_Adjusted_Penalty>
3.81231

> <i_epik_Tot_Q>
1

> <i_epik_Tot_abs_Q>
1

> <r_epik_Metal_State_Penalty>
1.99061

> <b_epik_Metal_Only>
0

> <s_lp_Force_Field>
OPLS_2005

> <r_lp_Energy>
52.6854

> <b_lp_Chiralities_Consistent>
1

> <s_lp_Variant>
AV-unprocessed.smi:1839-4

> <Gold.Version>
5.8.1

> <Gold.Id.Protein>
6NUR|6NUR_protein|mol2

> <Gold.PLP.Fitness>
53.6062

> <Gold.PLP.PLP>
-45.2060

> <Gold.PLP.part.hbond>
-2.0000

> <Gold.PLP.part.metal>
0.0000

> <Gold.PLP.part.buried>
-4.8249

> <Gold.PLP.part.nonpolar>
-38.3302

> <Gold.PLP.part.repulsive>
0.0896

> <Gold.PLP.ligand.clash>
0.0057

> <Gold.PLP.ligand.torsion>
0.9678

> <Gold.PLP.Chemscore.Hbond>
3.0000

> <Gold.PLP.Chemscore.CHOScore>
0.0000

> <Gold.PLP.Chemscore.Metal>
0.0000

> <Gold.Chemscore.Hbonds>
donor molecule, donor type, donor heavy atom, donor atom, acceptor molecule, acceptor atom, score
      L1  H    21    47       P1  7948  1.90
      P1  H  7997  8009       L1    12  1.00

> <Gold.PLP.Chemscore.Internal.Correction>
1.3416

> <Gold.Rescore>
     Score         DG    S(hbond)    S(metal)    S(lipo)     H(rot)  DE(clash)    DE(int)     intcor
     15.55     -17.80       1.68        0.00      92.49       1.60       0.04       2.20       ----

> <Gold.Chemscore.Fitness>
15.5515

> <Gold.Chemscore.DG>
-17.8002

> <Gold.Chemscore.ZeroCoef>
-5.4800

> <Gold.Chemscore.Hbond>
1.6788

> <Gold.Chemscore.Metal>
0.0000

> <Gold.Chemscore.Lipo>
92.4932

> <Gold.Chemscore.Internal_Hbond>
0.0000

> <Gold.Chemscore.DEClash>
0.0439

> <Gold.Chemscore.DEInternal>
2.2048

> <Gold.Chemscore.Rot>
1.6049

> <Gold.Chemscore.Internal.Correction>
   9.000000E+99

> <Gold.Chemscore.Hbonds>
donor molecule, donor type, donor heavy atom, donor atom, acceptor molecule, acceptor atom, score
      L1  H    21    47       P1  7948  0.20
      P1  H  7997  8009       L1    12  0.65

> <Gold.Chemscore.Hbond.Weighted>
-5.6071

> <Gold.Chemscore.Metal.Weighted>
-0.0000

> <Gold.Chemscore.Lipo.Weighted>
-10.8217

> <Gold.Chemscore.Internal_Hbond.Weighted>
0.0000

> <Gold.Chemscore.DEClash.Weighted>
0.0439

> <Gold.Chemscore.DEInternal.Weighted>
2.2048

> <Gold.Chemscore.Rot.Weighted>
4.1087

> <Gold.Chemscore.Internal.Correction.Weighted>
   9.000000E+99

> <Gold.Protein.RotatedTorsions>
[ 6907 6896 6895 6894 ] final   32.94 input  -60.11 | X-H torsion
[ 7974 7965 7964 7962 ] final   59.35 input  175.53 | X-H torsion
[ 8008 7997 7996 7995 ] final -121.82 input   59.86 | X-H torsion
[ 10167 10162 10161 10158 ] final   33.23 input  -65.29 | X-H torsion
[ 10718 10713 10712 10709 ] final  103.99 input   66.30 | X-H torsion
[ 10763 10752 10751 10750 ] final -167.87 input  -60.55 | X-H torsion
[ 11005 11000 10999 10996 ] final  123.70 input  -57.11 | X-H torsion

> <Gold.Protein.ActiveResidues>
 VAL166  LYS551  ARG553  GLY616  TRP617  ASP618  TYR619  PRO620  LYS621  CYS622 
 ASP623  PHE694  ASN695  SER759  ASP760  ASP761  ALA762  ILE779  LEU786  VAL792 
 PHE793  MET794  SER795  GLU796  ALA797  LYS798  CYS799  TRP800  GLU811  SER814 

> <Gold.Protein.RotatedAtoms>
  152.0815  134.9468  160.0573 H   0  0  0  0  0  0  0  0  0  0  0  0  # atno 6907 bound_to 6896
  152.0754  133.4122  159.4486 H   0  0  0  0  0  0  0  0  0  0  0  0  # atno 6908 bound_to 6896
  150.6836  134.2963  159.4731 H   0  0  0  0  0  0  0  0  0  0  0  0  # atno 6909 bound_to 6896
  145.9081  139.3633  143.0552 H   0  0  0  0  0  0  0  0  0  0  0  0  # atno 7974 bound_to 7965
  155.1541  140.0404  157.2828 H   0  0  0  0  0  0  0  0  0  0  0  0  # atno 8008 bound_to 7997
  154.6383  140.2541  155.7325 H   0  0  0  0  0  0  0  0  0  0  0  0  # atno 8009 bound_to 7997
  156.2519  140.2861  156.0765 H   0  0  0  0  0  0  0  0  0  0  0  0  # atno 8010 bound_to 7997
  140.4426  144.1165  150.6177 H   0  0  0  0  0  0  0  0  0  0  0  0  # atno 10167 bound_to 10162
  157.6755  131.0792  150.5638 H   0  0  0  0  0  0  0  0  0  0  0  0  # atno 10718 bound_to 10713
  154.6687  135.2936  154.9771 H   0  0  0  0  0  0  0  0  0  0  0  0  # atno 10763 bound_to 10752
  154.0805  135.6605  153.4841 H   0  0  0  0  0  0  0  0  0  0  0  0  # atno 10764 bound_to 10752
  153.0473  135.5196  154.7672 H   0  0  0  0  0  0  0  0  0  0  0  0  # atno 10765 bound_to 10752
  139.9325  134.9641  156.8299 H   0  0  0  0  0  0  0  0  0  0  0  0  # atno 11005 bound_to 11000
  145.8706  140.9422  143.0653 LP  0  0  0  0  0  0  0  0  0  0  0  0  # atno 17320 bound_to 7965
  144.6741  140.0649  143.7475 LP  0  0  0  0  0  0  0  0  0  0  0  0  # atno 17321 bound_to 7965
  140.4300  143.2572  151.9607 LP  0  0  0  0  0  0  0  0  0  0  0  0  # atno 17342 bound_to 10162
  139.4790  144.5752  151.8023 LP  0  0  0  0  0  0  0  0  0  0  0  0  # atno 17343 bound_to 10162
  156.5940  130.4337  149.5924 LP  0  0  0  0  0  0  0  0  0  0  0  0  # atno 17370 bound_to 10713
  156.2560  130.6934  151.1688 LP  0  0  0  0  0  0  0  0  0  0  0  0  # atno 17371 bound_to 10713
  140.6164  134.0034  155.7599 LP  0  0  0  0  0  0  0  0  0  0  0  0  # atno 17394 bound_to 11000
  141.0921  133.9901  157.3220 LP  0  0  0  0  0  0  0  0  0  0  0  0  # atno 17395 bound_to 11000

$$$$
