AV-unprocessed.smi:1436|AV-procd|sdf|5859|dock10
  -GOLD-   22720 5533D 1   1.00000     0.00000
 Structure written by MMmdl.
 43 44  0  0  0  0  0  0  0  0  1 V2000
  153.6987  136.9368  158.1774 C   0  0  0  0  0  0  0  0  0  0  0  0
  153.0930  137.5874  156.9674 C   0  0  0  0  0  0  0  0  0  0  0  0
  153.6954  137.4658  155.7968 N   0  0  0  0  0  0  0  0  0  0  0  0
  152.9161  138.1880  154.8888 O   0  0  0  0  0  0  0  0  0  0  0  0
  151.8639  138.7253  155.5562 C   0  0  0  0  0  0  0  0  0  0  0  0
  150.9261  139.5573  154.7491 C   0  0  0  0  0  0  0  0  0  0  0  0
  151.9129  138.3818  156.8802 C   0  0  0  0  0  0  0  0  0  0  0  0
  150.9699  138.7664  157.9943 C   0  0  0  0  0  0  0  0  0  0  0  0
  150.3452  137.5064  158.5942 C   0  0  0  0  0  0  0  0  0  0  0  0
  151.0532  136.6798  159.1684 O   0  0  0  0  0  0  0  0  0  0  0  0
  149.0135  137.3880  158.4736 N   0  0  0  0  0  0  0  0  0  0  0  0
  148.1895  136.3455  159.0779 C   0  0  2  0  0  0  0  0  0  0  0  0
  147.5166  135.4980  157.9878 C   0  0  0  0  0  0  0  0  0  0  0  0
  147.1882  136.9106  160.1176 C   0  0  0  0  0  0  0  0  0  0  0  0
  147.0240  136.1605  161.3685 N   0  0  0  0  0  0  0  0  0  0  0  0
  146.6414  134.7795  161.0894 C   0  0  0  0  0  0  0  0  0  0  0  0
  146.4620  133.9546  162.3750 C   0  0  0  0  0  0  0  0  0  0  0  0
  147.6667  133.9897  163.1319 O   0  0  0  0  0  0  0  0  0  0  0  0
  148.0560  135.3148  163.4749 C   0  0  0  0  0  0  0  0  0  0  0  0
  148.2284  136.1542  162.1976 C   0  0  0  0  0  0  0  0  0  0  0  0
  154.4652  137.5751  158.6173 H   0  0  0  0  0  0  0  0  0  0  0  0
  154.1615  135.9816  157.9276 H   0  0  0  0  0  0  0  0  0  0  0  0
  152.9471  136.7470  158.9435 H   0  0  0  0  0  0  0  0  0  0  0  0
  151.4556  140.3899  154.2856 H   0  0  0  0  0  0  0  0  0  0  0  0
  150.1295  139.9700  155.3676 H   0  0  0  0  0  0  0  0  0  0  0  0
  150.4672  138.9649  153.9576 H   0  0  0  0  0  0  0  0  0  0  0  0
  151.4795  139.3169  158.7853 H   0  0  0  0  0  0  0  0  0  0  0  0
  150.1781  139.4236  157.6330 H   0  0  0  0  0  0  0  0  0  0  0  0
  148.5226  138.1176  157.9777 H   0  0  0  0  0  0  0  0  0  0  0  0
  148.8685  135.6818  159.6165 H   0  0  0  0  0  0  0  0  0  0  0  0
  146.9224  134.6966  158.4277 H   0  0  0  0  0  0  0  0  0  0  0  0
  148.2592  135.0376  157.3353 H   0  0  0  0  0  0  0  0  0  0  0  0
  146.8550  136.0989  157.3630 H   0  0  0  0  0  0  0  0  0  0  0  0
  147.5455  137.9096  160.3716 H   0  0  0  0  0  0  0  0  0  0  0  0
  146.2141  137.0687  159.6523 H   0  0  0  0  0  0  0  0  0  0  0  0
  145.7109  134.7609  160.5207 H   0  0  0  0  0  0  0  0  0  0  0  0
  147.3984  134.3054  160.4625 H   0  0  0  0  0  0  0  0  0  0  0  0
  145.6354  134.3423  162.9722 H   0  0  0  0  0  0  0  0  0  0  0  0
  146.2241  132.9191  162.1312 H   0  0  0  0  0  0  0  0  0  0  0  0
  147.3081  135.7622  164.1312 H   0  0  0  0  0  0  0  0  0  0  0  0
  148.9919  135.2801  164.0327 H   0  0  0  0  0  0  0  0  0  0  0  0
  149.0719  135.7691  161.6229 H   0  0  0  0  0  0  0  0  0  0  0  0
  148.4850  137.1673  162.4997 H   0  0  0  0  0  0  0  0  0  0  0  0
  1  2  1  0  0  0  0
  1 21  1  0  0  0  0
  1 22  1  0  0  0  0
  1 23  1  0  0  0  0
  2  7  1  0  0  0  0
  2  3  2  0  0  0  0
  3  4  1  0  0  0  0
  4  5  1  0  0  0  0
  5  6  1  0  0  0  0
  5  7  2  0  0  0  0
  6 24  1  0  0  0  0
  6 25  1  0  0  0  0
  6 26  1  0  0  0  0
  7  8  1  0  0  0  0
  8  9  1  0  0  0  0
  8 27  1  0  0  0  0
  8 28  1  0  0  0  0
  9 10  2  0  0  0  0
  9 11  1  0  0  0  0
 11 12  1  0  0  0  0
 11 29  1  0  0  0  0
 12 13  1  0  0  0  0
 12 14  1  0  0  0  0
 12 30  1  0  0  0  0
 13 31  1  0  0  0  0
 13 32  1  0  0  0  0
 13 33  1  0  0  0  0
 14 15  1  0  0  0  0
 14 34  1  0  0  0  0
 14 35  1  0  0  0  0
 15 20  1  0  0  0  0
 15 16  1  0  0  0  0
 16 17  1  0  0  0  0
 16 36  1  0  0  0  0
 16 37  1  0  0  0  0
 17 18  1  0  0  0  0
 17 38  1  0  0  0  0
 17 39  1  0  0  0  0
 18 19  1  0  0  0  0
 19 20  1  0  0  0  0
 19 40  1  0  0  0  0
 19 41  1  0  0  0  0
 20 42  1  0  0  0  0
 20 43  1  0  0  0  0
M  END
> <s_m_source_file>
AV-unprocessed.smi

> <i_m_source_file_index>
1436

> <i_lp_mmshare_version>
43012

> <i_f3d_flags>
0

> <s_epik_input>
W0NIM11jMW5vYyhbQ0gzXSljMVtDSDJdQyg9TylbTkhdW0NASF0oW0NIM10pW0NIMl1OMltDSDJdW0NIMl1PW0NIMl1bQ0gyXTI=

> <s_epik_cmdline>
J2VwaWtfcHl0aG9uJywgJy1waCcsICc3LjAnLCAnLXRuJywgJzgnLCAnLW1hJywgJzIwMCcsICctbWV0YWxfYmluZGluZycsICctaW1hZScsICc8aW5maWxlLm1hZT4nLCAnLW9tYWUnLCAnPG91dGZpbGUubWFlPic=

> <r_epik_Ionization_Penalty>
0.234179

> <r_epik_Ionization_Penalty_Charging>
0

> <r_epik_Ionization_Penalty_Neutral>
0.234179

> <r_epik_State_Penalty>
0.224936

> <r_epik_Charging_Adjusted_Penalty>
0.224936

> <i_epik_Tot_Q>
0

> <i_epik_Tot_abs_Q>
0

> <r_epik_Metal_State_Penalty>
0.224936

> <b_epik_Metal_Only>
0

> <s_lp_Force_Field>
OPLS_2005

> <r_lp_Energy>
20.5604

> <b_lp_Chiralities_Consistent>
1

> <s_lp_Variant>
AV-unprocessed.smi:1436-1

> <Gold.Version>
5.8.1

> <Gold.Id.Protein>
6NUR|6NUR_protein|mol2

> <Gold.PLP.Fitness>
34.7263

> <Gold.PLP.PLP>
-32.3173

> <Gold.PLP.part.hbond>
-4.8715

> <Gold.PLP.part.metal>
0.0000

> <Gold.PLP.part.buried>
-4.3721

> <Gold.PLP.part.nonpolar>
-22.7783

> <Gold.PLP.part.repulsive>
0.1562

> <Gold.PLP.ligand.clash>
0.0000

> <Gold.PLP.ligand.torsion>
0.5934

> <Gold.PLP.Chemscore.Hbond>
1.1806

> <Gold.PLP.Chemscore.CHOScore>
0.0000

> <Gold.PLP.Chemscore.Metal>
0.0000

> <Gold.Chemscore.Hbonds>
donor molecule, donor type, donor heavy atom, donor atom, acceptor molecule, acceptor atom, score
      P1  H  6896  6909       L1    10  1.00
      P1  H 10752 10764       L1     3  0.01

> <Gold.PLP.Chemscore.Internal.Correction>
0.0538

> <Gold.Rescore>
     Score         DG    S(hbond)    S(metal)    S(lipo)     H(rot)  DE(clash)    DE(int)     intcor
     11.99     -12.97       1.00        0.00      73.04       1.71       0.02       0.95       ----

> <Gold.Chemscore.Fitness>
11.9936

> <Gold.Chemscore.DG>
-12.9693

> <Gold.Chemscore.ZeroCoef>
-5.4800

> <Gold.Chemscore.Hbond>
0.9980

> <Gold.Chemscore.Metal>
0.0000

> <Gold.Chemscore.Lipo>
73.0356

> <Gold.Chemscore.Internal_Hbond>
0.0000

> <Gold.Chemscore.DEClash>
0.0221

> <Gold.Chemscore.DEInternal>
0.9536

> <Gold.Chemscore.Rot>
1.7145

> <Gold.Chemscore.Internal.Correction>
   9.000000E+99

> <Gold.Chemscore.Hbonds>
donor molecule, donor type, donor heavy atom, donor atom, acceptor molecule, acceptor atom, score
      P1  H  6896  6909       L1    10  0.95
      P1  H 10752 10764       L1     3  0.02

> <Gold.Chemscore.Hbond.Weighted>
-3.3332

> <Gold.Chemscore.Metal.Weighted>
-0.0000

> <Gold.Chemscore.Lipo.Weighted>
-8.5452

> <Gold.Chemscore.Internal_Hbond.Weighted>
0.0000

> <Gold.Chemscore.DEClash.Weighted>
0.0221

> <Gold.Chemscore.DEInternal.Weighted>
0.9536

> <Gold.Chemscore.Rot.Weighted>
4.3891

> <Gold.Chemscore.Internal.Correction.Weighted>
   9.000000E+99

> <Gold.Protein.RotatedTorsions>
[ 6907 6896 6895 6894 ] final  114.13 input  -60.11 | X-H torsion
[ 7974 7965 7964 7962 ] final   32.00 input  175.53 | X-H torsion
[ 8008 7997 7996 7995 ] final  115.06 input   59.86 | X-H torsion
[ 10167 10162 10161 10158 ] final  -91.70 input  -65.29 | X-H torsion
[ 10718 10713 10712 10709 ] final  -44.17 input   66.30 | X-H torsion
[ 10763 10752 10751 10750 ] final   46.77 input  -60.55 | X-H torsion
[ 11005 11000 10999 10996 ] final -103.85 input  -57.11 | X-H torsion

> <Gold.Protein.ActiveResidues>
 VAL166  LYS551  ARG553  GLY616  TRP617  ASP618  TYR619  PRO620  LYS621  CYS622 
 ASP623  PHE694  ASN695  SER759  ASP760  ASP761  ALA762  ILE779  LEU786  VAL792 
 PHE793  MET794  SER795  GLU796  ALA797  LYS798  CYS799  TRP800  GLU811  SER814 

> <Gold.Protein.RotatedAtoms>
  152.4821  133.8279  159.7087 H   0  0  0  0  0  0  0  0  0  0  0  0  # atno 6907 bound_to 6896
  150.8878  133.7274  159.2920 H   0  0  0  0  0  0  0  0  0  0  0  0  # atno 6908 bound_to 6896
  151.4757  135.1052  159.9816 H   0  0  0  0  0  0  0  0  0  0  0  0  # atno 6909 bound_to 6896
  146.1514  139.6583  142.9096 H   0  0  0  0  0  0  0  0  0  0  0  0  # atno 7974 bound_to 7965
  156.2359  140.2946  156.0311 H   0  0  0  0  0  0  0  0  0  0  0  0  # atno 8008 bound_to 7997
  155.2093  140.0412  157.2948 H   0  0  0  0  0  0  0  0  0  0  0  0  # atno 8009 bound_to 7997
  154.6078  140.2444  155.7716 H   0  0  0  0  0  0  0  0  0  0  0  0  # atno 8010 bound_to 7997
  140.3423  143.2936  151.9821 H   0  0  0  0  0  0  0  0  0  0  0  0  # atno 10167 bound_to 10162
  156.2413  130.4180  149.8757 H   0  0  0  0  0  0  0  0  0  0  0  0  # atno 10718 bound_to 10713
  152.9807  135.5997  154.3654 H   0  0  0  0  0  0  0  0  0  0  0  0  # atno 10763 bound_to 10752
  154.3332  135.2768  155.2463 H   0  0  0  0  0  0  0  0  0  0  0  0  # atno 10764 bound_to 10752
  154.4578  135.5973  153.6290 H   0  0  0  0  0  0  0  0  0  0  0  0  # atno 10765 bound_to 10752
  141.1127  133.8674  157.1538 H   0  0  0  0  0  0  0  0  0  0  0  0  # atno 11005 bound_to 11000
  145.4813  141.0438  143.2644 LP  0  0  0  0  0  0  0  0  0  0  0  0  # atno 17320 bound_to 7965
  144.7909  139.6330  143.7113 LP  0  0  0  0  0  0  0  0  0  0  0  0  # atno 17321 bound_to 7965
  139.4838  144.6146  151.7369 LP  0  0  0  0  0  0  0  0  0  0  0  0  # atno 17342 bound_to 10162
  140.5298  144.0749  150.6049 LP  0  0  0  0  0  0  0  0  0  0  0  0  # atno 17343 bound_to 10162
  156.6337  130.8676  151.3500 LP  0  0  0  0  0  0  0  0  0  0  0  0  # atno 17370 bound_to 10713
  157.7176  130.9517  150.1315 LP  0  0  0  0  0  0  0  0  0  0  0  0  # atno 17371 bound_to 10713
  140.0030  135.0020  157.0232 LP  0  0  0  0  0  0  0  0  0  0  0  0  # atno 17394 bound_to 11000
  140.4731  134.1366  155.7206 LP  0  0  0  0  0  0  0  0  0  0  0  0  # atno 17395 bound_to 11000

$$$$
