AV-unprocessed.smi:1550|AV-procd|sdf|6226|dock2
  -GOLD-   22720 6403D 1   1.00000     0.00000
 Structure written by MMmdl.
 43 44  0  0  0  0  0  0  0  0  1 V2000
  150.1344  136.4387  156.3100 C   0  0  0  0  0  0  0  0  0  0  0  0
  150.9593  136.5345  157.6019 C   0  0  2  0  0  0  0  0  0  0  0  0
  150.5014  135.5094  158.4796 O   0  0  0  0  0  0  0  0  0  0  0  0
  149.1440  135.6171  158.8944 C   0  0  0  0  0  0  0  0  0  0  0  0
  149.0583  135.2723  160.3866 C   0  0  1  0  0  0  0  0  0  0  0  0
  148.2627  136.3300  161.1766 C   0  0  0  0  0  0  0  0  0  0  0  0
  148.1156  135.9097  162.6436 C   0  0  0  0  0  0  0  0  0  0  0  0
  147.5259  134.4974  162.7194 C   0  0  0  0  0  0  0  0  0  0  0  0
  148.3419  133.5305  161.8470 C   0  0  0  0  0  0  0  0  0  0  0  0
  148.3960  134.0151  160.5089 O   0  0  0  0  0  0  0  0  0  0  0  0
  150.7997  137.9125  158.2649 C   0  0  0  0  0  0  0  0  0  0  0  0
  150.5477  137.9813  159.4678 O   0  0  0  0  0  0  0  0  0  0  0  0
  150.9529  138.9710  157.4451 N   0  0  0  0  0  0  0  0  0  0  0  0
  150.9329  140.3403  157.7559 C   0  0  0  0  0  0  0  0  0  0  0  0
  151.6485  140.9146  158.7578 C   0  0  0  0  0  0  0  0  0  0  0  0
  151.5986  142.3431  159.0203 C   0  0  0  0  0  0  0  0  0  0  0  0
  152.4515  142.9825  160.1052 C   0  0  0  0  0  0  0  0  0  0  0  0
  153.1181  142.0622  160.8034 F   0  0  0  0  0  0  0  0  0  0  0  0
  153.3390  143.8102  159.5554 F   0  0  0  0  0  0  0  0  0  0  0  0
  151.6984  143.6854  160.9515 F   0  0  0  0  0  0  0  0  0  0  0  0
  150.8264  143.0773  158.1981 C   0  0  0  0  0  0  0  0  0  0  0  0
  150.0874  142.4944  157.1660 N   0  0  0  0  0  0  0  0  0  0  0  0
  150.0904  141.1729  156.8818 C   0  0  0  0  0  0  0  0  0  0  0  0
  149.4199  140.7363  155.9468 O   0  0  0  0  0  0  0  0  0  0  0  0
  149.5257  143.1126  156.5985 H   0  0  0  0  0  0  0  0  0  0  0  0
  150.4268  137.2084  155.5948 H   0  0  0  0  0  0  0  0  0  0  0  0
  149.0671  136.5500  156.5057 H   0  0  0  0  0  0  0  0  0  0  0  0
  150.2804  135.4709  155.8298 H   0  0  0  0  0  0  0  0  0  0  0  0
  152.0078  136.3566  157.3544 H   0  0  0  0  0  0  0  0  0  0  0  0
  148.8054  136.6412  158.7303 H   0  0  0  0  0  0  0  0  0  0  0  0
  148.4870  134.9601  158.3233 H   0  0  0  0  0  0  0  0  0  0  0  0
  150.0688  135.1988  160.7930 H   0  0  0  0  0  0  0  0  0  0  0  0
  148.7566  137.3002  161.1157 H   0  0  0  0  0  0  0  0  0  0  0  0
  147.2740  136.4537  160.7325 H   0  0  0  0  0  0  0  0  0  0  0  0
  149.0913  135.9274  163.1310 H   0  0  0  0  0  0  0  0  0  0  0  0
  147.4824  136.6158  163.1810 H   0  0  0  0  0  0  0  0  0  0  0  0
  147.5059  134.1503  163.7526 H   0  0  0  0  0  0  0  0  0  0  0  0
  146.4915  134.5132  162.3735 H   0  0  0  0  0  0  0  0  0  0  0  0
  149.3516  133.4054  162.2411 H   0  0  0  0  0  0  0  0  0  0  0  0
  147.8770  132.5447  161.8450 H   0  0  0  0  0  0  0  0  0  0  0  0
  151.0680  138.7633  156.4635 H   0  0  0  0  0  0  0  0  0  0  0  0
  152.2967  140.3221  159.3832 H   0  0  0  0  0  0  0  0  0  0  0  0
  150.7206  144.1504  158.2597 H   0  0  0  0  0  0  0  0  0  0  0  0
  1  2  1  0  0  0  0
  1 26  1  0  0  0  0
  1 27  1  0  0  0  0
  1 28  1  0  0  0  0
  2  3  1  0  0  0  0
  2 11  1  0  0  0  0
  2 29  1  0  0  0  0
  3  4  1  0  0  0  0
  4  5  1  0  0  0  0
  4 30  1  0  0  0  0
  4 31  1  0  0  0  0
  5 10  1  0  0  0  0
  5  6  1  0  0  0  0
  5 32  1  0  0  0  0
  6  7  1  0  0  0  0
  6 33  1  0  0  0  0
  6 34  1  0  0  0  0
  7  8  1  0  0  0  0
  7 35  1  0  0  0  0
  7 36  1  0  0  0  0
  8  9  1  0  0  0  0
  8 37  1  0  0  0  0
  8 38  1  0  0  0  0
  9 10  1  0  0  0  0
  9 39  1  0  0  0  0
  9 40  1  0  0  0  0
 11 12  2  0  0  0  0
 11 13  1  0  0  0  0
 13 14  1  0  0  0  0
 13 41  1  0  0  0  0
 14 23  1  0  0  0  0
 14 15  2  0  0  0  0
 15 16  1  0  0  0  0
 15 42  1  0  0  0  0
 16 17  1  0  0  0  0
 16 21  2  0  0  0  0
 17 18  1  0  0  0  0
 17 19  1  0  0  0  0
 17 20  1  0  0  0  0
 21 22  1  0  0  0  0
 21 43  1  0  0  0  0
 22 25  1  0  0  0  0
 22 23  1  0  0  0  0
 23 24  2  0  0  0  0
M  END
> <s_m_source_file>
AV-unprocessed.smi

> <i_m_source_file_index>
1550

> <i_lp_mmshare_version>
43012

> <i_f3d_flags>
0

> <s_epik_input>
TzFbQ0gyXVtDSDJdW0NIMl1bQ0gyXVtDQEhdMVtDSDJdT1tDQEBIXShbQ0gzXSlDKD1PKVtOSF1jMltjSF1jKEMoRikoRilGKVtjSF1bbkhdYzI9Tw==

> <s_epik_cmdline>
J2VwaWtfcHl0aG9uJywgJy1waCcsICc3LjAnLCAnLXRuJywgJzgnLCAnLW1hJywgJzIwMCcsICctbWV0YWxfYmluZGluZycsICctaW1hZScsICc8aW5maWxlLm1hZT4nLCAnLW9tYWUnLCAnPG91dGZpbGUubWFlPic=

> <r_lp_tautomer_probability>
0.999

> <r_epik_Ionization_Penalty>
0.00891333

> <r_epik_Ionization_Penalty_Charging>
0.00891323

> <r_epik_Ionization_Penalty_Neutral>
1.00146e-07

> <r_epik_State_Penalty>
0.00674197

> <r_epik_Charging_Adjusted_Penalty>
0.0156552

> <i_epik_Tot_Q>
0

> <i_epik_Tot_abs_Q>
0

> <r_epik_Metal_State_Penalty>
0.321024

> <b_epik_Metal_Only>
0

> <s_lp_Force_Field>
OPLS_2005

> <r_lp_Energy>
25.8894

> <b_lp_Chiralities_Consistent>
1

> <s_lp_Variant>
AV-unprocessed.smi:1550-3

> <Gold.Version>
5.8.1

> <Gold.Id.Protein>
6NUR|6NUR_protein|mol2

> <Gold.PLP.Fitness>
49.7656

> <Gold.PLP.PLP>
-46.9698

> <Gold.PLP.part.hbond>
-3.0000

> <Gold.PLP.part.metal>
0.0000

> <Gold.PLP.part.buried>
-6.2171

> <Gold.PLP.part.nonpolar>
-37.3876

> <Gold.PLP.part.repulsive>
0.0940

> <Gold.PLP.ligand.clash>
0.0000

> <Gold.PLP.ligand.torsion>
1.7121

> <Gold.PLP.Chemscore.Hbond>
2.0000

> <Gold.PLP.Chemscore.CHOScore>
0.0000

> <Gold.PLP.Chemscore.Metal>
0.0000

> <Gold.Chemscore.Hbonds>
donor molecule, donor type, donor heavy atom, donor atom, acceptor molecule, acceptor atom, score
      L1  H    22    25       P1  8028  1.00
      P1  H  6896  6908       L1     3  0.24

> <Gold.PLP.Chemscore.Internal.Correction>
0.2201

> <Gold.Rescore>
     Score         DG    S(hbond)    S(metal)    S(lipo)     H(rot)  DE(clash)    DE(int)     intcor
     15.19     -17.68       1.94        0.00      89.61       1.86       0.02       2.47       ----

> <Gold.Chemscore.Fitness>
15.1891

> <Gold.Chemscore.DG>
-17.6804

> <Gold.Chemscore.ZeroCoef>
-5.4800

> <Gold.Chemscore.Hbond>
1.9372

> <Gold.Chemscore.Metal>
0.0000

> <Gold.Chemscore.Lipo>
89.6083

> <Gold.Chemscore.Internal_Hbond>
0.0000

> <Gold.Chemscore.DEClash>
0.0236

> <Gold.Chemscore.DEInternal>
2.4676

> <Gold.Chemscore.Rot>
1.8571

> <Gold.Chemscore.Internal.Correction>
   9.000000E+99

> <Gold.Chemscore.Hbonds>
donor molecule, donor type, donor heavy atom, donor atom, acceptor molecule, acceptor atom, score
      L1  H    22    25       P1  8028  0.98
      P1  H  6896  6908       L1     3  0.01

> <Gold.Chemscore.Hbond.Weighted>
-6.4703

> <Gold.Chemscore.Metal.Weighted>
-0.0000

> <Gold.Chemscore.Lipo.Weighted>
-10.4842

> <Gold.Chemscore.Internal_Hbond.Weighted>
0.0000

> <Gold.Chemscore.DEClash.Weighted>
0.0236

> <Gold.Chemscore.DEInternal.Weighted>
2.4676

> <Gold.Chemscore.Rot.Weighted>
4.7541

> <Gold.Chemscore.Internal.Correction.Weighted>
   9.000000E+99

> <Gold.Protein.RotatedTorsions>
[ 6907 6896 6895 6894 ] final  178.23 input  -60.11 | X-H torsion
[ 7974 7965 7964 7962 ] final -105.59 input  175.53 | X-H torsion
[ 8008 7997 7996 7995 ] final   92.13 input   59.86 | X-H torsion
[ 10167 10162 10161 10158 ] final  121.13 input  -65.29 | X-H torsion
[ 10718 10713 10712 10709 ] final  121.06 input   66.30 | X-H torsion
[ 10763 10752 10751 10750 ] final  106.35 input  -60.55 | X-H torsion
[ 11005 11000 10999 10996 ] final -106.07 input  -57.11 | X-H torsion

> <Gold.Protein.ActiveResidues>
 VAL166  LYS551  ARG553  GLY616  TRP617  ASP618  TYR619  PRO620  LYS621  CYS622 
 ASP623  PHE694  ASN695  SER759  ASP760  ASP761  ALA762  ILE779  LEU786  VAL792 
 PHE793  MET794  SER795  GLU796  ALA797  LYS798  CYS799  TRP800  GLU811  SER814 

> <Gold.Protein.RotatedAtoms>
  151.6913  133.3311  159.3243 H   0  0  0  0  0  0  0  0  0  0  0  0  # atno 6907 bound_to 6896
  150.7778  134.6696  159.6394 H   0  0  0  0  0  0  0  0  0  0  0  0  # atno 6908 bound_to 6896
  152.3825  134.6571  160.0189 H   0  0  0  0  0  0  0  0  0  0  0  0  # atno 6909 bound_to 6896
  145.2286  140.9162  143.3218 H   0  0  0  0  0  0  0  0  0  0  0  0  # atno 7974 bound_to 7965
  156.0318  140.3329  155.7148 H   0  0  0  0  0  0  0  0  0  0  0  0  # atno 8008 bound_to 7997
  155.5873  140.0643  157.2785 H   0  0  0  0  0  0  0  0  0  0  0  0  # atno 8009 bound_to 7997
  154.4356  140.1833  156.1027 H   0  0  0  0  0  0  0  0  0  0  0  0  # atno 8010 bound_to 7997
  139.5939  144.7035  151.3224 H   0  0  0  0  0  0  0  0  0  0  0  0  # atno 10167 bound_to 10162
  157.5845  131.1071  150.8121 H   0  0  0  0  0  0  0  0  0  0  0  0  # atno 10718 bound_to 10713
  153.3918  135.3880  155.1928 H   0  0  0  0  0  0  0  0  0  0  0  0  # atno 10763 bound_to 10752
  154.8720  135.3750  154.4728 H   0  0  0  0  0  0  0  0  0  0  0  0  # atno 10764 bound_to 10752
  153.5216  135.7086  153.5790 H   0  0  0  0  0  0  0  0  0  0  0  0  # atno 10765 bound_to 10752
  141.1023  133.8862  157.1811 H   0  0  0  0  0  0  0  0  0  0  0  0  # atno 11005 bound_to 11000
  144.9698  139.3892  143.6314 LP  0  0  0  0  0  0  0  0  0  0  0  0  # atno 17320 bound_to 7965
  146.3358  139.8790  142.8827 LP  0  0  0  0  0  0  0  0  0  0  0  0  # atno 17321 bound_to 7965
  140.7196  143.7173  150.7723 LP  0  0  0  0  0  0  0  0  0  0  0  0  # atno 17342 bound_to 10162
  140.0735  143.5038  152.2567 LP  0  0  0  0  0  0  0  0  0  0  0  0  # atno 17343 bound_to 10162
  156.8559  130.5096  149.5308 LP  0  0  0  0  0  0  0  0  0  0  0  0  # atno 17370 bound_to 10713
  156.0894  130.5883  150.9705 LP  0  0  0  0  0  0  0  0  0  0  0  0  # atno 17371 bound_to 10713
  139.9879  135.0075  156.9905 LP  0  0  0  0  0  0  0  0  0  0  0  0  # atno 17394 bound_to 11000
  140.4992  134.1115  155.7247 LP  0  0  0  0  0  0  0  0  0  0  0  0  # atno 17395 bound_to 11000

$$$$
