AV-unprocessed.smi:1071|AV-procd|sdf|4678|dock4
  -GOLD-   22720 3193D 1   1.00000     0.00000
 Structure written by MMmdl.
 47 48  0  0  0  0  0  0  0  0  2 V2000
  152.3662  144.7942  158.1145 C   0  0  0  0  0  0  0  0  0  0  0  0
  151.3896  143.9117  157.5903 O   0  0  0  0  0  0  0  0  0  0  0  0
  151.5574  142.5814  158.0513 C   0  0  0  0  0  0  0  0  0  0  0  0
  150.4973  141.6857  157.4033 C   0  0  0  0  0  0  0  0  0  0  0  0
  150.9767  141.2484  156.1351 O   0  0  0  0  0  0  0  0  0  0  0  0
  150.7795  139.9312  155.7744 C   0  0  0  0  0  0  0  0  0  0  0  0
  150.6630  138.9645  156.7927 C   0  0  0  0  0  0  0  0  0  0  0  0
  150.4597  137.6194  156.4313 C   0  0  0  0  0  0  0  0  0  0  0  0
  150.3681  137.2808  155.0665 C   0  0  0  0  0  0  0  0  0  0  0  0
  150.1834  135.9138  154.7261 N   0  0  0  0  0  0  0  0  0  0  0  0
  150.2764  134.8315  155.5243 C   0  0  0  0  0  0  0  0  0  0  0  0
  150.6982  134.8895  156.6796 O   0  0  0  0  0  0  0  0  0  0  0  0
  149.9862  133.6560  154.9046 N   0  0  0  0  0  0  0  0  0  0  0  0
  149.7856  133.5056  153.4479 C   0  0  0  0  0  0  0  0  0  0  0  0
  148.3927  132.9378  153.1329 C   0  0  0  0  0  0  0  0  0  0  0  0
  148.1598  131.6678  153.8552 N   0  3  2  0  0  0  0  0  0  0  0  0
  146.8646  131.0455  153.5064 C   0  0  0  0  0  0  0  0  0  0  0  0
  148.3408  131.8177  155.3170 C   0  0  0  0  0  0  0  0  0  0  0  0
  149.7139  132.4241  155.6766 C   0  0  1  0  0  0  0  0  0  0  0  0
  150.8763  131.4241  155.5469 C   0  0  0  0  0  0  0  0  0  0  0  0
  150.5116  138.3223  154.1175 C   0  0  0  0  0  0  0  0  0  0  0  0
  150.7089  139.6135  154.4579 N   0  0  0  0  0  0  0  0  0  0  0  0
  152.1919  145.8013  157.7362 H   0  0  0  0  0  0  0  0  0  0  0  0
  153.3705  144.4916  157.8156 H   0  0  0  0  0  0  0  0  0  0  0  0
  152.3210  144.8313  159.2038 H   0  0  0  0  0  0  0  0  0  0  0  0
  152.5591  142.2112  157.8266 H   0  0  0  0  0  0  0  0  0  0  0  0
  151.4362  142.5609  159.1354 H   0  0  0  0  0  0  0  0  0  0  0  0
  150.3240  140.8194  158.0436 H   0  0  0  0  0  0  0  0  0  0  0  0
  149.5543  142.2267  157.3070 H   0  0  0  0  0  0  0  0  0  0  0  0
  150.7299  139.2495  157.8322 H   0  0  0  0  0  0  0  0  0  0  0  0
  150.3706  136.8610  157.1954 H   0  0  0  0  0  0  0  0  0  0  0  0
  149.9823  135.7325  153.7537 H   0  0  0  0  0  0  0  0  0  0  0  0
  149.8926  134.4363  152.8905 H   0  0  0  0  0  0  0  0  0  0  0  0
  150.5558  132.8416  153.0550 H   0  0  0  0  0  0  0  0  0  0  0  0
  147.6235  133.6611  153.4092 H   0  0  0  0  0  0  0  0  0  0  0  0
  148.3001  132.7695  152.0592 H   0  0  0  0  0  0  0  0  0  0  0  0
  146.0305  131.6799  153.8097 H   0  0  0  0  0  0  0  0  0  0  0  0
  146.7571  130.0789  153.9998 H   0  0  0  0  0  0  0  0  0  0  0  0
  146.7946  130.8788  152.4310 H   0  0  0  0  0  0  0  0  0  0  0  0
  147.5497  132.4638  155.7019 H   0  0  0  0  0  0  0  0  0  0  0  0
  148.2180  130.8509  155.8069 H   0  0  0  0  0  0  0  0  0  0  0  0
  149.6540  132.6454  156.7429 H   0  0  0  0  0  0  0  0  0  0  0  0
  150.7181  130.5578  156.1900 H   0  0  0  0  0  0  0  0  0  0  0  0
  151.8217  131.8812  155.8412 H   0  0  0  0  0  0  0  0  0  0  0  0
  150.9872  131.0570  154.5267 H   0  0  0  0  0  0  0  0  0  0  0  0
  150.4931  138.1318  153.0557 H   0  0  0  0  0  0  0  0  0  0  0  0
  148.8779  131.0287  153.5453 H   0  0  0  0  0  0  0  0  0  0  0  0
  1  2  1  0  0  0  0
  1 23  1  0  0  0  0
  1 24  1  0  0  0  0
  1 25  1  0  0  0  0
  2  3  1  0  0  0  0
  3  4  1  0  0  0  0
  3 26  1  0  0  0  0
  3 27  1  0  0  0  0
  4  5  1  0  0  0  0
  4 28  1  0  0  0  0
  4 29  1  0  0  0  0
  5  6  1  0  0  0  0
  6 22  1  0  0  0  0
  6  7  2  0  0  0  0
  7  8  1  0  0  0  0
  7 30  1  0  0  0  0
  8  9  2  0  0  0  0
  8 31  1  0  0  0  0
  9 10  1  0  0  0  0
  9 21  1  0  0  0  0
 10 11  1  0  0  0  0
 10 32  1  0  0  0  0
 11 12  2  0  0  0  0
 11 13  1  0  0  0  0
 13 19  1  0  0  0  0
 13 14  1  0  0  0  0
 14 15  1  0  0  0  0
 14 33  1  0  0  0  0
 14 34  1  0  0  0  0
 15 16  1  0  0  0  0
 15 35  1  0  0  0  0
 15 36  1  0  0  0  0
 16 17  1  0  0  0  0
 16 18  1  0  0  0  0
 16 47  1  0  0  0  0
 17 37  1  0  0  0  0
 17 38  1  0  0  0  0
 17 39  1  0  0  0  0
 18 19  1  0  0  0  0
 18 40  1  0  0  0  0
 18 41  1  0  0  0  0
 19 20  1  0  0  0  0
 19 42  1  0  0  0  0
 20 43  1  0  0  0  0
 20 44  1  0  0  0  0
 20 45  1  0  0  0  0
 21 22  2  0  0  0  0
 21 46  1  0  0  0  0
M  CHG  1  16   1
M  END
> <s_m_source_file>
AV-unprocessed.smi

> <i_m_source_file_index>
1071

> <i_lp_mmshare_version>
43012

> <i_f3d_flags>
0

> <s_epik_input>
W0NIM11PW0NIMl1bQ0gyXU9jMVtjSF1bY0hdYyhbY0hdbjEpW05IXUMoPU8pTjJbQ0gyXVtDSDJdTihbQ0gzXSlbQ0gyXVtDQEhdMltDSDNd

> <s_epik_cmdline>
J2VwaWtfcHl0aG9uJywgJy1waCcsICc3LjAnLCAnLXRuJywgJzgnLCAnLW1hJywgJzIwMCcsICctbWV0YWxfYmluZGluZycsICctaW1hZScsICc8aW5maWxlLm1hZT4nLCAnLW9tYWUnLCAnPG91dGZpbGUubWFlPic=

> <r_lp_tautomer_probability>
1

> <r_epik_Ionization_Penalty>
0.25455

> <r_epik_Ionization_Penalty_Charging>
0.254506

> <r_epik_Ionization_Penalty_Neutral>
4.43365e-05

> <r_epik_State_Penalty>
0.245983

> <r_epik_Charging_Adjusted_Penalty>
0.500488

> <i_epik_Tot_Q>
1

> <i_epik_Tot_abs_Q>
1

> <r_epik_Metal_State_Penalty>
0.245987

> <b_epik_Metal_Only>
0

> <s_lp_Force_Field>
OPLS_2005

> <r_lp_Energy>
56.9033

> <b_lp_Chiralities_Consistent>
1

> <s_lp_Variant>
AV-unprocessed.smi:1071-2

> <Gold.Version>
5.8.1

> <Gold.Id.Protein>
6NUR|6NUR_protein|mol2

> <Gold.PLP.Fitness>
41.9824

> <Gold.PLP.PLP>
-32.8940

> <Gold.PLP.part.hbond>
-2.0000

> <Gold.PLP.part.metal>
0.0000

> <Gold.PLP.part.buried>
-5.7896

> <Gold.PLP.part.nonpolar>
-25.0319

> <Gold.PLP.part.repulsive>
0.3443

> <Gold.PLP.ligand.clash>
0.0000

> <Gold.PLP.ligand.torsion>
0.9504

> <Gold.PLP.Chemscore.Hbond>
1.9500

> <Gold.PLP.Chemscore.CHOScore>
1.6575

> <Gold.PLP.Chemscore.Metal>
0.0000

> <Gold.Chemscore.Hbonds>
donor molecule, donor type, donor heavy atom, donor atom, acceptor molecule, acceptor atom, score
      L1  H    10    32       P1  7948  0.40
      P1  H  7989  7998       L1    22  1.00
      L1  C    21    46       P1  7948  0.42
      L1  C    21    46       P1  7949  0.27
      L1  C    21    46       P1  7957  0.23

> <Gold.PLP.Chemscore.Internal.Correction>
0.1667

> <Gold.Rescore>
     Score         DG    S(hbond)    S(metal)    S(lipo)     H(rot)  DE(clash)    DE(int)     intcor
     12.23     -14.38       1.05        0.00      81.17       1.60       0.05       2.10       ----

> <Gold.Chemscore.Fitness>
12.2254

> <Gold.Chemscore.DG>
-14.3751

> <Gold.Chemscore.ZeroCoef>
-5.4800

> <Gold.Chemscore.Hbond>
1.0495

> <Gold.Chemscore.Metal>
0.0000

> <Gold.Chemscore.Lipo>
81.1736

> <Gold.Chemscore.Internal_Hbond>
0.0000

> <Gold.Chemscore.DEClash>
0.0517

> <Gold.Chemscore.DEInternal>
2.0979

> <Gold.Chemscore.Rot>
1.6045

> <Gold.Chemscore.Internal.Correction>
   9.000000E+99

> <Gold.Chemscore.Hbonds>
donor molecule, donor type, donor heavy atom, donor atom, acceptor molecule, acceptor atom, score
      L1  H    10    32       P1  7948  0.03
      P1  H  7989  7998       L1    22  0.70

> <Gold.Chemscore.Hbond.Weighted>
-3.5053

> <Gold.Chemscore.Metal.Weighted>
-0.0000

> <Gold.Chemscore.Lipo.Weighted>
-9.4973

> <Gold.Chemscore.Internal_Hbond.Weighted>
0.0000

> <Gold.Chemscore.DEClash.Weighted>
0.0517

> <Gold.Chemscore.DEInternal.Weighted>
2.0979

> <Gold.Chemscore.Rot.Weighted>
4.1075

> <Gold.Chemscore.Internal.Correction.Weighted>
   9.000000E+99

> <Gold.Protein.RotatedTorsions>
[ 6907 6896 6895 6894 ] final   79.61 input  -60.11 | X-H torsion
[ 7974 7965 7964 7962 ] final   69.37 input  175.53 | X-H torsion
[ 8008 7997 7996 7995 ] final -100.65 input   59.86 | X-H torsion
[ 10167 10162 10161 10158 ] final   14.95 input  -65.29 | X-H torsion
[ 10718 10713 10712 10709 ] final  -46.68 input   66.30 | X-H torsion
[ 10763 10752 10751 10750 ] final  -47.32 input  -60.55 | X-H torsion
[ 11005 11000 10999 10996 ] final  -13.79 input  -57.11 | X-H torsion

> <Gold.Protein.ActiveResidues>
 VAL166  LYS551  ARG553  GLY616  TRP617  ASP618  TYR619  PRO620  LYS621  CYS622 
 ASP623  PHE694  ASN695  SER759  ASP760  ASP761  ALA762  ILE779  LEU786  VAL792 
 PHE793  MET794  SER795  GLU796  ALA797  LYS798  CYS799  TRP800  GLU811  SER814 

> <Gold.Protein.RotatedAtoms>
  152.5205  134.3484  159.9242 H   0  0  0  0  0  0  0  0  0  0  0  0  # atno 6907 bound_to 6896
  151.3435  133.3947  159.2681 H   0  0  0  0  0  0  0  0  0  0  0  0  # atno 6908 bound_to 6896
  150.9784  134.9162  159.7888 H   0  0  0  0  0  0  0  0  0  0  0  0  # atno 6909 bound_to 6896
  145.7912  139.2935  143.1209 H   0  0  0  0  0  0  0  0  0  0  0  0  # atno 7974 bound_to 7965
  154.8315  140.0439  157.1480 H   0  0  0  0  0  0  0  0  0  0  0  0  # atno 8008 bound_to 7997
  154.9147  140.3018  155.5227 H   0  0  0  0  0  0  0  0  0  0  0  0  # atno 8009 bound_to 7997
  156.2987  140.2351  156.4190 H   0  0  0  0  0  0  0  0  0  0  0  0  # atno 8010 bound_to 7997
  140.5900  143.8813  150.6865 H   0  0  0  0  0  0  0  0  0  0  0  0  # atno 10167 bound_to 10162
  156.2159  130.4163  149.9054 H   0  0  0  0  0  0  0  0  0  0  0  0  # atno 10718 bound_to 10713
  154.0594  135.6620  153.4810 H   0  0  0  0  0  0  0  0  0  0  0  0  # atno 10763 bound_to 10752
  153.0433  135.5131  154.7674 H   0  0  0  0  0  0  0  0  0  0  0  0  # atno 10764 bound_to 10752
  154.6705  135.3029  154.9715 H   0  0  0  0  0  0  0  0  0  0  0  0  # atno 10765 bound_to 10752
  140.7797  133.8372  155.9281 H   0  0  0  0  0  0  0  0  0  0  0  0  # atno 11005 bound_to 11000
  145.9975  140.8549  143.0035 LP  0  0  0  0  0  0  0  0  0  0  0  0  # atno 17320 bound_to 7965
  144.6781  140.2304  143.7356 LP  0  0  0  0  0  0  0  0  0  0  0  0  # atno 17321 bound_to 7965
  140.2334  143.3718  152.1547 LP  0  0  0  0  0  0  0  0  0  0  0  0  # atno 17342 bound_to 10162
  139.5222  144.7055  151.5366 LP  0  0  0  0  0  0  0  0  0  0  0  0  # atno 17343 bound_to 10162
  156.6717  130.8823  151.3563 LP  0  0  0  0  0  0  0  0  0  0  0  0  # atno 17370 bound_to 10713
  157.7063  130.9389  150.0941 LP  0  0  0  0  0  0  0  0  0  0  0  0  # atno 17371 bound_to 10713
  140.9494  134.1798  157.4739 LP  0  0  0  0  0  0  0  0  0  0  0  0  # atno 17394 bound_to 11000
  139.8744  134.9903  156.5497 LP  0  0  0  0  0  0  0  0  0  0  0  0  # atno 17395 bound_to 11000

$$$$
