AV-unprocessed.smi:3218|AV-procd|sdf|12293|dock1
  -GOLD-   2272018133D 1   1.00000     0.00000
 Structure written by MMmdl.
 38 39  0  0  0  0  0  0  0  0  2 V2000
  153.2467  142.4541  162.6443 C   0  0  0  0  0  0  0  0  0  0  0  0
  152.6740  143.1178  161.4248 C   0  0  0  0  0  0  0  0  0  0  0  0
  152.1336  144.4307  161.3175 C   0  0  0  0  0  0  0  0  0  0  0  0
  151.7111  144.7146  160.0958 N   0  0  0  0  0  0  0  0  0  0  0  0
  151.9638  143.5962  159.3834 N   0  0  0  0  0  0  0  0  0  0  0  0
  151.6272  143.5463  157.9721 C   0  0  0  0  0  0  0  0  0  0  0  0
  151.0008  142.2018  157.5691 C   0  0  0  0  0  0  0  0  0  0  0  0
  149.6593  142.3792  156.9770 N   0  3  0  0  0  0  0  0  0  0  0  0
  149.1236  141.1694  156.3251 C   0  0  0  0  0  0  0  0  0  0  0  0
  149.8681  140.8766  155.0130 C   0  0  0  0  0  0  0  0  0  0  0  0
  150.3252  139.4910  154.9505 N   0  0  0  0  0  0  0  0  0  0  0  0
  149.3823  138.4041  154.7464 C   0  0  0  0  0  0  0  0  0  0  0  0
  150.2065  137.1216  154.9302 C   0  0  0  0  0  0  0  0  0  0  0  0
  151.6748  137.5591  154.8885 C   0  0  0  0  0  0  0  0  0  0  0  0
  151.5944  139.0709  155.0141 C   0  0  0  0  0  0  0  0  0  0  0  0
  152.5863  139.7842  155.1552 O   0  0  0  0  0  0  0  0  0  0  0  0
  152.5455  142.6170  160.1603 C   0  0  0  0  0  0  0  0  0  0  0  0
  152.8321  142.8693  163.5632 H   0  0  0  0  0  0  0  0  0  0  0  0
  154.3287  142.5756  162.6963 H   0  0  0  0  0  0  0  0  0  0  0  0
  153.0415  141.3834  162.6559 H   0  0  0  0  0  0  0  0  0  0  0  0
  152.0375  145.1822  162.0874 H   0  0  0  0  0  0  0  0  0  0  0  0
  150.9264  144.3556  157.7638 H   0  0  0  0  0  0  0  0  0  0  0  0
  152.5223  143.7507  157.3824 H   0  0  0  0  0  0  0  0  0  0  0  0
  151.6498  141.6839  156.8615 H   0  0  0  0  0  0  0  0  0  0  0  0
  150.9138  141.5631  158.4487 H   0  0  0  0  0  0  0  0  0  0  0  0
  149.0207  142.6649  157.7054 H   0  0  0  0  0  0  0  0  0  0  0  0
  149.2172  140.3271  157.0119 H   0  0  0  0  0  0  0  0  0  0  0  0
  148.0601  141.3088  156.1276 H   0  0  0  0  0  0  0  0  0  0  0  0
  149.2168  141.0800  154.1617 H   0  0  0  0  0  0  0  0  0  0  0  0
  150.7267  141.5422  154.9091 H   0  0  0  0  0  0  0  0  0  0  0  0
  148.5537  138.4566  155.4536 H   0  0  0  0  0  0  0  0  0  0  0  0
  148.9746  138.4646  153.7365 H   0  0  0  0  0  0  0  0  0  0  0  0
  149.9837  136.6681  155.8969 H   0  0  0  0  0  0  0  0  0  0  0  0
  149.9787  136.3825  154.1616 H   0  0  0  0  0  0  0  0  0  0  0  0
  152.2588  137.1218  155.6990 H   0  0  0  0  0  0  0  0  0  0  0  0
  152.1418  137.2977  153.9382 H   0  0  0  0  0  0  0  0  0  0  0  0
  152.8180  141.6541  159.7534 H   0  0  0  0  0  0  0  0  0  0  0  0
  149.7127  143.1181  156.2896 H   0  0  0  0  0  0  0  0  0  0  0  0
  1  2  1  0  0  0  0
  1 18  1  0  0  0  0
  1 19  1  0  0  0  0
  1 20  1  0  0  0  0
  2 17  2  0  0  0  0
  2  3  1  0  0  0  0
  3  4  2  0  0  0  0
  3 21  1  0  0  0  0
  4  5  1  0  0  0  0
  5  6  1  0  0  0  0
  5 17  1  0  0  0  0
  6  7  1  0  0  0  0
  6 22  1  0  0  0  0
  6 23  1  0  0  0  0
  7  8  1  0  0  0  0
  7 24  1  0  0  0  0
  7 25  1  0  0  0  0
  8  9  1  0  0  0  0
  8 26  1  0  0  0  0
  8 38  1  0  0  0  0
  9 10  1  0  0  0  0
  9 27  1  0  0  0  0
  9 28  1  0  0  0  0
 10 11  1  0  0  0  0
 10 29  1  0  0  0  0
 10 30  1  0  0  0  0
 11 15  1  0  0  0  0
 11 12  1  0  0  0  0
 12 13  1  0  0  0  0
 12 31  1  0  0  0  0
 12 32  1  0  0  0  0
 13 14  1  0  0  0  0
 13 33  1  0  0  0  0
 13 34  1  0  0  0  0
 14 15  1  0  0  0  0
 14 35  1  0  0  0  0
 14 36  1  0  0  0  0
 15 16  2  0  0  0  0
 17 37  1  0  0  0  0
M  CHG  1   8   1
M  END
> <s_m_source_file>
AV-unprocessed.smi

> <i_m_source_file_index>
3218

> <i_lp_mmshare_version>
43012

> <i_f3d_flags>
0

> <s_epik_input>
W0NIM11jMVtjSF1ubihbY0hdMSlbQ0gyXVtDSDJdW05IXVtDSDJdW0NIMl1OMltDSDJdW0NIMl1bQ0gyXUMyPU8=

> <s_epik_cmdline>
J2VwaWtfcHl0aG9uJywgJy1waCcsICc3LjAnLCAnLXRuJywgJzgnLCAnLW1hJywgJzIwMCcsICctbWV0YWxfYmluZGluZycsICctaW1hZScsICc8aW5maWxlLm1hZT4nLCAnLW9tYWUnLCAnPG91dGZpbGUubWFlPic=

> <r_lp_tautomer_probability>
1

> <r_epik_Ionization_Penalty>
0.00826456

> <r_epik_Ionization_Penalty_Charging>
0.00825899

> <r_epik_Ionization_Penalty_Neutral>
5.57245e-06

> <r_epik_State_Penalty>
0.00621436

> <r_epik_Charging_Adjusted_Penalty>
0.0144734

> <i_epik_Tot_Q>
1

> <i_epik_Tot_abs_Q>
1

> <r_epik_Metal_State_Penalty>
0.00623755

> <b_epik_Metal_Only>
0

> <s_lp_Force_Field>
OPLS_2005

> <r_lp_Energy>
17.5309

> <b_lp_Chiralities_Consistent>
1

> <s_lp_Variant>
AV-unprocessed.smi:3218-1

> <Gold.Version>
5.8.1

> <Gold.Id.Protein>
6NUR|6NUR_protein|mol2

> <Gold.PLP.Fitness>
50.3867

> <Gold.PLP.PLP>
-43.6009

> <Gold.PLP.part.hbond>
-2.9686

> <Gold.PLP.part.metal>
0.0000

> <Gold.PLP.part.buried>
-3.1615

> <Gold.PLP.part.nonpolar>
-38.0057

> <Gold.PLP.part.repulsive>
0.1157

> <Gold.PLP.ligand.clash>
0.0000

> <Gold.PLP.ligand.torsion>
1.1519

> <Gold.PLP.Chemscore.Hbond>
3.0129

> <Gold.PLP.Chemscore.CHOScore>
0.0000

> <Gold.PLP.Chemscore.Metal>
0.0000

> <Gold.Chemscore.Hbonds>
donor molecule, donor type, donor heavy atom, donor atom, acceptor molecule, acceptor atom, score
      L1  H     8    38       P1  8028  1.79
      P1  H  7989  7998       L1    16  0.06
      P1  H  7997  8010       L1    16  0.98

> <Gold.PLP.Chemscore.Internal.Correction>
0.0509

> <Gold.Rescore>
     Score         DG    S(hbond)    S(metal)    S(lipo)     H(rot)  DE(clash)    DE(int)     intcor
     17.14     -18.29       1.96        0.00      97.90       2.03       0.06       1.09       ----

> <Gold.Chemscore.Fitness>
17.1416

> <Gold.Chemscore.DG>
-18.2946

> <Gold.Chemscore.ZeroCoef>
-5.4800

> <Gold.Chemscore.Hbond>
1.9647

> <Gold.Chemscore.Metal>
0.0000

> <Gold.Chemscore.Lipo>
97.8996

> <Gold.Chemscore.Internal_Hbond>
0.0000

> <Gold.Chemscore.DEClash>
0.0643

> <Gold.Chemscore.DEInternal>
1.0886

> <Gold.Chemscore.Rot>
2.0319

> <Gold.Chemscore.Internal.Correction>
   9.000000E+99

> <Gold.Chemscore.Hbonds>
donor molecule, donor type, donor heavy atom, donor atom, acceptor molecule, acceptor atom, score
      L1  H     8    38       P1  8028  0.88
      P1  H  7997  8010       L1    16  0.92

> <Gold.Chemscore.Hbond.Weighted>
-6.5620

> <Gold.Chemscore.Metal.Weighted>
-0.0000

> <Gold.Chemscore.Lipo.Weighted>
-11.4543

> <Gold.Chemscore.Internal_Hbond.Weighted>
0.0000

> <Gold.Chemscore.DEClash.Weighted>
0.0643

> <Gold.Chemscore.DEInternal.Weighted>
1.0886

> <Gold.Chemscore.Rot.Weighted>
5.2017

> <Gold.Chemscore.Internal.Correction.Weighted>
   9.000000E+99

> <Gold.Protein.RotatedTorsions>
[ 6907 6896 6895 6894 ] final  131.67 input  -60.11 | X-H torsion
[ 7974 7965 7964 7962 ] final  169.44 input  175.53 | X-H torsion
[ 8008 7997 7996 7995 ] final   97.89 input   59.86 | X-H torsion
[ 10167 10162 10161 10158 ] final  154.82 input  -65.29 | X-H torsion
[ 10718 10713 10712 10709 ] final   36.89 input   66.30 | X-H torsion
[ 10763 10752 10751 10750 ] final  -78.91 input  -60.55 | X-H torsion
[ 11005 11000 10999 10996 ] final  -63.26 input  -57.11 | X-H torsion

> <Gold.Protein.ActiveResidues>
 VAL166  LYS551  ARG553  GLY616  TRP617  ASP618  TYR619  PRO620  LYS621  CYS622 
 ASP623  PHE694  ASN695  SER759  ASP760  ASP761  ALA762  ILE779  LEU786  VAL792 
 PHE793  MET794  SER795  GLU796  ALA797  LYS798  CYS799  TRP800  GLU811  SER814 

> <Gold.Protein.RotatedAtoms>
  152.3403  133.6059  159.5871 H   0  0  0  0  0  0  0  0  0  0  0  0  # atno 6907 bound_to 6896
  150.7474  133.9733  159.3561 H   0  0  0  0  0  0  0  0  0  0  0  0  # atno 6908 bound_to 6896
  151.7598  135.0813  160.0395 H   0  0  0  0  0  0  0  0  0  0  0  0  # atno 6909 bound_to 6896
  144.7355  139.9054  143.6412 H   0  0  0  0  0  0  0  0  0  0  0  0  # atno 7974 bound_to 7965
  156.0948  140.3252  155.7863 H   0  0  0  0  0  0  0  0  0  0  0  0  # atno 8008 bound_to 7997
  155.4936  140.0563  157.2967 H   0  0  0  0  0  0  0  0  0  0  0  0  # atno 8009 bound_to 7997
  154.4660  140.1989  156.0133 H   0  0  0  0  0  0  0  0  0  0  0  0  # atno 8010 bound_to 7997
  139.4822  144.5153  151.7962 H   0  0  0  0  0  0  0  0  0  0  0  0  # atno 10167 bound_to 10162
  157.3403  130.7544  149.6907 H   0  0  0  0  0  0  0  0  0  0  0  0  # atno 10718 bound_to 10713
  154.5320  135.5713  153.6767 H   0  0  0  0  0  0  0  0  0  0  0  0  # atno 10763 bound_to 10752
  152.9941  135.6207  154.2616 H   0  0  0  0  0  0  0  0  0  0  0  0  # atno 10764 bound_to 10752
  154.2543  135.2858  155.2783 H   0  0  0  0  0  0  0  0  0  0  0  0  # atno 10765 bound_to 10752
  141.1387  133.6649  156.5652 H   0  0  0  0  0  0  0  0  0  0  0  0  # atno 11005 bound_to 11000
  146.1040  139.4038  143.0329 LP  0  0  0  0  0  0  0  0  0  0  0  0  # atno 17320 bound_to 7965
  145.7538  140.9962  143.1236 LP  0  0  0  0  0  0  0  0  0  0  0  0  # atno 17321 bound_to 7965
  140.4660  144.1654  150.5912 LP  0  0  0  0  0  0  0  0  0  0  0  0  # atno 17342 bound_to 10162
  140.4433  143.2517  151.9444 LP  0  0  0  0  0  0  0  0  0  0  0  0  # atno 17343 bound_to 10162
  155.9707  130.4169  150.4256 LP  0  0  0  0  0  0  0  0  0  0  0  0  # atno 17370 bound_to 10713
  157.2302  131.0502  151.2496 LP  0  0  0  0  0  0  0  0  0  0  0  0  # atno 17371 bound_to 10713
  140.3956  134.7402  157.4748 LP  0  0  0  0  0  0  0  0  0  0  0  0  # atno 17394 bound_to 11000
  140.0534  134.6099  155.8835 LP  0  0  0  0  0  0  0  0  0  0  0  0  # atno 17395 bound_to 11000

$$$$
