AV-unprocessed.smi:287|AV-procd|sdf|2187|dock6
  -GOLD-   2262021573D 1   1.00000     0.00000
 Structure written by MMmdl.
 55 58  0  0  0  0  0  0  0  0  1 V2000
  152.1039  141.9979  159.1621 C   0  0  0  0  0  0  0  0  0  0  0  0
  151.3604  141.4301  158.0020 C   0  0  0  0  0  0  0  0  0  0  0  0
  150.2188  141.7870  157.3457 C   0  0  0  0  0  0  0  0  0  0  0  0
  150.0101  140.8341  156.3038 C   0  0  0  0  0  0  0  0  0  0  0  0
  148.8614  140.8335  155.3044 C   0  0  1  0  0  0  0  0  0  0  0  0
  147.5263  140.9883  156.0508 C   0  0  0  0  0  0  0  0  0  0  0  0
  148.9190  141.9222  154.4026 O   0  0  0  0  0  0  0  0  0  0  0  0
  148.8357  139.5570  154.4334 C   0  0  0  0  0  0  0  0  0  0  0  0
  147.8487  139.6196  153.3629 N   0  0  0  0  0  0  0  0  0  0  0  0
  146.7550  138.8293  153.3770 C   0  0  0  0  0  0  0  0  0  0  0  0
  145.9997  138.8995  154.4993 N   0  0  0  0  0  0  0  0  0  0  0  0
  144.8928  138.1600  154.6130 C   0  0  0  0  0  0  0  0  0  0  0  0
  144.3702  137.3005  153.7365 N   0  0  0  0  0  0  0  0  0  0  0  0
  145.1258  137.2249  152.6033 C   0  0  0  0  0  0  0  0  0  0  0  0
  146.3254  137.9463  152.3419 C   0  0  0  0  0  0  0  0  0  0  0  0
  146.8017  137.5955  151.0828 N   0  0  0  0  0  0  0  0  0  0  0  0
  145.9352  136.7281  150.6351 C   0  0  0  0  0  0  0  0  0  0  0  0
  144.8968  136.4409  151.4943 N   0  0  0  0  0  0  0  0  0  0  0  0
  143.7358  135.5089  151.3120 C   0  0  1  0  0  0  0  0  0  0  0  0
  143.8060  134.9623  150.0294 O   0  0  0  0  0  0  0  0  0  0  0  0
  144.3536  133.6507  150.0989 C   0  0  2  0  0  0  0  0  0  0  0  0
  144.0481  132.8464  148.8240 C   0  0  0  0  0  0  0  0  0  0  0  0
  142.6595  132.8579  148.5699 O   0  0  0  0  0  0  0  0  0  0  0  0
  143.7311  133.1105  151.3918 C   0  0  2  0  0  0  0  0  0  0  0  0
  142.4007  132.6790  151.1696 O   0  0  0  0  0  0  0  0  0  0  0  0
  143.7550  134.3257  152.3128 C   0  0  1  0  0  0  0  0  0  0  0  0
  144.9098  134.2788  153.1339 O   0  0  0  0  0  0  0  0  0  0  0  0
  151.0716  139.9673  156.4046 C   0  0  0  0  0  0  0  0  0  0  0  0
  151.5010  138.7604  155.6375 C   0  0  0  0  0  0  0  0  0  0  0  0
  151.8912  140.3181  157.4346 O   0  0  0  0  0  0  0  0  0  0  0  0
  142.8560  136.1472  151.4024 H   0  0  0  0  0  0  0  0  0  0  0  0
  145.4332  133.7175  150.2462 H   0  0  0  0  0  0  0  0  0  0  0  0
  144.2955  132.2670  151.7924 H   0  0  0  0  0  0  0  0  0  0  0  0
  142.8751  134.3746  152.9558 H   0  0  0  0  0  0  0  0  0  0  0  0
  151.5421  142.8092  159.6255 H   0  0  0  0  0  0  0  0  0  0  0  0
  153.0694  142.3928  158.8457 H   0  0  0  0  0  0  0  0  0  0  0  0
  152.2811  141.2343  159.9195 H   0  0  0  0  0  0  0  0  0  0  0  0
  149.5971  142.6363  157.5885 H   0  0  0  0  0  0  0  0  0  0  0  0
  147.3695  140.1683  156.7526 H   0  0  0  0  0  0  0  0  0  0  0  0
  146.6804  140.9948  155.3621 H   0  0  0  0  0  0  0  0  0  0  0  0
  147.4961  141.9179  156.6209 H   0  0  0  0  0  0  0  0  0  0  0  0
  148.8303  142.7241  154.8947 H   0  0  0  0  0  0  0  0  0  0  0  0
  149.8151  139.4427  153.9675 H   0  0  0  0  0  0  0  0  0  0  0  0
  148.6701  138.6706  155.0477 H   0  0  0  0  0  0  0  0  0  0  0  0
  148.0502  140.2750  152.6212 H   0  0  0  0  0  0  0  0  0  0  0  0
  144.3485  138.2734  155.5389 H   0  0  0  0  0  0  0  0  0  0  0  0
  146.0368  136.2777  149.6584 H   0  0  0  0  0  0  0  0  0  0  0  0
  144.5416  133.3032  147.9655 H   0  0  0  0  0  0  0  0  0  0  0  0
  144.4100  131.8207  148.9014 H   0  0  0  0  0  0  0  0  0  0  0  0
  142.2516  133.4761  149.1569 H   0  0  0  0  0  0  0  0  0  0  0  0
  142.0629  133.1296  150.4108 H   0  0  0  0  0  0  0  0  0  0  0  0
  145.3344  135.1227  153.0984 H   0  0  0  0  0  0  0  0  0  0  0  0
  151.5149  138.9669  154.5672 H   0  0  0  0  0  0  0  0  0  0  0  0
  150.8187  137.9287  155.8142 H   0  0  0  0  0  0  0  0  0  0  0  0
  152.5023  138.4423  155.9291 H   0  0  0  0  0  0  0  0  0  0  0  0
  1  2  1  0  0  0  0
  1 35  1  0  0  0  0
  1 36  1  0  0  0  0
  1 37  1  0  0  0  0
  2 30  1  0  0  0  0
  2  3  2  0  0  0  0
  3  4  1  0  0  0  0
  3 38  1  0  0  0  0
  4  5  1  0  0  0  0
  4 28  2  0  0  0  0
  5  6  1  0  0  0  0
  5  7  1  0  0  0  0
  5  8  1  0  0  0  0
  6 39  1  0  0  0  0
  6 40  1  0  0  0  0
  6 41  1  0  0  0  0
  7 42  1  0  0  0  0
  8  9  1  0  0  0  0
  8 43  1  0  0  0  0
  8 44  1  0  0  0  0
  9 10  1  0  0  0  0
  9 45  1  0  0  0  0
 10 15  1  0  0  0  0
 10 11  2  0  0  0  0
 11 12  1  0  0  0  0
 12 13  2  0  0  0  0
 12 46  1  0  0  0  0
 13 14  1  0  0  0  0
 14 18  1  0  0  0  0
 14 15  2  0  0  0  0
 15 16  1  0  0  0  0
 16 17  2  0  0  0  0
 17 18  1  0  0  0  0
 17 47  1  0  0  0  0
 18 19  1  0  0  0  0
 19 31  1  0  0  0  0
 19 26  1  0  0  0  0
 19 20  1  0  0  0  0
 20 21  1  0  0  0  0
 21 32  1  0  0  0  0
 21 22  1  0  0  0  0
 21 24  1  0  0  0  0
 22 23  1  0  0  0  0
 22 48  1  0  0  0  0
 22 49  1  0  0  0  0
 23 50  1  0  0  0  0
 24 33  1  0  0  0  0
 24 25  1  0  0  0  0
 24 26  1  0  0  0  0
 25 51  1  0  0  0  0
 26 34  1  0  0  0  0
 26 27  1  0  0  0  0
 27 52  1  0  0  0  0
 28 29  1  0  0  0  0
 28 30  1  0  0  0  0
 29 53  1  0  0  0  0
 29 54  1  0  0  0  0
 29 55  1  0  0  0  0
M  END
> <s_m_source_file>
AV-unprocessed.smi

> <i_m_source_file_index>
287

> <i_lp_mmshare_version>
43012

> <i_f3d_flags>
0

> <s_epik_input>
W0NIM11jMVtjSF1jKGMobzEpW0NIM10pW0NAQF0oW0NIM10pKFtPSF0pW0NIMl1bTkhdYyhuW2NIXW4yKWMoYzIzKW5bY0hdbjNbQ0BASF00T1tDQEhdKFtDSDJdW09IXSlbQ0BASF0oW09IXSlbQ0BIXTRbT0hd

> <s_epik_cmdline>
J2VwaWtfcHl0aG9uJywgJy1waCcsICc3LjAnLCAnLXRuJywgJzgnLCAnLW1hJywgJzIwMCcsICctbWV0YWxfYmluZGluZycsICctaW1hZScsICc8aW5maWxlLm1hZT4nLCAnLW9tYWUnLCAnPG91dGZpbGUubWFlPic=

> <r_lp_tautomer_probability>
1

> <r_epik_Ionization_Penalty>
0.000992612

> <r_epik_Ionization_Penalty_Charging>
0

> <r_epik_Ionization_Penalty_Neutral>
0.000992612

> <r_epik_State_Penalty>
-0

> <r_epik_Charging_Adjusted_Penalty>
0

> <i_epik_Tot_Q>
0

> <i_epik_Tot_abs_Q>
0

> <r_epik_Metal_State_Penalty>
-0

> <b_epik_Metal_Only>
0

> <s_epik_Chemistry_Notes>
This compound contains an acetal/aminal-like group ( X-CH(R)-Y where X, Y are N, S, or O) that may be acid/base labile, releasing an aldehyde.

> <s_lp_Force_Field>
OPLS_2005

> <r_lp_Energy>
42.7121

> <b_lp_Chiralities_Consistent>
1

> <s_lp_Variant>
AV-unprocessed.smi:287-11

> <Gold.Version>
5.8.1

> <Gold.Id.Protein>
6NUR|6NUR_protein|mol2

> <Gold.PLP.Fitness>
58.2718

> <Gold.PLP.PLP>
-43.1345

> <Gold.PLP.part.hbond>
-6.6620

> <Gold.PLP.part.metal>
0.0000

> <Gold.PLP.part.buried>
0.2350

> <Gold.PLP.part.nonpolar>
-42.8690

> <Gold.PLP.part.repulsive>
4.6609

> <Gold.PLP.ligand.clash>
0.0000

> <Gold.PLP.ligand.torsion>
0.8799

> <Gold.PLP.Chemscore.Hbond>
4.5756

> <Gold.PLP.Chemscore.CHOScore>
1.0000

> <Gold.PLP.Chemscore.Metal>
0.0000

> <Gold.Chemscore.Hbonds>
donor molecule, donor type, donor heavy atom, donor atom, acceptor molecule, acceptor atom, score
      L1  H     7    42       P1  8028  0.76
      L1  H     9    45       P1  7957  0.37
      L1  H    23    50       P1 10186  0.98
      L1  H    25    51       P1 10186  1.00
      P1  H  7954  7966       L1    16  1.00
      P1  H  8011  8017       L1     7  0.14
      L1  C    17    47       P1  7921  1.00

> <Gold.PLP.Chemscore.Internal.Correction>
0.1703

> <Gold.Rescore>
     Score         DG    S(hbond)    S(metal)    S(lipo)     H(rot)  DE(clash)    DE(int)     intcor
      9.46     -16.97       4.10        0.00      96.32       5.27       3.86       3.65       ----

> <Gold.Chemscore.Fitness>
9.4590

> <Gold.Chemscore.DG>
-16.9740

> <Gold.Chemscore.ZeroCoef>
-5.4800

> <Gold.Chemscore.Hbond>
4.1042

> <Gold.Chemscore.Metal>
0.0000

> <Gold.Chemscore.Lipo>
96.3240

> <Gold.Chemscore.Internal_Hbond>
0.0000

> <Gold.Chemscore.DEClash>
3.8609

> <Gold.Chemscore.DEInternal>
3.6541

> <Gold.Chemscore.Rot>
5.2672

> <Gold.Chemscore.Internal.Correction>
   9.000000E+99

> <Gold.Chemscore.Hbonds>
donor molecule, donor type, donor heavy atom, donor atom, acceptor molecule, acceptor atom, score
      L1  H     7    42       P1  8028  0.77
      L1  H     9    45       P1  7957  0.38
      L1  H    23    50       P1 10186  0.92
      L1  H    25    51       P1 10186  0.97
      P1  H  7954  7966       L1    16  0.78
      P1  H  8011  8017       L1     7  0.09

> <Gold.Chemscore.Hbond.Weighted>
-13.7080

> <Gold.Chemscore.Metal.Weighted>
-0.0000

> <Gold.Chemscore.Lipo.Weighted>
-11.2699

> <Gold.Chemscore.Internal_Hbond.Weighted>
0.0000

> <Gold.Chemscore.DEClash.Weighted>
3.8609

> <Gold.Chemscore.DEInternal.Weighted>
3.6541

> <Gold.Chemscore.Rot.Weighted>
13.4839

> <Gold.Chemscore.Internal.Correction.Weighted>
   9.000000E+99

> <Gold.Protein.RotatedTorsions>
[ 6907 6896 6895 6894 ] final   37.31 input  -60.11 | X-H torsion
[ 7974 7965 7964 7962 ] final   74.29 input  175.53 | X-H torsion
[ 8008 7997 7996 7995 ] final  -84.73 input   59.86 | X-H torsion
[ 10167 10162 10161 10158 ] final  -99.43 input  -65.29 | X-H torsion
[ 10718 10713 10712 10709 ] final  -20.46 input   66.30 | X-H torsion
[ 10763 10752 10751 10750 ] final  136.81 input  -60.55 | X-H torsion
[ 11005 11000 10999 10996 ] final  -52.52 input  -57.11 | X-H torsion

> <Gold.Protein.ActiveResidues>
 VAL166  LYS551  ARG553  GLY616  TRP617  ASP618  TYR619  PRO620  LYS621  CYS622 
 ASP623  PHE694  ASN695  SER759  ASP760  ASP761  ALA762  ILE779  LEU786  VAL792 
 PHE793  MET794  SER795  GLU796  ALA797  LYS798  CYS799  TRP800  GLU811  SER814 

> <Gold.Protein.RotatedAtoms>
  152.1414  134.9059  160.0553 H   0  0  0  0  0  0  0  0  0  0  0  0  # atno 6907 bound_to 6896
  152.0125  133.3862  159.4234 H   0  0  0  0  0  0  0  0  0  0  0  0  # atno 6908 bound_to 6896
  150.6865  134.3636  159.5005 H   0  0  0  0  0  0  0  0  0  0  0  0  # atno 6909 bound_to 6896
  145.7301  139.2681  143.1546 H   0  0  0  0  0  0  0  0  0  0  0  0  # atno 7974 bound_to 7965
  154.6330  140.0601  156.9755 H   0  0  0  0  0  0  0  0  0  0  0  0  # atno 8008 bound_to 7997
  155.1636  140.3285  155.4388 H   0  0  0  0  0  0  0  0  0  0  0  0  # atno 8009 bound_to 7997
  156.2492  140.1926  156.6742 H   0  0  0  0  0  0  0  0  0  0  0  0  # atno 8010 bound_to 7997
  140.2625  143.3398  152.0612 H   0  0  0  0  0  0  0  0  0  0  0  0  # atno 10167 bound_to 10162
  156.5315  130.4656  149.6544 H   0  0  0  0  0  0  0  0  0  0  0  0  # atno 10718 bound_to 10713
  153.8627  135.3065  155.3438 H   0  0  0  0  0  0  0  0  0  0  0  0  # atno 10763 bound_to 10752
  154.7841  135.4819  153.9911 H   0  0  0  0  0  0  0  0  0  0  0  0  # atno 10764 bound_to 10752
  153.1452  135.6832  153.9060 H   0  0  0  0  0  0  0  0  0  0  0  0  # atno 10765 bound_to 10752
  141.0929  133.6629  156.4037 H   0  0  0  0  0  0  0  0  0  0  0  0  # atno 11005 bound_to 11000
  146.0545  140.8035  142.9765 LP  0  0  0  0  0  0  0  0  0  0  0  0  # atno 17320 bound_to 7965
  144.6895  140.3103  143.7249 LP  0  0  0  0  0  0  0  0  0  0  0  0  # atno 17321 bound_to 7965
  139.5012  144.6709  151.6244 LP  0  0  0  0  0  0  0  0  0  0  0  0  # atno 17342 bound_to 10162
  140.5954  143.9704  150.6351 LP  0  0  0  0  0  0  0  0  0  0  0  0  # atno 17343 bound_to 10162
  156.3055  130.7200  151.2081 LP  0  0  0  0  0  0  0  0  0  0  0  0  # atno 17370 bound_to 10713
  157.7421  131.0495  150.5050 LP  0  0  0  0  0  0  0  0  0  0  0  0  # atno 17371 bound_to 10713
  140.5210  134.6304  157.5318 LP  0  0  0  0  0  0  0  0  0  0  0  0  # atno 17394 bound_to 11000
  139.9758  134.7217  155.9952 LP  0  0  0  0  0  0  0  0  0  0  0  0  # atno 17395 bound_to 11000

$$$$
