AV-unprocessed.smi:3157|AV-procd|sdf|12039|dock8
  -GOLD-   2272017463D 1   1.00000     0.00000
 Structure written by MMmdl.
 40 41  0  0  0  0  0  0  0  0  2 V2000
  149.8271  139.6809  154.8146 C   0  0  0  0  0  0  0  0  0  0  0  0
  149.2142  141.0509  154.4543 C   0  0  2  0  0  0  0  0  0  0  0  0
  149.7478  142.0983  155.3551 N   0  3  0  0  0  0  0  0  0  0  0  0
  149.8369  141.7220  156.7817 C   0  0  0  0  0  0  0  0  0  0  0  0
  151.1288  142.2620  157.4155 C   0  0  0  0  0  0  0  0  0  0  0  0
  151.3556  141.7727  158.8471 C   0  0  0  0  0  0  0  0  0  0  0  0
  152.3862  142.7459  159.4229 C   0  0  0  0  0  0  0  0  0  0  0  0
  152.1555  144.0790  158.6967 C   0  0  0  0  0  0  0  0  0  0  0  0
  151.1666  143.7889  157.5587 C   0  0  0  0  0  0  0  0  0  0  0  0
  147.6628  141.0532  154.5128 C   0  0  1  0  0  0  0  0  0  0  0  0
  147.0547  142.3561  153.9578 C   0  0  0  0  0  0  0  0  0  0  0  0
  147.0806  139.9023  153.8336 N   0  0  0  0  0  0  0  0  0  0  0  0
  147.2384  139.5173  152.5181 C   0  0  0  0  0  0  0  0  0  0  0  0
  146.5015  138.3829  152.3329 C   0  0  0  0  0  0  0  0  0  0  0  0
  145.9228  138.1432  153.6101 C   0  0  0  0  0  0  0  0  0  0  0  0
  146.2701  139.0532  154.5055 N   0  0  0  0  0  0  0  0  0  0  0  0
  149.5190  138.9027  154.1163 H   0  0  0  0  0  0  0  0  0  0  0  0
  149.5268  139.3659  155.8144 H   0  0  0  0  0  0  0  0  0  0  0  0
  150.9162  139.7037  154.7887 H   0  0  0  0  0  0  0  0  0  0  0  0
  149.5100  141.2973  153.4329 H   0  0  0  0  0  0  0  0  0  0  0  0
  150.6849  142.3167  155.0480 H   0  0  0  0  0  0  0  0  0  0  0  0
  148.9697  142.0912  157.3294 H   0  0  0  0  0  0  0  0  0  0  0  0
  149.8201  140.6339  156.8559 H   0  0  0  0  0  0  0  0  0  0  0  0
  151.9843  141.9467  156.8154 H   0  0  0  0  0  0  0  0  0  0  0  0
  150.4286  141.8422  159.4188 H   0  0  0  0  0  0  0  0  0  0  0  0
  151.6937  140.7368  158.8884 H   0  0  0  0  0  0  0  0  0  0  0  0
  152.2993  142.8416  160.5056 H   0  0  0  0  0  0  0  0  0  0  0  0
  153.3921  142.3836  159.2067 H   0  0  0  0  0  0  0  0  0  0  0  0
  151.7516  144.8338  159.3725 H   0  0  0  0  0  0  0  0  0  0  0  0
  153.0984  144.4643  158.3066 H   0  0  0  0  0  0  0  0  0  0  0  0
  151.4504  144.2851  156.6300 H   0  0  0  0  0  0  0  0  0  0  0  0
  150.1805  144.1624  157.8389 H   0  0  0  0  0  0  0  0  0  0  0  0
  147.3678  140.9742  155.5606 H   0  0  0  0  0  0  0  0  0  0  0  0
  147.3771  143.2264  154.5294 H   0  0  0  0  0  0  0  0  0  0  0  0
  145.9654  142.3274  154.0010 H   0  0  0  0  0  0  0  0  0  0  0  0
  147.3396  142.5198  152.9179 H   0  0  0  0  0  0  0  0  0  0  0  0
  147.8535  140.0770  151.8289 H   0  0  0  0  0  0  0  0  0  0  0  0
  146.3929  137.8105  151.4236 H   0  0  0  0  0  0  0  0  0  0  0  0
  145.2647  137.3413  153.9106 H   0  0  0  0  0  0  0  0  0  0  0  0
  149.1798  142.9282  155.2621 H   0  0  0  0  0  0  0  0  0  0  0  0
  1  2  1  0  0  0  0
  1 17  1  0  0  0  0
  1 18  1  0  0  0  0
  1 19  1  0  0  0  0
  2  3  1  0  0  0  0
  2 10  1  0  0  0  0
  2 20  1  0  0  0  0
  3  4  1  0  0  0  0
  3 21  1  0  0  0  0
  3 40  1  0  0  0  0
  4  5  1  0  0  0  0
  4 22  1  0  0  0  0
  4 23  1  0  0  0  0
  5  9  1  0  0  0  0
  5  6  1  0  0  0  0
  5 24  1  0  0  0  0
  6  7  1  0  0  0  0
  6 25  1  0  0  0  0
  6 26  1  0  0  0  0
  7  8  1  0  0  0  0
  7 27  1  0  0  0  0
  7 28  1  0  0  0  0
  8  9  1  0  0  0  0
  8 29  1  0  0  0  0
  8 30  1  0  0  0  0
  9 31  1  0  0  0  0
  9 32  1  0  0  0  0
 10 11  1  0  0  0  0
 10 12  1  0  0  0  0
 10 33  1  0  0  0  0
 11 34  1  0  0  0  0
 11 35  1  0  0  0  0
 11 36  1  0  0  0  0
 12 16  1  0  0  0  0
 12 13  1  0  0  0  0
 13 14  2  0  0  0  0
 13 37  1  0  0  0  0
 14 15  1  0  0  0  0
 14 38  1  0  0  0  0
 15 16  2  0  0  0  0
 15 39  1  0  0  0  0
M  CHG  1   3   1
M  END
> <s_m_source_file>
AV-unprocessed.smi

> <i_m_source_file_index>
3157

> <i_lp_mmshare_version>
43012

> <i_f3d_flags>
0

> <s_epik_input>
bjFbY0hdW2NIXVtjSF1uMVtDQEBIXShbQ0gzXSlbQ0BIXShbQ0gzXSlbTkhdW0NIMl1bQ0hdMltDSDJdW0NIMl1bQ0gyXVtDSDJdMg==

> <s_epik_cmdline>
J2VwaWtfcHl0aG9uJywgJy1waCcsICc3LjAnLCAnLXRuJywgJzgnLCAnLW1hJywgJzIwMCcsICctbWV0YWxfYmluZGluZycsICctaW1hZScsICc8aW5maWxlLm1hZT4nLCAnLW9tYWUnLCAnPG91dGZpbGUubWFlPic=

> <r_lp_tautomer_probability>
1

> <r_epik_Ionization_Penalty>
0.00132192

> <r_epik_Ionization_Penalty_Charging>
0.0013111

> <r_epik_Ionization_Penalty_Neutral>
1.08112e-05

> <r_epik_State_Penalty>
-0

> <r_epik_Charging_Adjusted_Penalty>
0.0013111

> <i_epik_Tot_Q>
1

> <i_epik_Tot_abs_Q>
1

> <r_epik_Metal_State_Penalty>
-0

> <b_epik_Metal_Only>
0

> <s_lp_Force_Field>
OPLS_2005

> <r_lp_Energy>
31.1874

> <b_lp_Chiralities_Consistent>
1

> <s_lp_Variant>
AV-unprocessed.smi:3157-3

> <Gold.Version>
5.8.1

> <Gold.Id.Protein>
6NUR|6NUR_protein|mol2

> <Gold.PLP.Fitness>
43.9256

> <Gold.PLP.PLP>
-36.1333

> <Gold.PLP.part.hbond>
-1.0000

> <Gold.PLP.part.metal>
0.0000

> <Gold.PLP.part.buried>
-0.7794

> <Gold.PLP.part.nonpolar>
-35.0757

> <Gold.PLP.part.repulsive>
0.2884

> <Gold.PLP.ligand.clash>
0.0000

> <Gold.PLP.ligand.torsion>
0.6485

> <Gold.PLP.Chemscore.Hbond>
2.0000

> <Gold.PLP.Chemscore.CHOScore>
1.0000

> <Gold.PLP.Chemscore.Metal>
0.0000

> <Gold.Chemscore.Hbonds>
donor molecule, donor type, donor heavy atom, donor atom, acceptor molecule, acceptor atom, score
      L1  H     3    40       P1  8028  2.00
      L1  C    13    37       P1  7957  0.54

> <Gold.PLP.Chemscore.Internal.Correction>
0.0893

> <Gold.Rescore>
     Score         DG    S(hbond)    S(metal)    S(lipo)     H(rot)  DE(clash)    DE(int)     intcor
     16.59     -17.50       0.99        0.00     107.29       1.50       0.39       0.53       ----

> <Gold.Chemscore.Fitness>
16.5873

> <Gold.Chemscore.DG>
-17.4993

> <Gold.Chemscore.ZeroCoef>
-5.4800

> <Gold.Chemscore.Hbond>
0.9934

> <Gold.Chemscore.Metal>
0.0000

> <Gold.Chemscore.Lipo>
107.2918

> <Gold.Chemscore.Internal_Hbond>
0.0000

> <Gold.Chemscore.DEClash>
0.3851

> <Gold.Chemscore.DEInternal>
0.5268

> <Gold.Chemscore.Rot>
1.5047

> <Gold.Chemscore.Internal.Correction>
   9.000000E+99

> <Gold.Chemscore.Hbonds>
donor molecule, donor type, donor heavy atom, donor atom, acceptor molecule, acceptor atom, score
      L1  H     3    40       P1  8028  0.94

> <Gold.Chemscore.Hbond.Weighted>
-3.3181

> <Gold.Chemscore.Metal.Weighted>
-0.0000

> <Gold.Chemscore.Lipo.Weighted>
-12.5531

> <Gold.Chemscore.Internal_Hbond.Weighted>
0.0000

> <Gold.Chemscore.DEClash.Weighted>
0.3851

> <Gold.Chemscore.DEInternal.Weighted>
0.5268

> <Gold.Chemscore.Rot.Weighted>
3.8520

> <Gold.Chemscore.Internal.Correction.Weighted>
   9.000000E+99

> <Gold.Protein.RotatedTorsions>
[ 6907 6896 6895 6894 ] final  123.64 input  -60.11 | X-H torsion
[ 7974 7965 7964 7962 ] final -176.74 input  175.53 | X-H torsion
[ 8008 7997 7996 7995 ] final  -93.59 input   59.86 | X-H torsion
[ 10167 10162 10161 10158 ] final -146.22 input  -65.29 | X-H torsion
[ 10718 10713 10712 10709 ] final -127.66 input   66.30 | X-H torsion
[ 10763 10752 10751 10750 ] final  -66.80 input  -60.55 | X-H torsion
[ 11005 11000 10999 10996 ] final -168.69 input  -57.11 | X-H torsion

> <Gold.Protein.ActiveResidues>
 VAL166  LYS551  ARG553  GLY616  TRP617  ASP618  TYR619  PRO620  LYS621  CYS622 
 ASP623  PHE694  ASN695  SER759  ASP760  ASP761  ALA762  ILE779  LEU786  VAL792 
 PHE793  MET794  SER795  GLU796  ALA797  LYS798  CYS799  TRP800  GLU811  SER814 

> <Gold.Protein.RotatedAtoms>
  152.4145  133.7016  159.6426 H   0  0  0  0  0  0  0  0  0  0  0  0  # atno 6907 bound_to 6896
  150.8023  133.8565  159.3228 H   0  0  0  0  0  0  0  0  0  0  0  0  # atno 6908 bound_to 6896
  151.6299  135.1026  160.0171 H   0  0  0  0  0  0  0  0  0  0  0  0  # atno 6909 bound_to 6896
  144.7127  140.1125  143.6410 H   0  0  0  0  0  0  0  0  0  0  0  0  # atno 7974 bound_to 7965
  154.7376  140.0497  157.0783 H   0  0  0  0  0  0  0  0  0  0  0  0  # atno 8008 bound_to 7997
  155.0220  140.3148  155.4771 H   0  0  0  0  0  0  0  0  0  0  0  0  # atno 8009 bound_to 7997
  156.2857  140.2165  156.5338 H   0  0  0  0  0  0  0  0  0  0  0  0  # atno 8010 bound_to 7997
  139.7733  143.8206  152.2628 H   0  0  0  0  0  0  0  0  0  0  0  0  # atno 10167 bound_to 10162
  156.1877  130.6775  151.0385 H   0  0  0  0  0  0  0  0  0  0  0  0  # atno 10718 bound_to 10713
  154.3651  135.6107  153.5711 H   0  0  0  0  0  0  0  0  0  0  0  0  # atno 10763 bound_to 10752
  152.9792  135.5824  154.4587 H   0  0  0  0  0  0  0  0  0  0  0  0  # atno 10764 bound_to 10752
  154.4331  135.2848  155.1876 H   0  0  0  0  0  0  0  0  0  0  0  0  # atno 10765 bound_to 10752
  140.5391  134.5540  157.5095 H   0  0  0  0  0  0  0  0  0  0  0  0  # atno 11005 bound_to 11000
  145.9442  139.2689  143.1250 LP  0  0  0  0  0  0  0  0  0  0  0  0  # atno 17320 bound_to 7965
  145.9391  140.8992  143.0317 LP  0  0  0  0  0  0  0  0  0  0  0  0  # atno 17321 bound_to 7965
  139.8247  144.7280  150.9527 LP  0  0  0  0  0  0  0  0  0  0  0  0  # atno 17342 bound_to 10162
  140.7815  143.4126  151.0969 LP  0  0  0  0  0  0  0  0  0  0  0  0  # atno 17343 bound_to 10162
  157.6909  131.0810  150.7109 LP  0  0  0  0  0  0  0  0  0  0  0  0  # atno 17370 bound_to 10713
  156.7165  130.4667  149.5533 LP  0  0  0  0  0  0  0  0  0  0  0  0  # atno 17371 bound_to 10713
  139.9513  134.7612  156.0441 LP  0  0  0  0  0  0  0  0  0  0  0  0  # atno 17394 bound_to 11000
  141.1237  133.6605  156.3282 LP  0  0  0  0  0  0  0  0  0  0  0  0  # atno 17395 bound_to 11000

$$$$
