AV-unprocessed.smi:2027|AV-procd|sdf|8210|dock9
  -GOLD-   2272010473D 1   1.00000     0.00000
 Structure written by MMmdl.
 49 51  0  0  0  0  0  0  0  0  1 V2000
  152.9650  142.8805  161.2793 C   0  0  0  0  0  0  0  0  0  0  0  0
  152.3467  142.5418  159.9343 C   0  0  0  0  0  0  0  0  0  0  0  0
  152.7308  141.3474  159.2823 C   0  0  0  0  0  0  0  0  0  0  0  0
  152.1809  140.9969  158.0293 C   0  0  0  0  0  0  0  0  0  0  0  0
  152.4060  139.8957  157.2198 N   0  0  0  0  0  0  0  0  0  0  0  0
  151.5994  140.1470  156.1917 C   0  0  0  0  0  0  0  0  0  0  0  0
  150.8809  141.2847  156.2400 N   0  0  0  0  0  0  0  0  0  0  0  0
  149.9403  141.7878  155.2587 C   0  0  0  0  0  0  0  0  0  0  0  0
  149.0857  140.6563  154.6526 C   0  0  1  0  0  0  0  0  0  0  0  0
  149.8739  139.9322  153.7307 O   0  0  0  0  0  0  0  0  0  0  0  0
  148.5461  139.6798  155.7184 C   0  0  0  0  0  0  0  0  0  0  0  0
  147.5525  138.7195  155.2299 N   0  0  0  0  0  0  0  0  0  0  0  0
  148.1814  137.4312  154.9564 C   0  0  0  0  0  0  0  0  0  0  0  0
  146.8229  139.2041  154.0539 C   0  0  0  0  0  0  0  0  0  0  0  0
  145.9476  138.1472  153.4343 C   0  0  0  0  0  0  0  0  0  0  0  0
  144.7186  137.6266  153.9307 C   0  0  0  0  0  0  0  0  0  0  0  0
  144.2098  136.6814  153.1568 N   0  0  0  0  0  0  0  0  0  0  0  0
  145.0937  136.5640  152.1446 N   0  0  0  0  0  0  0  0  0  0  0  0
  144.8567  135.5955  151.0957 C   0  0  0  0  0  0  0  0  0  0  0  0
  146.1522  137.4340  152.2862 C   0  0  0  0  0  0  0  0  0  0  0  0
  151.2308  141.8822  157.4441 C   0  0  0  0  0  0  0  0  0  0  0  0
  150.8398  143.0719  158.0822 C   0  0  0  0  0  0  0  0  0  0  0  0
  151.3961  143.4062  159.3336 C   0  0  0  0  0  0  0  0  0  0  0  0
  150.9639  144.6940  160.0128 C   0  0  0  0  0  0  0  0  0  0  0  0
  153.7305  142.1561  161.5593 H   0  0  0  0  0  0  0  0  0  0  0  0
  152.2026  142.8818  162.0586 H   0  0  0  0  0  0  0  0  0  0  0  0
  153.4329  143.8647  161.2495 H   0  0  0  0  0  0  0  0  0  0  0  0
  153.4537  140.6886  159.7405 H   0  0  0  0  0  0  0  0  0  0  0  0
  151.5288  139.4674  155.3549 H   0  0  0  0  0  0  0  0  0  0  0  0
  149.3136  142.5559  155.7140 H   0  0  0  0  0  0  0  0  0  0  0  0
  150.5225  142.2861  154.4830 H   0  0  0  0  0  0  0  0  0  0  0  0
  148.2622  141.0808  154.0805 H   0  0  0  0  0  0  0  0  0  0  0  0
  149.5069  140.0491  152.8677 H   0  0  0  0  0  0  0  0  0  0  0  0
  149.3766  139.1390  156.1750 H   0  0  0  0  0  0  0  0  0  0  0  0
  148.1038  140.2770  156.5173 H   0  0  0  0  0  0  0  0  0  0  0  0
  147.4441  136.6871  154.6540 H   0  0  0  0  0  0  0  0  0  0  0  0
  148.6813  137.0477  155.8465 H   0  0  0  0  0  0  0  0  0  0  0  0
  148.9238  137.5167  154.1617 H   0  0  0  0  0  0  0  0  0  0  0  0
  146.1894  140.0462  154.3226 H   0  0  0  0  0  0  0  0  0  0  0  0
  147.5300  139.6034  153.3253 H   0  0  0  0  0  0  0  0  0  0  0  0
  144.1861  137.9044  154.8284 H   0  0  0  0  0  0  0  0  0  0  0  0
  145.5111  135.7976  150.2472 H   0  0  0  0  0  0  0  0  0  0  0  0
  143.8194  135.6517  150.7627 H   0  0  0  0  0  0  0  0  0  0  0  0
  145.0605  134.5922  151.4702 H   0  0  0  0  0  0  0  0  0  0  0  0
  146.9594  137.4721  151.5693 H   0  0  0  0  0  0  0  0  0  0  0  0
  150.1184  143.7217  157.6101 H   0  0  0  0  0  0  0  0  0  0  0  0
  150.1639  145.1863  159.4587 H   0  0  0  0  0  0  0  0  0  0  0  0
  151.8022  145.3877  160.0809 H   0  0  0  0  0  0  0  0  0  0  0  0
  150.5965  144.4935  161.0193 H   0  0  0  0  0  0  0  0  0  0  0  0
  1  2  1  0  0  0  0
  1 25  1  0  0  0  0
  1 26  1  0  0  0  0
  1 27  1  0  0  0  0
  2 23  1  0  0  0  0
  2  3  2  0  0  0  0
  3  4  1  0  0  0  0
  3 28  1  0  0  0  0
  4 21  2  0  0  0  0
  4  5  1  0  0  0  0
  5  6  2  0  0  0  0
  6  7  1  0  0  0  0
  6 29  1  0  0  0  0
  7  8  1  0  0  0  0
  7 21  1  0  0  0  0
  8  9  1  0  0  0  0
  8 30  1  0  0  0  0
  8 31  1  0  0  0  0
  9 10  1  0  0  0  0
  9 11  1  0  0  0  0
  9 32  1  0  0  0  0
 10 33  1  0  0  0  0
 11 12  1  0  0  0  0
 11 34  1  0  0  0  0
 11 35  1  0  0  0  0
 12 13  1  0  0  0  0
 12 14  1  0  0  0  0
 13 36  1  0  0  0  0
 13 37  1  0  0  0  0
 13 38  1  0  0  0  0
 14 15  1  0  0  0  0
 14 39  1  0  0  0  0
 14 40  1  0  0  0  0
 15 20  2  0  0  0  0
 15 16  1  0  0  0  0
 16 17  2  0  0  0  0
 16 41  1  0  0  0  0
 17 18  1  0  0  0  0
 18 19  1  0  0  0  0
 18 20  1  0  0  0  0
 19 42  1  0  0  0  0
 19 43  1  0  0  0  0
 19 44  1  0  0  0  0
 20 45  1  0  0  0  0
 21 22  1  0  0  0  0
 22 23  2  0  0  0  0
 22 46  1  0  0  0  0
 23 24  1  0  0  0  0
 24 47  1  0  0  0  0
 24 48  1  0  0  0  0
 24 49  1  0  0  0  0
M  END
> <s_m_source_file>
AV-unprocessed.smi

> <i_m_source_file_index>
2027

> <i_lp_mmshare_version>
43012

> <i_f3d_flags>
0

> <s_epik_input>
W0NIM11jKFtjSF0xKWMoW0NIM10pW2NIXWMoYzEyKW4oW2NIXW4yKVtDSDJdW0NASF0oW09IXSlbQ0gyXU4oW0NIM10pW0NIMl1jM1tjSF1ubihbQ0gzXSlbY0hdMw==

> <s_epik_cmdline>
J2VwaWtfcHl0aG9uJywgJy1waCcsICc3LjAnLCAnLXRuJywgJzgnLCAnLW1hJywgJzIwMCcsICctbWV0YWxfYmluZGluZycsICctaW1hZScsICc8aW5maWxlLm1hZT4nLCAnLW9tYWUnLCAnPG91dGZpbGUubWFlPic=

> <r_lp_tautomer_probability>
1

> <r_epik_Ionization_Penalty>
0.374241

> <r_epik_Ionization_Penalty_Charging>
0

> <r_epik_Ionization_Penalty_Neutral>
0.374241

> <r_epik_State_Penalty>
0.350767

> <r_epik_Charging_Adjusted_Penalty>
0.350767

> <i_epik_Tot_Q>
0

> <i_epik_Tot_abs_Q>
0

> <r_epik_Metal_State_Penalty>
0.343203

> <b_epik_Metal_Only>
0

> <s_lp_Force_Field>
OPLS_2005

> <r_lp_Energy>
13.5697

> <b_lp_Chiralities_Consistent>
1

> <s_lp_Variant>
AV-unprocessed.smi:2027-2

> <Gold.Version>
5.8.1

> <Gold.Id.Protein>
6NUR|6NUR_protein|mol2

> <Gold.PLP.Fitness>
52.0401

> <Gold.PLP.PLP>
-43.1278

> <Gold.PLP.part.hbond>
-3.0000

> <Gold.PLP.part.metal>
0.0000

> <Gold.PLP.part.buried>
-5.1250

> <Gold.PLP.part.nonpolar>
-35.9758

> <Gold.PLP.part.repulsive>
0.1492

> <Gold.PLP.ligand.clash>
0.0000

> <Gold.PLP.ligand.torsion>
1.1742

> <Gold.PLP.Chemscore.Hbond>
2.7840

> <Gold.PLP.Chemscore.CHOScore>
0.9037

> <Gold.PLP.Chemscore.Metal>
0.0000

> <Gold.Chemscore.Hbonds>
donor molecule, donor type, donor heavy atom, donor atom, acceptor molecule, acceptor atom, score
      L1  H    10    33       P1  7957  1.00
      P1  H  7989  7998       L1    10  0.74
      P1  H  7997  8010       L1     5  0.93
      L1  C    20    45       P1  7948  0.86

> <Gold.PLP.Chemscore.Internal.Correction>
0.1976

> <Gold.Rescore>
     Score         DG    S(hbond)    S(metal)    S(lipo)     H(rot)  DE(clash)    DE(int)     intcor
     16.60     -17.89       1.87        0.00     105.69       2.42       0.27       1.03       ----

> <Gold.Chemscore.Fitness>
16.6022

> <Gold.Chemscore.DG>
-17.8945

> <Gold.Chemscore.ZeroCoef>
-5.4800

> <Gold.Chemscore.Hbond>
1.8693

> <Gold.Chemscore.Metal>
0.0000

> <Gold.Chemscore.Lipo>
105.6911

> <Gold.Chemscore.Internal_Hbond>
0.0000

> <Gold.Chemscore.DEClash>
0.2670

> <Gold.Chemscore.DEInternal>
1.0253

> <Gold.Chemscore.Rot>
2.4198

> <Gold.Chemscore.Internal.Correction>
   9.000000E+99

> <Gold.Chemscore.Hbonds>
donor molecule, donor type, donor heavy atom, donor atom, acceptor molecule, acceptor atom, score
      L1  H    10    33       P1  7957  0.96
      P1  H  7989  7998       L1    10  0.11
      P1  H  7997  8010       L1     5  0.29

> <Gold.Chemscore.Hbond.Weighted>
-6.2434

> <Gold.Chemscore.Metal.Weighted>
-0.0000

> <Gold.Chemscore.Lipo.Weighted>
-12.3659

> <Gold.Chemscore.Internal_Hbond.Weighted>
0.0000

> <Gold.Chemscore.DEClash.Weighted>
0.2670

> <Gold.Chemscore.DEInternal.Weighted>
1.0253

> <Gold.Chemscore.Rot.Weighted>
6.1948

> <Gold.Chemscore.Internal.Correction.Weighted>
   9.000000E+99

> <Gold.Protein.RotatedTorsions>
[ 6907 6896 6895 6894 ] final   53.82 input  -60.11 | X-H torsion
[ 7974 7965 7964 7962 ] final   92.27 input  175.53 | X-H torsion
[ 8008 7997 7996 7995 ] final   60.89 input   59.86 | X-H torsion
[ 10167 10162 10161 10158 ] final -147.24 input  -65.29 | X-H torsion
[ 10718 10713 10712 10709 ] final  170.86 input   66.30 | X-H torsion
[ 10763 10752 10751 10750 ] final -119.28 input  -60.55 | X-H torsion
[ 11005 11000 10999 10996 ] final -137.73 input  -57.11 | X-H torsion

> <Gold.Protein.ActiveResidues>
 VAL166  LYS551  ARG553  GLY616  TRP617  ASP618  TYR619  PRO620  LYS621  CYS622 
 ASP623  PHE694  ASN695  SER759  ASP760  ASP761  ALA762  ILE779  LEU786  VAL792 
 PHE793  MET794  SER795  GLU796  ALA797  LYS798  CYS799  TRP800  GLU811  SER814 

> <Gold.Protein.RotatedAtoms>
  152.3376  134.7177  160.0272 H   0  0  0  0  0  0  0  0  0  0  0  0  # atno 6907 bound_to 6896
  151.7573  133.3326  159.3416 H   0  0  0  0  0  0  0  0  0  0  0  0  # atno 6908 bound_to 6896
  150.7460  134.6070  159.6110 H   0  0  0  0  0  0  0  0  0  0  0  0  # atno 6909 bound_to 6896
  145.4945  139.2276  143.2811 H   0  0  0  0  0  0  0  0  0  0  0  0  # atno 7974 bound_to 7965
  155.5895  140.3492  155.4562 H   0  0  0  0  0  0  0  0  0  0  0  0  # atno 8008 bound_to 7997
  156.0312  140.1275  157.0281 H   0  0  0  0  0  0  0  0  0  0  0  0  # atno 8009 bound_to 7997
  154.4353  140.1043  156.6088 H   0  0  0  0  0  0  0  0  0  0  0  0  # atno 8010 bound_to 7997
  139.7640  143.8335  152.2612 H   0  0  0  0  0  0  0  0  0  0  0  0  # atno 10167 bound_to 10162
  157.0019  131.0179  151.2828 H   0  0  0  0  0  0  0  0  0  0  0  0  # atno 10718 bound_to 10713
  154.8612  135.4244  154.2273 H   0  0  0  0  0  0  0  0  0  0  0  0  # atno 10763 bound_to 10752
  153.3265  135.6985  153.6990 H   0  0  0  0  0  0  0  0  0  0  0  0  # atno 10764 bound_to 10752
  153.6024  135.3534  155.2923 H   0  0  0  0  0  0  0  0  0  0  0  0  # atno 10765 bound_to 10752
  140.8683  134.2082  157.4666 H   0  0  0  0  0  0  0  0  0  0  0  0  # atno 11005 bound_to 11000
  146.2264  140.5741  142.8994 LP  0  0  0  0  0  0  0  0  0  0  0  0  # atno 17320 bound_to 7965
  144.7815  140.5850  143.6602 LP  0  0  0  0  0  0  0  0  0  0  0  0  # atno 17321 bound_to 7965
  139.8350  144.7236  150.9403 LP  0  0  0  0  0  0  0  0  0  0  0  0  # atno 17342 bound_to 10162
  140.7809  143.4035  151.1109 LP  0  0  0  0  0  0  0  0  0  0  0  0  # atno 17343 bound_to 10162
  157.5383  130.8103  149.7999 LP  0  0  0  0  0  0  0  0  0  0  0  0  # atno 17370 bound_to 10713
  156.0168  130.3811  150.2087 LP  0  0  0  0  0  0  0  0  0  0  0  0  # atno 17371 bound_to 10713
  139.8710  134.9762  156.4913 LP  0  0  0  0  0  0  0  0  0  0  0  0  # atno 17394 bound_to 11000
  140.8603  133.8065  155.9258 LP  0  0  0  0  0  0  0  0  0  0  0  0  # atno 17395 bound_to 11000

$$$$
