AV-unprocessed.smi:221|AV-procd|sdf|1699|dock2
  -GOLD-   2262020153D 1   1.00000     0.00000
 Structure written by MMmdl.
 50 53  0  0  0  0  0  0  0  0  1 V2000
  147.6233  131.0869  152.4331 N   0  0  0  0  0  0  0  0  0  0  0  0
  146.7576  132.0979  152.5392 C   0  0  0  0  0  0  0  0  0  0  0  0
  146.0388  132.2383  153.5275 O   0  0  0  0  0  0  0  0  0  0  0  0
  146.7003  133.0838  151.3570 C   0  0  1  0  0  0  0  0  0  0  0  0
  146.2210  132.4021  150.0622 C   0  0  0  0  0  0  0  0  0  0  0  0
  144.7061  132.6093  150.0448 C   0  0  1  0  0  0  0  0  0  0  0  0
  144.1063  131.6590  150.7634 F   0  0  0  0  0  0  0  0  0  0  0  0
  144.5282  133.9659  150.7280 C   0  0  0  0  0  0  0  0  0  0  0  0
  145.7147  134.1466  151.5601 N   0  0  0  0  0  0  0  0  0  0  0  0
  145.8881  135.2419  152.3518 C   0  0  0  0  0  0  0  0  0  0  0  0
  145.1815  136.3624  152.0440 N   0  0  0  0  0  0  0  0  0  0  0  0
  145.2991  137.4710  152.7783 C   0  0  0  0  0  0  0  0  0  0  0  0
  146.0591  137.6811  153.8524 N   0  0  0  0  0  0  0  0  0  0  0  0
  146.7770  136.5674  154.1718 C   0  0  0  0  0  0  0  0  0  0  0  0
  146.7565  135.3176  153.4845 C   0  0  0  0  0  0  0  0  0  0  0  0
  147.6311  134.4358  154.1132 N   0  0  0  0  0  0  0  0  0  0  0  0
  148.1327  135.1181  155.1048 C   0  0  0  0  0  0  0  0  0  0  0  0
  147.6773  136.4101  155.2110 N   0  0  0  0  0  0  0  0  0  0  0  0
  148.0690  137.3855  156.2130 C   0  0  0  0  0  0  0  0  0  0  0  0
  149.5763  137.7522  156.1809 C   0  0  1  0  0  0  0  0  0  0  0  0
  150.1936  137.5968  154.7671 C   0  0  0  0  0  0  0  0  0  0  0  0
  149.4456  138.2876  153.7875 O   0  0  0  0  0  0  0  0  0  0  0  0
  149.7938  139.1876  156.7270 C   0  0  1  0  0  0  0  0  0  0  0  0
  151.2069  139.7257  156.5736 C   0  0  0  0  0  0  0  0  0  0  0  0
  150.9974  141.2252  156.7358 C   0  0  0  0  0  0  0  0  0  0  0  0
  149.7426  141.4902  156.1241 O   0  0  0  0  0  0  0  0  0  0  0  0
  148.9965  140.2824  156.0028 C   0  0  0  0  0  0  0  0  0  0  0  0
  147.6909  133.5044  151.1828 H   0  0  0  0  0  0  0  0  0  0  0  0
  144.2783  132.5757  149.0425 H   0  0  0  0  0  0  0  0  0  0  0  0
  147.7023  130.4155  153.1830 H   0  0  0  0  0  0  0  0  0  0  0  0
  148.1980  130.9992  151.6078 H   0  0  0  0  0  0  0  0  0  0  0  0
  146.6620  132.9130  149.2052 H   0  0  0  0  0  0  0  0  0  0  0  0
  146.5018  131.3504  149.9876 H   0  0  0  0  0  0  0  0  0  0  0  0
  144.4950  134.7626  149.9836 H   0  0  0  0  0  0  0  0  0  0  0  0
  143.6062  134.0029  151.3100 H   0  0  0  0  0  0  0  0  0  0  0  0
  144.6976  138.3093  152.4591 H   0  0  0  0  0  0  0  0  0  0  0  0
  148.8575  134.6977  155.7866 H   0  0  0  0  0  0  0  0  0  0  0  0
  147.4630  138.2824  156.0798 H   0  0  0  0  0  0  0  0  0  0  0  0
  147.7946  136.9737  157.1842 H   0  0  0  0  0  0  0  0  0  0  0  0
  150.1020  137.0708  156.8521 H   0  0  0  0  0  0  0  0  0  0  0  0
  151.2265  137.9458  154.7547 H   0  0  0  0  0  0  0  0  0  0  0  0
  150.2141  136.5542  154.4538 H   0  0  0  0  0  0  0  0  0  0  0  0
  149.0792  137.6553  153.1880 H   0  0  0  0  0  0  0  0  0  0  0  0
  149.5332  139.2137  157.7867 H   0  0  0  0  0  0  0  0  0  0  0  0
  151.9050  139.3254  157.3092 H   0  0  0  0  0  0  0  0  0  0  0  0
  151.5945  139.5076  155.5773 H   0  0  0  0  0  0  0  0  0  0  0  0
  150.9347  141.4882  157.7924 H   0  0  0  0  0  0  0  0  0  0  0  0
  151.7963  141.8136  156.2844 H   0  0  0  0  0  0  0  0  0  0  0  0
  148.8932  140.0537  154.9413 H   0  0  0  0  0  0  0  0  0  0  0  0
  147.9963  140.4080  156.4180 H   0  0  0  0  0  0  0  0  0  0  0  0
  1  2  1  0  0  0  0
  1 30  1  0  0  0  0
  1 31  1  0  0  0  0
  2  3  2  0  0  0  0
  2  4  1  0  0  0  0
  4 28  1  0  0  0  0
  4  9  1  0  0  0  0
  4  5  1  0  0  0  0
  5  6  1  0  0  0  0
  5 32  1  0  0  0  0
  5 33  1  0  0  0  0
  6 29  1  0  0  0  0
  6  7  1  0  0  0  0
  6  8  1  0  0  0  0
  8  9  1  0  0  0  0
  8 34  1  0  0  0  0
  8 35  1  0  0  0  0
  9 10  1  0  0  0  0
 10 15  1  0  0  0  0
 10 11  2  0  0  0  0
 11 12  1  0  0  0  0
 12 13  2  0  0  0  0
 12 36  1  0  0  0  0
 13 14  1  0  0  0  0
 14 18  1  0  0  0  0
 14 15  2  0  0  0  0
 15 16  1  0  0  0  0
 16 17  2  0  0  0  0
 17 18  1  0  0  0  0
 17 37  1  0  0  0  0
 18 19  1  0  0  0  0
 19 20  1  0  0  0  0
 19 38  1  0  0  0  0
 19 39  1  0  0  0  0
 20 21  1  0  0  0  0
 20 23  1  0  0  0  0
 20 40  1  0  0  0  0
 21 22  1  0  0  0  0
 21 41  1  0  0  0  0
 21 42  1  0  0  0  0
 22 43  1  0  0  0  0
 23 27  1  0  0  0  0
 23 24  1  0  0  0  0
 23 44  1  0  0  0  0
 24 25  1  0  0  0  0
 24 45  1  0  0  0  0
 24 46  1  0  0  0  0
 25 26  1  0  0  0  0
 25 47  1  0  0  0  0
 25 48  1  0  0  0  0
 26 27  1  0  0  0  0
 27 49  1  0  0  0  0
 27 50  1  0  0  0  0
M  END
> <s_m_source_file>
AV-unprocessed.smi

> <i_m_source_file_index>
221

> <i_lp_mmshare_version>
43012

> <i_f3d_flags>
0

> <s_epik_input>
W05IMl1DKD1PKVtDQEBIXTFbQ0gyXVtDQEBIXShGKVtDSDJdTjFjKG5bY0hdbjIpYyhjMjMpbltjSF1uM1tDSDJdW0NASF0oW0NIMl1bT0hdKVtDQEBIXTRbQ0gyXVtDSDJdT1tDSDJdNA==

> <s_epik_cmdline>
J2VwaWtfcHl0aG9uJywgJy1waCcsICc3LjAnLCAnLXRuJywgJzgnLCAnLW1hJywgJzIwMCcsICctbWV0YWxfYmluZGluZycsICctaW1hZScsICc8aW5maWxlLm1hZT4nLCAnLW9tYWUnLCAnPG91dGZpbGUubWFlPic=

> <r_lp_tautomer_probability>
1

> <r_epik_Ionization_Penalty>
0.000818822

> <r_epik_Ionization_Penalty_Charging>
0

> <r_epik_Ionization_Penalty_Neutral>
0.000818822

> <r_epik_State_Penalty>
0.000440551

> <r_epik_Charging_Adjusted_Penalty>
0.000440551

> <i_epik_Tot_Q>
0

> <i_epik_Tot_abs_Q>
0

> <r_epik_Metal_State_Penalty>
-0

> <b_epik_Metal_Only>
0

> <s_lp_Force_Field>
OPLS_2005

> <r_lp_Energy>
47.9731

> <b_lp_Chiralities_Consistent>
1

> <s_lp_Variant>
AV-unprocessed.smi:221-14

> <Gold.Version>
5.8.1

> <Gold.Id.Protein>
6NUR|6NUR_protein|mol2

> <Gold.PLP.Fitness>
41.9356

> <Gold.PLP.PLP>
-31.6880

> <Gold.PLP.part.hbond>
-3.0000

> <Gold.PLP.part.metal>
0.0000

> <Gold.PLP.part.buried>
-1.3340

> <Gold.PLP.part.nonpolar>
-28.9332

> <Gold.PLP.part.repulsive>
1.4950

> <Gold.PLP.ligand.clash>
0.0000

> <Gold.PLP.ligand.torsion>
0.7621

> <Gold.PLP.Chemscore.Hbond>
2.0000

> <Gold.PLP.Chemscore.CHOScore>
1.8958

> <Gold.PLP.Chemscore.Metal>
0.0000

> <Gold.Chemscore.Hbonds>
donor molecule, donor type, donor heavy atom, donor atom, acceptor molecule, acceptor atom, score
      L1  H     1    31       P1 10747  1.00
      L1  H    22    43       P1  7948  1.00
      L1  C    12    36       P1 10171  0.32
      L1  C    12    36       P1 10175  1.00

> <Gold.PLP.Chemscore.Internal.Correction>
0.0843

> <Gold.Rescore>
     Score         DG    S(hbond)    S(metal)    S(lipo)     H(rot)  DE(clash)    DE(int)     intcor
      5.72     -10.91       1.94        0.00      63.47       3.31       0.80       4.39       ----

> <Gold.Chemscore.Fitness>
5.7230

> <Gold.Chemscore.DG>
-10.9122

> <Gold.Chemscore.ZeroCoef>
-5.4800

> <Gold.Chemscore.Hbond>
1.9392

> <Gold.Chemscore.Metal>
0.0000

> <Gold.Chemscore.Lipo>
63.4729

> <Gold.Chemscore.Internal_Hbond>
0.0000

> <Gold.Chemscore.DEClash>
0.7972

> <Gold.Chemscore.DEInternal>
4.3920

> <Gold.Chemscore.Rot>
3.3089

> <Gold.Chemscore.Internal.Correction>
   9.000000E+99

> <Gold.Chemscore.Hbonds>
donor molecule, donor type, donor heavy atom, donor atom, acceptor molecule, acceptor atom, score
      L1  H     1    31       P1 10747  0.94
      L1  H    22    43       P1  7948  0.99

> <Gold.Chemscore.Hbond.Weighted>
-6.4768

> <Gold.Chemscore.Metal.Weighted>
-0.0000

> <Gold.Chemscore.Lipo.Weighted>
-7.4263

> <Gold.Chemscore.Internal_Hbond.Weighted>
0.0000

> <Gold.Chemscore.DEClash.Weighted>
0.7972

> <Gold.Chemscore.DEInternal.Weighted>
4.3920

> <Gold.Chemscore.Rot.Weighted>
8.4709

> <Gold.Chemscore.Internal.Correction.Weighted>
   9.000000E+99

> <Gold.Protein.RotatedTorsions>
[ 6907 6896 6895 6894 ] final -125.10 input  -60.11 | X-H torsion
[ 7974 7965 7964 7962 ] final  118.02 input  175.53 | X-H torsion
[ 8008 7997 7996 7995 ] final   -0.81 input   59.86 | X-H torsion
[ 10167 10162 10161 10158 ] final  -82.31 input  -65.29 | X-H torsion
[ 10718 10713 10712 10709 ] final  152.20 input   66.30 | X-H torsion
[ 10763 10752 10751 10750 ] final  129.23 input  -60.55 | X-H torsion
[ 11005 11000 10999 10996 ] final -124.58 input  -57.11 | X-H torsion

> <Gold.Protein.ActiveResidues>
 VAL166  LYS551  ARG553  GLY616  TRP617  ASP618  TYR619  PRO620  LYS621  CYS622 
 ASP623  PHE694  ASN695  SER759  ASP760  ASP761  ALA762  ILE779  LEU786  VAL792 
 PHE793  MET794  SER795  GLU796  ALA797  LYS798  CYS799  TRP800  GLU811  SER814 

> <Gold.Protein.RotatedAtoms>
  150.8833  133.7342  159.2925 H   0  0  0  0  0  0  0  0  0  0  0  0  # atno 6907 bound_to 6896
  151.4916  135.1056  159.9814 H   0  0  0  0  0  0  0  0  0  0  0  0  # atno 6908 bound_to 6896
  152.4774  133.8125  159.7066 H   0  0  0  0  0  0  0  0  0  0  0  0  # atno 6909 bound_to 6896
  145.1603  139.3159  143.4521 H   0  0  0  0  0  0  0  0  0  0  0  0  # atno 7974 bound_to 7965
  154.6538  140.2575  155.7184 H   0  0  0  0  0  0  0  0  0  0  0  0  # atno 8008 bound_to 7997
  156.2587  140.2862  156.0904 H   0  0  0  0  0  0  0  0  0  0  0  0  # atno 8009 bound_to 7997
  155.1411  140.0380  157.2789 H   0  0  0  0  0  0  0  0  0  0  0  0  # atno 8010 bound_to 7997
  140.4331  143.2541  151.8731 H   0  0  0  0  0  0  0  0  0  0  0  0  # atno 10167 bound_to 10162
  157.2608  131.0798  151.1667 H   0  0  0  0  0  0  0  0  0  0  0  0  # atno 10718 bound_to 10713
  153.7384  135.3228  155.3299 H   0  0  0  0  0  0  0  0  0  0  0  0  # atno 10763 bound_to 10752
  154.8303  135.4539  154.1051 H   0  0  0  0  0  0  0  0  0  0  0  0  # atno 10764 bound_to 10752
  153.2219  135.6949  153.8072 H   0  0  0  0  0  0  0  0  0  0  0  0  # atno 10765 bound_to 10752
  140.9830  134.0646  157.3743 H   0  0  0  0  0  0  0  0  0  0  0  0  # atno 11005 bound_to 11000
  146.3483  140.1710  142.8589 LP  0  0  0  0  0  0  0  0  0  0  0  0  # atno 17320 bound_to 7965
  145.0338  140.8892  143.5093 LP  0  0  0  0  0  0  0  0  0  0  0  0  # atno 17321 bound_to 7965
  139.4786  144.5312  151.8664 LP  0  0  0  0  0  0  0  0  0  0  0  0  # atno 17342 bound_to 10162
  140.4404  144.1994  150.5891 LP  0  0  0  0  0  0  0  0  0  0  0  0  # atno 17343 bound_to 10162
  157.3177  130.6921  149.6251 LP  0  0  0  0  0  0  0  0  0  0  0  0  # atno 17370 bound_to 10713
  155.9664  130.4344  150.5050 LP  0  0  0  0  0  0  0  0  0  0  0  0  # atno 17371 bound_to 10713
  139.8958  135.0143  156.7021 LP  0  0  0  0  0  0  0  0  0  0  0  0  # atno 17394 bound_to 11000
  140.7157  133.9184  155.8114 LP  0  0  0  0  0  0  0  0  0  0  0  0  # atno 17395 bound_to 11000

$$$$
