AV-unprocessed.smi:54|AV-procd|sdf|543|dock10
  -GOLD-   2262016433D 1   1.00000     0.00000
 Structure written by MMmdl.
 44 46  0  0  0  0  0  0  0  0  1 V2000
  152.2652  144.8365  158.5872 C   0  0  0  0  0  0  0  0  0  0  0  0
  151.7016  143.8602  159.6321 C   0  0  0  0  0  0  0  0  0  0  0  0
  152.1823  144.2191  161.0477 C   0  0  0  0  0  0  0  0  0  0  0  0
  152.0813  142.4171  159.2813 C   0  0  0  0  0  0  0  0  0  0  0  0
  152.7956  141.7333  160.0157 O   0  0  0  0  0  0  0  0  0  0  0  0
  151.5356  141.9169  158.0316 N   0  0  0  0  0  0  0  0  0  0  0  0
  151.7061  140.6875  157.4918 C   0  0  0  0  0  0  0  0  0  0  0  0
  151.1217  140.3006  156.3671 N   0  0  0  0  0  0  0  0  0  0  0  0
  151.4259  139.0260  155.9757 C   0  0  0  0  0  0  0  0  0  0  0  0
  152.2486  138.1385  156.6363 C   0  0  0  0  0  0  0  0  0  0  0  0
  152.3120  136.9370  155.9414 N   0  0  0  0  0  0  0  0  0  0  0  0
  151.5462  137.1310  154.9039 C   0  0  0  0  0  0  0  0  0  0  0  0
  150.9783  138.3839  154.8403 N   0  0  0  0  0  0  0  0  0  0  0  0
  150.0440  138.9697  153.8190 C   0  0  2  0  0  0  0  0  0  0  0  0
  149.9024  140.3323  154.0772 O   0  0  0  0  0  0  0  0  0  0  0  0
  148.7400  140.5988  154.8727 C   0  0  1  0  0  0  0  0  0  0  0  0
  147.9127  141.6684  154.1395 C   0  0  0  0  0  0  0  0  0  0  0  0
  148.5994  142.9017  154.1459 O   0  0  0  0  0  0  0  0  0  0  0  0
  147.9905  139.2560  154.9989 C   0  0  2  0  0  0  0  0  0  0  0  0
  148.1769  138.7263  156.2997 O   0  0  0  0  0  0  0  0  0  0  0  0
  148.6288  138.3900  153.9201 C   0  0  2  0  0  0  0  0  0  0  0  0
  148.5495  136.9994  154.1795 O   0  0  0  0  0  0  0  0  0  0  0  0
  152.8793  138.5372  157.8613 C   0  0  0  0  0  0  0  0  0  0  0  0
  153.6333  137.8831  158.5786 O   0  0  0  0  0  0  0  0  0  0  0  0
  152.5493  139.8502  158.2223 N   0  0  0  0  0  0  0  0  0  0  0  0
  150.5352  138.7900  152.8619 H   0  0  0  0  0  0  0  0  0  0  0  0
  149.0299  140.9711  155.8566 H   0  0  0  0  0  0  0  0  0  0  0  0
  146.9167  139.3543  154.8360 H   0  0  0  0  0  0  0  0  0  0  0  0
  148.1362  138.5917  152.9681 H   0  0  0  0  0  0  0  0  0  0  0  0
  151.9249  144.5824  157.5825 H   0  0  0  0  0  0  0  0  0  0  0  0
  153.3561  144.8321  158.5806 H   0  0  0  0  0  0  0  0  0  0  0  0
  151.9410  145.8571  158.7928 H   0  0  0  0  0  0  0  0  0  0  0  0
  150.6134  143.9397  159.6162 H   0  0  0  0  0  0  0  0  0  0  0  0
  151.7953  143.5181  161.7881 H   0  0  0  0  0  0  0  0  0  0  0  0
  151.8433  145.2153  161.3330 H   0  0  0  0  0  0  0  0  0  0  0  0
  153.2710  144.2091  161.1171 H   0  0  0  0  0  0  0  0  0  0  0  0
  150.9506  142.5592  157.5178 H   0  0  0  0  0  0  0  0  0  0  0  0
  151.3830  136.3625  154.1637 H   0  0  0  0  0  0  0  0  0  0  0  0
  147.6842  141.3649  153.1174 H   0  0  0  0  0  0  0  0  0  0  0  0
  146.9627  141.8281  154.6500 H   0  0  0  0  0  0  0  0  0  0  0  0
  148.9422  143.0508  155.0139 H   0  0  0  0  0  0  0  0  0  0  0  0
  148.9530  138.1865  156.2913 H   0  0  0  0  0  0  0  0  0  0  0  0
  148.8576  136.5351  153.4159 H   0  0  0  0  0  0  0  0  0  0  0  0
  152.9626  140.1999  159.0744 H   0  0  0  0  0  0  0  0  0  0  0  0
  1  2  1  0  0  0  0
  1 30  1  0  0  0  0
  1 31  1  0  0  0  0
  1 32  1  0  0  0  0
  2  3  1  0  0  0  0
  2  4  1  0  0  0  0
  2 33  1  0  0  0  0
  3 34  1  0  0  0  0
  3 35  1  0  0  0  0
  3 36  1  0  0  0  0
  4  5  2  0  0  0  0
  4  6  1  0  0  0  0
  6 37  1  0  0  0  0
  6  7  1  0  0  0  0
  7 25  1  0  0  0  0
  7  8  2  0  0  0  0
  8  9  1  0  0  0  0
  9 13  1  0  0  0  0
  9 10  2  0  0  0  0
 10 11  1  0  0  0  0
 10 23  1  0  0  0  0
 11 12  2  0  0  0  0
 12 13  1  0  0  0  0
 12 38  1  0  0  0  0
 13 14  1  0  0  0  0
 14 26  1  0  0  0  0
 14 21  1  0  0  0  0
 14 15  1  0  0  0  0
 15 16  1  0  0  0  0
 16 27  1  0  0  0  0
 16 17  1  0  0  0  0
 16 19  1  0  0  0  0
 17 18  1  0  0  0  0
 17 39  1  0  0  0  0
 17 40  1  0  0  0  0
 18 41  1  0  0  0  0
 19 28  1  0  0  0  0
 19 20  1  0  0  0  0
 19 21  1  0  0  0  0
 20 42  1  0  0  0  0
 21 29  1  0  0  0  0
 21 22  1  0  0  0  0
 22 43  1  0  0  0  0
 23 24  2  0  0  0  0
 23 25  1  0  0  0  0
 25 44  1  0  0  0  0
M  END
> <s_m_source_file>
AV-unprocessed.smi

> <i_m_source_file_index>
54

> <i_lp_mmshare_version>
43012

> <i_f3d_flags>
0

> <s_epik_input>
W0NIM11bQ0hdKFtDSDNdKUMoPU8pW05IXWMobjEpW25IXWMoPU8pYyhjMTIpbltjSF1uMltDQEBIXTNPW0NASF0oW0NIMl1bT0hdKVtDQEBIXShbT0hdKVtDQEhdM1tPSF0=

> <s_epik_cmdline>
J2VwaWtfcHl0aG9uJywgJy1waCcsICc3LjAnLCAnLXRuJywgJzgnLCAnLW1hJywgJzIwMCcsICctbWV0YWxfYmluZGluZycsICctaW1hZScsICc8aW5maWxlLm1hZT4nLCAnLW9tYWUnLCAnPG91dGZpbGUubWFlPic=

> <r_lp_tautomer_probability>
0.85571

> <r_epik_Ionization_Penalty>
0.0316551

> <r_epik_Ionization_Penalty_Charging>
0.0316043

> <r_epik_Ionization_Penalty_Neutral>
5.07097e-05

> <r_epik_State_Penalty>
3.15494e-07

> <r_epik_Charging_Adjusted_Penalty>
0.0316047

> <i_epik_Tot_Q>
0

> <i_epik_Tot_abs_Q>
0

> <r_epik_Metal_State_Penalty>
0.421206

> <b_epik_Metal_Only>
0

> <s_epik_Chemistry_Notes>
This compound contains an acetal/aminal-like group ( X-CH(R)-Y where X, Y are N, S, or O) that may be acid/base labile, releasing an aldehyde.

> <s_lp_Force_Field>
OPLS_2005

> <r_lp_Energy>
46.2687

> <b_lp_Chiralities_Consistent>
1

> <s_lp_Variant>
AV-unprocessed.smi:54-15

> <Gold.Version>
5.8.1

> <Gold.Id.Protein>
6NUR|6NUR_protein|mol2

> <Gold.PLP.Fitness>
47.4489

> <Gold.PLP.PLP>
-37.6065

> <Gold.PLP.part.hbond>
-5.1805

> <Gold.PLP.part.metal>
0.0000

> <Gold.PLP.part.buried>
-0.9371

> <Gold.PLP.part.nonpolar>
-32.2028

> <Gold.PLP.part.repulsive>
1.4333

> <Gold.PLP.ligand.clash>
0.0000

> <Gold.PLP.ligand.torsion>
0.3300

> <Gold.PLP.Chemscore.Hbond>
2.8900

> <Gold.PLP.Chemscore.CHOScore>
0.5628

> <Gold.PLP.Chemscore.Metal>
0.0000

> <Gold.Chemscore.Hbonds>
donor molecule, donor type, donor heavy atom, donor atom, acceptor molecule, acceptor atom, score
      L1  H    18    41       P1  8028  0.34
      L1  H    22    43       P1  7948  1.00
      P1  H  7989  7998       L1    15  0.72
      P1  H  8022  8030       L1    18  0.80
      L1  C    12    38       P1  7949  0.57

> <Gold.PLP.Chemscore.Internal.Correction>
0.1439

> <Gold.Rescore>
     Score         DG    S(hbond)    S(metal)    S(lipo)     H(rot)  DE(clash)    DE(int)     intcor
      5.38      -8.97       1.95        0.00      62.76       4.05       0.18       3.41       ----

> <Gold.Chemscore.Fitness>
5.3817

> <Gold.Chemscore.DG>
-8.9662

> <Gold.Chemscore.ZeroCoef>
-5.4800

> <Gold.Chemscore.Hbond>
1.9491

> <Gold.Chemscore.Metal>
0.0000

> <Gold.Chemscore.Lipo>
62.7567

> <Gold.Chemscore.Internal_Hbond>
0.0000

> <Gold.Chemscore.DEClash>
0.1784

> <Gold.Chemscore.DEInternal>
3.4062

> <Gold.Chemscore.Rot>
4.0493

> <Gold.Chemscore.Internal.Correction>
   9.000000E+99

> <Gold.Chemscore.Hbonds>
donor molecule, donor type, donor heavy atom, donor atom, acceptor molecule, acceptor atom, score
      L1  H    18    41       P1  8028  0.32
      L1  H    22    43       P1  7948  0.96
      P1  H  7989  7998       L1    15  0.14
      P1  H  8022  8030       L1    18  0.12

> <Gold.Chemscore.Hbond.Weighted>
-6.5099

> <Gold.Chemscore.Metal.Weighted>
-0.0000

> <Gold.Chemscore.Lipo.Weighted>
-7.3425

> <Gold.Chemscore.Internal_Hbond.Weighted>
0.0000

> <Gold.Chemscore.DEClash.Weighted>
0.1784

> <Gold.Chemscore.DEInternal.Weighted>
3.4062

> <Gold.Chemscore.Rot.Weighted>
10.3662

> <Gold.Chemscore.Internal.Correction.Weighted>
   9.000000E+99

> <Gold.Protein.RotatedTorsions>
[ 6907 6896 6895 6894 ] final   58.57 input  -60.11 | X-H torsion
[ 7974 7965 7964 7962 ] final  127.01 input  175.53 | X-H torsion
[ 8008 7997 7996 7995 ] final   39.95 input   59.86 | X-H torsion
[ 10167 10162 10161 10158 ] final  -92.21 input  -65.29 | X-H torsion
[ 10718 10713 10712 10709 ] final  133.72 input   66.30 | X-H torsion
[ 10763 10752 10751 10750 ] final   40.79 input  -60.55 | X-H torsion
[ 11005 11000 10999 10996 ] final  165.23 input  -57.11 | X-H torsion

> <Gold.Protein.ActiveResidues>
 VAL166  LYS551  ARG553  GLY616  TRP617  ASP618  TYR619  PRO620  LYS621  CYS622 
 ASP623  PHE694  ASN695  SER759  ASP760  ASP761  ALA762  ILE779  LEU786  VAL792 
 PHE793  MET794  SER795  GLU796  ALA797  LYS798  CYS799  TRP800  GLU811  SER814 

> <Gold.Protein.RotatedAtoms>
  152.3836  134.6552  160.0133 H   0  0  0  0  0  0  0  0  0  0  0  0  # atno 6907 bound_to 6896
  151.6808  133.3306  159.3227 H   0  0  0  0  0  0  0  0  0  0  0  0  # atno 6908 bound_to 6896
  150.7767  134.6718  159.6440 H   0  0  0  0  0  0  0  0  0  0  0  0  # atno 6909 bound_to 6896
  145.0553  139.3849  143.5033 H   0  0  0  0  0  0  0  0  0  0  0  0  # atno 7974 bound_to 7965
  155.2450  140.3348  155.4288 H   0  0  0  0  0  0  0  0  0  0  0  0  # atno 8008 bound_to 7997
  156.2240  140.1821  156.7453 H   0  0  0  0  0  0  0  0  0  0  0  0  # atno 8009 bound_to 7997
  154.5869  140.0644  156.9169 H   0  0  0  0  0  0  0  0  0  0  0  0  # atno 8010 bound_to 7997
  140.3371  143.2962  151.9877 H   0  0  0  0  0  0  0  0  0  0  0  0  # atno 10167 bound_to 10162
  157.4744  131.1082  150.9761 H   0  0  0  0  0  0  0  0  0  0  0  0  # atno 10718 bound_to 10713
  152.9926  135.6181  154.2683 H   0  0  0  0  0  0  0  0  0  0  0  0  # atno 10763 bound_to 10752
  154.2417  135.2788  155.2853 H   0  0  0  0  0  0  0  0  0  0  0  0  # atno 10764 bound_to 10752
  154.5363  135.5773  153.6859 H   0  0  0  0  0  0  0  0  0  0  0  0  # atno 10765 bound_to 10752
  140.2540  134.7955  157.3528 H   0  0  0  0  0  0  0  0  0  0  0  0  # atno 11005 bound_to 11000
  146.3521  140.0223  142.8657 LP  0  0  0  0  0  0  0  0  0  0  0  0  # atno 17320 bound_to 7965
  145.1476  140.9606  143.4451 LP  0  0  0  0  0  0  0  0  0  0  0  0  # atno 17321 bound_to 7965
  139.4846  144.6187  151.7296 LP  0  0  0  0  0  0  0  0  0  0  0  0  # atno 17342 bound_to 10162
  140.5343  144.0680  150.6065 LP  0  0  0  0  0  0  0  0  0  0  0  0  # atno 17343 bound_to 10162
  157.0515  130.5789  149.5371 LP  0  0  0  0  0  0  0  0  0  0  0  0  # atno 17370 bound_to 10713
  156.0089  130.5179  150.7924 LP  0  0  0  0  0  0  0  0  0  0  0  0  # atno 17371 bound_to 10713
  140.1530  134.4825  155.7948 LP  0  0  0  0  0  0  0  0  0  0  0  0  # atno 17394 bound_to 11000
  141.2198  133.6870  156.7411 LP  0  0  0  0  0  0  0  0  0  0  0  0  # atno 17395 bound_to 11000

$$$$
