AV-unprocessed.smi:2563|AV-procd|sdf|10058|dock2
  -GOLD-   2272014 93D 1   1.00000     0.00000
 Structure written by MMmdl.
 36 37  0  0  0  0  0  0  0  0  3 V2000
  150.7874  139.3644  154.4720 C   0  0  0  0  0  0  0  0  0  0  0  0
  151.1934  139.9793  155.8179 C   0  0  0  0  0  0  0  0  0  0  0  0
  150.5976  141.2971  156.0267 N   0  0  0  0  0  0  0  0  0  0  0  0
  149.5001  141.7203  155.1549 C   0  0  0  0  0  0  0  0  0  0  0  0
  148.2707  140.7992  155.2625 C   0  0  2  0  0  0  0  0  0  0  0  0
  147.1861  141.1774  154.2337 C   0  0  0  0  0  0  0  0  0  0  0  0
  145.9897  140.3314  154.4152 N   0  3  0  0  0  0  0  0  0  0  0  0
  145.4837  140.3945  155.7999 C   0  0  0  0  0  0  0  0  0  0  0  0
  146.6114  140.0576  156.7892 C   0  0  0  0  0  0  0  0  0  0  0  0
  147.7127  140.9330  156.5679 O   0  0  0  0  0  0  0  0  0  0  0  0
  151.0907  142.1575  157.0371 C   0  0  0  0  0  0  0  0  0  0  0  0
  152.0303  141.7467  158.0148 C   0  0  0  0  0  0  0  0  0  0  0  0
  152.4558  142.6749  158.9801 C   0  0  0  0  0  0  0  0  0  0  0  0
  151.9190  143.9712  158.9181 C   0  0  0  0  0  0  0  0  0  0  0  0
  151.0244  144.3544  157.9822 N   0  0  0  0  0  0  0  0  0  0  0  0
  150.6405  143.4422  157.0734 N   0  3  0  0  0  0  0  0  0  0  0  0
  151.2283  138.3747  154.3525 H   0  0  0  0  0  0  0  0  0  0  0  0
  151.1204  139.9776  153.6344 H   0  0  0  0  0  0  0  0  0  0  0  0
  149.7051  139.2549  154.3962 H   0  0  0  0  0  0  0  0  0  0  0  0
  150.8623  139.3172  156.6184 H   0  0  0  0  0  0  0  0  0  0  0  0
  152.2782  140.0242  155.9130 H   0  0  0  0  0  0  0  0  0  0  0  0
  149.2223  142.7600  155.3289 H   0  0  0  0  0  0  0  0  0  0  0  0
  149.8716  141.6914  154.1301 H   0  0  0  0  0  0  0  0  0  0  0  0
  148.5765  139.7642  155.0990 H   0  0  0  0  0  0  0  0  0  0  0  0
  146.9027  142.2250  154.3457 H   0  0  0  0  0  0  0  0  0  0  0  0
  147.5586  141.0519  153.2167 H   0  0  0  0  0  0  0  0  0  0  0  0
  145.2638  140.6321  153.7798 H   0  0  0  0  0  0  0  0  0  0  0  0
  145.0976  141.3958  155.9950 H   0  0  0  0  0  0  0  0  0  0  0  0
  144.6513  139.6998  155.9136 H   0  0  0  0  0  0  0  0  0  0  0  0
  146.2615  140.1807  157.8143 H   0  0  0  0  0  0  0  0  0  0  0  0
  146.9296  139.0192  156.6833 H   0  0  0  0  0  0  0  0  0  0  0  0
  152.4360  140.7470  158.0395 H   0  0  0  0  0  0  0  0  0  0  0  0
  153.1716  142.4028  159.7418 H   0  0  0  0  0  0  0  0  0  0  0  0
  152.2140  144.7219  159.6368 H   0  0  0  0  0  0  0  0  0  0  0  0
  146.2343  139.3744  154.2038 H   0  0  0  0  0  0  0  0  0  0  0  0
  149.9635  143.7288  156.3663 H   0  0  0  0  0  0  0  0  0  0  0  0
  1  2  1  0  0  0  0
  1 17  1  0  0  0  0
  1 18  1  0  0  0  0
  1 19  1  0  0  0  0
  2  3  1  0  0  0  0
  2 20  1  0  0  0  0
  2 21  1  0  0  0  0
  3  4  1  0  0  0  0
  3 11  1  0  0  0  0
  4  5  1  0  0  0  0
  4 22  1  0  0  0  0
  4 23  1  0  0  0  0
  5 10  1  0  0  0  0
  5  6  1  0  0  0  0
  5 24  1  0  0  0  0
  6  7  1  0  0  0  0
  6 25  1  0  0  0  0
  6 26  1  0  0  0  0
  7  8  1  0  0  0  0
  7 27  1  0  0  0  0
  7 35  1  0  0  0  0
  8  9  1  0  0  0  0
  8 28  1  0  0  0  0
  8 29  1  0  0  0  0
  9 10  1  0  0  0  0
  9 30  1  0  0  0  0
  9 31  1  0  0  0  0
 11 16  1  0  0  0  0
 11 12  2  0  0  0  0
 12 13  1  0  0  0  0
 12 32  1  0  0  0  0
 13 14  2  0  0  0  0
 13 33  1  0  0  0  0
 14 15  1  0  0  0  0
 14 34  1  0  0  0  0
 15 16  2  0  0  0  0
 16 36  1  0  0  0  0
M  CHG  1   7   1
M  CHG  1  16   1
M  END
> <s_m_source_file>
AV-unprocessed.smi

> <i_m_source_file_index>
2563

> <i_lp_mmshare_version>
43012

> <i_f3d_flags>
0

> <s_epik_input>
bjFuW2NIXVtjSF1bY0hdYzFOKFtDSDJdW0NIM10pW0NIMl1bQ0BASF0yW0NIMl1bTkhdW0NIMl1bQ0gyXU8y

> <s_epik_cmdline>
J2VwaWtfcHl0aG9uJywgJy1waCcsICc3LjAnLCAnLXRuJywgJzgnLCAnLW1hJywgJzIwMCcsICctbWV0YWxfYmluZGluZycsICctaW1hZScsICc8aW5maWxlLm1hZT4nLCAnLW9tYWUnLCAnPG91dGZpbGUubWFlPic=

> <r_lp_tautomer_probability>
0.966961

> <r_epik_Ionization_Penalty>
1.93862

> <r_epik_Ionization_Penalty_Charging>
1.93862

> <r_epik_Ionization_Penalty_Neutral>
1.19718e-14

> <r_epik_State_Penalty>
1.51688

> <r_epik_Charging_Adjusted_Penalty>
3.4555

> <i_epik_Tot_Q>
2

> <i_epik_Tot_abs_Q>
2

> <r_epik_Metal_State_Penalty>
1.53359

> <b_epik_Metal_Only>
0

> <s_lp_Force_Field>
OPLS_2005

> <r_lp_Energy>
32.8906

> <b_lp_Chiralities_Consistent>
1

> <s_lp_Variant>
AV-unprocessed.smi:2563-3

> <Gold.Version>
5.8.1

> <Gold.Id.Protein>
6NUR|6NUR_protein|mol2

> <Gold.PLP.Fitness>
40.9556

> <Gold.PLP.PLP>
-29.4523

> <Gold.PLP.part.hbond>
-2.0000

> <Gold.PLP.part.metal>
0.0000

> <Gold.PLP.part.buried>
-3.6652

> <Gold.PLP.part.nonpolar>
-25.1787

> <Gold.PLP.part.repulsive>
0.2498

> <Gold.PLP.ligand.clash>
0.0000

> <Gold.PLP.ligand.torsion>
0.2368

> <Gold.PLP.Chemscore.Hbond>
3.9840

> <Gold.PLP.Chemscore.CHOScore>
0.0000

> <Gold.PLP.Chemscore.Metal>
0.0000

> <Gold.Chemscore.Hbonds>
donor molecule, donor type, donor heavy atom, donor atom, acceptor molecule, acceptor atom, score
      L1  H     7    27       P1 10175  1.92
      L1  H    16    36       P1  8028  2.00

> <Gold.PLP.Chemscore.Internal.Correction>
0.0248

> <Gold.Rescore>
     Score         DG    S(hbond)    S(metal)    S(lipo)     H(rot)  DE(clash)    DE(int)     intcor
     15.38     -15.74       1.88        0.00      65.59       1.44       0.04       0.32       ----

> <Gold.Chemscore.Fitness>
15.3819

> <Gold.Chemscore.DG>
-15.7394

> <Gold.Chemscore.ZeroCoef>
-5.4800

> <Gold.Chemscore.Hbond>
1.8766

> <Gold.Chemscore.Metal>
0.0000

> <Gold.Chemscore.Lipo>
65.5870

> <Gold.Chemscore.Internal_Hbond>
0.0000

> <Gold.Chemscore.DEClash>
0.0359

> <Gold.Chemscore.DEInternal>
0.3216

> <Gold.Chemscore.Rot>
1.4384

> <Gold.Chemscore.Internal.Correction>
   9.000000E+99

> <Gold.Chemscore.Hbonds>
donor molecule, donor type, donor heavy atom, donor atom, acceptor molecule, acceptor atom, score
      L1  H     7    27       P1 10175  0.87
      L1  H    16    36       P1  8028  0.97

> <Gold.Chemscore.Hbond.Weighted>
-6.2680

> <Gold.Chemscore.Metal.Weighted>
-0.0000

> <Gold.Chemscore.Lipo.Weighted>
-7.6737

> <Gold.Chemscore.Internal_Hbond.Weighted>
0.0000

> <Gold.Chemscore.DEClash.Weighted>
0.0359

> <Gold.Chemscore.DEInternal.Weighted>
0.3216

> <Gold.Chemscore.Rot.Weighted>
3.6822

> <Gold.Chemscore.Internal.Correction.Weighted>
   9.000000E+99

> <Gold.Protein.RotatedTorsions>
[ 6907 6896 6895 6894 ] final  128.25 input  -60.11 | X-H torsion
[ 7974 7965 7964 7962 ] final -163.55 input  175.53 | X-H torsion
[ 8008 7997 7996 7995 ] final   13.16 input   59.86 | X-H torsion
[ 10167 10162 10161 10158 ] final  -61.95 input  -65.29 | X-H torsion
[ 10718 10713 10712 10709 ] final -132.78 input   66.30 | X-H torsion
[ 10763 10752 10751 10750 ] final  139.48 input  -60.55 | X-H torsion
[ 11005 11000 10999 10996 ] final  -92.40 input  -57.11 | X-H torsion

> <Gold.Protein.ActiveResidues>
 VAL166  LYS551  ARG553  GLY616  TRP617  ASP618  TYR619  PRO620  LYS621  CYS622 
 ASP623  PHE694  ASN695  SER759  ASP760  ASP761  ALA762  ILE779  LEU786  VAL792 
 PHE793  MET794  SER795  GLU796  ALA797  LYS798  CYS799  TRP800  GLU811  SER814 

> <Gold.Protein.RotatedAtoms>
  152.3737  133.6452  159.6106 H   0  0  0  0  0  0  0  0  0  0  0  0  # atno 6907 bound_to 6896
  150.7687  133.9229  159.3412 H   0  0  0  0  0  0  0  0  0  0  0  0  # atno 6908 bound_to 6896
  151.7047  135.0925  160.0308 H   0  0  0  0  0  0  0  0  0  0  0  0  # atno 6909 bound_to 6896
  144.7323  140.3091  143.6191 H   0  0  0  0  0  0  0  0  0  0  0  0  # atno 7974 bound_to 7965
  154.8307  140.2899  155.5724 H   0  0  0  0  0  0  0  0  0  0  0  0  # atno 8008 bound_to 7997
  156.3005  140.2532  156.3162 H   0  0  0  0  0  0  0  0  0  0  0  0  # atno 8009 bound_to 7997
  154.9235  140.0385  157.2000 H   0  0  0  0  0  0  0  0  0  0  0  0  # atno 8010 bound_to 7997
  140.5971  143.2353  151.6011 H   0  0  0  0  0  0  0  0  0  0  0  0  # atno 10167 bound_to 10162
  156.2381  130.7079  151.0929 H   0  0  0  0  0  0  0  0  0  0  0  0  # atno 10718 bound_to 10713
  153.9068  135.3016  155.3448 H   0  0  0  0  0  0  0  0  0  0  0  0  # atno 10763 bound_to 10752
  154.7643  135.4918  153.9527 H   0  0  0  0  0  0  0  0  0  0  0  0  # atno 10764 bound_to 10752
  153.1215  135.6783  153.9429 H   0  0  0  0  0  0  0  0  0  0  0  0  # atno 10765 bound_to 10752
  141.1523  133.7818  157.0014 H   0  0  0  0  0  0  0  0  0  0  0  0  # atno 11005 bound_to 11000
  145.7683  139.1848  143.2227 LP  0  0  0  0  0  0  0  0  0  0  0  0  # atno 17320 bound_to 7965
  146.0931  140.7632  142.9585 LP  0  0  0  0  0  0  0  0  0  0  0  0  # atno 17321 bound_to 7965
  139.5266  144.3042  152.1048 LP  0  0  0  0  0  0  0  0  0  0  0  0  # atno 17342 bound_to 10162
  140.2216  144.4460  150.6339 LP  0  0  0  0  0  0  0  0  0  0  0  0  # atno 17343 bound_to 10162
  157.7163  131.0707  150.6312 LP  0  0  0  0  0  0  0  0  0  0  0  0  # atno 17370 bound_to 10713
  156.6384  130.4451  149.5761 LP  0  0  0  0  0  0  0  0  0  0  0  0  # atno 17371 bound_to 10713
  140.0937  134.9577  157.1816 LP  0  0  0  0  0  0  0  0  0  0  0  0  # atno 17394 bound_to 11000
  140.3411  134.2703  155.7212 LP  0  0  0  0  0  0  0  0  0  0  0  0  # atno 17395 bound_to 11000

$$$$
