AV-unprocessed.smi:989|AV-procd|sdf|4325|dock1
  -GOLD-   22720 2233D 1   1.00000     0.00000
 Structure written by MMmdl.
 26 27  0  0  0  0  0  0  0  0  2 V2000
  147.5533  137.1246  161.5757 O   0  0  0  0  0  0  0  0  0  0  0  0
  146.4425  136.5506  161.5410 C   0  0  0  0  0  0  0  0  0  0  0  0
  145.3613  137.0823  161.2029 O   0  5  0  0  0  0  0  0  0  0  0  0
  146.4008  135.0814  161.9697 C   0  0  0  0  0  0  0  0  0  0  0  0
  144.9891  134.5847  161.8344 C   0  0  0  0  0  0  0  0  0  0  0  0
  143.8987  134.9952  162.5636 C   0  0  0  0  0  0  0  0  0  0  0  0
  142.4414  134.1661  162.0901 S   0  0  0  0  0  0  0  0  0  0  0  0
  143.3886  133.2560  160.9101 C   0  0  0  0  0  0  0  0  0  0  0  0
  142.8667  132.2874  160.0002 N   0  0  0  0  0  0  0  0  0  0  0  0
  142.3732  131.0235  160.5773 C   0  0  0  0  0  0  0  0  0  0  0  0
  142.6223  129.8401  159.6396 C   0  0  0  0  0  0  0  0  0  0  0  0
  142.0871  130.1779  158.2504 C   0  0  0  0  0  0  0  0  0  0  0  0
  142.4825  131.5255  157.8559 N   0  0  0  0  0  0  0  0  0  0  0  0
  142.7491  132.5674  158.6705 C   0  0  0  0  0  0  0  0  0  0  0  0
  142.9208  133.6876  158.1906 O   0  0  0  0  0  0  0  0  0  0  0  0
  144.6837  133.5893  160.8986 N   0  0  0  0  0  0  0  0  0  0  0  0
  147.0864  134.4929  161.3581 H   0  0  0  0  0  0  0  0  0  0  0  0
  146.7462  134.9988  163.0008 H   0  0  0  0  0  0  0  0  0  0  0  0
  143.8666  135.7437  163.3410 H   0  0  0  0  0  0  0  0  0  0  0  0
  142.8523  130.8172  161.5356 H   0  0  0  0  0  0  0  0  0  0  0  0
  141.3053  131.1271  160.7753 H   0  0  0  0  0  0  0  0  0  0  0  0
  143.6939  129.6444  159.5811 H   0  0  0  0  0  0  0  0  0  0  0  0
  142.1563  128.9326  160.0247 H   0  0  0  0  0  0  0  0  0  0  0  0
  142.4469  129.4591  157.5139 H   0  0  0  0  0  0  0  0  0  0  0  0
  140.9978  130.1265  158.2447 H   0  0  0  0  0  0  0  0  0  0  0  0
  142.4529  131.7212  156.8657 H   0  0  0  0  0  0  0  0  0  0  0  0
  1  2  2  0  0  0  0
  2  3  1  0  0  0  0
  2  4  1  0  0  0  0
  4  5  1  0  0  0  0
  4 17  1  0  0  0  0
  4 18  1  0  0  0  0
  5 16  1  0  0  0  0
  5  6  2  0  0  0  0
  6  7  1  0  0  0  0
  6 19  1  0  0  0  0
  7  8  1  0  0  0  0
  8  9  1  0  0  0  0
  8 16  2  0  0  0  0
  9 14  1  0  0  0  0
  9 10  1  0  0  0  0
 10 11  1  0  0  0  0
 10 20  1  0  0  0  0
 10 21  1  0  0  0  0
 11 12  1  0  0  0  0
 11 22  1  0  0  0  0
 11 23  1  0  0  0  0
 12 13  1  0  0  0  0
 12 24  1  0  0  0  0
 12 25  1  0  0  0  0
 13 14  1  0  0  0  0
 13 26  1  0  0  0  0
 14 15  2  0  0  0  0
M  CHG  1   3  -1
M  END
> <s_m_source_file>
AV-unprocessed.smi

> <i_m_source_file_index>
989

> <i_lp_mmshare_version>
43012

> <i_f3d_flags>
0

> <s_epik_input>
Tz1DKFtPSF0pW0NIMl1jMVtjSF1zYyhuMSlOMltDSDJdW0NIMl1bQ0gyXVtOSF1DMj1P

> <s_epik_cmdline>
J2VwaWtfcHl0aG9uJywgJy1waCcsICc3LjAnLCAnLXRuJywgJzgnLCAnLW1hJywgJzIwMCcsICctbWV0YWxfYmluZGluZycsICctaW1hZScsICc8aW5maWxlLm1hZT4nLCAnLW9tYWUnLCAnPG91dGZpbGUubWFlPic=

> <r_lp_tautomer_probability>
1

> <r_epik_Ionization_Penalty>
0.00100312

> <r_epik_Ionization_Penalty_Charging>
0.000722293

> <r_epik_Ionization_Penalty_Neutral>
0.000280832

> <r_epik_State_Penalty>
0.000460635

> <r_epik_Charging_Adjusted_Penalty>
0.00118293

> <i_epik_Tot_Q>
-1

> <i_epik_Tot_abs_Q>
1

> <r_epik_Metal_State_Penalty>
-0

> <b_epik_Metal_Only>
0

> <s_lp_Force_Field>
OPLS_2005

> <r_lp_Energy>
35.7011

> <b_lp_Chiralities_Consistent>
1

> <s_lp_Variant>
AV-unprocessed.smi:989-1

> <Gold.Version>
5.8.1

> <Gold.Id.Protein>
6NUR|6NUR_protein|mol2

> <Gold.PLP.Fitness>
39.0754

> <Gold.PLP.PLP>
-24.8325

> <Gold.PLP.part.hbond>
-4.0000

> <Gold.PLP.part.metal>
0.0000

> <Gold.PLP.part.buried>
-4.2533

> <Gold.PLP.part.nonpolar>
-15.6901

> <Gold.PLP.part.repulsive>
0.0827

> <Gold.PLP.ligand.clash>
0.0000

> <Gold.PLP.ligand.torsion>
1.3553

> <Gold.PLP.Chemscore.Hbond>
5.6480

> <Gold.PLP.Chemscore.CHOScore>
0.0000

> <Gold.PLP.Chemscore.Metal>
0.0000

> <Gold.Chemscore.Hbonds>
donor molecule, donor type, donor heavy atom, donor atom, acceptor molecule, acceptor atom, score
      L1  H    13    26       P1 10957  1.00
      P1  H  6931  6943       L1     1  1.98
      P1  H  6934  6947       L1     1  1.62
      P1  H 11000 11005       L1    15  0.99

> <Gold.PLP.Chemscore.Internal.Correction>
0.0095

> <Gold.Rescore>
     Score         DG    S(hbond)    S(metal)    S(lipo)     H(rot)  DE(clash)    DE(int)     intcor
     15.55     -17.45       3.42        0.00      38.36       1.54       0.00       1.91       ----

> <Gold.Chemscore.Fitness>
15.5456

> <Gold.Chemscore.DG>
-17.4536

> <Gold.Chemscore.ZeroCoef>
-5.4800

> <Gold.Chemscore.Hbond>
3.4204

> <Gold.Chemscore.Metal>
0.0000

> <Gold.Chemscore.Lipo>
38.3597

> <Gold.Chemscore.Internal_Hbond>
0.0000

> <Gold.Chemscore.DEClash>
0.0000

> <Gold.Chemscore.DEInternal>
1.9079

> <Gold.Chemscore.Rot>
1.5386

> <Gold.Chemscore.Internal.Correction>
   9.000000E+99

> <Gold.Chemscore.Hbonds>
donor molecule, donor type, donor heavy atom, donor atom, acceptor molecule, acceptor atom, score
      L1  H    13    26       P1 10957  0.71
      P1  H  6931  6943       L1     1  0.94
      P1  H  6934  6947       L1     1  0.38
      P1  H 11000 11005       L1    15  0.24

> <Gold.Chemscore.Hbond.Weighted>
-11.4243

> <Gold.Chemscore.Metal.Weighted>
-0.0000

> <Gold.Chemscore.Lipo.Weighted>
-4.4881

> <Gold.Chemscore.Internal_Hbond.Weighted>
0.0000

> <Gold.Chemscore.DEClash.Weighted>
0.0000

> <Gold.Chemscore.DEInternal.Weighted>
1.9079

> <Gold.Chemscore.Rot.Weighted>
3.9388

> <Gold.Chemscore.Internal.Correction.Weighted>
   9.000000E+99

> <Gold.Protein.RotatedTorsions>
[ 6907 6896 6895 6894 ] final -132.95 input  -60.11 | X-H torsion
[ 7974 7965 7964 7962 ] final  140.10 input  175.53 | X-H torsion
[ 8008 7997 7996 7995 ] final  -58.66 input   59.86 | X-H torsion
[ 10167 10162 10161 10158 ] final -162.09 input  -65.29 | X-H torsion
[ 10718 10713 10712 10709 ] final -158.54 input   66.30 | X-H torsion
[ 10763 10752 10751 10750 ] final   69.09 input  -60.55 | X-H torsion
[ 11005 11000 10999 10996 ] final -116.32 input  -57.11 | X-H torsion

> <Gold.Protein.ActiveResidues>
 VAL166  LYS551  ARG553  GLY616  TRP617  ASP618  TYR619  PRO620  LYS621  CYS622 
 ASP623  PHE694  ASN695  SER759  ASP760  ASP761  ALA762  ILE779  LEU786  VAL792 
 PHE793  MET794  SER795  GLU796  ALA797  LYS798  CYS799  TRP800  GLU811  SER814 

> <Gold.Protein.RotatedAtoms>
  150.9683  133.6371  159.2742 H   0  0  0  0  0  0  0  0  0  0  0  0  # atno 6907 bound_to 6896
  151.3669  135.0914  159.9462 H   0  0  0  0  0  0  0  0  0  0  0  0  # atno 6908 bound_to 6896
  152.5173  133.9246  159.7605 H   0  0  0  0  0  0  0  0  0  0  0  0  # atno 6909 bound_to 6896
  144.9217  139.5159  143.5660 H   0  0  0  0  0  0  0  0  0  0  0  0  # atno 7974 bound_to 7965
  154.4318  140.1079  156.5992 H   0  0  0  0  0  0  0  0  0  0  0  0  # atno 8008 bound_to 7997
  155.5929  140.3492  155.4553 H   0  0  0  0  0  0  0  0  0  0  0  0  # atno 8009 bound_to 7997
  156.0233  140.1244  157.0324 H   0  0  0  0  0  0  0  0  0  0  0  0  # atno 8010 bound_to 7997
  139.6418  144.0246  152.2097 H   0  0  0  0  0  0  0  0  0  0  0  0  # atno 10167 bound_to 10162
  156.5556  130.8624  151.2794 H   0  0  0  0  0  0  0  0  0  0  0  0  # atno 10718 bound_to 10713
  153.0269  135.5223  154.7234 H   0  0  0  0  0  0  0  0  0  0  0  0  # atno 10763 bound_to 10752
  154.6283  135.2897  155.0249 H   0  0  0  0  0  0  0  0  0  0  0  0  # atno 10764 bound_to 10752
  154.1210  135.6607  153.4955 H   0  0  0  0  0  0  0  0  0  0  0  0  # atno 10765 bound_to 10752
  141.0429  133.9807  157.2965 H   0  0  0  0  0  0  0  0  0  0  0  0  # atno 11005 bound_to 11000
  146.3208  139.8102  142.8947 LP  0  0  0  0  0  0  0  0  0  0  0  0  # atno 17320 bound_to 7965
  145.3285  141.0261  143.3460 LP  0  0  0  0  0  0  0  0  0  0  0  0  # atno 17321 bound_to 7965
  139.9938  144.6343  150.7791 LP  0  0  0  0  0  0  0  0  0  0  0  0  # atno 17342 bound_to 10162
  140.7494  143.2938  151.3258 LP  0  0  0  0  0  0  0  0  0  0  0  0  # atno 17343 bound_to 10162
  157.7379  130.9803  150.2219 LP  0  0  0  0  0  0  0  0  0  0  0  0  # atno 17370 bound_to 10713
  156.2845  130.3737  149.7902 LP  0  0  0  0  0  0  0  0  0  0  0  0  # atno 17371 bound_to 10713
  139.9290  135.0200  156.8334 LP  0  0  0  0  0  0  0  0  0  0  0  0  # atno 17394 bound_to 11000
  140.6200  134.0003  155.7614 LP  0  0  0  0  0  0  0  0  0  0  0  0  # atno 17395 bound_to 11000

$$$$
