AV-unprocessed.smi:113|AV-procd|sdf|1098|dock1
  -GOLD-   2262018203D 1   1.00000     0.00000
 Structure written by MMmdl.
 52 55  0  0  0  0  0  0  0  0  1 V2000
  154.5250  140.3123  161.7633 C   0  0  0  0  0  0  0  0  0  0  0  0
  153.7069  140.9795  160.6774 C   0  0  0  0  0  0  0  0  0  0  0  0
  153.3925  140.2934  159.4908 C   0  0  0  0  0  0  0  0  0  0  0  0
  152.6267  140.9512  158.5011 C   0  0  0  0  0  0  0  0  0  0  0  0
  152.2496  140.2469  157.1931 C   0  0  0  0  0  0  0  0  0  0  0  0
  150.8517  139.8760  157.0229 N   0  0  0  0  0  0  0  0  0  0  0  0
  150.3049  138.9339  157.9276 C   0  0  0  0  0  0  0  0  0  0  0  0
  150.9829  138.4382  158.8302 O   0  0  0  0  0  0  0  0  0  0  0  0
  148.9003  138.5898  157.6945 C   0  0  0  0  0  0  0  0  0  0  0  0
  148.2450  137.5837  158.6276 C   0  0  0  0  0  0  0  0  0  0  0  0
  148.2281  139.1625  156.6671 C   0  0  0  0  0  0  0  0  0  0  0  0
  148.7906  140.0766  155.7900 N   0  0  0  0  0  0  0  0  0  0  0  0
  148.0022  140.6812  154.6441 C   0  0  1  0  0  0  0  0  0  0  0  0
  146.6376  140.0042  154.5140 C   0  0  0  0  0  0  0  0  0  0  0  0
  145.7775  140.8816  155.3993 C   0  0  2  0  0  0  0  0  0  0  0  0
  144.4088  140.7757  155.0620 O   0  0  0  0  0  0  0  0  0  0  0  0
  146.3918  142.2789  155.1963 C   0  0  2  0  0  0  0  0  0  0  0  0
  145.8126  143.1048  154.0297 C   0  0  0  0  0  0  0  0  0  0  0  0
  144.4407  143.3697  154.2363 O   0  0  0  0  0  0  0  0  0  0  0  0
  147.7687  142.0373  154.8924 O   0  0  0  0  0  0  0  0  0  0  0  0
  150.1432  140.4467  155.9420 C   0  0  0  0  0  0  0  0  0  0  0  0
  150.6797  141.2239  155.1484 O   0  0  0  0  0  0  0  0  0  0  0  0
  152.2159  142.2876  158.7564 C   0  0  0  0  0  0  0  0  0  0  0  0
  151.4504  143.0185  157.8155 C   0  0  0  0  0  0  0  0  0  0  0  0
  151.0526  144.3397  158.0877 C   0  0  0  0  0  0  0  0  0  0  0  0
  151.4159  144.9445  159.3022 C   0  0  0  0  0  0  0  0  0  0  0  0
  152.1771  144.2259  160.2416 C   0  0  0  0  0  0  0  0  0  0  0  0
  152.5872  142.8990  159.9904 C   0  0  0  0  0  0  0  0  0  0  0  0
  153.3175  142.2463  160.9212 N   0  0  0  0  0  0  0  0  0  0  0  0
  154.4645  139.2264  161.6858 H   0  0  0  0  0  0  0  0  0  0  0  0
  154.1669  140.5995  162.7526 H   0  0  0  0  0  0  0  0  0  0  0  0
  155.5719  140.6042  161.6778 H   0  0  0  0  0  0  0  0  0  0  0  0
  153.7386  139.2793  159.3578 H   0  0  0  0  0  0  0  0  0  0  0  0
  152.5214  140.8686  156.3387 H   0  0  0  0  0  0  0  0  0  0  0  0
  152.8473  139.3426  157.0688 H   0  0  0  0  0  0  0  0  0  0  0  0
  147.2004  137.4081  158.3688 H   0  0  0  0  0  0  0  0  0  0  0  0
  148.2770  137.9416  159.6574 H   0  0  0  0  0  0  0  0  0  0  0  0
  148.7652  136.6262  158.5806 H   0  0  0  0  0  0  0  0  0  0  0  0
  147.1971  138.8742  156.5310 H   0  0  0  0  0  0  0  0  0  0  0  0
  148.6330  140.5804  153.7596 H   0  0  0  0  0  0  0  0  0  0  0  0
  146.3217  140.0678  153.4717 H   0  0  0  0  0  0  0  0  0  0  0  0
  146.6612  138.9552  154.8121 H   0  0  0  0  0  0  0  0  0  0  0  0
  145.9047  140.5779  156.4392 H   0  0  0  0  0  0  0  0  0  0  0  0
  144.3329  140.7479  154.1201 H   0  0  0  0  0  0  0  0  0  0  0  0
  146.3356  142.8624  156.1164 H   0  0  0  0  0  0  0  0  0  0  0  0
  146.3219  144.0670  153.9697 H   0  0  0  0  0  0  0  0  0  0  0  0
  145.9607  142.6056  153.0716 H   0  0  0  0  0  0  0  0  0  0  0  0
  143.9783  143.2037  153.4288 H   0  0  0  0  0  0  0  0  0  0  0  0
  151.1553  142.5842  156.8728 H   0  0  0  0  0  0  0  0  0  0  0  0
  150.4686  144.8888  157.3638 H   0  0  0  0  0  0  0  0  0  0  0  0
  151.1116  145.9589  159.5142 H   0  0  0  0  0  0  0  0  0  0  0  0
  152.4507  144.7025  161.1718 H   0  0  0  0  0  0  0  0  0  0  0  0
  1  2  1  0  0  0  0
  1 30  1  0  0  0  0
  1 31  1  0  0  0  0
  1 32  1  0  0  0  0
  2 29  1  0  0  0  0
  2  3  2  0  0  0  0
  3  4  1  0  0  0  0
  3 33  1  0  0  0  0
  4  5  1  0  0  0  0
  4 23  2  0  0  0  0
  5  6  1  0  0  0  0
  5 34  1  0  0  0  0
  5 35  1  0  0  0  0
  6 21  1  0  0  0  0
  6  7  1  0  0  0  0
  7  8  2  0  0  0  0
  7  9  1  0  0  0  0
  9 10  1  0  0  0  0
  9 11  2  0  0  0  0
 10 36  1  0  0  0  0
 10 37  1  0  0  0  0
 10 38  1  0  0  0  0
 11 12  1  0  0  0  0
 11 39  1  0  0  0  0
 12 13  1  0  0  0  0
 12 21  1  0  0  0  0
 13 20  1  0  0  0  0
 13 14  1  0  0  0  0
 13 40  1  0  0  0  0
 14 15  1  0  0  0  0
 14 41  1  0  0  0  0
 14 42  1  0  0  0  0
 15 16  1  0  0  0  0
 15 17  1  0  0  0  0
 15 43  1  0  0  0  0
 16 44  1  0  0  0  0
 17 18  1  0  0  0  0
 17 20  1  0  0  0  0
 17 45  1  0  0  0  0
 18 19  1  0  0  0  0
 18 46  1  0  0  0  0
 18 47  1  0  0  0  0
 19 48  1  0  0  0  0
 21 22  2  0  0  0  0
 23 28  1  0  0  0  0
 23 24  1  0  0  0  0
 24 25  2  0  0  0  0
 24 49  1  0  0  0  0
 25 26  1  0  0  0  0
 25 50  1  0  0  0  0
 26 27  2  0  0  0  0
 26 51  1  0  0  0  0
 27 28  1  0  0  0  0
 27 52  1  0  0  0  0
 28 29  2  0  0  0  0
M  END
> <s_m_source_file>
AV-unprocessed.smi

> <i_m_source_file_index>
113

> <i_lp_mmshare_version>
43012

> <i_f3d_flags>
0

> <s_epik_input>
W2NIXTFbY0hdW2NIXVtjSF1jKGMxMiluYyhbQ0gzXSlbY0hdYzJbQ0gyXW4zYyg9TyljKFtDSDNdKVtjSF1uKGMzPU8pW0NAQEhdNFtDSDJdW0NAQEhdKFtPSF0pW0NASF0oTzQpW0NIMl1bT0hd

> <s_epik_cmdline>
J2VwaWtfcHl0aG9uJywgJy1waCcsICc3LjAnLCAnLXRuJywgJzgnLCAnLW1hJywgJzIwMCcsICctbWV0YWxfYmluZGluZycsICctaW1hZScsICc8aW5maWxlLm1hZT4nLCAnLW9tYWUnLCAnPG91dGZpbGUubWFlPic=

> <r_lp_tautomer_probability>
1

> <r_epik_Ionization_Penalty>
0.214728

> <r_epik_Ionization_Penalty_Charging>
3.04883e-08

> <r_epik_Ionization_Penalty_Neutral>
0.214728

> <r_epik_State_Penalty>
0.204913

> <r_epik_Charging_Adjusted_Penalty>
0.204913

> <i_epik_Tot_Q>
0

> <i_epik_Tot_abs_Q>
0

> <r_epik_Metal_State_Penalty>
0.000244761

> <b_epik_Metal_Only>
0

> <s_epik_Chemistry_Notes>
This compound contains an acetal/aminal-like group ( X-CH(R)-Y where X, Y are N, S, or O) that may be acid/base labile, releasing an aldehyde.

> <s_lp_Force_Field>
OPLS_2005

> <r_lp_Energy>
41.6677

> <b_lp_Chiralities_Consistent>
1

> <s_lp_Variant>
AV-unprocessed.smi:113-8

> <Gold.Version>
5.8.1

> <Gold.Id.Protein>
6NUR|6NUR_protein|mol2

> <Gold.PLP.Fitness>
55.5716

> <Gold.PLP.PLP>
-48.6339

> <Gold.PLP.part.hbond>
-3.1280

> <Gold.PLP.part.metal>
0.0000

> <Gold.PLP.part.buried>
-6.0438

> <Gold.PLP.part.nonpolar>
-40.9417

> <Gold.PLP.part.repulsive>
1.1791

> <Gold.PLP.ligand.clash>
0.0000

> <Gold.PLP.ligand.torsion>
0.2767

> <Gold.PLP.Chemscore.Hbond>
2.4880

> <Gold.PLP.Chemscore.CHOScore>
0.0000

> <Gold.PLP.Chemscore.Metal>
0.0000

> <Gold.Chemscore.Hbonds>
donor molecule, donor type, donor heavy atom, donor atom, acceptor molecule, acceptor atom, score
      L1  H    16    44       P1 10175  1.00
      L1  H    19    48       P1 10174  0.85
      P1  H  7989  7998       L1    22  0.59

> <Gold.PLP.Chemscore.Internal.Correction>
0.0270

> <Gold.Rescore>
     Score         DG    S(hbond)    S(metal)    S(lipo)     H(rot)  DE(clash)    DE(int)     intcor
     17.39     -19.21       2.30        0.00     116.29       2.95       0.08       1.74       ----

> <Gold.Chemscore.Fitness>
17.3873

> <Gold.Chemscore.DG>
-19.2098

> <Gold.Chemscore.ZeroCoef>
-5.4800

> <Gold.Chemscore.Hbond>
2.2959

> <Gold.Chemscore.Metal>
0.0000

> <Gold.Chemscore.Lipo>
116.2867

> <Gold.Chemscore.Internal_Hbond>
0.0000

> <Gold.Chemscore.DEClash>
0.0777

> <Gold.Chemscore.DEInternal>
1.7449

> <Gold.Chemscore.Rot>
2.9469

> <Gold.Chemscore.Internal.Correction>
   9.000000E+99

> <Gold.Chemscore.Hbonds>
donor molecule, donor type, donor heavy atom, donor atom, acceptor molecule, acceptor atom, score
      L1  H    16    44       P1 10175  0.98
      L1  H    19    48       P1 10174  0.14
      P1  H  7989  7998       L1    22  0.60

> <Gold.Chemscore.Hbond.Weighted>
-7.6682

> <Gold.Chemscore.Metal.Weighted>
-0.0000

> <Gold.Chemscore.Lipo.Weighted>
-13.6055

> <Gold.Chemscore.Internal_Hbond.Weighted>
0.0000

> <Gold.Chemscore.DEClash.Weighted>
0.0777

> <Gold.Chemscore.DEInternal.Weighted>
1.7449

> <Gold.Chemscore.Rot.Weighted>
7.5439

> <Gold.Chemscore.Internal.Correction.Weighted>
   9.000000E+99

> <Gold.Protein.RotatedTorsions>
[ 6907 6896 6895 6894 ] final  -89.30 input  -60.11 | X-H torsion
[ 7974 7965 7964 7962 ] final  116.55 input  175.53 | X-H torsion
[ 8008 7997 7996 7995 ] final    2.63 input   59.86 | X-H torsion
[ 10167 10162 10161 10158 ] final   31.21 input  -65.29 | X-H torsion
[ 10718 10713 10712 10709 ] final  174.66 input   66.30 | X-H torsion
[ 10763 10752 10751 10750 ] final   39.78 input  -60.55 | X-H torsion
[ 11005 11000 10999 10996 ] final -153.78 input  -57.11 | X-H torsion

> <Gold.Protein.ActiveResidues>
 VAL166  LYS551  ARG553  GLY616  TRP617  ASP618  TYR619  PRO620  LYS621  CYS622 
 ASP623  PHE694  ASN695  SER759  ASP760  ASP761  ALA762  ILE779  LEU786  VAL792 
 PHE793  MET794  SER795  GLU796  ALA797  LYS798  CYS799  TRP800  GLU811  SER814 

> <Gold.Protein.RotatedAtoms>
  150.6873  134.2608  159.4548 H   0  0  0  0  0  0  0  0  0  0  0  0  # atno 6907 bound_to 6896
  152.0538  134.9634  160.0584 H   0  0  0  0  0  0  0  0  0  0  0  0  # atno 6908 bound_to 6896
  152.1088  133.4255  159.4658 H   0  0  0  0  0  0  0  0  0  0  0  0  # atno 6909 bound_to 6896
  145.1782  139.3064  143.4432 H   0  0  0  0  0  0  0  0  0  0  0  0  # atno 7974 bound_to 7965
  154.6939  140.2659  155.6785 H   0  0  0  0  0  0  0  0  0  0  0  0  # atno 8008 bound_to 7997
  156.2742  140.2785  156.1450 H   0  0  0  0  0  0  0  0  0  0  0  0  # atno 8009 bound_to 7997
  155.0858  140.0373  157.2643 H   0  0  0  0  0  0  0  0  0  0  0  0  # atno 8010 bound_to 7997
  140.4609  144.0907  150.6212 H   0  0  0  0  0  0  0  0  0  0  0  0  # atno 10167 bound_to 10162
  156.9463  131.0017  151.2958 H   0  0  0  0  0  0  0  0  0  0  0  0  # atno 10718 bound_to 10713
  152.9956  135.6210  154.2520 H   0  0  0  0  0  0  0  0  0  0  0  0  # atno 10763 bound_to 10752
  154.2258  135.2794  155.2910 H   0  0  0  0  0  0  0  0  0  0  0  0  # atno 10764 bound_to 10752
  154.5490  135.5739  153.6964 H   0  0  0  0  0  0  0  0  0  0  0  0  # atno 10765 bound_to 10752
  140.7045  134.3901  157.5205 H   0  0  0  0  0  0  0  0  0  0  0  0  # atno 11005 bound_to 11000
  146.3457  140.1952  142.8589 LP  0  0  0  0  0  0  0  0  0  0  0  0  # atno 17320 bound_to 7965
  145.0163  140.8756  143.5193 LP  0  0  0  0  0  0  0  0  0  0  0  0  # atno 17321 bound_to 7965
  140.4094  143.2664  151.9851 LP  0  0  0  0  0  0  0  0  0  0  0  0  # atno 17342 bound_to 10162
  139.4806  144.5928  151.7741 LP  0  0  0  0  0  0  0  0  0  0  0  0  # atno 17343 bound_to 10162
  157.5752  130.8338  149.8445 LP  0  0  0  0  0  0  0  0  0  0  0  0  # atno 17370 bound_to 10713
  156.0382  130.3746  150.1504 LP  0  0  0  0  0  0  0  0  0  0  0  0  # atno 17371 bound_to 10713
  139.8888  134.8847  156.2455 LP  0  0  0  0  0  0  0  0  0  0  0  0  # atno 17394 bound_to 11000
  141.0136  133.7081  156.1152 LP  0  0  0  0  0  0  0  0  0  0  0  0  # atno 17395 bound_to 11000

$$$$
