AV-unprocessed.smi:2952|AV-procd|sdf|11291|dock4
  -GOLD-   2272016183D 1   1.00000     0.00000
 Structure written by MMmdl.
 38 40  0  0  0  0  0  0  0  0  1 V2000
  153.5480  138.6933  157.3508 O   0  0  0  0  0  0  0  0  0  0  0  0
  152.1689  138.7132  157.0492 C   0  0  0  0  0  0  0  0  0  0  0  0
  151.3606  139.4023  158.1613 C   0  0  0  0  0  0  0  0  0  0  0  0
  151.3677  140.8546  158.0401 N   0  0  0  0  0  0  0  0  0  0  0  0
  150.9482  141.6284  157.0050 C   0  0  0  0  0  0  0  0  0  0  0  0
  150.3656  141.0469  155.7443 C   0  0  0  0  0  0  0  0  0  0  0  0
  149.0997  141.6528  155.3315 N   0  0  0  0  0  0  0  0  0  0  0  0
  148.1005  141.6322  156.3977 C   0  0  0  0  0  0  0  0  0  0  0  0
  146.7702  142.2586  155.9462 C   0  0  0  0  0  0  0  0  0  0  0  0
  146.2930  141.5812  154.7878 O   0  0  0  0  0  0  0  0  0  0  0  0
  147.2219  141.6155  153.7089 C   0  0  0  0  0  0  0  0  0  0  0  0
  148.5538  140.9872  154.1549 C   0  0  0  0  0  0  0  0  0  0  0  0
  151.1036  142.9445  157.1711 N   0  0  0  0  0  0  0  0  0  0  0  0
  151.6533  143.0331  158.4338 C   0  0  0  0  0  0  0  0  0  0  0  0
  152.0424  144.1622  159.1892 C   0  0  0  0  0  0  0  0  0  0  0  0
  152.5916  144.0032  160.4784 C   0  0  0  0  0  0  0  0  0  0  0  0
  152.7597  142.7157  161.0290 C   0  0  0  0  0  0  0  0  0  0  0  0
  153.4337  142.5331  162.6064 Cl  0  0  0  0  0  0  0  0  0  0  0  0
  152.3789  141.5781  160.2917 C   0  0  0  0  0  0  0  0  0  0  0  0
  151.8309  141.7427  159.0057 C   0  0  0  0  0  0  0  0  0  0  0  0
  153.9234  137.9053  156.9880 H   0  0  0  0  0  0  0  0  0  0  0  0
  152.0235  139.2258  156.0980 H   0  0  0  0  0  0  0  0  0  0  0  0
  151.8246  137.6875  156.9159 H   0  0  0  0  0  0  0  0  0  0  0  0
  150.3246  139.0654  158.1146 H   0  0  0  0  0  0  0  0  0  0  0  0
  151.7189  139.1078  159.1470 H   0  0  0  0  0  0  0  0  0  0  0  0
  151.1077  141.1829  154.9570 H   0  0  0  0  0  0  0  0  0  0  0  0
  150.2257  139.9725  155.8520 H   0  0  0  0  0  0  0  0  0  0  0  0
  147.9214  140.6041  156.7155 H   0  0  0  0  0  0  0  0  0  0  0  0
  148.4688  142.1689  157.2723 H   0  0  0  0  0  0  0  0  0  0  0  0
  146.0256  142.1797  156.7384 H   0  0  0  0  0  0  0  0  0  0  0  0
  146.8975  143.3203  155.7294 H   0  0  0  0  0  0  0  0  0  0  0  0
  146.8076  141.0668  152.8631 H   0  0  0  0  0  0  0  0  0  0  0  0
  147.3710  142.6456  153.3814 H   0  0  0  0  0  0  0  0  0  0  0  0
  149.2702  141.0401  153.3343 H   0  0  0  0  0  0  0  0  0  0  0  0
  148.3994  139.9280  154.3669 H   0  0  0  0  0  0  0  0  0  0  0  0
  151.9186  145.1523  158.7758 H   0  0  0  0  0  0  0  0  0  0  0  0
  152.8859  144.8740  161.0457 H   0  0  0  0  0  0  0  0  0  0  0  0
  152.5056  140.5902  160.7090 H   0  0  0  0  0  0  0  0  0  0  0  0
  1  2  1  0  0  0  0
  1 21  1  0  0  0  0
  2  3  1  0  0  0  0
  2 22  1  0  0  0  0
  2 23  1  0  0  0  0
  3  4  1  0  0  0  0
  3 24  1  0  0  0  0
  3 25  1  0  0  0  0
  4 20  1  0  0  0  0
  4  5  1  0  0  0  0
  5  6  1  0  0  0  0
  5 13  2  0  0  0  0
  6  7  1  0  0  0  0
  6 26  1  0  0  0  0
  6 27  1  0  0  0  0
  7 12  1  0  0  0  0
  7  8  1  0  0  0  0
  8  9  1  0  0  0  0
  8 28  1  0  0  0  0
  8 29  1  0  0  0  0
  9 10  1  0  0  0  0
  9 30  1  0  0  0  0
  9 31  1  0  0  0  0
 10 11  1  0  0  0  0
 11 12  1  0  0  0  0
 11 32  1  0  0  0  0
 11 33  1  0  0  0  0
 12 34  1  0  0  0  0
 12 35  1  0  0  0  0
 13 14  1  0  0  0  0
 14 20  2  0  0  0  0
 14 15  1  0  0  0  0
 15 16  2  0  0  0  0
 15 36  1  0  0  0  0
 16 17  1  0  0  0  0
 16 37  1  0  0  0  0
 17 18  1  0  0  0  0
 17 19  2  0  0  0  0
 19 20  1  0  0  0  0
 19 38  1  0  0  0  0
M  END
> <s_m_source_file>
AV-unprocessed.smi

> <i_m_source_file_index>
2952

> <i_lp_mmshare_version>
43012

> <i_f3d_flags>
0

> <s_epik_input>
W2NIXTFbY0hdYyhDbClbY0hdYyhjMTIpbihbQ0gyXVtDSDJdW09IXSljKG4yKVtDSDJdTjNbQ0gyXVtDSDJdT1tDSDJdW0NIMl0z

> <s_epik_cmdline>
J2VwaWtfcHl0aG9uJywgJy1waCcsICc3LjAnLCAnLXRuJywgJzgnLCAnLW1hJywgJzIwMCcsICctbWV0YWxfYmluZGluZycsICctaW1hZScsICc8aW5maWxlLm1hZT4nLCAnLW9tYWUnLCAnPG91dGZpbGUubWFlPic=

> <r_epik_Ionization_Penalty>
0.0905371

> <r_epik_Ionization_Penalty_Charging>
0

> <r_epik_Ionization_Penalty_Neutral>
0.0905371

> <r_epik_State_Penalty>
0.0787939

> <r_epik_Charging_Adjusted_Penalty>
0.0787939

> <i_epik_Tot_Q>
0

> <i_epik_Tot_abs_Q>
0

> <r_epik_Metal_State_Penalty>
8.42675e-05

> <b_epik_Metal_Only>
0

> <s_lp_Force_Field>
OPLS_2005

> <r_lp_Energy>
22.7724

> <b_lp_Chiralities_Consistent>
1

> <s_lp_Variant>
AV-unprocessed.smi:2952-1

> <Gold.Version>
5.8.1

> <Gold.Id.Protein>
6NUR|6NUR_protein|mol2

> <Gold.PLP.Fitness>
44.7514

> <Gold.PLP.PLP>
-42.1831

> <Gold.PLP.part.hbond>
-0.8842

> <Gold.PLP.part.metal>
0.0000

> <Gold.PLP.part.buried>
-7.0682

> <Gold.PLP.part.nonpolar>
-35.2398

> <Gold.PLP.part.repulsive>
1.0260

> <Gold.PLP.ligand.clash>
0.0000

> <Gold.PLP.ligand.torsion>
0.2199

> <Gold.PLP.Chemscore.Hbond>
1.0000

> <Gold.PLP.Chemscore.CHOScore>
0.0000

> <Gold.PLP.Chemscore.Metal>
0.0000

> <Gold.Chemscore.Hbonds>
donor molecule, donor type, donor heavy atom, donor atom, acceptor molecule, acceptor atom, score
      P1  H  7997  8009       L1     1  1.00

> <Gold.PLP.Chemscore.Internal.Correction>
0.0080

> <Gold.Rescore>
     Score         DG    S(hbond)    S(metal)    S(lipo)     H(rot)  DE(clash)    DE(int)     intcor
     16.24     -16.56       0.89        0.00     115.71       2.13       0.11       0.21       ----

> <Gold.Chemscore.Fitness>
16.2439

> <Gold.Chemscore.DG>
-16.5615

> <Gold.Chemscore.ZeroCoef>
-5.4800

> <Gold.Chemscore.Hbond>
0.8937

> <Gold.Chemscore.Metal>
0.0000

> <Gold.Chemscore.Lipo>
115.7100

> <Gold.Chemscore.Internal_Hbond>
0.0000

> <Gold.Chemscore.DEClash>
0.1096

> <Gold.Chemscore.DEInternal>
0.2080

> <Gold.Chemscore.Rot>
2.1256

> <Gold.Chemscore.Internal.Correction>
   9.000000E+99

> <Gold.Chemscore.Hbonds>
donor molecule, donor type, donor heavy atom, donor atom, acceptor molecule, acceptor atom, score
      P1  H  7997  8009       L1     1  0.55

> <Gold.Chemscore.Hbond.Weighted>
-2.9850

> <Gold.Chemscore.Metal.Weighted>
-0.0000

> <Gold.Chemscore.Lipo.Weighted>
-13.5381

> <Gold.Chemscore.Internal_Hbond.Weighted>
0.0000

> <Gold.Chemscore.DEClash.Weighted>
0.1096

> <Gold.Chemscore.DEInternal.Weighted>
0.2080

> <Gold.Chemscore.Rot.Weighted>
5.4415

> <Gold.Chemscore.Internal.Correction.Weighted>
   9.000000E+99

> <Gold.Protein.RotatedTorsions>
[ 6907 6896 6895 6894 ] final -131.57 input  -60.11 | X-H torsion
[ 7974 7965 7964 7962 ] final  151.36 input  175.53 | X-H torsion
[ 8008 7997 7996 7995 ] final  174.92 input   59.86 | X-H torsion
[ 10167 10162 10161 10158 ] final  -63.89 input  -65.29 | X-H torsion
[ 10718 10713 10712 10709 ] final   -7.27 input   66.30 | X-H torsion
[ 10763 10752 10751 10750 ] final   66.70 input  -60.55 | X-H torsion
[ 11005 11000 10999 10996 ] final  107.45 input  -57.11 | X-H torsion

> <Gold.Protein.ActiveResidues>
 VAL166  LYS551  ARG553  GLY616  TRP617  ASP618  TYR619  PRO620  LYS621  CYS622 
 ASP623  PHE694  ASN695  SER759  ASP760  ASP761  ALA762  ILE779  LEU786  VAL792 
 PHE793  MET794  SER795  GLU796  ALA797  LYS798  CYS799  TRP800  GLU811  SER814 

> <Gold.Protein.RotatedAtoms>
  150.9525  133.6533  159.2769 H   0  0  0  0  0  0  0  0  0  0  0  0  # atno 6907 bound_to 6896
  151.3884  135.0951  159.9528 H   0  0  0  0  0  0  0  0  0  0  0  0  # atno 6908 bound_to 6896
  152.5116  133.9045  159.7512 H   0  0  0  0  0  0  0  0  0  0  0  0  # atno 6909 bound_to 6896
  144.8298  139.6527  143.6064 H   0  0  0  0  0  0  0  0  0  0  0  0  # atno 7974 bound_to 7965
  156.0925  140.1422  156.9574 H   0  0  0  0  0  0  0  0  0  0  0  0  # atno 8008 bound_to 7997
  154.4650  140.0929  156.7044 H   0  0  0  0  0  0  0  0  0  0  0  0  # atno 8009 bound_to 7997
  155.4896  140.3447  155.4355 H   0  0  0  0  0  0  0  0  0  0  0  0  # atno 8010 bound_to 7997
  140.5839  143.2331  151.6284 H   0  0  0  0  0  0  0  0  0  0  0  0  # atno 10167 bound_to 10162
  156.7197  130.5147  149.5871 H   0  0  0  0  0  0  0  0  0  0  0  0  # atno 10718 bound_to 10713
  153.0152  135.5311  154.6865 H   0  0  0  0  0  0  0  0  0  0  0  0  # atno 10763 bound_to 10752
  154.6011  135.2868  155.0536 H   0  0  0  0  0  0  0  0  0  0  0  0  # atno 10764 bound_to 10752
  154.1593  135.6550  153.5034 H   0  0  0  0  0  0  0  0  0  0  0  0  # atno 10765 bound_to 10752
  139.8828  134.9401  156.5821 H   0  0  0  0  0  0  0  0  0  0  0  0  # atno 11005 bound_to 11000
  146.2601  139.6392  142.9367 LP  0  0  0  0  0  0  0  0  0  0  0  0  # atno 17320 bound_to 7965
  145.4921  141.0438  143.2587 LP  0  0  0  0  0  0  0  0  0  0  0  0  # atno 17321 bound_to 7965
  139.5186  144.3280  152.0852 LP  0  0  0  0  0  0  0  0  0  0  0  0  # atno 17342 bound_to 10162
  140.2434  144.4245  150.6251 LP  0  0  0  0  0  0  0  0  0  0  0  0  # atno 17343 bound_to 10162
  156.1603  130.6369  151.0710 LP  0  0  0  0  0  0  0  0  0  0  0  0  # atno 17370 bound_to 10713
  157.6903  131.0812  150.7127 LP  0  0  0  0  0  0  0  0  0  0  0  0  # atno 17371 bound_to 10713
  140.8019  133.8498  155.8734 LP  0  0  0  0  0  0  0  0  0  0  0  0  # atno 17394 bound_to 11000
  140.9585  134.1687  157.4673 LP  0  0  0  0  0  0  0  0  0  0  0  0  # atno 17395 bound_to 11000

$$$$
