AV-unprocessed.smi:295|AV-procd|sdf|2254|dock4
  -GOLD-   2262022143D 1   1.00000     0.00000
 Structure written by MMmdl.
 35 36  0  0  0  0  0  0  0  0  1 V2000
  151.6753  145.3969  159.6517 C   0  0  0  0  0  0  0  0  0  0  0  0
  151.8240  143.9759  160.2264 C   0  0  2  0  0  0  0  0  0  0  0  0
  152.4879  144.0169  161.6173 C   0  0  0  0  0  0  0  0  0  0  0  0
  152.6355  142.6117  162.2204 C   0  0  0  0  0  0  0  0  0  0  0  0
  153.4210  141.6871  161.2802 C   0  0  0  0  0  0  0  0  0  0  0  0
  152.7650  141.6256  159.8933 C   0  0  0  0  0  0  0  0  0  0  0  0
  152.6046  143.0310  159.2796 C   0  0  1  0  0  0  0  0  0  0  0  0
  151.9165  142.9321  157.9964 N   0  0  0  0  0  0  0  0  0  0  0  0
  150.8798  142.1267  157.7183 C   0  0  0  0  0  0  0  0  0  0  0  0
  150.3189  141.4222  158.5567 O   0  0  0  0  0  0  0  0  0  0  0  0
  150.4155  142.1029  156.2610 C   0  0  0  0  0  0  0  0  0  0  0  0
  150.4153  140.7468  155.7403 N   0  0  0  0  0  0  0  0  0  0  0  0
  149.4424  139.8299  155.7059 C   0  0  0  0  0  0  0  0  0  0  0  0
  149.8142  138.6686  155.1815 N   0  0  0  0  0  0  0  0  0  0  0  0
  151.1145  138.9706  154.8982 C   0  0  0  0  0  0  0  0  0  0  0  0
  152.0081  137.9943  154.2989 C   0  0  0  0  0  0  0  0  0  0  0  0
  152.7195  137.2167  153.8208 N   0  0  0  0  0  0  0  0  0  0  0  0
  151.5330  140.1964  155.2051 N   0  0  0  0  0  0  0  0  0  0  0  0
  152.6487  145.8502  159.4622 H   0  0  0  0  0  0  0  0  0  0  0  0
  151.1364  146.0443  160.3439 H   0  0  0  0  0  0  0  0  0  0  0  0
  151.1197  145.3986  158.7133 H   0  0  0  0  0  0  0  0  0  0  0  0
  150.8186  143.5710  160.3547 H   0  0  0  0  0  0  0  0  0  0  0  0
  153.4707  144.4844  161.5422 H   0  0  0  0  0  0  0  0  0  0  0  0
  151.9016  144.6413  162.2923 H   0  0  0  0  0  0  0  0  0  0  0  0
  153.1370  142.6725  163.1867 H   0  0  0  0  0  0  0  0  0  0  0  0
  151.6480  142.1890  162.4102 H   0  0  0  0  0  0  0  0  0  0  0  0
  154.4465  142.0463  161.1844 H   0  0  0  0  0  0  0  0  0  0  0  0
  153.4818  140.6860  161.7080 H   0  0  0  0  0  0  0  0  0  0  0  0
  153.3632  140.9946  159.2347 H   0  0  0  0  0  0  0  0  0  0  0  0
  151.7891  141.1451  159.9776 H   0  0  0  0  0  0  0  0  0  0  0  0
  153.5986  143.4560  159.1257 H   0  0  0  0  0  0  0  0  0  0  0  0
  152.2990  143.4783  157.2379 H   0  0  0  0  0  0  0  0  0  0  0  0
  149.4068  142.5101  156.1797 H   0  0  0  0  0  0  0  0  0  0  0  0
  151.0690  142.7291  155.6518 H   0  0  0  0  0  0  0  0  0  0  0  0
  148.4465  140.0125  156.0823 H   0  0  0  0  0  0  0  0  0  0  0  0
  1  2  1  0  0  0  0
  1 19  1  0  0  0  0
  1 20  1  0  0  0  0
  1 21  1  0  0  0  0
  2  7  1  0  0  0  0
  2  3  1  0  0  0  0
  2 22  1  0  0  0  0
  3  4  1  0  0  0  0
  3 23  1  0  0  0  0
  3 24  1  0  0  0  0
  4  5  1  0  0  0  0
  4 25  1  0  0  0  0
  4 26  1  0  0  0  0
  5  6  1  0  0  0  0
  5 27  1  0  0  0  0
  5 28  1  0  0  0  0
  6  7  1  0  0  0  0
  6 29  1  0  0  0  0
  6 30  1  0  0  0  0
  7  8  1  0  0  0  0
  7 31  1  0  0  0  0
  8  9  1  0  0  0  0
  8 32  1  0  0  0  0
  9 10  2  0  0  0  0
  9 11  1  0  0  0  0
 11 12  1  0  0  0  0
 11 33  1  0  0  0  0
 11 34  1  0  0  0  0
 12 18  1  0  0  0  0
 12 13  1  0  0  0  0
 13 14  2  0  0  0  0
 13 35  1  0  0  0  0
 14 15  1  0  0  0  0
 15 16  1  0  0  0  0
 15 18  2  0  0  0  0
 16 17  3  0  0  0  0
M  END
> <s_m_source_file>
AV-unprocessed.smi

> <i_m_source_file_index>
295

> <i_lp_mmshare_version>
43012

> <i_f3d_flags>
0

> <s_epik_input>
W0NIM11bQ0BASF0xW0NIMl1bQ0gyXVtDSDJdW0NIMl1bQ0BIXTFbTkhdQyg9TylbQ0gyXW4yW2NIXW5jKG4yKUMjTg==

> <s_epik_cmdline>
J2VwaWtfcHl0aG9uJywgJy1waCcsICc3LjAnLCAnLXRuJywgJzgnLCAnLW1hJywgJzIwMCcsICctbWV0YWxfYmluZGluZycsICctaW1hZScsICc8aW5maWxlLm1hZT4nLCAnLW9tYWUnLCAnPG91dGZpbGUubWFlPic=

> <r_lp_tautomer_probability>
1

> <r_epik_Ionization_Penalty>
5.31112e-08

> <r_epik_Ionization_Penalty_Charging>
0

> <r_epik_Ionization_Penalty_Neutral>
5.31112e-08

> <r_epik_State_Penalty>
-0

> <r_epik_Charging_Adjusted_Penalty>
0

> <i_epik_Tot_Q>
0

> <i_epik_Tot_abs_Q>
0

> <r_epik_Metal_State_Penalty>
-0

> <b_epik_Metal_Only>
0

> <s_lp_Force_Field>
OPLS_2005

> <r_lp_Energy>
13.1712

> <b_lp_Chiralities_Consistent>
1

> <s_lp_Variant>
AV-unprocessed.smi:295-1

> <Gold.Version>
5.8.1

> <Gold.Id.Protein>
6NUR|6NUR_protein|mol2

> <Gold.PLP.Fitness>
45.9352

> <Gold.PLP.PLP>
-42.3744

> <Gold.PLP.part.hbond>
-1.4455

> <Gold.PLP.part.metal>
0.0000

> <Gold.PLP.part.buried>
-4.8771

> <Gold.PLP.part.nonpolar>
-36.7679

> <Gold.PLP.part.repulsive>
0.8139

> <Gold.PLP.ligand.clash>
0.0000

> <Gold.PLP.ligand.torsion>
0.6931

> <Gold.PLP.Chemscore.Hbond>
1.6464

> <Gold.PLP.Chemscore.CHOScore>
0.0000

> <Gold.PLP.Chemscore.Metal>
0.0000

> <Gold.Chemscore.Hbonds>
donor molecule, donor type, donor heavy atom, donor atom, acceptor molecule, acceptor atom, score
      P1  H  7989  7998       L1    18  0.93
      P1  H 10752 10764       L1    17  0.69

> <Gold.PLP.Chemscore.Internal.Correction>
0.0078

> <Gold.Rescore>
     Score         DG    S(hbond)    S(metal)    S(lipo)     H(rot)  DE(clash)    DE(int)     intcor
     14.12     -17.14       1.87        0.00      88.76       1.95       1.71       1.31       ----

> <Gold.Chemscore.Fitness>
14.1206

> <Gold.Chemscore.DG>
-17.1413

> <Gold.Chemscore.ZeroCoef>
-5.4800

> <Gold.Chemscore.Hbond>
1.8746

> <Gold.Chemscore.Metal>
0.0000

> <Gold.Chemscore.Lipo>
88.7633

> <Gold.Chemscore.Internal_Hbond>
0.0000

> <Gold.Chemscore.DEClash>
1.7140

> <Gold.Chemscore.DEInternal>
1.3068

> <Gold.Chemscore.Rot>
1.9474

> <Gold.Chemscore.Internal.Correction>
   9.000000E+99

> <Gold.Chemscore.Hbonds>
donor molecule, donor type, donor heavy atom, donor atom, acceptor molecule, acceptor atom, score
      P1  H  7989  7998       L1    18  0.11
      P1  H 10752 10764       L1    17  0.65

> <Gold.Chemscore.Hbond.Weighted>
-6.2613

> <Gold.Chemscore.Metal.Weighted>
-0.0000

> <Gold.Chemscore.Lipo.Weighted>
-10.3853

> <Gold.Chemscore.Internal_Hbond.Weighted>
0.0000

> <Gold.Chemscore.DEClash.Weighted>
1.7140

> <Gold.Chemscore.DEInternal.Weighted>
1.3068

> <Gold.Chemscore.Rot.Weighted>
4.9852

> <Gold.Chemscore.Internal.Correction.Weighted>
   9.000000E+99

> <Gold.Protein.RotatedTorsions>
[ 6907 6896 6895 6894 ] final   68.27 input  -60.11 | X-H torsion
[ 7974 7965 7964 7962 ] final -174.48 input  175.53 | X-H torsion
[ 8008 7997 7996 7995 ] final  -64.26 input   59.86 | X-H torsion
[ 10167 10162 10161 10158 ] final   43.93 input  -65.29 | X-H torsion
[ 10718 10713 10712 10709 ] final   46.40 input   66.30 | X-H torsion
[ 10763 10752 10751 10750 ] final -107.21 input  -60.55 | X-H torsion
[ 11005 11000 10999 10996 ] final  -67.85 input  -57.11 | X-H torsion

> <Gold.Protein.ActiveResidues>
 VAL166  LYS551  ARG553  GLY616  TRP617  ASP618  TYR619  PRO620  LYS621  CYS622 
 ASP623  PHE694  ASN695  SER759  ASP760  ASP761  ALA762  ILE779  LEU786  VAL792 
 PHE793  MET794  SER795  GLU796  ALA797  LYS798  CYS799  TRP800  GLU811  SER814 

> <Gold.Protein.RotatedAtoms>
  152.4609  134.5187  159.9775 H   0  0  0  0  0  0  0  0  0  0  0  0  # atno 6907 bound_to 6896
  151.5236  133.3456  159.2913 H   0  0  0  0  0  0  0  0  0  0  0  0  # atno 6908 bound_to 6896
  150.8571  134.7943  159.7116 H   0  0  0  0  0  0  0  0  0  0  0  0  # atno 6909 bound_to 6896
  144.7132  140.1465  143.6387 H   0  0  0  0  0  0  0  0  0  0  0  0  # atno 7974 bound_to 7965
  154.4601  140.0957  156.6869 H   0  0  0  0  0  0  0  0  0  0  0  0  # atno 8008 bound_to 7997
  155.5019  140.3474  155.4354 H   0  0  0  0  0  0  0  0  0  0  0  0  # atno 8009 bound_to 7997
  156.0854  140.1383  156.9648 H   0  0  0  0  0  0  0  0  0  0  0  0  # atno 8010 bound_to 7997
  140.3394  144.2489  150.6157 H   0  0  0  0  0  0  0  0  0  0  0  0  # atno 10167 bound_to 10162
  157.4477  130.8120  149.7757 H   0  0  0  0  0  0  0  0  0  0  0  0  # atno 10718 bound_to 10713
  154.8061  135.4683  154.0396 H   0  0  0  0  0  0  0  0  0  0  0  0  # atno 10763 bound_to 10752
  153.1864  135.6848  153.8417 H   0  0  0  0  0  0  0  0  0  0  0  0  # atno 10764 bound_to 10752
  153.7950  135.3238  155.3360 H   0  0  0  0  0  0  0  0  0  0  0  0  # atno 10765 bound_to 10752
  141.1518  133.6728  156.6355 H   0  0  0  0  0  0  0  0  0  0  0  0  # atno 11005 bound_to 11000
  145.9154  139.2513  143.1412 LP  0  0  0  0  0  0  0  0  0  0  0  0  # atno 17320 bound_to 7965
  145.9674  140.8788  143.0180 LP  0  0  0  0  0  0  0  0  0  0  0  0  # atno 17321 bound_to 7965
  140.5323  143.2241  151.8219 LP  0  0  0  0  0  0  0  0  0  0  0  0  # atno 17342 bound_to 10162
  139.4843  144.4705  151.9431 LP  0  0  0  0  0  0  0  0  0  0  0  0  # atno 17343 bound_to 10162
  155.9974  130.3900  150.2741 LP  0  0  0  0  0  0  0  0  0  0  0  0  # atno 17370 bound_to 10713
  157.0910  131.0169  151.3121 LP  0  0  0  0  0  0  0  0  0  0  0  0  # atno 17371 bound_to 10713
  140.3433  134.7830  157.4414 LP  0  0  0  0  0  0  0  0  0  0  0  0  # atno 17394 bound_to 11000
  140.0920  134.5588  155.8435 LP  0  0  0  0  0  0  0  0  0  0  0  0  # atno 17395 bound_to 11000

$$$$
