AV-unprocessed.smi:2013|AV-procd|sdf|8159|dock5
  -GOLD-   2272010403D 1   1.00000     0.00000
 Structure written by MMmdl.
 50 51  0  0  0  0  0  0  0  0  1 V2000
  145.5655  140.1757  155.2678 C   0  0  0  0  0  0  0  0  0  0  0  0
  146.5110  141.0534  154.4291 C   0  0  0  0  0  0  0  0  0  0  0  0
  147.6782  140.2239  153.8535 C   0  0  0  0  0  0  0  0  0  0  0  0
  146.8861  142.3910  155.1463 C   0  0  2  0  0  0  0  0  0  0  0  0
  147.4592  142.1938  156.5754 C   0  0  0  0  0  0  0  0  0  0  0  0
  148.9151  142.2644  156.5885 N   0  0  0  0  0  0  0  0  0  0  0  0
  149.7189  141.3051  157.0666 C   0  0  0  0  0  0  0  0  0  0  0  0
  149.2969  140.2628  157.5698 O   0  0  0  0  0  0  0  0  0  0  0  0
  151.2248  141.5851  156.9648 C   0  0  0  0  0  0  0  0  0  0  0  0
  151.8837  141.7363  158.2689 N   0  0  0  0  0  0  0  0  0  0  0  0
  151.5875  142.8305  159.0605 C   0  0  0  0  0  0  0  0  0  0  0  0
  152.1349  143.0400  160.2774 C   0  0  0  0  0  0  0  0  0  0  0  0
  153.0977  142.0992  160.8367 C   0  0  0  0  0  0  0  0  0  0  0  0
  153.6048  142.2390  161.9503 O   0  0  0  0  0  0  0  0  0  0  0  0
  153.3961  140.9973  159.9999 N   0  0  0  0  0  0  0  0  0  0  0  0
  154.3266  140.0011  160.4892 C   0  0  0  0  0  0  0  0  0  0  0  0
  152.8056  140.7742  158.7354 C   0  0  0  0  0  0  0  0  0  0  0  0
  153.0687  139.7783  158.0566 O   0  0  0  0  0  0  0  0  0  0  0  0
  145.8832  143.4684  155.0234 N   0  0  0  0  0  0  0  0  0  0  0  0
  144.6232  143.1629  155.6986 C   0  0  0  0  0  0  0  0  0  0  0  0
  143.6566  144.3583  155.6712 C   0  0  0  0  0  0  0  0  0  0  0  0
  143.4239  144.7468  154.3216 O   0  0  0  0  0  0  0  0  0  0  0  0
  144.6222  145.1017  153.6398 C   0  0  0  0  0  0  0  0  0  0  0  0
  145.6082  143.9201  153.6608 C   0  0  0  0  0  0  0  0  0  0  0  0
  146.0711  139.7620  156.1408 H   0  0  0  0  0  0  0  0  0  0  0  0
  145.1861  139.3383  154.6818 H   0  0  0  0  0  0  0  0  0  0  0  0
  144.7053  140.7468  155.6184 H   0  0  0  0  0  0  0  0  0  0  0  0
  145.9244  141.3462  153.5573 H   0  0  0  0  0  0  0  0  0  0  0  0
  148.2992  139.7715  154.6225 H   0  0  0  0  0  0  0  0  0  0  0  0
  148.3233  140.8138  153.2035 H   0  0  0  0  0  0  0  0  0  0  0  0
  147.2928  139.4042  153.2465 H   0  0  0  0  0  0  0  0  0  0  0  0
  147.7393  142.7407  154.5624 H   0  0  0  0  0  0  0  0  0  0  0  0
  147.0823  142.9614  157.2511 H   0  0  0  0  0  0  0  0  0  0  0  0
  147.1487  141.2346  156.9904 H   0  0  0  0  0  0  0  0  0  0  0  0
  149.3384  143.0930  156.1961 H   0  0  0  0  0  0  0  0  0  0  0  0
  151.7024  140.7866  156.3945 H   0  0  0  0  0  0  0  0  0  0  0  0
  151.3638  142.4915  156.3738 H   0  0  0  0  0  0  0  0  0  0  0  0
  150.8761  143.5553  158.6918 H   0  0  0  0  0  0  0  0  0  0  0  0
  151.8542  143.9139  160.8465 H   0  0  0  0  0  0  0  0  0  0  0  0
  154.9037  139.6074  159.6510 H   0  0  0  0  0  0  0  0  0  0  0  0
  153.7322  139.2211  160.9671 H   0  0  0  0  0  0  0  0  0  0  0  0
  155.0248  140.4563  161.1927 H   0  0  0  0  0  0  0  0  0  0  0  0
  144.1336  142.3130  155.2237 H   0  0  0  0  0  0  0  0  0  0  0  0
  144.8132  142.8790  156.7342 H   0  0  0  0  0  0  0  0  0  0  0  0
  142.7069  144.0890  156.1336 H   0  0  0  0  0  0  0  0  0  0  0  0
  144.0628  145.1985  156.2368 H   0  0  0  0  0  0  0  0  0  0  0  0
  144.3807  145.3751  152.6128 H   0  0  0  0  0  0  0  0  0  0  0  0
  145.0665  145.9809  154.1087 H   0  0  0  0  0  0  0  0  0  0  0  0
  146.5224  144.2410  153.1720 H   0  0  0  0  0  0  0  0  0  0  0  0
  145.1972  143.1023  153.0683 H   0  0  0  0  0  0  0  0  0  0  0  0
  1  2  1  0  0  0  0
  1 25  1  0  0  0  0
  1 26  1  0  0  0  0
  1 27  1  0  0  0  0
  2  3  1  0  0  0  0
  2  4  1  0  0  0  0
  2 28  1  0  0  0  0
  3 29  1  0  0  0  0
  3 30  1  0  0  0  0
  3 31  1  0  0  0  0
  4  5  1  0  0  0  0
  4 19  1  0  0  0  0
  4 32  1  0  0  0  0
  5  6  1  0  0  0  0
  5 33  1  0  0  0  0
  5 34  1  0  0  0  0
  6  7  1  0  0  0  0
  6 35  1  0  0  0  0
  7  8  2  0  0  0  0
  7  9  1  0  0  0  0
  9 10  1  0  0  0  0
  9 36  1  0  0  0  0
  9 37  1  0  0  0  0
 10 17  1  0  0  0  0
 10 11  1  0  0  0  0
 11 12  2  0  0  0  0
 11 38  1  0  0  0  0
 12 13  1  0  0  0  0
 12 39  1  0  0  0  0
 13 14  2  0  0  0  0
 13 15  1  0  0  0  0
 15 16  1  0  0  0  0
 15 17  1  0  0  0  0
 16 40  1  0  0  0  0
 16 41  1  0  0  0  0
 16 42  1  0  0  0  0
 17 18  2  0  0  0  0
 19 24  1  0  0  0  0
 19 20  1  0  0  0  0
 20 21  1  0  0  0  0
 20 43  1  0  0  0  0
 20 44  1  0  0  0  0
 21 22  1  0  0  0  0
 21 45  1  0  0  0  0
 21 46  1  0  0  0  0
 22 23  1  0  0  0  0
 23 24  1  0  0  0  0
 23 47  1  0  0  0  0
 23 48  1  0  0  0  0
 24 49  1  0  0  0  0
 24 50  1  0  0  0  0
M  END
> <s_m_source_file>
AV-unprocessed.smi

> <i_m_source_file_index>
2013

> <i_lp_mmshare_version>
43012

> <i_f3d_flags>
0

> <s_epik_input>
W0NIMl0xW0NIMl1PW0NIMl1bQ0gyXU4xW0NASF0oW0NIXShbQ0gzXSlbQ0gzXSlbQ0gyXVtOSF1DKD1PKVtDSDJdbjJbY0hdW2NIXWMoPU8pbihbQ0gzXSljMj1P

> <s_epik_cmdline>
J2VwaWtfcHl0aG9uJywgJy1waCcsICc3LjAnLCAnLXRuJywgJzgnLCAnLW1hJywgJzIwMCcsICctbWV0YWxfYmluZGluZycsICctaW1hZScsICc8aW5maWxlLm1hZT4nLCAnLW9tYWUnLCAnPG91dGZpbGUubWFlPic=

> <r_lp_tautomer_probability>
1

> <r_epik_Ionization_Penalty>
0.45351

> <r_epik_Ionization_Penalty_Charging>
1.24653e-08

> <r_epik_Ionization_Penalty_Neutral>
0.45351

> <r_epik_State_Penalty>
0.456487

> <r_epik_Charging_Adjusted_Penalty>
0.456487

> <i_epik_Tot_Q>
0

> <i_epik_Tot_abs_Q>
0

> <r_epik_Metal_State_Penalty>
0.456449

> <b_epik_Metal_Only>
0

> <s_lp_Force_Field>
OPLS_2005

> <r_lp_Energy>
47.2128

> <b_lp_Chiralities_Consistent>
1

> <s_lp_Variant>
AV-unprocessed.smi:2013-3

> <Gold.Version>
5.8.1

> <Gold.Id.Protein>
6NUR|6NUR_protein|mol2

> <Gold.PLP.Fitness>
43.8313

> <Gold.PLP.PLP>
-40.0341

> <Gold.PLP.part.hbond>
-2.1836

> <Gold.PLP.part.metal>
0.0000

> <Gold.PLP.part.buried>
-4.9073

> <Gold.PLP.part.nonpolar>
-33.0344

> <Gold.PLP.part.repulsive>
0.3605

> <Gold.PLP.ligand.clash>
0.0000

> <Gold.PLP.ligand.torsion>
1.2386

> <Gold.PLP.Chemscore.Hbond>
1.9120

> <Gold.PLP.Chemscore.CHOScore>
0.0000

> <Gold.PLP.Chemscore.Metal>
0.0000

> <Gold.Chemscore.Hbonds>
donor molecule, donor type, donor heavy atom, donor atom, acceptor molecule, acceptor atom, score
      L1  H     6    35       P1  8028  0.80
      P1  H  7997  8008       L1    18  1.00

> <Gold.PLP.Chemscore.Internal.Correction>
0.5384

> <Gold.Rescore>
     Score         DG    S(hbond)    S(metal)    S(lipo)     H(rot)  DE(clash)    DE(int)     intcor
     13.91     -15.17       1.88        0.00      77.47       2.20       0.10       1.17       ----

> <Gold.Chemscore.Fitness>
13.9111

> <Gold.Chemscore.DG>
-15.1725

> <Gold.Chemscore.ZeroCoef>
-5.4800

> <Gold.Chemscore.Hbond>
1.8773

> <Gold.Chemscore.Metal>
0.0000

> <Gold.Chemscore.Lipo>
77.4743

> <Gold.Chemscore.Internal_Hbond>
0.0000

> <Gold.Chemscore.DEClash>
0.0962

> <Gold.Chemscore.DEInternal>
1.1652

> <Gold.Chemscore.Rot>
2.2039

> <Gold.Chemscore.Internal.Correction>
   9.000000E+99

> <Gold.Chemscore.Hbonds>
donor molecule, donor type, donor heavy atom, donor atom, acceptor molecule, acceptor atom, score
      L1  H     6    35       P1  8028  0.80
      P1  H  7997  8008       L1    18  0.85

> <Gold.Chemscore.Hbond.Weighted>
-6.2700

> <Gold.Chemscore.Metal.Weighted>
-0.0000

> <Gold.Chemscore.Lipo.Weighted>
-9.0645

> <Gold.Chemscore.Internal_Hbond.Weighted>
0.0000

> <Gold.Chemscore.DEClash.Weighted>
0.0962

> <Gold.Chemscore.DEInternal.Weighted>
1.1652

> <Gold.Chemscore.Rot.Weighted>
5.6420

> <Gold.Chemscore.Internal.Correction.Weighted>
   9.000000E+99

> <Gold.Protein.RotatedTorsions>
[ 6907 6896 6895 6894 ] final  144.46 input  -60.11 | X-H torsion
[ 7974 7965 7964 7962 ] final  -24.18 input  175.53 | X-H torsion
[ 8008 7997 7996 7995 ] final  -74.30 input   59.86 | X-H torsion
[ 10167 10162 10161 10158 ] final  134.20 input  -65.29 | X-H torsion
[ 10718 10713 10712 10709 ] final -176.59 input   66.30 | X-H torsion
[ 10763 10752 10751 10750 ] final   64.89 input  -60.55 | X-H torsion
[ 11005 11000 10999 10996 ] final  148.71 input  -57.11 | X-H torsion

> <Gold.Protein.ActiveResidues>
 VAL166  LYS551  ARG553  GLY616  TRP617  ASP618  TYR619  PRO620  LYS621  CYS622 
 ASP623  PHE694  ASN695  SER759  ASP760  ASP761  ALA762  ILE779  LEU786  VAL792 
 PHE793  MET794  SER795  GLU796  ALA797  LYS798  CYS799  TRP800  GLU811  SER814 

> <Gold.Protein.RotatedAtoms>
  152.1934  133.4789  159.5019 H   0  0  0  0  0  0  0  0  0  0  0  0  # atno 6907 bound_to 6896
  150.6955  134.1683  159.4211 H   0  0  0  0  0  0  0  0  0  0  0  0  # atno 6908 bound_to 6896
  151.9598  135.0128  160.0597 H   0  0  0  0  0  0  0  0  0  0  0  0  # atno 6909 bound_to 6896
  146.1571  140.4716  142.8587 H   0  0  0  0  0  0  0  0  0  0  0  0  # atno 7974 bound_to 7965
  154.5319  140.0764  156.8360 H   0  0  0  0  0  0  0  0  0  0  0  0  # atno 8008 bound_to 7997
  155.3357  140.3404  155.4221 H   0  0  0  0  0  0  0  0  0  0  0  0  # atno 8009 bound_to 7997
  156.1790  140.1645  156.8296 H   0  0  0  0  0  0  0  0  0  0  0  0  # atno 8010 bound_to 7997
  139.5266  144.6579  151.5105 H   0  0  0  0  0  0  0  0  0  0  0  0  # atno 10167 bound_to 10162
  156.8170  130.9606  151.3113 H   0  0  0  0  0  0  0  0  0  0  0  0  # atno 10718 bound_to 10713
  153.0074  135.5377  154.6581 H   0  0  0  0  0  0  0  0  0  0  0  0  # atno 10763 bound_to 10752
  154.5796  135.2849  155.0748 H   0  0  0  0  0  0  0  0  0  0  0  0  # atno 10764 bound_to 10752
  154.1882  135.6504  153.5105 H   0  0  0  0  0  0  0  0  0  0  0  0  # atno 10765 bound_to 10752
  140.0982  134.8999  157.1756 H   0  0  0  0  0  0  0  0  0  0  0  0  # atno 11005 bound_to 11000
  144.7977  140.6154  143.6499 LP  0  0  0  0  0  0  0  0  0  0  0  0  # atno 17320 bound_to 7965
  145.4682  139.1506  143.3829 LP  0  0  0  0  0  0  0  0  0  0  0  0  # atno 17321 bound_to 7965
  140.6413  143.8883  150.6694 LP  0  0  0  0  0  0  0  0  0  0  0  0  # atno 17342 bound_to 10162
  140.2218  143.3803  152.1636 LP  0  0  0  0  0  0  0  0  0  0  0  0  # atno 17343 bound_to 10162
  157.6476  130.8858  149.9570 LP  0  0  0  0  0  0  0  0  0  0  0  0  # atno 17370 bound_to 10713
  156.1011  130.3656  150.0217 LP  0  0  0  0  0  0  0  0  0  0  0  0  # atno 17371 bound_to 10713
  140.3256  134.2867  155.7237 LP  0  0  0  0  0  0  0  0  0  0  0  0  # atno 17394 bound_to 11000
  141.2098  133.7738  156.9972 LP  0  0  0  0  0  0  0  0  0  0  0  0  # atno 17395 bound_to 11000

$$$$
