AV-unprocessed.smi:3348|AV-procd|sdf|12923|dock3
  -GOLD-   2272019343D 1   1.00000     0.00000
 Structure written by MMmdl.
 46 47  0  0  0  0  0  0  0  0  1 V2000
  148.8048  139.0004  154.1651 C   0  0  0  0  0  0  0  0  0  0  0  0
  150.2054  139.2411  154.7455 C   0  0  2  0  0  0  0  0  0  0  0  0
  151.0872  137.9817  154.5402 C   0  0  0  0  0  0  0  0  0  0  0  0
  150.6616  136.8078  155.2847 N   0  0  0  0  0  0  0  0  0  0  0  0
  149.4746  136.1133  155.1728 C   0  0  0  0  0  0  0  0  0  0  0  0
  149.5276  135.0693  156.0506 C   0  0  0  0  0  0  0  0  0  0  0  0
  150.8132  135.1951  156.6468 C   0  0  0  0  0  0  0  0  0  0  0  0
  151.4942  136.2282  156.1776 N   0  0  0  0  0  0  0  0  0  0  0  0
  150.0668  139.6209  156.1571 N   0  0  0  0  0  0  0  0  0  0  0  0
  149.6173  140.9883  156.4122 C   0  0  0  0  0  0  0  0  0  0  0  0
  150.8113  141.9470  156.5536 C   0  0  0  0  0  0  0  0  0  0  0  0
  150.6633  142.8359  157.6555 O   0  0  0  0  0  0  0  0  0  0  0  0
  151.7469  142.8504  158.5793 C   0  0  2  0  0  0  0  0  0  0  0  0
  151.8778  141.4298  159.1587 C   0  0  0  0  0  0  0  0  0  0  0  0
  152.9671  141.3650  160.2378 C   0  0  0  0  0  0  0  0  0  0  0  0
  152.6915  142.3845  161.3531 C   0  0  0  0  0  0  0  0  0  0  0  0
  152.5462  143.8056  160.7855 C   0  0  0  0  0  0  0  0  0  0  0  0
  151.4590  143.8813  159.6933 C   0  0  1  0  0  0  0  0  0  0  0  0
  151.3466  145.3096  159.1361 C   0  0  0  0  0  0  0  0  0  0  0  0
  148.8546  138.7698  153.1005 H   0  0  0  0  0  0  0  0  0  0  0  0
  148.1751  139.8837  154.2765 H   0  0  0  0  0  0  0  0  0  0  0  0
  148.3047  138.1683  154.6624 H   0  0  0  0  0  0  0  0  0  0  0  0
  150.6308  140.0767  154.1885 H   0  0  0  0  0  0  0  0  0  0  0  0
  151.1413  137.7272  153.4808 H   0  0  0  0  0  0  0  0  0  0  0  0
  152.1102  138.1942  154.8529 H   0  0  0  0  0  0  0  0  0  0  0  0
  148.6970  136.4198  154.4890 H   0  0  0  0  0  0  0  0  0  0  0  0
  148.7667  134.3253  156.2339 H   0  0  0  0  0  0  0  0  0  0  0  0
  151.2709  134.5682  157.3977 H   0  0  0  0  0  0  0  0  0  0  0  0
  149.4423  138.9707  156.6232 H   0  0  0  0  0  0  0  0  0  0  0  0
  148.9480  141.3403  155.6324 H   0  0  0  0  0  0  0  0  0  0  0  0
  149.0439  141.0095  157.3395 H   0  0  0  0  0  0  0  0  0  0  0  0
  151.7376  141.3819  156.6669 H   0  0  0  0  0  0  0  0  0  0  0  0
  150.9247  142.5375  155.6440 H   0  0  0  0  0  0  0  0  0  0  0  0
  152.6864  143.1222  158.0938 H   0  0  0  0  0  0  0  0  0  0  0  0
  150.9240  141.1193  159.5875 H   0  0  0  0  0  0  0  0  0  0  0  0
  152.1000  140.7184  158.3638 H   0  0  0  0  0  0  0  0  0  0  0  0
  153.0179  140.3593  160.6553 H   0  0  0  0  0  0  0  0  0  0  0  0
  153.9406  141.5641  159.7879 H   0  0  0  0  0  0  0  0  0  0  0  0
  151.7792  142.1084  161.8834 H   0  0  0  0  0  0  0  0  0  0  0  0
  153.4966  142.3579  162.0879 H   0  0  0  0  0  0  0  0  0  0  0  0
  152.3110  144.4978  161.5948 H   0  0  0  0  0  0  0  0  0  0  0  0
  153.5034  144.1289  160.3739 H   0  0  0  0  0  0  0  0  0  0  0  0
  150.5026  143.6280  160.1532 H   0  0  0  0  0  0  0  0  0  0  0  0
  152.2689  145.6163  158.6417 H   0  0  0  0  0  0  0  0  0  0  0  0
  151.1405  146.0266  159.9312 H   0  0  0  0  0  0  0  0  0  0  0  0
  150.5378  145.3890  158.4094 H   0  0  0  0  0  0  0  0  0  0  0  0
  1  2  1  0  0  0  0
  1 20  1  0  0  0  0
  1 21  1  0  0  0  0
  1 22  1  0  0  0  0
  2  3  1  0  0  0  0
  2  9  1  0  0  0  0
  2 23  1  0  0  0  0
  3  4  1  0  0  0  0
  3 24  1  0  0  0  0
  3 25  1  0  0  0  0
  4  8  1  0  0  0  0
  4  5  1  0  0  0  0
  5  6  2  0  0  0  0
  5 26  1  0  0  0  0
  6  7  1  0  0  0  0
  6 27  1  0  0  0  0
  7  8  2  0  0  0  0
  7 28  1  0  0  0  0
  9 10  1  0  0  0  0
  9 29  1  0  0  0  0
 10 11  1  0  0  0  0
 10 30  1  0  0  0  0
 10 31  1  0  0  0  0
 11 12  1  0  0  0  0
 11 32  1  0  0  0  0
 11 33  1  0  0  0  0
 12 13  1  0  0  0  0
 13 18  1  0  0  0  0
 13 14  1  0  0  0  0
 13 34  1  0  0  0  0
 14 15  1  0  0  0  0
 14 35  1  0  0  0  0
 14 36  1  0  0  0  0
 15 16  1  0  0  0  0
 15 37  1  0  0  0  0
 15 38  1  0  0  0  0
 16 17  1  0  0  0  0
 16 39  1  0  0  0  0
 16 40  1  0  0  0  0
 17 18  1  0  0  0  0
 17 41  1  0  0  0  0
 17 42  1  0  0  0  0
 18 19  1  0  0  0  0
 18 43  1  0  0  0  0
 19 44  1  0  0  0  0
 19 45  1  0  0  0  0
 19 46  1  0  0  0  0
M  END
> <s_m_source_file>
AV-unprocessed.smi

> <i_m_source_file_index>
3348

> <i_lp_mmshare_version>
43012

> <i_f3d_flags>
0

> <s_epik_input>
bjFbY0hdW2NIXVtjSF1uMVtDSDJdW0NAQEhdKFtDSDNdKVtOSF1bQ0gyXVtDSDJdT1tDQEBIXTJbQ0gyXVtDSDJdW0NIMl1bQ0gyXVtDQEhdMltDSDNd

> <s_epik_cmdline>
J2VwaWtfcHl0aG9uJywgJy1waCcsICc3LjAnLCAnLXRuJywgJzgnLCAnLW1hJywgJzIwMCcsICctbWV0YWxfYmluZGluZycsICctaW1hZScsICc8aW5maWxlLm1hZT4nLCAnLW9tYWUnLCAnPG91dGZpbGUubWFlPic=

> <r_lp_tautomer_probability>
1

> <r_epik_Ionization_Penalty>
2.46945

> <r_epik_Ionization_Penalty_Charging>
0

> <r_epik_Ionization_Penalty_Neutral>
2.46945

> <r_epik_State_Penalty>
2.6322

> <r_epik_Charging_Adjusted_Penalty>
2.6322

> <i_epik_Tot_Q>
0

> <i_epik_Tot_abs_Q>
0

> <r_epik_Metal_State_Penalty>
2.63217

> <b_epik_Metal_Only>
0

> <s_lp_Force_Field>
OPLS_2005

> <r_lp_Energy>
18.2161

> <b_lp_Chiralities_Consistent>
1

> <s_lp_Variant>
AV-unprocessed.smi:3348-9

> <Gold.Version>
5.8.1

> <Gold.Id.Protein>
6NUR|6NUR_protein|mol2

> <Gold.PLP.Fitness>
44.9179

> <Gold.PLP.PLP>
-41.1957

> <Gold.PLP.part.hbond>
-1.0000

> <Gold.PLP.part.metal>
0.0000

> <Gold.PLP.part.buried>
-5.0169

> <Gold.PLP.part.nonpolar>
-35.5133

> <Gold.PLP.part.repulsive>
0.1580

> <Gold.PLP.ligand.clash>
0.0000

> <Gold.PLP.ligand.torsion>
1.0413

> <Gold.PLP.Chemscore.Hbond>
0.9500

> <Gold.PLP.Chemscore.CHOScore>
0.9210

> <Gold.PLP.Chemscore.Metal>
0.0000

> <Gold.Chemscore.Hbonds>
donor molecule, donor type, donor heavy atom, donor atom, acceptor molecule, acceptor atom, score
      P1  H 10752 10764       L1     8  0.52
      L1  C     5    26       P1  7948  0.62

> <Gold.PLP.Chemscore.Internal.Correction>
0.1916

> <Gold.Rescore>
     Score         DG    S(hbond)    S(metal)    S(lipo)     H(rot)  DE(clash)    DE(int)     intcor
     16.62     -17.72       0.74        0.00     121.09       1.72       0.08       1.02       ----

> <Gold.Chemscore.Fitness>
16.6155

> <Gold.Chemscore.DG>
-17.7215

> <Gold.Chemscore.ZeroCoef>
-5.4800

> <Gold.Chemscore.Hbond>
0.7446

> <Gold.Chemscore.Metal>
0.0000

> <Gold.Chemscore.Lipo>
121.0858

> <Gold.Chemscore.Internal_Hbond>
0.0000

> <Gold.Chemscore.DEClash>
0.0824

> <Gold.Chemscore.DEInternal>
1.0235

> <Gold.Chemscore.Rot>
1.7237

> <Gold.Chemscore.Internal.Correction>
   9.000000E+99

> <Gold.Chemscore.Hbonds>
donor molecule, donor type, donor heavy atom, donor atom, acceptor molecule, acceptor atom, score
      P1  H 10752 10764       L1     8  0.06

> <Gold.Chemscore.Hbond.Weighted>
-2.4870

> <Gold.Chemscore.Metal.Weighted>
-0.0000

> <Gold.Chemscore.Lipo.Weighted>
-14.1670

> <Gold.Chemscore.Internal_Hbond.Weighted>
0.0000

> <Gold.Chemscore.DEClash.Weighted>
0.0824

> <Gold.Chemscore.DEInternal.Weighted>
1.0235

> <Gold.Chemscore.Rot.Weighted>
4.4126

> <Gold.Chemscore.Internal.Correction.Weighted>
   9.000000E+99

> <Gold.Protein.RotatedTorsions>
[ 6907 6896 6895 6894 ] final  142.22 input  -60.11 | X-H torsion
[ 7974 7965 7964 7962 ] final -163.43 input  175.53 | X-H torsion
[ 8008 7997 7996 7995 ] final  -57.47 input   59.86 | X-H torsion
[ 10167 10162 10161 10158 ] final  -11.20 input  -65.29 | X-H torsion
[ 10718 10713 10712 10709 ] final -154.78 input   66.30 | X-H torsion
[ 10763 10752 10751 10750 ] final  -52.65 input  -60.55 | X-H torsion
[ 11005 11000 10999 10996 ] final  157.53 input  -57.11 | X-H torsion

> <Gold.Protein.ActiveResidues>
 VAL166  LYS551  ARG553  GLY616  TRP617  ASP618  TYR619  PRO620  LYS621  CYS622 
 ASP623  PHE694  ASN695  SER759  ASP760  ASP761  ALA762  ILE779  LEU786  VAL792 
 PHE793  MET794  SER795  GLU796  ALA797  LYS798  CYS799  TRP800  GLU811  SER814 

> <Gold.Protein.RotatedAtoms>
  152.2214  133.4986  159.5164 H   0  0  0  0  0  0  0  0  0  0  0  0  # atno 6907 bound_to 6896
  150.7013  134.1338  159.4088 H   0  0  0  0  0  0  0  0  0  0  0  0  # atno 6908 bound_to 6896
  151.9259  135.0278  160.0576 H   0  0  0  0  0  0  0  0  0  0  0  0  # atno 6909 bound_to 6896
  144.7326  140.3108  143.6188 H   0  0  0  0  0  0  0  0  0  0  0  0  # atno 7974 bound_to 7965
  154.4269  140.1106  156.5803 H   0  0  0  0  0  0  0  0  0  0  0  0  # atno 8008 bound_to 7997
  155.6119  140.3494  155.4606 H   0  0  0  0  0  0  0  0  0  0  0  0  # atno 8009 bound_to 7997
  156.0092  140.1215  157.0460 H   0  0  0  0  0  0  0  0  0  0  0  0  # atno 8010 bound_to 7997
  140.7133  143.5665  150.9138 H   0  0  0  0  0  0  0  0  0  0  0  0  # atno 10167 bound_to 10162
  156.5040  130.8404  151.2620 H   0  0  0  0  0  0  0  0  0  0  0  0  # atno 10718 bound_to 10713
  154.1462  135.6497  153.4953 H   0  0  0  0  0  0  0  0  0  0  0  0  # atno 10763 bound_to 10752
  153.0151  135.5327  154.6854 H   0  0  0  0  0  0  0  0  0  0  0  0  # atno 10764 bound_to 10752
  154.6129  135.2956  155.0383 H   0  0  0  0  0  0  0  0  0  0  0  0  # atno 10765 bound_to 10752
  140.1778  134.8497  157.2767 H   0  0  0  0  0  0  0  0  0  0  0  0  # atno 11005 bound_to 11000
  145.7667  139.1843  143.2236 LP  0  0  0  0  0  0  0  0  0  0  0  0  # atno 17320 bound_to 7965
  146.0943  140.7619  142.9580 LP  0  0  0  0  0  0  0  0  0  0  0  0  # atno 17321 bound_to 7965
  139.9391  143.6403  152.3058 LP  0  0  0  0  0  0  0  0  0  0  0  0  # atno 17342 bound_to 10162
  139.6881  144.7649  151.1487 LP  0  0  0  0  0  0  0  0  0  0  0  0  # atno 17343 bound_to 10162
  157.7459  130.9972  150.2808 LP  0  0  0  0  0  0  0  0  0  0  0  0  # atno 17370 bound_to 10713
  156.3305  130.3799  149.7495 LP  0  0  0  0  0  0  0  0  0  0  0  0  # atno 17371 bound_to 10713
  140.2302  134.3918  155.7525 LP  0  0  0  0  0  0  0  0  0  0  0  0  # atno 17394 bound_to 11000
  141.2221  133.7211  156.8629 LP  0  0  0  0  0  0  0  0  0  0  0  0  # atno 17395 bound_to 11000

$$$$
