AV-unprocessed.smi:2532|AV-procd|sdf|9968|dock1
  -GOLD-   2272014 13D 1   1.00000     0.00000
 Structure written by MMmdl.
 36 38  0  0  0  0  0  0  0  0  1 V2000
  150.2678  139.9999  153.9790 O   0  0  0  0  0  0  0  0  0  0  0  0
  149.6413  140.4252  155.1738 C   0  0  2  0  0  0  0  0  0  0  0  0
  148.1487  140.6541  154.8876 C   0  0  0  0  0  0  0  0  0  0  0  0
  147.9873  141.8904  154.2124 O   0  0  0  0  0  0  0  0  0  0  0  0
  146.6732  142.0722  153.7099 C   0  0  0  0  0  0  0  0  0  0  0  0
  145.8243  142.5892  154.8271 C   0  0  0  0  0  0  0  0  0  0  0  0
  144.5869  143.1719  154.7212 C   0  0  0  0  0  0  0  0  0  0  0  0
  144.0277  143.5410  155.9800 C   0  0  0  0  0  0  0  0  0  0  0  0
  144.8422  143.2278  157.0351 C   0  0  0  0  0  0  0  0  0  0  0  0
  146.3166  142.4684  156.5011 S   0  0  0  0  0  0  0  0  0  0  0  0
  150.3314  141.7100  155.6719 C   0  0  0  0  0  0  0  0  0  0  0  0
  150.9406  141.5473  156.9804 N   0  0  0  0  0  0  0  0  0  0  0  0
  151.1859  140.3875  157.6198 C   0  0  0  0  0  0  0  0  0  0  0  0
  151.7513  140.4614  158.8213 N   0  0  0  0  0  0  0  0  0  0  0  0
  151.8886  141.8296  158.9818 C   0  0  0  0  0  0  0  0  0  0  0  0
  152.4240  142.5782  160.0547 C   0  0  0  0  0  0  0  0  0  0  0  0
  152.4619  143.9870  159.9942 C   0  0  0  0  0  0  0  0  0  0  0  0
  151.9675  144.6677  158.8625 C   0  0  0  0  0  0  0  0  0  0  0  0
  151.4290  143.9437  157.7815 C   0  0  0  0  0  0  0  0  0  0  0  0
  151.3914  142.5383  157.8464 C   0  0  0  0  0  0  0  0  0  0  0  0
  150.2977  139.0552  153.9765 H   0  0  0  0  0  0  0  0  0  0  0  0
  149.7540  139.6464  155.9295 H   0  0  0  0  0  0  0  0  0  0  0  0
  147.7743  139.8617  154.2373 H   0  0  0  0  0  0  0  0  0  0  0  0
  147.5608  140.6208  155.8068 H   0  0  0  0  0  0  0  0  0  0  0  0
  146.6779  142.7799  152.8795 H   0  0  0  0  0  0  0  0  0  0  0  0
  146.2708  141.1269  153.3433 H   0  0  0  0  0  0  0  0  0  0  0  0
  144.0681  143.3463  153.7901 H   0  0  0  0  0  0  0  0  0  0  0  0
  143.0606  144.0145  156.0658 H   0  0  0  0  0  0  0  0  0  0  0  0
  144.6664  143.3923  158.0880 H   0  0  0  0  0  0  0  0  0  0  0  0
  151.0981  142.0310  154.9653 H   0  0  0  0  0  0  0  0  0  0  0  0
  149.6084  142.5243  155.7351 H   0  0  0  0  0  0  0  0  0  0  0  0
  150.9354  139.4344  157.1772 H   0  0  0  0  0  0  0  0  0  0  0  0
  152.8062  142.0673  160.9260 H   0  0  0  0  0  0  0  0  0  0  0  0
  152.8734  144.5483  160.8203 H   0  0  0  0  0  0  0  0  0  0  0  0
  152.0021  145.7467  158.8244 H   0  0  0  0  0  0  0  0  0  0  0  0
  151.0517  144.4621  156.9125 H   0  0  0  0  0  0  0  0  0  0  0  0
  1  2  1  0  0  0  0
  1 21  1  0  0  0  0
  2  3  1  0  0  0  0
  2 11  1  0  0  0  0
  2 22  1  0  0  0  0
  3  4  1  0  0  0  0
  3 23  1  0  0  0  0
  3 24  1  0  0  0  0
  4  5  1  0  0  0  0
  5  6  1  0  0  0  0
  5 25  1  0  0  0  0
  5 26  1  0  0  0  0
  6 10  1  0  0  0  0
  6  7  2  0  0  0  0
  7  8  1  0  0  0  0
  7 27  1  0  0  0  0
  8  9  2  0  0  0  0
  8 28  1  0  0  0  0
  9 10  1  0  0  0  0
  9 29  1  0  0  0  0
 11 12  1  0  0  0  0
 11 30  1  0  0  0  0
 11 31  1  0  0  0  0
 12 20  1  0  0  0  0
 12 13  1  0  0  0  0
 13 14  2  0  0  0  0
 13 32  1  0  0  0  0
 14 15  1  0  0  0  0
 15 20  2  0  0  0  0
 15 16  1  0  0  0  0
 16 17  2  0  0  0  0
 16 33  1  0  0  0  0
 17 18  1  0  0  0  0
 17 34  1  0  0  0  0
 18 19  2  0  0  0  0
 18 35  1  0  0  0  0
 19 20  1  0  0  0  0
 19 36  1  0  0  0  0
M  END
> <s_m_source_file>
AV-unprocessed.smi

> <i_m_source_file_index>
2532

> <i_lp_mmshare_version>
43012

> <i_f3d_flags>
0

> <s_epik_input>
W2NIXTFbY0hdW2NIXVtjSF1jKGMxMiluKFtjSF1uMilbQ0gyXVtDQEhdKFtPSF0pW0NIMl1PW0NIMl1jM1tjSF1bY0hdW2NIXXMz

> <s_epik_cmdline>
J2VwaWtfcHl0aG9uJywgJy1waCcsICc3LjAnLCAnLXRuJywgJzgnLCAnLW1hJywgJzIwMCcsICctbWV0YWxfYmluZGluZycsICctaW1hZScsICc8aW5maWxlLm1hZT4nLCAnLW9tYWUnLCAnPG91dGZpbGUubWFlPic=

> <r_epik_Ionization_Penalty>
0.0678455

> <r_epik_Ionization_Penalty_Charging>
0

> <r_epik_Ionization_Penalty_Neutral>
0.0678455

> <r_epik_State_Penalty>
0.0593261

> <r_epik_Charging_Adjusted_Penalty>
0.0593261

> <i_epik_Tot_Q>
0

> <i_epik_Tot_abs_Q>
0

> <r_epik_Metal_State_Penalty>
6.23947e-05

> <b_epik_Metal_Only>
0

> <s_lp_Force_Field>
OPLS_2005

> <r_lp_Energy>
9.71279

> <b_lp_Chiralities_Consistent>
1

> <s_lp_Variant>
AV-unprocessed.smi:2532-1

> <Gold.Version>
5.8.1

> <Gold.Id.Protein>
6NUR|6NUR_protein|mol2

> <Gold.PLP.Fitness>
45.7340

> <Gold.PLP.PLP>
-45.2844

> <Gold.PLP.part.hbond>
-2.4472

> <Gold.PLP.part.metal>
0.0000

> <Gold.PLP.part.buried>
-6.9744

> <Gold.PLP.part.nonpolar>
-36.2031

> <Gold.PLP.part.repulsive>
0.1540

> <Gold.PLP.ligand.clash>
0.0000

> <Gold.PLP.ligand.torsion>
1.4291

> <Gold.PLP.Chemscore.Hbond>
0.9920

> <Gold.PLP.Chemscore.CHOScore>
0.0000

> <Gold.PLP.Chemscore.Metal>
0.0000

> <Gold.Chemscore.Hbonds>
donor molecule, donor type, donor heavy atom, donor atom, acceptor molecule, acceptor atom, score
      P1  H  7989  7998       L1     1  0.99

> <Gold.PLP.Chemscore.Internal.Correction>
0.3318

> <Gold.Rescore>
     Score         DG    S(hbond)    S(metal)    S(lipo)     H(rot)  DE(clash)    DE(int)     intcor
     14.50     -15.88       0.97        0.00     112.89       2.36       0.05       1.32       ----

> <Gold.Chemscore.Fitness>
14.5001

> <Gold.Chemscore.DG>
-15.8765

> <Gold.Chemscore.ZeroCoef>
-5.4800

> <Gold.Chemscore.Hbond>
0.9686

> <Gold.Chemscore.Metal>
0.0000

> <Gold.Chemscore.Lipo>
112.8909

> <Gold.Chemscore.Internal_Hbond>
0.0000

> <Gold.Chemscore.DEClash>
0.0538

> <Gold.Chemscore.DEInternal>
1.3226

> <Gold.Chemscore.Rot>
2.3620

> <Gold.Chemscore.Internal.Correction>
   9.000000E+99

> <Gold.Chemscore.Hbonds>
donor molecule, donor type, donor heavy atom, donor atom, acceptor molecule, acceptor atom, score
      P1  H  7989  7998       L1     1  0.85

> <Gold.Chemscore.Hbond.Weighted>
-3.2350

> <Gold.Chemscore.Metal.Weighted>
-0.0000

> <Gold.Chemscore.Lipo.Weighted>
-13.2082

> <Gold.Chemscore.Internal_Hbond.Weighted>
0.0000

> <Gold.Chemscore.DEClash.Weighted>
0.0538

> <Gold.Chemscore.DEInternal.Weighted>
1.3226

> <Gold.Chemscore.Rot.Weighted>
6.0468

> <Gold.Chemscore.Internal.Correction.Weighted>
   9.000000E+99

> <Gold.Protein.RotatedTorsions>
[ 6907 6896 6895 6894 ] final -104.19 input  -60.11 | X-H torsion
[ 7974 7965 7964 7962 ] final    4.20 input  175.53 | X-H torsion
[ 8008 7997 7996 7995 ] final -103.56 input   59.86 | X-H torsion
[ 10167 10162 10161 10158 ] final  105.32 input  -65.29 | X-H torsion
[ 10718 10713 10712 10709 ] final  137.54 input   66.30 | X-H torsion
[ 10763 10752 10751 10750 ] final   13.01 input  -60.55 | X-H torsion
[ 11005 11000 10999 10996 ] final   -9.99 input  -57.11 | X-H torsion

> <Gold.Protein.ActiveResidues>
 VAL166  LYS551  ARG553  GLY616  TRP617  ASP618  TYR619  PRO620  LYS621  CYS622 
 ASP623  PHE694  ASN695  SER759  ASP760  ASP761  ALA762  ILE779  LEU786  VAL792 
 PHE793  MET794  SER795  GLU796  ALA797  LYS798  CYS799  TRP800  GLU811  SER814 

> <Gold.Protein.RotatedAtoms>
  150.7275  134.0315  159.3734 H   0  0  0  0  0  0  0  0  0  0  0  0  # atno 6907 bound_to 6896
  151.8285  135.0627  160.0443 H   0  0  0  0  0  0  0  0  0  0  0  0  # atno 6908 bound_to 6896
  152.2951  133.5563  159.5619 H   0  0  0  0  0  0  0  0  0  0  0  0  # atno 6909 bound_to 6896
  146.2444  140.0571  142.8371 H   0  0  0  0  0  0  0  0  0  0  0  0  # atno 7974 bound_to 7965
  154.8727  140.0422  157.1734 H   0  0  0  0  0  0  0  0  0  0  0  0  # atno 8008 bound_to 7997
  154.8722  140.2960  155.5454 H   0  0  0  0  0  0  0  0  0  0  0  0  # atno 8009 bound_to 7997
  156.2999  140.2427  156.3712 H   0  0  0  0  0  0  0  0  0  0  0  0  # atno 8010 bound_to 7997
  139.7102  144.7079  151.1039 H   0  0  0  0  0  0  0  0  0  0  0  0  # atno 10167 bound_to 10162
  157.4350  131.1052  151.0208 H   0  0  0  0  0  0  0  0  0  0  0  0  # atno 10718 bound_to 10713
  153.1764  135.6820  153.8538 H   0  0  0  0  0  0  0  0  0  0  0  0  # atno 10763 bound_to 10752
  153.7884  135.3172  155.3376 H   0  0  0  0  0  0  0  0  0  0  0  0  # atno 10764 bound_to 10752
  154.8031  135.4765  154.0419 H   0  0  0  0  0  0  0  0  0  0  0  0  # atno 10765 bound_to 10752
  140.7400  133.8678  155.8960 H   0  0  0  0  0  0  0  0  0  0  0  0  # atno 11005 bound_to 11000
  145.0933  140.9298  143.4756 LP  0  0  0  0  0  0  0  0  0  0  0  0  # atno 17320 bound_to 7965
  145.0748  139.3004  143.5813 LP  0  0  0  0  0  0  0  0  0  0  0  0  # atno 17321 bound_to 7965
  140.7731  143.5303  150.9431 LP  0  0  0  0  0  0  0  0  0  0  0  0  # atno 17342 bound_to 10162
  139.8988  143.6862  152.3134 LP  0  0  0  0  0  0  0  0  0  0  0  0  # atno 17343 bound_to 10162
  157.1091  130.6014  149.5477 LP  0  0  0  0  0  0  0  0  0  0  0  0  # atno 17370 bound_to 10713
  155.9927  130.4986  150.7351 LP  0  0  0  0  0  0  0  0  0  0  0  0  # atno 17371 bound_to 10713
  140.9845  134.1361  157.4464 LP  0  0  0  0  0  0  0  0  0  0  0  0  # atno 17394 bound_to 11000
  139.8808  135.0021  156.6107 LP  0  0  0  0  0  0  0  0  0  0  0  0  # atno 17395 bound_to 11000

$$$$
