AV-unprocessed.smi:283|AV-procd|sdf|2151|dock10
  -GOLD-   2262021493D 1   1.00000     0.00000
 Structure written by MMmdl.
 48 51  0  0  0  0  0  0  0  0  1 V2000
  152.7389  139.9196  156.4732 C   0  0  0  0  0  0  0  0  0  0  0  0
  151.7466  140.3660  157.5624 C   0  0  2  0  0  0  0  0  0  0  0  0
  150.3837  140.4498  157.0380 N   0  0  0  0  0  0  0  0  0  0  0  0
  149.4718  139.4769  157.2598 C   0  0  0  0  0  0  0  0  0  0  0  0
  148.7787  139.4085  158.4260 N   0  0  0  0  0  0  0  0  0  0  0  0
  147.8833  138.4354  158.6146 C   0  0  0  0  0  0  0  0  0  0  0  0
  147.5316  137.4532  157.7822 N   0  0  0  0  0  0  0  0  0  0  0  0
  148.2176  137.5195  156.6045 C   0  0  0  0  0  0  0  0  0  0  0  0
  149.1981  138.4963  156.2716 C   0  0  0  0  0  0  0  0  0  0  0  0
  149.6877  138.2567  154.9951 N   0  0  0  0  0  0  0  0  0  0  0  0
  149.0326  137.1986  154.6005 C   0  0  0  0  0  0  0  0  0  0  0  0
  148.1233  136.6907  155.5024 N   0  0  0  0  0  0  0  0  0  0  0  0
  147.2562  135.4829  155.3199 C   0  0  1  0  0  0  0  0  0  0  0  0
  147.4970  134.9638  154.0445 O   0  0  0  0  0  0  0  0  0  0  0  0
  148.0263  133.6433  154.1322 C   0  0  2  0  0  0  0  0  0  0  0  0
  147.6601  132.8231  152.8821 C   0  0  0  0  0  0  0  0  0  0  0  0
  148.2468  133.3926  151.7310 O   0  0  0  0  0  0  0  0  0  0  0  0
  147.5199  133.1245  155.4850 C   0  0  2  0  0  0  0  0  0  0  0  0
  146.2037  132.6069  155.3631 O   0  0  0  0  0  0  0  0  0  0  0  0
  147.5760  134.3834  156.3456 C   0  0  2  0  0  0  0  0  0  0  0  0
  146.6513  134.3237  157.4147 O   0  0  0  0  0  0  0  0  0  0  0  0
  152.2162  141.6795  158.1857 C   0  0  0  0  0  0  0  0  0  0  0  0
  152.4422  142.8097  157.3647 C   0  0  0  0  0  0  0  0  0  0  0  0
  152.8835  144.0253  157.9203 C   0  0  0  0  0  0  0  0  0  0  0  0
  153.1106  144.1239  159.3046 C   0  0  0  0  0  0  0  0  0  0  0  0
  152.9014  143.0038  160.1296 C   0  0  0  0  0  0  0  0  0  0  0  0
  152.4603  141.7835  159.5790 C   0  0  0  0  0  0  0  0  0  0  0  0
  152.2385  140.4367  160.6410 Cl  0  0  0  0  0  0  0  0  0  0  0  0
  146.2308  135.8507  155.3763 H   0  0  0  0  0  0  0  0  0  0  0  0
  149.1115  133.7287  154.1815 H   0  0  0  0  0  0  0  0  0  0  0  0
  148.1612  132.3365  155.8818 H   0  0  0  0  0  0  0  0  0  0  0  0
  148.5840  134.5175  156.7385 H   0  0  0  0  0  0  0  0  0  0  0  0
  153.7433  139.8103  156.8834 H   0  0  0  0  0  0  0  0  0  0  0  0
  152.7901  140.6472  155.6626 H   0  0  0  0  0  0  0  0  0  0  0  0
  152.4629  138.9592  156.0385 H   0  0  0  0  0  0  0  0  0  0  0  0
  151.7332  139.6149  158.3513 H   0  0  0  0  0  0  0  0  0  0  0  0
  150.1857  141.2623  156.4721 H   0  0  0  0  0  0  0  0  0  0  0  0
  147.3758  138.4455  159.5679 H   0  0  0  0  0  0  0  0  0  0  0  0
  149.1965  136.7554  153.6288 H   0  0  0  0  0  0  0  0  0  0  0  0
  147.9704  131.7825  152.9781 H   0  0  0  0  0  0  0  0  0  0  0  0
  146.5781  132.8172  152.7486 H   0  0  0  0  0  0  0  0  0  0  0  0
  148.4094  132.7040  151.1041 H   0  0  0  0  0  0  0  0  0  0  0  0
  146.2316  131.6788  155.5400 H   0  0  0  0  0  0  0  0  0  0  0  0
  146.1163  133.5529  157.2989 H   0  0  0  0  0  0  0  0  0  0  0  0
  152.2835  142.7533  156.2978 H   0  0  0  0  0  0  0  0  0  0  0  0
  153.0501  144.8814  157.2831 H   0  0  0  0  0  0  0  0  0  0  0  0
  153.4500  145.0557  159.7322 H   0  0  0  0  0  0  0  0  0  0  0  0
  153.0846  143.0809  161.1911 H   0  0  0  0  0  0  0  0  0  0  0  0
  1  2  1  0  0  0  0
  1 33  1  0  0  0  0
  1 34  1  0  0  0  0
  1 35  1  0  0  0  0
  2  3  1  0  0  0  0
  2 22  1  0  0  0  0
  2 36  1  0  0  0  0
  3  4  1  0  0  0  0
  3 37  1  0  0  0  0
  4  9  1  0  0  0  0
  4  5  2  0  0  0  0
  5  6  1  0  0  0  0
  6  7  2  0  0  0  0
  6 38  1  0  0  0  0
  7  8  1  0  0  0  0
  8 12  1  0  0  0  0
  8  9  2  0  0  0  0
  9 10  1  0  0  0  0
 10 11  2  0  0  0  0
 11 12  1  0  0  0  0
 11 39  1  0  0  0  0
 12 13  1  0  0  0  0
 13 29  1  0  0  0  0
 13 20  1  0  0  0  0
 13 14  1  0  0  0  0
 14 15  1  0  0  0  0
 15 30  1  0  0  0  0
 15 16  1  0  0  0  0
 15 18  1  0  0  0  0
 16 17  1  0  0  0  0
 16 40  1  0  0  0  0
 16 41  1  0  0  0  0
 17 42  1  0  0  0  0
 18 31  1  0  0  0  0
 18 19  1  0  0  0  0
 18 20  1  0  0  0  0
 19 43  1  0  0  0  0
 20 32  1  0  0  0  0
 20 21  1  0  0  0  0
 21 44  1  0  0  0  0
 22 27  1  0  0  0  0
 22 23  2  0  0  0  0
 23 24  1  0  0  0  0
 23 45  1  0  0  0  0
 24 25  2  0  0  0  0
 24 46  1  0  0  0  0
 25 26  1  0  0  0  0
 25 47  1  0  0  0  0
 26 27  2  0  0  0  0
 26 48  1  0  0  0  0
 27 28  1  0  0  0  0
M  END
> <s_m_source_file>
AV-unprocessed.smi

> <i_m_source_file_index>
283

> <i_lp_mmshare_version>
43012

> <i_f3d_flags>
0

> <s_epik_input>
Q2xjMVtjSF1bY0hdW2NIXVtjSF1jMVtDQEhdKFtDSDNdKVtOSF1jKG5bY0hdbjIpYyhjMjMpbltjSF1uM1tDQEBIXTRPW0NASF0oW0NIMl1bT0hdKVtDQEBIXShbT0hdKVtDQEhdNFtPSF0=

> <s_epik_cmdline>
J2VwaWtfcHl0aG9uJywgJy1waCcsICc3LjAnLCAnLXRuJywgJzgnLCAnLW1hJywgJzIwMCcsICctbWV0YWxfYmluZGluZycsICctaW1hZScsICc8aW5maWxlLm1hZT4nLCAnLW9tYWUnLCAnPG91dGZpbGUubWFlPic=

> <r_lp_tautomer_probability>
1

> <r_epik_Ionization_Penalty>
0.000266407

> <r_epik_Ionization_Penalty_Charging>
0

> <r_epik_Ionization_Penalty_Neutral>
0.000266407

> <r_epik_State_Penalty>
-0

> <r_epik_Charging_Adjusted_Penalty>
0

> <i_epik_Tot_Q>
0

> <i_epik_Tot_abs_Q>
0

> <r_epik_Metal_State_Penalty>
-0

> <b_epik_Metal_Only>
0

> <s_epik_Chemistry_Notes>
This compound contains an acetal/aminal-like group ( X-CH(R)-Y where X, Y are N, S, or O) that may be acid/base labile, releasing an aldehyde.

> <s_lp_Force_Field>
OPLS_2005

> <r_lp_Energy>
49.1948

> <b_lp_Chiralities_Consistent>
1

> <s_lp_Variant>
AV-unprocessed.smi:283-27

> <Gold.Version>
5.8.1

> <Gold.Id.Protein>
6NUR|6NUR_protein|mol2

> <Gold.PLP.Fitness>
49.2248

> <Gold.PLP.PLP>
-41.4162

> <Gold.PLP.part.hbond>
-4.0000

> <Gold.PLP.part.metal>
0.0000

> <Gold.PLP.part.buried>
-3.8942

> <Gold.PLP.part.nonpolar>
-34.3799

> <Gold.PLP.part.repulsive>
0.1922

> <Gold.PLP.ligand.clash>
0.0000

> <Gold.PLP.ligand.torsion>
1.0367

> <Gold.PLP.Chemscore.Hbond>
2.2736

> <Gold.PLP.Chemscore.CHOScore>
1.0000

> <Gold.PLP.Chemscore.Metal>
0.0000

> <Gold.Chemscore.Hbonds>
donor molecule, donor type, donor heavy atom, donor atom, acceptor molecule, acceptor atom, score
      L1  H    17    42       P1 10747  0.86
      L1  C    11    39       P1  7948  0.52

> <Gold.PLP.Chemscore.Internal.Correction>
0.0611

> <Gold.Rescore>
     Score         DG    S(hbond)    S(metal)    S(lipo)     H(rot)  DE(clash)    DE(int)     intcor
     12.44     -13.28       1.97        0.00     100.17       4.10       0.01       0.83       ----

> <Gold.Chemscore.Fitness>
12.4434

> <Gold.Chemscore.DG>
-13.2836

> <Gold.Chemscore.ZeroCoef>
-5.4800

> <Gold.Chemscore.Hbond>
1.9674

> <Gold.Chemscore.Metal>
0.0000

> <Gold.Chemscore.Lipo>
100.1744

> <Gold.Chemscore.Internal_Hbond>
0.0000

> <Gold.Chemscore.DEClash>
0.0149

> <Gold.Chemscore.DEInternal>
0.8253

> <Gold.Chemscore.Rot>
4.0968

> <Gold.Chemscore.Internal.Correction>
   9.000000E+99

> <Gold.Chemscore.Hbonds>
donor molecule, donor type, donor heavy atom, donor atom, acceptor molecule, acceptor atom, score
      L1  H    17    42       P1 10747  0.84

> <Gold.Chemscore.Hbond.Weighted>
-6.5711

> <Gold.Chemscore.Metal.Weighted>
-0.0000

> <Gold.Chemscore.Lipo.Weighted>
-11.7204

> <Gold.Chemscore.Internal_Hbond.Weighted>
0.0000

> <Gold.Chemscore.DEClash.Weighted>
0.0149

> <Gold.Chemscore.DEInternal.Weighted>
0.8253

> <Gold.Chemscore.Rot.Weighted>
10.4879

> <Gold.Chemscore.Internal.Correction.Weighted>
   9.000000E+99

> <Gold.Protein.RotatedTorsions>
[ 6907 6896 6895 6894 ] final   84.76 input  -60.11 | X-H torsion
[ 7974 7965 7964 7962 ] final   40.16 input  175.53 | X-H torsion
[ 8008 7997 7996 7995 ] final -131.73 input   59.86 | X-H torsion
[ 10167 10162 10161 10158 ] final   38.71 input  -65.29 | X-H torsion
[ 10718 10713 10712 10709 ] final  151.15 input   66.30 | X-H torsion
[ 10763 10752 10751 10750 ] final   64.24 input  -60.55 | X-H torsion
[ 11005 11000 10999 10996 ] final  -96.00 input  -57.11 | X-H torsion

> <Gold.Protein.ActiveResidues>
 VAL166  LYS551  ARG553  GLY616  TRP617  ASP618  TYR619  PRO620  LYS621  CYS622 
 ASP623  PHE694  ASN695  SER759  ASP760  ASP761  ALA762  ILE779  LEU786  VAL792 
 PHE793  MET794  SER795  GLU796  ALA797  LYS798  CYS799  TRP800  GLU811  SER814 

> <Gold.Protein.RotatedAtoms>
  152.5360  134.2690  159.8964 H   0  0  0  0  0  0  0  0  0  0  0  0  # atno 6907 bound_to 6896
  151.2647  133.4278  159.2625 H   0  0  0  0  0  0  0  0  0  0  0  0  # atno 6908 bound_to 6896
  151.0421  134.9629  159.8223 H   0  0  0  0  0  0  0  0  0  0  0  0  # atno 6909 bound_to 6896
  146.0927  139.5566  142.9465 H   0  0  0  0  0  0  0  0  0  0  0  0  # atno 7974 bound_to 7965
  155.3171  140.0460  157.3037 H   0  0  0  0  0  0  0  0  0  0  0  0  # atno 8008 bound_to 7997
  154.5400  140.2285  155.8623 H   0  0  0  0  0  0  0  0  0  0  0  0  # atno 8009 bound_to 7997
  156.1872  140.3059  155.9268 H   0  0  0  0  0  0  0  0  0  0  0  0  # atno 8010 bound_to 7997
  140.3910  144.1852  150.6131 H   0  0  0  0  0  0  0  0  0  0  0  0  # atno 10167 bound_to 10162
  157.2744  131.0823  151.1577 H   0  0  0  0  0  0  0  0  0  0  0  0  # atno 10718 bound_to 10713
  153.0048  135.5400  154.6479 H   0  0  0  0  0  0  0  0  0  0  0  0  # atno 10763 bound_to 10752
  154.5719  135.2842  155.0821 H   0  0  0  0  0  0  0  0  0  0  0  0  # atno 10764 bound_to 10752
  154.1984  135.6488  153.5132 H   0  0  0  0  0  0  0  0  0  0  0  0  # atno 10765 bound_to 10752
  141.1425  133.8066  157.0512 H   0  0  0  0  0  0  0  0  0  0  0  0  # atno 11005 bound_to 11000
  145.6008  141.0355  143.2019 LP  0  0  0  0  0  0  0  0  0  0  0  0  # atno 17320 bound_to 7965
  144.7372  139.7552  143.7325 LP  0  0  0  0  0  0  0  0  0  0  0  0  # atno 17321 bound_to 7965
  140.4839  143.2370  151.8916 LP  0  0  0  0  0  0  0  0  0  0  0  0  # atno 17342 bound_to 10162
  139.4789  144.5239  151.8762 LP  0  0  0  0  0  0  0  0  0  0  0  0  # atno 17343 bound_to 10162
  157.3036  130.6855  149.6177 LP  0  0  0  0  0  0  0  0  0  0  0  0  # atno 17370 bound_to 10713
  155.9663  130.4384  150.5218 LP  0  0  0  0  0  0  0  0  0  0  0  0  # atno 17371 bound_to 10713
  140.0630  134.9744  157.1338 LP  0  0  0  0  0  0  0  0  0  0  0  0  # atno 17394 bound_to 11000
  140.3820  134.2277  155.7170 LP  0  0  0  0  0  0  0  0  0  0  0  0  # atno 17395 bound_to 11000

$$$$
