AV-unprocessed.smi:1291|AV-procd|sdf|5393|dock3
  -GOLD-   22720 4543D 1   1.00000     0.00000
 Structure written by MMmdl.
 44 46  0  0  0  0  0  0  0  0  2 V2000
  149.8886  140.1056  153.8647 O   0  0  0  0  0  0  0  0  0  0  0  0
  149.2246  141.0530  154.6745 C   0  0  0  0  0  0  0  0  0  0  0  0
  150.0555  141.5391  155.8197 C   0  0  0  0  0  0  0  0  0  0  0  0
  150.2227  142.8365  156.2062 N   0  3  0  0  0  0  0  0  0  0  0  0
  151.0605  142.8955  157.3200 C   0  0  0  0  0  0  0  0  0  0  0  0
  151.5130  143.9820  158.0627 C   0  0  0  0  0  0  0  0  0  0  0  0
  152.3573  143.6942  159.1550 C   0  0  0  0  0  0  0  0  0  0  0  0
  152.7220  142.3695  159.4715 C   0  0  0  0  0  0  0  0  0  0  0  0
  152.2612  141.2770  158.7078 C   0  0  0  0  0  0  0  0  0  0  0  0
  151.4259  141.5693  157.6292 C   0  0  0  0  0  0  0  0  0  0  0  0
  150.7871  140.7678  156.6743 N   0  0  0  0  0  0  0  0  0  0  0  0
  150.9673  139.3070  156.7085 C   0  0  0  0  0  0  0  0  0  0  0  0
  150.4817  138.6706  158.0263 C   0  0  2  0  0  0  0  0  0  0  0  0
  150.9027  137.3218  158.0790 O   0  0  0  0  0  0  0  0  0  0  0  0
  148.9505  138.7019  158.1438 C   0  0  0  0  0  0  0  0  0  0  0  0
  148.5683  138.0570  159.3472 O   0  0  0  0  0  0  0  0  0  0  0  0
  147.9086  136.8222  159.1241 C   0  0  0  0  0  0  0  0  0  0  0  0
  147.5770  136.1295  160.4314 C   0  0  0  0  0  0  0  0  0  0  0  0
  147.3190  136.8892  161.5921 C   0  0  0  0  0  0  0  0  0  0  0  0
  147.0110  136.2445  162.8061 C   0  0  0  0  0  0  0  0  0  0  0  0
  146.9583  134.8384  162.8639 C   0  0  0  0  0  0  0  0  0  0  0  0
  147.2127  134.0771  161.7068 C   0  0  0  0  0  0  0  0  0  0  0  0
  147.5215  134.7201  160.4920 C   0  0  0  0  0  0  0  0  0  0  0  0
  147.7662  133.9791  159.3845 F   0  0  0  0  0  0  0  0  0  0  0  0
  149.3972  139.9967  153.0644 H   0  0  0  0  0  0  0  0  0  0  0  0
  148.9359  141.9030  154.0559 H   0  0  0  0  0  0  0  0  0  0  0  0
  148.3082  140.6067  155.0608 H   0  0  0  0  0  0  0  0  0  0  0  0
  151.2331  144.9972  157.8230 H   0  0  0  0  0  0  0  0  0  0  0  0
  152.7306  144.5051  159.7636 H   0  0  0  0  0  0  0  0  0  0  0  0
  153.3668  142.1860  160.3189 H   0  0  0  0  0  0  0  0  0  0  0  0
  152.5417  140.2663  158.9647 H   0  0  0  0  0  0  0  0  0  0  0  0
  150.4047  138.8955  155.8697 H   0  0  0  0  0  0  0  0  0  0  0  0
  152.0127  139.0666  156.5139 H   0  0  0  0  0  0  0  0  0  0  0  0
  150.9235  139.2100  158.8651 H   0  0  0  0  0  0  0  0  0  0  0  0
  150.2771  136.8354  158.5948 H   0  0  0  0  0  0  0  0  0  0  0  0
  148.6053  139.7364  158.1857 H   0  0  0  0  0  0  0  0  0  0  0  0
  148.4797  138.2384  157.2748 H   0  0  0  0  0  0  0  0  0  0  0  0
  146.9954  136.9881  158.5507 H   0  0  0  0  0  0  0  0  0  0  0  0
  148.5430  136.1606  158.5318 H   0  0  0  0  0  0  0  0  0  0  0  0
  147.3590  137.9679  161.5569 H   0  0  0  0  0  0  0  0  0  0  0  0
  146.8156  136.8293  163.6931 H   0  0  0  0  0  0  0  0  0  0  0  0
  146.7231  134.3440  163.7949 H   0  0  0  0  0  0  0  0  0  0  0  0
  147.1714  132.9987  161.7513 H   0  0  0  0  0  0  0  0  0  0  0  0
  149.7874  143.6208  155.7377 H   0  0  0  0  0  0  0  0  0  0  0  0
  1  2  1  0  0  0  0
  1 25  1  0  0  0  0
  2  3  1  0  0  0  0
  2 26  1  0  0  0  0
  2 27  1  0  0  0  0
  3 11  1  0  0  0  0
  3  4  2  0  0  0  0
  4  5  1  0  0  0  0
  4 44  1  0  0  0  0
  5 10  2  0  0  0  0
  5  6  1  0  0  0  0
  6  7  2  0  0  0  0
  6 28  1  0  0  0  0
  7  8  1  0  0  0  0
  7 29  1  0  0  0  0
  8  9  2  0  0  0  0
  8 30  1  0  0  0  0
  9 10  1  0  0  0  0
  9 31  1  0  0  0  0
 10 11  1  0  0  0  0
 11 12  1  0  0  0  0
 12 13  1  0  0  0  0
 12 32  1  0  0  0  0
 12 33  1  0  0  0  0
 13 14  1  0  0  0  0
 13 15  1  0  0  0  0
 13 34  1  0  0  0  0
 14 35  1  0  0  0  0
 15 16  1  0  0  0  0
 15 36  1  0  0  0  0
 15 37  1  0  0  0  0
 16 17  1  0  0  0  0
 17 18  1  0  0  0  0
 17 38  1  0  0  0  0
 17 39  1  0  0  0  0
 18 23  1  0  0  0  0
 18 19  2  0  0  0  0
 19 20  1  0  0  0  0
 19 40  1  0  0  0  0
 20 21  2  0  0  0  0
 20 41  1  0  0  0  0
 21 22  1  0  0  0  0
 21 42  1  0  0  0  0
 22 23  2  0  0  0  0
 22 43  1  0  0  0  0
 23 24  1  0  0  0  0
M  CHG  1   4   1
M  END
> <s_m_source_file>
AV-unprocessed.smi

> <i_m_source_file_index>
1291

> <i_lp_mmshare_version>
43012

> <i_f3d_flags>
0

> <s_epik_input>
W2NIXTFbY0hdW2NIXVtjSF1jKGMxMiluKGMobjIpW0NIMl1bT0hdKVtDSDJdW0NASF0oW09IXSlbQ0gyXU9bQ0gyXWMzW2NIXVtjSF1bY0hdW2NIXWMzRg==

> <s_epik_cmdline>
J2VwaWtfcHl0aG9uJywgJy1waCcsICc3LjAnLCAnLXRuJywgJzgnLCAnLW1hJywgJzIwMCcsICctbWV0YWxfYmluZGluZycsICctaW1hZScsICc8aW5maWxlLm1hZT4nLCAnLW9tYWUnLCAnPG91dGZpbGUubWFlPic=

> <r_epik_Ionization_Penalty>
1.34314

> <r_epik_Ionization_Penalty_Charging>
1.34228

> <r_epik_Ionization_Penalty_Neutral>
0.000856861

> <r_epik_State_Penalty>
1.41963

> <r_epik_Charging_Adjusted_Penalty>
2.76191

> <i_epik_Tot_Q>
1

> <i_epik_Tot_abs_Q>
1

> <r_epik_Metal_State_Penalty>
5.45585

> <b_epik_Metal_Only>
0

> <s_lp_Force_Field>
OPLS_2005

> <r_lp_Energy>
17.9638

> <b_lp_Chiralities_Consistent>
1

> <s_lp_Variant>
AV-unprocessed.smi:1291-3

> <Gold.Version>
5.8.1

> <Gold.Id.Protein>
6NUR|6NUR_protein|mol2

> <Gold.PLP.Fitness>
65.1566

> <Gold.PLP.PLP>
-55.1653

> <Gold.PLP.part.hbond>
-4.9793

> <Gold.PLP.part.metal>
0.0000

> <Gold.PLP.part.buried>
-5.0836

> <Gold.PLP.part.nonpolar>
-45.2323

> <Gold.PLP.part.repulsive>
0.0934

> <Gold.PLP.ligand.clash>
0.0000

> <Gold.PLP.ligand.torsion>
0.9456

> <Gold.PLP.Chemscore.Hbond>
3.9120

> <Gold.PLP.Chemscore.CHOScore>
0.0000

> <Gold.PLP.Chemscore.Metal>
0.0000

> <Gold.Chemscore.Hbonds>
donor molecule, donor type, donor heavy atom, donor atom, acceptor molecule, acceptor atom, score
      L1  H     1    25       P1  7957  0.82
      L1  H     4    44       P1  8028  1.43
      P1  H  6934  6947       L1    16  0.06
      P1  H  7989  7998       L1     1  0.78

> <Gold.PLP.Chemscore.Internal.Correction>
0.1465

> <Gold.Rescore>
     Score         DG    S(hbond)    S(metal)    S(lipo)     H(rot)  DE(clash)    DE(int)     intcor
     18.27     -19.14       2.10        0.00     131.88       3.44       0.11       0.76       ----

> <Gold.Chemscore.Fitness>
18.2684

> <Gold.Chemscore.DG>
-19.1406

> <Gold.Chemscore.ZeroCoef>
-5.4800

> <Gold.Chemscore.Hbond>
2.1034

> <Gold.Chemscore.Metal>
0.0000

> <Gold.Chemscore.Lipo>
131.8772

> <Gold.Chemscore.Internal_Hbond>
0.0000

> <Gold.Chemscore.DEClash>
0.1144

> <Gold.Chemscore.DEInternal>
0.7579

> <Gold.Chemscore.Rot>
3.4353

> <Gold.Chemscore.Internal.Correction>
   9.000000E+99

> <Gold.Chemscore.Hbonds>
donor molecule, donor type, donor heavy atom, donor atom, acceptor molecule, acceptor atom, score
      L1  H     1    25       P1  7957  0.81
      L1  H     4    44       P1  8028  0.71
      P1  H  6934  6947       L1    16  0.02
      P1  H  7989  7998       L1     1  0.31

> <Gold.Chemscore.Hbond.Weighted>
-7.0254

> <Gold.Chemscore.Metal.Weighted>
-0.0000

> <Gold.Chemscore.Lipo.Weighted>
-15.4296

> <Gold.Chemscore.Internal_Hbond.Weighted>
0.0000

> <Gold.Chemscore.DEClash.Weighted>
0.1144

> <Gold.Chemscore.DEInternal.Weighted>
0.7579

> <Gold.Chemscore.Rot.Weighted>
8.7944

> <Gold.Chemscore.Internal.Correction.Weighted>
   9.000000E+99

> <Gold.Protein.RotatedTorsions>
[ 6907 6896 6895 6894 ] final   -2.10 input  -60.11 | X-H torsion
[ 7974 7965 7964 7962 ] final  -68.04 input  175.53 | X-H torsion
[ 8008 7997 7996 7995 ] final  -94.10 input   59.86 | X-H torsion
[ 10167 10162 10161 10158 ] final   21.38 input  -65.29 | X-H torsion
[ 10718 10713 10712 10709 ] final  178.41 input   66.30 | X-H torsion
[ 10763 10752 10751 10750 ] final  -63.24 input  -60.55 | X-H torsion
[ 11005 11000 10999 10996 ] final -174.36 input  -57.11 | X-H torsion

> <Gold.Protein.ActiveResidues>
 VAL166  LYS551  ARG553  GLY616  TRP617  ASP618  TYR619  PRO620  LYS621  CYS622 
 ASP623  PHE694  ASN695  SER759  ASP760  ASP761  ALA762  ILE779  LEU786  VAL792 
 PHE793  MET794  SER795  GLU796  ALA797  LYS798  CYS799  TRP800  GLU811  SER814 

> <Gold.Protein.RotatedAtoms>
  151.5354  135.1068  159.9912 H   0  0  0  0  0  0  0  0  0  0  0  0  # atno 6907 bound_to 6896
  152.4559  133.7719  159.6814 H   0  0  0  0  0  0  0  0  0  0  0  0  # atno 6908 bound_to 6896
  150.8503  133.7731  159.3052 H   0  0  0  0  0  0  0  0  0  0  0  0  # atno 6909 bound_to 6896
  145.7216  140.9036  143.0627 H   0  0  0  0  0  0  0  0  0  0  0  0  # atno 7974 bound_to 7965
  154.7440  140.0492  157.0836 H   0  0  0  0  0  0  0  0  0  0  0  0  # atno 8008 bound_to 7997
  155.0141  140.3139  155.4799 H   0  0  0  0  0  0  0  0  0  0  0  0  # atno 8009 bound_to 7997
  156.2871  140.2179  156.5257 H   0  0  0  0  0  0  0  0  0  0  0  0  # atno 8010 bound_to 7997
  140.5431  143.9642  150.6531 H   0  0  0  0  0  0  0  0  0  0  0  0  # atno 10167 bound_to 10162
  156.8909  130.9847  151.3049 H   0  0  0  0  0  0  0  0  0  0  0  0  # atno 10718 bound_to 10713
  154.3120  135.6213  153.5469 H   0  0  0  0  0  0  0  0  0  0  0  0  # atno 10763 bound_to 10752
  152.9828  135.5703  154.5167 H   0  0  0  0  0  0  0  0  0  0  0  0  # atno 10764 bound_to 10752
  154.4818  135.2863  155.1541 H   0  0  0  0  0  0  0  0  0  0  0  0  # atno 10765 bound_to 10752
  140.4754  134.6126  157.4898 H   0  0  0  0  0  0  0  0  0  0  0  0  # atno 11005 bound_to 11000
  144.6915  139.9209  143.7468 LP  0  0  0  0  0  0  0  0  0  0  0  0  # atno 17320 bound_to 7965
  146.0621  139.3613  143.0575 LP  0  0  0  0  0  0  0  0  0  0  0  0  # atno 17321 bound_to 7965
  140.3048  143.3237  152.0937 LP  0  0  0  0  0  0  0  0  0  0  0  0  # atno 17342 bound_to 10162
  139.4996  144.6674  151.6324 LP  0  0  0  0  0  0  0  0  0  0  0  0  # atno 17343 bound_to 10162
  157.6084  130.8564  149.8912 LP  0  0  0  0  0  0  0  0  0  0  0  0  # atno 17370 bound_to 10713
  156.0629  130.3697  150.0942 LP  0  0  0  0  0  0  0  0  0  0  0  0  # atno 17371 bound_to 10713
  139.9859  134.7062  155.9775 LP  0  0  0  0  0  0  0  0  0  0  0  0  # atno 17394 bound_to 11000
  141.1557  133.6543  156.4153 LP  0  0  0  0  0  0  0  0  0  0  0  0  # atno 17395 bound_to 11000

$$$$
