AV-unprocessed.smi:2764|AV-procd|sdf|10641|dock9
  -GOLD-   2272015 93D 1   1.00000     0.00000
 Structure written by MMmdl.
 47 49  0  0  0  0  0  0  0  0  2 V2000
  145.0783  138.5805  155.7802 O   0  0  0  0  0  0  0  0  0  0  0  0
  144.6763  139.7308  155.6032 C   0  0  0  0  0  0  0  0  0  0  0  0
  143.4114  140.0765  155.3046 N   0  0  0  0  0  0  0  0  0  0  0  0
  142.2942  139.2230  155.1007 C   0  0  0  0  0  0  0  0  0  0  0  0
  141.4338  139.6043  154.0459 C   0  0  0  0  0  0  0  0  0  0  0  0
  140.2992  138.8204  153.7592 C   0  0  0  0  0  0  0  0  0  0  0  0
  140.0546  137.6754  154.5380 C   0  0  0  0  0  0  0  0  0  0  0  0
  138.9765  136.8914  154.3000 F   0  0  0  0  0  0  0  0  0  0  0  0
  140.9590  137.3659  155.5705 C   0  0  0  0  0  0  0  0  0  0  0  0
  142.0475  138.1158  155.8455 N   0  0  0  0  0  0  0  0  0  0  0  0
  145.4704  140.8088  155.6872 N   0  0  0  0  0  0  0  0  0  0  0  0
  146.9036  140.7711  155.9638 C   0  0  2  0  0  0  0  0  0  0  0  0
  147.2517  141.6091  157.2069 C   0  0  0  0  0  0  0  0  0  0  0  0
  148.7706  141.6371  157.4479 C   0  0  0  0  0  0  0  0  0  0  0  0
  149.4988  142.1428  156.2546 N   0  3  1  0  0  0  0  0  0  0  0  0
  150.9563  142.3051  156.4978 C   0  0  0  0  0  0  0  0  0  0  0  0
  151.2507  142.9617  157.8605 C   0  0  1  0  0  0  0  0  0  0  0  0
  152.3813  142.2923  158.6168 C   0  0  0  0  0  0  0  0  0  0  0  0
  152.7584  143.3580  159.6408 C   0  0  0  0  0  0  0  0  0  0  0  0
  152.4847  144.6078  159.0156 O   0  0  0  0  0  0  0  0  0  0  0  0
  151.7668  144.4008  157.8035 C   0  0  0  0  0  0  0  0  0  0  0  0
  149.1976  141.3278  155.0478 C   0  0  0  0  0  0  0  0  0  0  0  0
  147.6884  141.3027  154.7548 C   0  0  0  0  0  0  0  0  0  0  0  0
  143.2288  141.0629  155.1933 H   0  0  0  0  0  0  0  0  0  0  0  0
  141.6376  140.4872  153.4575 H   0  0  0  0  0  0  0  0  0  0  0  0
  139.6302  139.0935  152.9565 H   0  0  0  0  0  0  0  0  0  0  0  0
  140.8063  136.4955  156.1914 H   0  0  0  0  0  0  0  0  0  0  0  0
  145.0580  141.7170  155.5307 H   0  0  0  0  0  0  0  0  0  0  0  0
  147.2043  139.7357  156.1366 H   0  0  0  0  0  0  0  0  0  0  0  0
  146.8844  142.6291  157.0829 H   0  0  0  0  0  0  0  0  0  0  0  0
  146.7505  141.2059  158.0878 H   0  0  0  0  0  0  0  0  0  0  0  0
  148.9809  142.2773  158.3058 H   0  0  0  0  0  0  0  0  0  0  0  0
  149.1308  140.6382  157.6995 H   0  0  0  0  0  0  0  0  0  0  0  0
  151.4319  141.3231  156.5020 H   0  0  0  0  0  0  0  0  0  0  0  0
  151.4280  142.8545  155.6817 H   0  0  0  0  0  0  0  0  0  0  0  0
  150.3560  142.9273  158.4847 H   0  0  0  0  0  0  0  0  0  0  0  0
  152.0907  141.3478  159.0777 H   0  0  0  0  0  0  0  0  0  0  0  0
  153.2250  142.1015  157.9518 H   0  0  0  0  0  0  0  0  0  0  0  0
  152.1330  143.2708  160.5299 H   0  0  0  0  0  0  0  0  0  0  0  0
  153.8012  143.2864  159.9509 H   0  0  0  0  0  0  0  0  0  0  0  0
  152.4591  144.5318  156.9706 H   0  0  0  0  0  0  0  0  0  0  0  0
  150.9631  145.1296  157.6963 H   0  0  0  0  0  0  0  0  0  0  0  0
  149.7217  141.7272  154.1809 H   0  0  0  0  0  0  0  0  0  0  0  0
  149.5650  140.3107  155.1943 H   0  0  0  0  0  0  0  0  0  0  0  0
  147.4941  140.6811  153.8800 H   0  0  0  0  0  0  0  0  0  0  0  0
  147.3503  142.3089  154.5014 H   0  0  0  0  0  0  0  0  0  0  0  0
  149.1358  143.0697  156.0830 H   0  0  0  0  0  0  0  0  0  0  0  0
  1  2  2  0  0  0  0
  2  3  1  0  0  0  0
  2 11  1  0  0  0  0
  3  4  1  0  0  0  0
  3 24  1  0  0  0  0
  4 10  1  0  0  0  0
  4  5  2  0  0  0  0
  5  6  1  0  0  0  0
  5 25  1  0  0  0  0
  6  7  2  0  0  0  0
  6 26  1  0  0  0  0
  7  8  1  0  0  0  0
  7  9  1  0  0  0  0
  9 10  2  0  0  0  0
  9 27  1  0  0  0  0
 11 12  1  0  0  0  0
 11 28  1  0  0  0  0
 12 23  1  0  0  0  0
 12 13  1  0  0  0  0
 12 29  1  0  0  0  0
 13 14  1  0  0  0  0
 13 30  1  0  0  0  0
 13 31  1  0  0  0  0
 14 15  1  0  0  0  0
 14 32  1  0  0  0  0
 14 33  1  0  0  0  0
 15 16  1  0  0  0  0
 15 22  1  0  0  0  0
 15 47  1  0  0  0  0
 16 17  1  0  0  0  0
 16 34  1  0  0  0  0
 16 35  1  0  0  0  0
 17 21  1  0  0  0  0
 17 18  1  0  0  0  0
 17 36  1  0  0  0  0
 18 19  1  0  0  0  0
 18 37  1  0  0  0  0
 18 38  1  0  0  0  0
 19 20  1  0  0  0  0
 19 39  1  0  0  0  0
 19 40  1  0  0  0  0
 20 21  1  0  0  0  0
 21 41  1  0  0  0  0
 21 42  1  0  0  0  0
 22 23  1  0  0  0  0
 22 43  1  0  0  0  0
 22 44  1  0  0  0  0
 23 45  1  0  0  0  0
 23 46  1  0  0  0  0
M  CHG  1  15   1
M  END
> <s_m_source_file>
AV-unprocessed.smi

> <i_m_source_file_index>
2764

> <i_lp_mmshare_version>
43012

> <i_f3d_flags>
0

> <s_epik_input>
bjFbY0hdYyhGKVtjSF1bY0hdYzFbTkhdQyg9TylbTkhdW0NIXTJbQ0gyXVtDSDJdTihbQ0gyXVtDSDJdMilbQ0gyXVtDQEBIXTNbQ0gyXVtDSDJdT1tDSDJdMw==

> <s_epik_cmdline>
J2VwaWtfcHl0aG9uJywgJy1waCcsICc3LjAnLCAnLXRuJywgJzgnLCAnLW1hJywgJzIwMCcsICctbWV0YWxfYmluZGluZycsICctaW1hZScsICc8aW5maWxlLm1hZT4nLCAnLW9tYWUnLCAnPG91dGZpbGUubWFlPic=

> <r_epik_Ionization_Penalty>
0.0075076

> <r_epik_Ionization_Penalty_Charging>
0.00747775

> <r_epik_Ionization_Penalty_Neutral>
2.98483e-05

> <r_epik_State_Penalty>
0.00558817

> <r_epik_Charging_Adjusted_Penalty>
0.0130659

> <i_epik_Tot_Q>
1

> <i_epik_Tot_abs_Q>
1

> <r_epik_Metal_State_Penalty>
-0

> <b_epik_Metal_Only>
0

> <s_lp_Force_Field>
OPLS_2005

> <r_lp_Energy>
37.3143

> <b_lp_Chiralities_Consistent>
1

> <s_lp_Variant>
AV-unprocessed.smi:2764-2

> <Gold.Version>
5.8.1

> <Gold.Id.Protein>
6NUR|6NUR_protein|mol2

> <Gold.PLP.Fitness>
40.5787

> <Gold.PLP.PLP>
-33.6661

> <Gold.PLP.part.hbond>
-2.0000

> <Gold.PLP.part.metal>
0.0000

> <Gold.PLP.part.buried>
-2.6808

> <Gold.PLP.part.nonpolar>
-28.5598

> <Gold.PLP.part.repulsive>
0.1574

> <Gold.PLP.ligand.clash>
0.0000

> <Gold.PLP.ligand.torsion>
1.0575

> <Gold.PLP.Chemscore.Hbond>
2.0000

> <Gold.PLP.Chemscore.CHOScore>
1.0000

> <Gold.PLP.Chemscore.Metal>
0.0000

> <Gold.Chemscore.Hbonds>
donor molecule, donor type, donor heavy atom, donor atom, acceptor molecule, acceptor atom, score
      L1  H    15    47       P1  8028  2.00
      L1  C     9    27       P1 11000  1.00

> <Gold.PLP.Chemscore.Internal.Correction>
0.0275

> <Gold.Rescore>
     Score         DG    S(hbond)    S(metal)    S(lipo)     H(rot)  DE(clash)    DE(int)     intcor
     13.61     -15.38       1.00        0.00      88.73       1.49       0.05       1.72       ----

> <Gold.Chemscore.Fitness>
13.6117

> <Gold.Chemscore.DG>
-15.3784

> <Gold.Chemscore.ZeroCoef>
-5.4800

> <Gold.Chemscore.Hbond>
0.9967

> <Gold.Chemscore.Metal>
0.0000

> <Gold.Chemscore.Lipo>
88.7323

> <Gold.Chemscore.Internal_Hbond>
0.0000

> <Gold.Chemscore.DEClash>
0.0458

> <Gold.Chemscore.DEInternal>
1.7210

> <Gold.Chemscore.Rot>
1.4891

> <Gold.Chemscore.Internal.Correction>
   9.000000E+99

> <Gold.Chemscore.Hbonds>
donor molecule, donor type, donor heavy atom, donor atom, acceptor molecule, acceptor atom, score
      L1  H    15    47       P1  8028  1.00

> <Gold.Chemscore.Hbond.Weighted>
-3.3288

> <Gold.Chemscore.Metal.Weighted>
-0.0000

> <Gold.Chemscore.Lipo.Weighted>
-10.3817

> <Gold.Chemscore.Internal_Hbond.Weighted>
0.0000

> <Gold.Chemscore.DEClash.Weighted>
0.0458

> <Gold.Chemscore.DEInternal.Weighted>
1.7210

> <Gold.Chemscore.Rot.Weighted>
3.8121

> <Gold.Chemscore.Internal.Correction.Weighted>
   9.000000E+99

> <Gold.Protein.RotatedTorsions>
[ 6907 6896 6895 6894 ] final   82.32 input  -60.11 | X-H torsion
[ 7974 7965 7964 7962 ] final -145.12 input  175.53 | X-H torsion
[ 8008 7997 7996 7995 ] final -159.64 input   59.86 | X-H torsion
[ 10167 10162 10161 10158 ] final -110.18 input  -65.29 | X-H torsion
[ 10718 10713 10712 10709 ] final  167.50 input   66.30 | X-H torsion
[ 10763 10752 10751 10750 ] final -136.40 input  -60.55 | X-H torsion
[ 11005 11000 10999 10996 ] final  -85.29 input  -57.11 | X-H torsion

> <Gold.Protein.ActiveResidues>
 VAL166  LYS551  ARG553  GLY616  TRP617  ASP618  TYR619  PRO620  LYS621  CYS622 
 ASP623  PHE694  ASN695  SER759  ASP760  ASP761  ALA762  ILE779  LEU786  VAL792 
 PHE793  MET794  SER795  GLU796  ALA797  LYS798  CYS799  TRP800  GLU811  SER814 

> <Gold.Protein.RotatedAtoms>
  152.5295  134.3069  159.9098 H   0  0  0  0  0  0  0  0  0  0  0  0  # atno 6907 bound_to 6896
  151.3018  133.4112  159.2648 H   0  0  0  0  0  0  0  0  0  0  0  0  # atno 6908 bound_to 6896
  151.0112  134.9414  159.8065 H   0  0  0  0  0  0  0  0  0  0  0  0  # atno 6909 bound_to 6896
  144.8249  140.5624  143.5553 H   0  0  0  0  0  0  0  0  0  0  0  0  # atno 7974 bound_to 7965
  155.7656  140.0845  157.2134 H   0  0  0  0  0  0  0  0  0  0  0  0  # atno 8008 bound_to 7997
  154.4000  140.1535  156.2939 H   0  0  0  0  0  0  0  0  0  0  0  0  # atno 8009 bound_to 7997
  155.8797  140.3421  155.5882 H   0  0  0  0  0  0  0  0  0  0  0  0  # atno 8010 bound_to 7997
  140.1473  143.4229  152.1520 H   0  0  0  0  0  0  0  0  0  0  0  0  # atno 10167 bound_to 10162
  157.0507  131.0312  151.2682 H   0  0  0  0  0  0  0  0  0  0  0  0  # atno 10718 bound_to 10713
  154.8684  135.3674  154.5054 H   0  0  0  0  0  0  0  0  0  0  0  0  # atno 10763 bound_to 10752
  153.5692  135.7021  153.5517 H   0  0  0  0  0  0  0  0  0  0  0  0  # atno 10764 bound_to 10752
  153.3557  135.4060  155.1643 H   0  0  0  0  0  0  0  0  0  0  0  0  # atno 10765 bound_to 10752
  141.1642  133.7391  156.8993 H   0  0  0  0  0  0  0  0  0  0  0  0  # atno 11005 bound_to 11000
  145.5021  139.1483  143.3651 LP  0  0  0  0  0  0  0  0  0  0  0  0  # atno 17320 bound_to 7965
  146.2555  140.5161  142.8875 LP  0  0  0  0  0  0  0  0  0  0  0  0  # atno 17321 bound_to 7965
  139.5443  144.7284  151.4634 LP  0  0  0  0  0  0  0  0  0  0  0  0  # atno 17342 bound_to 10162
  140.6724  143.8264  150.7016 LP  0  0  0  0  0  0  0  0  0  0  0  0  # atno 17343 bound_to 10162
  157.5033  130.7893  149.7627 LP  0  0  0  0  0  0  0  0  0  0  0  0  # atno 17370 bound_to 10713
  156.0009  130.3881  150.2611 LP  0  0  0  0  0  0  0  0  0  0  0  0  # atno 17371 bound_to 10713
  140.1594  134.9176  157.2695 LP  0  0  0  0  0  0  0  0  0  0  0  0  # atno 17394 bound_to 11000
  140.2629  134.3550  155.7400 LP  0  0  0  0  0  0  0  0  0  0  0  0  # atno 17395 bound_to 11000

$$$$
