AV-unprocessed.smi:1517|AV-procd|sdf|6123|dock1
  -GOLD-   22720 6253D 1   1.00000     0.00000
 Structure written by MMmdl.
 41 43  0  0  0  0  0  0  0  0  1 V2000
  151.4966  136.6273  153.7802 O   0  0  0  0  0  0  0  0  0  0  0  0
  151.7421  137.9833  154.0813 C   0  0  0  0  0  0  0  0  0  0  0  0
  152.0744  138.1271  155.5714 C   0  0  0  0  0  0  0  0  0  0  0  0
  151.5781  139.3766  156.1167 N   0  0  0  0  0  0  0  0  0  0  0  0
  151.9714  140.1413  157.2088 C   0  0  0  0  0  0  0  0  0  0  0  0
  152.9773  139.8161  158.0189 N   0  0  0  0  0  0  0  0  0  0  0  0
  152.9790  140.8638  158.9201 C   0  0  0  0  0  0  0  0  0  0  0  0
  153.8105  141.1139  160.0354 C   0  0  0  0  0  0  0  0  0  0  0  0
  153.6214  142.2690  160.8223 C   0  0  0  0  0  0  0  0  0  0  0  0
  152.6014  143.1898  160.5058 C   0  0  0  0  0  0  0  0  0  0  0  0
  151.7611  142.9606  159.3992 C   0  0  0  0  0  0  0  0  0  0  0  0
  151.9524  141.8053  158.6178 C   0  0  0  0  0  0  0  0  0  0  0  0
  151.3145  141.2914  157.4930 N   0  0  0  0  0  0  0  0  0  0  0  0
  150.1817  141.8897  156.7977 C   0  0  0  0  0  0  0  0  0  0  0  0
  148.9156  141.0134  156.8580 C   0  0  1  0  0  0  0  0  0  0  0  0
  148.6670  140.6145  158.1930 O   0  0  0  0  0  0  0  0  0  0  0  0
  147.7252  141.7289  156.2325 C   0  0  0  0  0  0  0  0  0  0  0  0
  146.6810  142.2283  157.0437 C   0  0  0  0  0  0  0  0  0  0  0  0
  145.5867  142.8987  156.4638 C   0  0  0  0  0  0  0  0  0  0  0  0
  145.5302  143.0792  155.0690 C   0  0  0  0  0  0  0  0  0  0  0  0
  144.4787  143.7247  154.5113 F   0  0  0  0  0  0  0  0  0  0  0  0
  146.5701  142.5914  154.2552 C   0  0  0  0  0  0  0  0  0  0  0  0
  147.6661  141.9209  154.8333 C   0  0  0  0  0  0  0  0  0  0  0  0
  148.6638  141.4683  154.0362 F   0  0  0  0  0  0  0  0  0  0  0  0
  151.2277  136.5651  152.8764 H   0  0  0  0  0  0  0  0  0  0  0  0
  152.5681  138.3395  153.4651 H   0  0  0  0  0  0  0  0  0  0  0  0
  150.8608  138.5703  153.8206 H   0  0  0  0  0  0  0  0  0  0  0  0
  151.6437  137.3004  156.1373 H   0  0  0  0  0  0  0  0  0  0  0  0
  153.1534  138.0894  155.7226 H   0  0  0  0  0  0  0  0  0  0  0  0
  150.8029  139.7621  155.5971 H   0  0  0  0  0  0  0  0  0  0  0  0
  154.5952  140.4155  160.2860 H   0  0  0  0  0  0  0  0  0  0  0  0
  154.2624  142.4494  161.6727 H   0  0  0  0  0  0  0  0  0  0  0  0
  152.4642  144.0722  161.1138 H   0  0  0  0  0  0  0  0  0  0  0  0
  150.9791  143.6639  159.1542 H   0  0  0  0  0  0  0  0  0  0  0  0
  149.9857  142.8822  157.2047 H   0  0  0  0  0  0  0  0  0  0  0  0
  150.4729  142.0448  155.7580 H   0  0  0  0  0  0  0  0  0  0  0  0
  149.0985  140.0952  156.2986 H   0  0  0  0  0  0  0  0  0  0  0  0
  148.5269  141.3889  158.7165 H   0  0  0  0  0  0  0  0  0  0  0  0
  146.7153  142.1032  158.1163 H   0  0  0  0  0  0  0  0  0  0  0  0
  144.7917  143.2768  157.0900 H   0  0  0  0  0  0  0  0  0  0  0  0
  146.5290  142.7340  153.1854 H   0  0  0  0  0  0  0  0  0  0  0  0
  1  2  1  0  0  0  0
  1 25  1  0  0  0  0
  2  3  1  0  0  0  0
  2 26  1  0  0  0  0
  2 27  1  0  0  0  0
  3  4  1  0  0  0  0
  3 28  1  0  0  0  0
  3 29  1  0  0  0  0
  4  5  1  0  0  0  0
  4 30  1  0  0  0  0
  5 13  1  0  0  0  0
  5  6  2  0  0  0  0
  6  7  1  0  0  0  0
  7 12  2  0  0  0  0
  7  8  1  0  0  0  0
  8  9  2  0  0  0  0
  8 31  1  0  0  0  0
  9 10  1  0  0  0  0
  9 32  1  0  0  0  0
 10 11  2  0  0  0  0
 10 33  1  0  0  0  0
 11 12  1  0  0  0  0
 11 34  1  0  0  0  0
 12 13  1  0  0  0  0
 13 14  1  0  0  0  0
 14 15  1  0  0  0  0
 14 35  1  0  0  0  0
 14 36  1  0  0  0  0
 15 16  1  0  0  0  0
 15 17  1  0  0  0  0
 15 37  1  0  0  0  0
 16 38  1  0  0  0  0
 17 23  1  0  0  0  0
 17 18  2  0  0  0  0
 18 19  1  0  0  0  0
 18 39  1  0  0  0  0
 19 20  2  0  0  0  0
 19 40  1  0  0  0  0
 20 21  1  0  0  0  0
 20 22  1  0  0  0  0
 22 23  2  0  0  0  0
 22 41  1  0  0  0  0
 23 24  1  0  0  0  0
M  END
> <s_m_source_file>
AV-unprocessed.smi

> <i_m_source_file_index>
1517

> <i_lp_mmshare_version>
43012

> <i_f3d_flags>
0

> <s_epik_input>
W09IXVtDSDJdW0NIMl1bTkhdYyhuMSluKGMoYzEyKVtjSF1bY0hdW2NIXVtjSF0yKVtDSDJdW0NASF0oW09IXSljM1tjSF1bY0hdYyhGKVtjSF1jM0Y=

> <s_epik_cmdline>
J2VwaWtfcHl0aG9uJywgJy1waCcsICc3LjAnLCAnLXRuJywgJzgnLCAnLW1hJywgJzIwMCcsICctbWV0YWxfYmluZGluZycsICctaW1hZScsICc8aW5maWxlLm1hZT4nLCAnLW9tYWUnLCAnPG91dGZpbGUubWFlPic=

> <r_epik_Ionization_Penalty>
1.30972

> <r_epik_Ionization_Penalty_Charging>
0

> <r_epik_Ionization_Penalty_Neutral>
1.30972

> <r_epik_State_Penalty>
1.38438

> <r_epik_Charging_Adjusted_Penalty>
1.38438

> <i_epik_Tot_Q>
0

> <i_epik_Tot_abs_Q>
0

> <r_epik_Metal_State_Penalty>
0.00551145

> <b_epik_Metal_Only>
0

> <s_lp_Force_Field>
OPLS_2005

> <r_lp_Energy>
6.47828

> <b_lp_Chiralities_Consistent>
1

> <s_lp_Variant>
AV-unprocessed.smi:1517-4

> <Gold.Version>
5.8.1

> <Gold.Id.Protein>
6NUR|6NUR_protein|mol2

> <Gold.PLP.Fitness>
55.2156

> <Gold.PLP.PLP>
-47.6153

> <Gold.PLP.part.hbond>
-4.6969

> <Gold.PLP.part.metal>
0.0000

> <Gold.PLP.part.buried>
-3.9257

> <Gold.PLP.part.nonpolar>
-40.6055

> <Gold.PLP.part.repulsive>
0.0993

> <Gold.PLP.ligand.clash>
0.0000

> <Gold.PLP.ligand.torsion>
0.7641

> <Gold.PLP.Chemscore.Hbond>
2.9913

> <Gold.PLP.Chemscore.CHOScore>
0.0000

> <Gold.PLP.Chemscore.Metal>
0.0000

> <Gold.Chemscore.Hbonds>
donor molecule, donor type, donor heavy atom, donor atom, acceptor molecule, acceptor atom, score
      L1  H     1    25       P1  7949  0.93
      P1  H  7997  8008       L1     6  1.00
      P1  H 10752 10764       L1     1  1.00

> <Gold.PLP.Chemscore.Internal.Correction>
0.1548

> <Gold.Rescore>
     Score         DG    S(hbond)    S(metal)    S(lipo)     H(rot)  DE(clash)    DE(int)     intcor
     17.16     -17.96       2.43        0.00     107.62       3.22       0.11       0.69       ----

> <Gold.Chemscore.Fitness>
17.1553

> <Gold.Chemscore.DG>
-17.9592

> <Gold.Chemscore.ZeroCoef>
-5.4800

> <Gold.Chemscore.Hbond>
2.4339

> <Gold.Chemscore.Metal>
0.0000

> <Gold.Chemscore.Lipo>
107.6217

> <Gold.Chemscore.Internal_Hbond>
0.0000

> <Gold.Chemscore.DEClash>
0.1132

> <Gold.Chemscore.DEInternal>
0.6907

> <Gold.Chemscore.Rot>
3.2194

> <Gold.Chemscore.Internal.Correction>
   9.000000E+99

> <Gold.Chemscore.Hbonds>
donor molecule, donor type, donor heavy atom, donor atom, acceptor molecule, acceptor atom, score
      L1  H     1    25       P1  7949  0.53
      P1  H  7997  8008       L1     6  0.27
      P1  H 10752 10764       L1     1  0.60

> <Gold.Chemscore.Hbond.Weighted>
-8.1291

> <Gold.Chemscore.Metal.Weighted>
-0.0000

> <Gold.Chemscore.Lipo.Weighted>
-12.5917

> <Gold.Chemscore.Internal_Hbond.Weighted>
0.0000

> <Gold.Chemscore.DEClash.Weighted>
0.1132

> <Gold.Chemscore.DEInternal.Weighted>
0.6907

> <Gold.Chemscore.Rot.Weighted>
8.2416

> <Gold.Chemscore.Internal.Correction.Weighted>
   9.000000E+99

> <Gold.Protein.RotatedTorsions>
[ 6907 6896 6895 6894 ] final  114.55 input  -60.11 | X-H torsion
[ 7974 7965 7964 7962 ] final   11.93 input  175.53 | X-H torsion
[ 8008 7997 7996 7995 ] final  -86.94 input   59.86 | X-H torsion
[ 10167 10162 10161 10158 ] final -156.04 input  -65.29 | X-H torsion
[ 10718 10713 10712 10709 ] final -162.24 input   66.30 | X-H torsion
[ 10763 10752 10751 10750 ] final  -85.73 input  -60.55 | X-H torsion
[ 11005 11000 10999 10996 ] final -106.21 input  -57.11 | X-H torsion

> <Gold.Protein.ActiveResidues>
 VAL166  LYS551  ARG553  GLY616  TRP617  ASP618  TYR619  PRO620  LYS621  CYS622 
 ASP623  PHE694  ASN695  SER759  ASP760  ASP761  ALA762  ILE779  LEU786  VAL792 
 PHE793  MET794  SER795  GLU796  ALA797  LYS798  CYS799  TRP800  GLU811  SER814 

> <Gold.Protein.RotatedAtoms>
  152.4795  133.8220  159.7058 H   0  0  0  0  0  0  0  0  0  0  0  0  # atno 6907 bound_to 6896
  150.8835  133.7329  159.2931 H   0  0  0  0  0  0  0  0  0  0  0  0  # atno 6908 bound_to 6896
  151.4826  135.1056  159.9834 H   0  0  0  0  0  0  0  0  0  0  0  0  # atno 6909 bound_to 6896
  146.2361  139.9412  142.8483 H   0  0  0  0  0  0  0  0  0  0  0  0  # atno 7974 bound_to 7965
  154.6576  140.0572  157.0026 H   0  0  0  0  0  0  0  0  0  0  0  0  # atno 8008 bound_to 7997
  155.1277  140.3253  155.4463 H   0  0  0  0  0  0  0  0  0  0  0  0  # atno 8009 bound_to 7997
  156.2604  140.1986  156.6398 H   0  0  0  0  0  0  0  0  0  0  0  0  # atno 8010 bound_to 7997
  139.6882  143.9465  152.2372 H   0  0  0  0  0  0  0  0  0  0  0  0  # atno 10167 bound_to 10162
  156.6076  130.8837  151.2929 H   0  0  0  0  0  0  0  0  0  0  0  0  # atno 10718 bound_to 10713
  154.6145  135.5474  153.7508 H   0  0  0  0  0  0  0  0  0  0  0  0  # atno 10763 bound_to 10752
  153.0210  135.6397  154.1531 H   0  0  0  0  0  0  0  0  0  0  0  0  # atno 10764 bound_to 10752
  154.1467  135.2905  155.3126 H   0  0  0  0  0  0  0  0  0  0  0  0  # atno 10765 bound_to 10752
  141.1015  133.8874  157.1829 H   0  0  0  0  0  0  0  0  0  0  0  0  # atno 11005 bound_to 11000
  145.1950  140.9829  143.4189 LP  0  0  0  0  0  0  0  0  0  0  0  0  # atno 17320 bound_to 7965
  144.9823  139.3771  143.6256 LP  0  0  0  0  0  0  0  0  0  0  0  0  # atno 17321 bound_to 7965
  139.9274  144.6763  150.8399 LP  0  0  0  0  0  0  0  0  0  0  0  0  # atno 17342 bound_to 10162
  140.7674  143.3333  151.2364 LP  0  0  0  0  0  0  0  0  0  0  0  0  # atno 17343 bound_to 10162
  157.7263  130.9627  150.1650 LP  0  0  0  0  0  0  0  0  0  0  0  0  # atno 17370 bound_to 10713
  156.2417  130.3691  149.8330 LP  0  0  0  0  0  0  0  0  0  0  0  0  # atno 17371 bound_to 10713
  139.9869  135.0079  156.9884 LP  0  0  0  0  0  0  0  0  0  0  0  0  # atno 17394 bound_to 11000
  140.5009  134.1098  155.7250 LP  0  0  0  0  0  0  0  0  0  0  0  0  # atno 17395 bound_to 11000

$$$$
