AV-unprocessed.smi:1076|AV-procd|sdf|4699|dock3
  -GOLD-   22720 3223D 1   1.00000     0.00000
 Structure written by MMmdl.
 44 45  0  0  0  0  0  0  0  0  1 V2000
  145.6372  132.1726  149.1364 C   0  0  0  0  0  0  0  0  0  0  0  0
  144.7030  132.8449  150.1000 C   0  0  0  0  0  0  0  0  0  0  0  0
  143.4076  132.4168  150.5084 C   0  0  0  0  0  0  0  0  0  0  0  0
  142.8479  133.2334  151.3863 N   0  0  0  0  0  0  0  0  0  0  0  0
  143.7642  134.2072  151.5709 N   0  0  0  0  0  0  0  0  0  0  0  0
  143.5009  135.2799  152.5151 C   0  0  0  0  0  0  0  0  0  0  0  0
  144.0161  136.6400  152.0034 C   0  0  2  0  0  0  0  0  0  0  0  0
  145.5518  136.7047  152.0107 C   0  0  0  0  0  0  0  0  0  0  0  0
  143.4727  137.6919  152.8548 N   0  0  0  0  0  0  0  0  0  0  0  0
  142.0158  137.7016  152.8782 C   0  0  0  0  0  0  0  0  0  0  0  0
  141.4906  137.8504  154.3214 C   0  0  0  0  0  0  0  0  0  0  0  0
  140.1053  137.2212  154.5808 C   0  0  0  0  0  0  0  0  0  0  0  0
  140.0214  136.2416  155.3239 O   0  0  0  0  0  0  0  0  0  0  0  0
  139.0156  137.7610  153.9833 N   0  0  0  0  0  0  0  0  0  0  0  0
  139.0877  138.9157  153.0825 C   0  0  0  0  0  0  0  0  0  0  0  0
  138.3558  140.0971  153.7436 C   0  0  0  0  0  0  0  0  0  0  0  0
  137.0070  139.7286  154.0193 O   0  0  0  0  0  0  0  0  0  0  0  0
  136.9028  138.5929  154.8743 C   0  0  0  0  0  0  0  0  0  0  0  0
  137.6188  137.3894  154.2341 C   0  0  0  0  0  0  0  0  0  0  0  0
  144.8896  134.0020  150.8012 C   0  0  0  0  0  0  0  0  0  0  0  0
  145.3891  131.1197  148.9999 H   0  0  0  0  0  0  0  0  0  0  0  0
  146.6705  132.2156  149.4819 H   0  0  0  0  0  0  0  0  0  0  0  0
  145.6053  132.6416  148.1531 H   0  0  0  0  0  0  0  0  0  0  0  0
  142.8619  131.5383  150.1974 H   0  0  0  0  0  0  0  0  0  0  0  0
  142.4281  135.3187  152.7112 H   0  0  0  0  0  0  0  0  0  0  0  0
  143.9813  135.0267  153.4615 H   0  0  0  0  0  0  0  0  0  0  0  0
  143.6565  136.7730  150.9818 H   0  0  0  0  0  0  0  0  0  0  0  0
  145.9756  135.9084  151.3983 H   0  0  0  0  0  0  0  0  0  0  0  0
  145.9506  136.5930  153.0196 H   0  0  0  0  0  0  0  0  0  0  0  0
  145.9174  137.6498  151.6089 H   0  0  0  0  0  0  0  0  0  0  0  0
  143.8377  138.5949  152.5879 H   0  0  0  0  0  0  0  0  0  0  0  0
  141.6467  138.5208  152.2612 H   0  0  0  0  0  0  0  0  0  0  0  0
  141.6294  136.7775  152.4455 H   0  0  0  0  0  0  0  0  0  0  0  0
  142.2211  137.4035  154.9969 H   0  0  0  0  0  0  0  0  0  0  0  0
  141.4332  138.9107  154.5699 H   0  0  0  0  0  0  0  0  0  0  0  0
  140.1110  139.2043  152.8383 H   0  0  0  0  0  0  0  0  0  0  0  0
  138.6127  138.6628  152.1333 H   0  0  0  0  0  0  0  0  0  0  0  0
  138.8564  140.3991  154.6650 H   0  0  0  0  0  0  0  0  0  0  0  0
  138.3571  140.9620  153.0802 H   0  0  0  0  0  0  0  0  0  0  0  0
  137.3285  138.8224  155.8526 H   0  0  0  0  0  0  0  0  0  0  0  0
  135.8484  138.3647  155.0302 H   0  0  0  0  0  0  0  0  0  0  0  0
  137.1420  137.1285  153.2883 H   0  0  0  0  0  0  0  0  0  0  0  0
  137.4996  136.5207  154.8787 H   0  0  0  0  0  0  0  0  0  0  0  0
  145.7285  134.6818  150.8288 H   0  0  0  0  0  0  0  0  0  0  0  0
  1  2  1  0  0  0  0
  1 21  1  0  0  0  0
  1 22  1  0  0  0  0
  1 23  1  0  0  0  0
  2 20  2  0  0  0  0
  2  3  1  0  0  0  0
  3  4  2  0  0  0  0
  3 24  1  0  0  0  0
  4  5  1  0  0  0  0
  5  6  1  0  0  0  0
  5 20  1  0  0  0  0
  6  7  1  0  0  0  0
  6 25  1  0  0  0  0
  6 26  1  0  0  0  0
  7  8  1  0  0  0  0
  7  9  1  0  0  0  0
  7 27  1  0  0  0  0
  8 28  1  0  0  0  0
  8 29  1  0  0  0  0
  8 30  1  0  0  0  0
  9 10  1  0  0  0  0
  9 31  1  0  0  0  0
 10 11  1  0  0  0  0
 10 32  1  0  0  0  0
 10 33  1  0  0  0  0
 11 12  1  0  0  0  0
 11 34  1  0  0  0  0
 11 35  1  0  0  0  0
 12 13  2  0  0  0  0
 12 14  1  0  0  0  0
 14 19  1  0  0  0  0
 14 15  1  0  0  0  0
 15 16  1  0  0  0  0
 15 36  1  0  0  0  0
 15 37  1  0  0  0  0
 16 17  1  0  0  0  0
 16 38  1  0  0  0  0
 16 39  1  0  0  0  0
 17 18  1  0  0  0  0
 18 19  1  0  0  0  0
 18 40  1  0  0  0  0
 18 41  1  0  0  0  0
 19 42  1  0  0  0  0
 19 43  1  0  0  0  0
 20 44  1  0  0  0  0
M  END
> <s_m_source_file>
AV-unprocessed.smi

> <i_m_source_file_index>
1076

> <i_lp_mmshare_version>
43012

> <i_f3d_flags>
0

> <s_epik_input>
W0NIM11jMVtjSF1ubihbY0hdMSlbQ0gyXVtDQEhdKFtDSDNdKVtOSF1bQ0gyXVtDSDJdQyg9TylOMltDSDJdW0NIMl1PW0NIMl1bQ0gyXTI=

> <s_epik_cmdline>
J2VwaWtfcHl0aG9uJywgJy1waCcsICc3LjAnLCAnLXRuJywgJzgnLCAnLW1hJywgJzIwMCcsICctbWV0YWxfYmluZGluZycsICctaW1hZScsICc8aW5maWxlLm1hZT4nLCAnLW9tYWUnLCAnPG91dGZpbGUubWFlPic=

> <r_lp_tautomer_probability>
1

> <r_epik_Ionization_Penalty>
2.55707

> <r_epik_Ionization_Penalty_Charging>
0

> <r_epik_Ionization_Penalty_Neutral>
2.55707

> <r_epik_State_Penalty>
2.726

> <r_epik_Charging_Adjusted_Penalty>
2.726

> <i_epik_Tot_Q>
0

> <i_epik_Tot_abs_Q>
0

> <r_epik_Metal_State_Penalty>
2.72594

> <b_epik_Metal_Only>
0

> <s_lp_Force_Field>
OPLS_2005

> <r_lp_Energy>
21.3245

> <b_lp_Chiralities_Consistent>
1

> <s_lp_Variant>
AV-unprocessed.smi:1076-3

> <Gold.Version>
5.8.1

> <Gold.Id.Protein>
6NUR|6NUR_protein|mol2

> <Gold.PLP.Fitness>
45.2620

> <Gold.PLP.PLP>
-37.9922

> <Gold.PLP.part.hbond>
-2.6976

> <Gold.PLP.part.metal>
0.0000

> <Gold.PLP.part.buried>
-3.1517

> <Gold.PLP.part.nonpolar>
-32.7429

> <Gold.PLP.part.repulsive>
1.2433

> <Gold.PLP.ligand.clash>
0.0000

> <Gold.PLP.ligand.torsion>
0.9170

> <Gold.PLP.Chemscore.Hbond>
1.9920

> <Gold.PLP.Chemscore.CHOScore>
0.9907

> <Gold.PLP.Chemscore.Metal>
0.0000

> <Gold.Chemscore.Hbonds>
donor molecule, donor type, donor heavy atom, donor atom, acceptor molecule, acceptor atom, score
      L1  H     9    31       P1 10175  1.00
      P1  H 11000 11005       L1    13  0.98
      L1  C     3    24       P1 10952  1.00

> <Gold.PLP.Chemscore.Internal.Correction>
0.1556

> <Gold.Rescore>
     Score         DG    S(hbond)    S(metal)    S(lipo)     H(rot)  DE(clash)    DE(int)     intcor
     16.12     -17.27       1.85        0.00      89.78       1.91       0.15       1.01       ----

> <Gold.Chemscore.Fitness>
16.1161

> <Gold.Chemscore.DG>
-17.2728

> <Gold.Chemscore.ZeroCoef>
-5.4800

> <Gold.Chemscore.Hbond>
1.8497

> <Gold.Chemscore.Metal>
0.0000

> <Gold.Chemscore.Lipo>
89.7765

> <Gold.Chemscore.Internal_Hbond>
0.0000

> <Gold.Chemscore.DEClash>
0.1508

> <Gold.Chemscore.DEInternal>
1.0059

> <Gold.Chemscore.Rot>
1.9098

> <Gold.Chemscore.Internal.Correction>
   9.000000E+99

> <Gold.Chemscore.Hbonds>
donor molecule, donor type, donor heavy atom, donor atom, acceptor molecule, acceptor atom, score
      L1  H     9    31       P1 10175  0.94
      P1  H 11000 11005       L1    13  0.93

> <Gold.Chemscore.Hbond.Weighted>
-6.1780

> <Gold.Chemscore.Metal.Weighted>
-0.0000

> <Gold.Chemscore.Lipo.Weighted>
-10.5039

> <Gold.Chemscore.Internal_Hbond.Weighted>
0.0000

> <Gold.Chemscore.DEClash.Weighted>
0.1508

> <Gold.Chemscore.DEInternal.Weighted>
1.0059

> <Gold.Chemscore.Rot.Weighted>
4.8891

> <Gold.Chemscore.Internal.Correction.Weighted>
   9.000000E+99

> <Gold.Protein.RotatedTorsions>
[ 6907 6896 6895 6894 ] final  153.15 input  -60.11 | X-H torsion
[ 7974 7965 7964 7962 ] final -156.28 input  175.53 | X-H torsion
[ 8008 7997 7996 7995 ] final   66.10 input   59.86 | X-H torsion
[ 10167 10162 10161 10158 ] final  -20.10 input  -65.29 | X-H torsion
[ 10718 10713 10712 10709 ] final -126.89 input   66.30 | X-H torsion
[ 10763 10752 10751 10750 ] final  -75.06 input  -60.55 | X-H torsion
[ 11005 11000 10999 10996 ] final   71.17 input  -57.11 | X-H torsion

> <Gold.Protein.ActiveResidues>
 VAL166  LYS551  ARG553  GLY616  TRP617  ASP618  TYR619  PRO620  LYS621  CYS622 
 ASP623  PHE694  ASN695  SER759  ASP760  ASP761  ALA762  ILE779  LEU786  VAL792 
 PHE793  MET794  SER795  GLU796  ALA797  LYS798  CYS799  TRP800  GLU811  SER814 

> <Gold.Protein.RotatedAtoms>
  152.0768  133.4133  159.4482 H   0  0  0  0  0  0  0  0  0  0  0  0  # atno 6907 bound_to 6896
  150.6862  134.3029  159.4723 H   0  0  0  0  0  0  0  0  0  0  0  0  # atno 6908 bound_to 6896
  152.0866  134.9435  160.0623 H   0  0  0  0  0  0  0  0  0  0  0  0  # atno 6909 bound_to 6896
  144.7600  140.4132  143.5983 H   0  0  0  0  0  0  0  0  0  0  0  0  # atno 7974 bound_to 7965
  155.6721  140.3497  155.4822 H   0  0  0  0  0  0  0  0  0  0  0  0  # atno 8008 bound_to 7997
  155.9679  140.1150  157.0861 H   0  0  0  0  0  0  0  0  0  0  0  0  # atno 8009 bound_to 7997
  154.4159  140.1163  156.5253 H   0  0  0  0  0  0  0  0  0  0  0  0  # atno 8010 bound_to 7997
  140.7273  143.4754  151.0189 H   0  0  0  0  0  0  0  0  0  0  0  0  # atno 10167 bound_to 10162
  156.1806  130.6730  151.0300 H   0  0  0  0  0  0  0  0  0  0  0  0  # atno 10718 bound_to 10713
  154.4814  135.5844  153.6392 H   0  0  0  0  0  0  0  0  0  0  0  0  # atno 10763 bound_to 10752
  152.9848  135.6091  154.3241 H   0  0  0  0  0  0  0  0  0  0  0  0  # atno 10764 bound_to 10752
  154.3132  135.2844  155.2535 H   0  0  0  0  0  0  0  0  0  0  0  0  # atno 10765 bound_to 10752
  139.9558  134.7147  156.0758 H   0  0  0  0  0  0  0  0  0  0  0  0  # atno 11005 bound_to 11000
  145.6650  139.1588  143.2787 LP  0  0  0  0  0  0  0  0  0  0  0  0  # atno 17320 bound_to 7965
  146.1653  140.6727  142.9258 LP  0  0  0  0  0  0  0  0  0  0  0  0  # atno 17321 bound_to 7965
  139.8449  143.7514  152.3179 LP  0  0  0  0  0  0  0  0  0  0  0  0  # atno 17342 bound_to 10162
  139.7676  144.7487  151.0271 LP  0  0  0  0  0  0  0  0  0  0  0  0  # atno 17343 bound_to 10162
  157.6866  131.0823  150.7226 LP  0  0  0  0  0  0  0  0  0  0  0  0  # atno 17370 bound_to 10713
  156.7283  130.4702  149.5506 LP  0  0  0  0  0  0  0  0  0  0  0  0  # atno 17371 bound_to 10713
  141.1228  133.6608  156.3260 LP  0  0  0  0  0  0  0  0  0  0  0  0  # atno 17394 bound_to 11000
  140.5614  134.5931  157.5434 LP  0  0  0  0  0  0  0  0  0  0  0  0  # atno 17395 bound_to 11000

$$$$
