AV-unprocessed.smi:598|AV-procd|sdf|3022|dock5
  -GOLD-   2262023533D 1   1.00000     0.00000
 Structure written by MMmdl.
 43 44  0  0  0  0  0  0  0  0  3 V2000
  146.2496  132.0583  149.5147 C   0  0  0  0  0  0  0  0  0  0  0  0
  145.6804  133.1245  150.4657 C   0  0  1  0  0  0  0  0  0  0  0  0
  144.2959  132.7210  151.0125 C   0  0  0  0  0  0  0  0  0  0  0  0
  143.6879  133.8319  151.8829 C   0  0  0  0  0  0  0  0  0  0  0  0
  144.6406  134.2449  153.0147 C   0  0  0  0  0  0  0  0  0  0  0  0
  146.0193  134.6548  152.4616 C   0  0  1  0  0  0  0  0  0  0  0  0
  146.8875  135.0762  153.5588 N   0  0  0  0  0  0  0  0  0  0  0  0
  146.5938  136.0230  154.4630 C   0  0  0  0  0  0  0  0  0  0  0  0
  145.5224  136.6301  154.4829 O   0  0  0  0  0  0  0  0  0  0  0  0
  147.6772  136.3133  155.5107 C   0  0  0  0  0  0  0  0  0  0  0  0
  148.4137  137.5603  155.2449 N   0  0  0  0  0  0  0  0  0  0  0  0
  149.8178  137.4732  155.1634 C   0  0  0  0  0  0  0  0  0  0  0  0
  150.5895  138.5528  154.9294 C   0  0  0  0  0  0  0  0  0  0  0  0
  152.0303  138.4462  154.8539 N   0  3  0  0  0  0  0  0  0  0  0  0
  152.5264  137.3560  154.5879 O   0  0  0  0  0  0  0  0  0  0  0  0
  152.7133  139.4454  155.0588 O   0  5  0  0  0  0  0  0  0  0  0  0
  149.9265  139.8315  154.7600 C   0  0  0  0  0  0  0  0  0  0  0  0
  148.5844  139.9218  154.8394 C   0  0  0  0  0  0  0  0  0  0  0  0
  147.7466  138.7458  155.0954 C   0  0  0  0  0  0  0  0  0  0  0  0
  146.5199  138.8217  155.1711 O   0  0  0  0  0  0  0  0  0  0  0  0
  146.6542  133.5219  151.6076 C   0  0  1  0  0  0  0  0  0  0  0  0
  147.1413  132.3217  152.4532 C   0  0  0  0  0  0  0  0  0  0  0  0
  146.3378  131.0868  150.0013 H   0  0  0  0  0  0  0  0  0  0  0  0
  147.2359  132.3431  149.1476 H   0  0  0  0  0  0  0  0  0  0  0  0
  145.6025  131.9276  148.6470 H   0  0  0  0  0  0  0  0  0  0  0  0
  145.5316  134.0190  149.8586 H   0  0  0  0  0  0  0  0  0  0  0  0
  143.6197  132.5028  150.1852 H   0  0  0  0  0  0  0  0  0  0  0  0
  144.3733  131.8006  151.5916 H   0  0  0  0  0  0  0  0  0  0  0  0
  143.4651  134.7000  151.2611 H   0  0  0  0  0  0  0  0  0  0  0  0
  142.7366  133.5000  152.2996 H   0  0  0  0  0  0  0  0  0  0  0  0
  144.2017  135.0733  153.5720 H   0  0  0  0  0  0  0  0  0  0  0  0
  144.7455  133.4226  153.7234 H   0  0  0  0  0  0  0  0  0  0  0  0
  145.8599  135.5195  151.8142 H   0  0  0  0  0  0  0  0  0  0  0  0
  147.7898  134.6273  153.6208 H   0  0  0  0  0  0  0  0  0  0  0  0
  147.1993  136.3471  156.4906 H   0  0  0  0  0  0  0  0  0  0  0  0
  148.3738  135.4739  155.5612 H   0  0  0  0  0  0  0  0  0  0  0  0
  150.2150  136.4791  155.3113 H   0  0  0  0  0  0  0  0  0  0  0  0
  150.5009  140.7263  154.5698 H   0  0  0  0  0  0  0  0  0  0  0  0
  148.1109  140.8842  154.7118 H   0  0  0  0  0  0  0  0  0  0  0  0
  147.5440  133.9374  151.1323 H   0  0  0  0  0  0  0  0  0  0  0  0
  146.3196  131.8138  152.9567 H   0  0  0  0  0  0  0  0  0  0  0  0
  147.8531  132.6327  153.2179 H   0  0  0  0  0  0  0  0  0  0  0  0
  147.6580  131.5845  151.8400 H   0  0  0  0  0  0  0  0  0  0  0  0
  1  2  1  0  0  0  0
  1 23  1  0  0  0  0
  1 24  1  0  0  0  0
  1 25  1  0  0  0  0
  2 21  1  0  0  0  0
  2  3  1  0  0  0  0
  2 26  1  0  0  0  0
  3  4  1  0  0  0  0
  3 27  1  0  0  0  0
  3 28  1  0  0  0  0
  4  5  1  0  0  0  0
  4 29  1  0  0  0  0
  4 30  1  0  0  0  0
  5  6  1  0  0  0  0
  5 31  1  0  0  0  0
  5 32  1  0  0  0  0
  6  7  1  0  0  0  0
  6 21  1  0  0  0  0
  6 33  1  0  0  0  0
  7  8  1  0  0  0  0
  7 34  1  0  0  0  0
  8  9  2  0  0  0  0
  8 10  1  0  0  0  0
 10 11  1  0  0  0  0
 10 35  1  0  0  0  0
 10 36  1  0  0  0  0
 11 19  1  0  0  0  0
 11 12  1  0  0  0  0
 12 13  2  0  0  0  0
 12 37  1  0  0  0  0
 13 14  1  0  0  0  0
 13 17  1  0  0  0  0
 14 15  2  0  0  0  0
 14 16  1  0  0  0  0
 17 18  2  0  0  0  0
 17 38  1  0  0  0  0
 18 19  1  0  0  0  0
 18 39  1  0  0  0  0
 19 20  2  0  0  0  0
 21 22  1  0  0  0  0
 21 40  1  0  0  0  0
 22 41  1  0  0  0  0
 22 42  1  0  0  0  0
 22 43  1  0  0  0  0
M  CHG  1  14   1
M  CHG  1  16  -1
M  END
> <s_m_source_file>
AV-unprocessed.smi

> <i_m_source_file_index>
598

> <i_lp_mmshare_version>
43012

> <i_f3d_flags>
0

> <s_epik_input>
W0NIM11bQ0BASF0xW0NIMl1bQ0gyXVtDSDJdW0NASF0oW0NASF0xW0NIM10pW05IXUMoPU8pW0NIMl1uMltjSF1jKFtOK10oPU8pW08tXSlbY0hdW2NIXWMyPU8=

> <s_epik_cmdline>
J2VwaWtfcHl0aG9uJywgJy1waCcsICc3LjAnLCAnLXRuJywgJzgnLCAnLW1hJywgJzIwMCcsICctbWV0YWxfYmluZGluZycsICctaW1hZScsICc8aW5maWxlLm1hZT4nLCAnLW9tYWUnLCAnPG91dGZpbGUubWFlPic=

> <r_lp_tautomer_probability>
1

> <r_epik_Ionization_Penalty>
1.91291e-08

> <r_epik_Ionization_Penalty_Charging>
8.21931e-11

> <r_epik_Ionization_Penalty_Neutral>
1.90469e-08

> <r_epik_State_Penalty>
-0

> <r_epik_Charging_Adjusted_Penalty>
8.21931e-11

> <i_epik_Tot_Q>
0

> <i_epik_Tot_abs_Q>
2

> <r_epik_Metal_State_Penalty>
-0

> <b_epik_Metal_Only>
0

> <s_lp_Force_Field>
OPLS_2005

> <r_lp_Energy>
25.1906

> <b_lp_Chiralities_Consistent>
1

> <s_lp_Variant>
AV-unprocessed.smi:598-2

> <Gold.Version>
5.8.1

> <Gold.Id.Protein>
6NUR|6NUR_protein|mol2

> <Gold.PLP.Fitness>
39.0076

> <Gold.PLP.PLP>
-34.5906

> <Gold.PLP.part.hbond>
-3.5316

> <Gold.PLP.part.metal>
0.0000

> <Gold.PLP.part.buried>
-3.6809

> <Gold.PLP.part.nonpolar>
-28.0467

> <Gold.PLP.part.repulsive>
0.2634

> <Gold.PLP.ligand.clash>
0.0000

> <Gold.PLP.ligand.torsion>
0.4811

> <Gold.PLP.Chemscore.Hbond>
1.7872

> <Gold.PLP.Chemscore.CHOScore>
0.0000

> <Gold.PLP.Chemscore.Metal>
0.0000

> <Gold.Chemscore.Hbonds>
donor molecule, donor type, donor heavy atom, donor atom, acceptor molecule, acceptor atom, score
      P1  H  7989  7998       L1    16  0.12
      P1  H  7997  8009       L1    16  0.93
      P1  H 10752 10765       L1    15  0.61

> <Gold.PLP.Chemscore.Internal.Correction>
0.0178

> <Gold.Rescore>
     Score         DG    S(hbond)    S(metal)    S(lipo)     H(rot)  DE(clash)    DE(int)     intcor
     11.25     -15.76       1.59        0.00      76.10       1.54       0.07       4.44       ----

> <Gold.Chemscore.Fitness>
11.2523

> <Gold.Chemscore.DG>
-15.7560

> <Gold.Chemscore.ZeroCoef>
-5.4800

> <Gold.Chemscore.Hbond>
1.5908

> <Gold.Chemscore.Metal>
0.0000

> <Gold.Chemscore.Lipo>
76.0972

> <Gold.Chemscore.Internal_Hbond>
0.0000

> <Gold.Chemscore.DEClash>
0.0653

> <Gold.Chemscore.DEInternal>
4.4383

> <Gold.Chemscore.Rot>
1.5393

> <Gold.Chemscore.Internal.Correction>
   9.000000E+99

> <Gold.Chemscore.Hbonds>
donor molecule, donor type, donor heavy atom, donor atom, acceptor molecule, acceptor atom, score
      P1  H  7989  7998       L1    16  0.02
      P1  H  7997  8009       L1    16  0.89
      P1  H 10752 10765       L1    15  0.60

> <Gold.Chemscore.Hbond.Weighted>
-5.3133

> <Gold.Chemscore.Metal.Weighted>
-0.0000

> <Gold.Chemscore.Lipo.Weighted>
-8.9034

> <Gold.Chemscore.Internal_Hbond.Weighted>
0.0000

> <Gold.Chemscore.DEClash.Weighted>
0.0653

> <Gold.Chemscore.DEInternal.Weighted>
4.4383

> <Gold.Chemscore.Rot.Weighted>
3.9407

> <Gold.Chemscore.Internal.Correction.Weighted>
   9.000000E+99

> <Gold.Protein.RotatedTorsions>
[ 6907 6896 6895 6894 ] final  -16.00 input  -60.11 | X-H torsion
[ 7974 7965 7964 7962 ] final  177.40 input  175.53 | X-H torsion
[ 8008 7997 7996 7995 ] final -140.05 input   59.86 | X-H torsion
[ 10167 10162 10161 10158 ] final    5.99 input  -65.29 | X-H torsion
[ 10718 10713 10712 10709 ] final  131.31 input   66.30 | X-H torsion
[ 10763 10752 10751 10750 ] final  158.24 input  -60.55 | X-H torsion
[ 11005 11000 10999 10996 ] final   85.62 input  -57.11 | X-H torsion

> <Gold.Protein.ActiveResidues>
 VAL166  LYS551  ARG553  GLY616  TRP617  ASP618  TYR619  PRO620  LYS621  CYS622 
 ASP623  PHE694  ASN695  SER759  ASP760  ASP761  ALA762  ILE779  LEU786  VAL792 
 PHE793  MET794  SER795  GLU796  ALA797  LYS798  CYS799  TRP800  GLU811  SER814 

> <Gold.Protein.RotatedAtoms>
  151.3153  135.0805  159.9286 H   0  0  0  0  0  0  0  0  0  0  0  0  # atno 6907 bound_to 6896
  152.5269  133.9694  159.7765 H   0  0  0  0  0  0  0  0  0  0  0  0  # atno 6908 bound_to 6896
  151.0005  133.6009  159.2726 H   0  0  0  0  0  0  0  0  0  0  0  0  # atno 6909 bound_to 6896
  144.7169  140.0242  143.6440 H   0  0  0  0  0  0  0  0  0  0  0  0  # atno 7974 bound_to 7965
  155.4550  140.0541  157.2997 H   0  0  0  0  0  0  0  0  0  0  0  0  # atno 8008 bound_to 7997
  154.4761  140.2061  155.9830 H   0  0  0  0  0  0  0  0  0  0  0  0  # atno 8009 bound_to 7997
  156.1134  140.3200  155.8109 H   0  0  0  0  0  0  0  0  0  0  0  0  # atno 8010 bound_to 7997
  140.6452  143.7678  150.7488 H   0  0  0  0  0  0  0  0  0  0  0  0  # atno 10167 bound_to 10162
  157.4980  131.1093  150.9467 H   0  0  0  0  0  0  0  0  0  0  0  0  # atno 10718 bound_to 10713
  154.2129  135.2785  155.2952 H   0  0  0  0  0  0  0  0  0  0  0  0  # atno 10763 bound_to 10752
  154.5764  135.5603  153.7147 H   0  0  0  0  0  0  0  0  0  0  0  0  # atno 10764 bound_to 10752
  153.0060  135.6334  154.2268 H   0  0  0  0  0  0  0  0  0  0  0  0  # atno 10765 bound_to 10752
  139.8966  134.8299  156.2608 H   0  0  0  0  0  0  0  0  0  0  0  0  # atno 11005 bound_to 11000
  146.0156  139.3206  143.0844 LP  0  0  0  0  0  0  0  0  0  0  0  0  # atno 17320 bound_to 7965
  145.8630  140.9464  143.0690 LP  0  0  0  0  0  0  0  0  0  0  0  0  # atno 17321 bound_to 7965
  140.1318  143.4519  152.2249 LP  0  0  0  0  0  0  0  0  0  0  0  0  # atno 17342 bound_to 10162
  139.5663  144.7437  151.4014 LP  0  0  0  0  0  0  0  0  0  0  0  0  # atno 17343 bound_to 10162
  157.0147  130.5650  149.5324 LP  0  0  0  0  0  0  0  0  0  0  0  0  # atno 17370 bound_to 10713
  156.0212  130.5306  150.8280 LP  0  0  0  0  0  0  0  0  0  0  0  0  # atno 17371 bound_to 10713
  141.0164  133.7066  156.1195 LP  0  0  0  0  0  0  0  0  0  0  0  0  # atno 17394 bound_to 11000
  140.7296  134.4269  157.5567 LP  0  0  0  0  0  0  0  0  0  0  0  0  # atno 17395 bound_to 11000

$$$$
