AV-unprocessed.smi:2779|AV-procd|sdf|10712|dock1
  -GOLD-   2272015143D 1   1.00000     0.00000
 Structure written by MMmdl.
 38 39  0  0  0  0  0  0  0  0  1 V2000
  153.4069  139.4035  158.3043 O   0  0  0  0  0  0  0  0  0  0  0  0
  153.0888  140.5205  158.7115 C   0  0  0  0  0  0  0  0  0  0  0  0
  153.7924  141.2086  159.7911 C   0  0  0  0  0  0  0  0  0  0  0  0
  153.4214  142.4369  160.2114 C   0  0  0  0  0  0  0  0  0  0  0  0
  152.2918  143.0987  159.5801 C   0  0  0  0  0  0  0  0  0  0  0  0
  151.8012  144.4695  159.9761 C   0  0  0  0  0  0  0  0  0  0  0  0
  150.4703  144.5000  160.0505 F   0  0  0  0  0  0  0  0  0  0  0  0
  152.2995  144.8090  161.1653 F   0  0  0  0  0  0  0  0  0  0  0  0
  152.1957  145.3736  159.0790 F   0  0  0  0  0  0  0  0  0  0  0  0
  151.6629  142.4933  158.6248 N   0  0  0  0  0  0  0  0  0  0  0  0
  152.0468  141.2341  158.1946 N   0  0  0  0  0  0  0  0  0  0  0  0
  151.2427  140.7116  157.0839 C   0  0  0  0  0  0  0  0  0  0  0  0
  150.1221  141.6943  156.6776 C   0  0  1  0  0  0  0  0  0  0  0  0
  150.7043  142.8651  156.1405 O   0  0  0  0  0  0  0  0  0  0  0  0
  149.2003  141.1152  155.5932 C   0  0  0  0  0  0  0  0  0  0  0  0
  148.2615  142.1043  155.2034 O   0  0  0  0  0  0  0  0  0  0  0  0
  146.9239  141.6374  155.2359 C   0  0  0  0  0  0  0  0  0  0  0  0
  145.9496  142.7366  154.8653 C   0  0  0  0  0  0  0  0  0  0  0  0
  145.9712  143.2876  153.5672 C   0  0  0  0  0  0  0  0  0  0  0  0
  145.0677  144.3099  153.2173 C   0  0  0  0  0  0  0  0  0  0  0  0
  144.1376  144.7823  154.1637 C   0  0  0  0  0  0  0  0  0  0  0  0
  144.1112  144.2318  155.4597 C   0  0  0  0  0  0  0  0  0  0  0  0
  145.0157  143.2104  155.8106 C   0  0  0  0  0  0  0  0  0  0  0  0
  149.5174  141.9717  157.5422 H   0  0  0  0  0  0  0  0  0  0  0  0
  154.6323  140.7204  160.2632 H   0  0  0  0  0  0  0  0  0  0  0  0
  153.9577  142.9265  161.0107 H   0  0  0  0  0  0  0  0  0  0  0  0
  151.8564  140.4349  156.2243 H   0  0  0  0  0  0  0  0  0  0  0  0
  150.7974  139.7718  157.4156 H   0  0  0  0  0  0  0  0  0  0  0  0
  150.0165  143.4872  155.9591 H   0  0  0  0  0  0  0  0  0  0  0  0
  149.7891  140.8193  154.7229 H   0  0  0  0  0  0  0  0  0  0  0  0
  148.6869  140.2250  155.9608 H   0  0  0  0  0  0  0  0  0  0  0  0
  146.8057  140.7967  154.5501 H   0  0  0  0  0  0  0  0  0  0  0  0
  146.6780  141.2728  156.2347 H   0  0  0  0  0  0  0  0  0  0  0  0
  146.6812  142.9270  152.8372 H   0  0  0  0  0  0  0  0  0  0  0  0
  145.0877  144.7315  152.2230 H   0  0  0  0  0  0  0  0  0  0  0  0
  143.4446  145.5661  153.8952 H   0  0  0  0  0  0  0  0  0  0  0  0
  143.3969  144.5928  156.1849 H   0  0  0  0  0  0  0  0  0  0  0  0
  144.9890  142.7919  156.8061 H   0  0  0  0  0  0  0  0  0  0  0  0
  1  2  2  0  0  0  0
  2 11  1  0  0  0  0
  2  3  1  0  0  0  0
  3  4  2  0  0  0  0
  3 25  1  0  0  0  0
  4  5  1  0  0  0  0
  4 26  1  0  0  0  0
  5  6  1  0  0  0  0
  5 10  2  0  0  0  0
  6  7  1  0  0  0  0
  6  8  1  0  0  0  0
  6  9  1  0  0  0  0
 10 11  1  0  0  0  0
 11 12  1  0  0  0  0
 12 13  1  0  0  0  0
 12 27  1  0  0  0  0
 12 28  1  0  0  0  0
 13 24  1  0  0  0  0
 13 14  1  0  0  0  0
 13 15  1  0  0  0  0
 14 29  1  0  0  0  0
 15 16  1  0  0  0  0
 15 30  1  0  0  0  0
 15 31  1  0  0  0  0
 16 17  1  0  0  0  0
 17 18  1  0  0  0  0
 17 32  1  0  0  0  0
 17 33  1  0  0  0  0
 18 23  1  0  0  0  0
 18 19  2  0  0  0  0
 19 20  1  0  0  0  0
 19 34  1  0  0  0  0
 20 21  2  0  0  0  0
 20 35  1  0  0  0  0
 21 22  1  0  0  0  0
 21 36  1  0  0  0  0
 22 23  2  0  0  0  0
 22 37  1  0  0  0  0
 23 38  1  0  0  0  0
M  END
> <s_m_source_file>
AV-unprocessed.smi

> <i_m_source_file_index>
2779

> <i_lp_mmshare_version>
43012

> <i_f3d_flags>
0

> <s_epik_input>
Tz1jMVtjSF1bY0hdYyhDKEYpKEYpRilubjFbQ0gyXVtDQEhdKFtPSF0pW0NIMl1PW0NIMl1jMltjSF1bY0hdW2NIXVtjSF1bY0hdMg==

> <s_epik_cmdline>
J2VwaWtfcHl0aG9uJywgJy1waCcsICc3LjAnLCAnLXRuJywgJzgnLCAnLW1hJywgJzIwMCcsICctbWV0YWxfYmluZGluZycsICctaW1hZScsICc8aW5maWxlLm1hZT4nLCAnLW9tYWUnLCAnPG91dGZpbGUubWFlPic=

> <r_lp_tautomer_probability>
1

> <r_epik_Ionization_Penalty>
6.7226e-08

> <r_epik_Ionization_Penalty_Charging>
6.11342e-09

> <r_epik_Ionization_Penalty_Neutral>
6.11126e-08

> <r_epik_State_Penalty>
-0

> <r_epik_Charging_Adjusted_Penalty>
6.11342e-09

> <i_epik_Tot_Q>
0

> <i_epik_Tot_abs_Q>
0

> <r_epik_Metal_State_Penalty>
-0

> <b_epik_Metal_Only>
0

> <s_lp_Force_Field>
OPLS_2005

> <r_lp_Energy>
32.3095

> <b_lp_Chiralities_Consistent>
1

> <s_lp_Variant>
AV-unprocessed.smi:2779-2

> <Gold.Version>
5.8.1

> <Gold.Id.Protein>
6NUR|6NUR_protein|mol2

> <Gold.PLP.Fitness>
54.0045

> <Gold.PLP.PLP>
-50.0633

> <Gold.PLP.part.hbond>
-2.0000

> <Gold.PLP.part.metal>
0.0000

> <Gold.PLP.part.buried>
-6.6893

> <Gold.PLP.part.nonpolar>
-44.3199

> <Gold.PLP.part.repulsive>
3.0408

> <Gold.PLP.ligand.clash>
0.0000

> <Gold.PLP.ligand.torsion>
1.0469

> <Gold.PLP.Chemscore.Hbond>
1.8000

> <Gold.PLP.Chemscore.CHOScore>
0.0000

> <Gold.PLP.Chemscore.Metal>
0.0000

> <Gold.Chemscore.Hbonds>
donor molecule, donor type, donor heavy atom, donor atom, acceptor molecule, acceptor atom, score
      L1  H    14    29       P1  8028  1.00
      P1  H  7997  8010       L1     1  0.75

> <Gold.PLP.Chemscore.Internal.Correction>
0.6350

> <Gold.Rescore>
     Score         DG    S(hbond)    S(metal)    S(lipo)     H(rot)  DE(clash)    DE(int)     intcor
     13.65     -16.73       1.90        0.00     103.23       2.80       2.33       0.75       ----

> <Gold.Chemscore.Fitness>
13.6463

> <Gold.Chemscore.DG>
-16.7269

> <Gold.Chemscore.ZeroCoef>
-5.4800

> <Gold.Chemscore.Hbond>
1.8989

> <Gold.Chemscore.Metal>
0.0000

> <Gold.Chemscore.Lipo>
103.2314

> <Gold.Chemscore.Internal_Hbond>
0.0000

> <Gold.Chemscore.DEClash>
2.3257

> <Gold.Chemscore.DEInternal>
0.7549

> <Gold.Chemscore.Rot>
2.8022

> <Gold.Chemscore.Internal.Correction>
   9.000000E+99

> <Gold.Chemscore.Hbonds>
donor molecule, donor type, donor heavy atom, donor atom, acceptor molecule, acceptor atom, score
      L1  H    14    29       P1  8028  1.00
      P1  H  7997  8010       L1     1  0.09

> <Gold.Chemscore.Hbond.Weighted>
-6.3424

> <Gold.Chemscore.Metal.Weighted>
-0.0000

> <Gold.Chemscore.Lipo.Weighted>
-12.0781

> <Gold.Chemscore.Internal_Hbond.Weighted>
0.0000

> <Gold.Chemscore.DEClash.Weighted>
2.3257

> <Gold.Chemscore.DEInternal.Weighted>
0.7549

> <Gold.Chemscore.Rot.Weighted>
7.1736

> <Gold.Chemscore.Internal.Correction.Weighted>
   9.000000E+99

> <Gold.Protein.RotatedTorsions>
[ 6907 6896 6895 6894 ] final  116.96 input  -60.11 | X-H torsion
[ 7974 7965 7964 7962 ] final  -74.57 input  175.53 | X-H torsion
[ 8008 7997 7996 7995 ] final   24.13 input   59.86 | X-H torsion
[ 10167 10162 10161 10158 ] final  117.04 input  -65.29 | X-H torsion
[ 10718 10713 10712 10709 ] final  -87.27 input   66.30 | X-H torsion
[ 10763 10752 10751 10750 ] final  129.74 input  -60.55 | X-H torsion
[ 11005 11000 10999 10996 ] final  -49.03 input  -57.11 | X-H torsion

> <Gold.Protein.ActiveResidues>
 VAL166  LYS551  ARG553  GLY616  TRP617  ASP618  TYR619  PRO620  LYS621  CYS622 
 ASP623  PHE694  ASN695  SER759  ASP760  ASP761  ALA762  ILE779  LEU786  VAL792 
 PHE793  MET794  SER795  GLU796  ALA797  LYS798  CYS799  TRP800  GLU811  SER814 

> <Gold.Protein.RotatedAtoms>
  152.4643  133.7890  159.6891 H   0  0  0  0  0  0  0  0  0  0  0  0  # atno 6907 bound_to 6896
  150.8601  133.7647  159.3001 H   0  0  0  0  0  0  0  0  0  0  0  0  # atno 6908 bound_to 6896
  151.5215  135.1070  159.9931 H   0  0  0  0  0  0  0  0  0  0  0  0  # atno 6909 bound_to 6896
  145.6374  140.9320  143.1054 H   0  0  0  0  0  0  0  0  0  0  0  0  # atno 7974 bound_to 7965
  154.9915  140.3114  155.4904 H   0  0  0  0  0  0  0  0  0  0  0  0  # atno 8008 bound_to 7997
  156.2939  140.2248  156.4961 H   0  0  0  0  0  0  0  0  0  0  0  0  # atno 8009 bound_to 7997
  154.7699  140.0453  157.1031 H   0  0  0  0  0  0  0  0  0  0  0  0  # atno 8010 bound_to 7997
  139.6206  144.7100  151.2643 H   0  0  0  0  0  0  0  0  0  0  0  0  # atno 10167 bound_to 10162
  155.9986  130.4794  150.4841 H   0  0  0  0  0  0  0  0  0  0  0  0  # atno 10718 bound_to 10713
  153.7467  135.3216  155.3314 H   0  0  0  0  0  0  0  0  0  0  0  0  # atno 10763 bound_to 10752
  154.8277  135.4557  154.0972 H   0  0  0  0  0  0  0  0  0  0  0  0  # atno 10764 bound_to 10752
  153.2163  135.6942  153.8136 H   0  0  0  0  0  0  0  0  0  0  0  0  # atno 10765 bound_to 10752
  141.0736  133.6672  156.3527 H   0  0  0  0  0  0  0  0  0  0  0  0  # atno 11005 bound_to 11000
  144.7170  139.8161  143.7395 LP  0  0  0  0  0  0  0  0  0  0  0  0  # atno 17320 bound_to 7965
  146.1308  139.4343  143.0170 LP  0  0  0  0  0  0  0  0  0  0  0  0  # atno 17321 bound_to 7965
  140.7379  143.6663  150.8120 LP  0  0  0  0  0  0  0  0  0  0  0  0  # atno 17342 bound_to 10162
  140.0273  143.5480  152.2775 LP  0  0  0  0  0  0  0  0  0  0  0  0  # atno 17343 bound_to 10162
  157.2844  131.0613  151.2176 LP  0  0  0  0  0  0  0  0  0  0  0  0  # atno 17370 bound_to 10713
  157.3211  130.6938  149.6270 LP  0  0  0  0  0  0  0  0  0  0  0  0  # atno 17371 bound_to 10713
  140.5622  134.5923  157.5436 LP  0  0  0  0  0  0  0  0  0  0  0  0  # atno 17394 bound_to 11000
  139.9548  134.7554  156.0366 LP  0  0  0  0  0  0  0  0  0  0  0  0  # atno 17395 bound_to 11000

$$$$
