AV-unprocessed.smi:906|AV-procd|sdf|4101|dock2
  -GOLD-   22720 1593D 1   1.00000     0.00000
 Structure written by MMmdl.
 47 48  0  0  0  0  0  0  0  0  1 V2000
  143.6951  134.3114  151.3156 C   0  0  0  0  0  0  0  0  0  0  0  0
  144.5582  135.4877  151.7216 C   0  0  0  0  0  0  0  0  0  0  0  0
  145.5325  136.0051  150.8420 C   0  0  0  0  0  0  0  0  0  0  0  0
  146.3035  137.1041  151.2671 C   0  0  0  0  0  0  0  0  0  0  0  0
  146.0715  137.6422  152.5494 C   0  0  0  0  0  0  0  0  0  0  0  0
  146.8690  138.8292  153.0521 C   0  0  0  0  0  0  0  0  0  0  0  0
  147.3068  138.6529  154.5150 C   0  0  0  0  0  0  0  0  0  0  0  0
  148.3259  139.6262  154.8889 N   0  0  0  0  0  0  0  0  0  0  0  0
  149.5417  139.3281  155.3782 C   0  0  0  0  0  0  0  0  0  0  0  0
  149.9111  138.1653  155.5492 O   0  0  0  0  0  0  0  0  0  0  0  0
  150.3325  140.4022  155.6242 N   0  0  0  0  0  0  0  0  0  0  0  0
  149.8970  141.7949  155.8037 C   0  0  0  0  0  0  0  0  0  0  0  0
  150.0767  142.1832  157.2840 C   0  0  0  0  0  0  0  0  0  0  0  0
  151.4809  142.0271  157.6836 N   0  0  0  0  0  0  0  0  0  0  0  0
  151.7237  142.5462  159.0408 C   0  0  1  0  0  0  0  0  0  0  0  0
  152.8271  141.7885  159.8118 C   0  0  0  0  0  0  0  0  0  0  0  0
  151.9511  144.0770  159.0426 C   0  0  0  0  0  0  0  0  0  0  0  0
  150.8246  144.7125  158.7183 F   0  0  0  0  0  0  0  0  0  0  0  0
  152.3028  144.4626  160.2692 F   0  0  0  0  0  0  0  0  0  0  0  0
  152.9157  144.4454  158.1996 F   0  0  0  0  0  0  0  0  0  0  0  0
  151.9429  140.6516  157.4507 C   0  0  0  0  0  0  0  0  0  0  0  0
  151.7513  140.2747  155.9689 C   0  0  0  0  0  0  0  0  0  0  0  0
  145.0720  137.0513  153.3510 C   0  0  0  0  0  0  0  0  0  0  0  0
  144.3279  135.9975  152.9518 N   0  0  0  0  0  0  0  0  0  0  0  0
  144.1658  133.7388  150.5158 H   0  0  0  0  0  0  0  0  0  0  0  0
  142.7253  134.6618  150.9616 H   0  0  0  0  0  0  0  0  0  0  0  0
  143.5317  133.6406  152.1597 H   0  0  0  0  0  0  0  0  0  0  0  0
  145.6855  135.5728  149.8640 H   0  0  0  0  0  0  0  0  0  0  0  0
  147.0566  137.5267  150.6182 H   0  0  0  0  0  0  0  0  0  0  0  0
  147.7400  138.9650  152.4094 H   0  0  0  0  0  0  0  0  0  0  0  0
  146.2663  139.7324  152.9474 H   0  0  0  0  0  0  0  0  0  0  0  0
  146.4518  138.7885  155.1781 H   0  0  0  0  0  0  0  0  0  0  0  0
  147.6747  137.6398  154.6862 H   0  0  0  0  0  0  0  0  0  0  0  0
  148.0949  140.6005  154.7607 H   0  0  0  0  0  0  0  0  0  0  0  0
  150.5008  142.4453  155.1688 H   0  0  0  0  0  0  0  0  0  0  0  0
  148.8645  141.9768  155.5066 H   0  0  0  0  0  0  0  0  0  0  0  0
  149.7670  143.2194  157.4231 H   0  0  0  0  0  0  0  0  0  0  0  0
  149.4295  141.5664  157.9080 H   0  0  0  0  0  0  0  0  0  0  0  0
  150.7918  142.3945  159.5876 H   0  0  0  0  0  0  0  0  0  0  0  0
  152.8845  142.1421  160.8412 H   0  0  0  0  0  0  0  0  0  0  0  0
  153.8114  141.9376  159.3683 H   0  0  0  0  0  0  0  0  0  0  0  0
  152.6371  140.7168  159.8558 H   0  0  0  0  0  0  0  0  0  0  0  0
  152.9975  140.5546  157.7000 H   0  0  0  0  0  0  0  0  0  0  0  0
  151.3940  139.9507  158.0806 H   0  0  0  0  0  0  0  0  0  0  0  0
  152.1372  139.2699  155.7926 H   0  0  0  0  0  0  0  0  0  0  0  0
  152.3417  140.9343  155.3309 H   0  0  0  0  0  0  0  0  0  0  0  0
  144.8606  137.4360  154.3380 H   0  0  0  0  0  0  0  0  0  0  0  0
  1  2  1  0  0  0  0
  1 25  1  0  0  0  0
  1 26  1  0  0  0  0
  1 27  1  0  0  0  0
  2 24  1  0  0  0  0
  2  3  2  0  0  0  0
  3  4  1  0  0  0  0
  3 28  1  0  0  0  0
  4  5  2  0  0  0  0
  4 29  1  0  0  0  0
  5  6  1  0  0  0  0
  5 23  1  0  0  0  0
  6  7  1  0  0  0  0
  6 30  1  0  0  0  0
  6 31  1  0  0  0  0
  7  8  1  0  0  0  0
  7 32  1  0  0  0  0
  7 33  1  0  0  0  0
  8  9  1  0  0  0  0
  8 34  1  0  0  0  0
  9 10  2  0  0  0  0
  9 11  1  0  0  0  0
 11 22  1  0  0  0  0
 11 12  1  0  0  0  0
 12 13  1  0  0  0  0
 12 35  1  0  0  0  0
 12 36  1  0  0  0  0
 13 14  1  0  0  0  0
 13 37  1  0  0  0  0
 13 38  1  0  0  0  0
 14 15  1  0  0  0  0
 14 21  1  0  0  0  0
 15 16  1  0  0  0  0
 15 17  1  0  0  0  0
 15 39  1  0  0  0  0
 16 40  1  0  0  0  0
 16 41  1  0  0  0  0
 16 42  1  0  0  0  0
 17 18  1  0  0  0  0
 17 19  1  0  0  0  0
 17 20  1  0  0  0  0
 21 22  1  0  0  0  0
 21 43  1  0  0  0  0
 21 44  1  0  0  0  0
 22 45  1  0  0  0  0
 22 46  1  0  0  0  0
 23 24  2  0  0  0  0
 23 47  1  0  0  0  0
M  END
> <s_m_source_file>
AV-unprocessed.smi

> <i_m_source_file_index>
906

> <i_lp_mmshare_version>
43012

> <i_f3d_flags>
0

> <s_epik_input>
W0NIM11jMVtjSF1bY0hdYyhbY0hdbjEpW0NIMl1bQ0gyXVtOSF1DKD1PKU4yW0NIMl1bQ0gyXU4oW0NASF0oW0NIM10pQyhGKShGKUYpW0NIMl1bQ0gyXTI=

> <s_epik_cmdline>
J2VwaWtfcHl0aG9uJywgJy1waCcsICc3LjAnLCAnLXRuJywgJzgnLCAnLW1hJywgJzIwMCcsICctbWV0YWxfYmluZGluZycsICctaW1hZScsICc8aW5maWxlLm1hZT4nLCAnLW9tYWUnLCAnPG91dGZpbGUubWFlPic=

> <r_epik_Ionization_Penalty>
0.0782886

> <r_epik_Ionization_Penalty_Charging>
0

> <r_epik_Ionization_Penalty_Neutral>
0.0782886

> <r_epik_State_Penalty>
0.0661423

> <r_epik_Charging_Adjusted_Penalty>
0.0661423

> <i_epik_Tot_Q>
0

> <i_epik_Tot_abs_Q>
0

> <r_epik_Metal_State_Penalty>
0.060629

> <b_epik_Metal_Only>
0

> <s_lp_Force_Field>
OPLS_2005

> <r_lp_Energy>
47.1211

> <b_lp_Chiralities_Consistent>
1

> <s_lp_Variant>
AV-unprocessed.smi:906-2

> <Gold.Version>
5.8.1

> <Gold.Id.Protein>
6NUR|6NUR_protein|mol2

> <Gold.PLP.Fitness>
42.0950

> <Gold.PLP.PLP>
-44.1974

> <Gold.PLP.part.hbond>
0.0000

> <Gold.PLP.part.metal>
0.0000

> <Gold.PLP.part.buried>
-0.0691

> <Gold.PLP.part.nonpolar>
-45.2229

> <Gold.PLP.part.repulsive>
0.2019

> <Gold.PLP.ligand.clash>
0.0000

> <Gold.PLP.ligand.torsion>
1.4020

> <Gold.PLP.Chemscore.Hbond>
0.0000

> <Gold.PLP.Chemscore.CHOScore>
0.0000

> <Gold.PLP.Chemscore.Metal>
0.0000

> <Gold.PLP.Chemscore.Internal.Correction>
0.7016

> <Gold.Rescore>
     Score         DG    S(hbond)    S(metal)    S(lipo)     H(rot)  DE(clash)    DE(int)     intcor
     10.81     -14.01       0.00        0.00     107.58       1.58       1.59       1.62       ----

> <Gold.Chemscore.Fitness>
10.8103

> <Gold.Chemscore.DG>
-14.0116

> <Gold.Chemscore.ZeroCoef>
-5.4800

> <Gold.Chemscore.Hbond>
0.0000

> <Gold.Chemscore.Metal>
0.0000

> <Gold.Chemscore.Lipo>
107.5810

> <Gold.Chemscore.Internal_Hbond>
0.0000

> <Gold.Chemscore.DEClash>
1.5850

> <Gold.Chemscore.DEInternal>
1.6162

> <Gold.Chemscore.Rot>
1.5841

> <Gold.Chemscore.Internal.Correction>
   9.000000E+99

> <Gold.Chemscore.Hbond.Weighted>
-0.0000

> <Gold.Chemscore.Metal.Weighted>
-0.0000

> <Gold.Chemscore.Lipo.Weighted>
-12.5870

> <Gold.Chemscore.Internal_Hbond.Weighted>
0.0000

> <Gold.Chemscore.DEClash.Weighted>
1.5850

> <Gold.Chemscore.DEInternal.Weighted>
1.6162

> <Gold.Chemscore.Rot.Weighted>
4.0554

> <Gold.Chemscore.Internal.Correction.Weighted>
   9.000000E+99

> <Gold.Protein.RotatedTorsions>
[ 6907 6896 6895 6894 ] final  -43.36 input  -60.11 | X-H torsion
[ 7974 7965 7964 7962 ] final -145.49 input  175.53 | X-H torsion
[ 8008 7997 7996 7995 ] final   69.22 input   59.86 | X-H torsion
[ 10167 10162 10161 10158 ] final   91.67 input  -65.29 | X-H torsion
[ 10718 10713 10712 10709 ] final -167.27 input   66.30 | X-H torsion
[ 10763 10752 10751 10750 ] final -145.06 input  -60.55 | X-H torsion
[ 11005 11000 10999 10996 ] final -152.28 input  -57.11 | X-H torsion

> <Gold.Protein.ActiveResidues>
 VAL166  LYS551  ARG553  GLY616  TRP617  ASP618  TYR619  PRO620  LYS621  CYS622 
 ASP623  PHE694  ASN695  SER759  ASP760  ASP761  ALA762  ILE779  LEU786  VAL792 
 PHE793  MET794  SER795  GLU796  ALA797  LYS798  CYS799  TRP800  GLU811  SER814 

> <Gold.Protein.RotatedAtoms>
  150.9448  134.8854  159.7635 H   0  0  0  0  0  0  0  0  0  0  0  0  # atno 6907 bound_to 6896
  152.5095  134.3890  159.9387 H   0  0  0  0  0  0  0  0  0  0  0  0  # atno 6908 bound_to 6896
  151.3908  133.3749  159.2755 H   0  0  0  0  0  0  0  0  0  0  0  0  # atno 6909 bound_to 6896
  144.8224  140.5577  143.5569 H   0  0  0  0  0  0  0  0  0  0  0  0  # atno 7974 bound_to 7965
  155.7202  140.3493  155.5012 H   0  0  0  0  0  0  0  0  0  0  0  0  # atno 8008 bound_to 7997
  155.9276  140.1078  157.1179 H   0  0  0  0  0  0  0  0  0  0  0  0  # atno 8009 bound_to 7997
  154.4080  140.1237  156.4748 H   0  0  0  0  0  0  0  0  0  0  0  0  # atno 8010 bound_to 7997
  139.8351  144.6668  150.9351 H   0  0  0  0  0  0  0  0  0  0  0  0  # atno 10167 bound_to 10162
  156.6800  130.9118  151.3055 H   0  0  0  0  0  0  0  0  0  0  0  0  # atno 10718 bound_to 10713
  154.8400  135.3423  154.6445 H   0  0  0  0  0  0  0  0  0  0  0  0  # atno 10763 bound_to 10752
  153.7057  135.6967  153.5055 H   0  0  0  0  0  0  0  0  0  0  0  0  # atno 10764 bound_to 10752
  153.2489  135.4360  155.0731 H   0  0  0  0  0  0  0  0  0  0  0  0  # atno 10765 bound_to 10752
  140.7206  134.3732  157.5184 H   0  0  0  0  0  0  0  0  0  0  0  0  # atno 11005 bound_to 11000
  145.5075  139.1480  143.3623 LP  0  0  0  0  0  0  0  0  0  0  0  0  # atno 17320 bound_to 7965
  146.2530  140.5215  142.8885 LP  0  0  0  0  0  0  0  0  0  0  0  0  # atno 17321 bound_to 7965
  140.7803  143.3964  151.1222 LP  0  0  0  0  0  0  0  0  0  0  0  0  # atno 17342 bound_to 10162
  139.7615  143.8629  152.3101 LP  0  0  0  0  0  0  0  0  0  0  0  0  # atno 17343 bound_to 10162
  157.7047  130.9372  150.0893 LP  0  0  0  0  0  0  0  0  0  0  0  0  # atno 17370 bound_to 10713
  156.1875  130.3653  149.8954 LP  0  0  0  0  0  0  0  0  0  0  0  0  # atno 17371 bound_to 10713
  139.8849  134.8952  156.2674 LP  0  0  0  0  0  0  0  0  0  0  0  0  # atno 17394 bound_to 11000
  141.0007  133.7153  156.0956 LP  0  0  0  0  0  0  0  0  0  0  0  0  # atno 17395 bound_to 11000

$$$$
