AV-unprocessed.smi:2845|AV-procd|sdf|10945|dock2
  -GOLD-   2272015393D 1   1.00000     0.00000
 Structure written by MMmdl.
 42 44  0  0  0  0  0  0  0  0  1 V2000
  152.7527  142.8272  161.1001 C   0  0  0  0  0  0  0  0  0  0  0  0
  152.1904  142.4402  159.7436 C   0  0  0  0  0  0  0  0  0  0  0  0
  152.6650  141.2688  159.1116 C   0  0  0  0  0  0  0  0  0  0  0  0
  152.1692  140.8752  157.8492 C   0  0  0  0  0  0  0  0  0  0  0  0
  152.4879  139.7839  157.0591 N   0  0  0  0  0  0  0  0  0  0  0  0
  151.6935  139.9724  156.0095 C   0  0  0  0  0  0  0  0  0  0  0  0
  150.8963  141.0577  156.0259 N   0  0  0  0  0  0  0  0  0  0  0  0
  149.9550  141.4643  154.9975 C   0  0  0  0  0  0  0  0  0  0  0  0
  149.0594  140.3032  154.5259 C   0  0  2  0  0  0  0  0  0  0  0  0
  149.8185  139.4039  153.7389 O   0  0  0  0  0  0  0  0  0  0  0  0
  147.8451  140.8041  153.7212 C   0  0  0  0  0  0  0  0  0  0  0  0
  146.9628  141.6415  154.5137 N   0  0  0  0  0  0  0  0  0  0  0  0
  146.9865  141.9341  155.8173 C   0  0  0  0  0  0  0  0  0  0  0  0
  146.0036  142.7347  156.2084 N   0  0  0  0  0  0  0  0  0  0  0  0
  145.3781  142.9050  155.0078 C   0  0  0  0  0  0  0  0  0  0  0  0
  143.8829  143.9322  154.8554 S   0  0  2  0  0  0  0  0  0  0  0  0
  144.4630  144.8817  153.3711 C   0  0  0  0  0  0  0  0  0  0  0  0
  143.9104  144.8966  156.0431 O   0  0  0  0  0  0  0  0  0  0  0  0
  145.9037  142.2764  153.9581 N   0  0  0  0  0  0  0  0  0  0  0  0
  151.1768  141.6917  157.2318 C   0  0  0  0  0  0  0  0  0  0  0  0
  150.6972  142.8596  157.8505 C   0  0  0  0  0  0  0  0  0  0  0  0
  151.2035  143.2385  159.1114 C   0  0  0  0  0  0  0  0  0  0  0  0
  150.6801  144.5025  159.7705 C   0  0  0  0  0  0  0  0  0  0  0  0
  153.4980  142.1086  161.4421 H   0  0  0  0  0  0  0  0  0  0  0  0
  151.9588  142.8660  161.8462 H   0  0  0  0  0  0  0  0  0  0  0  0
  153.2304  143.8059  161.0502 H   0  0  0  0  0  0  0  0  0  0  0  0
  153.4175  140.6609  159.5922 H   0  0  0  0  0  0  0  0  0  0  0  0
  151.6909  139.2820  155.1787 H   0  0  0  0  0  0  0  0  0  0  0  0
  149.3420  142.2722  155.3992 H   0  0  0  0  0  0  0  0  0  0  0  0
  150.5113  141.8847  154.1588 H   0  0  0  0  0  0  0  0  0  0  0  0
  148.7016  139.7569  155.3998 H   0  0  0  0  0  0  0  0  0  0  0  0
  149.8029  139.7017  152.8419 H   0  0  0  0  0  0  0  0  0  0  0  0
  148.1800  141.3883  152.8633 H   0  0  0  0  0  0  0  0  0  0  0  0
  147.2747  139.9636  153.3221 H   0  0  0  0  0  0  0  0  0  0  0  0
  147.7353  141.5494  156.4941 H   0  0  0  0  0  0  0  0  0  0  0  0
  145.1575  144.2905  152.7738 H   0  0  0  0  0  0  0  0  0  0  0  0
  144.9657  145.7975  153.6825 H   0  0  0  0  0  0  0  0  0  0  0  0
  143.6131  145.1497  152.7436 H   0  0  0  0  0  0  0  0  0  0  0  0
  149.9484  143.4604  157.3558 H   0  0  0  0  0  0  0  0  0  0  0  0
  149.9165  144.9833  159.1583 H   0  0  0  0  0  0  0  0  0  0  0  0
  151.4890  145.2180  159.9198 H   0  0  0  0  0  0  0  0  0  0  0  0
  150.2358  144.2733  160.7393 H   0  0  0  0  0  0  0  0  0  0  0  0
  1  2  1  0  0  0  0
  1 24  1  0  0  0  0
  1 25  1  0  0  0  0
  1 26  1  0  0  0  0
  2 22  1  0  0  0  0
  2  3  2  0  0  0  0
  3  4  1  0  0  0  0
  3 27  1  0  0  0  0
  4 20  2  0  0  0  0
  4  5  1  0  0  0  0
  5  6  2  0  0  0  0
  6  7  1  0  0  0  0
  6 28  1  0  0  0  0
  7  8  1  0  0  0  0
  7 20  1  0  0  0  0
  8  9  1  0  0  0  0
  8 29  1  0  0  0  0
  8 30  1  0  0  0  0
  9 10  1  0  0  0  0
  9 11  1  0  0  0  0
  9 31  1  0  0  0  0
 10 32  1  0  0  0  0
 11 12  1  0  0  0  0
 11 33  1  0  0  0  0
 11 34  1  0  0  0  0
 12 19  1  0  0  0  0
 12 13  1  0  0  0  0
 13 14  2  0  0  0  0
 13 35  1  0  0  0  0
 14 15  1  0  0  0  0
 15 16  1  0  0  0  0
 15 19  2  0  0  0  0
 16 17  1  0  0  0  0
 16 18  2  0  0  0  0
 17 36  1  0  0  0  0
 17 37  1  0  0  0  0
 17 38  1  0  0  0  0
 20 21  1  0  0  0  0
 21 22  2  0  0  0  0
 21 39  1  0  0  0  0
 22 23  1  0  0  0  0
 23 40  1  0  0  0  0
 23 41  1  0  0  0  0
 23 42  1  0  0  0  0
M  END
> <s_m_source_file>
AV-unprocessed.smi

> <i_m_source_file_index>
2845

> <i_lp_mmshare_version>
43012

> <i_f3d_flags>
0

> <s_epik_input>
W0NIM11jKFtjSF0xKWMoW0NIM10pW2NIXWMoYzEyKW4oW2NIXW4yKVtDSDJdW0NASF0oW09IXSlbQ0gyXW4zW2NIXW5jKG4zKVtTQF0oPU8pW0NIM10=

> <s_epik_cmdline>
J2VwaWtfcHl0aG9uJywgJy1waCcsICc3LjAnLCAnLXRuJywgJzgnLCAnLW1hJywgJzIwMCcsICctbWV0YWxfYmluZGluZycsICctaW1hZScsICc8aW5maWxlLm1hZT4nLCAnLW9tYWUnLCAnPG91dGZpbGUubWFlPic=

> <r_lp_tautomer_probability>
1

> <r_epik_Ionization_Penalty>
0.0968684

> <r_epik_Ionization_Penalty_Charging>
0

> <r_epik_Ionization_Penalty_Neutral>
0.0968684

> <r_epik_State_Penalty>
0.0870047

> <r_epik_Charging_Adjusted_Penalty>
0.0870047

> <i_epik_Tot_Q>
0

> <i_epik_Tot_abs_Q>
0

> <r_epik_Metal_State_Penalty>
0.0746849

> <b_epik_Metal_Only>
0

> <s_lp_Force_Field>
OPLS_2005

> <r_lp_Energy>
9.81721

> <b_lp_Chiralities_Consistent>
1

> <s_lp_Variant>
AV-unprocessed.smi:2845-3

> <Gold.Version>
5.8.1

> <Gold.Id.Protein>
6NUR|6NUR_protein|mol2

> <Gold.PLP.Fitness>
53.4152

> <Gold.PLP.PLP>
-47.9250

> <Gold.PLP.part.hbond>
-2.3912

> <Gold.PLP.part.metal>
0.0000

> <Gold.PLP.part.buried>
-4.6231

> <Gold.PLP.part.nonpolar>
-41.9750

> <Gold.PLP.part.repulsive>
0.4422

> <Gold.PLP.ligand.clash>
0.0284

> <Gold.PLP.ligand.torsion>
0.7973

> <Gold.PLP.Chemscore.Hbond>
2.0000

> <Gold.PLP.Chemscore.CHOScore>
0.0000

> <Gold.PLP.Chemscore.Metal>
0.0000

> <Gold.Chemscore.Hbonds>
donor molecule, donor type, donor heavy atom, donor atom, acceptor molecule, acceptor atom, score
      L1  H    10    32       P1  7957  1.00
      P1  H  7997  8010       L1     5  1.00

> <Gold.PLP.Chemscore.Internal.Correction>
1.1133

> <Gold.Rescore>
     Score         DG    S(hbond)    S(metal)    S(lipo)     H(rot)  DE(clash)    DE(int)     intcor
     15.50     -16.37       1.81        0.00     100.77       2.71       0.03       0.83       ----

> <Gold.Chemscore.Fitness>
15.4986

> <Gold.Chemscore.DG>
-16.3653

> <Gold.Chemscore.ZeroCoef>
-5.4800

> <Gold.Chemscore.Hbond>
1.8068

> <Gold.Chemscore.Metal>
0.0000

> <Gold.Chemscore.Lipo>
100.7717

> <Gold.Chemscore.Internal_Hbond>
0.0000

> <Gold.Chemscore.DEClash>
0.0324

> <Gold.Chemscore.DEInternal>
0.8344

> <Gold.Chemscore.Rot>
2.7108

> <Gold.Chemscore.Internal.Correction>
   9.000000E+99

> <Gold.Chemscore.Hbonds>
donor molecule, donor type, donor heavy atom, donor atom, acceptor molecule, acceptor atom, score
      L1  H    10    32       P1  7957  1.00
      P1  H  7997  8010       L1     5  0.32

> <Gold.Chemscore.Hbond.Weighted>
-6.0347

> <Gold.Chemscore.Metal.Weighted>
-0.0000

> <Gold.Chemscore.Lipo.Weighted>
-11.7903

> <Gold.Chemscore.Internal_Hbond.Weighted>
0.0000

> <Gold.Chemscore.DEClash.Weighted>
0.0324

> <Gold.Chemscore.DEInternal.Weighted>
0.8344

> <Gold.Chemscore.Rot.Weighted>
6.9396

> <Gold.Chemscore.Internal.Correction.Weighted>
   9.000000E+99

> <Gold.Protein.RotatedTorsions>
[ 6907 6896 6895 6894 ] final  -46.68 input  -60.11 | X-H torsion
[ 7974 7965 7964 7962 ] final  -12.61 input  175.53 | X-H torsion
[ 8008 7997 7996 7995 ] final   61.54 input   59.86 | X-H torsion
[ 10167 10162 10161 10158 ] final -109.39 input  -65.29 | X-H torsion
[ 10718 10713 10712 10709 ] final  144.56 input   66.30 | X-H torsion
[ 10763 10752 10751 10750 ] final   87.16 input  -60.55 | X-H torsion
[ 11005 11000 10999 10996 ] final -154.64 input  -57.11 | X-H torsion

> <Gold.Protein.ActiveResidues>
 VAL166  LYS551  ARG553  GLY616  TRP617  ASP618  TYR619  PRO620  LYS621  CYS622 
 ASP623  PHE694  ASN695  SER759  ASP760  ASP761  ALA762  ILE779  LEU786  VAL792 
 PHE793  MET794  SER795  GLU796  ALA797  LYS798  CYS799  TRP800  GLU811  SER814 

> <Gold.Protein.RotatedAtoms>
  150.9087  134.8503  159.7410 H   0  0  0  0  0  0  0  0  0  0  0  0  # atno 6907 bound_to 6896
  152.4933  134.4391  159.9547 H   0  0  0  0  0  0  0  0  0  0  0  0  # atno 6908 bound_to 6896
  151.4436  133.3597  159.2820 H   0  0  0  0  0  0  0  0  0  0  0  0  # atno 6909 bound_to 6896
  146.2145  140.3083  142.8380 H   0  0  0  0  0  0  0  0  0  0  0  0  # atno 7974 bound_to 7965
  155.6001  140.3494  155.4591 H   0  0  0  0  0  0  0  0  0  0  0  0  # atno 8008 bound_to 7997
  156.0235  140.1259  157.0357 H   0  0  0  0  0  0  0  0  0  0  0  0  # atno 8009 bound_to 7997
  154.4324  140.1057  156.5983 H   0  0  0  0  0  0  0  0  0  0  0  0  # atno 8010 bound_to 7997
  140.1559  143.4161  152.1461 H   0  0  0  0  0  0  0  0  0  0  0  0  # atno 10167 bound_to 10162
  157.3557  131.0957  151.0960 H   0  0  0  0  0  0  0  0  0  0  0  0  # atno 10718 bound_to 10713
  153.1641  135.4554  154.9812 H   0  0  0  0  0  0  0  0  0  0  0  0  # atno 10763 bound_to 10752
  154.7919  135.3223  154.7760 H   0  0  0  0  0  0  0  0  0  0  0  0  # atno 10764 bound_to 10752
  153.8246  135.6944  153.4877 H   0  0  0  0  0  0  0  0  0  0  0  0  # atno 10765 bound_to 10752
  140.6951  134.3999  157.5215 H   0  0  0  0  0  0  0  0  0  0  0  0  # atno 11005 bound_to 11000
  144.9007  140.7638  143.5869 LP  0  0  0  0  0  0  0  0  0  0  0  0  # atno 17320 bound_to 7965
  145.3009  139.1851  143.4690 LP  0  0  0  0  0  0  0  0  0  0  0  0  # atno 17321 bound_to 7965
  139.5404  144.7251  151.4753 LP  0  0  0  0  0  0  0  0  0  0  0  0  # atno 17342 bound_to 10162
  140.6674  143.8369  150.6958 LP  0  0  0  0  0  0  0  0  0  0  0  0  # atno 17343 bound_to 10162
  157.2119  130.6442  149.5777 LP  0  0  0  0  0  0  0  0  0  0  0  0  # atno 17370 bound_to 10713
  155.9729  130.4657  150.6263 LP  0  0  0  0  0  0  0  0  0  0  0  0  # atno 17371 bound_to 10713
  139.8912  134.8785  156.2330 LP  0  0  0  0  0  0  0  0  0  0  0  0  # atno 17394 bound_to 11000
  141.0210  133.7041  156.1268 LP  0  0  0  0  0  0  0  0  0  0  0  0  # atno 17395 bound_to 11000

$$$$
