AV-unprocessed.smi:2923|AV-procd|sdf|11214|dock2
  -GOLD-   2272016103D 1   1.00000     0.00000
 Structure written by MMmdl.
 46 48  0  0  0  0  0  0  0  0  1 V2000
  148.9642  128.8137  152.8232 C   0  0  0  0  0  0  0  0  0  0  0  0
  147.9127  129.7525  153.1817 N   0  0  0  0  0  0  0  0  0  0  0  0
  146.7709  129.8136  152.2822 C   0  0  0  0  0  0  0  0  0  0  0  0
  148.4089  131.0160  153.5281 C   0  0  0  0  0  0  0  0  0  0  0  0
  149.4501  131.1633  154.4724 C   0  0  0  0  0  0  0  0  0  0  0  0
  149.9061  132.4586  154.7833 C   0  0  0  0  0  0  0  0  0  0  0  0
  149.3012  133.5675  154.1451 C   0  0  0  0  0  0  0  0  0  0  0  0
  149.6802  134.9204  154.3580 N   0  0  0  0  0  0  0  0  0  0  0  0
  150.1895  135.4843  155.4665 C   0  0  0  0  0  0  0  0  0  0  0  0
  150.4183  134.8984  156.5243 O   0  0  0  0  0  0  0  0  0  0  0  0
  150.4063  136.7926  155.2820 N   0  0  0  0  0  0  0  0  0  0  0  0
  150.9500  137.7113  156.2844 C   0  0  2  0  0  0  0  0  0  0  0  0
  150.1478  139.0278  156.3915 C   0  0  2  0  0  0  0  0  0  0  0  0
  148.8006  139.2236  155.7395 C   0  0  0  0  0  0  0  0  0  0  0  0
  149.1570  139.9446  154.4362 C   0  0  0  0  0  0  0  0  0  0  0  0
  150.5344  139.6453  154.2185 O   0  0  0  0  0  0  0  0  0  0  0  0
  151.1894  139.6637  155.4850 C   0  0  2  0  0  0  0  0  0  0  0  0
  152.1751  138.5102  155.7673 C   0  0  0  0  0  0  0  0  0  0  0  0
  153.2160  138.8273  156.8452 C   0  0  0  0  0  0  0  0  0  0  0  0
  152.9555  137.9685  154.5617 C   0  0  0  0  0  0  0  0  0  0  0  0
  148.2792  133.3082  153.2085 C   0  0  0  0  0  0  0  0  0  0  0  0
  147.8358  132.0694  152.9074 N   0  0  0  0  0  0  0  0  0  0  0  0
  149.7705  128.8339  153.5574 H   0  0  0  0  0  0  0  0  0  0  0  0
  149.3822  129.0513  151.8443 H   0  0  0  0  0  0  0  0  0  0  0  0
  148.5669  127.7992  152.7882 H   0  0  0  0  0  0  0  0  0  0  0  0
  146.0324  130.5312  152.6422 H   0  0  0  0  0  0  0  0  0  0  0  0
  146.2889  128.8376  152.2204 H   0  0  0  0  0  0  0  0  0  0  0  0
  147.0773  130.1070  151.2775 H   0  0  0  0  0  0  0  0  0  0  0  0
  149.8956  130.3027  154.9497 H   0  0  0  0  0  0  0  0  0  0  0  0
  150.7134  132.5706  155.4897 H   0  0  0  0  0  0  0  0  0  0  0  0
  149.4838  135.5486  153.5924 H   0  0  0  0  0  0  0  0  0  0  0  0
  150.1849  137.1899  154.3806 H   0  0  0  0  0  0  0  0  0  0  0  0
  151.1251  137.2574  157.2616 H   0  0  0  0  0  0  0  0  0  0  0  0
  150.2083  139.4363  157.4015 H   0  0  0  0  0  0  0  0  0  0  0  0
  148.2960  138.2774  155.5449 H   0  0  0  0  0  0  0  0  0  0  0  0
  148.1308  139.8282  156.3516 H   0  0  0  0  0  0  0  0  0  0  0  0
  148.5402  139.6253  153.5961 H   0  0  0  0  0  0  0  0  0  0  0  0
  149.0437  141.0235  154.5524 H   0  0  0  0  0  0  0  0  0  0  0  0
  151.5067  140.6591  155.7993 H   0  0  0  0  0  0  0  0  0  0  0  0
  153.9242  139.5849  156.5081 H   0  0  0  0  0  0  0  0  0  0  0  0
  153.7878  137.9408  157.1218 H   0  0  0  0  0  0  0  0  0  0  0  0
  152.7509  139.2065  157.7556 H   0  0  0  0  0  0  0  0  0  0  0  0
  153.7313  138.6649  154.2423 H   0  0  0  0  0  0  0  0  0  0  0  0
  152.3144  137.7984  153.6966 H   0  0  0  0  0  0  0  0  0  0  0  0
  153.4405  137.0201  154.7950 H   0  0  0  0  0  0  0  0  0  0  0  0
  147.7959  134.1206  152.6855 H   0  0  0  0  0  0  0  0  0  0  0  0
  1  2  1  0  0  0  0
  1 23  1  0  0  0  0
  1 24  1  0  0  0  0
  1 25  1  0  0  0  0
  2  3  1  0  0  0  0
  2  4  1  0  0  0  0
  3 26  1  0  0  0  0
  3 27  1  0  0  0  0
  3 28  1  0  0  0  0
  4 22  1  0  0  0  0
  4  5  2  0  0  0  0
  5  6  1  0  0  0  0
  5 29  1  0  0  0  0
  6  7  2  0  0  0  0
  6 30  1  0  0  0  0
  7  8  1  0  0  0  0
  7 21  1  0  0  0  0
  8  9  1  0  0  0  0
  8 31  1  0  0  0  0
  9 10  2  0  0  0  0
  9 11  1  0  0  0  0
 11 12  1  0  0  0  0
 11 32  1  0  0  0  0
 12 18  1  0  0  0  0
 12 13  1  0  0  0  0
 12 33  1  0  0  0  0
 13 17  1  0  0  0  0
 13 14  1  0  0  0  0
 13 34  1  0  0  0  0
 14 15  1  0  0  0  0
 14 35  1  0  0  0  0
 14 36  1  0  0  0  0
 15 16  1  0  0  0  0
 15 37  1  0  0  0  0
 15 38  1  0  0  0  0
 16 17  1  0  0  0  0
 17 18  1  0  0  0  0
 17 39  1  0  0  0  0
 18 19  1  0  0  0  0
 18 20  1  0  0  0  0
 19 40  1  0  0  0  0
 19 41  1  0  0  0  0
 19 42  1  0  0  0  0
 20 43  1  0  0  0  0
 20 44  1  0  0  0  0
 20 45  1  0  0  0  0
 21 22  2  0  0  0  0
 21 46  1  0  0  0  0
M  END
> <s_m_source_file>
AV-unprocessed.smi

> <i_m_source_file_index>
2923

> <i_lp_mmshare_version>
43012

> <i_f3d_flags>
0

> <s_epik_input>
W0NIM11OKFtDSDNdKWMxW2NIXVtjSF1jKFtjSF1uMSlbTkhdQyg9TylbTkhdW0NASF0yQyhbQ0gzXSkoW0NIM10pW0NAQEhdKFtDQEhdMjMpT1tDSDJdW0NIMl0z

> <s_epik_cmdline>
J2VwaWtfcHl0aG9uJywgJy1waCcsICc3LjAnLCAnLXRuJywgJzgnLCAnLW1hJywgJzIwMCcsICctbWV0YWxfYmluZGluZycsICctaW1hZScsICc8aW5maWxlLm1hZT4nLCAnLW9tYWUnLCAnPG91dGZpbGUubWFlPic=

> <r_lp_tautomer_probability>
1

> <r_epik_Ionization_Penalty>
0.628785

> <r_epik_Ionization_Penalty_Charging>
0

> <r_epik_Ionization_Penalty_Neutral>
0.628785

> <r_epik_State_Penalty>
0.644286

> <r_epik_Charging_Adjusted_Penalty>
0.644286

> <i_epik_Tot_Q>
0

> <i_epik_Tot_abs_Q>
0

> <r_epik_Metal_State_Penalty>
0.308404

> <b_epik_Metal_Only>
0

> <s_lp_Force_Field>
OPLS_2005

> <r_lp_Energy>
44.9088

> <b_lp_Chiralities_Consistent>
1

> <s_lp_Variant>
AV-unprocessed.smi:2923-13

> <Gold.Version>
5.8.1

> <Gold.Id.Protein>
6NUR|6NUR_protein|mol2

> <Gold.PLP.Fitness>
36.2160

> <Gold.PLP.PLP>
-28.4915

> <Gold.PLP.part.hbond>
-2.0000

> <Gold.PLP.part.metal>
0.0000

> <Gold.PLP.part.buried>
1.1144

> <Gold.PLP.part.nonpolar>
-27.0409

> <Gold.PLP.part.repulsive>
0.5536

> <Gold.PLP.ligand.clash>
0.0000

> <Gold.PLP.ligand.torsion>
0.3904

> <Gold.PLP.Chemscore.Hbond>
1.8000

> <Gold.PLP.Chemscore.CHOScore>
0.9029

> <Gold.PLP.Chemscore.Metal>
0.0000

> <Gold.Chemscore.Hbonds>
donor molecule, donor type, donor heavy atom, donor atom, acceptor molecule, acceptor atom, score
      L1  H     8    31       P1  7948  0.95
      P1  H  7989  7998       L1    16  0.75
      L1  C    21    46       P1  7948  0.89

> <Gold.PLP.Chemscore.Internal.Correction>
0.3967

> <Gold.Rescore>
     Score         DG    S(hbond)    S(metal)    S(lipo)     H(rot)  DE(clash)    DE(int)     intcor
     12.09     -14.79       0.89        0.00      80.29       1.19       1.51       1.19       ----

> <Gold.Chemscore.Fitness>
12.0897

> <Gold.Chemscore.DG>
-14.7917

> <Gold.Chemscore.ZeroCoef>
-5.4800

> <Gold.Chemscore.Hbond>
0.8905

> <Gold.Chemscore.Metal>
0.0000

> <Gold.Chemscore.Lipo>
80.2858

> <Gold.Chemscore.Internal_Hbond>
0.0000

> <Gold.Chemscore.DEClash>
1.5122

> <Gold.Chemscore.DEInternal>
1.1899

> <Gold.Chemscore.Rot>
1.1937

> <Gold.Chemscore.Internal.Correction>
   9.000000E+99

> <Gold.Chemscore.Hbonds>
donor molecule, donor type, donor heavy atom, donor atom, acceptor molecule, acceptor atom, score
      L1  H     8    31       P1  7948  0.21
      P1  H  7989  7998       L1    16  0.09

> <Gold.Chemscore.Hbond.Weighted>
-2.9742

> <Gold.Chemscore.Metal.Weighted>
-0.0000

> <Gold.Chemscore.Lipo.Weighted>
-9.3934

> <Gold.Chemscore.Internal_Hbond.Weighted>
0.0000

> <Gold.Chemscore.DEClash.Weighted>
1.5122

> <Gold.Chemscore.DEInternal.Weighted>
1.1899

> <Gold.Chemscore.Rot.Weighted>
3.0559

> <Gold.Chemscore.Internal.Correction.Weighted>
   9.000000E+99

> <Gold.Protein.RotatedTorsions>
[ 6907 6896 6895 6894 ] final   21.77 input  -60.11 | X-H torsion
[ 7974 7965 7964 7962 ] final  -58.46 input  175.53 | X-H torsion
[ 8008 7997 7996 7995 ] final -164.23 input   59.86 | X-H torsion
[ 10167 10162 10161 10158 ] final  101.39 input  -65.29 | X-H torsion
[ 10718 10713 10712 10709 ] final   46.27 input   66.30 | X-H torsion
[ 10763 10752 10751 10750 ] final  137.03 input  -60.55 | X-H torsion
[ 11005 11000 10999 10996 ] final -147.05 input  -57.11 | X-H torsion

> <Gold.Protein.ActiveResidues>
 VAL166  LYS551  ARG553  GLY616  TRP617  ASP618  TYR619  PRO620  LYS621  CYS622 
 ASP623  PHE694  ASN695  SER759  ASP760  ASP761  ALA762  ILE779  LEU786  VAL792 
 PHE793  MET794  SER795  GLU796  ALA797  LYS798  CYS799  TRP800  GLU811  SER814 

> <Gold.Protein.RotatedAtoms>
  151.9168  135.0315  160.0518 H   0  0  0  0  0  0  0  0  0  0  0  0  # atno 6907 bound_to 6896
  152.2233  133.4996  159.5183 H   0  0  0  0  0  0  0  0  0  0  0  0  # atno 6908 bound_to 6896
  150.7005  134.1231  159.4084 H   0  0  0  0  0  0  0  0  0  0  0  0  # atno 6909 bound_to 6896
  145.8391  140.8429  143.0044 H   0  0  0  0  0  0  0  0  0  0  0  0  # atno 7974 bound_to 7965
  155.8326  140.0936  157.1783 H   0  0  0  0  0  0  0  0  0  0  0  0  # atno 8008 bound_to 7997
  154.3980  140.1416  156.3693 H   0  0  0  0  0  0  0  0  0  0  0  0  # atno 8009 bound_to 7997
  155.8150  140.3448  155.5482 H   0  0  0  0  0  0  0  0  0  0  0  0  # atno 8010 bound_to 7997
  139.7442  144.7003  151.0530 H   0  0  0  0  0  0  0  0  0  0  0  0  # atno 10167 bound_to 10162
  157.4464  130.8112  149.7744 H   0  0  0  0  0  0  0  0  0  0  0  0  # atno 10718 bound_to 10713
  153.8662  135.3061  155.3440 H   0  0  0  0  0  0  0  0  0  0  0  0  # atno 10763 bound_to 10752
  154.7826  135.4827  153.9880 H   0  0  0  0  0  0  0  0  0  0  0  0  # atno 10764 bound_to 10752
  153.1432  135.6828  153.9089 H   0  0  0  0  0  0  0  0  0  0  0  0  # atno 10765 bound_to 10752
  140.7756  134.3138  157.5061 H   0  0  0  0  0  0  0  0  0  0  0  0  # atno 11005 bound_to 11000
  144.6734  140.0785  143.7470 LP  0  0  0  0  0  0  0  0  0  0  0  0  # atno 17320 bound_to 7965
  145.9485  139.2717  143.1226 LP  0  0  0  0  0  0  0  0  0  0  0  0  # atno 17321 bound_to 7965
  140.7790  143.4887  150.9921 LP  0  0  0  0  0  0  0  0  0  0  0  0  # atno 17342 bound_to 10162
  139.8576  143.7357  152.3175 LP  0  0  0  0  0  0  0  0  0  0  0  0  # atno 17343 bound_to 10162
  155.9969  130.3903  150.2761 LP  0  0  0  0  0  0  0  0  0  0  0  0  # atno 17370 bound_to 10713
  157.0930  131.0175  151.3114 LP  0  0  0  0  0  0  0  0  0  0  0  0  # atno 17371 bound_to 10713
  139.8749  134.9287  156.3458 LP  0  0  0  0  0  0  0  0  0  0  0  0  # atno 17394 bound_to 11000
  140.9532  133.7437  156.0300 LP  0  0  0  0  0  0  0  0  0  0  0  0  # atno 17395 bound_to 11000

$$$$
