AV-unprocessed.smi:1405|AV-procd|sdf|5708|dock1
  -GOLD-   22720 5343D 1   1.00000     0.00000
 Structure written by MMmdl.
 48 51  0  0  0  0  0  0  0  0  2 V2000
  146.6770  137.8072  155.4458 O   0  0  0  0  0  0  0  0  0  0  0  0
  147.1916  137.7045  154.3327 C   0  0  0  0  0  0  0  0  0  0  0  0
  147.9343  138.9136  153.7367 C   0  0  0  0  0  0  0  0  0  0  0  0
  149.3394  139.0489  154.1634 N   0  0  0  0  0  0  0  0  0  0  0  0
  150.1173  137.8785  154.2086 C   0  0  0  0  0  0  0  0  0  0  0  0
  151.4058  137.8956  154.5997 C   0  0  0  0  0  0  0  0  0  0  0  0
  151.9936  139.1729  154.9830 C   0  0  0  0  0  0  0  0  0  0  0  0
  153.1684  139.2075  155.3435 O   0  0  0  0  0  0  0  0  0  0  0  0
  151.1980  140.2808  154.9231 N   0  5  0  0  0  0  0  0  0  0  0  0
  149.8883  140.2480  154.5254 C   0  0  0  0  0  0  0  0  0  0  0  0
  149.1850  141.2579  154.4901 O   0  0  0  0  0  0  0  0  0  0  0  0
  147.1225  136.5806  153.6014 N   0  0  0  0  0  0  0  0  0  0  0  0
  146.4448  135.3553  153.9978 C   0  0  0  0  0  0  0  0  0  0  0  0
  145.2508  135.0897  153.0620 C   0  0  0  0  0  0  0  0  0  0  0  0
  145.3619  133.8494  152.1390 C   0  0  0  0  0  0  0  0  0  0  0  0
  146.3533  134.0996  150.9701 C   0  0  0  0  0  0  0  0  0  0  0  0
  146.4920  132.8317  150.1000 C   0  0  2  0  0  0  0  0  0  0  0  0
  145.1138  132.4532  149.5179 C   0  0  0  0  0  0  0  0  0  0  0  0
  144.1311  132.1731  150.6751 C   0  0  1  0  0  0  0  0  0  0  0  0
  144.6628  131.0081  151.5349 C   0  0  0  0  0  0  0  0  0  0  0  0
  146.0407  131.3929  152.1105 C   0  0  1  0  0  0  0  0  0  0  0  0
  147.0283  131.6681  150.9585 C   0  0  0  0  0  0  0  0  0  0  0  0
  145.8990  132.6597  152.9801 C   0  0  0  0  0  0  0  0  0  0  0  0
  143.9859  133.4396  151.5472 C   0  0  0  0  0  0  0  0  0  0  0  0
  147.8846  138.8380  152.6497 H   0  0  0  0  0  0  0  0  0  0  0  0
  147.3735  139.8177  153.9798 H   0  0  0  0  0  0  0  0  0  0  0  0
  149.6039  136.9744  153.9154 H   0  0  0  0  0  0  0  0  0  0  0  0
  151.9881  136.9865  154.6319 H   0  0  0  0  0  0  0  0  0  0  0  0
  147.5791  136.5799  152.7002 H   0  0  0  0  0  0  0  0  0  0  0  0
  147.1460  134.5206  153.9642 H   0  0  0  0  0  0  0  0  0  0  0  0
  146.1194  135.4689  155.0313 H   0  0  0  0  0  0  0  0  0  0  0  0
  144.3477  134.9945  153.6671 H   0  0  0  0  0  0  0  0  0  0  0  0
  145.0985  135.9777  152.4462 H   0  0  0  0  0  0  0  0  0  0  0  0
  146.0133  134.9237  150.3431 H   0  0  0  0  0  0  0  0  0  0  0  0
  147.3299  134.3930  151.3578 H   0  0  0  0  0  0  0  0  0  0  0  0
  147.1879  133.0285  149.2840 H   0  0  0  0  0  0  0  0  0  0  0  0
  144.7359  133.2591  148.8873 H   0  0  0  0  0  0  0  0  0  0  0  0
  145.2031  131.5758  148.8761 H   0  0  0  0  0  0  0  0  0  0  0  0
  143.1576  131.9033  150.2647 H   0  0  0  0  0  0  0  0  0  0  0  0
  143.9643  130.7841  152.3421 H   0  0  0  0  0  0  0  0  0  0  0  0
  144.7430  130.1003  150.9357 H   0  0  0  0  0  0  0  0  0  0  0  0
  146.4185  130.5736  152.7229 H   0  0  0  0  0  0  0  0  0  0  0  0
  147.1552  130.7737  150.3471 H   0  0  0  0  0  0  0  0  0  0  0  0
  148.0143  131.9134  151.3551 H   0  0  0  0  0  0  0  0  0  0  0  0
  146.8645  132.9129  153.4203 H   0  0  0  0  0  0  0  0  0  0  0  0
  145.2292  132.4555  153.8169 H   0  0  0  0  0  0  0  0  0  0  0  0
  143.2663  133.2613  152.3476 H   0  0  0  0  0  0  0  0  0  0  0  0
  143.5725  134.2427  150.9369 H   0  0  0  0  0  0  0  0  0  0  0  0
  1  2  2  0  0  0  0
  2  3  1  0  0  0  0
  2 12  1  0  0  0  0
  3  4  1  0  0  0  0
  3 25  1  0  0  0  0
  3 26  1  0  0  0  0
  4 10  1  0  0  0  0
  4  5  1  0  0  0  0
  5  6  2  0  0  0  0
  5 27  1  0  0  0  0
  6  7  1  0  0  0  0
  6 28  1  0  0  0  0
  7  8  2  0  0  0  0
  7  9  1  0  0  0  0
  9 10  1  0  0  0  0
 10 11  2  0  0  0  0
 12 13  1  0  0  0  0
 12 29  1  0  0  0  0
 13 14  1  0  0  0  0
 13 30  1  0  0  0  0
 13 31  1  0  0  0  0
 14 15  1  0  0  0  0
 14 32  1  0  0  0  0
 14 33  1  0  0  0  0
 15 23  1  0  0  0  0
 15 24  1  0  0  0  0
 15 16  1  0  0  0  0
 16 17  1  0  0  0  0
 16 34  1  0  0  0  0
 16 35  1  0  0  0  0
 17 22  1  0  0  0  0
 17 18  1  0  0  0  0
 17 36  1  0  0  0  0
 18 19  1  0  0  0  0
 18 37  1  0  0  0  0
 18 38  1  0  0  0  0
 19 20  1  0  0  0  0
 19 24  1  0  0  0  0
 19 39  1  0  0  0  0
 20 21  1  0  0  0  0
 20 40  1  0  0  0  0
 20 41  1  0  0  0  0
 21 22  1  0  0  0  0
 21 23  1  0  0  0  0
 21 42  1  0  0  0  0
 22 43  1  0  0  0  0
 22 44  1  0  0  0  0
 23 45  1  0  0  0  0
 23 46  1  0  0  0  0
 24 47  1  0  0  0  0
 24 48  1  0  0  0  0
M  CHG  1   9  -1
M  END
> <s_m_source_file>
AV-unprocessed.smi

> <i_m_source_file_index>
1405

> <i_lp_mmshare_version>
43012

> <i_f3d_flags>
0

> <s_epik_input>
Tz1jMVtuSF1jKD1PKVtjSF1bY0hdbjFbQ0gyXUMoPU8pW05IXVtDSDJdW0NIMl1DMjNbQ0gyXVtDQEBIXTRbQ0gyXVtDQEhdKFtDSDJdMylbQ0gyXVtDQEBIXShbQ0gyXTQpW0NIMl0y

> <s_epik_cmdline>
J2VwaWtfcHl0aG9uJywgJy1waCcsICc3LjAnLCAnLXRuJywgJzgnLCAnLW1hJywgJzIwMCcsICctbWV0YWxfYmluZGluZycsICctaW1hZScsICc8aW5maWxlLm1hZT4nLCAnLW9tYWUnLCAnPG91dGZpbGUubWFlPic=

> <r_lp_tautomer_probability>
0.999537

> <r_epik_Ionization_Penalty>
3.12935

> <r_epik_Ionization_Penalty_Charging>
2.8866e-08

> <r_epik_Ionization_Penalty_Neutral>
3.12935

> <r_epik_State_Penalty>
3.12845

> <r_epik_Charging_Adjusted_Penalty>
3.12845

> <i_epik_Tot_Q>
-1

> <i_epik_Tot_abs_Q>
1

> <r_epik_Metal_State_Penalty>
0.464346

> <b_epik_Metal_Only>
1

> <s_lp_Force_Field>
OPLS_2005

> <r_lp_Energy>
42.9683

> <b_lp_Chiralities_Consistent>
1

> <s_lp_Variant>
AV-unprocessed.smi:1405-2

> <Gold.Version>
5.8.1

> <Gold.Id.Protein>
6NUR|6NUR_protein|mol2

> <Gold.PLP.Fitness>
44.2873

> <Gold.PLP.PLP>
-35.7725

> <Gold.PLP.part.hbond>
-3.0000

> <Gold.PLP.part.metal>
0.0000

> <Gold.PLP.part.buried>
2.8788

> <Gold.PLP.part.nonpolar>
-35.8511

> <Gold.PLP.part.repulsive>
0.2052

> <Gold.PLP.ligand.clash>
0.0000

> <Gold.PLP.ligand.torsion>
1.1151

> <Gold.PLP.Chemscore.Hbond>
2.5655

> <Gold.PLP.Chemscore.CHOScore>
0.9881

> <Gold.PLP.Chemscore.Metal>
0.0000

> <Gold.Chemscore.Hbonds>
donor molecule, donor type, donor heavy atom, donor atom, acceptor molecule, acceptor atom, score
      L1  H    12    29       P1  7948  0.94
      P1  H  7989  7998       L1     9  0.55
      P1  H  7997  8009       L1     8  1.00
      L1  C     5    27       P1  7948  1.00

> <Gold.PLP.Chemscore.Internal.Correction>
0.0840

> <Gold.Rescore>
     Score         DG    S(hbond)    S(metal)    S(lipo)     H(rot)  DE(clash)    DE(int)     intcor
     14.91     -17.30       1.84        0.00      94.87       2.12       1.57       0.82       ----

> <Gold.Chemscore.Fitness>
14.9068

> <Gold.Chemscore.DG>
-17.2956

> <Gold.Chemscore.ZeroCoef>
-5.4800

> <Gold.Chemscore.Hbond>
1.8404

> <Gold.Chemscore.Metal>
0.0000

> <Gold.Chemscore.Lipo>
94.8721

> <Gold.Chemscore.Internal_Hbond>
0.0000

> <Gold.Chemscore.DEClash>
1.5725

> <Gold.Chemscore.DEInternal>
0.8163

> <Gold.Chemscore.Rot>
2.1216

> <Gold.Chemscore.Internal.Correction>
   9.000000E+99

> <Gold.Chemscore.Hbonds>
donor molecule, donor type, donor heavy atom, donor atom, acceptor molecule, acceptor atom, score
      L1  H    12    29       P1  7948  0.91
      P1  H  7989  7998       L1     9  0.01
      P1  H  7997  8009       L1     8  1.00

> <Gold.Chemscore.Hbond.Weighted>
-6.1470

> <Gold.Chemscore.Metal.Weighted>
-0.0000

> <Gold.Chemscore.Lipo.Weighted>
-11.1000

> <Gold.Chemscore.Internal_Hbond.Weighted>
0.0000

> <Gold.Chemscore.DEClash.Weighted>
1.5725

> <Gold.Chemscore.DEInternal.Weighted>
0.8163

> <Gold.Chemscore.Rot.Weighted>
5.4314

> <Gold.Chemscore.Internal.Correction.Weighted>
   9.000000E+99

> <Gold.Protein.RotatedTorsions>
[ 6907 6896 6895 6894 ] final  -45.50 input  -60.11 | X-H torsion
[ 7974 7965 7964 7962 ] final  -82.10 input  175.53 | X-H torsion
[ 8008 7997 7996 7995 ] final -146.96 input   59.86 | X-H torsion
[ 10167 10162 10161 10158 ] final  174.02 input  -65.29 | X-H torsion
[ 10718 10713 10712 10709 ] final  -16.28 input   66.30 | X-H torsion
[ 10763 10752 10751 10750 ] final  177.22 input  -60.55 | X-H torsion
[ 11005 11000 10999 10996 ] final  145.97 input  -57.11 | X-H torsion

> <Gold.Protein.ActiveResidues>
 VAL166  LYS551  ARG553  GLY616  TRP617  ASP618  TYR619  PRO620  LYS621  CYS622 
 ASP623  PHE694  ASN695  SER759  ASP760  ASP761  ALA762  ILE779  LEU786  VAL792 
 PHE793  MET794  SER795  GLU796  ALA797  LYS798  CYS799  TRP800  GLU811  SER814 

> <Gold.Protein.RotatedAtoms>
  150.9213  134.8630  159.7490 H   0  0  0  0  0  0  0  0  0  0  0  0  # atno 6907 bound_to 6896
  152.4994  134.4214  159.9492 H   0  0  0  0  0  0  0  0  0  0  0  0  # atno 6908 bound_to 6896
  151.4248  133.3648  159.2796 H   0  0  0  0  0  0  0  0  0  0  0  0  # atno 6909 bound_to 6896
  145.5379  140.9513  143.1567 H   0  0  0  0  0  0  0  0  0  0  0  0  # atno 7974 bound_to 7965
  155.5678  140.0631  157.2814 H   0  0  0  0  0  0  0  0  0  0  0  0  # atno 8008 bound_to 7997
  154.4370  140.1874  156.0894 H   0  0  0  0  0  0  0  0  0  0  0  0  # atno 8009 bound_to 7997
  156.0399  140.3297  155.7236 H   0  0  0  0  0  0  0  0  0  0  0  0  # atno 8010 bound_to 7997
  139.5127  144.3195  152.0216 H   0  0  0  0  0  0  0  0  0  0  0  0  # atno 10167 bound_to 10162
  156.5898  130.4796  149.6284 H   0  0  0  0  0  0  0  0  0  0  0  0  # atno 10718 bound_to 10713
  154.4915  135.2779  155.1493 H   0  0  0  0  0  0  0  0  0  0  0  0  # atno 10763 bound_to 10752
  154.3162  135.6219  153.5491 H   0  0  0  0  0  0  0  0  0  0  0  0  # atno 10764 bound_to 10752
  152.9889  135.5731  154.5338 H   0  0  0  0  0  0  0  0  0  0  0  0  # atno 10765 bound_to 10752
  140.0755  134.9127  157.1415 H   0  0  0  0  0  0  0  0  0  0  0  0  # atno 11005 bound_to 11000
  144.7592  139.6998  143.7241 LP  0  0  0  0  0  0  0  0  0  0  0  0  # atno 17320 bound_to 7965
  146.2001  139.5290  142.9749 LP  0  0  0  0  0  0  0  0  0  0  0  0  # atno 17321 bound_to 7965
  140.2637  144.4039  150.6176 LP  0  0  0  0  0  0  0  0  0  0  0  0  # atno 17342 bound_to 10162
  140.6139  143.2171  151.6832 LP  0  0  0  0  0  0  0  0  0  0  0  0  # atno 17343 bound_to 10162
  156.2559  130.6934  151.1687 LP  0  0  0  0  0  0  0  0  0  0  0  0  # atno 17370 bound_to 10713
  157.7306  131.0615  150.5717 LP  0  0  0  0  0  0  0  0  0  0  0  0  # atno 17371 bound_to 10713
  140.3564  134.2542  155.7192 LP  0  0  0  0  0  0  0  0  0  0  0  0  # atno 17394 bound_to 11000
  141.2028  133.7929  157.0373 LP  0  0  0  0  0  0  0  0  0  0  0  0  # atno 17395 bound_to 11000

$$$$
