AV-unprocessed.smi:1830|AV-procd|sdf|7444|dock6
  -GOLD-   22720 9133D 1   1.00000     0.00000
 Structure written by MMmdl.
 54 57  0  0  0  0  0  0  0  0  3 V2000
  151.4477  137.6800  156.6730 O   0  0  0  0  0  0  0  0  0  0  0  0
  150.2244  137.7890  156.7511 C   0  0  0  0  0  0  0  0  0  0  0  0
  149.3810  136.7552  156.6345 N   0  0  0  0  0  0  0  0  0  0  0  0
  149.7934  135.3788  156.3868 C   0  0  0  0  0  0  0  0  0  0  0  0
  149.1485  134.8347  155.1040 C   0  0  2  0  0  0  0  0  0  0  0  0
  147.6379  135.1634  155.0376 C   0  0  0  0  0  0  0  0  0  0  0  0
  147.0753  134.5144  153.8397 N   0  3  2  0  0  0  0  0  0  0  0  0
  145.6434  134.7006  153.5491 C   0  0  0  0  0  0  0  0  0  0  0  0
  145.2605  133.4911  152.6726 C   0  0  0  0  0  0  0  0  0  0  0  0
  146.4949  132.5703  152.6670 C   0  0  0  0  0  0  0  0  0  0  0  0
  147.3013  133.0677  153.8626 C   0  0  1  0  0  0  0  0  0  0  0  0
  148.8112  132.7974  153.8849 C   0  0  0  0  0  0  0  0  0  0  0  0
  149.3433  133.4157  155.0584 O   0  0  0  0  0  0  0  0  0  0  0  0
  149.5643  138.9367  156.9793 N   0  0  0  0  0  0  0  0  0  0  0  0
  150.1163  140.2267  157.2222 C   0  0  0  0  0  0  0  0  0  0  0  0
  151.3034  140.3829  157.9835 C   0  0  0  0  0  0  0  0  0  0  0  0
  151.8683  141.6609  158.1523 C   0  0  0  0  0  0  0  0  0  0  0  0
  151.2475  142.7641  157.5430 C   0  0  0  0  0  0  0  0  0  0  0  0
  150.1276  142.5821  156.8134 N   0  3  0  0  0  0  0  0  0  0  0  0
  149.5270  141.3800  156.6262 C   0  0  0  0  0  0  0  0  0  0  0  0
  148.3504  141.3473  155.8428 N   0  0  0  0  0  0  0  0  0  0  0  0
  148.4142  141.5755  154.4038 C   0  0  0  0  0  0  0  0  0  0  0  0
  146.9681  141.8096  153.9761 C   0  0  0  0  0  0  0  0  0  0  0  0
  146.3863  142.5475  155.1779 C   0  0  0  0  0  0  0  0  0  0  0  0
  147.1234  141.9339  156.3729 C   0  0  0  0  0  0  0  0  0  0  0  0
  148.3894  136.9299  156.7072 H   0  0  0  0  0  0  0  0  0  0  0  0
  150.8810  135.3377  156.3141 H   0  0  0  0  0  0  0  0  0  0  0  0
  149.5051  134.7496  157.2308 H   0  0  0  0  0  0  0  0  0  0  0  0
  149.6475  135.2823  154.2421 H   0  0  0  0  0  0  0  0  0  0  0  0
  147.1238  134.8053  155.9312 H   0  0  0  0  0  0  0  0  0  0  0  0
  147.4804  136.2411  154.9792 H   0  0  0  0  0  0  0  0  0  0  0  0
  145.0689  134.6885  154.4768 H   0  0  0  0  0  0  0  0  0  0  0  0
  145.4656  135.6537  153.0505 H   0  0  0  0  0  0  0  0  0  0  0  0
  144.3955  132.9794  153.0961 H   0  0  0  0  0  0  0  0  0  0  0  0
  144.9975  133.7953  151.6590 H   0  0  0  0  0  0  0  0  0  0  0  0
  146.2357  131.5138  152.7429 H   0  0  0  0  0  0  0  0  0  0  0  0
  147.0600  132.7135  151.7447 H   0  0  0  0  0  0  0  0  0  0  0  0
  146.8540  132.6585  154.7717 H   0  0  0  0  0  0  0  0  0  0  0  0
  149.0082  131.7259  153.9223 H   0  0  0  0  0  0  0  0  0  0  0  0
  149.3021  133.1896  152.9926 H   0  0  0  0  0  0  0  0  0  0  0  0
  148.5657  138.8595  157.1051 H   0  0  0  0  0  0  0  0  0  0  0  0
  151.8059  139.5351  158.4242 H   0  0  0  0  0  0  0  0  0  0  0  0
  152.7719  141.7896  158.7301 H   0  0  0  0  0  0  0  0  0  0  0  0
  151.6120  143.7789  157.6108 H   0  0  0  0  0  0  0  0  0  0  0  0
  149.0089  142.4634  154.1844 H   0  0  0  0  0  0  0  0  0  0  0  0
  148.8576  140.7260  153.8838 H   0  0  0  0  0  0  0  0  0  0  0  0
  146.8849  142.3727  153.0460 H   0  0  0  0  0  0  0  0  0  0  0  0
  146.4579  140.8544  153.8425 H   0  0  0  0  0  0  0  0  0  0  0  0
  146.6249  143.6094  155.1050 H   0  0  0  0  0  0  0  0  0  0  0  0
  145.3028  142.4513  155.2535 H   0  0  0  0  0  0  0  0  0  0  0  0
  146.5189  141.1413  156.8144 H   0  0  0  0  0  0  0  0  0  0  0  0
  147.3215  142.6804  157.1431 H   0  0  0  0  0  0  0  0  0  0  0  0
  147.5779  134.8704  153.0392 H   0  0  0  0  0  0  0  0  0  0  0  0
  149.7023  143.4025  156.3816 H   0  0  0  0  0  0  0  0  0  0  0  0
  1  2  2  0  0  0  0
  2  3  1  0  0  0  0
  2 14  1  0  0  0  0
  3  4  1  0  0  0  0
  3 26  1  0  0  0  0
  4  5  1  0  0  0  0
  4 27  1  0  0  0  0
  4 28  1  0  0  0  0
  5 13  1  0  0  0  0
  5  6  1  0  0  0  0
  5 29  1  0  0  0  0
  6  7  1  0  0  0  0
  6 30  1  0  0  0  0
  6 31  1  0  0  0  0
  7 11  1  0  0  0  0
  7  8  1  0  0  0  0
  7 53  1  0  0  0  0
  8  9  1  0  0  0  0
  8 32  1  0  0  0  0
  8 33  1  0  0  0  0
  9 10  1  0  0  0  0
  9 34  1  0  0  0  0
  9 35  1  0  0  0  0
 10 11  1  0  0  0  0
 10 36  1  0  0  0  0
 10 37  1  0  0  0  0
 11 12  1  0  0  0  0
 11 38  1  0  0  0  0
 12 13  1  0  0  0  0
 12 39  1  0  0  0  0
 12 40  1  0  0  0  0
 14 15  1  0  0  0  0
 14 41  1  0  0  0  0
 15 20  1  0  0  0  0
 15 16  2  0  0  0  0
 16 17  1  0  0  0  0
 16 42  1  0  0  0  0
 17 18  2  0  0  0  0
 17 43  1  0  0  0  0
 18 19  1  0  0  0  0
 18 44  1  0  0  0  0
 19 20  2  0  0  0  0
 19 54  1  0  0  0  0
 20 21  1  0  0  0  0
 21 25  1  0  0  0  0
 21 22  1  0  0  0  0
 22 23  1  0  0  0  0
 22 45  1  0  0  0  0
 22 46  1  0  0  0  0
 23 24  1  0  0  0  0
 23 47  1  0  0  0  0
 23 48  1  0  0  0  0
 24 25  1  0  0  0  0
 24 49  1  0  0  0  0
 24 50  1  0  0  0  0
 25 51  1  0  0  0  0
 25 52  1  0  0  0  0
M  CHG  1   7   1
M  CHG  1  19   1
M  END
> <s_m_source_file>
AV-unprocessed.smi

> <i_m_source_file_index>
1830

> <i_lp_mmshare_version>
43012

> <i_f3d_flags>
0

> <s_epik_input>
W0NIMl0xW0NIMl1bQ0gyXVtDQEhdKE4xMilbQ0gyXU9bQ0BASF0oW0NIMl0yKVtDSDJdW05IXUMoPU8pW05IXWMzW2NIXVtjSF1bY0hdbmMzTjRbQ0gyXVtDSDJdW0NIMl1bQ0gyXTQ=

> <s_epik_cmdline>
J2VwaWtfcHl0aG9uJywgJy1waCcsICc3LjAnLCAnLXRuJywgJzgnLCAnLW1hJywgJzIwMCcsICctbWV0YWxfYmluZGluZycsICctaW1hZScsICc8aW5maWxlLm1hZT4nLCAnLW9tYWUnLCAnPG91dGZpbGUubWFlPic=

> <r_lp_tautomer_probability>
0.999994

> <r_epik_Ionization_Penalty>
1.29113

> <r_epik_Ionization_Penalty_Charging>
1.29111

> <r_epik_Ionization_Penalty_Neutral>
1.88144e-05

> <r_epik_State_Penalty>
1.32676

> <r_epik_Charging_Adjusted_Penalty>
2.61787

> <i_epik_Tot_Q>
2

> <i_epik_Tot_abs_Q>
2

> <r_epik_Metal_State_Penalty>
1.40425

> <b_epik_Metal_Only>
0

> <s_lp_Force_Field>
OPLS_2005

> <r_lp_Energy>
74.3766

> <b_lp_Chiralities_Consistent>
1

> <s_lp_Variant>
AV-unprocessed.smi:1830-13

> <Gold.Version>
5.8.1

> <Gold.Id.Protein>
6NUR|6NUR_protein|mol2

> <Gold.PLP.Fitness>
46.5964

> <Gold.PLP.PLP>
-35.3469

> <Gold.PLP.part.hbond>
-2.0000

> <Gold.PLP.part.metal>
0.0000

> <Gold.PLP.part.buried>
-3.8236

> <Gold.PLP.part.nonpolar>
-28.7556

> <Gold.PLP.part.repulsive>
0.2288

> <Gold.PLP.ligand.clash>
0.0000

> <Gold.PLP.ligand.torsion>
0.5796

> <Gold.PLP.Chemscore.Hbond>
4.0000

> <Gold.PLP.Chemscore.CHOScore>
0.0000

> <Gold.PLP.Chemscore.Metal>
0.0000

> <Gold.Chemscore.Hbonds>
donor molecule, donor type, donor heavy atom, donor atom, acceptor molecule, acceptor atom, score
      L1  H     7    53       P1  7948  0.94
      L1  H    19    54       P1  8028  2.00

> <Gold.PLP.Chemscore.Internal.Correction>
0.4086

> <Gold.Rescore>
     Score         DG    S(hbond)    S(metal)    S(lipo)     H(rot)  DE(clash)    DE(int)     intcor
     16.62     -18.30       1.95        0.00      85.16       1.43       0.09       1.58       ----

> <Gold.Chemscore.Fitness>
16.6247

> <Gold.Chemscore.DG>
-18.2975

> <Gold.Chemscore.ZeroCoef>
-5.4800

> <Gold.Chemscore.Hbond>
1.9487

> <Gold.Chemscore.Metal>
0.0000

> <Gold.Chemscore.Lipo>
85.1606

> <Gold.Chemscore.Internal_Hbond>
0.0000

> <Gold.Chemscore.DEClash>
0.0925

> <Gold.Chemscore.DEInternal>
1.5803

> <Gold.Chemscore.Rot>
1.4278

> <Gold.Chemscore.Internal.Correction>
   9.000000E+99

> <Gold.Chemscore.Hbonds>
donor molecule, donor type, donor heavy atom, donor atom, acceptor molecule, acceptor atom, score
      L1  H     7    53       P1  7948  0.47
      L1  H    19    54       P1  8028  1.00

> <Gold.Chemscore.Hbond.Weighted>
-6.5088

> <Gold.Chemscore.Metal.Weighted>
-0.0000

> <Gold.Chemscore.Lipo.Weighted>
-9.9638

> <Gold.Chemscore.Internal_Hbond.Weighted>
0.0000

> <Gold.Chemscore.DEClash.Weighted>
0.0925

> <Gold.Chemscore.DEInternal.Weighted>
1.5803

> <Gold.Chemscore.Rot.Weighted>
3.6551

> <Gold.Chemscore.Internal.Correction.Weighted>
   9.000000E+99

> <Gold.Protein.RotatedTorsions>
[ 6907 6896 6895 6894 ] final  107.18 input  -60.11 | X-H torsion
[ 7974 7965 7964 7962 ] final -106.10 input  175.53 | X-H torsion
[ 8008 7997 7996 7995 ] final    4.16 input   59.86 | X-H torsion
[ 10167 10162 10161 10158 ] final   96.38 input  -65.29 | X-H torsion
[ 10718 10713 10712 10709 ] final -133.67 input   66.30 | X-H torsion
[ 10763 10752 10751 10750 ] final  123.69 input  -60.55 | X-H torsion
[ 11005 11000 10999 10996 ] final   34.86 input  -57.11 | X-H torsion

> <Gold.Protein.ActiveResidues>
 VAL166  LYS551  ARG553  GLY616  TRP617  ASP618  TYR619  PRO620  LYS621  CYS622 
 ASP623  PHE694  ASN695  SER759  ASP760  ASP761  ALA762  ILE779  LEU786  VAL792 
 PHE793  MET794  SER795  GLU796  ALA797  LYS798  CYS799  TRP800  GLU811  SER814 

> <Gold.Protein.RotatedAtoms>
  152.5164  133.9272  159.7562 H   0  0  0  0  0  0  0  0  0  0  0  0  # atno 6907 bound_to 6896
  150.9630  133.6416  159.2758 H   0  0  0  0  0  0  0  0  0  0  0  0  # atno 6908 bound_to 6896
  151.3654  135.0917  159.9501 H   0  0  0  0  0  0  0  0  0  0  0  0  # atno 6909 bound_to 6896
  145.2221  140.9138  143.3253 H   0  0  0  0  0  0  0  0  0  0  0  0  # atno 7974 bound_to 7965
  154.7125  140.2695  155.6615 H   0  0  0  0  0  0  0  0  0  0  0  0  # atno 8008 bound_to 7997
  156.2800  140.2750  156.1696 H   0  0  0  0  0  0  0  0  0  0  0  0  # atno 8009 bound_to 7997
  155.0615  140.0371  157.2568 H   0  0  0  0  0  0  0  0  0  0  0  0  # atno 8010 bound_to 7997
  139.7899  144.6856  150.9906 H   0  0  0  0  0  0  0  0  0  0  0  0  # atno 10167 bound_to 10162
  156.2473  130.7132  151.1017 H   0  0  0  0  0  0  0  0  0  0  0  0  # atno 10718 bound_to 10713
  153.6495  135.3365  155.3095 H   0  0  0  0  0  0  0  0  0  0  0  0  # atno 10763 bound_to 10752
  154.8541  135.4337  154.1920 H   0  0  0  0  0  0  0  0  0  0  0  0  # atno 10764 bound_to 10752
  153.2859  135.7013  153.7415 H   0  0  0  0  0  0  0  0  0  0  0  0  # atno 10765 bound_to 10752
  140.2485  134.3331  155.7899 H   0  0  0  0  0  0  0  0  0  0  0  0  # atno 11005 bound_to 11000
  144.9755  139.3836  143.6288 LP  0  0  0  0  0  0  0  0  0  0  0  0  # atno 17320 bound_to 7965
  146.3373  139.8872  142.8815 LP  0  0  0  0  0  0  0  0  0  0  0  0  # atno 17321 bound_to 7965
  140.7820  143.4392  151.0578 LP  0  0  0  0  0  0  0  0  0  0  0  0  # atno 17342 bound_to 10162
  139.8069  143.8006  152.3168 LP  0  0  0  0  0  0  0  0  0  0  0  0  # atno 17343 bound_to 10162
  157.7200  131.0687  150.6173 LP  0  0  0  0  0  0  0  0  0  0  0  0  # atno 17370 bound_to 10713
  156.6251  130.4416  149.5807 LP  0  0  0  0  0  0  0  0  0  0  0  0  # atno 17371 bound_to 10713
  141.2204  133.7340  156.8999 LP  0  0  0  0  0  0  0  0  0  0  0  0  # atno 17394 bound_to 11000
  140.1582  134.9184  157.2680 LP  0  0  0  0  0  0  0  0  0  0  0  0  # atno 17395 bound_to 11000

$$$$
