AV-unprocessed.smi:1244|AV-procd|sdf|5222|dock3
  -GOLD-   22720 4323D 1   1.00000     0.00000
 Structure written by MMmdl.
 54 56  0  0  0  0  0  0  0  0  1 V2000
  147.0448  141.2616  154.5584 C   0  0  0  0  0  0  0  0  0  0  0  0
  148.5699  141.2564  154.7063 C   0  0  2  0  0  0  0  0  0  0  0  0
  149.1704  139.8509  154.5094 C   0  0  0  0  0  0  0  0  0  0  0  0
  150.6139  139.8358  154.7355 N   0  0  0  0  0  0  0  0  0  0  0  0
  151.1952  138.5043  154.5732 C   0  0  0  0  0  0  0  0  0  0  0  0
  150.5640  137.4114  155.4565 C   0  0  0  0  0  0  0  0  0  0  0  0
  149.8324  136.4335  154.6604 N   0  0  0  0  0  0  0  0  0  0  0  0
  149.8160  135.1128  154.8886 C   0  0  0  0  0  0  0  0  0  0  0  0
  150.4114  134.5747  155.8222 O   0  0  0  0  0  0  0  0  0  0  0  0
  149.0912  134.4673  153.9601 N   0  0  0  0  0  0  0  0  0  0  0  0
  148.8770  133.0651  153.8438 C   0  0  0  0  0  0  0  0  0  0  0  0
  149.7924  132.1219  154.3700 C   0  0  0  0  0  0  0  0  0  0  0  0
  149.5058  130.7502  154.2568 C   0  0  0  0  0  0  0  0  0  0  0  0
  148.3070  130.3694  153.6294 C   0  0  0  0  0  0  0  0  0  0  0  0
  147.4187  131.2560  153.1362 N   0  0  0  0  0  0  0  0  0  0  0  0
  147.6832  132.5814  153.2424 C   0  0  0  0  0  0  0  0  0  0  0  0
  146.7505  133.4831  152.6857 N   0  0  0  0  0  0  0  0  0  0  0  0
  146.5831  133.3325  151.2416 C   0  0  0  0  0  0  0  0  0  0  0  0
  145.0930  133.5272  150.9512 C   0  0  0  0  0  0  0  0  0  0  0  0
  144.4286  133.1288  152.2629 C   0  0  0  0  0  0  0  0  0  0  0  0
  145.4316  133.6282  153.3004 C   0  0  0  0  0  0  0  0  0  0  0  0
  150.8891  140.3670  156.0658 C   0  0  0  0  0  0  0  0  0  0  0  0
  150.2956  141.7754  156.2597 C   0  0  2  0  0  0  0  0  0  0  0  0
  150.5159  142.3085  157.6790 C   0  0  0  0  0  0  0  0  0  0  0  0
  148.8935  141.7253  156.0122 O   0  0  0  0  0  0  0  0  0  0  0  0
  146.7459  140.9248  153.5655 H   0  0  0  0  0  0  0  0  0  0  0  0
  146.6431  142.2647  154.7041 H   0  0  0  0  0  0  0  0  0  0  0  0
  146.5749  140.6054  155.2913 H   0  0  0  0  0  0  0  0  0  0  0  0
  148.9951  141.9406  153.9701 H   0  0  0  0  0  0  0  0  0  0  0  0
  148.6837  139.1492  155.1885 H   0  0  0  0  0  0  0  0  0  0  0  0
  148.9437  139.5155  153.4980 H   0  0  0  0  0  0  0  0  0  0  0  0
  151.0794  138.2010  153.5319 H   0  0  0  0  0  0  0  0  0  0  0  0
  152.2705  138.5467  154.7535 H   0  0  0  0  0  0  0  0  0  0  0  0
  151.3303  136.8682  156.0083 H   0  0  0  0  0  0  0  0  0  0  0  0
  149.9002  137.8575  156.1991 H   0  0  0  0  0  0  0  0  0  0  0  0
  149.3147  136.7866  153.8690 H   0  0  0  0  0  0  0  0  0  0  0  0
  148.7471  135.0242  153.1916 H   0  0  0  0  0  0  0  0  0  0  0  0
  150.6979  132.4296  154.8706 H   0  0  0  0  0  0  0  0  0  0  0  0
  150.1862  130.0081  154.6475 H   0  0  0  0  0  0  0  0  0  0  0  0
  148.0517  129.3253  153.5244 H   0  0  0  0  0  0  0  0  0  0  0  0
  147.1901  134.0568  150.6979 H   0  0  0  0  0  0  0  0  0  0  0  0
  146.8957  132.3348  150.9274 H   0  0  0  0  0  0  0  0  0  0  0  0
  144.8905  134.5783  150.7413 H   0  0  0  0  0  0  0  0  0  0  0  0
  144.7468  132.9400  150.1004 H   0  0  0  0  0  0  0  0  0  0  0  0
  143.4349  133.5593  152.3889 H   0  0  0  0  0  0  0  0  0  0  0  0
  144.3408  132.0430  152.3223 H   0  0  0  0  0  0  0  0  0  0  0  0
  145.3167  133.1164  154.2559 H   0  0  0  0  0  0  0  0  0  0  0  0
  145.2701  134.6895  153.4909 H   0  0  0  0  0  0  0  0  0  0  0  0
  150.4825  139.6937  156.8224 H   0  0  0  0  0  0  0  0  0  0  0  0
  151.9667  140.4056  156.2305 H   0  0  0  0  0  0  0  0  0  0  0  0
  150.7554  142.4665  155.5510 H   0  0  0  0  0  0  0  0  0  0  0  0
  151.5788  142.3760  157.9119 H   0  0  0  0  0  0  0  0  0  0  0  0
  150.0500  141.6597  158.4212 H   0  0  0  0  0  0  0  0  0  0  0  0
  150.0870  143.3046  157.7913 H   0  0  0  0  0  0  0  0  0  0  0  0
  1  2  1  0  0  0  0
  1 26  1  0  0  0  0
  1 27  1  0  0  0  0
  1 28  1  0  0  0  0
  2 25  1  0  0  0  0
  2  3  1  0  0  0  0
  2 29  1  0  0  0  0
  3  4  1  0  0  0  0
  3 30  1  0  0  0  0
  3 31  1  0  0  0  0
  4  5  1  0  0  0  0
  4 22  1  0  0  0  0
  5  6  1  0  0  0  0
  5 32  1  0  0  0  0
  5 33  1  0  0  0  0
  6  7  1  0  0  0  0
  6 34  1  0  0  0  0
  6 35  1  0  0  0  0
  7  8  1  0  0  0  0
  7 36  1  0  0  0  0
  8  9  2  0  0  0  0
  8 10  1  0  0  0  0
 10 11  1  0  0  0  0
 10 37  1  0  0  0  0
 11 16  1  0  0  0  0
 11 12  2  0  0  0  0
 12 13  1  0  0  0  0
 12 38  1  0  0  0  0
 13 14  2  0  0  0  0
 13 39  1  0  0  0  0
 14 15  1  0  0  0  0
 14 40  1  0  0  0  0
 15 16  2  0  0  0  0
 16 17  1  0  0  0  0
 17 21  1  0  0  0  0
 17 18  1  0  0  0  0
 18 19  1  0  0  0  0
 18 41  1  0  0  0  0
 18 42  1  0  0  0  0
 19 20  1  0  0  0  0
 19 43  1  0  0  0  0
 19 44  1  0  0  0  0
 20 21  1  0  0  0  0
 20 45  1  0  0  0  0
 20 46  1  0  0  0  0
 21 47  1  0  0  0  0
 21 48  1  0  0  0  0
 22 23  1  0  0  0  0
 22 49  1  0  0  0  0
 22 50  1  0  0  0  0
 23 24  1  0  0  0  0
 23 25  1  0  0  0  0
 23 51  1  0  0  0  0
 24 52  1  0  0  0  0
 24 53  1  0  0  0  0
 24 54  1  0  0  0  0
M  END
> <s_m_source_file>
AV-unprocessed.smi

> <i_m_source_file_index>
1244

> <i_lp_mmshare_version>
43012

> <i_f3d_flags>
0

> <s_epik_input>
W0NIM11bQ0BASF0xW0NIMl1OKFtDSDJdW0NASF0oTzEpW0NIM10pW0NIMl1bQ0gyXVtOSF1DKD1PKVtOSF1jMltjSF1bY0hdW2NIXW5jMk4zW0NIMl1bQ0gyXVtDSDJdW0NIMl0z

> <s_epik_cmdline>
J2VwaWtfcHl0aG9uJywgJy1waCcsICc3LjAnLCAnLXRuJywgJzgnLCAnLW1hJywgJzIwMCcsICctbWV0YWxfYmluZGluZycsICctaW1hZScsICc8aW5maWxlLm1hZT4nLCAnLW9tYWUnLCAnPG91dGZpbGUubWFlPic=

> <r_lp_tautomer_probability>
1

> <r_epik_Ionization_Penalty>
0.363951

> <r_epik_Ionization_Penalty_Charging>
0

> <r_epik_Ionization_Penalty_Neutral>
0.363951

> <r_epik_State_Penalty>
0.349372

> <r_epik_Charging_Adjusted_Penalty>
0.349372

> <i_epik_Tot_Q>
0

> <i_epik_Tot_abs_Q>
0

> <r_epik_Metal_State_Penalty>
0.333054

> <b_epik_Metal_Only>
0

> <s_lp_Force_Field>
OPLS_2005

> <r_lp_Energy>
48.0273

> <b_lp_Chiralities_Consistent>
1

> <s_lp_Variant>
AV-unprocessed.smi:1244-2

> <Gold.Version>
5.8.1

> <Gold.Id.Protein>
6NUR|6NUR_protein|mol2

> <Gold.PLP.Fitness>
53.9487

> <Gold.PLP.PLP>
-46.8593

> <Gold.PLP.part.hbond>
-3.0529

> <Gold.PLP.part.metal>
0.0000

> <Gold.PLP.part.buried>
-6.9469

> <Gold.PLP.part.nonpolar>
-38.5769

> <Gold.PLP.part.repulsive>
0.9922

> <Gold.PLP.ligand.clash>
0.0000

> <Gold.PLP.ligand.torsion>
0.7449

> <Gold.PLP.Chemscore.Hbond>
2.8120

> <Gold.PLP.Chemscore.CHOScore>
0.0000

> <Gold.PLP.Chemscore.Metal>
0.0000

> <Gold.Chemscore.Hbonds>
donor molecule, donor type, donor heavy atom, donor atom, acceptor molecule, acceptor atom, score
      L1  H     7    36       P1  7948  0.62
      L1  H    10    37       P1  7948  1.00
      P1  H  7989  7998       L1     4  1.00

> <Gold.PLP.Chemscore.Internal.Correction>
0.1432

> <Gold.Rescore>
     Score         DG    S(hbond)    S(metal)    S(lipo)     H(rot)  DE(clash)    DE(int)     intcor
     15.80     -17.77       1.59        0.00      93.39       1.55       0.00       1.96       ----

> <Gold.Chemscore.Fitness>
15.8045

> <Gold.Chemscore.DG>
-17.7673

> <Gold.Chemscore.ZeroCoef>
-5.4800

> <Gold.Chemscore.Hbond>
1.5937

> <Gold.Chemscore.Metal>
0.0000

> <Gold.Chemscore.Lipo>
93.3932

> <Gold.Chemscore.Internal_Hbond>
0.0000

> <Gold.Chemscore.DEClash>
0.0000

> <Gold.Chemscore.DEInternal>
1.9628

> <Gold.Chemscore.Rot>
1.5479

> <Gold.Chemscore.Internal.Correction>
   9.000000E+99

> <Gold.Chemscore.Hbonds>
donor molecule, donor type, donor heavy atom, donor atom, acceptor molecule, acceptor atom, score
      L1  H     7    36       P1  7948  0.58
      L1  H    10    37       P1  7948  0.48
      P1  H  7989  7998       L1     4  0.19

> <Gold.Chemscore.Hbond.Weighted>
-5.3230

> <Gold.Chemscore.Metal.Weighted>
-0.0000

> <Gold.Chemscore.Lipo.Weighted>
-10.9270

> <Gold.Chemscore.Internal_Hbond.Weighted>
0.0000

> <Gold.Chemscore.DEClash.Weighted>
0.0000

> <Gold.Chemscore.DEInternal.Weighted>
1.9628

> <Gold.Chemscore.Rot.Weighted>
3.9627

> <Gold.Chemscore.Internal.Correction.Weighted>
   9.000000E+99

> <Gold.Protein.RotatedTorsions>
[ 6907 6896 6895 6894 ] final   -5.51 input  -60.11 | X-H torsion
[ 7974 7965 7964 7962 ] final   91.05 input  175.53 | X-H torsion
[ 8008 7997 7996 7995 ] final -179.52 input   59.86 | X-H torsion
[ 10167 10162 10161 10158 ] final   63.38 input  -65.29 | X-H torsion
[ 10718 10713 10712 10709 ] final   40.36 input   66.30 | X-H torsion
[ 10763 10752 10751 10750 ] final   26.98 input  -60.55 | X-H torsion
[ 11005 11000 10999 10996 ] final   38.13 input  -57.11 | X-H torsion

> <Gold.Protein.ActiveResidues>
 VAL166  LYS551  ARG553  GLY616  TRP617  ASP618  TYR619  PRO620  LYS621  CYS622 
 ASP623  PHE694  ASN695  SER759  ASP760  ASP761  ALA762  ILE779  LEU786  VAL792 
 PHE793  MET794  SER795  GLU796  ALA797  LYS798  CYS799  TRP800  GLU811  SER814 

> <Gold.Protein.RotatedAtoms>
  151.4805  135.1052  159.9776 H   0  0  0  0  0  0  0  0  0  0  0  0  # atno 6907 bound_to 6896
  152.4781  133.8183  159.7051 H   0  0  0  0  0  0  0  0  0  0  0  0  # atno 6908 bound_to 6896
  150.8833  133.7281  159.2952 H   0  0  0  0  0  0  0  0  0  0  0  0  # atno 6909 bound_to 6896
  145.5108  139.2277  143.2725 H   0  0  0  0  0  0  0  0  0  0  0  0  # atno 7974 bound_to 7965
  156.0315  140.1283  157.0253 H   0  0  0  0  0  0  0  0  0  0  0  0  # atno 8008 bound_to 7997
  154.4352  140.1048  156.6177 H   0  0  0  0  0  0  0  0  0  0  0  0  # atno 8009 bound_to 7997
  155.5800  140.3468  155.4540 H   0  0  0  0  0  0  0  0  0  0  0  0  # atno 8010 bound_to 7997
  140.1337  144.4619  150.6850 H   0  0  0  0  0  0  0  0  0  0  0  0  # atno 10167 bound_to 10162
  157.3812  130.7755  149.7195 H   0  0  0  0  0  0  0  0  0  0  0  0  # atno 10718 bound_to 10713
  153.0586  135.6547  154.0517 H   0  0  0  0  0  0  0  0  0  0  0  0  # atno 10763 bound_to 10752
  154.0190  135.2921  155.3385 H   0  0  0  0  0  0  0  0  0  0  0  0  # atno 10764 bound_to 10752
  154.6913  135.5281  153.8464 H   0  0  0  0  0  0  0  0  0  0  0  0  # atno 10765 bound_to 10752
  140.2157  134.3701  155.8028 H   0  0  0  0  0  0  0  0  0  0  0  0  # atno 11005 bound_to 11000
  146.2167  140.5915  142.9035 LP  0  0  0  0  0  0  0  0  0  0  0  0  # atno 17320 bound_to 7965
  144.7728  140.5675  143.6658 LP  0  0  0  0  0  0  0  0  0  0  0  0  # atno 17321 bound_to 7965
  140.6802  143.2323  151.5404 LP  0  0  0  0  0  0  0  0  0  0  0  0  # atno 17342 bound_to 10162
  139.5507  144.2404  152.1524 LP  0  0  0  0  0  0  0  0  0  0  0  0  # atno 17343 bound_to 10162
  155.9776  130.4061  150.3700 LP  0  0  0  0  0  0  0  0  0  0  0  0  # atno 17370 bound_to 10713
  157.1804  131.0391  151.2751 LP  0  0  0  0  0  0  0  0  0  0  0  0  # atno 17371 bound_to 10713
  141.2225  133.7166  156.8492 LP  0  0  0  0  0  0  0  0  0  0  0  0  # atno 17394 bound_to 11000
  140.1903  134.8970  157.3052 LP  0  0  0  0  0  0  0  0  0  0  0  0  # atno 17395 bound_to 11000

$$$$
