AV-unprocessed.smi:2958|AV-procd|sdf|11307|dock5
  -GOLD-   2272016203D 1   1.00000     0.00000
 Structure written by MMmdl.
 39 41  0  0  0  0  0  0  0  0  1 V2000
  153.1221  142.8985  162.6445 C   0  0  0  0  0  0  0  0  0  0  0  0
  152.5829  143.1116  161.2449 C   0  0  0  0  0  0  0  0  0  0  0  0
  152.0439  144.3592  160.8718 C   0  0  0  0  0  0  0  0  0  0  0  0
  151.5447  144.5475  159.5701 C   0  0  0  0  0  0  0  0  0  0  0  0
  151.5836  143.4907  158.6409 C   0  0  0  0  0  0  0  0  0  0  0  0
  152.1212  142.2368  158.9963 C   0  0  0  0  0  0  0  0  0  0  0  0
  152.1221  141.2600  158.0239 O   0  0  0  0  0  0  0  0  0  0  0  0
  151.1059  141.2990  157.0327 C   0  0  0  0  0  0  0  0  0  0  0  0
  151.5876  140.5125  155.8083 C   0  0  0  0  0  0  0  0  0  0  0  0
  150.4785  139.8871  155.1060 N   0  0  0  0  0  0  0  0  0  0  0  0
  150.3348  138.5851  154.7531 C   0  0  0  0  0  0  0  0  0  0  0  0
  151.3753  137.5535  155.0644 C   0  0  0  0  0  0  0  0  0  0  0  0
  152.1305  137.1826  153.9311 O   0  0  0  0  0  0  0  0  0  0  0  0
  149.2062  138.2792  154.1116 N   0  0  0  0  0  0  0  0  0  0  0  0
  148.5543  139.4955  154.0477 C   0  0  0  0  0  0  0  0  0  0  0  0
  147.3020  139.8381  153.4894 C   0  0  0  0  0  0  0  0  0  0  0  0
  146.8328  141.1669  153.5498 C   0  0  0  0  0  0  0  0  0  0  0  0
  147.6070  142.1700  154.1683 C   0  0  0  0  0  0  0  0  0  0  0  0
  148.8588  141.8506  154.7289 C   0  0  0  0  0  0  0  0  0  0  0  0
  149.3228  140.5231  154.6647 C   0  0  0  0  0  0  0  0  0  0  0  0
  152.6213  142.0554  160.3110 C   0  0  0  0  0  0  0  0  0  0  0  0
  153.0145  143.7962  163.2542 H   0  0  0  0  0  0  0  0  0  0  0  0
  154.1802  142.6381  162.6063 H   0  0  0  0  0  0  0  0  0  0  0  0
  152.5855  142.0870  163.1368 H   0  0  0  0  0  0  0  0  0  0  0  0
  152.0107  145.1744  161.5799 H   0  0  0  0  0  0  0  0  0  0  0  0
  151.1313  145.5033  159.2833 H   0  0  0  0  0  0  0  0  0  0  0  0
  151.1983  143.6446  157.6437 H   0  0  0  0  0  0  0  0  0  0  0  0
  150.1864  140.8558  157.4184 H   0  0  0  0  0  0  0  0  0  0  0  0
  150.8950  142.3313  156.7484 H   0  0  0  0  0  0  0  0  0  0  0  0
  152.1082  141.1756  155.1165 H   0  0  0  0  0  0  0  0  0  0  0  0
  152.3091  139.7501  156.1020 H   0  0  0  0  0  0  0  0  0  0  0  0
  152.0444  137.9245  155.8408 H   0  0  0  0  0  0  0  0  0  0  0  0
  150.8909  136.6638  155.4678 H   0  0  0  0  0  0  0  0  0  0  0  0
  151.5341  136.9312  153.2428 H   0  0  0  0  0  0  0  0  0  0  0  0
  146.7009  139.0771  153.0142 H   0  0  0  0  0  0  0  0  0  0  0  0
  145.8740  141.4172  153.1202 H   0  0  0  0  0  0  0  0  0  0  0  0
  147.2396  143.1849  154.2112 H   0  0  0  0  0  0  0  0  0  0  0  0
  149.4544  142.6166  155.2031 H   0  0  0  0  0  0  0  0  0  0  0  0
  153.0397  141.1118  160.6276 H   0  0  0  0  0  0  0  0  0  0  0  0
  1  2  1  0  0  0  0
  1 22  1  0  0  0  0
  1 23  1  0  0  0  0
  1 24  1  0  0  0  0
  2 21  1  0  0  0  0
  2  3  2  0  0  0  0
  3  4  1  0  0  0  0
  3 25  1  0  0  0  0
  4  5  2  0  0  0  0
  4 26  1  0  0  0  0
  5  6  1  0  0  0  0
  5 27  1  0  0  0  0
  6  7  1  0  0  0  0
  6 21  2  0  0  0  0
  7  8  1  0  0  0  0
  8  9  1  0  0  0  0
  8 28  1  0  0  0  0
  8 29  1  0  0  0  0
  9 10  1  0  0  0  0
  9 30  1  0  0  0  0
  9 31  1  0  0  0  0
 10 20  1  0  0  0  0
 10 11  1  0  0  0  0
 11 12  1  0  0  0  0
 11 14  2  0  0  0  0
 12 13  1  0  0  0  0
 12 32  1  0  0  0  0
 12 33  1  0  0  0  0
 13 34  1  0  0  0  0
 14 15  1  0  0  0  0
 15 20  2  0  0  0  0
 15 16  1  0  0  0  0
 16 17  2  0  0  0  0
 16 35  1  0  0  0  0
 17 18  1  0  0  0  0
 17 36  1  0  0  0  0
 18 19  2  0  0  0  0
 18 37  1  0  0  0  0
 19 20  1  0  0  0  0
 19 38  1  0  0  0  0
 21 39  1  0  0  0  0
M  END
> <s_m_source_file>
AV-unprocessed.smi

> <i_m_source_file_index>
2958

> <i_lp_mmshare_version>
43012

> <i_f3d_flags>
0

> <s_epik_input>
W0NIM11jMVtjSF1bY0hdW2NIXWMoW2NIXTEpT1tDSDJdW0NIMl1uKGMobjIpW0NIMl1bT0hdKWMoYzIzKVtjSF1bY0hdW2NIXVtjSF0z

> <s_epik_cmdline>
J2VwaWtfcHl0aG9uJywgJy1waCcsICc3LjAnLCAnLXRuJywgJzgnLCAnLW1hJywgJzIwMCcsICctbWV0YWxfYmluZGluZycsICctaW1hZScsICc8aW5maWxlLm1hZT4nLCAnLW9tYWUnLCAnPG91dGZpbGUubWFlPic=

> <r_lp_tautomer_probability>
1

> <r_epik_Ionization_Penalty>
0.0482759

> <r_epik_Ionization_Penalty_Charging>
0

> <r_epik_Ionization_Penalty_Neutral>
0.0482759

> <r_epik_State_Penalty>
0.0410957

> <r_epik_Charging_Adjusted_Penalty>
0.0410957

> <i_epik_Tot_Q>
0

> <i_epik_Tot_abs_Q>
0

> <r_epik_Metal_State_Penalty>
4.25529e-05

> <b_epik_Metal_Only>
0

> <s_lp_Force_Field>
OPLS_2005

> <r_lp_Energy>
16.0806

> <b_lp_Chiralities_Consistent>
1

> <s_lp_Variant>
AV-unprocessed.smi:2958-1

> <Gold.Version>
5.8.1

> <Gold.Id.Protein>
6NUR|6NUR_protein|mol2

> <Gold.PLP.Fitness>
57.3279

> <Gold.PLP.PLP>
-53.1491

> <Gold.PLP.part.hbond>
-2.0000

> <Gold.PLP.part.metal>
0.0000

> <Gold.PLP.part.buried>
-2.3029

> <Gold.PLP.part.nonpolar>
-49.2637

> <Gold.PLP.part.repulsive>
0.8339

> <Gold.PLP.ligand.clash>
0.0000

> <Gold.PLP.ligand.torsion>
0.9260

> <Gold.PLP.Chemscore.Hbond>
1.9920

> <Gold.PLP.Chemscore.CHOScore>
0.0000

> <Gold.PLP.Chemscore.Metal>
0.0000

> <Gold.Chemscore.Hbonds>
donor molecule, donor type, donor heavy atom, donor atom, acceptor molecule, acceptor atom, score
      L1  H    13    34       P1  7949  0.99
      P1  H 10752 10764       L1    13  0.94

> <Gold.PLP.Chemscore.Internal.Correction>
0.0549

> <Gold.Rescore>
     Score         DG    S(hbond)    S(metal)    S(lipo)     H(rot)  DE(clash)    DE(int)     intcor
     19.51     -21.14       1.42        0.00     140.27       2.15       0.68       0.94       ----

> <Gold.Chemscore.Fitness>
19.5121

> <Gold.Chemscore.DG>
-21.1353

> <Gold.Chemscore.ZeroCoef>
-5.4800

> <Gold.Chemscore.Hbond>
1.4214

> <Gold.Chemscore.Metal>
0.0000

> <Gold.Chemscore.Lipo>
140.2687

> <Gold.Chemscore.Internal_Hbond>
0.0000

> <Gold.Chemscore.DEClash>
0.6796

> <Gold.Chemscore.DEInternal>
0.9435

> <Gold.Chemscore.Rot>
2.1499

> <Gold.Chemscore.Internal.Correction>
   9.000000E+99

> <Gold.Chemscore.Hbonds>
donor molecule, donor type, donor heavy atom, donor atom, acceptor molecule, acceptor atom, score
      L1  H    13    34       P1  7949  0.81
      P1  H 10752 10764       L1    13  0.18

> <Gold.Chemscore.Hbond.Weighted>
-4.7476

> <Gold.Chemscore.Metal.Weighted>
-0.0000

> <Gold.Chemscore.Lipo.Weighted>
-16.4114

> <Gold.Chemscore.Internal_Hbond.Weighted>
0.0000

> <Gold.Chemscore.DEClash.Weighted>
0.6796

> <Gold.Chemscore.DEInternal.Weighted>
0.9435

> <Gold.Chemscore.Rot.Weighted>
5.5038

> <Gold.Chemscore.Internal.Correction.Weighted>
   9.000000E+99

> <Gold.Protein.RotatedTorsions>
[ 6907 6896 6895 6894 ] final  -27.89 input  -60.11 | X-H torsion
[ 7974 7965 7964 7962 ] final  -83.12 input  175.53 | X-H torsion
[ 8008 7997 7996 7995 ] final  -45.57 input   59.86 | X-H torsion
[ 10167 10162 10161 10158 ] final   14.56 input  -65.29 | X-H torsion
[ 10718 10713 10712 10709 ] final   71.95 input   66.30 | X-H torsion
[ 10763 10752 10751 10750 ] final  -89.79 input  -60.55 | X-H torsion
[ 11005 11000 10999 10996 ] final  127.00 input  -57.11 | X-H torsion

> <Gold.Protein.ActiveResidues>
 VAL166  LYS551  ARG553  GLY616  TRP617  ASP618  TYR619  PRO620  LYS621  CYS622 
 ASP623  PHE694  ASN695  SER759  ASP760  ASP761  ALA762  ILE779  LEU786  VAL792 
 PHE793  MET794  SER795  GLU796  ALA797  LYS798  CYS799  TRP800  GLU811  SER814 

> <Gold.Protein.RotatedAtoms>
  151.1406  135.0177  159.8623 H   0  0  0  0  0  0  0  0  0  0  0  0  # atno 6907 bound_to 6896
  152.5452  134.1504  159.8526 H   0  0  0  0  0  0  0  0  0  0  0  0  # atno 6908 bound_to 6896
  151.1579  133.4819  159.2627 H   0  0  0  0  0  0  0  0  0  0  0  0  # atno 6909 bound_to 6896
  145.5243  140.9528  143.1638 H   0  0  0  0  0  0  0  0  0  0  0  0  # atno 7974 bound_to 7965
  154.4002  140.1393  156.3870 H   0  0  0  0  0  0  0  0  0  0  0  0  # atno 8008 bound_to 7997
  155.7950  140.3477  155.5350 H   0  0  0  0  0  0  0  0  0  0  0  0  # atno 8009 bound_to 7997
  155.8541  140.0946  157.1646 H   0  0  0  0  0  0  0  0  0  0  0  0  # atno 8010 bound_to 7997
  140.5927  143.8763  150.6889 H   0  0  0  0  0  0  0  0  0  0  0  0  # atno 10167 bound_to 10162
  157.6477  130.9554  150.0861 H   0  0  0  0  0  0  0  0  0  0  0  0  # atno 10718 bound_to 10713
  154.6590  135.5328  153.7994 H   0  0  0  0  0  0  0  0  0  0  0  0  # atno 10763 bound_to 10752
  153.0430  135.6501  154.0901 H   0  0  0  0  0  0  0  0  0  0  0  0  # atno 10764 bound_to 10752
  154.0812  135.2947  155.3270 H   0  0  0  0  0  0  0  0  0  0  0  0  # atno 10765 bound_to 10752
  139.9485  134.9626  156.8790 H   0  0  0  0  0  0  0  0  0  0  0  0  # atno 11005 bound_to 11000
  144.7659  139.6846  143.7215 LP  0  0  0  0  0  0  0  0  0  0  0  0  # atno 17320 bound_to 7965
  146.2086  139.5426  142.9696 LP  0  0  0  0  0  0  0  0  0  0  0  0  # atno 17321 bound_to 7965
  140.2290  143.3750  152.1581 LP  0  0  0  0  0  0  0  0  0  0  0  0  # atno 17342 bound_to 10162
  139.5238  144.7076  151.5307 LP  0  0  0  0  0  0  0  0  0  0  0  0  # atno 17343 bound_to 10162
  156.1823  130.3650  149.9019 LP  0  0  0  0  0  0  0  0  0  0  0  0  # atno 17370 bound_to 10713
  156.6968  130.8917  151.3595 LP  0  0  0  0  0  0  0  0  0  0  0  0  # atno 17371 bound_to 10713
  140.5777  134.0382  155.7452 LP  0  0  0  0  0  0  0  0  0  0  0  0  # atno 17394 bound_to 11000
  141.1142  133.9568  157.2854 LP  0  0  0  0  0  0  0  0  0  0  0  0  # atno 17395 bound_to 11000

$$$$
