AV-unprocessed.smi:385|AV-procd|sdf|2472|dock4
  -GOLD-   2262022413D 1   1.00000     0.00000
 Structure written by MMmdl.
 38 39  0  0  0  0  0  0  0  0  3 V2000
  148.3460  141.9961  153.9385 O   0  0  0  0  0  0  0  0  0  0  0  0
  148.2308  140.8935  154.4734 C   0  0  0  0  0  0  0  0  0  0  0  0
  148.5771  140.6551  155.7477 N   0  0  0  0  0  0  0  0  0  0  0  0
  149.1242  141.6450  156.6718 C   0  0  0  0  0  0  0  0  0  0  0  0
  150.6664  141.6483  156.7179 C   0  0  0  0  0  0  0  0  0  0  0  0
  151.2457  142.6448  157.7073 C   0  0  0  0  0  0  0  0  0  0  0  0
  152.2127  142.2735  158.6673 C   0  0  0  0  0  0  0  0  0  0  0  0
  152.7161  143.2499  159.5517 C   0  0  0  0  0  0  0  0  0  0  0  0
  152.2430  144.5751  159.4579 C   0  0  0  0  0  0  0  0  0  0  0  0
  151.2758  144.8904  158.4816 C   0  0  0  0  0  0  0  0  0  0  0  0
  150.8177  143.9267  157.6525 N   0  3  0  0  0  0  0  0  0  0  0  0
  147.6536  139.7093  153.6872 C   0  0  0  0  0  0  0  0  0  0  0  0
  147.2415  140.1332  152.2620 C   0  0  0  0  0  0  0  0  0  0  0  0
  146.6146  138.9568  151.4946 C   0  0  0  0  0  0  0  0  0  0  0  0
  145.4641  138.3999  152.2387 N   0  3  0  0  0  0  0  0  0  0  0  0
  145.8226  137.9498  153.6013 C   0  0  0  0  0  0  0  0  0  0  0  0
  146.4348  139.1035  154.4143 C   0  0  0  0  0  0  0  0  0  0  0  0
  148.4550  139.7183  156.1049 H   0  0  0  0  0  0  0  0  0  0  0  0
  148.7719  142.6221  156.3404 H   0  0  0  0  0  0  0  0  0  0  0  0
  148.7139  141.4943  157.6715 H   0  0  0  0  0  0  0  0  0  0  0  0
  151.0284  140.6499  156.9660 H   0  0  0  0  0  0  0  0  0  0  0  0
  151.0631  141.8702  155.7264 H   0  0  0  0  0  0  0  0  0  0  0  0
  152.5670  141.2543  158.7241 H   0  0  0  0  0  0  0  0  0  0  0  0
  153.4560  142.9850  160.2929 H   0  0  0  0  0  0  0  0  0  0  0  0
  152.6155  145.3378  160.1262 H   0  0  0  0  0  0  0  0  0  0  0  0
  150.8574  145.8764  158.3401 H   0  0  0  0  0  0  0  0  0  0  0  0
  148.4224  138.9384  153.6063 H   0  0  0  0  0  0  0  0  0  0  0  0
  146.5258  140.9561  152.3028 H   0  0  0  0  0  0  0  0  0  0  0  0
  148.1085  140.5055  151.7145 H   0  0  0  0  0  0  0  0  0  0  0  0
  146.2774  139.2836  150.5106 H   0  0  0  0  0  0  0  0  0  0  0  0
  147.3538  138.1709  151.3333 H   0  0  0  0  0  0  0  0  0  0  0  0
  144.7537  139.1143  152.3125 H   0  0  0  0  0  0  0  0  0  0  0  0
  144.9288  137.5700  154.0969 H   0  0  0  0  0  0  0  0  0  0  0  0
  146.5259  137.1188  153.5322 H   0  0  0  0  0  0  0  0  0  0  0  0
  146.7272  138.7405  155.4007 H   0  0  0  0  0  0  0  0  0  0  0  0
  145.6742  139.8685  154.5803 H   0  0  0  0  0  0  0  0  0  0  0  0
  145.0867  137.6177  151.7228 H   0  0  0  0  0  0  0  0  0  0  0  0
  150.1176  144.1777  156.9539 H   0  0  0  0  0  0  0  0  0  0  0  0
  1  2  2  0  0  0  0
  2  3  1  0  0  0  0
  2 12  1  0  0  0  0
  3  4  1  0  0  0  0
  3 18  1  0  0  0  0
  4  5  1  0  0  0  0
  4 19  1  0  0  0  0
  4 20  1  0  0  0  0
  5  6  1  0  0  0  0
  5 21  1  0  0  0  0
  5 22  1  0  0  0  0
  6 11  1  0  0  0  0
  6  7  2  0  0  0  0
  7  8  1  0  0  0  0
  7 23  1  0  0  0  0
  8  9  2  0  0  0  0
  8 24  1  0  0  0  0
  9 10  1  0  0  0  0
  9 25  1  0  0  0  0
 10 11  2  0  0  0  0
 10 26  1  0  0  0  0
 11 38  1  0  0  0  0
 12 17  1  0  0  0  0
 12 13  1  0  0  0  0
 12 27  1  0  0  0  0
 13 14  1  0  0  0  0
 13 28  1  0  0  0  0
 13 29  1  0  0  0  0
 14 15  1  0  0  0  0
 14 30  1  0  0  0  0
 14 31  1  0  0  0  0
 15 16  1  0  0  0  0
 15 32  1  0  0  0  0
 15 37  1  0  0  0  0
 16 17  1  0  0  0  0
 16 33  1  0  0  0  0
 16 34  1  0  0  0  0
 17 35  1  0  0  0  0
 17 36  1  0  0  0  0
M  CHG  1  11   1
M  CHG  1  15   1
M  END
> <s_m_source_file>
AV-unprocessed.smi

> <i_m_source_file_index>
385

> <i_lp_mmshare_version>
43012

> <i_f3d_flags>
0

> <s_epik_input>
W0NIMl0xW0NIMl1bTkhdW0NIMl1bQ0gyXVtDSF0xQyg9TylbTkhdW0NIMl1bQ0gyXWMyW2NIXVtjSF1bY0hdW2NIXW4y

> <s_epik_cmdline>
J2VwaWtfcHl0aG9uJywgJy1waCcsICc3LjAnLCAnLXRuJywgJzgnLCAnLW1hJywgJzIwMCcsICctbWV0YWxfYmluZGluZycsICctaW1hZScsICc8aW5maWxlLm1hZT4nLCAnLW9tYWUnLCAnPG91dGZpbGUubWFlPic=

> <r_epik_Ionization_Penalty>
1.95053

> <r_epik_Ionization_Penalty_Charging>
1.95053

> <r_epik_Ionization_Penalty_Neutral>
3.30626e-08

> <r_epik_State_Penalty>
2.07441

> <r_epik_Charging_Adjusted_Penalty>
4.02494

> <i_epik_Tot_Q>
2

> <i_epik_Tot_abs_Q>
2

> <r_epik_Metal_State_Penalty>
2.09624

> <b_epik_Metal_Only>
0

> <s_lp_Force_Field>
OPLS_2005

> <r_lp_Energy>
22.1472

> <b_lp_Chiralities_Consistent>
1

> <s_lp_Variant>
AV-unprocessed.smi:385-2

> <Gold.Version>
5.8.1

> <Gold.Id.Protein>
6NUR|6NUR_protein|mol2

> <Gold.PLP.Fitness>
47.0609

> <Gold.PLP.PLP>
-34.7576

> <Gold.PLP.part.hbond>
-4.0000

> <Gold.PLP.part.metal>
0.0000

> <Gold.PLP.part.buried>
1.5460

> <Gold.PLP.part.nonpolar>
-32.0840

> <Gold.PLP.part.repulsive>
0.2499

> <Gold.PLP.ligand.clash>
0.0000

> <Gold.PLP.ligand.torsion>
0.2798

> <Gold.PLP.Chemscore.Hbond>
4.2839

> <Gold.PLP.Chemscore.CHOScore>
0.0000

> <Gold.PLP.Chemscore.Metal>
0.0000

> <Gold.Chemscore.Hbonds>
donor molecule, donor type, donor heavy atom, donor atom, acceptor molecule, acceptor atom, score
      L1  H    11    38       P1  8028  2.00
      L1  H    15    32       P1 10175  2.00
      P1  H  8011  8017       L1     1  0.24

> <Gold.PLP.Chemscore.Internal.Correction>
0.0112

> <Gold.Rescore>
     Score         DG    S(hbond)    S(metal)    S(lipo)     H(rot)  DE(clash)    DE(int)     intcor
     19.95     -21.89       2.52        0.00     104.98       1.67       1.63       0.30       ----

> <Gold.Chemscore.Fitness>
19.9532

> <Gold.Chemscore.DG>
-21.8905

> <Gold.Chemscore.ZeroCoef>
-5.4800

> <Gold.Chemscore.Hbond>
2.5164

> <Gold.Chemscore.Metal>
0.0000

> <Gold.Chemscore.Lipo>
104.9840

> <Gold.Chemscore.Internal_Hbond>
0.0000

> <Gold.Chemscore.DEClash>
1.6327

> <Gold.Chemscore.DEInternal>
0.3046

> <Gold.Chemscore.Rot>
1.6708

> <Gold.Chemscore.Internal.Correction>
   9.000000E+99

> <Gold.Chemscore.Hbonds>
donor molecule, donor type, donor heavy atom, donor atom, acceptor molecule, acceptor atom, score
      L1  H    11    38       P1  8028  0.93
      L1  H    15    32       P1 10175  1.00
      L1  H    15    37       P1 10171  0.01
      P1  H  8011  8017       L1     1  0.24

> <Gold.Chemscore.Hbond.Weighted>
-8.4046

> <Gold.Chemscore.Metal.Weighted>
-0.0000

> <Gold.Chemscore.Lipo.Weighted>
-12.2831

> <Gold.Chemscore.Internal_Hbond.Weighted>
0.0000

> <Gold.Chemscore.DEClash.Weighted>
1.6327

> <Gold.Chemscore.DEInternal.Weighted>
0.3046

> <Gold.Chemscore.Rot.Weighted>
4.2772

> <Gold.Chemscore.Internal.Correction.Weighted>
   9.000000E+99

> <Gold.Protein.RotatedTorsions>
[ 6907 6896 6895 6894 ] final  -69.82 input  -60.11 | X-H torsion
[ 7974 7965 7964 7962 ] final  151.55 input  175.53 | X-H torsion
[ 8008 7997 7996 7995 ] final  153.34 input   59.86 | X-H torsion
[ 10167 10162 10161 10158 ] final  -18.60 input  -65.29 | X-H torsion
[ 10718 10713 10712 10709 ] final  -26.23 input   66.30 | X-H torsion
[ 10763 10752 10751 10750 ] final  -51.14 input  -60.55 | X-H torsion
[ 11005 11000 10999 10996 ] final  130.97 input  -57.11 | X-H torsion

> <Gold.Protein.ActiveResidues>
 VAL166  LYS551  ARG553  GLY616  TRP617  ASP618  TYR619  PRO620  LYS621  CYS622 
 ASP623  PHE694  ASN695  SER759  ASP760  ASP761  ALA762  ILE779  LEU786  VAL792 
 PHE793  MET794  SER795  GLU796  ALA797  LYS798  CYS799  TRP800  GLU811  SER814 

> <Gold.Protein.RotatedAtoms>
  150.7287  134.5541  159.5809 H   0  0  0  0  0  0  0  0  0  0  0  0  # atno 6907 bound_to 6896
  152.3021  134.7595  160.0364 H   0  0  0  0  0  0  0  0  0  0  0  0  # atno 6908 bound_to 6896
  151.8172  133.3354  159.3610 H   0  0  0  0  0  0  0  0  0  0  0  0  # atno 6909 bound_to 6896
  144.8285  139.6552  143.6069 H   0  0  0  0  0  0  0  0  0  0  0  0  # atno 7974 bound_to 7965
  156.2586  140.1996  156.6475 H   0  0  0  0  0  0  0  0  0  0  0  0  # atno 8008 bound_to 7997
  154.6562  140.0566  157.0036 H   0  0  0  0  0  0  0  0  0  0  0  0  # atno 8009 bound_to 7997
  155.1344  140.3237  155.4469 H   0  0  0  0  0  0  0  0  0  0  0  0  # atno 8010 bound_to 7997
  140.7260  143.4900  151.0004 H   0  0  0  0  0  0  0  0  0  0  0  0  # atno 10167 bound_to 10162
  156.4540  130.4490  149.6971 H   0  0  0  0  0  0  0  0  0  0  0  0  # atno 10718 bound_to 10713
  154.1218  135.6533  153.4904 H   0  0  0  0  0  0  0  0  0  0  0  0  # atno 10763 bound_to 10752
  153.0223  135.5272  154.7089 H   0  0  0  0  0  0  0  0  0  0  0  0  # atno 10764 bound_to 10752
  154.6299  135.2975  155.0199 H   0  0  0  0  0  0  0  0  0  0  0  0  # atno 10765 bound_to 10752
  139.9703  134.9579  156.9371 H   0  0  0  0  0  0  0  0  0  0  0  0  # atno 11005 bound_to 11000
  146.2589  139.6365  142.9376 LP  0  0  0  0  0  0  0  0  0  0  0  0  # atno 17320 bound_to 7965
  145.4948  141.0438  143.2573 LP  0  0  0  0  0  0  0  0  0  0  0  0  # atno 17321 bound_to 7965
  139.8604  143.7322  152.3173 LP  0  0  0  0  0  0  0  0  0  0  0  0  # atno 17342 bound_to 10162
  139.7535  144.7527  151.0470 LP  0  0  0  0  0  0  0  0  0  0  0  0  # atno 17343 bound_to 10162
  156.3787  130.7567  151.2558 LP  0  0  0  0  0  0  0  0  0  0  0  0  # atno 17370 bound_to 10713
  157.7501  131.0302  150.4127 LP  0  0  0  0  0  0  0  0  0  0  0  0  # atno 17371 bound_to 10713
  140.5308  134.0816  155.7315 LP  0  0  0  0  0  0  0  0  0  0  0  0  # atno 17394 bound_to 11000
  141.1383  133.9183  157.2385 LP  0  0  0  0  0  0  0  0  0  0  0  0  # atno 17395 bound_to 11000

$$$$
