AV-unprocessed.smi:1385|AV-procd|sdf|5634|dock6
  -GOLD-   22720 5253D 1   1.00000     0.00000
 Structure written by MMmdl.
 38 39  0  0  0  0  0  0  0  0  3 V2000
  148.3048  124.3375  151.3139 C   0  0  0  0  0  0  0  0  0  0  0  0
  148.1867  125.7237  151.8489 C   0  0  0  0  0  0  0  0  0  0  0  0
  147.7780  125.9854  153.0964 N   0  0  0  0  0  0  0  0  0  0  0  0
  147.7546  127.3462  153.3679 N   0  0  0  0  0  0  0  0  0  0  0  0
  148.1506  128.0730  152.3137 C   0  0  0  0  0  0  0  0  0  0  0  0
  148.2280  129.4911  152.3169 N   0  0  0  0  0  0  0  0  0  0  0  0
  148.0523  130.3324  153.3512 C   0  0  0  0  0  0  0  0  0  0  0  0
  147.7660  129.9983  154.5012 O   0  0  0  0  0  0  0  0  0  0  0  0
  148.2287  131.6078  152.9759 N   0  0  0  0  0  0  0  0  0  0  0  0
  148.1232  132.7645  153.8607 C   0  0  2  0  0  0  0  0  0  0  0  0
  147.0167  133.7233  153.3847 C   0  0  0  0  0  0  0  0  0  0  0  0
  146.9685  134.9905  154.2542 C   0  0  0  0  0  0  0  0  0  0  0  0
  148.2873  135.6795  154.2760 N   0  3  1  0  0  0  0  0  0  0  0  0
  148.2580  136.9751  154.9992 C   0  0  0  0  0  0  0  0  0  0  0  0
  149.5397  137.7657  154.7169 C   0  0  0  0  0  0  0  0  0  0  0  0
  149.5123  138.3814  153.5198 N   0  5  0  0  0  0  0  0  0  0  0  0
  150.4474  137.7659  155.5461 O   0  0  0  0  0  0  0  0  0  0  0  0
  149.3642  134.7828  154.7673 C   0  0  0  0  0  0  0  0  0  0  0  0
  149.4652  133.5124  153.9066 C   0  0  0  0  0  0  0  0  0  0  0  0
  148.5829  127.1438  150.8885 S   0  0  0  0  0  0  0  0  0  0  0  0
  147.6050  123.6720  151.8204 H   0  0  0  0  0  0  0  0  0  0  0  0
  149.3175  123.9649  151.4679 H   0  0  0  0  0  0  0  0  0  0  0  0
  148.0851  124.3255  150.2463 H   0  0  0  0  0  0  0  0  0  0  0  0
  148.4569  129.9122  151.4289 H   0  0  0  0  0  0  0  0  0  0  0  0
  148.4613  131.7916  152.0110 H   0  0  0  0  0  0  0  0  0  0  0  0
  147.8883  132.4217  154.8704 H   0  0  0  0  0  0  0  0  0  0  0  0
  147.1887  134.0041  152.3445 H   0  0  0  0  0  0  0  0  0  0  0  0
  146.0469  133.2252  153.4134 H   0  0  0  0  0  0  0  0  0  0  0  0
  146.1997  135.6581  153.8644 H   0  0  0  0  0  0  0  0  0  0  0  0
  146.6741  134.7341  155.2732 H   0  0  0  0  0  0  0  0  0  0  0  0
  147.3521  137.5328  154.7506 H   0  0  0  0  0  0  0  0  0  0  0  0
  148.2275  136.8014  156.0757 H   0  0  0  0  0  0  0  0  0  0  0  0
  149.2042  137.8476  152.6981 H   0  0  0  0  0  0  0  0  0  0  0  0
  150.3202  135.3073  154.7423 H   0  0  0  0  0  0  0  0  0  0  0  0
  149.1732  134.5200  155.8091 H   0  0  0  0  0  0  0  0  0  0  0  0
  150.2441  132.8602  154.3035 H   0  0  0  0  0  0  0  0  0  0  0  0
  149.7742  133.7850  152.8961 H   0  0  0  0  0  0  0  0  0  0  0  0
  148.5177  135.9055  153.3188 H   0  0  0  0  0  0  0  0  0  0  0  0
  1  2  1  0  0  0  0
  1 21  1  0  0  0  0
  1 22  1  0  0  0  0
  1 23  1  0  0  0  0
  2 20  1  0  0  0  0
  2  3  2  0  0  0  0
  3  4  1  0  0  0  0
  4  5  2  0  0  0  0
  5  6  1  0  0  0  0
  5 20  1  0  0  0  0
  6  7  1  0  0  0  0
  6 24  1  0  0  0  0
  7  8  2  0  0  0  0
  7  9  1  0  0  0  0
  9 10  1  0  0  0  0
  9 25  1  0  0  0  0
 10 19  1  0  0  0  0
 10 11  1  0  0  0  0
 10 26  1  0  0  0  0
 11 12  1  0  0  0  0
 11 27  1  0  0  0  0
 11 28  1  0  0  0  0
 12 13  1  0  0  0  0
 12 29  1  0  0  0  0
 12 30  1  0  0  0  0
 13 14  1  0  0  0  0
 13 18  1  0  0  0  0
 13 38  1  0  0  0  0
 14 15  1  0  0  0  0
 14 31  1  0  0  0  0
 14 32  1  0  0  0  0
 15 16  1  0  0  0  0
 15 17  2  0  0  0  0
 16 33  1  0  0  0  0
 18 19  1  0  0  0  0
 18 34  1  0  0  0  0
 18 35  1  0  0  0  0
 19 36  1  0  0  0  0
 19 37  1  0  0  0  0
M  CHG  1  13   1
M  CHG  1  16  -1
M  END
> <s_m_source_file>
AV-unprocessed.smi

> <i_m_source_file_index>
1385

> <i_lp_mmshare_version>
43012

> <i_f3d_flags>
0

> <s_epik_input>
W0NIM11jMW5uYyhzMSlbTkhdQyg9TylbTkhdW0NIXTJbQ0gyXVtDSDJdTihbQ0gyXVtDSDJdMilbQ0gyXUMoPU8pW05IMl0=

> <s_epik_cmdline>
J2VwaWtfcHl0aG9uJywgJy1waCcsICc3LjAnLCAnLXRuJywgJzgnLCAnLW1hJywgJzIwMCcsICctbWV0YWxfYmluZGluZycsICctaW1hZScsICc8aW5maWxlLm1hZT4nLCAnLW9tYWUnLCAnPG91dGZpbGUubWFlPic=

> <r_lp_tautomer_probability>
1

> <r_epik_Ionization_Penalty>
5.73549

> <r_epik_Ionization_Penalty_Charging>
5.73152

> <r_epik_Ionization_Penalty_Neutral>
0.00396448

> <r_epik_State_Penalty>
6.57436

> <r_epik_Charging_Adjusted_Penalty>
12.3059

> <i_epik_Tot_Q>
0

> <i_epik_Tot_abs_Q>
2

> <r_epik_Metal_State_Penalty>
2.87628

> <b_epik_Metal_Only>
1

> <s_lp_Force_Field>
OPLS_2005

> <r_lp_Energy>
6.06006

> <b_lp_Chiralities_Consistent>
1

> <s_lp_Variant>
AV-unprocessed.smi:1385-7

> <Gold.Version>
5.8.1

> <Gold.Id.Protein>
6NUR|6NUR_protein|mol2

> <Gold.PLP.Fitness>
42.6552

> <Gold.PLP.PLP>
-28.7442

> <Gold.PLP.part.hbond>
-5.4884

> <Gold.PLP.part.metal>
0.0000

> <Gold.PLP.part.buried>
-2.1136

> <Gold.PLP.part.nonpolar>
-20.7216

> <Gold.PLP.part.repulsive>
0.2255

> <Gold.PLP.ligand.clash>
0.0000

> <Gold.PLP.ligand.torsion>
0.3260

> <Gold.PLP.Chemscore.Hbond>
4.8480

> <Gold.PLP.Chemscore.CHOScore>
0.0000

> <Gold.PLP.Chemscore.Metal>
0.0000

> <Gold.Chemscore.Hbonds>
donor molecule, donor type, donor heavy atom, donor atom, acceptor molecule, acceptor atom, score
      L1  H     6    24       P1 10747  1.00
      L1  H     9    25       P1 10747  0.83
      L1  H    13    38       P1  7948  2.00
      L1  H    16    33       P1  7948  1.00

> <Gold.PLP.Chemscore.Internal.Correction>
0.0191

> <Gold.Rescore>
     Score         DG    S(hbond)    S(metal)    S(lipo)     H(rot)  DE(clash)    DE(int)     intcor
     15.28     -16.95       3.36        0.00      46.80       2.04       0.14       1.52       ----

> <Gold.Chemscore.Fitness>
15.2832

> <Gold.Chemscore.DG>
-16.9517

> <Gold.Chemscore.ZeroCoef>
-5.4800

> <Gold.Chemscore.Hbond>
3.3564

> <Gold.Chemscore.Metal>
0.0000

> <Gold.Chemscore.Lipo>
46.8019

> <Gold.Chemscore.Internal_Hbond>
0.0000

> <Gold.Chemscore.DEClash>
0.1438

> <Gold.Chemscore.DEInternal>
1.5247

> <Gold.Chemscore.Rot>
2.0369

> <Gold.Chemscore.Internal.Correction>
   9.000000E+99

> <Gold.Chemscore.Hbonds>
donor molecule, donor type, donor heavy atom, donor atom, acceptor molecule, acceptor atom, score
      L1  H     6    24       P1 10747  0.47
      L1  H     9    25       P1 10747  0.78
      L1  H    13    38       P1  7948  0.94
      L1  H    16    33       P1  7948  0.91

> <Gold.Chemscore.Hbond.Weighted>
-11.2103

> <Gold.Chemscore.Metal.Weighted>
-0.0000

> <Gold.Chemscore.Lipo.Weighted>
-5.4758

> <Gold.Chemscore.Internal_Hbond.Weighted>
0.0000

> <Gold.Chemscore.DEClash.Weighted>
0.1438

> <Gold.Chemscore.DEInternal.Weighted>
1.5247

> <Gold.Chemscore.Rot.Weighted>
5.2144

> <Gold.Chemscore.Internal.Correction.Weighted>
   9.000000E+99

> <Gold.Protein.RotatedTorsions>
[ 6907 6896 6895 6894 ] final -133.85 input  -60.11 | X-H torsion
[ 7974 7965 7964 7962 ] final -177.17 input  175.53 | X-H torsion
[ 8008 7997 7996 7995 ] final   21.65 input   59.86 | X-H torsion
[ 10167 10162 10161 10158 ] final  -57.99 input  -65.29 | X-H torsion
[ 10718 10713 10712 10709 ] final   45.05 input   66.30 | X-H torsion
[ 10763 10752 10751 10750 ] final -108.06 input  -60.55 | X-H torsion
[ 11005 11000 10999 10996 ] final  -75.05 input  -57.11 | X-H torsion

> <Gold.Protein.ActiveResidues>
 VAL166  LYS551  ARG553  GLY616  TRP617  ASP618  TYR619  PRO620  LYS621  CYS622 
 ASP623  PHE694  ASN695  SER759  ASP760  ASP761  ALA762  ILE779  LEU786  VAL792 
 PHE793  MET794  SER795  GLU796  ALA797  LYS798  CYS799  TRP800  GLU811  SER814 

> <Gold.Protein.RotatedAtoms>
  150.9789  133.6266  159.2725 H   0  0  0  0  0  0  0  0  0  0  0  0  # atno 6907 bound_to 6896
  151.3528  135.0887  159.9418 H   0  0  0  0  0  0  0  0  0  0  0  0  # atno 6908 bound_to 6896
  152.5209  133.9378  159.7666 H   0  0  0  0  0  0  0  0  0  0  0  0  # atno 6909 bound_to 6896
  144.7127  140.1059  143.6414 H   0  0  0  0  0  0  0  0  0  0  0  0  # atno 7974 bound_to 7965
  154.9538  140.3069  155.5062 H   0  0  0  0  0  0  0  0  0  0  0  0  # atno 8008 bound_to 7997
  156.2984  140.2314  156.4556 H   0  0  0  0  0  0  0  0  0  0  0  0  # atno 8009 bound_to 7997
  154.8029  140.0433  157.1275 H   0  0  0  0  0  0  0  0  0  0  0  0  # atno 8010 bound_to 7997
  140.6224  143.2425  151.5447 H   0  0  0  0  0  0  0  0  0  0  0  0  # atno 10167 bound_to 10162
  157.4335  130.8038  149.7625 H   0  0  0  0  0  0  0  0  0  0  0  0  # atno 10718 bound_to 10713
  154.8113  135.4652  154.0524 H   0  0  0  0  0  0  0  0  0  0  0  0  # atno 10763 bound_to 10752
  153.1953  135.6861  153.8307 H   0  0  0  0  0  0  0  0  0  0  0  0  # atno 10764 bound_to 10752
  153.7811  135.3256  155.3343 H   0  0  0  0  0  0  0  0  0  0  0  0  # atno 10765 bound_to 10752
  141.1641  133.6933  156.7458 H   0  0  0  0  0  0  0  0  0  0  0  0  # atno 11005 bound_to 11000
  145.9497  139.2725  143.1220 LP  0  0  0  0  0  0  0  0  0  0  0  0  # atno 17320 bound_to 7965
  145.9336  140.9030  143.0343 LP  0  0  0  0  0  0  0  0  0  0  0  0  # atno 17321 bound_to 7965
  139.5450  144.2544  152.1425 LP  0  0  0  0  0  0  0  0  0  0  0  0  # atno 17342 bound_to 10162
  140.1768  144.4883  150.6550 LP  0  0  0  0  0  0  0  0  0  0  0  0  # atno 17343 bound_to 10162
  155.9922  130.3933  150.2953 LP  0  0  0  0  0  0  0  0  0  0  0  0  # atno 17370 bound_to 10713
  157.1112  131.0222  151.3047 LP  0  0  0  0  0  0  0  0  0  0  0  0  # atno 17371 bound_to 10713
  140.2640  134.8444  157.3785 LP  0  0  0  0  0  0  0  0  0  0  0  0  # atno 17394 bound_to 11000
  140.1584  134.4760  155.7912 LP  0  0  0  0  0  0  0  0  0  0  0  0  # atno 17395 bound_to 11000

$$$$
