AV-unprocessed.smi:775|AV-procd|sdf|3697|dock7
  -GOLD-   22720 1113D 1   1.00000     0.00000
 Structure written by MMmdl.
 38 39  0  0  0  0  0  0  0  0  1 V2000
  144.7095  134.8690  153.3245 C   0  0  0  0  0  0  0  0  0  0  0  0
  146.0762  134.8479  152.6251 C   0  0  2  0  0  0  0  0  0  0  0  0
  146.3929  133.4325  152.0871 C   0  0  0  0  0  0  0  0  0  0  0  0
  145.5631  133.0420  150.9605 N   0  0  0  0  0  0  0  0  0  0  0  0
  145.8230  132.0909  149.9961 C   0  0  0  0  0  0  0  0  0  0  0  0
  144.7531  132.0683  149.1481 C   0  0  0  0  0  0  0  0  0  0  0  0
  143.8822  133.0616  149.6769 C   0  0  0  0  0  0  0  0  0  0  0  0
  144.3707  133.6446  150.7596 N   0  0  0  0  0  0  0  0  0  0  0  0
  147.0660  135.2706  153.6124 N   0  0  0  0  0  0  0  0  0  0  0  0
  147.2456  134.2916  154.6954 C   0  0  0  0  0  0  0  0  0  0  0  0
  148.5256  134.5273  155.5153 C   0  0  0  0  0  0  0  0  0  0  0  0
  148.5333  135.4277  156.3573 O   0  0  0  0  0  0  0  0  0  0  0  0
  149.6062  133.7381  155.2910 N   0  0  0  0  0  0  0  0  0  0  0  0
  149.6575  132.6537  154.3057 C   0  0  0  0  0  0  0  0  0  0  0  0
  149.6386  131.3191  155.0706 C   0  0  0  0  0  0  0  0  0  0  0  0
  150.5913  131.3132  156.1833 N   0  0  0  0  0  0  0  0  0  0  0  0
  151.1660  132.4067  156.7200 C   0  0  0  0  0  0  0  0  0  0  0  0
  151.9681  132.3243  157.6473 O   0  0  0  0  0  0  0  0  0  0  0  0
  150.8013  133.7917  156.1483 C   0  0  0  0  0  0  0  0  0  0  0  0
  143.9141  134.5796  152.6370 H   0  0  0  0  0  0  0  0  0  0  0  0
  144.4703  135.8656  153.6976 H   0  0  0  0  0  0  0  0  0  0  0  0
  144.6818  134.1802  154.1700 H   0  0  0  0  0  0  0  0  0  0  0  0
  146.0292  135.5614  151.8002 H   0  0  0  0  0  0  0  0  0  0  0  0
  147.4453  133.3529  151.8079 H   0  0  0  0  0  0  0  0  0  0  0  0
  146.2305  132.6951  152.8742 H   0  0  0  0  0  0  0  0  0  0  0  0
  146.7349  131.5122  149.9983 H   0  0  0  0  0  0  0  0  0  0  0  0
  144.6144  131.4395  148.2813 H   0  0  0  0  0  0  0  0  0  0  0  0
  142.9157  133.3734  149.3095 H   0  0  0  0  0  0  0  0  0  0  0  0
  147.9436  135.4480  153.1448 H   0  0  0  0  0  0  0  0  0  0  0  0
  146.3915  134.3420  155.3660 H   0  0  0  0  0  0  0  0  0  0  0  0
  147.2778  133.2861  154.2739 H   0  0  0  0  0  0  0  0  0  0  0  0
  148.8728  132.6837  153.5512 H   0  0  0  0  0  0  0  0  0  0  0  0
  150.5914  132.7420  153.7484 H   0  0  0  0  0  0  0  0  0  0  0  0
  148.6426  131.1362  155.4752 H   0  0  0  0  0  0  0  0  0  0  0  0
  149.8645  130.4919  154.3975 H   0  0  0  0  0  0  0  0  0  0  0  0
  150.8355  130.4137  156.5722 H   0  0  0  0  0  0  0  0  0  0  0  0
  151.6414  134.1546  155.5551 H   0  0  0  0  0  0  0  0  0  0  0  0
  150.6971  134.4831  156.9857 H   0  0  0  0  0  0  0  0  0  0  0  0
  1  2  1  0  0  0  0
  1 20  1  0  0  0  0
  1 21  1  0  0  0  0
  1 22  1  0  0  0  0
  2  3  1  0  0  0  0
  2  9  1  0  0  0  0
  2 23  1  0  0  0  0
  3  4  1  0  0  0  0
  3 24  1  0  0  0  0
  3 25  1  0  0  0  0
  4  8  1  0  0  0  0
  4  5  1  0  0  0  0
  5  6  2  0  0  0  0
  5 26  1  0  0  0  0
  6  7  1  0  0  0  0
  6 27  1  0  0  0  0
  7  8  2  0  0  0  0
  7 28  1  0  0  0  0
  9 10  1  0  0  0  0
  9 29  1  0  0  0  0
 10 11  1  0  0  0  0
 10 30  1  0  0  0  0
 10 31  1  0  0  0  0
 11 12  2  0  0  0  0
 11 13  1  0  0  0  0
 13 19  1  0  0  0  0
 13 14  1  0  0  0  0
 14 15  1  0  0  0  0
 14 32  1  0  0  0  0
 14 33  1  0  0  0  0
 15 16  1  0  0  0  0
 15 34  1  0  0  0  0
 15 35  1  0  0  0  0
 16 17  1  0  0  0  0
 16 36  1  0  0  0  0
 17 18  2  0  0  0  0
 17 19  1  0  0  0  0
 19 37  1  0  0  0  0
 19 38  1  0  0  0  0
M  END
> <s_m_source_file>
AV-unprocessed.smi

> <i_m_source_file_index>
775

> <i_lp_mmshare_version>
43012

> <i_f3d_flags>
0

> <s_epik_input>
bjFbY0hdW2NIXVtjSF1uMVtDSDJdW0NAQEhdKFtDSDNdKVtOSF1bQ0gyXUMoPU8pTjJbQ0gyXVtDSDJdW05IXUMoPU8pW0NIMl0y

> <s_epik_cmdline>
J2VwaWtfcHl0aG9uJywgJy1waCcsICc3LjAnLCAnLXRuJywgJzgnLCAnLW1hJywgJzIwMCcsICctbWV0YWxfYmluZGluZycsICctaW1hZScsICc8aW5maWxlLm1hZT4nLCAnLW9tYWUnLCAnPG91dGZpbGUubWFlPic=

> <r_lp_tautomer_probability>
1

> <r_epik_Ionization_Penalty>
0.836058

> <r_epik_Ionization_Penalty_Charging>
0

> <r_epik_Ionization_Penalty_Neutral>
0.836058

> <r_epik_State_Penalty>
0.870309

> <r_epik_Charging_Adjusted_Penalty>
0.870309

> <i_epik_Tot_Q>
0

> <i_epik_Tot_abs_Q>
0

> <r_epik_Metal_State_Penalty>
0.870266

> <b_epik_Metal_Only>
0

> <s_lp_Force_Field>
OPLS_2005

> <r_lp_Energy>
24.9182

> <b_lp_Chiralities_Consistent>
1

> <s_lp_Variant>
AV-unprocessed.smi:775-3

> <Gold.Version>
5.8.1

> <Gold.Id.Protein>
6NUR|6NUR_protein|mol2

> <Gold.PLP.Fitness>
39.8018

> <Gold.PLP.PLP>
-29.1618

> <Gold.PLP.part.hbond>
-2.0000

> <Gold.PLP.part.metal>
0.0000

> <Gold.PLP.part.buried>
-2.7635

> <Gold.PLP.part.nonpolar>
-23.7471

> <Gold.PLP.part.repulsive>
0.1683

> <Gold.PLP.ligand.clash>
0.0000

> <Gold.PLP.ligand.torsion>
0.6998

> <Gold.PLP.Chemscore.Hbond>
2.0000

> <Gold.PLP.Chemscore.CHOScore>
2.0000

> <Gold.PLP.Chemscore.Metal>
0.0000

> <Gold.Chemscore.Hbonds>
donor molecule, donor type, donor heavy atom, donor atom, acceptor molecule, acceptor atom, score
      L1  H     9    29       P1  7948  1.00
      P1  H  6896  6909       L1    18  1.00
      L1  C     5    26       P1 10747  1.00
      L1  C     7    28       P1 10186  1.00

> <Gold.PLP.Chemscore.Internal.Correction>
0.0396

> <Gold.Rescore>
     Score         DG    S(hbond)    S(metal)    S(lipo)     H(rot)  DE(clash)    DE(int)     intcor
     12.66     -14.24       1.96        0.00      65.43       2.12       0.13       1.46       ----

> <Gold.Chemscore.Fitness>
12.6578

> <Gold.Chemscore.DG>
-14.2393

> <Gold.Chemscore.ZeroCoef>
-5.4800

> <Gold.Chemscore.Hbond>
1.9585

> <Gold.Chemscore.Metal>
0.0000

> <Gold.Chemscore.Lipo>
65.4263

> <Gold.Chemscore.Internal_Hbond>
0.0000

> <Gold.Chemscore.DEClash>
0.1260

> <Gold.Chemscore.DEInternal>
1.4555

> <Gold.Chemscore.Rot>
2.1239

> <Gold.Chemscore.Internal.Correction>
   9.000000E+99

> <Gold.Chemscore.Hbonds>
donor molecule, donor type, donor heavy atom, donor atom, acceptor molecule, acceptor atom, score
      L1  H     9    29       P1  7948  0.97
      P1  H  6896  6909       L1    18  0.97

> <Gold.Chemscore.Hbond.Weighted>
-6.5415

> <Gold.Chemscore.Metal.Weighted>
-0.0000

> <Gold.Chemscore.Lipo.Weighted>
-7.6549

> <Gold.Chemscore.Internal_Hbond.Weighted>
0.0000

> <Gold.Chemscore.DEClash.Weighted>
0.1260

> <Gold.Chemscore.DEInternal.Weighted>
1.4555

> <Gold.Chemscore.Rot.Weighted>
5.4371

> <Gold.Chemscore.Internal.Correction.Weighted>
   9.000000E+99

> <Gold.Protein.RotatedTorsions>
[ 6907 6896 6895 6894 ] final  -72.88 input  -60.11 | X-H torsion
[ 7974 7965 7964 7962 ] final -143.71 input  175.53 | X-H torsion
[ 8008 7997 7996 7995 ] final  -14.30 input   59.86 | X-H torsion
[ 10167 10162 10161 10158 ] final  -23.08 input  -65.29 | X-H torsion
[ 10718 10713 10712 10709 ] final  150.47 input   66.30 | X-H torsion
[ 10763 10752 10751 10750 ] final   35.18 input  -60.55 | X-H torsion
[ 11005 11000 10999 10996 ] final  -63.23 input  -57.11 | X-H torsion

> <Gold.Protein.ActiveResidues>
 VAL166  LYS551  ARG553  GLY616  TRP617  ASP618  TYR619  PRO620  LYS621  CYS622 
 ASP623  PHE694  ASN695  SER759  ASP760  ASP761  ALA762  ILE779  LEU786  VAL792 
 PHE793  MET794  SER795  GLU796  ALA797  LYS798  CYS799  TRP800  GLU811  SER814 

> <Gold.Protein.RotatedAtoms>
  150.7152  134.5098  159.5601 H   0  0  0  0  0  0  0  0  0  0  0  0  # atno 6907 bound_to 6896
  152.2677  134.7963  160.0429 H   0  0  0  0  0  0  0  0  0  0  0  0  # atno 6908 bound_to 6896
  151.8654  133.3430  159.3754 H   0  0  0  0  0  0  0  0  0  0  0  0  # atno 6909 bound_to 6896
  144.8349  140.5800  143.5490 H   0  0  0  0  0  0  0  0  0  0  0  0  # atno 7974 bound_to 7965
  154.5222  140.2227  155.8956 H   0  0  0  0  0  0  0  0  0  0  0  0  # atno 8008 bound_to 7997
  156.1674  140.3129  155.8877 H   0  0  0  0  0  0  0  0  0  0  0  0  # atno 8009 bound_to 7997
  155.3629  140.0462  157.3037 H   0  0  0  0  0  0  0  0  0  0  0  0  # atno 8010 bound_to 7997
  140.7287  143.4475  151.0565 H   0  0  0  0  0  0  0  0  0  0  0  0  # atno 10167 bound_to 10162
  157.2830  131.0839  151.1518 H   0  0  0  0  0  0  0  0  0  0  0  0  # atno 10718 bound_to 10713
  153.0130  135.6340  154.1786 H   0  0  0  0  0  0  0  0  0  0  0  0  # atno 10763 bound_to 10752
  154.1527  135.2828  155.3132 H   0  0  0  0  0  0  0  0  0  0  0  0  # atno 10764 bound_to 10752
  154.6041  135.5577  153.7466 H   0  0  0  0  0  0  0  0  0  0  0  0  # atno 10765 bound_to 10752
  141.1386  133.6649  156.5649 H   0  0  0  0  0  0  0  0  0  0  0  0  # atno 11005 bound_to 11000
  145.4815  139.1495  143.3759 LP  0  0  0  0  0  0  0  0  0  0  0  0  # atno 17320 bound_to 7965
  146.2649  140.4951  142.8838 LP  0  0  0  0  0  0  0  0  0  0  0  0  # atno 17321 bound_to 7965
  139.8149  143.7900  152.3173 LP  0  0  0  0  0  0  0  0  0  0  0  0  # atno 17342 bound_to 10162
  139.7963  144.7391  150.9886 LP  0  0  0  0  0  0  0  0  0  0  0  0  # atno 17343 bound_to 10162
  157.2944  130.6812  149.6131 LP  0  0  0  0  0  0  0  0  0  0  0  0  # atno 17370 bound_to 10713
  155.9665  130.4411  150.5326 LP  0  0  0  0  0  0  0  0  0  0  0  0  # atno 17371 bound_to 10713
  140.3959  134.7399  157.4750 LP  0  0  0  0  0  0  0  0  0  0  0  0  # atno 17394 bound_to 11000
  140.0532  134.6101  155.8837 LP  0  0  0  0  0  0  0  0  0  0  0  0  # atno 17395 bound_to 11000

$$$$
