AV-unprocessed.smi:1064|AV-procd|sdf|4665|dock2
  -GOLD-   22720 3173D 1   1.00000     0.00000
 Structure written by MMmdl.
 36 37  0  0  0  0  0  0  0  0  2 V2000
  150.2729  140.5085  154.3116 O   0  0  0  0  0  0  0  0  0  0  0  0
  149.4090  141.2726  154.7448 C   0  0  0  0  0  0  0  0  0  0  0  0
  149.6199  142.0452  155.8245 N   0  0  0  0  0  0  0  0  0  0  0  0
  150.8562  142.0947  156.5958 C   0  0  0  0  0  0  0  0  0  0  0  0
  150.6292  141.6632  158.0561 C   0  0  0  0  0  0  0  0  0  0  0  0
  151.8120  141.8816  158.9526 C   0  0  0  0  0  0  0  0  0  0  0  0
  152.5721  140.9270  159.5047 N   0  3  0  0  0  0  0  0  0  0  0  0
  153.5526  141.4830  160.2794 C   0  0  0  0  0  0  0  0  0  0  0  0
  153.3774  142.8398  160.2089 C   0  0  0  0  0  0  0  0  0  0  0  0
  152.2936  143.0560  159.3964 N   0  0  0  0  0  0  0  0  0  0  0  0
  151.7333  144.3609  159.0301 C   0  0  0  0  0  0  0  0  0  0  0  0
  151.5704  145.1152  160.1167 F   0  0  0  0  0  0  0  0  0  0  0  0
  152.5209  144.9787  158.1496 F   0  0  0  0  0  0  0  0  0  0  0  0
  148.1735  141.3877  154.1945 N   0  0  0  0  0  0  0  0  0  0  0  0
  147.4377  140.3244  153.4901 C   0  0  0  0  0  0  0  0  0  0  0  0
  146.4572  139.6569  154.4689 C   0  0  0  0  0  0  0  0  0  0  0  0
  145.2183  140.8500  155.0641 S   0  0  0  0  0  0  0  0  0  0  0  0
  146.3185  142.2095  155.5691 C   0  0  0  0  0  0  0  0  0  0  0  0
  147.3210  142.5539  154.4544 C   0  0  0  0  0  0  0  0  0  0  0  0
  148.8664  142.6445  156.1288 H   0  0  0  0  0  0  0  0  0  0  0  0
  151.6125  141.4690  156.1185 H   0  0  0  0  0  0  0  0  0  0  0  0
  151.2301  143.1185  156.5639 H   0  0  0  0  0  0  0  0  0  0  0  0
  149.7934  142.2162  158.4847 H   0  0  0  0  0  0  0  0  0  0  0  0
  150.3899  140.6012  158.1174 H   0  0  0  0  0  0  0  0  0  0  0  0
  154.2807  140.8872  160.8102 H   0  0  0  0  0  0  0  0  0  0  0  0
  153.9280  143.6474  160.6692 H   0  0  0  0  0  0  0  0  0  0  0  0
  150.7562  144.2207  158.5666 H   0  0  0  0  0  0  0  0  0  0  0  0
  146.8889  140.7485  152.6481 H   0  0  0  0  0  0  0  0  0  0  0  0
  148.0902  139.5726  153.0461 H   0  0  0  0  0  0  0  0  0  0  0  0
  145.9392  138.8294  153.9836 H   0  0  0  0  0  0  0  0  0  0  0  0
  146.9933  139.2422  155.3233 H   0  0  0  0  0  0  0  0  0  0  0  0
  145.7093  143.0793  155.8151 H   0  0  0  0  0  0  0  0  0  0  0  0
  146.8461  141.9214  156.4791 H   0  0  0  0  0  0  0  0  0  0  0  0
  147.9048  143.4309  154.7377 H   0  0  0  0  0  0  0  0  0  0  0  0
  146.7907  142.8428  153.5459 H   0  0  0  0  0  0  0  0  0  0  0  0
  152.4382  139.9335  159.3648 H   0  0  0  0  0  0  0  0  0  0  0  0
  1  2  2  0  0  0  0
  2  3  1  0  0  0  0
  2 14  1  0  0  0  0
  3  4  1  0  0  0  0
  3 20  1  0  0  0  0
  4  5  1  0  0  0  0
  4 21  1  0  0  0  0
  4 22  1  0  0  0  0
  5  6  1  0  0  0  0
  5 23  1  0  0  0  0
  5 24  1  0  0  0  0
  6 10  1  0  0  0  0
  6  7  2  0  0  0  0
  7  8  1  0  0  0  0
  7 36  1  0  0  0  0
  8  9  2  0  0  0  0
  8 25  1  0  0  0  0
  9 10  1  0  0  0  0
  9 26  1  0  0  0  0
 10 11  1  0  0  0  0
 11 12  1  0  0  0  0
 11 13  1  0  0  0  0
 11 27  1  0  0  0  0
 14 19  1  0  0  0  0
 14 15  1  0  0  0  0
 15 16  1  0  0  0  0
 15 28  1  0  0  0  0
 15 29  1  0  0  0  0
 16 17  1  0  0  0  0
 16 30  1  0  0  0  0
 16 31  1  0  0  0  0
 17 18  1  0  0  0  0
 18 19  1  0  0  0  0
 18 32  1  0  0  0  0
 18 33  1  0  0  0  0
 19 34  1  0  0  0  0
 19 35  1  0  0  0  0
M  CHG  1   7   1
M  END
> <s_m_source_file>
AV-unprocessed.smi

> <i_m_source_file_index>
1064

> <i_lp_mmshare_version>
43012

> <i_f3d_flags>
0

> <s_epik_input>
W0NIMl0xW0NIMl1TW0NIMl1bQ0gyXU4xQyg9TylbTkhdW0NIMl1bQ0gyXWMybltjSF1bY0hdbjJbQ0hdKEYpRg==

> <s_epik_cmdline>
J2VwaWtfcHl0aG9uJywgJy1waCcsICc3LjAnLCAnLXRuJywgJzgnLCAnLW1hJywgJzIwMCcsICctbWV0YWxfYmluZGluZycsICctaW1hZScsICc8aW5maWxlLm1hZT4nLCAnLW9tYWUnLCAnPG91dGZpbGUubWFlPic=

> <r_lp_tautomer_probability>
1

> <r_epik_Ionization_Penalty>
1.10071

> <r_epik_Ionization_Penalty_Charging>
0

> <r_epik_Ionization_Penalty_Neutral>
1.10071

> <r_epik_State_Penalty>
1.15778

> <r_epik_Charging_Adjusted_Penalty>
1.15778

> <i_epik_Tot_Q>
1

> <i_epik_Tot_abs_Q>
1

> <r_epik_Metal_State_Penalty>
1.24497

> <b_epik_Metal_Only>
0

> <s_lp_Force_Field>
OPLS_2005

> <r_lp_Energy>
29.6346

> <b_lp_Chiralities_Consistent>
1

> <s_lp_Variant>
AV-unprocessed.smi:1064-2

> <Gold.Version>
5.8.1

> <Gold.Id.Protein>
6NUR|6NUR_protein|mol2

> <Gold.PLP.Fitness>
48.3837

> <Gold.PLP.PLP>
-46.1347

> <Gold.PLP.part.hbond>
-2.0000

> <Gold.PLP.part.metal>
0.0000

> <Gold.PLP.part.buried>
-1.5384

> <Gold.PLP.part.nonpolar>
-42.8887

> <Gold.PLP.part.repulsive>
0.3847

> <Gold.PLP.ligand.clash>
0.9365

> <Gold.PLP.ligand.torsion>
0.6897

> <Gold.PLP.Chemscore.Hbond>
1.4990

> <Gold.PLP.Chemscore.CHOScore>
0.0000

> <Gold.PLP.Chemscore.Metal>
0.0000

> <Gold.Chemscore.Hbonds>
donor molecule, donor type, donor heavy atom, donor atom, acceptor molecule, acceptor atom, score
      L1  H     3    20       P1  8028  0.32
      P1  H  7989  7998       L1     1  0.90

> <Gold.PLP.Chemscore.Internal.Correction>
0.0679

> <Gold.Rescore>
     Score         DG    S(hbond)    S(metal)    S(lipo)     H(rot)  DE(clash)    DE(int)     intcor
     12.07     -14.10       1.32        0.00      72.29       1.65       1.19       0.85       ----

> <Gold.Chemscore.Fitness>
12.0677

> <Gold.Chemscore.DG>
-14.1022

> <Gold.Chemscore.ZeroCoef>
-5.4800

> <Gold.Chemscore.Hbond>
1.3156

> <Gold.Chemscore.Metal>
0.0000

> <Gold.Chemscore.Lipo>
72.2940

> <Gold.Chemscore.Internal_Hbond>
0.0000

> <Gold.Chemscore.DEClash>
1.1872

> <Gold.Chemscore.DEInternal>
0.8472

> <Gold.Chemscore.Rot>
1.6525

> <Gold.Chemscore.Internal.Correction>
   9.000000E+99

> <Gold.Chemscore.Hbonds>
donor molecule, donor type, donor heavy atom, donor atom, acceptor molecule, acceptor atom, score
      L1  H     3    20       P1  8028  0.32
      P1  H  7989  7998       L1     1  0.87

> <Gold.Chemscore.Hbond.Weighted>
-4.3942

> <Gold.Chemscore.Metal.Weighted>
-0.0000

> <Gold.Chemscore.Lipo.Weighted>
-8.4584

> <Gold.Chemscore.Internal_Hbond.Weighted>
0.0000

> <Gold.Chemscore.DEClash.Weighted>
1.1872

> <Gold.Chemscore.DEInternal.Weighted>
0.8472

> <Gold.Chemscore.Rot.Weighted>
4.2304

> <Gold.Chemscore.Internal.Correction.Weighted>
   9.000000E+99

> <Gold.Protein.RotatedTorsions>
[ 6907 6896 6895 6894 ] final  153.77 input  -60.11 | X-H torsion
[ 7974 7965 7964 7962 ] final  -54.75 input  175.53 | X-H torsion
[ 8008 7997 7996 7995 ] final   75.16 input   59.86 | X-H torsion
[ 10167 10162 10161 10158 ] final  -19.14 input  -65.29 | X-H torsion
[ 10718 10713 10712 10709 ] final   71.54 input   66.30 | X-H torsion
[ 10763 10752 10751 10750 ] final  -74.41 input  -60.55 | X-H torsion
[ 11005 11000 10999 10996 ] final  -25.30 input  -57.11 | X-H torsion

> <Gold.Protein.ActiveResidues>
 VAL166  LYS551  ARG553  GLY616  TRP617  ASP618  TYR619  PRO620  LYS621  CYS622 
 ASP623  PHE694  ASN695  SER759  ASP760  ASP761  ALA762  ILE779  LEU786  VAL792 
 PHE793  MET794  SER795  GLU796  ALA797  LYS798  CYS799  TRP800  GLU811  SER814 

> <Gold.Protein.RotatedAtoms>
  152.0680  133.4093  159.4446 H   0  0  0  0  0  0  0  0  0  0  0  0  # atno 6907 bound_to 6896
  150.6864  134.3124  159.4761 H   0  0  0  0  0  0  0  0  0  0  0  0  # atno 6908 bound_to 6896
  152.0953  134.9379  160.0621 H   0  0  0  0  0  0  0  0  0  0  0  0  # atno 6909 bound_to 6896
  145.8820  140.8137  142.9835 H   0  0  0  0  0  0  0  0  0  0  0  0  # atno 7974 bound_to 7965
  155.8089  140.3474  155.5446 H   0  0  0  0  0  0  0  0  0  0  0  0  # atno 8008 bound_to 7997
  155.8461  140.0949  157.1724 H   0  0  0  0  0  0  0  0  0  0  0  0  # atno 8009 bound_to 7997
  154.4006  140.1385  156.3775 H   0  0  0  0  0  0  0  0  0  0  0  0  # atno 8010 bound_to 7997
  140.7265  143.4847  151.0071 H   0  0  0  0  0  0  0  0  0  0  0  0  # atno 10167 bound_to 10162
  157.6457  130.9533  150.0804 H   0  0  0  0  0  0  0  0  0  0  0  0  # atno 10718 bound_to 10713
  154.4727  135.5865  153.6333 H   0  0  0  0  0  0  0  0  0  0  0  0  # atno 10763 bound_to 10752
  152.9837  135.6071  154.3346 H   0  0  0  0  0  0  0  0  0  0  0  0  # atno 10764 bound_to 10752
  154.3229  135.2843  155.2489 H   0  0  0  0  0  0  0  0  0  0  0  0  # atno 10765 bound_to 10752
  140.8925  133.7579  156.0439 H   0  0  0  0  0  0  0  0  0  0  0  0  # atno 11005 bound_to 11000
  144.6727  140.1398  143.7438 LP  0  0  0  0  0  0  0  0  0  0  0  0  # atno 17320 bound_to 7965
  145.9012  139.2432  143.1492 LP  0  0  0  0  0  0  0  0  0  0  0  0  # atno 17321 bound_to 7965
  139.8548  143.7391  152.3176 LP  0  0  0  0  0  0  0  0  0  0  0  0  # atno 17342 bound_to 10162
  139.7586  144.7513  151.0398 LP  0  0  0  0  0  0  0  0  0  0  0  0  # atno 17343 bound_to 10162
  156.1782  130.3649  149.9072 LP  0  0  0  0  0  0  0  0  0  0  0  0  # atno 17370 bound_to 10713
  156.7031  130.8940  151.3601 LP  0  0  0  0  0  0  0  0  0  0  0  0  # atno 17371 bound_to 10713
  140.8329  134.3157  157.5342 LP  0  0  0  0  0  0  0  0  0  0  0  0  # atno 17394 bound_to 11000
  139.8731  134.9373  156.3685 LP  0  0  0  0  0  0  0  0  0  0  0  0  # atno 17395 bound_to 11000

$$$$
