AV-unprocessed.smi:1963|AV-procd|sdf|7926|dock9
  -GOLD-   2272010 93D 1   1.00000     0.00000
 Structure written by MMmdl.
 47 48  0  0  0  0  0  0  0  0  1 V2000
  153.8660  134.0007  164.5089 C   0  0  0  0  0  0  0  0  0  0  0  0
  154.6258  134.9649  163.6049 C   0  0  0  0  0  0  0  0  0  0  0  0
  154.5872  136.1759  163.8214 O   0  0  0  0  0  0  0  0  0  0  0  0
  155.3162  134.4131  162.5944 N   0  0  0  0  0  0  0  0  0  0  0  0
  156.1019  135.1501  161.6018 C   0  0  2  0  0  0  0  0  0  0  0  0
  155.1781  136.1520  160.8813 C   0  0  0  0  0  0  0  0  0  0  0  0
  154.3152  135.7430  160.1033 O   0  0  0  0  0  0  0  0  0  0  0  0
  155.3904  137.4486  161.1724 N   0  0  0  0  0  0  0  0  0  0  0  0
  154.7345  138.5952  160.6496 C   0  0  0  0  0  0  0  0  0  0  0  0
  154.5140  139.6831  161.5174 C   0  0  0  0  0  0  0  0  0  0  0  0
  153.8958  140.8456  161.0194 C   0  0  0  0  0  0  0  0  0  0  0  0
  153.5255  140.8853  159.6559 C   0  0  0  0  0  0  0  0  0  0  0  0
  152.9107  142.0121  159.0934 N   0  0  0  0  0  0  0  0  0  0  0  0
  152.8217  143.1563  159.9920 C   0  0  0  0  0  0  0  0  0  0  0  0
  152.2580  144.3718  159.2363 C   0  0  0  0  0  0  0  0  0  0  0  0
  150.9964  144.0332  158.6665 O   0  0  0  0  0  0  0  0  0  0  0  0
  151.1014  142.9611  157.7333 C   0  0  0  0  0  0  0  0  0  0  0  0
  151.6441  141.7073  158.4418 C   0  0  0  0  0  0  0  0  0  0  0  0
  153.7380  139.8497  158.8158 N   0  0  0  0  0  0  0  0  0  0  0  0
  154.3303  138.7369  159.2998 C   0  0  0  0  0  0  0  0  0  0  0  0
  156.6982  134.1390  160.5780 C   0  0  0  0  0  0  0  0  0  0  0  0
  155.5996  133.3057  159.8886 C   0  0  0  0  0  0  0  0  0  0  0  0
  157.7344  133.1825  161.2048 C   0  0  0  0  0  0  0  0  0  0  0  0
  153.2918  133.2883  163.9156 H   0  0  0  0  0  0  0  0  0  0  0  0
  153.1736  134.5409  165.1553 H   0  0  0  0  0  0  0  0  0  0  0  0
  154.5616  133.4463  165.1390 H   0  0  0  0  0  0  0  0  0  0  0  0
  155.2837  133.4091  162.4914 H   0  0  0  0  0  0  0  0  0  0  0  0
  156.9156  135.6819  162.1000 H   0  0  0  0  0  0  0  0  0  0  0  0
  156.0706  137.6314  161.8960 H   0  0  0  0  0  0  0  0  0  0  0  0
  154.8121  139.6301  162.5545 H   0  0  0  0  0  0  0  0  0  0  0  0
  153.7127  141.6843  161.6745 H   0  0  0  0  0  0  0  0  0  0  0  0
  152.1749  142.9191  160.8376 H   0  0  0  0  0  0  0  0  0  0  0  0
  153.8089  143.3878  160.3940 H   0  0  0  0  0  0  0  0  0  0  0  0
  152.1268  145.2120  159.9182 H   0  0  0  0  0  0  0  0  0  0  0  0
  152.9465  144.6983  158.4552 H   0  0  0  0  0  0  0  0  0  0  0  0
  150.1165  142.7588  157.3123 H   0  0  0  0  0  0  0  0  0  0  0  0
  151.7490  143.2505  156.9039 H   0  0  0  0  0  0  0  0  0  0  0  0
  151.7828  140.9003  157.7212 H   0  0  0  0  0  0  0  0  0  0  0  0
  150.9240  141.3584  159.1833 H   0  0  0  0  0  0  0  0  0  0  0  0
  154.4986  137.9625  158.5680 H   0  0  0  0  0  0  0  0  0  0  0  0
  157.2108  134.7010  159.7951 H   0  0  0  0  0  0  0  0  0  0  0  0
  155.0243  132.7331  160.6166 H   0  0  0  0  0  0  0  0  0  0  0  0
  156.0303  132.5993  159.1786 H   0  0  0  0  0  0  0  0  0  0  0  0
  154.9019  133.9295  159.3299 H   0  0  0  0  0  0  0  0  0  0  0  0
  157.3019  132.6209  162.0333 H   0  0  0  0  0  0  0  0  0  0  0  0
  158.6100  133.7114  161.5812 H   0  0  0  0  0  0  0  0  0  0  0  0
  158.0962  132.4616  160.4712 H   0  0  0  0  0  0  0  0  0  0  0  0
  1  2  1  0  0  0  0
  1 24  1  0  0  0  0
  1 25  1  0  0  0  0
  1 26  1  0  0  0  0
  2  3  2  0  0  0  0
  2  4  1  0  0  0  0
  4  5  1  0  0  0  0
  4 27  1  0  0  0  0
  5  6  1  0  0  0  0
  5 21  1  0  0  0  0
  5 28  1  0  0  0  0
  6  7  2  0  0  0  0
  6  8  1  0  0  0  0
  8  9  1  0  0  0  0
  8 29  1  0  0  0  0
  9 20  1  0  0  0  0
  9 10  2  0  0  0  0
 10 11  1  0  0  0  0
 10 30  1  0  0  0  0
 11 12  2  0  0  0  0
 11 31  1  0  0  0  0
 12 13  1  0  0  0  0
 12 19  1  0  0  0  0
 13 18  1  0  0  0  0
 13 14  1  0  0  0  0
 14 15  1  0  0  0  0
 14 32  1  0  0  0  0
 14 33  1  0  0  0  0
 15 16  1  0  0  0  0
 15 34  1  0  0  0  0
 15 35  1  0  0  0  0
 16 17  1  0  0  0  0
 17 18  1  0  0  0  0
 17 36  1  0  0  0  0
 17 37  1  0  0  0  0
 18 38  1  0  0  0  0
 18 39  1  0  0  0  0
 19 20  2  0  0  0  0
 20 40  1  0  0  0  0
 21 22  1  0  0  0  0
 21 23  1  0  0  0  0
 21 41  1  0  0  0  0
 22 42  1  0  0  0  0
 22 43  1  0  0  0  0
 22 44  1  0  0  0  0
 23 45  1  0  0  0  0
 23 46  1  0  0  0  0
 23 47  1  0  0  0  0
M  END
> <s_m_source_file>
AV-unprocessed.smi

> <i_m_source_file_index>
1963

> <i_lp_mmshare_version>
43012

> <i_f3d_flags>
0

> <s_epik_input>
W0NIM11DKD1PKVtOSF1bQ0BASF0oW0NIXShbQ0gzXSlbQ0gzXSlDKD1PKVtOSF1jMVtjSF1bY0hdYyhuW2NIXTEpTjJbQ0gyXVtDSDJdT1tDSDJdW0NIMl0y

> <s_epik_cmdline>
J2VwaWtfcHl0aG9uJywgJy1waCcsICc3LjAnLCAnLXRuJywgJzgnLCAnLW1hJywgJzIwMCcsICctbWV0YWxfYmluZGluZycsICctaW1hZScsICc8aW5maWxlLm1hZT4nLCAnLW9tYWUnLCAnPG91dGZpbGUubWFlPic=

> <r_lp_tautomer_probability>
1

> <r_epik_Ionization_Penalty>
0.00051446

> <r_epik_Ionization_Penalty_Charging>
0

> <r_epik_Ionization_Penalty_Neutral>
0.00051446

> <r_epik_State_Penalty>
0.00031949

> <r_epik_Charging_Adjusted_Penalty>
0.00031949

> <i_epik_Tot_Q>
0

> <i_epik_Tot_abs_Q>
0

> <r_epik_Metal_State_Penalty>
-0

> <b_epik_Metal_Only>
0

> <s_lp_Force_Field>
OPLS_2005

> <r_lp_Energy>
27.6856

> <b_lp_Chiralities_Consistent>
1

> <s_lp_Variant>
AV-unprocessed.smi:1963-1

> <Gold.Version>
5.8.1

> <Gold.Id.Protein>
6NUR|6NUR_protein|mol2

> <Gold.PLP.Fitness>
38.1194

> <Gold.PLP.PLP>
-33.2049

> <Gold.PLP.part.hbond>
-1.9832

> <Gold.PLP.part.metal>
0.0000

> <Gold.PLP.part.buried>
-5.5835

> <Gold.PLP.part.nonpolar>
-26.8691

> <Gold.PLP.part.repulsive>
0.1990

> <Gold.PLP.ligand.clash>
0.0906

> <Gold.PLP.ligand.torsion>
0.5677

> <Gold.PLP.Chemscore.Hbond>
2.0000

> <Gold.PLP.Chemscore.CHOScore>
0.0000

> <Gold.PLP.Chemscore.Metal>
0.0000

> <Gold.Chemscore.Hbonds>
donor molecule, donor type, donor heavy atom, donor atom, acceptor molecule, acceptor atom, score
      P1  H  6896  6909       L1     7  0.70
      P1  H  7997  8008       L1    19  1.00

> <Gold.PLP.Chemscore.Internal.Correction>
0.1404

> <Gold.Rescore>
     Score         DG    S(hbond)    S(metal)    S(lipo)     H(rot)  DE(clash)    DE(int)     intcor
     14.27     -16.14       1.60        0.00      83.56       1.74       0.01       1.87       ----

> <Gold.Chemscore.Fitness>
14.2683

> <Gold.Chemscore.DG>
-16.1438

> <Gold.Chemscore.ZeroCoef>
-5.4800

> <Gold.Chemscore.Hbond>
1.5987

> <Gold.Chemscore.Metal>
0.0000

> <Gold.Chemscore.Lipo>
83.5628

> <Gold.Chemscore.Internal_Hbond>
0.0000

> <Gold.Chemscore.DEClash>
0.0073

> <Gold.Chemscore.DEInternal>
1.8682

> <Gold.Chemscore.Rot>
1.7394

> <Gold.Chemscore.Internal.Correction>
   9.000000E+99

> <Gold.Chemscore.Hbonds>
donor molecule, donor type, donor heavy atom, donor atom, acceptor molecule, acceptor atom, score
      P1  H  6896  6909       L1     7  0.71
      P1  H  7997  8008       L1    19  0.25

> <Gold.Chemscore.Hbond.Weighted>
-5.3398

> <Gold.Chemscore.Metal.Weighted>
-0.0000

> <Gold.Chemscore.Lipo.Weighted>
-9.7768

> <Gold.Chemscore.Internal_Hbond.Weighted>
0.0000

> <Gold.Chemscore.DEClash.Weighted>
0.0073

> <Gold.Chemscore.DEInternal.Weighted>
1.8682

> <Gold.Chemscore.Rot.Weighted>
4.4528

> <Gold.Chemscore.Internal.Correction.Weighted>
   9.000000E+99

> <Gold.Protein.RotatedTorsions>
[ 6907 6896 6895 6894 ] final  177.69 input  -60.11 | X-H torsion
[ 7974 7965 7964 7962 ] final   49.99 input  175.53 | X-H torsion
[ 8008 7997 7996 7995 ] final  -93.18 input   59.86 | X-H torsion
[ 10167 10162 10161 10158 ] final   58.31 input  -65.29 | X-H torsion
[ 10718 10713 10712 10709 ] final  179.54 input   66.30 | X-H torsion
[ 10763 10752 10751 10750 ] final  172.38 input  -60.55 | X-H torsion
[ 11005 11000 10999 10996 ] final -113.39 input  -57.11 | X-H torsion

> <Gold.Protein.ActiveResidues>
 VAL166  LYS551  ARG553  GLY616  TRP617  ASP618  TYR619  PRO620  LYS621  CYS622 
 ASP623  PHE694  ASN695  SER759  ASP760  ASP761  ALA762  ILE779  LEU786  VAL792 
 PHE793  MET794  SER795  GLU796  ALA797  LYS798  CYS799  TRP800  GLU811  SER814 

> <Gold.Protein.RotatedAtoms>
  151.7000  133.3311  159.3263 H   0  0  0  0  0  0  0  0  0  0  0  0  # atno 6907 bound_to 6896
  150.7740  134.6624  159.6356 H   0  0  0  0  0  0  0  0  0  0  0  0  # atno 6908 bound_to 6896
  152.3775  134.6643  160.0206 H   0  0  0  0  0  0  0  0  0  0  0  0  # atno 6909 bound_to 6896
  146.0055  139.4486  142.9988 H   0  0  0  0  0  0  0  0  0  0  0  0  # atno 7974 bound_to 7965
  154.7325  140.0501  157.0739 H   0  0  0  0  0  0  0  0  0  0  0  0  # atno 8008 bound_to 7997
  155.0284  140.3155  155.4748 H   0  0  0  0  0  0  0  0  0  0  0  0  # atno 8009 bound_to 7997
  156.2845  140.2154  156.5404 H   0  0  0  0  0  0  0  0  0  0  0  0  # atno 8010 bound_to 7997
  140.1885  144.4109  150.6582 H   0  0  0  0  0  0  0  0  0  0  0  0  # atno 10167 bound_to 10162
  156.8742  130.9794  151.3070 H   0  0  0  0  0  0  0  0  0  0  0  0  # atno 10718 bound_to 10713
  154.4252  135.2758  155.1949 H   0  0  0  0  0  0  0  0  0  0  0  0  # atno 10763 bound_to 10752
  154.3878  135.6073  153.5830 H   0  0  0  0  0  0  0  0  0  0  0  0  # atno 10764 bound_to 10752
  152.9834  135.5896  154.4555 H   0  0  0  0  0  0  0  0  0  0  0  0  # atno 10765 bound_to 10752
  141.0617  133.9524  157.2654 H   0  0  0  0  0  0  0  0  0  0  0  0  # atno 11005 bound_to 11000
  145.7422  141.0004  143.1295 LP  0  0  0  0  0  0  0  0  0  0  0  0  # atno 17320 bound_to 7965
  144.6934  139.9113  143.7463 LP  0  0  0  0  0  0  0  0  0  0  0  0  # atno 17321 bound_to 7965
  140.6471  143.2216  151.6160 LP  0  0  0  0  0  0  0  0  0  0  0  0  # atno 17342 bound_to 10162
  139.5266  144.3042  152.1048 LP  0  0  0  0  0  0  0  0  0  0  0  0  # atno 17343 bound_to 10162
  157.6178  130.8632  149.9057 LP  0  0  0  0  0  0  0  0  0  0  0  0  # atno 17370 bound_to 10713
  156.0710  130.3685  150.0775 LP  0  0  0  0  0  0  0  0  0  0  0  0  # atno 17371 bound_to 10713
  139.9439  135.0187  156.8792 LP  0  0  0  0  0  0  0  0  0  0  0  0  # atno 17394 bound_to 11000
  140.5855  134.0312  155.7480 LP  0  0  0  0  0  0  0  0  0  0  0  0  # atno 17395 bound_to 11000

$$$$
