AV-unprocessed.smi:3115|AV-procd|sdf|11858|dock1
  -GOLD-   2272017243D 1   1.00000     0.00000
 Structure written by MMmdl.
 33 34  0  0  0  0  0  0  0  0  2 V2000
  151.9353  145.3285  159.1836 C   0  0  0  0  0  0  0  0  0  0  0  0
  152.4139  143.8745  159.1191 C   0  0  2  0  0  0  0  0  0  0  0  0
  151.7585  143.0982  157.9601 C   0  0  0  0  0  0  0  0  0  0  0  0
  152.1756  141.7017  157.9928 N   0  0  0  0  0  0  0  0  0  0  0  0
  151.7145  140.9533  156.9004 C   0  0  0  0  0  0  0  0  0  0  0  0
  150.5084  141.3307  156.2729 C   0  0  0  0  0  0  0  0  0  0  0  0
  150.0517  140.5780  155.1716 C   0  0  0  0  0  0  0  0  0  0  0  0
  148.7599  140.9407  154.4690 C   0  0  0  0  0  0  0  0  0  0  0  0
  148.0577  142.0121  155.1933 N   0  3  0  0  0  0  0  0  0  0  0  0
  150.8168  139.4748  154.7425 C   0  0  0  0  0  0  0  0  0  0  0  0
  152.0073  139.1761  155.4335 C   0  0  0  0  0  0  0  0  0  0  0  0
  152.4502  139.8930  156.4881 N   0  0  0  0  0  0  0  0  0  0  0  0
  151.9076  141.0727  159.2801 C   0  0  0  0  0  0  0  0  0  0  0  0
  152.5511  141.8934  160.4106 C   0  0  0  0  0  0  0  0  0  0  0  0
  152.0822  143.2378  160.3512 O   0  0  0  0  0  0  0  0  0  0  0  0
  152.1774  145.8625  158.2644 H   0  0  0  0  0  0  0  0  0  0  0  0
  152.4094  145.8583  160.0102 H   0  0  0  0  0  0  0  0  0  0  0  0
  150.8560  145.3828  159.3283 H   0  0  0  0  0  0  0  0  0  0  0  0
  153.4986  143.8711  158.9967 H   0  0  0  0  0  0  0  0  0  0  0  0
  150.6719  143.1600  158.0384 H   0  0  0  0  0  0  0  0  0  0  0  0
  152.0395  143.5418  157.0041 H   0  0  0  0  0  0  0  0  0  0  0  0
  149.9480  142.1829  156.6302 H   0  0  0  0  0  0  0  0  0  0  0  0
  148.9671  141.2682  153.4498 H   0  0  0  0  0  0  0  0  0  0  0  0
  148.1133  140.0650  154.4025 H   0  0  0  0  0  0  0  0  0  0  0  0
  147.9562  141.7548  156.1646 H   0  0  0  0  0  0  0  0  0  0  0  0
  147.1453  142.1515  154.7830 H   0  0  0  0  0  0  0  0  0  0  0  0
  150.5042  138.8698  153.9040 H   0  0  0  0  0  0  0  0  0  0  0  0
  152.6196  138.3394  155.1315 H   0  0  0  0  0  0  0  0  0  0  0  0
  150.8308  141.0036  159.4415 H   0  0  0  0  0  0  0  0  0  0  0  0
  152.3014  140.0555  159.2845 H   0  0  0  0  0  0  0  0  0  0  0  0
  152.2895  141.4682  161.3796 H   0  0  0  0  0  0  0  0  0  0  0  0
  153.6397  141.8730  160.3366 H   0  0  0  0  0  0  0  0  0  0  0  0
  148.5904  142.8674  155.1241 H   0  0  0  0  0  0  0  0  0  0  0  0
  1  2  1  0  0  0  0
  1 16  1  0  0  0  0
  1 17  1  0  0  0  0
  1 18  1  0  0  0  0
  2 15  1  0  0  0  0
  2  3  1  0  0  0  0
  2 19  1  0  0  0  0
  3  4  1  0  0  0  0
  3 20  1  0  0  0  0
  3 21  1  0  0  0  0
  4  5  1  0  0  0  0
  4 13  1  0  0  0  0
  5 12  1  0  0  0  0
  5  6  2  0  0  0  0
  6  7  1  0  0  0  0
  6 22  1  0  0  0  0
  7  8  1  0  0  0  0
  7 10  2  0  0  0  0
  8  9  1  0  0  0  0
  8 23  1  0  0  0  0
  8 24  1  0  0  0  0
  9 25  1  0  0  0  0
  9 26  1  0  0  0  0
  9 33  1  0  0  0  0
 10 11  1  0  0  0  0
 10 27  1  0  0  0  0
 11 12  2  0  0  0  0
 11 28  1  0  0  0  0
 13 14  1  0  0  0  0
 13 29  1  0  0  0  0
 13 30  1  0  0  0  0
 14 15  1  0  0  0  0
 14 31  1  0  0  0  0
 14 32  1  0  0  0  0
M  CHG  1   9   1
M  END
> <s_m_source_file>
AV-unprocessed.smi

> <i_m_source_file_index>
3115

> <i_lp_mmshare_version>
43012

> <i_f3d_flags>
0

> <s_epik_input>
W0NIM11bQ0BASF0xW0NIMl1OKFtDSDJdW0NIMl1PMSljMltjSF1jKFtDSDJdW05IMl0pW2NIXVtjSF1uMg==

> <s_epik_cmdline>
J2VwaWtfcHl0aG9uJywgJy1waCcsICc3LjAnLCAnLXRuJywgJzgnLCAnLW1hJywgJzIwMCcsICctbWV0YWxfYmluZGluZycsICctaW1hZScsICc8aW5maWxlLm1hZT4nLCAnLW9tYWUnLCAnPG91dGZpbGUubWFlPic=

> <r_lp_tautomer_probability>
1

> <r_epik_Ionization_Penalty>
0.0768907

> <r_epik_Ionization_Penalty_Charging>
0.0768864

> <r_epik_Ionization_Penalty_Neutral>
4.339e-06

> <r_epik_State_Penalty>
0.0093217

> <r_epik_Charging_Adjusted_Penalty>
0.0862081

> <i_epik_Tot_Q>
1

> <i_epik_Tot_abs_Q>
1

> <r_epik_Metal_State_Penalty>
0.0096683

> <b_epik_Metal_Only>
0

> <s_lp_Force_Field>
OPLS_2005

> <r_lp_Energy>
14.5686

> <b_lp_Chiralities_Consistent>
1

> <s_lp_Variant>
AV-unprocessed.smi:3115-1

> <Gold.Version>
5.8.1

> <Gold.Id.Protein>
6NUR|6NUR_protein|mol2

> <Gold.PLP.Fitness>
42.4220

> <Gold.PLP.PLP>
-34.8747

> <Gold.PLP.part.hbond>
-2.0000

> <Gold.PLP.part.metal>
0.0000

> <Gold.PLP.part.buried>
-2.0228

> <Gold.PLP.part.nonpolar>
-30.1138

> <Gold.PLP.part.repulsive>
0.1549

> <Gold.PLP.ligand.clash>
0.1932

> <Gold.PLP.ligand.torsion>
0.6791

> <Gold.PLP.Chemscore.Hbond>
3.0000

> <Gold.PLP.Chemscore.CHOScore>
0.0000

> <Gold.PLP.Chemscore.Metal>
0.0000

> <Gold.Chemscore.Hbonds>
donor molecule, donor type, donor heavy atom, donor atom, acceptor molecule, acceptor atom, score
      L1  H     9    33       P1  8028  1.98
      P1  H  7997  8010       L1    12  1.00

> <Gold.PLP.Chemscore.Internal.Correction>
0.0986

> <Gold.Rescore>
     Score         DG    S(hbond)    S(metal)    S(lipo)     H(rot)  DE(clash)    DE(int)     intcor
     18.03     -18.90       1.84        0.00      90.78       1.30       0.14       0.73       ----

> <Gold.Chemscore.Fitness>
18.0291

> <Gold.Chemscore.DG>
-18.8958

> <Gold.Chemscore.ZeroCoef>
-5.4800

> <Gold.Chemscore.Hbond>
1.8365

> <Gold.Chemscore.Metal>
0.0000

> <Gold.Chemscore.Lipo>
90.7819

> <Gold.Chemscore.Internal_Hbond>
0.0000

> <Gold.Chemscore.DEClash>
0.1393

> <Gold.Chemscore.DEInternal>
0.7274

> <Gold.Chemscore.Rot>
1.3045

> <Gold.Chemscore.Internal.Correction>
   9.000000E+99

> <Gold.Chemscore.Hbonds>
donor molecule, donor type, donor heavy atom, donor atom, acceptor molecule, acceptor atom, score
      L1  H     9    33       P1  8028  0.94
      P1  H  7997  8010       L1    12  0.80

> <Gold.Chemscore.Hbond.Weighted>
-6.1338

> <Gold.Chemscore.Metal.Weighted>
-0.0000

> <Gold.Chemscore.Lipo.Weighted>
-10.6215

> <Gold.Chemscore.Internal_Hbond.Weighted>
0.0000

> <Gold.Chemscore.DEClash.Weighted>
0.1393

> <Gold.Chemscore.DEInternal.Weighted>
0.7274

> <Gold.Chemscore.Rot.Weighted>
3.3395

> <Gold.Chemscore.Internal.Correction.Weighted>
   9.000000E+99

> <Gold.Protein.RotatedTorsions>
[ 6907 6896 6895 6894 ] final -120.10 input  -60.11 | X-H torsion
[ 7974 7965 7964 7962 ] final  143.39 input  175.53 | X-H torsion
[ 8008 7997 7996 7995 ] final   67.77 input   59.86 | X-H torsion
[ 10167 10162 10161 10158 ] final -158.83 input  -65.29 | X-H torsion
[ 10718 10713 10712 10709 ] final  111.25 input   66.30 | X-H torsion
[ 10763 10752 10751 10750 ] final  -25.27 input  -60.55 | X-H torsion
[ 11005 11000 10999 10996 ] final  137.23 input  -57.11 | X-H torsion

> <Gold.Protein.ActiveResidues>
 VAL166  LYS551  ARG553  GLY616  TRP617  ASP618  TYR619  PRO620  LYS621  CYS622 
 ASP623  PHE694  ASN695  SER759  ASP760  ASP761  ALA762  ILE779  LEU786  VAL792 
 PHE793  MET794  SER795  GLU796  ALA797  LYS798  CYS799  TRP800  GLU811  SER814 

> <Gold.Protein.RotatedAtoms>
  150.8363  133.8008  159.3078 H   0  0  0  0  0  0  0  0  0  0  0  0  # atno 6907 bound_to 6896
  151.5723  135.1060  160.0007 H   0  0  0  0  0  0  0  0  0  0  0  0  # atno 6908 bound_to 6896
  152.4435  133.7450  159.6718 H   0  0  0  0  0  0  0  0  0  0  0  0  # atno 6909 bound_to 6896
  144.8925  139.5538  143.5792 H   0  0  0  0  0  0  0  0  0  0  0  0  # atno 7974 bound_to 7965
  155.6981  140.3495  155.4921 H   0  0  0  0  0  0  0  0  0  0  0  0  # atno 8008 bound_to 7997
  155.9465  140.1111  157.1035 H   0  0  0  0  0  0  0  0  0  0  0  0  # atno 8009 bound_to 7997
  154.4113  140.1202  156.4982 H   0  0  0  0  0  0  0  0  0  0  0  0  # atno 8010 bound_to 7997
  139.6662  143.9826  152.2256 H   0  0  0  0  0  0  0  0  0  0  0  0  # atno 10167 bound_to 10162
  157.6454  131.0947  150.6721 H   0  0  0  0  0  0  0  0  0  0  0  0  # atno 10718 bound_to 10713
  153.6972  135.6958  153.5073 H   0  0  0  0  0  0  0  0  0  0  0  0  # atno 10763 bound_to 10752
  153.2369  135.4319  155.0655 H   0  0  0  0  0  0  0  0  0  0  0  0  # atno 10764 bound_to 10752
  154.8355  135.3498  154.6512 H   0  0  0  0  0  0  0  0  0  0  0  0  # atno 10765 bound_to 10752
  140.0100  134.9443  157.0256 H   0  0  0  0  0  0  0  0  0  0  0  0  # atno 11005 bound_to 11000
  146.3062  139.7588  142.9054 LP  0  0  0  0  0  0  0  0  0  0  0  0  # atno 17320 bound_to 7965
  145.3758  141.0350  143.3205 LP  0  0  0  0  0  0  0  0  0  0  0  0  # atno 17321 bound_to 7965
  139.9578  144.6578  150.8109 LP  0  0  0  0  0  0  0  0  0  0  0  0  # atno 17342 bound_to 10162
  140.7600  143.3141  151.2774 LP  0  0  0  0  0  0  0  0  0  0  0  0  # atno 17343 bound_to 10162
  156.7039  130.4631  149.5565 LP  0  0  0  0  0  0  0  0  0  0  0  0  # atno 17370 bound_to 10713
  156.1776  130.6478  151.0913 LP  0  0  0  0  0  0  0  0  0  0  0  0  # atno 17371 bound_to 10713
  140.4572  134.1521  155.7187 LP  0  0  0  0  0  0  0  0  0  0  0  0  # atno 17394 bound_to 11000
  141.1704  133.8620  157.1588 LP  0  0  0  0  0  0  0  0  0  0  0  0  # atno 17395 bound_to 11000

$$$$
