AV-unprocessed.smi:811|AV-procd|sdf|3812|dock3
  -GOLD-   22720 1253D 1   1.00000     0.00000
 Structure written by MMmdl.
 46 48  0  0  0  0  0  0  0  0  2 V2000
  147.3880  130.3691  153.4805 C   0  0  0  0  0  0  0  0  0  0  0  0
  148.5733  131.2044  153.1897 N   0  3  2  0  0  0  0  0  0  0  0  0
  149.6582  131.0774  154.1953 C   0  0  0  0  0  0  0  0  0  0  0  0
  150.1105  132.5015  154.5358 C   0  0  0  0  0  0  0  0  0  0  0  0
  148.8478  133.3195  154.2818 C   0  0  1  0  0  0  0  0  0  0  0  0
  149.0798  134.7450  154.0752 N   0  0  0  0  0  0  0  0  0  0  0  0
  149.5980  135.5712  154.9946 C   0  0  0  0  0  0  0  0  0  0  0  0
  149.9364  135.2029  156.1190 O   0  0  0  0  0  0  0  0  0  0  0  0
  149.7128  136.8225  154.5177 N   0  0  0  0  0  0  0  0  0  0  0  0
  150.1855  137.9830  155.1886 C   0  0  0  0  0  0  0  0  0  0  0  0
  150.4740  137.8834  156.5632 C   0  0  0  0  0  0  0  0  0  0  0  0
  150.9628  139.0114  157.2486 C   0  0  0  0  0  0  0  0  0  0  0  0
  151.1610  140.2187  156.5378 C   0  0  0  0  0  0  0  0  0  0  0  0
  151.6499  141.3639  157.2034 N   0  0  0  0  0  0  0  0  0  0  0  0
  152.1228  141.1514  158.5694 C   0  0  0  0  0  0  0  0  0  0  0  0
  152.9078  142.3800  159.0613 C   0  0  0  0  0  0  0  0  0  0  0  0
  152.1080  143.5502  158.9280 O   0  0  0  0  0  0  0  0  0  0  0  0
  151.7537  143.7976  157.5715 C   0  0  0  0  0  0  0  0  0  0  0  0
  150.9238  142.6210  157.0307 C   0  0  0  0  0  0  0  0  0  0  0  0
  150.9028  140.3079  155.2101 N   0  0  0  0  0  0  0  0  0  0  0  0
  150.4311  139.2252  154.5568 C   0  0  0  0  0  0  0  0  0  0  0  0
  148.2707  132.6454  153.0375 C   0  0  0  0  0  0  0  0  0  0  0  0
  146.9104  130.6763  154.4121 H   0  0  0  0  0  0  0  0  0  0  0  0
  147.6726  129.3200  153.5690 H   0  0  0  0  0  0  0  0  0  0  0  0
  146.6561  130.4508  152.6765 H   0  0  0  0  0  0  0  0  0  0  0  0
  149.2824  130.5931  155.0985 H   0  0  0  0  0  0  0  0  0  0  0  0
  150.4779  130.4681  153.8138 H   0  0  0  0  0  0  0  0  0  0  0  0
  150.4809  132.5937  155.5575 H   0  0  0  0  0  0  0  0  0  0  0  0
  150.9071  132.8120  153.8575 H   0  0  0  0  0  0  0  0  0  0  0  0
  148.1521  133.1779  155.1118 H   0  0  0  0  0  0  0  0  0  0  0  0
  148.8314  135.1275  153.1743 H   0  0  0  0  0  0  0  0  0  0  0  0
  149.4764  136.9530  153.5449 H   0  0  0  0  0  0  0  0  0  0  0  0
  150.3236  136.9534  157.0918 H   0  0  0  0  0  0  0  0  0  0  0  0
  151.1937  138.9328  158.3003 H   0  0  0  0  0  0  0  0  0  0  0  0
  151.2616  140.9764  159.2157 H   0  0  0  0  0  0  0  0  0  0  0  0
  152.7591  140.2710  158.6452 H   0  0  0  0  0  0  0  0  0  0  0  0
  153.1814  142.2552  160.1091 H   0  0  0  0  0  0  0  0  0  0  0  0
  153.8371  142.4964  158.5015 H   0  0  0  0  0  0  0  0  0  0  0  0
  151.1762  144.7204  157.5171 H   0  0  0  0  0  0  0  0  0  0  0  0
  152.6524  143.9485  156.9709 H   0  0  0  0  0  0  0  0  0  0  0  0
  150.7041  142.7898  155.9756 H   0  0  0  0  0  0  0  0  0  0  0  0
  149.9707  142.5632  157.5580 H   0  0  0  0  0  0  0  0  0  0  0  0
  150.2741  139.3714  153.4997 H   0  0  0  0  0  0  0  0  0  0  0  0
  148.7801  133.0014  152.1406 H   0  0  0  0  0  0  0  0  0  0  0  0
  147.2057  132.8474  152.9120 H   0  0  0  0  0  0  0  0  0  0  0  0
  148.9422  130.8896  152.3035 H   0  0  0  0  0  0  0  0  0  0  0  0
  1  2  1  0  0  0  0
  1 23  1  0  0  0  0
  1 24  1  0  0  0  0
  1 25  1  0  0  0  0
  2 22  1  0  0  0  0
  2  3  1  0  0  0  0
  2 46  1  0  0  0  0
  3  4  1  0  0  0  0
  3 26  1  0  0  0  0
  3 27  1  0  0  0  0
  4  5  1  0  0  0  0
  4 28  1  0  0  0  0
  4 29  1  0  0  0  0
  5  6  1  0  0  0  0
  5 22  1  0  0  0  0
  5 30  1  0  0  0  0
  6  7  1  0  0  0  0
  6 31  1  0  0  0  0
  7  8  2  0  0  0  0
  7  9  1  0  0  0  0
  9 10  1  0  0  0  0
  9 32  1  0  0  0  0
 10 21  1  0  0  0  0
 10 11  2  0  0  0  0
 11 12  1  0  0  0  0
 11 33  1  0  0  0  0
 12 13  2  0  0  0  0
 12 34  1  0  0  0  0
 13 14  1  0  0  0  0
 13 20  1  0  0  0  0
 14 19  1  0  0  0  0
 14 15  1  0  0  0  0
 15 16  1  0  0  0  0
 15 35  1  0  0  0  0
 15 36  1  0  0  0  0
 16 17  1  0  0  0  0
 16 37  1  0  0  0  0
 16 38  1  0  0  0  0
 17 18  1  0  0  0  0
 18 19  1  0  0  0  0
 18 39  1  0  0  0  0
 18 40  1  0  0  0  0
 19 41  1  0  0  0  0
 19 42  1  0  0  0  0
 20 21  2  0  0  0  0
 21 43  1  0  0  0  0
 22 44  1  0  0  0  0
 22 45  1  0  0  0  0
M  CHG  1   2   1
M  END
> <s_m_source_file>
AV-unprocessed.smi

> <i_m_source_file_index>
811

> <i_lp_mmshare_version>
43012

> <i_f3d_flags>
0

> <s_epik_input>
W0NIM11OMVtDSDJdW0NIMl1bQ0BIXShbQ0gyXTEpW05IXUMoPU8pW05IXWMyW2NIXVtjSF1jKG5bY0hdMilOM1tDSDJdW0NIMl1PW0NIMl1bQ0gyXTM=

> <s_epik_cmdline>
J2VwaWtfcHl0aG9uJywgJy1waCcsICc3LjAnLCAnLXRuJywgJzgnLCAnLW1hJywgJzIwMCcsICctbWV0YWxfYmluZGluZycsICctaW1hZScsICc8aW5maWxlLm1hZT4nLCAnLW9tYWUnLCAnPG91dGZpbGUubWFlPic=

> <r_lp_tautomer_probability>
1

> <r_epik_Ionization_Penalty>
0.00503422

> <r_epik_Ionization_Penalty_Charging>
0.00366104

> <r_epik_Ionization_Penalty_Neutral>
0.00137318

> <r_epik_State_Penalty>
-0

> <r_epik_Charging_Adjusted_Penalty>
0.00366104

> <i_epik_Tot_Q>
1

> <i_epik_Tot_abs_Q>
1

> <r_epik_Metal_State_Penalty>
-0

> <b_epik_Metal_Only>
0

> <s_lp_Force_Field>
OPLS_2005

> <r_lp_Energy>
43.7099

> <b_lp_Chiralities_Consistent>
1

> <s_lp_Variant>
AV-unprocessed.smi:811-2

> <Gold.Version>
5.8.1

> <Gold.Id.Protein>
6NUR|6NUR_protein|mol2

> <Gold.PLP.Fitness>
49.3868

> <Gold.PLP.PLP>
-36.5098

> <Gold.PLP.part.hbond>
-4.0000

> <Gold.PLP.part.metal>
0.0000

> <Gold.PLP.part.buried>
-4.6047

> <Gold.PLP.part.nonpolar>
-28.1868

> <Gold.PLP.part.repulsive>
0.1279

> <Gold.PLP.ligand.clash>
0.0000

> <Gold.PLP.ligand.torsion>
0.1894

> <Gold.PLP.Chemscore.Hbond>
3.3500

> <Gold.PLP.Chemscore.CHOScore>
0.9506

> <Gold.PLP.Chemscore.Metal>
0.0000

> <Gold.Chemscore.Hbonds>
donor molecule, donor type, donor heavy atom, donor atom, acceptor molecule, acceptor atom, score
      L1  H     2    46       P1 10747  1.00
      L1  H     6    31       P1  7948  1.00
      L1  H     9    32       P1  7948  1.00
      P1  H  7989  7998       L1    20  0.35
      L1  C    21    43       P1  7957  1.00

> <Gold.PLP.Chemscore.Internal.Correction>
0.3538

> <Gold.Rescore>
     Score         DG    S(hbond)    S(metal)    S(lipo)     H(rot)  DE(clash)    DE(int)     intcor
     19.56     -21.31       2.68        0.00      85.70       1.23       0.09       1.65       ----

> <Gold.Chemscore.Fitness>
19.5618

> <Gold.Chemscore.DG>
-21.3102

> <Gold.Chemscore.ZeroCoef>
-5.4800

> <Gold.Chemscore.Hbond>
2.6799

> <Gold.Chemscore.Metal>
0.0000

> <Gold.Chemscore.Lipo>
85.6998

> <Gold.Chemscore.Internal_Hbond>
0.0000

> <Gold.Chemscore.DEClash>
0.0942

> <Gold.Chemscore.DEInternal>
1.6543

> <Gold.Chemscore.Rot>
1.2295

> <Gold.Chemscore.Internal.Correction>
   9.000000E+99

> <Gold.Chemscore.Hbonds>
donor molecule, donor type, donor heavy atom, donor atom, acceptor molecule, acceptor atom, score
      L1  H     2    46       P1 10747  0.47
      L1  H     6    31       P1  7948  0.44
      L1  H     9    32       P1  7948  0.83
      P1  H  7989  7998       L1    20  0.01

> <Gold.Chemscore.Hbond.Weighted>
-8.9508

> <Gold.Chemscore.Metal.Weighted>
-0.0000

> <Gold.Chemscore.Lipo.Weighted>
-10.0269

> <Gold.Chemscore.Internal_Hbond.Weighted>
0.0000

> <Gold.Chemscore.DEClash.Weighted>
0.0942

> <Gold.Chemscore.DEInternal.Weighted>
1.6543

> <Gold.Chemscore.Rot.Weighted>
3.1474

> <Gold.Chemscore.Internal.Correction.Weighted>
   9.000000E+99

> <Gold.Protein.RotatedTorsions>
[ 6907 6896 6895 6894 ] final   95.11 input  -60.11 | X-H torsion
[ 7974 7965 7964 7962 ] final    9.37 input  175.53 | X-H torsion
[ 8008 7997 7996 7995 ] final -107.79 input   59.86 | X-H torsion
[ 10167 10162 10161 10158 ] final  -13.55 input  -65.29 | X-H torsion
[ 10718 10713 10712 10709 ] final -146.71 input   66.30 | X-H torsion
[ 10763 10752 10751 10750 ] final   94.23 input  -60.55 | X-H torsion
[ 11005 11000 10999 10996 ] final   89.41 input  -57.11 | X-H torsion

> <Gold.Protein.ActiveResidues>
 VAL166  LYS551  ARG553  GLY616  TRP617  ASP618  TYR619  PRO620  LYS621  CYS622 
 ASP623  PHE694  ASN695  SER759  ASP760  ASP761  ALA762  ILE779  LEU786  VAL792 
 PHE793  MET794  SER795  GLU796  ALA797  LYS798  CYS799  TRP800  GLU811  SER814 

> <Gold.Protein.RotatedAtoms>
  152.5446  134.1091  159.8350 H   0  0  0  0  0  0  0  0  0  0  0  0  # atno 6907 bound_to 6896
  151.1159  133.5131  159.2611 H   0  0  0  0  0  0  0  0  0  0  0  0  # atno 6908 bound_to 6896
  151.1832  135.0379  159.8856 H   0  0  0  0  0  0  0  0  0  0  0  0  # atno 6909 bound_to 6896
  146.2404  139.9793  142.8438 H   0  0  0  0  0  0  0  0  0  0  0  0  # atno 7974 bound_to 7965
  154.9346  140.0404  157.2065 H   0  0  0  0  0  0  0  0  0  0  0  0  # atno 8008 bound_to 7997
  154.8128  140.2870  155.5819 H   0  0  0  0  0  0  0  0  0  0  0  0  # atno 8009 bound_to 7997
  156.2973  140.2533  156.3020 H   0  0  0  0  0  0  0  0  0  0  0  0  # atno 8010 bound_to 7997
  140.7184  143.5414  150.9405 H   0  0  0  0  0  0  0  0  0  0  0  0  # atno 10167 bound_to 10162
  156.3984  130.7921  151.2129 H   0  0  0  0  0  0  0  0  0  0  0  0  # atno 10718 bound_to 10713
  153.2392  135.4297  155.0680 H   0  0  0  0  0  0  0  0  0  0  0  0  # atno 10763 bound_to 10752
  154.8333  135.3398  154.6673 H   0  0  0  0  0  0  0  0  0  0  0  0  # atno 10764 bound_to 10752
  153.7098  135.7023  153.5097 H   0  0  0  0  0  0  0  0  0  0  0  0  # atno 10765 bound_to 10752
  139.8876  134.8550  156.3139 H   0  0  0  0  0  0  0  0  0  0  0  0  # atno 11005 bound_to 11000
  145.1607  140.9671  143.4379 LP  0  0  0  0  0  0  0  0  0  0  0  0  # atno 17320 bound_to 7965
  145.0119  139.3502  143.6116 LP  0  0  0  0  0  0  0  0  0  0  0  0  # atno 17321 bound_to 7965
  139.9137  143.6689  152.3110 LP  0  0  0  0  0  0  0  0  0  0  0  0  # atno 17342 bound_to 10162
  139.7082  144.7624  151.1158 LP  0  0  0  0  0  0  0  0  0  0  0  0  # atno 17343 bound_to 10162
  157.7503  131.0294  150.4092 LP  0  0  0  0  0  0  0  0  0  0  0  0  # atno 17370 bound_to 10713
  156.4367  130.3983  149.6724 LP  0  0  0  0  0  0  0  0  0  0  0  0  # atno 17371 bound_to 10713
  140.9832  133.7254  156.0703 LP  0  0  0  0  0  0  0  0  0  0  0  0  # atno 17394 bound_to 11000
  140.7722  134.3820  157.5505 LP  0  0  0  0  0  0  0  0  0  0  0  0  # atno 17395 bound_to 11000

$$$$
