AV-unprocessed.smi:774|AV-procd|sdf|3694|dock6
  -GOLD-   22720 1113D 1   1.00000     0.00000
 Structure written by MMmdl.
 37 38  0  0  0  0  0  0  0  0  1 V2000
  146.1010  129.1491  152.1105 C   0  0  0  0  0  0  0  0  0  0  0  0
  146.2468  130.6543  151.8725 C   0  0  0  0  0  0  0  0  0  0  0  0
  144.7669  131.3486  151.0859 S   0  0  0  0  0  0  0  0  0  0  0  0
  145.2162  133.1079  151.0308 C   0  0  1  0  0  0  0  0  0  0  0  0
  144.2489  133.9507  150.2012 C   0  0  0  0  0  0  0  0  0  0  0  0
  144.4778  135.3818  150.6892 C   0  0  0  0  0  0  0  0  0  0  0  0
  144.9151  135.2647  152.1614 C   0  0  2  0  0  0  0  0  0  0  0  0
  146.1101  136.0664  152.4144 N   0  0  0  0  0  0  0  0  0  0  0  0
  146.1254  137.2509  153.0417 C   0  0  0  0  0  0  0  0  0  0  0  0
  145.1170  137.7966  153.4899 O   0  0  0  0  0  0  0  0  0  0  0  0
  147.3747  137.7380  153.1319 N   0  0  0  0  0  0  0  0  0  0  0  0
  147.7943  138.9822  153.6739 C   0  0  0  0  0  0  0  0  0  0  0  0
  149.0955  139.2283  154.1744 C   0  0  0  0  0  0  0  0  0  0  0  0
  149.3882  140.4965  154.7115 C   0  0  0  0  0  0  0  0  0  0  0  0
  148.3693  141.4686  154.7343 C   0  0  0  0  0  0  0  0  0  0  0  0
  147.1209  141.2434  154.2734 N   0  0  0  0  0  0  0  0  0  0  0  0
  146.8471  140.0243  153.7615 C   0  0  0  0  0  0  0  0  0  0  0  0
  145.1797  133.7671  152.4124 C   0  0  0  0  0  0  0  0  0  0  0  0
  146.9961  128.7423  152.5814 H   0  0  0  0  0  0  0  0  0  0  0  0
  145.9473  128.6165  151.1720 H   0  0  0  0  0  0  0  0  0  0  0  0
  145.2541  128.9333  152.7624 H   0  0  0  0  0  0  0  0  0  0  0  0
  146.4205  131.1674  152.8187 H   0  0  0  0  0  0  0  0  0  0  0  0
  147.1122  130.8443  151.2380 H   0  0  0  0  0  0  0  0  0  0  0  0
  146.2228  133.2043  150.6214 H   0  0  0  0  0  0  0  0  0  0  0  0
  144.4123  133.8498  149.1280 H   0  0  0  0  0  0  0  0  0  0  0  0
  143.2206  133.6532  150.4114 H   0  0  0  0  0  0  0  0  0  0  0  0
  145.2647  135.8401  150.0879 H   0  0  0  0  0  0  0  0  0  0  0  0
  143.5856  135.9979  150.5729 H   0  0  0  0  0  0  0  0  0  0  0  0
  144.0996  135.6000  152.8050 H   0  0  0  0  0  0  0  0  0  0  0  0
  146.9873  135.6909  152.0853 H   0  0  0  0  0  0  0  0  0  0  0  0
  148.1158  137.1297  152.8154 H   0  0  0  0  0  0  0  0  0  0  0  0
  149.8630  138.4698  154.1715 H   0  0  0  0  0  0  0  0  0  0  0  0
  150.3707  140.7169  155.1020 H   0  0  0  0  0  0  0  0  0  0  0  0
  148.5603  142.4513  155.1397 H   0  0  0  0  0  0  0  0  0  0  0  0
  145.8374  139.8785  153.4057 H   0  0  0  0  0  0  0  0  0  0  0  0
  144.3529  133.3575  152.9945 H   0  0  0  0  0  0  0  0  0  0  0  0
  146.0916  133.5766  152.9799 H   0  0  0  0  0  0  0  0  0  0  0  0
  1  2  1  0  0  0  0
  1 19  1  0  0  0  0
  1 20  1  0  0  0  0
  1 21  1  0  0  0  0
  2  3  1  0  0  0  0
  2 22  1  0  0  0  0
  2 23  1  0  0  0  0
  3  4  1  0  0  0  0
  4 18  1  0  0  0  0
  4  5  1  0  0  0  0
  4 24  1  0  0  0  0
  5  6  1  0  0  0  0
  5 25  1  0  0  0  0
  5 26  1  0  0  0  0
  6  7  1  0  0  0  0
  6 27  1  0  0  0  0
  6 28  1  0  0  0  0
  7  8  1  0  0  0  0
  7 18  1  0  0  0  0
  7 29  1  0  0  0  0
  8  9  1  0  0  0  0
  8 30  1  0  0  0  0
  9 10  2  0  0  0  0
  9 11  1  0  0  0  0
 11 12  1  0  0  0  0
 11 31  1  0  0  0  0
 12 17  1  0  0  0  0
 12 13  2  0  0  0  0
 13 14  1  0  0  0  0
 13 32  1  0  0  0  0
 14 15  2  0  0  0  0
 14 33  1  0  0  0  0
 15 16  1  0  0  0  0
 15 34  1  0  0  0  0
 16 17  2  0  0  0  0
 17 35  1  0  0  0  0
 18 36  1  0  0  0  0
 18 37  1  0  0  0  0
M  END
> <s_m_source_file>
AV-unprocessed.smi

> <i_m_source_file_index>
774

> <i_lp_mmshare_version>
43012

> <i_f3d_flags>
0

> <s_epik_input>
W0NIM11bQ0gyXVNbQ0BASF0xW0NIMl1bQ0gyXVtDQEhdKFtDSDJdMSlbTkhdQyg9TylbTkhdYzJbY0hdW2NIXVtjSF1uW2NIXTI=

> <s_epik_cmdline>
J2VwaWtfcHl0aG9uJywgJy1waCcsICc3LjAnLCAnLXRuJywgJzgnLCAnLW1hJywgJzIwMCcsICctbWV0YWxfYmluZGluZycsICctaW1hZScsICc8aW5maWxlLm1hZT4nLCAnLW9tYWUnLCAnPG91dGZpbGUubWFlPic=

> <r_epik_Ionization_Penalty>
0.00485718

> <r_epik_Ionization_Penalty_Charging>
0

> <r_epik_Ionization_Penalty_Neutral>
0.00485718

> <r_epik_State_Penalty>
0.00349461

> <r_epik_Charging_Adjusted_Penalty>
0.00349461

> <i_epik_Tot_Q>
0

> <i_epik_Tot_abs_Q>
0

> <r_epik_Metal_State_Penalty>
-0

> <b_epik_Metal_Only>
0

> <s_lp_Force_Field>
OPLS_2005

> <r_lp_Energy>
19.7013

> <b_lp_Chiralities_Consistent>
1

> <s_lp_Variant>
AV-unprocessed.smi:774-4

> <Gold.Version>
5.8.1

> <Gold.Id.Protein>
6NUR|6NUR_protein|mol2

> <Gold.PLP.Fitness>
43.0750

> <Gold.PLP.PLP>
-32.4394

> <Gold.PLP.part.hbond>
-1.8543

> <Gold.PLP.part.metal>
0.0000

> <Gold.PLP.part.buried>
-2.6938

> <Gold.PLP.part.nonpolar>
-28.6347

> <Gold.PLP.part.repulsive>
0.9421

> <Gold.PLP.ligand.clash>
0.0000

> <Gold.PLP.ligand.torsion>
0.4129

> <Gold.PLP.Chemscore.Hbond>
1.8160

> <Gold.PLP.Chemscore.CHOScore>
2.0000

> <Gold.PLP.Chemscore.Metal>
0.0000

> <Gold.Chemscore.Hbonds>
donor molecule, donor type, donor heavy atom, donor atom, acceptor molecule, acceptor atom, score
      L1  H     8    30       P1  7948  0.83
      L1  H    11    31       P1  7948  1.00
      L1  C    15    34       P1  8028  1.00
      L1  C    17    35       P1 10175  1.00

> <Gold.PLP.Chemscore.Internal.Correction>
0.0134

> <Gold.Rescore>
     Score         DG    S(hbond)    S(metal)    S(lipo)     H(rot)  DE(clash)    DE(int)     intcor
     16.66     -18.34       1.94        0.00      83.07       1.30       0.11       1.56       ----

> <Gold.Chemscore.Fitness>
16.6599

> <Gold.Chemscore.DG>
-18.3386

> <Gold.Chemscore.ZeroCoef>
-5.4800

> <Gold.Chemscore.Hbond>
1.9394

> <Gold.Chemscore.Metal>
0.0000

> <Gold.Chemscore.Lipo>
83.0710

> <Gold.Chemscore.Internal_Hbond>
0.0000

> <Gold.Chemscore.DEClash>
0.1143

> <Gold.Chemscore.DEInternal>
1.5644

> <Gold.Chemscore.Rot>
1.3041

> <Gold.Chemscore.Internal.Correction>
   9.000000E+99

> <Gold.Chemscore.Hbonds>
donor molecule, donor type, donor heavy atom, donor atom, acceptor molecule, acceptor atom, score
      L1  H     8    30       P1  7948  0.78
      L1  H    11    31       P1  7948  0.95

> <Gold.Chemscore.Hbond.Weighted>
-6.4777

> <Gold.Chemscore.Metal.Weighted>
-0.0000

> <Gold.Chemscore.Lipo.Weighted>
-9.7193

> <Gold.Chemscore.Internal_Hbond.Weighted>
0.0000

> <Gold.Chemscore.DEClash.Weighted>
0.1143

> <Gold.Chemscore.DEInternal.Weighted>
1.5644

> <Gold.Chemscore.Rot.Weighted>
3.3384

> <Gold.Chemscore.Internal.Correction.Weighted>
   9.000000E+99

> <Gold.Protein.RotatedTorsions>
[ 6907 6896 6895 6894 ] final  -92.10 input  -60.11 | X-H torsion
[ 7974 7965 7964 7962 ] final  135.71 input  175.53 | X-H torsion
[ 8008 7997 7996 7995 ] final  120.62 input   59.86 | X-H torsion
[ 10167 10162 10161 10158 ] final  -53.02 input  -65.29 | X-H torsion
[ 10718 10713 10712 10709 ] final  116.60 input   66.30 | X-H torsion
[ 10763 10752 10751 10750 ] final  -47.35 input  -60.55 | X-H torsion
[ 11005 11000 10999 10996 ] final -128.39 input  -57.11 | X-H torsion

> <Gold.Protein.ActiveResidues>
 VAL166  LYS551  ARG553  GLY616  TRP617  ASP618  TYR619  PRO620  LYS621  CYS622 
 ASP623  PHE694  ASN695  SER759  ASP760  ASP761  ALA762  ILE779  LEU786  VAL792 
 PHE793  MET794  SER795  GLU796  ALA797  LYS798  CYS799  TRP800  GLU811  SER814 

> <Gold.Protein.RotatedAtoms>
  150.6901  134.2174  159.4382 H   0  0  0  0  0  0  0  0  0  0  0  0  # atno 6907 bound_to 6896
  152.0132  134.9862  160.0578 H   0  0  0  0  0  0  0  0  0  0  0  0  # atno 6908 bound_to 6896
  152.1468  133.4462  159.4831 H   0  0  0  0  0  0  0  0  0  0  0  0  # atno 6909 bound_to 6896
  144.9637  139.4682  143.5467 H   0  0  0  0  0  0  0  0  0  0  0  0  # atno 7974 bound_to 7965
  156.2650  140.2827  156.1178 H   0  0  0  0  0  0  0  0  0  0  0  0  # atno 8008 bound_to 7997
  155.1188  140.0392  157.2762 H   0  0  0  0  0  0  0  0  0  0  0  0  # atno 8009 bound_to 7997
  154.6686  140.2583  155.7037 H   0  0  0  0  0  0  0  0  0  0  0  0  # atno 8010 bound_to 7997
  140.6507  143.2564  151.4732 H   0  0  0  0  0  0  0  0  0  0  0  0  # atno 10167 bound_to 10162
  157.6150  131.1027  150.7496 H   0  0  0  0  0  0  0  0  0  0  0  0  # atno 10718 bound_to 10713
  154.0600  135.6619  153.4810 H   0  0  0  0  0  0  0  0  0  0  0  0  # atno 10763 bound_to 10752
  153.0430  135.5132  154.7668 H   0  0  0  0  0  0  0  0  0  0  0  0  # atno 10764 bound_to 10752
  154.6701  135.3028  154.9720 H   0  0  0  0  0  0  0  0  0  0  0  0  # atno 10765 bound_to 10752
  140.9520  134.1052  157.4052 H   0  0  0  0  0  0  0  0  0  0  0  0  # atno 11005 bound_to 11000
  146.3361  139.8803  142.8825 LP  0  0  0  0  0  0  0  0  0  0  0  0  # atno 17320 bound_to 7965
  145.2662  141.0093  143.3798 LP  0  0  0  0  0  0  0  0  0  0  0  0  # atno 17321 bound_to 7965
  139.5721  144.1903  152.1852 LP  0  0  0  0  0  0  0  0  0  0  0  0  # atno 17342 bound_to 10162
  140.1203  144.5379  150.6867 LP  0  0  0  0  0  0  0  0  0  0  0  0  # atno 17343 bound_to 10162
  156.7866  130.4876  149.5392 LP  0  0  0  0  0  0  0  0  0  0  0  0  # atno 17370 bound_to 10713
  156.1268  130.6149  151.0275 LP  0  0  0  0  0  0  0  0  0  0  0  0  # atno 17371 bound_to 10713
  139.8850  135.0068  156.6409 LP  0  0  0  0  0  0  0  0  0  0  0  0  # atno 17394 bound_to 11000
  140.7589  133.8834  155.8403 LP  0  0  0  0  0  0  0  0  0  0  0  0  # atno 17395 bound_to 11000

$$$$
