AV-unprocessed.smi:1268|AV-procd|sdf|5323|dock10
  -GOLD-   22720 4453D 1   1.00000     0.00000
 Structure written by MMmdl.
 40 41  0  0  0  0  0  0  0  0  2 V2000
  151.2738  140.7430  155.5262 O   0  0  0  0  0  0  0  0  0  0  0  0
  150.1885  140.9170  156.0809 C   0  0  0  0  0  0  0  0  0  0  0  0
  149.0278  140.4625  155.5874 N   0  0  0  0  0  0  0  0  0  0  0  0
  148.8779  139.7352  154.3311 C   0  0  0  0  0  0  0  0  0  0  0  0
  147.4689  139.9038  153.7238 C   0  0  2  0  0  0  0  0  0  0  0  0
  147.4979  139.4339  152.3901 O   0  0  0  0  0  0  0  0  0  0  0  0
  147.0512  141.3882  153.6689 C   0  0  0  0  0  0  0  0  0  0  0  0
  145.7491  141.6457  154.3374 N   0  3  0  0  0  0  0  0  0  0  0  0
  145.4329  143.0963  154.4097 C   0  0  0  0  0  0  0  0  0  0  0  0
  144.0231  143.3339  154.9766 C   0  0  0  0  0  0  0  0  0  0  0  0
  143.8659  142.6742  156.3523 C   0  0  0  0  0  0  0  0  0  0  0  0
  144.2221  141.1852  156.2593 C   0  0  0  0  0  0  0  0  0  0  0  0
  145.6286  140.9910  155.6680 C   0  0  0  0  0  0  0  0  0  0  0  0
  150.0027  141.5742  157.2389 N   0  0  0  0  0  0  0  0  0  0  0  0
  150.9780  142.2036  158.0564 C   0  0  0  0  0  0  0  0  0  0  0  0
  151.6974  141.5746  158.9931 N   0  0  0  0  0  0  0  0  0  0  0  0
  152.5834  142.4386  159.6417 C   0  0  0  0  0  0  0  0  0  0  0  0
  152.5225  143.7316  159.1851 C   0  0  0  0  0  0  0  0  0  0  0  0
  151.3436  143.9166  157.9140 S   0  0  0  0  0  0  0  0  0  0  0  0
  148.1836  140.6512  156.1079 H   0  0  0  0  0  0  0  0  0  0  0  0
  149.6189  140.1620  153.6545 H   0  0  0  0  0  0  0  0  0  0  0  0
  149.1476  138.6832  154.4444 H   0  0  0  0  0  0  0  0  0  0  0  0
  146.7489  139.3228  154.2998 H   0  0  0  0  0  0  0  0  0  0  0  0
  148.2640  139.7890  151.9627 H   0  0  0  0  0  0  0  0  0  0  0  0
  147.8159  142.0206  154.1227 H   0  0  0  0  0  0  0  0  0  0  0  0
  146.9938  141.6900  152.6215 H   0  0  0  0  0  0  0  0  0  0  0  0
  146.1776  143.6017  155.0266 H   0  0  0  0  0  0  0  0  0  0  0  0
  145.4934  143.5369  153.4136 H   0  0  0  0  0  0  0  0  0  0  0  0
  143.8267  144.4036  155.0521 H   0  0  0  0  0  0  0  0  0  0  0  0
  143.2785  142.9305  154.2889 H   0  0  0  0  0  0  0  0  0  0  0  0
  144.5184  143.1658  157.0751 H   0  0  0  0  0  0  0  0  0  0  0  0
  142.8457  142.7974  156.7167 H   0  0  0  0  0  0  0  0  0  0  0  0
  144.1658  140.7270  157.2471 H   0  0  0  0  0  0  0  0  0  0  0  0
  143.4884  140.6705  155.6371 H   0  0  0  0  0  0  0  0  0  0  0  0
  145.8302  139.9237  155.5874 H   0  0  0  0  0  0  0  0  0  0  0  0
  146.3782  141.4023  156.3461 H   0  0  0  0  0  0  0  0  0  0  0  0
  149.0518  141.6426  157.5702 H   0  0  0  0  0  0  0  0  0  0  0  0
  153.2233  142.0477  160.4191 H   0  0  0  0  0  0  0  0  0  0  0  0
  153.0978  144.5826  159.5178 H   0  0  0  0  0  0  0  0  0  0  0  0
  145.0448  141.2353  153.7401 H   0  0  0  0  0  0  0  0  0  0  0  0
  1  2  2  0  0  0  0
  2  3  1  0  0  0  0
  2 14  1  0  0  0  0
  3  4  1  0  0  0  0
  3 20  1  0  0  0  0
  4  5  1  0  0  0  0
  4 21  1  0  0  0  0
  4 22  1  0  0  0  0
  5  6  1  0  0  0  0
  5  7  1  0  0  0  0
  5 23  1  0  0  0  0
  6 24  1  0  0  0  0
  7  8  1  0  0  0  0
  7 25  1  0  0  0  0
  7 26  1  0  0  0  0
  8 13  1  0  0  0  0
  8  9  1  0  0  0  0
  8 40  1  0  0  0  0
  9 10  1  0  0  0  0
  9 27  1  0  0  0  0
  9 28  1  0  0  0  0
 10 11  1  0  0  0  0
 10 29  1  0  0  0  0
 10 30  1  0  0  0  0
 11 12  1  0  0  0  0
 11 31  1  0  0  0  0
 11 32  1  0  0  0  0
 12 13  1  0  0  0  0
 12 33  1  0  0  0  0
 12 34  1  0  0  0  0
 13 35  1  0  0  0  0
 13 36  1  0  0  0  0
 14 15  1  0  0  0  0
 14 37  1  0  0  0  0
 15 19  1  0  0  0  0
 15 16  2  0  0  0  0
 16 17  1  0  0  0  0
 17 18  2  0  0  0  0
 17 38  1  0  0  0  0
 18 19  1  0  0  0  0
 18 39  1  0  0  0  0
M  CHG  1   8   1
M  END
> <s_m_source_file>
AV-unprocessed.smi

> <i_m_source_file_index>
1268

> <i_lp_mmshare_version>
43012

> <i_f3d_flags>
0

> <s_epik_input>
czFbY0hdW2NIXW5jMVtOSF1DKD1PKVtOSF1bQ0gyXVtDQEhdKFtPSF0pW0NIMl1OMltDSDJdW0NIMl1bQ0gyXVtDSDJdW0NIMl0y

> <s_epik_cmdline>
J2VwaWtfcHl0aG9uJywgJy1waCcsICc3LjAnLCAnLXRuJywgJzgnLCAnLW1hJywgJzIwMCcsICctbWV0YWxfYmluZGluZycsICctaW1hZScsICc8aW5maWxlLm1hZT4nLCAnLW9tYWUnLCAnPG91dGZpbGUubWFlPic=

> <r_lp_tautomer_probability>
0.999

> <r_epik_Ionization_Penalty>
0.00539631

> <r_epik_Ionization_Penalty_Charging>
0.00525788

> <r_epik_Ionization_Penalty_Neutral>
0.000138432

> <r_epik_State_Penalty>
0.0038355

> <r_epik_Charging_Adjusted_Penalty>
0.00909338

> <i_epik_Tot_Q>
1

> <i_epik_Tot_abs_Q>
1

> <r_epik_Metal_State_Penalty>
0.0500806

> <b_epik_Metal_Only>
0

> <s_lp_Force_Field>
OPLS_2005

> <r_lp_Energy>
16.7111

> <b_lp_Chiralities_Consistent>
1

> <s_lp_Variant>
AV-unprocessed.smi:1268-1

> <Gold.Version>
5.8.1

> <Gold.Id.Protein>
6NUR|6NUR_protein|mol2

> <Gold.PLP.Fitness>
43.0109

> <Gold.PLP.PLP>
-35.2654

> <Gold.PLP.part.hbond>
-2.9689

> <Gold.PLP.part.metal>
0.0000

> <Gold.PLP.part.buried>
-5.1201

> <Gold.PLP.part.nonpolar>
-29.0424

> <Gold.PLP.part.repulsive>
0.1425

> <Gold.PLP.ligand.clash>
0.0000

> <Gold.PLP.ligand.torsion>
1.7904

> <Gold.PLP.Chemscore.Hbond>
3.7680

> <Gold.PLP.Chemscore.CHOScore>
0.0000

> <Gold.PLP.Chemscore.Metal>
0.0000

> <Gold.Chemscore.Hbonds>
donor molecule, donor type, donor heavy atom, donor atom, acceptor molecule, acceptor atom, score
      L1  H     6    24       P1  7957  1.00
      L1  H     8    40       P1 10175  2.00
      P1  H  7989  7998       L1     1  0.72

> <Gold.PLP.Chemscore.Internal.Correction>
0.0222

> <Gold.Rescore>
     Score         DG    S(hbond)    S(metal)    S(lipo)     H(rot)  DE(clash)    DE(int)     intcor
     14.42     -16.23       2.64        0.00      71.99       2.54       0.11       1.70       ----

> <Gold.Chemscore.Fitness>
14.4205

> <Gold.Chemscore.DG>
-16.2288

> <Gold.Chemscore.ZeroCoef>
-5.4800

> <Gold.Chemscore.Hbond>
2.6419

> <Gold.Chemscore.Metal>
0.0000

> <Gold.Chemscore.Lipo>
71.9916

> <Gold.Chemscore.Internal_Hbond>
0.0000

> <Gold.Chemscore.DEClash>
0.1103

> <Gold.Chemscore.DEInternal>
1.6980

> <Gold.Chemscore.Rot>
2.5383

> <Gold.Chemscore.Internal.Correction>
   9.000000E+99

> <Gold.Chemscore.Hbonds>
donor molecule, donor type, donor heavy atom, donor atom, acceptor molecule, acceptor atom, score
      L1  H     6    24       P1  7957  0.97
      L1  H     8    40       P1 10175  0.48
      P1  H  7989  7998       L1     1  0.68

> <Gold.Chemscore.Hbond.Weighted>
-8.8239

> <Gold.Chemscore.Metal.Weighted>
-0.0000

> <Gold.Chemscore.Lipo.Weighted>
-8.4230

> <Gold.Chemscore.Internal_Hbond.Weighted>
0.0000

> <Gold.Chemscore.DEClash.Weighted>
0.1103

> <Gold.Chemscore.DEInternal.Weighted>
1.6980

> <Gold.Chemscore.Rot.Weighted>
6.4981

> <Gold.Chemscore.Internal.Correction.Weighted>
   9.000000E+99

> <Gold.Protein.RotatedTorsions>
[ 6907 6896 6895 6894 ] final   35.96 input  -60.11 | X-H torsion
[ 7974 7965 7964 7962 ] final  165.89 input  175.53 | X-H torsion
[ 8008 7997 7996 7995 ] final   98.04 input   59.86 | X-H torsion
[ 10167 10162 10161 10158 ] final   79.52 input  -65.29 | X-H torsion
[ 10718 10713 10712 10709 ] final   61.34 input   66.30 | X-H torsion
[ 10763 10752 10751 10750 ] final   75.32 input  -60.55 | X-H torsion
[ 11005 11000 10999 10996 ] final  108.78 input  -57.11 | X-H torsion

> <Gold.Protein.ActiveResidues>
 VAL166  LYS551  ARG553  GLY616  TRP617  ASP618  TYR619  PRO620  LYS621  CYS622 
 ASP623  PHE694  ASN695  SER759  ASP760  ASP761  ALA762  ILE779  LEU786  VAL792 
 PHE793  MET794  SER795  GLU796  ALA797  LYS798  CYS799  TRP800  GLU811  SER814 

> <Gold.Protein.RotatedAtoms>
  152.1232  134.9190  160.0561 H   0  0  0  0  0  0  0  0  0  0  0  0  # atno 6907 bound_to 6896
  152.0323  133.3937  159.4310 H   0  0  0  0  0  0  0  0  0  0  0  0  # atno 6908 bound_to 6896
  150.6850  134.3429  159.4919 H   0  0  0  0  0  0  0  0  0  0  0  0  # atno 6909 bound_to 6896
  144.7484  139.8535  143.6374 H   0  0  0  0  0  0  0  0  0  0  0  0  # atno 7974 bound_to 7965
  156.0963  140.3249  155.7882 H   0  0  0  0  0  0  0  0  0  0  0  0  # atno 8008 bound_to 7997
  155.4912  140.0561  157.2970 H   0  0  0  0  0  0  0  0  0  0  0  0  # atno 8009 bound_to 7997
  154.4669  140.1993  156.0111 H   0  0  0  0  0  0  0  0  0  0  0  0  # atno 8010 bound_to 7997
  139.9595  144.5971  150.8085 H   0  0  0  0  0  0  0  0  0  0  0  0  # atno 10167 bound_to 10162
  157.5820  130.8989  149.9448 H   0  0  0  0  0  0  0  0  0  0  0  0  # atno 10718 bound_to 10713
  153.0647  135.4993  154.8173 H   0  0  0  0  0  0  0  0  0  0  0  0  # atno 10763 bound_to 10752
  154.6935  135.2989  154.9447 H   0  0  0  0  0  0  0  0  0  0  0  0  # atno 10764 bound_to 10752
  154.0194  135.6744  153.4824 H   0  0  0  0  0  0  0  0  0  0  0  0  # atno 10765 bound_to 10752
  139.8850  134.9440  156.6025 H   0  0  0  0  0  0  0  0  0  0  0  0  # atno 11005 bound_to 11000
  146.1399  139.4453  143.0115 LP  0  0  0  0  0  0  0  0  0  0  0  0  # atno 17320 bound_to 7965
  145.7034  141.0129  143.1492 LP  0  0  0  0  0  0  0  0  0  0  0  0  # atno 17321 bound_to 7965
  140.7558  143.3053  151.2979 LP  0  0  0  0  0  0  0  0  0  0  0  0  # atno 17342 bound_to 10162
  139.6565  144.0266  152.2663 LP  0  0  0  0  0  0  0  0  0  0  0  0  # atno 17343 bound_to 10162
  156.0867  130.3667  150.0474 LP  0  0  0  0  0  0  0  0  0  0  0  0  # atno 17370 bound_to 10713
  156.8612  130.9492  151.3618 LP  0  0  0  0  0  0  0  0  0  0  0  0  # atno 17371 bound_to 10713
  140.7873  133.8611  155.8617 LP  0  0  0  0  0  0  0  0  0  0  0  0  # atno 17394 bound_to 11000
  140.9708  134.1533  157.4578 LP  0  0  0  0  0  0  0  0  0  0  0  0  # atno 17395 bound_to 11000

$$$$
