AV-unprocessed.smi:2954|AV-procd|sdf|11300|dock3
  -GOLD-   2272016193D 1   1.00000     0.00000
 Structure written by MMmdl.
 43 45  0  0  0  0  0  0  0  0  2 V2000
  152.9365  138.5780  154.5018 C   0  0  0  0  0  0  0  0  0  0  0  0
  151.5932  137.8906  154.7864 C   0  0  1  0  0  0  0  0  0  0  0  0
  151.5815  137.4162  156.1666 N   0  0  0  0  0  0  0  0  0  0  0  0
  151.4420  136.1351  156.5269 C   0  0  0  0  0  0  0  0  0  0  0  0
  151.3044  135.2225  155.7167 O   0  0  0  0  0  0  0  0  0  0  0  0
  150.4532  138.8238  154.4938 C   0  0  0  0  0  0  0  0  0  0  0  0
  149.4012  138.5754  153.6604 N   0  3  0  0  0  0  0  0  0  0  0  0
  148.5194  139.6558  153.6716 C   0  0  0  0  0  0  0  0  0  0  0  0
  147.3221  139.8618  152.9931 C   0  0  0  0  0  0  0  0  0  0  0  0
  146.6589  141.0824  153.2376 C   0  0  0  0  0  0  0  0  0  0  0  0
  147.1872  142.0397  154.1281 C   0  0  0  0  0  0  0  0  0  0  0  0
  148.4018  141.8186  154.8101 C   0  0  0  0  0  0  0  0  0  0  0  0
  149.0534  140.6114  154.5591 C   0  0  0  0  0  0  0  0  0  0  0  0
  150.2484  140.0610  155.0359 N   0  0  0  0  0  0  0  0  0  0  0  0
  151.0586  140.8312  155.9929 C   0  0  0  0  0  0  0  0  0  0  0  0
  150.2810  141.2223  157.2597 C   0  0  0  0  0  0  0  0  0  0  0  0
  151.1776  141.3514  158.3554 O   0  0  0  0  0  0  0  0  0  0  0  0
  151.3525  142.6027  158.9083 C   0  0  0  0  0  0  0  0  0  0  0  0
  150.7102  143.7731  158.4287 C   0  0  0  0  0  0  0  0  0  0  0  0
  150.9306  145.0165  159.0518 C   0  0  0  0  0  0  0  0  0  0  0  0
  151.7938  145.1089  160.1585 C   0  0  0  0  0  0  0  0  0  0  0  0
  152.4383  143.9553  160.6405 C   0  0  0  0  0  0  0  0  0  0  0  0
  152.2192  142.7101  160.0190 C   0  0  0  0  0  0  0  0  0  0  0  0
  153.0380  141.3136  160.6192 Cl  0  0  0  0  0  0  0  0  0  0  0  0
  153.0065  138.8978  153.4619 H   0  0  0  0  0  0  0  0  0  0  0  0
  153.7716  137.9029  154.6924 H   0  0  0  0  0  0  0  0  0  0  0  0
  153.0718  139.4602  155.1285 H   0  0  0  0  0  0  0  0  0  0  0  0
  151.5042  137.0311  154.1190 H   0  0  0  0  0  0  0  0  0  0  0  0
  151.6799  138.1080  156.8953 H   0  0  0  0  0  0  0  0  0  0  0  0
  151.4623  136.0096  157.6201 H   0  0  0  0  0  0  0  0  0  0  0  0
  146.9139  139.1288  152.3128 H   0  0  0  0  0  0  0  0  0  0  0  0
  145.7256  141.2872  152.7333 H   0  0  0  0  0  0  0  0  0  0  0  0
  146.6497  142.9625  154.2924 H   0  0  0  0  0  0  0  0  0  0  0  0
  148.7960  142.5571  155.4919 H   0  0  0  0  0  0  0  0  0  0  0  0
  151.9514  140.2559  156.2410 H   0  0  0  0  0  0  0  0  0  0  0  0
  151.4034  141.7328  155.4875 H   0  0  0  0  0  0  0  0  0  0  0  0
  149.7630  142.1684  157.0984 H   0  0  0  0  0  0  0  0  0  0  0  0
  149.5272  140.4616  157.4662 H   0  0  0  0  0  0  0  0  0  0  0  0
  150.0372  143.7432  157.5856 H   0  0  0  0  0  0  0  0  0  0  0  0
  150.4343  145.9012  158.6803 H   0  0  0  0  0  0  0  0  0  0  0  0
  151.9623  146.0629  160.6359 H   0  0  0  0  0  0  0  0  0  0  0  0
  153.1038  144.0270  161.4882 H   0  0  0  0  0  0  0  0  0  0  0  0
  149.2985  137.7235  153.1238 H   0  0  0  0  0  0  0  0  0  0  0  0
  1  2  1  0  0  0  0
  1 25  1  0  0  0  0
  1 26  1  0  0  0  0
  1 27  1  0  0  0  0
  2  3  1  0  0  0  0
  2  6  1  0  0  0  0
  2 28  1  0  0  0  0
  3  4  1  0  0  0  0
  3 29  1  0  0  0  0
  4  5  2  0  0  0  0
  4 30  1  0  0  0  0
  6 14  1  0  0  0  0
  6  7  2  0  0  0  0
  7  8  1  0  0  0  0
  7 43  1  0  0  0  0
  8 13  2  0  0  0  0
  8  9  1  0  0  0  0
  9 10  2  0  0  0  0
  9 31  1  0  0  0  0
 10 11  1  0  0  0  0
 10 32  1  0  0  0  0
 11 12  2  0  0  0  0
 11 33  1  0  0  0  0
 12 13  1  0  0  0  0
 12 34  1  0  0  0  0
 13 14  1  0  0  0  0
 14 15  1  0  0  0  0
 15 16  1  0  0  0  0
 15 35  1  0  0  0  0
 15 36  1  0  0  0  0
 16 17  1  0  0  0  0
 16 37  1  0  0  0  0
 16 38  1  0  0  0  0
 17 18  1  0  0  0  0
 18 23  1  0  0  0  0
 18 19  2  0  0  0  0
 19 20  1  0  0  0  0
 19 39  1  0  0  0  0
 20 21  2  0  0  0  0
 20 40  1  0  0  0  0
 21 22  1  0  0  0  0
 21 41  1  0  0  0  0
 22 23  2  0  0  0  0
 22 42  1  0  0  0  0
 23 24  1  0  0  0  0
M  CHG  1   7   1
M  END
> <s_m_source_file>
AV-unprocessed.smi

> <i_m_source_file_index>
2954

> <i_lp_mmshare_version>
43012

> <i_f3d_flags>
0

> <s_epik_input>
Tz1bQ0hdW05IXVtDQEBIXShbQ0gzXSljKG4xKW4oYyhjMTIpW2NIXVtjSF1bY0hdW2NIXTIpW0NIMl1bQ0gyXU9jM1tjSF1bY0hdW2NIXVtjSF1jM0Ns

> <s_epik_cmdline>
J2VwaWtfcHl0aG9uJywgJy1waCcsICc3LjAnLCAnLXRuJywgJzgnLCAnLW1hJywgJzIwMCcsICctbWV0YWxfYmluZGluZycsICctaW1hZScsICc8aW5maWxlLm1hZT4nLCAnLW9tYWUnLCAnPG91dGZpbGUubWFlPic=

> <r_lp_tautomer_probability>
1

> <r_epik_Ionization_Penalty>
1.18508

> <r_epik_Ionization_Penalty_Charging>
1.18508

> <r_epik_Ionization_Penalty_Neutral>
5.5802e-08

> <r_epik_State_Penalty>
1.24934

> <r_epik_Charging_Adjusted_Penalty>
2.43443

> <i_epik_Tot_Q>
1

> <i_epik_Tot_abs_Q>
1

> <r_epik_Metal_State_Penalty>
1.32564

> <b_epik_Metal_Only>
0

> <s_lp_Force_Field>
OPLS_2005

> <r_lp_Energy>
18.4095

> <b_lp_Chiralities_Consistent>
1

> <s_lp_Variant>
AV-unprocessed.smi:2954-4

> <Gold.Version>
5.8.1

> <Gold.Id.Protein>
6NUR|6NUR_protein|mol2

> <Gold.PLP.Fitness>
61.8487

> <Gold.PLP.PLP>
-54.2288

> <Gold.PLP.part.hbond>
-3.0000

> <Gold.PLP.part.metal>
0.0000

> <Gold.PLP.part.buried>
0.7574

> <Gold.PLP.part.nonpolar>
-51.8076

> <Gold.PLP.part.repulsive>
0.2069

> <Gold.PLP.ligand.clash>
0.0000

> <Gold.PLP.ligand.torsion>
0.6098

> <Gold.PLP.Chemscore.Hbond>
2.9120

> <Gold.PLP.Chemscore.CHOScore>
0.0000

> <Gold.PLP.Chemscore.Metal>
0.0000

> <Gold.Chemscore.Hbonds>
donor molecule, donor type, donor heavy atom, donor atom, acceptor molecule, acceptor atom, score
      L1  H     7    43       P1  7948  2.00
      P1  H 10752 10763       L1     5  0.81

> <Gold.PLP.Chemscore.Internal.Correction>
0.1035

> <Gold.Rescore>
     Score         DG    S(hbond)    S(metal)    S(lipo)     H(rot)  DE(clash)    DE(int)     intcor
     18.39     -20.30       1.15        0.00     145.09       2.35       1.20       0.71       ----

> <Gold.Chemscore.Fitness>
18.3902

> <Gold.Chemscore.DG>
-20.2969

> <Gold.Chemscore.ZeroCoef>
-5.4800

> <Gold.Chemscore.Hbond>
1.1524

> <Gold.Chemscore.Metal>
0.0000

> <Gold.Chemscore.Lipo>
145.0884

> <Gold.Chemscore.Internal_Hbond>
0.0000

> <Gold.Chemscore.DEClash>
1.1989

> <Gold.Chemscore.DEInternal>
0.7078

> <Gold.Chemscore.Rot>
2.3467

> <Gold.Chemscore.Internal.Correction>
   9.000000E+99

> <Gold.Chemscore.Hbonds>
donor molecule, donor type, donor heavy atom, donor atom, acceptor molecule, acceptor atom, score
      L1  H     7    43       P1  7948  0.97
      P1  H 10752 10763       L1     5  0.15

> <Gold.Chemscore.Hbond.Weighted>
-3.8492

> <Gold.Chemscore.Metal.Weighted>
-0.0000

> <Gold.Chemscore.Lipo.Weighted>
-16.9753

> <Gold.Chemscore.Internal_Hbond.Weighted>
0.0000

> <Gold.Chemscore.DEClash.Weighted>
1.1989

> <Gold.Chemscore.DEInternal.Weighted>
0.7078

> <Gold.Chemscore.Rot.Weighted>
6.0077

> <Gold.Chemscore.Internal.Correction.Weighted>
   9.000000E+99

> <Gold.Protein.RotatedTorsions>
[ 6907 6896 6895 6894 ] final   39.54 input  -60.11 | X-H torsion
[ 7974 7965 7964 7962 ] final  146.27 input  175.53 | X-H torsion
[ 8008 7997 7996 7995 ] final  109.49 input   59.86 | X-H torsion
[ 10167 10162 10161 10158 ] final  118.06 input  -65.29 | X-H torsion
[ 10718 10713 10712 10709 ] final  -30.88 input   66.30 | X-H torsion
[ 10763 10752 10751 10750 ] final   62.00 input  -60.55 | X-H torsion
[ 11005 11000 10999 10996 ] final  -36.83 input  -57.11 | X-H torsion

> <Gold.Protein.ActiveResidues>
 VAL166  LYS551  ARG553  GLY616  TRP617  ASP618  TYR619  PRO620  LYS621  CYS622 
 ASP623  PHE694  ASN695  SER759  ASP760  ASP761  ALA762  ILE779  LEU786  VAL792 
 PHE793  MET794  SER795  GLU796  ALA797  LYS798  CYS799  TRP800  GLU811  SER814 

> <Gold.Protein.RotatedAtoms>
  152.1709  134.8834  160.0534 H   0  0  0  0  0  0  0  0  0  0  0  0  # atno 6907 bound_to 6896
  151.9795  133.3748  159.4110 H   0  0  0  0  0  0  0  0  0  0  0  0  # atno 6908 bound_to 6896
  150.6902  134.3977  159.5149 H   0  0  0  0  0  0  0  0  0  0  0  0  # atno 6909 bound_to 6896
  144.8684  139.5885  143.5898 H   0  0  0  0  0  0  0  0  0  0  0  0  # atno 7974 bound_to 7965
  156.1983  140.3056  155.9473 H   0  0  0  0  0  0  0  0  0  0  0  0  # atno 8008 bound_to 7997
  155.3014  140.0446  157.3046 H   0  0  0  0  0  0  0  0  0  0  0  0  # atno 8009 bound_to 7997
  154.5538  140.2299  155.8452 H   0  0  0  0  0  0  0  0  0  0  0  0  # atno 8010 bound_to 7997
  139.6137  144.7087  151.2787 H   0  0  0  0  0  0  0  0  0  0  0  0  # atno 10167 bound_to 10162
  156.3942  130.4378  149.7371 H   0  0  0  0  0  0  0  0  0  0  0  0  # atno 10718 bound_to 10713
  152.9968  135.5481  154.6123 H   0  0  0  0  0  0  0  0  0  0  0  0  # atno 10763 bound_to 10752
  154.5441  135.2822  155.1071 H   0  0  0  0  0  0  0  0  0  0  0  0  # atno 10764 bound_to 10752
  154.2337  135.6429  153.5236 H   0  0  0  0  0  0  0  0  0  0  0  0  # atno 10765 bound_to 10752
  140.9905  133.7007  156.1841 H   0  0  0  0  0  0  0  0  0  0  0  0  # atno 11005 bound_to 11000
  146.2913  139.7147  142.9159 LP  0  0  0  0  0  0  0  0  0  0  0  0  # atno 17320 bound_to 7965
  145.4177  141.0403  143.2981 LP  0  0  0  0  0  0  0  0  0  0  0  0  # atno 17321 bound_to 7965
  140.7336  143.6789  150.8018 LP  0  0  0  0  0  0  0  0  0  0  0  0  # atno 17342 bound_to 10162
  140.0388  143.5367  152.2727 LP  0  0  0  0  0  0  0  0  0  0  0  0  # atno 17343 bound_to 10162
  156.4412  130.7862  151.2883 LP  0  0  0  0  0  0  0  0  0  0  0  0  # atno 17370 bound_to 10713
  157.7501  131.0124  150.3383 LP  0  0  0  0  0  0  0  0  0  0  0  0  # atno 17371 bound_to 10713
  140.7047  134.4526  157.5584 LP  0  0  0  0  0  0  0  0  0  0  0  0  # atno 17394 bound_to 11000
  139.8990  134.8601  156.1978 LP  0  0  0  0  0  0  0  0  0  0  0  0  # atno 17395 bound_to 11000

$$$$
