AV-unprocessed.smi:3128|AV-procd|sdf|11921|dock6
  -GOLD-   2272017303D 1   1.00000     0.00000
 Structure written by MMmdl.
 39 39  0  0  0  0  0  0  0  0  1 V2000
  151.0924  144.3826  160.4926 C   0  0  0  0  0  0  0  0  0  0  0  0
  152.4956  144.1586  159.8951 C   0  0  0  0  0  0  0  0  0  0  0  0
  152.4711  144.4949  158.3931 C   0  0  0  0  0  0  0  0  0  0  0  0
  153.0327  142.7293  160.1731 C   0  0  1  0  0  0  0  0  0  0  0  0
  153.1074  142.3883  161.6740 C   0  0  0  0  0  0  0  0  0  0  0  0
  152.1926  141.7377  159.5024 N   0  0  0  0  0  0  0  0  0  0  0  0
  152.6238  140.5988  158.9377 C   0  0  0  0  0  0  0  0  0  0  0  0
  153.8035  140.2473  158.9316 O   0  0  0  0  0  0  0  0  0  0  0  0
  151.5615  139.7234  158.2751 C   0  0  0  0  0  0  0  0  0  0  0  0
  151.0314  140.3512  157.0614 N   0  0  0  0  0  0  0  0  0  0  0  0
  150.1124  139.4521  156.3809 C   0  0  0  0  0  0  0  0  0  0  0  0
  150.2179  139.6612  154.8632 C   0  0  0  0  0  0  0  0  0  0  0  0
  149.0534  140.3459  154.3356 N   0  0  0  0  0  0  0  0  0  0  0  0
  148.6599  141.6513  154.5421 C   0  0  0  0  0  0  0  0  0  0  0  0
  147.5007  141.8413  153.8458 C   0  0  0  0  0  0  0  0  0  0  0  0
  147.2620  140.5778  153.2362 C   0  0  0  0  0  0  0  0  0  0  0  0
  148.1933  139.6851  153.5308 N   0  0  0  0  0  0  0  0  0  0  0  0
  150.3728  143.6709  160.0871 H   0  0  0  0  0  0  0  0  0  0  0  0
  150.7269  145.3855  160.2700 H   0  0  0  0  0  0  0  0  0  0  0  0
  151.0884  144.2787  161.5777 H   0  0  0  0  0  0  0  0  0  0  0  0
  153.1676  144.8711  160.3760 H   0  0  0  0  0  0  0  0  0  0  0  0
  151.8693  143.7766  157.8358 H   0  0  0  0  0  0  0  0  0  0  0  0
  153.4717  144.5024  157.9619 H   0  0  0  0  0  0  0  0  0  0  0  0
  152.0482  145.4849  158.2199 H   0  0  0  0  0  0  0  0  0  0  0  0
  154.0410  142.6658  159.7589 H   0  0  0  0  0  0  0  0  0  0  0  0
  153.8198  143.0243  162.1983 H   0  0  0  0  0  0  0  0  0  0  0  0
  153.4346  141.3598  161.8297 H   0  0  0  0  0  0  0  0  0  0  0  0
  152.1359  142.5024  162.1562 H   0  0  0  0  0  0  0  0  0  0  0  0
  151.2047  141.9406  159.4547 H   0  0  0  0  0  0  0  0  0  0  0  0
  152.0139  138.7619  158.0276 H   0  0  0  0  0  0  0  0  0  0  0  0
  150.7474  139.5263  158.9753 H   0  0  0  0  0  0  0  0  0  0  0  0
  150.5569  141.2175  157.2716 H   0  0  0  0  0  0  0  0  0  0  0  0
  150.3492  138.4175  156.6344 H   0  0  0  0  0  0  0  0  0  0  0  0
  149.0919  139.6469  156.7145 H   0  0  0  0  0  0  0  0  0  0  0  0
  151.1035  140.2497  154.6189 H   0  0  0  0  0  0  0  0  0  0  0  0
  150.3217  138.7041  154.3491 H   0  0  0  0  0  0  0  0  0  0  0  0
  149.2301  142.3282  155.1612 H   0  0  0  0  0  0  0  0  0  0  0  0
  146.9130  142.7449  153.7816 H   0  0  0  0  0  0  0  0  0  0  0  0
  146.4454  140.2848  152.5930 H   0  0  0  0  0  0  0  0  0  0  0  0
  1  2  1  0  0  0  0
  1 18  1  0  0  0  0
  1 19  1  0  0  0  0
  1 20  1  0  0  0  0
  2  3  1  0  0  0  0
  2  4  1  0  0  0  0
  2 21  1  0  0  0  0
  3 22  1  0  0  0  0
  3 23  1  0  0  0  0
  3 24  1  0  0  0  0
  4  5  1  0  0  0  0
  4  6  1  0  0  0  0
  4 25  1  0  0  0  0
  5 26  1  0  0  0  0
  5 27  1  0  0  0  0
  5 28  1  0  0  0  0
  6  7  1  0  0  0  0
  6 29  1  0  0  0  0
  7  8  2  0  0  0  0
  7  9  1  0  0  0  0
  9 10  1  0  0  0  0
  9 30  1  0  0  0  0
  9 31  1  0  0  0  0
 10 11  1  0  0  0  0
 10 32  1  0  0  0  0
 11 12  1  0  0  0  0
 11 33  1  0  0  0  0
 11 34  1  0  0  0  0
 12 13  1  0  0  0  0
 12 35  1  0  0  0  0
 12 36  1  0  0  0  0
 13 17  1  0  0  0  0
 13 14  1  0  0  0  0
 14 15  2  0  0  0  0
 14 37  1  0  0  0  0
 15 16  1  0  0  0  0
 15 38  1  0  0  0  0
 16 17  2  0  0  0  0
 16 39  1  0  0  0  0
M  END
> <s_m_source_file>
AV-unprocessed.smi

> <i_m_source_file_index>
3128

> <i_lp_mmshare_version>
43012

> <i_f3d_flags>
0

> <s_epik_input>
W0NIM11bQ0hdKFtDSDNdKVtDQEhdKFtDSDNdKVtOSF1DKD1PKVtDSDJdW05IXVtDSDJdW0NIMl1uMVtjSF1bY0hdW2NIXW4x

> <s_epik_cmdline>
J2VwaWtfcHl0aG9uJywgJy1waCcsICc3LjAnLCAnLXRuJywgJzgnLCAnLW1hJywgJzIwMCcsICctbWV0YWxfYmluZGluZycsICctaW1hZScsICc8aW5maWxlLm1hZT4nLCAnLW9tYWUnLCAnPG91dGZpbGUubWFlPic=

> <r_lp_tautomer_probability>
1

> <r_epik_Ionization_Penalty>
0.724947

> <r_epik_Ionization_Penalty_Charging>
0

> <r_epik_Ionization_Penalty_Neutral>
0.724947

> <r_epik_State_Penalty>
0.747959

> <r_epik_Charging_Adjusted_Penalty>
0.747959

> <i_epik_Tot_Q>
0

> <i_epik_Tot_abs_Q>
0

> <r_epik_Metal_State_Penalty>
0.746178

> <b_epik_Metal_Only>
0

> <s_lp_Force_Field>
OPLS_2005

> <r_lp_Energy>
7.09657

> <b_lp_Chiralities_Consistent>
1

> <s_lp_Variant>
AV-unprocessed.smi:3128-4

> <Gold.Version>
5.8.1

> <Gold.Id.Protein>
6NUR|6NUR_protein|mol2

> <Gold.PLP.Fitness>
46.0203

> <Gold.PLP.PLP>
-39.1363

> <Gold.PLP.part.hbond>
-1.0000

> <Gold.PLP.part.metal>
0.0000

> <Gold.PLP.part.buried>
-5.1095

> <Gold.PLP.part.nonpolar>
-34.4298

> <Gold.PLP.part.repulsive>
1.4752

> <Gold.PLP.ligand.clash>
0.0000

> <Gold.PLP.ligand.torsion>
1.0813

> <Gold.PLP.Chemscore.Hbond>
0.9600

> <Gold.PLP.Chemscore.CHOScore>
2.0000

> <Gold.PLP.Chemscore.Metal>
0.0000

> <Gold.Chemscore.Hbonds>
donor molecule, donor type, donor heavy atom, donor atom, acceptor molecule, acceptor atom, score
      P1  H  7997  8008       L1     8  0.91
      L1  C    14    37       P1  8028  1.00
      L1  C    16    39       P1 10175  0.42

> <Gold.PLP.Chemscore.Internal.Correction>
0.1665

> <Gold.Rescore>
     Score         DG    S(hbond)    S(metal)    S(lipo)     H(rot)  DE(clash)    DE(int)     intcor
     13.53     -14.71       0.93        0.00      99.26       2.15       0.17       1.01       ----

> <Gold.Chemscore.Fitness>
13.5265

> <Gold.Chemscore.DG>
-14.7059

> <Gold.Chemscore.ZeroCoef>
-5.4800

> <Gold.Chemscore.Hbond>
0.9323

> <Gold.Chemscore.Metal>
0.0000

> <Gold.Chemscore.Lipo>
99.2570

> <Gold.Chemscore.Internal_Hbond>
0.0000

> <Gold.Chemscore.DEClash>
0.1731

> <Gold.Chemscore.DEInternal>
1.0062

> <Gold.Chemscore.Rot>
2.1488

> <Gold.Chemscore.Internal.Correction>
   9.000000E+99

> <Gold.Chemscore.Hbonds>
donor molecule, donor type, donor heavy atom, donor atom, acceptor molecule, acceptor atom, score
      P1  H  7997  8008       L1     8  0.83

> <Gold.Chemscore.Hbond.Weighted>
-3.1138

> <Gold.Chemscore.Metal.Weighted>
-0.0000

> <Gold.Chemscore.Lipo.Weighted>
-11.6131

> <Gold.Chemscore.Internal_Hbond.Weighted>
0.0000

> <Gold.Chemscore.DEClash.Weighted>
0.1731

> <Gold.Chemscore.DEInternal.Weighted>
1.0062

> <Gold.Chemscore.Rot.Weighted>
5.5010

> <Gold.Chemscore.Internal.Correction.Weighted>
   9.000000E+99

> <Gold.Protein.RotatedTorsions>
[ 6907 6896 6895 6894 ] final  -24.24 input  -60.11 | X-H torsion
[ 7974 7965 7964 7962 ] final -166.48 input  175.53 | X-H torsion
[ 8008 7997 7996 7995 ] final  -98.94 input   59.86 | X-H torsion
[ 10167 10162 10161 10158 ] final -167.30 input  -65.29 | X-H torsion
[ 10718 10713 10712 10709 ] final -147.71 input   66.30 | X-H torsion
[ 10763 10752 10751 10750 ] final -150.78 input  -60.55 | X-H torsion
[ 11005 11000 10999 10996 ] final   37.53 input  -57.11 | X-H torsion

> <Gold.Protein.ActiveResidues>
 VAL166  LYS551  ARG553  GLY616  TRP617  ASP618  TYR619  PRO620  LYS621  CYS622 
 ASP623  PHE694  ASN695  SER759  ASP760  ASP761  ALA762  ILE779  LEU786  VAL792 
 PHE793  MET794  SER795  GLU796  ALA797  LYS798  CYS799  TRP800  GLU811  SER814 

> <Gold.Protein.RotatedAtoms>
  151.1924  135.0408  159.8837 H   0  0  0  0  0  0  0  0  0  0  0  0  # atno 6907 bound_to 6896
  152.5438  134.0942  159.8300 H   0  0  0  0  0  0  0  0  0  0  0  0  # atno 6908 bound_to 6896
  151.1072  133.5152  159.2639 H   0  0  0  0  0  0  0  0  0  0  0  0  # atno 6909 bound_to 6896
  144.7244  140.2660  143.6258 H   0  0  0  0  0  0  0  0  0  0  0  0  # atno 7974 bound_to 7965
  154.8080  140.0451  157.1322 H   0  0  0  0  0  0  0  0  0  0  0  0  # atno 8008 bound_to 7997
  154.9401  140.3051  155.5105 H   0  0  0  0  0  0  0  0  0  0  0  0  # atno 8009 bound_to 7997
  156.2969  140.2307  156.4469 H   0  0  0  0  0  0  0  0  0  0  0  0  # atno 8010 bound_to 7997
  139.6058  144.0915  152.1792 H   0  0  0  0  0  0  0  0  0  0  0  0  # atno 10167 bound_to 10162
  156.4110  130.7981  151.2199 H   0  0  0  0  0  0  0  0  0  0  0  0  # atno 10718 bound_to 10713
  154.8098  135.3276  154.7335 H   0  0  0  0  0  0  0  0  0  0  0  0  # atno 10763 bound_to 10752
  153.7986  135.6905  153.4864 H   0  0  0  0  0  0  0  0  0  0  0  0  # atno 10764 bound_to 10752
  153.1869  135.4565  155.0045 H   0  0  0  0  0  0  0  0  0  0  0  0  # atno 10765 bound_to 10752
  140.2216  134.3634  155.8002 H   0  0  0  0  0  0  0  0  0  0  0  0  # atno 11005 bound_to 11000
  145.8089  139.1995  143.2004 LP  0  0  0  0  0  0  0  0  0  0  0  0  # atno 17320 bound_to 7965
  146.0613  140.7968  142.9733 LP  0  0  0  0  0  0  0  0  0  0  0  0  # atno 17321 bound_to 7965
  140.0522  144.5923  150.7327 LP  0  0  0  0  0  0  0  0  0  0  0  0  # atno 17342 bound_to 10162
  140.7284  143.2661  151.4040 LP  0  0  0  0  0  0  0  0  0  0  0  0  # atno 17343 bound_to 10162
  157.7507  131.0257  150.3933 LP  0  0  0  0  0  0  0  0  0  0  0  0  # atno 17370 bound_to 10713
  156.4231  130.3957  149.6811 LP  0  0  0  0  0  0  0  0  0  0  0  0  # atno 17371 bound_to 10713
  141.2222  133.7196  156.8585 LP  0  0  0  0  0  0  0  0  0  0  0  0  # atno 17394 bound_to 11000
  140.1844  134.9010  157.2986 LP  0  0  0  0  0  0  0  0  0  0  0  0  # atno 17395 bound_to 11000

$$$$
