AV-unprocessed.smi:713|AV-procd|sdf|3480|dock3
  -GOLD-   22720 0473D 1   1.00000     0.00000
 Structure written by MMmdl.
 41 42  0  0  0  0  0  0  0  0  1 V2000
  151.9148  144.4870  158.4713 C   0  0  0  0  0  0  0  0  0  0  0  0
  152.5895  143.1817  158.9325 C   0  0  2  0  0  0  0  0  0  0  0  0
  151.8202  141.9262  158.4956 C   0  0  0  0  0  0  0  0  0  0  0  0
  151.3669  141.1425  159.3308 O   0  0  0  0  0  0  0  0  0  0  0  0
  151.6937  141.7447  157.1717 N   0  0  0  0  0  0  0  0  0  0  0  0
  151.0599  140.5981  156.5298 C   0  0  1  0  0  0  0  0  0  0  0  0
  149.9556  141.0566  155.5558 C   0  0  0  0  0  0  0  0  0  0  0  0
  149.3217  139.8680  154.8162 C   0  0  0  0  0  0  0  0  0  0  0  0
  150.3833  139.0074  154.1075 C   0  0  0  0  0  0  0  0  0  0  0  0
  151.5442  138.5692  155.0297 C   0  0  2  0  0  0  0  0  0  0  0  0
  151.0878  137.2006  156.2051 S   0  0  0  0  0  0  0  0  0  0  0  0
  149.3208  136.8934  155.7922 C   0  0  0  0  0  0  0  0  0  0  0  0
  151.8597  136.0055  155.8327 O   0  0  0  0  0  0  0  0  0  0  0  0
  151.1417  137.6880  157.5911 O   0  0  0  0  0  0  0  0  0  0  0  0
  152.1308  139.7790  155.7842 C   0  0  0  0  0  0  0  0  0  0  0  0
  152.7835  143.1689  160.3766 N   0  0  0  0  0  0  0  0  0  0  0  0
  152.3347  144.0734  161.3197 C   0  0  0  0  0  0  0  0  0  0  0  0
  152.7465  143.6280  162.5428 C   0  0  0  0  0  0  0  0  0  0  0  0
  153.4461  142.4255  162.2457 C   0  0  0  0  0  0  0  0  0  0  0  0
  153.4653  142.1530  160.9512 N   0  0  0  0  0  0  0  0  0  0  0  0
  151.7857  144.5028  157.3886 H   0  0  0  0  0  0  0  0  0  0  0  0
  152.5216  145.3519  158.7402 H   0  0  0  0  0  0  0  0  0  0  0  0
  150.9321  144.6209  158.9252 H   0  0  0  0  0  0  0  0  0  0  0  0
  153.5723  143.1419  158.4579 H   0  0  0  0  0  0  0  0  0  0  0  0
  152.0998  142.4395  156.5614 H   0  0  0  0  0  0  0  0  0  0  0  0
  150.6169  139.9727  157.3056 H   0  0  0  0  0  0  0  0  0  0  0  0
  149.1799  141.6038  156.0924 H   0  0  0  0  0  0  0  0  0  0  0  0
  150.3742  141.7517  154.8265 H   0  0  0  0  0  0  0  0  0  0  0  0
  148.7428  139.2661  155.5140 H   0  0  0  0  0  0  0  0  0  0  0  0
  148.6044  140.2369  154.0827 H   0  0  0  0  0  0  0  0  0  0  0  0
  149.9121  138.1444  153.6398 H   0  0  0  0  0  0  0  0  0  0  0  0
  150.8013  139.5923  153.2872 H   0  0  0  0  0  0  0  0  0  0  0  0
  152.3352  138.1544  154.4045 H   0  0  0  0  0  0  0  0  0  0  0  0
  148.9718  136.0198  156.3420 H   0  0  0  0  0  0  0  0  0  0  0  0
  149.2194  136.7088  154.7232 H   0  0  0  0  0  0  0  0  0  0  0  0
  148.7164  137.7539  156.0756 H   0  0  0  0  0  0  0  0  0  0  0  0
  152.6379  140.4255  155.0664 H   0  0  0  0  0  0  0  0  0  0  0  0
  152.9005  139.4454  156.4812 H   0  0  0  0  0  0  0  0  0  0  0  0
  151.7630  144.9477  161.0443 H   0  0  0  0  0  0  0  0  0  0  0  0
  152.5713  144.0890  163.5035 H   0  0  0  0  0  0  0  0  0  0  0  0
  153.9355  141.7463  162.9281 H   0  0  0  0  0  0  0  0  0  0  0  0
  1  2  1  0  0  0  0
  1 21  1  0  0  0  0
  1 22  1  0  0  0  0
  1 23  1  0  0  0  0
  2  3  1  0  0  0  0
  2 16  1  0  0  0  0
  2 24  1  0  0  0  0
  3  4  2  0  0  0  0
  3  5  1  0  0  0  0
  5  6  1  0  0  0  0
  5 25  1  0  0  0  0
  6 15  1  0  0  0  0
  6  7  1  0  0  0  0
  6 26  1  0  0  0  0
  7  8  1  0  0  0  0
  7 27  1  0  0  0  0
  7 28  1  0  0  0  0
  8  9  1  0  0  0  0
  8 29  1  0  0  0  0
  8 30  1  0  0  0  0
  9 10  1  0  0  0  0
  9 31  1  0  0  0  0
  9 32  1  0  0  0  0
 10 11  1  0  0  0  0
 10 15  1  0  0  0  0
 10 33  1  0  0  0  0
 11 12  1  0  0  0  0
 11 13  2  0  0  0  0
 11 14  2  0  0  0  0
 12 34  1  0  0  0  0
 12 35  1  0  0  0  0
 12 36  1  0  0  0  0
 15 37  1  0  0  0  0
 15 38  1  0  0  0  0
 16 20  1  0  0  0  0
 16 17  1  0  0  0  0
 17 18  2  0  0  0  0
 17 39  1  0  0  0  0
 18 19  1  0  0  0  0
 18 40  1  0  0  0  0
 19 20  2  0  0  0  0
 19 41  1  0  0  0  0
M  END
> <s_m_source_file>
AV-unprocessed.smi

> <i_m_source_file_index>
713

> <i_lp_mmshare_version>
43012

> <i_f3d_flags>
0

> <s_epik_input>
bjFbY0hdW2NIXVtjSF1uMVtDQEhdKFtDSDNdKUMoPU8pW05IXVtDQEBIXTJbQ0gyXVtDSDJdW0NIMl1bQ0BIXShbQ0gyXTIpUyg9TykoPU8pW0NIM10=

> <s_epik_cmdline>
J2VwaWtfcHl0aG9uJywgJy1waCcsICc3LjAnLCAnLXRuJywgJzgnLCAnLW1hJywgJzIwMCcsICctbWV0YWxfYmluZGluZycsICctaW1hZScsICc8aW5maWxlLm1hZT4nLCAnLW9tYWUnLCAnPG91dGZpbGUubWFlPic=

> <r_lp_tautomer_probability>
1

> <r_epik_Ionization_Penalty>
4.07816e-05

> <r_epik_Ionization_Penalty_Charging>
0

> <r_epik_Ionization_Penalty_Neutral>
4.07816e-05

> <r_epik_State_Penalty>
-0

> <r_epik_Charging_Adjusted_Penalty>
0

> <i_epik_Tot_Q>
0

> <i_epik_Tot_abs_Q>
0

> <r_epik_Metal_State_Penalty>
-0

> <b_epik_Metal_Only>
0

> <s_lp_Force_Field>
OPLS_2005

> <r_lp_Energy>
4.30009

> <b_lp_Chiralities_Consistent>
1

> <s_lp_Variant>
AV-unprocessed.smi:713-7

> <Gold.Version>
5.8.1

> <Gold.Id.Protein>
6NUR|6NUR_protein|mol2

> <Gold.PLP.Fitness>
46.7105

> <Gold.PLP.PLP>
-43.9257

> <Gold.PLP.part.hbond>
-1.3524

> <Gold.PLP.part.metal>
0.0000

> <Gold.PLP.part.buried>
-2.1674

> <Gold.PLP.part.nonpolar>
-40.0580

> <Gold.PLP.part.repulsive>
0.1294

> <Gold.PLP.ligand.clash>
0.0000

> <Gold.PLP.ligand.torsion>
0.2335

> <Gold.PLP.Chemscore.Hbond>
1.0000

> <Gold.PLP.Chemscore.CHOScore>
0.0000

> <Gold.PLP.Chemscore.Metal>
0.0000

> <Gold.Chemscore.Hbonds>
donor molecule, donor type, donor heavy atom, donor atom, acceptor molecule, acceptor atom, score
      P1  H 10752 10764       L1    13  1.00

> <Gold.PLP.Chemscore.Internal.Correction>
0.2518

> <Gold.Rescore>
     Score         DG    S(hbond)    S(metal)    S(lipo)     H(rot)  DE(clash)    DE(int)     intcor
     15.04     -16.71       0.99        0.00     105.45       1.72       0.09       1.58       ----

> <Gold.Chemscore.Fitness>
15.0435

> <Gold.Chemscore.DG>
-16.7130

> <Gold.Chemscore.ZeroCoef>
-5.4800

> <Gold.Chemscore.Hbond>
0.9912

> <Gold.Chemscore.Metal>
0.0000

> <Gold.Chemscore.Lipo>
105.4547

> <Gold.Chemscore.Internal_Hbond>
0.0000

> <Gold.Chemscore.DEClash>
0.0894

> <Gold.Chemscore.DEInternal>
1.5802

> <Gold.Chemscore.Rot>
1.7249

> <Gold.Chemscore.Internal.Correction>
   9.000000E+99

> <Gold.Chemscore.Hbonds>
donor molecule, donor type, donor heavy atom, donor atom, acceptor molecule, acceptor atom, score
      P1  H 10752 10764       L1    13  0.98

> <Gold.Chemscore.Hbond.Weighted>
-3.3106

> <Gold.Chemscore.Metal.Weighted>
-0.0000

> <Gold.Chemscore.Lipo.Weighted>
-12.3382

> <Gold.Chemscore.Internal_Hbond.Weighted>
0.0000

> <Gold.Chemscore.DEClash.Weighted>
0.0894

> <Gold.Chemscore.DEInternal.Weighted>
1.5802

> <Gold.Chemscore.Rot.Weighted>
4.4157

> <Gold.Chemscore.Internal.Correction.Weighted>
   9.000000E+99

> <Gold.Protein.RotatedTorsions>
[ 6907 6896 6895 6894 ] final  -89.54 input  -60.11 | X-H torsion
[ 7974 7965 7964 7962 ] final   12.82 input  175.53 | X-H torsion
[ 8008 7997 7996 7995 ] final    6.32 input   59.86 | X-H torsion
[ 10167 10162 10161 10158 ] final  -58.05 input  -65.29 | X-H torsion
[ 10718 10713 10712 10709 ] final  105.69 input   66.30 | X-H torsion
[ 10763 10752 10751 10750 ] final  -53.11 input  -60.55 | X-H torsion
[ 11005 11000 10999 10996 ] final   48.55 input  -57.11 | X-H torsion

> <Gold.Protein.ActiveResidues>
 VAL166  LYS551  ARG553  GLY616  TRP617  ASP618  TYR619  PRO620  LYS621  CYS622 
 ASP623  PHE694  ASN695  SER759  ASP760  ASP761  ALA762  ILE779  LEU786  VAL792 
 PHE793  MET794  SER795  GLU796  ALA797  LYS798  CYS799  TRP800  GLU811  SER814 

> <Gold.Protein.RotatedAtoms>
  150.6874  134.2571  159.4534 H   0  0  0  0  0  0  0  0  0  0  0  0  # atno 6907 bound_to 6896
  152.0504  134.9654  160.0584 H   0  0  0  0  0  0  0  0  0  0  0  0  # atno 6908 bound_to 6896
  152.1121  133.4271  159.4672 H   0  0  0  0  0  0  0  0  0  0  0  0  # atno 6909 bound_to 6896
  146.2343  139.9280  142.8500 H   0  0  0  0  0  0  0  0  0  0  0  0  # atno 7974 bound_to 7965
  154.7396  140.2746  155.6385 H   0  0  0  0  0  0  0  0  0  0  0  0  # atno 8008 bound_to 7997
  156.2870  140.2699  156.2045 H   0  0  0  0  0  0  0  0  0  0  0  0  # atno 8009 bound_to 7997
  155.0276  140.0371  157.2451 H   0  0  0  0  0  0  0  0  0  0  0  0  # atno 8010 bound_to 7997
  140.6221  143.2423  151.5456 H   0  0  0  0  0  0  0  0  0  0  0  0  # atno 10167 bound_to 10162
  157.6696  131.0833  150.5894 H   0  0  0  0  0  0  0  0  0  0  0  0  # atno 10718 bound_to 10713
  154.1535  135.6486  153.4969 H   0  0  0  0  0  0  0  0  0  0  0  0  # atno 10763 bound_to 10752
  153.0131  135.5344  154.6783 H   0  0  0  0  0  0  0  0  0  0  0  0  # atno 10764 bound_to 10752
  154.6078  135.2950  155.0437 H   0  0  0  0  0  0  0  0  0  0  0  0  # atno 10765 bound_to 10752
  140.1181  134.4866  155.8620 H   0  0  0  0  0  0  0  0  0  0  0  0  # atno 11005 bound_to 11000
  145.2072  140.9880  143.4121 LP  0  0  0  0  0  0  0  0  0  0  0  0  # atno 17320 bound_to 7965
  144.9722  139.3868  143.6303 LP  0  0  0  0  0  0  0  0  0  0  0  0  # atno 17321 bound_to 7965
  139.5447  144.2552  152.1420 LP  0  0  0  0  0  0  0  0  0  0  0  0  # atno 17342 bound_to 10162
  140.1775  144.4877  150.6546 LP  0  0  0  0  0  0  0  0  0  0  0  0  # atno 17343 bound_to 10162
  156.6195  130.4402  149.5828 LP  0  0  0  0  0  0  0  0  0  0  0  0  # atno 17370 bound_to 10713
  156.2367  130.6827  151.1516 LP  0  0  0  0  0  0  0  0  0  0  0  0  # atno 17371 bound_to 10713
  141.2145  133.6751  156.6835 LP  0  0  0  0  0  0  0  0  0  0  0  0  # atno 17394 bound_to 11000
  140.3001  134.8170  157.4091 LP  0  0  0  0  0  0  0  0  0  0  0  0  # atno 17395 bound_to 11000

$$$$
