AV-unprocessed.smi:1403|AV-procd|sdf|5697|dock1
  -GOLD-   22720 5323D 1   1.00000     0.00000
 Structure written by MMmdl.
 36 37  0  0  0  0  0  0  0  0  1 V2000
  153.3573  141.5258  159.7672 C   0  0  0  0  0  0  0  0  0  0  0  0
  151.9856  141.6851  159.0897 C   0  0  2  0  0  0  0  0  0  0  0  0
  152.0893  141.2987  157.6851 N   0  0  0  0  0  0  0  0  0  0  0  0
  151.4223  140.2911  157.1019 C   0  0  0  0  0  0  0  0  0  0  0  0
  150.6575  139.5431  157.7124 O   0  0  0  0  0  0  0  0  0  0  0  0
  151.6827  140.0832  155.6039 C   0  0  0  0  0  0  0  0  0  0  0  0
  150.4413  140.0018  154.8211 N   0  0  0  0  0  0  0  0  0  0  0  0
  149.5431  141.0596  154.8159 C   0  0  0  0  0  0  0  0  0  0  0  0
  148.3886  141.0538  154.1083 C   0  0  0  0  0  0  0  0  0  0  0  0
  148.0266  139.8981  153.2945 C   0  0  0  0  0  0  0  0  0  0  0  0
  147.0034  139.7969  152.6214 O   0  0  0  0  0  0  0  0  0  0  0  0
  148.9567  138.8556  153.3240 N   0  0  0  0  0  0  0  0  0  0  0  0
  150.1493  138.8563  154.0490 C   0  0  0  0  0  0  0  0  0  0  0  0
  150.9023  137.8843  154.0013 O   0  0  0  0  0  0  0  0  0  0  0  0
  151.4479  143.1266  159.1788 C   0  0  2  0  0  0  0  0  0  0  0  0
  152.3221  144.1769  158.4885 C   0  0  0  0  0  0  0  0  0  0  0  0
  151.9837  145.4265  159.2678 C   0  0  0  0  0  0  0  0  0  0  0  0
  151.8673  144.8768  160.6843 C   0  0  0  0  0  0  0  0  0  0  0  0
  151.3787  143.5464  160.5421 O   0  0  0  0  0  0  0  0  0  0  0  0
  148.7504  138.0348  152.7737 H   0  0  0  0  0  0  0  0  0  0  0  0
  153.3061  141.7635  160.8296 H   0  0  0  0  0  0  0  0  0  0  0  0
  154.1022  142.1813  159.3148 H   0  0  0  0  0  0  0  0  0  0  0  0
  153.7210  140.5011  159.6835 H   0  0  0  0  0  0  0  0  0  0  0  0
  151.2723  141.0287  159.5915 H   0  0  0  0  0  0  0  0  0  0  0  0
  152.6977  141.8587  157.1057 H   0  0  0  0  0  0  0  0  0  0  0  0
  152.3197  140.8811  155.2160 H   0  0  0  0  0  0  0  0  0  0  0  0
  152.2659  139.1686  155.4877 H   0  0  0  0  0  0  0  0  0  0  0  0
  149.7721  141.9388  155.4013 H   0  0  0  0  0  0  0  0  0  0  0  0
  147.7299  141.9095  154.1435 H   0  0  0  0  0  0  0  0  0  0  0  0
  150.4380  143.1803  158.7687 H   0  0  0  0  0  0  0  0  0  0  0  0
  153.3802  143.9402  158.6102 H   0  0  0  0  0  0  0  0  0  0  0  0
  152.1134  144.2708  157.4223 H   0  0  0  0  0  0  0  0  0  0  0  0
  152.7360  146.2100  159.1742 H   0  0  0  0  0  0  0  0  0  0  0  0
  151.0248  145.8277  158.9371 H   0  0  0  0  0  0  0  0  0  0  0  0
  152.8489  144.8353  161.1579 H   0  0  0  0  0  0  0  0  0  0  0  0
  151.2121  145.4787  161.3143 H   0  0  0  0  0  0  0  0  0  0  0  0
  1  2  1  0  0  0  0
  1 21  1  0  0  0  0
  1 22  1  0  0  0  0
  1 23  1  0  0  0  0
  2  3  1  0  0  0  0
  2 15  1  0  0  0  0
  2 24  1  0  0  0  0
  3  4  1  0  0  0  0
  3 25  1  0  0  0  0
  4  5  2  0  0  0  0
  4  6  1  0  0  0  0
  6  7  1  0  0  0  0
  6 26  1  0  0  0  0
  6 27  1  0  0  0  0
  7 13  1  0  0  0  0
  7  8  1  0  0  0  0
  8  9  2  0  0  0  0
  8 28  1  0  0  0  0
  9 10  1  0  0  0  0
  9 29  1  0  0  0  0
 10 11  2  0  0  0  0
 10 12  1  0  0  0  0
 12 20  1  0  0  0  0
 12 13  1  0  0  0  0
 13 14  2  0  0  0  0
 15 19  1  0  0  0  0
 15 16  1  0  0  0  0
 15 30  1  0  0  0  0
 16 17  1  0  0  0  0
 16 31  1  0  0  0  0
 16 32  1  0  0  0  0
 17 18  1  0  0  0  0
 17 33  1  0  0  0  0
 17 34  1  0  0  0  0
 18 19  1  0  0  0  0
 18 35  1  0  0  0  0
 18 36  1  0  0  0  0
M  END
> <s_m_source_file>
AV-unprocessed.smi

> <i_m_source_file_index>
1403

> <i_lp_mmshare_version>
43012

> <i_f3d_flags>
0

> <s_epik_input>
TzFbQ0gyXVtDSDJdW0NIMl1bQ0BIXTFbQ0BIXShbQ0gzXSlbTkhdQyg9TylbQ0gyXW4yW2NIXVtjSF1jKD1PKVtuSF1jMj1P

> <s_epik_cmdline>
J2VwaWtfcHl0aG9uJywgJy1waCcsICc3LjAnLCAnLXRuJywgJzgnLCAnLW1hJywgJzIwMCcsICctbWV0YWxfYmluZGluZycsICctaW1hZScsICc8aW5maWxlLm1hZT4nLCAnLW9tYWUnLCAnPG91dGZpbGUubWFlPic=

> <r_lp_tautomer_probability>
0.999537

> <r_epik_Ionization_Penalty>
0.00331407

> <r_epik_Ionization_Penalty_Charging>
0.00331405

> <r_epik_Ionization_Penalty_Neutral>
2.30132e-08

> <r_epik_State_Penalty>
0.00234266

> <r_epik_Charging_Adjusted_Penalty>
0.00565671

> <i_epik_Tot_Q>
0

> <i_epik_Tot_abs_Q>
0

> <r_epik_Metal_State_Penalty>
0.365604

> <b_epik_Metal_Only>
0

> <s_lp_Force_Field>
OPLS_2005

> <r_lp_Energy>
18.7727

> <b_lp_Chiralities_Consistent>
1

> <s_lp_Variant>
AV-unprocessed.smi:1403-1

> <Gold.Version>
5.8.1

> <Gold.Id.Protein>
6NUR|6NUR_protein|mol2

> <Gold.PLP.Fitness>
44.0888

> <Gold.PLP.PLP>
-41.2198

> <Gold.PLP.part.hbond>
-2.2709

> <Gold.PLP.part.metal>
0.0000

> <Gold.PLP.part.buried>
-2.6327

> <Gold.PLP.part.nonpolar>
-37.4316

> <Gold.PLP.part.repulsive>
1.0663

> <Gold.PLP.ligand.clash>
0.0000

> <Gold.PLP.ligand.torsion>
0.0803

> <Gold.PLP.Chemscore.Hbond>
1.0000

> <Gold.PLP.Chemscore.CHOScore>
0.0000

> <Gold.PLP.Chemscore.Metal>
0.0000

> <Gold.Chemscore.Hbonds>
donor molecule, donor type, donor heavy atom, donor atom, acceptor molecule, acceptor atom, score
      L1  H    12    20       P1  7948  1.00
      L1  C     8    28       P1  8028  0.01

> <Gold.PLP.Chemscore.Internal.Correction>
0.0297

> <Gold.Rescore>
     Score         DG    S(hbond)    S(metal)    S(lipo)     H(rot)  DE(clash)    DE(int)     intcor
     13.66     -14.11       1.00        0.00      89.93       2.04       0.29       0.17       ----

> <Gold.Chemscore.Fitness>
13.6555

> <Gold.Chemscore.DG>
-14.1080

> <Gold.Chemscore.ZeroCoef>
-5.4800

> <Gold.Chemscore.Hbond>
0.9961

> <Gold.Chemscore.Metal>
0.0000

> <Gold.Chemscore.Lipo>
89.9340

> <Gold.Chemscore.Internal_Hbond>
0.0000

> <Gold.Chemscore.DEClash>
0.2874

> <Gold.Chemscore.DEInternal>
0.1651

> <Gold.Chemscore.Rot>
2.0395

> <Gold.Chemscore.Internal.Correction>
   9.000000E+99

> <Gold.Chemscore.Hbonds>
donor molecule, donor type, donor heavy atom, donor atom, acceptor molecule, acceptor atom, score
      L1  H    12    20       P1  7948  0.96

> <Gold.Chemscore.Hbond.Weighted>
-3.3268

> <Gold.Chemscore.Metal.Weighted>
-0.0000

> <Gold.Chemscore.Lipo.Weighted>
-10.5223

> <Gold.Chemscore.Internal_Hbond.Weighted>
0.0000

> <Gold.Chemscore.DEClash.Weighted>
0.2874

> <Gold.Chemscore.DEInternal.Weighted>
0.1651

> <Gold.Chemscore.Rot.Weighted>
5.2211

> <Gold.Chemscore.Internal.Correction.Weighted>
   9.000000E+99

> <Gold.Protein.RotatedTorsions>
[ 6907 6896 6895 6894 ] final  115.93 input  -60.11 | X-H torsion
[ 7974 7965 7964 7962 ] final -158.17 input  175.53 | X-H torsion
[ 8008 7997 7996 7995 ] final  111.93 input   59.86 | X-H torsion
[ 10167 10162 10161 10158 ] final  135.44 input  -65.29 | X-H torsion
[ 10718 10713 10712 10709 ] final   71.95 input   66.30 | X-H torsion
[ 10763 10752 10751 10750 ] final  -50.12 input  -60.55 | X-H torsion
[ 11005 11000 10999 10996 ] final  -83.64 input  -57.11 | X-H torsion

> <Gold.Protein.ActiveResidues>
 VAL166  LYS551  ARG553  GLY616  TRP617  ASP618  TYR619  PRO620  LYS621  CYS622 
 ASP623  PHE694  ASN695  SER759  ASP760  ASP761  ALA762  ILE779  LEU786  VAL792 
 PHE793  MET794  SER795  GLU796  ALA797  LYS798  CYS799  TRP800  GLU811  SER814 

> <Gold.Protein.RotatedAtoms>
  152.4711  133.8031  159.6963 H   0  0  0  0  0  0  0  0  0  0  0  0  # atno 6907 bound_to 6896
  150.8700  133.7509  159.2971 H   0  0  0  0  0  0  0  0  0  0  0  0  # atno 6908 bound_to 6896
  151.5047  135.1066  159.9890 H   0  0  0  0  0  0  0  0  0  0  0  0  # atno 6909 bound_to 6896
  144.7517  140.3865  143.6043 H   0  0  0  0  0  0  0  0  0  0  0  0  # atno 7974 bound_to 7965
  156.2158  140.3009  155.9836 H   0  0  0  0  0  0  0  0  0  0  0  0  # atno 8008 bound_to 7997
  155.2609  140.0429  157.3014 H   0  0  0  0  0  0  0  0  0  0  0  0  # atno 8009 bound_to 7997
  154.5765  140.2363  155.8123 H   0  0  0  0  0  0  0  0  0  0  0  0  # atno 8010 bound_to 7997
  139.5217  144.6517  151.5283 H   0  0  0  0  0  0  0  0  0  0  0  0  # atno 10167 bound_to 10162
  157.6477  130.9554  150.0861 H   0  0  0  0  0  0  0  0  0  0  0  0  # atno 10718 bound_to 10713
  154.1052  135.6557  153.4875 H   0  0  0  0  0  0  0  0  0  0  0  0  # atno 10763 bound_to 10752
  153.0275  135.5234  154.7246 H   0  0  0  0  0  0  0  0  0  0  0  0  # atno 10764 bound_to 10752
  154.6410  135.2988  155.0072 H   0  0  0  0  0  0  0  0  0  0  0  0  # atno 10765 bound_to 10752
  141.1656  133.7305  156.8750 H   0  0  0  0  0  0  0  0  0  0  0  0  # atno 11005 bound_to 11000
  145.6922  139.1642  143.2640 LP  0  0  0  0  0  0  0  0  0  0  0  0  # atno 17320 bound_to 7965
  146.1475  140.6972  142.9338 LP  0  0  0  0  0  0  0  0  0  0  0  0  # atno 17321 bound_to 7965
  140.6325  143.9049  150.6617 LP  0  0  0  0  0  0  0  0  0  0  0  0  # atno 17342 bound_to 10162
  140.2358  143.3701  152.1528 LP  0  0  0  0  0  0  0  0  0  0  0  0  # atno 17343 bound_to 10162
  156.1823  130.3650  149.9019 LP  0  0  0  0  0  0  0  0  0  0  0  0  # atno 17370 bound_to 10713
  156.6968  130.8917  151.3595 LP  0  0  0  0  0  0  0  0  0  0  0  0  # atno 17371 bound_to 10713
  140.1755  134.9070  157.2885 LP  0  0  0  0  0  0  0  0  0  0  0  0  # atno 17394 bound_to 11000
  140.2454  134.3746  155.7463 LP  0  0  0  0  0  0  0  0  0  0  0  0  # atno 17395 bound_to 11000

$$$$
