AV-unprocessed.smi:744|AV-procd|sdf|3570|dock7
  -GOLD-   22720 0563D 1   1.00000     0.00000
 Structure written by MMmdl.
 34 35  0  0  0  0  0  0  0  0  1 V2000
  144.3459  136.3610  152.2345 O   0  0  0  0  0  0  0  0  0  0  0  0
  145.5363  136.3322  151.9215 C   0  0  0  0  0  0  0  0  0  0  0  0
  146.3507  137.3940  152.0105 N   0  0  0  0  0  0  0  0  0  0  0  0
  145.9652  138.7228  152.4774 C   0  0  0  0  0  0  0  0  0  0  0  0
  147.1937  139.5928  152.8152 C   0  0  2  0  0  0  0  0  0  0  0  0
  148.0828  139.0200  153.9248 C   0  0  0  0  0  0  0  0  0  0  0  0
  148.9020  140.2067  154.4545 C   0  0  0  0  0  0  0  0  0  0  0  0
  148.2543  141.4769  153.8797 C   0  0  0  0  0  0  0  0  0  0  0  0
  146.9174  141.0339  153.2754 C   0  0  2  0  0  0  0  0  0  0  0  0
  145.9263  141.0753  154.2852 O   0  0  0  0  0  0  0  0  0  0  0  0
  146.1892  135.2563  151.4474 N   0  0  0  0  0  0  0  0  0  0  0  0
  145.6745  133.9547  151.2043 C   0  0  0  0  0  0  0  0  0  0  0  0
  144.2728  133.8864  151.0363 C   0  0  0  0  0  0  0  0  0  0  0  0
  143.6643  132.6403  150.7906 C   0  0  0  0  0  0  0  0  0  0  0  0
  144.4743  131.4928  150.7179 C   0  0  0  0  0  0  0  0  0  0  0  0
  145.8611  131.6478  150.8967 C   0  0  0  0  0  0  0  0  0  0  0  0
  146.4462  132.8411  151.1331 N   0  0  0  0  0  0  0  0  0  0  0  0
  147.3139  137.2760  151.7328 H   0  0  0  0  0  0  0  0  0  0  0  0
  145.3177  139.2238  151.7557 H   0  0  0  0  0  0  0  0  0  0  0  0
  145.3618  138.5901  153.3758 H   0  0  0  0  0  0  0  0  0  0  0  0
  147.8100  139.6567  151.9164 H   0  0  0  0  0  0  0  0  0  0  0  0
  147.4632  138.6209  154.7293 H   0  0  0  0  0  0  0  0  0  0  0  0
  148.7153  138.2070  153.5669 H   0  0  0  0  0  0  0  0  0  0  0  0
  148.8893  140.2190  155.5450 H   0  0  0  0  0  0  0  0  0  0  0  0
  149.9443  140.1365  154.1419 H   0  0  0  0  0  0  0  0  0  0  0  0
  148.1453  142.2676  154.6234 H   0  0  0  0  0  0  0  0  0  0  0  0
  148.8905  141.8705  153.0860 H   0  0  0  0  0  0  0  0  0  0  0  0
  146.6103  141.6793  152.4517 H   0  0  0  0  0  0  0  0  0  0  0  0
  145.1164  140.7445  153.9247 H   0  0  0  0  0  0  0  0  0  0  0  0
  147.1671  135.3832  151.2324 H   0  0  0  0  0  0  0  0  0  0  0  0
  143.6649  134.7779  151.0945 H   0  0  0  0  0  0  0  0  0  0  0  0
  142.5946  132.5671  150.6604 H   0  0  0  0  0  0  0  0  0  0  0  0
  144.0449  130.5200  150.5302 H   0  0  0  0  0  0  0  0  0  0  0  0
  146.5185  130.7923  150.8484 H   0  0  0  0  0  0  0  0  0  0  0  0
  1  2  2  0  0  0  0
  2  3  1  0  0  0  0
  2 11  1  0  0  0  0
  3  4  1  0  0  0  0
  3 18  1  0  0  0  0
  4  5  1  0  0  0  0
  4 19  1  0  0  0  0
  4 20  1  0  0  0  0
  5  9  1  0  0  0  0
  5  6  1  0  0  0  0
  5 21  1  0  0  0  0
  6  7  1  0  0  0  0
  6 22  1  0  0  0  0
  6 23  1  0  0  0  0
  7  8  1  0  0  0  0
  7 24  1  0  0  0  0
  7 25  1  0  0  0  0
  8  9  1  0  0  0  0
  8 26  1  0  0  0  0
  8 27  1  0  0  0  0
  9 10  1  0  0  0  0
  9 28  1  0  0  0  0
 10 29  1  0  0  0  0
 11 12  1  0  0  0  0
 11 30  1  0  0  0  0
 12 17  1  0  0  0  0
 12 13  2  0  0  0  0
 13 14  1  0  0  0  0
 13 31  1  0  0  0  0
 14 15  2  0  0  0  0
 14 32  1  0  0  0  0
 15 16  1  0  0  0  0
 15 33  1  0  0  0  0
 16 17  2  0  0  0  0
 16 34  1  0  0  0  0
M  END
> <s_m_source_file>
AV-unprocessed.smi

> <i_m_source_file_index>
744

> <i_lp_mmshare_version>
43012

> <i_f3d_flags>
0

> <s_epik_input>
bjFbY0hdW2NIXVtjSF1bY0hdYzFbTkhdQyg9TylbTkhdW0NIMl1bQ0BASF0yW0NIMl1bQ0gyXVtDSDJdW0NASF0yW09IXQ==

> <s_epik_cmdline>
J2VwaWtfcHl0aG9uJywgJy1waCcsICc3LjAnLCAnLXRuJywgJzgnLCAnLW1hJywgJzIwMCcsICctbWV0YWxfYmluZGluZycsICctaW1hZScsICc8aW5maWxlLm1hZT4nLCAnLW9tYWUnLCAnPG91dGZpbGUubWFlPic=

> <r_lp_tautomer_probability>
1

> <r_epik_Ionization_Penalty>
5.04769e-05

> <r_epik_Ionization_Penalty_Charging>
0

> <r_epik_Ionization_Penalty_Neutral>
5.04769e-05

> <r_epik_State_Penalty>
-0

> <r_epik_Charging_Adjusted_Penalty>
0

> <i_epik_Tot_Q>
0

> <i_epik_Tot_abs_Q>
0

> <r_epik_Metal_State_Penalty>
-0

> <b_epik_Metal_Only>
0

> <s_lp_Force_Field>
OPLS_2005

> <r_lp_Energy>
26.8719

> <b_lp_Chiralities_Consistent>
1

> <s_lp_Variant>
AV-unprocessed.smi:744-3

> <Gold.Version>
5.8.1

> <Gold.Id.Protein>
6NUR|6NUR_protein|mol2

> <Gold.PLP.Fitness>
41.4956

> <Gold.PLP.PLP>
-30.3415

> <Gold.PLP.part.hbond>
-3.0000

> <Gold.PLP.part.metal>
0.0000

> <Gold.PLP.part.buried>
-1.1951

> <Gold.PLP.part.nonpolar>
-27.6717

> <Gold.PLP.part.repulsive>
0.4849

> <Gold.PLP.ligand.clash>
0.0000

> <Gold.PLP.ligand.torsion>
0.1992

> <Gold.PLP.Chemscore.Hbond>
2.9360

> <Gold.PLP.Chemscore.CHOScore>
0.9144

> <Gold.PLP.Chemscore.Metal>
0.0000

> <Gold.Chemscore.Hbonds>
donor molecule, donor type, donor heavy atom, donor atom, acceptor molecule, acceptor atom, score
      L1  H     3    18       P1  7948  0.98
      L1  H    10    29       P1 10175  0.96
      L1  H    11    30       P1  7948  0.94
      L1  C    16    34       P1 10747  0.92

> <Gold.PLP.Chemscore.Internal.Correction>
0.0013

> <Gold.Rescore>
     Score         DG    S(hbond)    S(metal)    S(lipo)     H(rot)  DE(clash)    DE(int)     intcor
     16.62     -19.26       2.85        0.00      76.05       1.81       1.02       1.63       ----

> <Gold.Chemscore.Fitness>
16.6183

> <Gold.Chemscore.DG>
-19.2612

> <Gold.Chemscore.ZeroCoef>
-5.4800

> <Gold.Chemscore.Hbond>
2.8458

> <Gold.Chemscore.Metal>
0.0000

> <Gold.Chemscore.Lipo>
76.0482

> <Gold.Chemscore.Internal_Hbond>
0.0000

> <Gold.Chemscore.DEClash>
1.0168

> <Gold.Chemscore.DEInternal>
1.6262

> <Gold.Chemscore.Rot>
1.8052

> <Gold.Chemscore.Internal.Correction>
   9.000000E+99

> <Gold.Chemscore.Hbonds>
donor molecule, donor type, donor heavy atom, donor atom, acceptor molecule, acceptor atom, score
      L1  H     3    18       P1  7948  0.93
      L1  H    10    29       P1 10175  0.87
      L1  H    11    30       P1  7948  0.73

> <Gold.Chemscore.Hbond.Weighted>
-9.5048

> <Gold.Chemscore.Metal.Weighted>
-0.0000

> <Gold.Chemscore.Lipo.Weighted>
-8.8976

> <Gold.Chemscore.Internal_Hbond.Weighted>
0.0000

> <Gold.Chemscore.DEClash.Weighted>
1.0168

> <Gold.Chemscore.DEInternal.Weighted>
1.6262

> <Gold.Chemscore.Rot.Weighted>
4.6212

> <Gold.Chemscore.Internal.Correction.Weighted>
   9.000000E+99

> <Gold.Protein.RotatedTorsions>
[ 6907 6896 6895 6894 ] final -135.23 input  -60.11 | X-H torsion
[ 7974 7965 7964 7962 ] final  150.76 input  175.53 | X-H torsion
[ 8008 7997 7996 7995 ] final  -64.29 input   59.86 | X-H torsion
[ 10167 10162 10161 10158 ] final  117.68 input  -65.29 | X-H torsion
[ 10718 10713 10712 10709 ] final -122.73 input   66.30 | X-H torsion
[ 10763 10752 10751 10750 ] final  -54.89 input  -60.55 | X-H torsion
[ 11005 11000 10999 10996 ] final  121.25 input  -57.11 | X-H torsion

> <Gold.Protein.ActiveResidues>
 VAL166  LYS551  ARG553  GLY616  TRP617  ASP618  TYR619  PRO620  LYS621  CYS622 
 ASP623  PHE694  ASN695  SER759  ASP760  ASP761  ALA762  ILE779  LEU786  VAL792 
 PHE793  MET794  SER795  GLU796  ALA797  LYS798  CYS799  TRP800  GLU811  SER814 

> <Gold.Protein.RotatedAtoms>
  150.9954  133.6108  159.2702 H   0  0  0  0  0  0  0  0  0  0  0  0  # atno 6907 bound_to 6896
  151.3314  135.0841  159.9349 H   0  0  0  0  0  0  0  0  0  0  0  0  # atno 6908 bound_to 6896
  152.5258  133.9583  159.7759 H   0  0  0  0  0  0  0  0  0  0  0  0  # atno 6909 bound_to 6896
  144.8341  139.6449  143.6046 H   0  0  0  0  0  0  0  0  0  0  0  0  # atno 7974 bound_to 7965
  154.4603  140.0957  156.6875 H   0  0  0  0  0  0  0  0  0  0  0  0  # atno 8008 bound_to 7997
  155.5013  140.3473  155.4353 H   0  0  0  0  0  0  0  0  0  0  0  0  # atno 8009 bound_to 7997
  156.0858  140.1384  156.9644 H   0  0  0  0  0  0  0  0  0  0  0  0  # atno 8010 bound_to 7997
  139.6162  144.7092  151.2734 H   0  0  0  0  0  0  0  0  0  0  0  0  # atno 10167 bound_to 10162
  156.1442  130.6488  150.9818 H   0  0  0  0  0  0  0  0  0  0  0  0  # atno 10718 bound_to 10713
  154.1820  135.6441  153.5037 H   0  0  0  0  0  0  0  0  0  0  0  0  # atno 10763 bound_to 10752
  153.0057  135.5408  154.6504 H   0  0  0  0  0  0  0  0  0  0  0  0  # atno 10764 bound_to 10752
  154.5871  135.2930  155.0646 H   0  0  0  0  0  0  0  0  0  0  0  0  # atno 10765 bound_to 10752
  139.9218  134.9638  156.7930 H   0  0  0  0  0  0  0  0  0  0  0  0  # atno 11005 bound_to 11000
  146.2641  139.6480  142.9341 LP  0  0  0  0  0  0  0  0  0  0  0  0  # atno 17320 bound_to 7965
  145.4832  141.0438  143.2634 LP  0  0  0  0  0  0  0  0  0  0  0  0  # atno 17321 bound_to 7965
  140.7352  143.6743  150.8055 LP  0  0  0  0  0  0  0  0  0  0  0  0  # atno 17342 bound_to 10162
  140.0346  143.5408  152.2745 LP  0  0  0  0  0  0  0  0  0  0  0  0  # atno 17343 bound_to 10162
  157.6602  131.0882  150.7855 LP  0  0  0  0  0  0  0  0  0  0  0  0  # atno 17370 bound_to 10713
  156.7928  130.4895  149.5382 LP  0  0  0  0  0  0  0  0  0  0  0  0  # atno 17371 bound_to 10713
  140.6451  133.9782  155.7727 LP  0  0  0  0  0  0  0  0  0  0  0  0  # atno 17394 bound_to 11000
  141.0745  134.0155  157.3478 LP  0  0  0  0  0  0  0  0  0  0  0  0  # atno 17395 bound_to 11000

$$$$
