AV-unprocessed.smi:1488|AV-procd|sdf|6023|dock9
  -GOLD-   22720 6123D 1   1.00000     0.00000
 Structure written by MMmdl.
 36 37  0  0  0  0  0  0  0  0  1 V2000
  150.4458  140.7236  155.4012 C   0  0  0  0  0  0  0  0  0  0  0  0
  149.1604  140.6503  154.6508 C   0  0  0  0  0  0  0  0  0  0  0  0
  148.3259  139.6156  154.3333 C   0  0  0  0  0  0  0  0  0  0  0  0
  147.2857  140.2550  153.6078 C   0  0  0  0  0  0  0  0  0  0  0  0
  146.1954  139.5104  153.0899 N   0  0  0  0  0  0  0  0  0  0  0  0
  146.1755  138.2060  152.7665 C   0  0  0  0  0  0  0  0  0  0  0  0
  147.1304  137.4355  152.8694 O   0  0  0  0  0  0  0  0  0  0  0  0
  144.9723  137.8366  152.3030 N   0  0  0  0  0  0  0  0  0  0  0  0
  144.6220  136.4938  151.8495 C   0  0  2  0  0  0  0  0  0  0  0  0
  144.9353  135.4533  152.9426 C   0  0  0  0  0  0  0  0  0  0  0  0
  144.6422  134.0241  152.4589 C   0  0  0  0  0  0  0  0  0  0  0  0
  145.4087  133.6884  151.1619 C   0  0  1  0  0  0  0  0  0  0  0  0
  145.1278  132.2500  150.6797 C   0  0  0  0  0  0  0  0  0  0  0  0
  145.8547  131.9610  149.5998 F   0  0  0  0  0  0  0  0  0  0  0  0
  145.4240  131.3792  151.6444 F   0  0  0  0  0  0  0  0  0  0  0  0
  143.8363  132.1135  150.3789 F   0  0  0  0  0  0  0  0  0  0  0  0
  145.0901  134.7364  150.0744 C   0  0  0  0  0  0  0  0  0  0  0  0
  145.3883  136.1656  150.5559 C   0  0  0  0  0  0  0  0  0  0  0  0
  147.4700  141.5612  153.4907 N   0  0  0  0  0  0  0  0  0  0  0  0
  148.6727  141.8211  154.1580 O   0  0  0  0  0  0  0  0  0  0  0  0
  150.6372  139.7942  155.9377 H   0  0  0  0  0  0  0  0  0  0  0  0
  150.4241  141.5349  156.1290 H   0  0  0  0  0  0  0  0  0  0  0  0
  151.2793  140.9001  154.7214 H   0  0  0  0  0  0  0  0  0  0  0  0
  148.4428  138.5715  154.5833 H   0  0  0  0  0  0  0  0  0  0  0  0
  145.3416  140.0281  152.9443 H   0  0  0  0  0  0  0  0  0  0  0  0
  144.2458  138.5358  152.2543 H   0  0  0  0  0  0  0  0  0  0  0  0
  143.5537  136.4607  151.6264 H   0  0  0  0  0  0  0  0  0  0  0  0
  145.9836  135.5281  153.2358 H   0  0  0  0  0  0  0  0  0  0  0  0
  144.3493  135.6606  153.8387 H   0  0  0  0  0  0  0  0  0  0  0  0
  144.9074  133.3167  153.2450 H   0  0  0  0  0  0  0  0  0  0  0  0
  143.5700  133.9121  152.2940 H   0  0  0  0  0  0  0  0  0  0  0  0
  146.4754  133.7548  151.3822 H   0  0  0  0  0  0  0  0  0  0  0  0
  145.6698  134.5313  149.1741 H   0  0  0  0  0  0  0  0  0  0  0  0
  144.0405  134.6635  149.7871 H   0  0  0  0  0  0  0  0  0  0  0  0
  145.1229  136.8781  149.7738 H   0  0  0  0  0  0  0  0  0  0  0  0
  146.4612  136.2741  150.7217 H   0  0  0  0  0  0  0  0  0  0  0  0
  1  2  1  0  0  0  0
  1 21  1  0  0  0  0
  1 22  1  0  0  0  0
  1 23  1  0  0  0  0
  2 20  1  0  0  0  0
  2  3  2  0  0  0  0
  3  4  1  0  0  0  0
  3 24  1  0  0  0  0
  4  5  1  0  0  0  0
  4 19  2  0  0  0  0
  5  6  1  0  0  0  0
  5 25  1  0  0  0  0
  6  7  2  0  0  0  0
  6  8  1  0  0  0  0
  8  9  1  0  0  0  0
  8 26  1  0  0  0  0
  9 18  1  0  0  0  0
  9 10  1  0  0  0  0
  9 27  1  0  0  0  0
 10 11  1  0  0  0  0
 10 28  1  0  0  0  0
 10 29  1  0  0  0  0
 11 12  1  0  0  0  0
 11 30  1  0  0  0  0
 11 31  1  0  0  0  0
 12 13  1  0  0  0  0
 12 17  1  0  0  0  0
 12 32  1  0  0  0  0
 13 14  1  0  0  0  0
 13 15  1  0  0  0  0
 13 16  1  0  0  0  0
 17 18  1  0  0  0  0
 17 33  1  0  0  0  0
 17 34  1  0  0  0  0
 18 35  1  0  0  0  0
 18 36  1  0  0  0  0
 19 20  1  0  0  0  0
M  END
> <s_m_source_file>
AV-unprocessed.smi

> <i_m_source_file_index>
1488

> <i_lp_mmshare_version>
43012

> <i_f3d_flags>
0

> <s_epik_input>
W0NIM11jMVtjSF1jKG5vMSlbTkhdQyg9TylbTkhdW0NAQEhdMltDSDJdW0NIMl1bQ0BASF0oQyhGKShGKUYpW0NIMl1bQ0gyXTI=

> <s_epik_cmdline>
J2VwaWtfcHl0aG9uJywgJy1waCcsICc3LjAnLCAnLXRuJywgJzgnLCAnLW1hJywgJzIwMCcsICctbWV0YWxfYmluZGluZycsICctaW1hZScsICc8aW5maWxlLm1hZT4nLCAnLW9tYWUnLCAnPG91dGZpbGUubWFlPic=

> <r_lp_tautomer_probability>
1

> <r_epik_Ionization_Penalty>
2.30349e-05

> <r_epik_Ionization_Penalty_Charging>
0

> <r_epik_Ionization_Penalty_Neutral>
2.30349e-05

> <r_epik_State_Penalty>
-0

> <r_epik_Charging_Adjusted_Penalty>
0

> <i_epik_Tot_Q>
0

> <i_epik_Tot_abs_Q>
0

> <r_epik_Metal_State_Penalty>
-0

> <b_epik_Metal_Only>
0

> <s_lp_Force_Field>
OPLS_2005

> <r_lp_Energy>
8.97319

> <b_lp_Chiralities_Consistent>
1

> <s_lp_Variant>
AV-unprocessed.smi:1488-1

> <Gold.Version>
5.8.1

> <Gold.Id.Protein>
6NUR|6NUR_protein|mol2

> <Gold.PLP.Fitness>
37.1918

> <Gold.PLP.PLP>
-30.6718

> <Gold.PLP.part.hbond>
-4.0000

> <Gold.PLP.part.metal>
0.0000

> <Gold.PLP.part.buried>
-0.7693

> <Gold.PLP.part.nonpolar>
-29.9778

> <Gold.PLP.part.repulsive>
4.8512

> <Gold.PLP.ligand.clash>
0.0000

> <Gold.PLP.ligand.torsion>
0.1902

> <Gold.PLP.Chemscore.Hbond>
2.2946

> <Gold.PLP.Chemscore.CHOScore>
0.0000

> <Gold.PLP.Chemscore.Metal>
0.0000

> <Gold.Chemscore.Hbonds>
donor molecule, donor type, donor heavy atom, donor atom, acceptor molecule, acceptor atom, score
      L1  H     5    25       P1 10175  1.00
      L1  H     8    26       P1 10175  1.00
      P1  H  8011  8017       L1    20  0.19

> <Gold.PLP.Chemscore.Internal.Correction>
0.0167

> <Gold.Rescore>
     Score         DG    S(hbond)    S(metal)    S(lipo)     H(rot)  DE(clash)    DE(int)     intcor
     10.51     -14.88       1.83        0.00      50.03       1.00       1.53       2.84       ----

> <Gold.Chemscore.Fitness>
10.5135

> <Gold.Chemscore.DG>
-14.8840

> <Gold.Chemscore.ZeroCoef>
-5.4800

> <Gold.Chemscore.Hbond>
1.8297

> <Gold.Chemscore.Metal>
0.0000

> <Gold.Chemscore.Lipo>
50.0252

> <Gold.Chemscore.Internal_Hbond>
0.0000

> <Gold.Chemscore.DEClash>
1.5285

> <Gold.Chemscore.DEInternal>
2.8421

> <Gold.Chemscore.Rot>
1.0000

> <Gold.Chemscore.Internal.Correction>
   9.000000E+99

> <Gold.Chemscore.Hbonds>
donor molecule, donor type, donor heavy atom, donor atom, acceptor molecule, acceptor atom, score
      L1  H     5    25       P1 10175  1.00
      L1  H     8    26       P1 10175  0.91
      P1  H  8011  8017       L1    20  0.02

> <Gold.Chemscore.Hbond.Weighted>
-6.1111

> <Gold.Chemscore.Metal.Weighted>
-0.0000

> <Gold.Chemscore.Lipo.Weighted>
-5.8530

> <Gold.Chemscore.Internal_Hbond.Weighted>
0.0000

> <Gold.Chemscore.DEClash.Weighted>
1.5285

> <Gold.Chemscore.DEInternal.Weighted>
2.8421

> <Gold.Chemscore.Rot.Weighted>
2.5600

> <Gold.Chemscore.Internal.Correction.Weighted>
   9.000000E+99

> <Gold.Protein.RotatedTorsions>
[ 6907 6896 6895 6894 ] final   -5.14 input  -60.11 | X-H torsion
[ 7974 7965 7964 7962 ] final  177.24 input  175.53 | X-H torsion
[ 8008 7997 7996 7995 ] final  -72.47 input   59.86 | X-H torsion
[ 10167 10162 10161 10158 ] final   55.48 input  -65.29 | X-H torsion
[ 10718 10713 10712 10709 ] final -160.33 input   66.30 | X-H torsion
[ 10763 10752 10751 10750 ] final  154.81 input  -60.55 | X-H torsion
[ 11005 11000 10999 10996 ] final   97.58 input  -57.11 | X-H torsion

> <Gold.Protein.ActiveResidues>
 VAL166  LYS551  ARG553  GLY616  TRP617  ASP618  TYR619  PRO620  LYS621  CYS622 
 ASP623  PHE694  ASN695  SER759  ASP760  ASP761  ALA762  ILE779  LEU786  VAL792 
 PHE793  MET794  SER795  GLU796  ALA797  LYS798  CYS799  TRP800  GLU811  SER814 

> <Gold.Protein.RotatedAtoms>
  151.4864  135.1055  159.9791 H   0  0  0  0  0  0  0  0  0  0  0  0  # atno 6907 bound_to 6896
  152.4759  133.8132  159.7025 H   0  0  0  0  0  0  0  0  0  0  0  0  # atno 6908 bound_to 6896
  150.8796  133.7328  159.2962 H   0  0  0  0  0  0  0  0  0  0  0  0  # atno 6909 bound_to 6896
  144.7172  140.0218  143.6440 H   0  0  0  0  0  0  0  0  0  0  0  0  # atno 7974 bound_to 7965
  154.5169  140.0796  156.8098 H   0  0  0  0  0  0  0  0  0  0  0  0  # atno 8008 bound_to 7997
  155.3661  140.3420  155.4224 H   0  0  0  0  0  0  0  0  0  0  0  0  # atno 8009 bound_to 7997
  156.1638  140.1597  156.8554 H   0  0  0  0  0  0  0  0  0  0  0  0  # atno 8010 bound_to 7997
  140.2189  144.3809  150.6458 H   0  0  0  0  0  0  0  0  0  0  0  0  # atno 10167 bound_to 10162
  156.5806  130.8728  151.2863 H   0  0  0  0  0  0  0  0  0  0  0  0  # atno 10718 bound_to 10713
  154.1583  135.2811  155.3116 H   0  0  0  0  0  0  0  0  0  0  0  0  # atno 10763 bound_to 10752
  154.6166  135.5481  153.7533 H   0  0  0  0  0  0  0  0  0  0  0  0  # atno 10764 bound_to 10752
  153.0200  135.6428  154.1726 H   0  0  0  0  0  0  0  0  0  0  0  0  # atno 10765 bound_to 10752
  139.8775  134.9007  156.4328 H   0  0  0  0  0  0  0  0  0  0  0  0  # atno 11005 bound_to 11000
  146.0174  139.3222  143.0833 LP  0  0  0  0  0  0  0  0  0  0  0  0  # atno 17320 bound_to 7965
  145.8609  140.9476  143.0701 LP  0  0  0  0  0  0  0  0  0  0  0  0  # atno 17321 bound_to 7965
  140.6269  143.2182  151.6577 LP  0  0  0  0  0  0  0  0  0  0  0  0  # atno 17342 bound_to 10162
  139.5151  144.3388  152.0759 LP  0  0  0  0  0  0  0  0  0  0  0  0  # atno 17343 bound_to 10162
  157.7327  130.9720  150.1943 LP  0  0  0  0  0  0  0  0  0  0  0  0  # atno 17370 bound_to 10713
  156.2635  130.3713  149.8106 LP  0  0  0  0  0  0  0  0  0  0  0  0  # atno 17371 bound_to 10713
  140.9055  133.7749  155.9730 LP  0  0  0  0  0  0  0  0  0  0  0  0  # atno 17394 bound_to 11000
  140.8604  134.2847  157.5237 LP  0  0  0  0  0  0  0  0  0  0  0  0  # atno 17395 bound_to 11000

$$$$
