AV-unprocessed.smi:3348|AV-procd|sdf|12915|dock9
  -GOLD-   2272019333D 1   1.00000     0.00000
 Structure written by MMmdl.
 47 48  0  0  0  0  0  0  0  0  2 V2000
  145.1089  136.0150  153.4141 C   0  0  0  0  0  0  0  0  0  0  0  0
  144.5929  136.6134  152.0984 C   0  0  2  0  0  0  0  0  0  0  0  0
  145.0899  135.7815  150.8956 C   0  0  0  0  0  0  0  0  0  0  0  0
  144.9865  134.3480  151.1002 N   0  0  0  0  0  0  0  0  0  0  0  0
  143.8478  133.5743  151.1826 C   0  0  0  0  0  0  0  0  0  0  0  0
  144.2472  132.2820  151.3683 C   0  0  0  0  0  0  0  0  0  0  0  0
  145.6678  132.3646  151.3751 C   0  0  0  0  0  0  0  0  0  0  0  0
  146.1070  133.6023  151.2116 N   0  0  0  0  0  0  0  0  0  0  0  0
  145.0353  138.0234  152.0010 N   0  3  0  0  0  0  0  0  0  0  0  0
  146.4981  138.2334  152.0427 C   0  0  0  0  0  0  0  0  0  0  0  0
  146.9345  138.7533  153.4151 C   0  0  0  0  0  0  0  0  0  0  0  0
  148.3534  138.7532  153.4678 O   0  0  0  0  0  0  0  0  0  0  0  0
  148.9009  139.3516  154.6365 C   0  0  2  0  0  0  0  0  0  0  0  0
  148.4302  140.8190  154.7308 C   0  0  0  0  0  0  0  0  0  0  0  0
  149.1039  141.5553  155.8976 C   0  0  0  0  0  0  0  0  0  0  0  0
  150.6326  141.4810  155.7856 C   0  0  0  0  0  0  0  0  0  0  0  0
  151.1083  140.0230  155.7033 C   0  0  0  0  0  0  0  0  0  0  0  0
  150.4414  139.2677  154.5356 C   0  0  1  0  0  0  0  0  0  0  0  0
  150.9312  137.8112  154.4852 C   0  0  0  0  0  0  0  0  0  0  0  0
  144.7740  134.9843  153.5348 H   0  0  0  0  0  0  0  0  0  0  0  0
  144.7442  136.5795  154.2729 H   0  0  0  0  0  0  0  0  0  0  0  0
  146.1989  136.0167  153.4525 H   0  0  0  0  0  0  0  0  0  0  0  0
  143.5028  136.5802  152.1385 H   0  0  0  0  0  0  0  0  0  0  0  0
  144.5350  136.0463  149.9945 H   0  0  0  0  0  0  0  0  0  0  0  0
  146.1367  136.0109  150.6904 H   0  0  0  0  0  0  0  0  0  0  0  0
  142.8588  134.0016  151.1046 H   0  0  0  0  0  0  0  0  0  0  0  0
  143.6205  131.4091  151.4770 H   0  0  0  0  0  0  0  0  0  0  0  0
  146.3874  131.5675  151.4917 H   0  0  0  0  0  0  0  0  0  0  0  0
  144.7151  138.3835  151.1130 H   0  0  0  0  0  0  0  0  0  0  0  0
  147.0097  137.2944  151.8361 H   0  0  0  0  0  0  0  0  0  0  0  0
  146.7937  138.9376  151.2639 H   0  0  0  0  0  0  0  0  0  0  0  0
  146.5255  139.7492  153.5863 H   0  0  0  0  0  0  0  0  0  0  0  0
  146.5420  138.1001  154.1958 H   0  0  0  0  0  0  0  0  0  0  0  0
  148.5822  138.8044  155.5262 H   0  0  0  0  0  0  0  0  0  0  0  0
  148.6573  141.3362  153.7976 H   0  0  0  0  0  0  0  0  0  0  0  0
  147.3490  140.8704  154.8548 H   0  0  0  0  0  0  0  0  0  0  0  0
  148.7824  142.5971  155.9162 H   0  0  0  0  0  0  0  0  0  0  0  0
  148.7832  141.1150  156.8426 H   0  0  0  0  0  0  0  0  0  0  0  0
  150.9635  142.0257  154.9003 H   0  0  0  0  0  0  0  0  0  0  0  0
  151.0925  141.9740  156.6424 H   0  0  0  0  0  0  0  0  0  0  0  0
  152.1929  140.0013  155.5908 H   0  0  0  0  0  0  0  0  0  0  0  0
  150.8873  139.5172  156.6443 H   0  0  0  0  0  0  0  0  0  0  0  0
  150.7474  139.7525  153.6072 H   0  0  0  0  0  0  0  0  0  0  0  0
  150.6508  137.2674  155.3879 H   0  0  0  0  0  0  0  0  0  0  0  0
  152.0168  137.7660  154.3944 H   0  0  0  0  0  0  0  0  0  0  0  0
  150.5113  137.2781  153.6320 H   0  0  0  0  0  0  0  0  0  0  0  0
  144.5956  138.5568  152.7372 H   0  0  0  0  0  0  0  0  0  0  0  0
  1  2  1  0  0  0  0
  1 20  1  0  0  0  0
  1 21  1  0  0  0  0
  1 22  1  0  0  0  0
  2  3  1  0  0  0  0
  2  9  1  0  0  0  0
  2 23  1  0  0  0  0
  3  4  1  0  0  0  0
  3 24  1  0  0  0  0
  3 25  1  0  0  0  0
  4  8  1  0  0  0  0
  4  5  1  0  0  0  0
  5  6  2  0  0  0  0
  5 26  1  0  0  0  0
  6  7  1  0  0  0  0
  6 27  1  0  0  0  0
  7  8  2  0  0  0  0
  7 28  1  0  0  0  0
  9 10  1  0  0  0  0
  9 29  1  0  0  0  0
  9 47  1  0  0  0  0
 10 11  1  0  0  0  0
 10 30  1  0  0  0  0
 10 31  1  0  0  0  0
 11 12  1  0  0  0  0
 11 32  1  0  0  0  0
 11 33  1  0  0  0  0
 12 13  1  0  0  0  0
 13 18  1  0  0  0  0
 13 14  1  0  0  0  0
 13 34  1  0  0  0  0
 14 15  1  0  0  0  0
 14 35  1  0  0  0  0
 14 36  1  0  0  0  0
 15 16  1  0  0  0  0
 15 37  1  0  0  0  0
 15 38  1  0  0  0  0
 16 17  1  0  0  0  0
 16 39  1  0  0  0  0
 16 40  1  0  0  0  0
 17 18  1  0  0  0  0
 17 41  1  0  0  0  0
 17 42  1  0  0  0  0
 18 19  1  0  0  0  0
 18 43  1  0  0  0  0
 19 44  1  0  0  0  0
 19 45  1  0  0  0  0
 19 46  1  0  0  0  0
M  CHG  1   9   1
M  END
> <s_m_source_file>
AV-unprocessed.smi

> <i_m_source_file_index>
3348

> <i_lp_mmshare_version>
43012

> <i_f3d_flags>
0

> <s_epik_input>
bjFbY0hdW2NIXVtjSF1uMVtDSDJdW0NAQEhdKFtDSDNdKVtOSF1bQ0gyXVtDSDJdT1tDQEBIXTJbQ0gyXVtDSDJdW0NIMl1bQ0gyXVtDQEhdMltDSDNd

> <s_epik_cmdline>
J2VwaWtfcHl0aG9uJywgJy1waCcsICc3LjAnLCAnLXRuJywgJzgnLCAnLW1hJywgJzIwMCcsICctbWV0YWxfYmluZGluZycsICctaW1hZScsICc8aW5maWxlLm1hZT4nLCAnLW9tYWUnLCAnPG91dGZpbGUubWFlPic=

> <r_lp_tautomer_probability>
1

> <r_epik_Ionization_Penalty>
0.00925088

> <r_epik_Ionization_Penalty_Charging>
0.00924645

> <r_epik_Ionization_Penalty_Neutral>
4.42413e-06

> <r_epik_State_Penalty>
0.0070118

> <r_epik_Charging_Adjusted_Penalty>
0.0162583

> <i_epik_Tot_Q>
1

> <i_epik_Tot_abs_Q>
1

> <r_epik_Metal_State_Penalty>
0.00701222

> <b_epik_Metal_Only>
0

> <s_lp_Force_Field>
OPLS_2005

> <r_lp_Energy>
16.8222

> <b_lp_Chiralities_Consistent>
1

> <s_lp_Variant>
AV-unprocessed.smi:3348-1

> <Gold.Version>
5.8.1

> <Gold.Id.Protein>
6NUR|6NUR_protein|mol2

> <Gold.PLP.Fitness>
46.2503

> <Gold.PLP.PLP>
-37.1877

> <Gold.PLP.part.hbond>
-2.0000

> <Gold.PLP.part.metal>
0.0000

> <Gold.PLP.part.buried>
-4.6562

> <Gold.PLP.part.nonpolar>
-33.9237

> <Gold.PLP.part.repulsive>
2.4457

> <Gold.PLP.ligand.clash>
0.0000

> <Gold.PLP.ligand.torsion>
0.5275

> <Gold.PLP.Chemscore.Hbond>
1.3510

> <Gold.PLP.Chemscore.CHOScore>
1.9999

> <Gold.PLP.Chemscore.Metal>
0.0000

> <Gold.Chemscore.Hbonds>
donor molecule, donor type, donor heavy atom, donor atom, acceptor molecule, acceptor atom, score
      L1  H     9    29       P1 10171  1.00
      L1  H     9    47       P1 10175  0.73
      L1  C     5    26       P1 10186  1.00

> <Gold.PLP.Chemscore.Internal.Correction>
0.0649

> <Gold.Rescore>
     Score         DG    S(hbond)    S(metal)    S(lipo)     H(rot)  DE(clash)    DE(int)     intcor
     14.88     -15.43       1.05        0.00      94.88       1.82       0.10       0.44       ----

> <Gold.Chemscore.Fitness>
14.8806

> <Gold.Chemscore.DG>
-15.4283

> <Gold.Chemscore.ZeroCoef>
-5.4800

> <Gold.Chemscore.Hbond>
1.0470

> <Gold.Chemscore.Metal>
0.0000

> <Gold.Chemscore.Lipo>
94.8801

> <Gold.Chemscore.Internal_Hbond>
0.0000

> <Gold.Chemscore.DEClash>
0.1049

> <Gold.Chemscore.DEInternal>
0.4428

> <Gold.Chemscore.Rot>
1.8163

> <Gold.Chemscore.Internal.Correction>
   9.000000E+99

> <Gold.Chemscore.Hbonds>
donor molecule, donor type, donor heavy atom, donor atom, acceptor molecule, acceptor atom, score
      L1  H     9    29       P1 10171  0.96
      L1  H     9    47       P1 10175  0.37

> <Gold.Chemscore.Hbond.Weighted>
-3.4971

> <Gold.Chemscore.Metal.Weighted>
-0.0000

> <Gold.Chemscore.Lipo.Weighted>
-11.1010

> <Gold.Chemscore.Internal_Hbond.Weighted>
0.0000

> <Gold.Chemscore.DEClash.Weighted>
0.1049

> <Gold.Chemscore.DEInternal.Weighted>
0.4428

> <Gold.Chemscore.Rot.Weighted>
4.6497

> <Gold.Chemscore.Internal.Correction.Weighted>
   9.000000E+99

> <Gold.Protein.RotatedTorsions>
[ 6907 6896 6895 6894 ] final  169.98 input  -60.11 | X-H torsion
[ 7974 7965 7964 7962 ] final  175.93 input  175.53 | X-H torsion
[ 8008 7997 7996 7995 ] final    9.73 input   59.86 | X-H torsion
[ 10167 10162 10161 10158 ] final   25.85 input  -65.29 | X-H torsion
[ 10718 10713 10712 10709 ] final   57.07 input   66.30 | X-H torsion
[ 10763 10752 10751 10750 ] final -149.40 input  -60.55 | X-H torsion
[ 11005 11000 10999 10996 ] final   14.79 input  -57.11 | X-H torsion

> <Gold.Protein.ActiveResidues>
 VAL166  LYS551  ARG553  GLY616  TRP617  ASP618  TYR619  PRO620  LYS621  CYS622 
 ASP623  PHE694  ASN695  SER759  ASP760  ASP761  ALA762  ILE779  LEU786  VAL792 
 PHE793  MET794  SER795  GLU796  ALA797  LYS798  CYS799  TRP800  GLU811  SER814 

> <Gold.Protein.RotatedAtoms>
  151.8234  133.3398  159.3590 H   0  0  0  0  0  0  0  0  0  0  0  0  # atno 6907 bound_to 6896
  150.7287  134.5552  159.5824 H   0  0  0  0  0  0  0  0  0  0  0  0  # atno 6908 bound_to 6896
  152.2989  134.7635  160.0413 H   0  0  0  0  0  0  0  0  0  0  0  0  # atno 6909 bound_to 6896
  144.7193  140.0020  143.6440 H   0  0  0  0  0  0  0  0  0  0  0  0  # atno 7974 bound_to 7965
  154.7839  140.2823  155.6043 H   0  0  0  0  0  0  0  0  0  0  0  0  # atno 8008 bound_to 7997
  156.2954  140.2618  156.2599 H   0  0  0  0  0  0  0  0  0  0  0  0  # atno 8009 bound_to 7997
  154.9752  140.0375  157.2242 H   0  0  0  0  0  0  0  0  0  0  0  0  # atno 8010 bound_to 7997
  140.5072  144.0219  150.6357 H   0  0  0  0  0  0  0  0  0  0  0  0  # atno 10167 bound_to 10162
  157.5484  130.8747  149.8926 H   0  0  0  0  0  0  0  0  0  0  0  0  # atno 10718 bound_to 10713
  154.8179  135.3310  154.7123 H   0  0  0  0  0  0  0  0  0  0  0  0  # atno 10763 bound_to 10752
  153.7761  135.6922  153.4901 H   0  0  0  0  0  0  0  0  0  0  0  0  # atno 10764 bound_to 10752
  153.2012  135.4515  155.0216 H   0  0  0  0  0  0  0  0  0  0  0  0  # atno 10765 bound_to 10752
  140.4655  134.1084  155.7723 H   0  0  0  0  0  0  0  0  0  0  0  0  # atno 11005 bound_to 11000
  146.0328  139.3350  143.0745 LP  0  0  0  0  0  0  0  0  0  0  0  0  # atno 17320 bound_to 7965
  145.8432  140.9569  143.0788 LP  0  0  0  0  0  0  0  0  0  0  0  0  # atno 17321 bound_to 7965
  140.3532  143.2951  152.0465 LP  0  0  0  0  0  0  0  0  0  0  0  0  # atno 17342 bound_to 10162
  139.4887  144.6359  151.6977 LP  0  0  0  0  0  0  0  0  0  0  0  0  # atno 17343 bound_to 10162
  156.0555  130.3709  150.1101 LP  0  0  0  0  0  0  0  0  0  0  0  0  # atno 17370 bound_to 10713
  156.9276  130.9703  151.3538 LP  0  0  0  0  0  0  0  0  0  0  0  0  # atno 17371 bound_to 10713
  141.1601  133.8808  157.1870 LP  0  0  0  0  0  0  0  0  0  0  0  0  # atno 17394 bound_to 11000
  139.9918  135.0062  156.9992 LP  0  0  0  0  0  0  0  0  0  0  0  0  # atno 17395 bound_to 11000

$$$$
