AV-unprocessed.smi:1820|AV-procd|sdf|7385|dock8
  -GOLD-   22720 9 53D 1   1.00000     0.00000
 Structure written by MMmdl.
 35 36  0  0  0  0  0  0  0  0  2 V2000
  145.3681  138.2859  153.8401 O   0  0  0  0  0  0  0  0  0  0  0  0
  146.3708  137.8142  153.3045 C   0  0  0  0  0  0  0  0  0  0  0  0
  146.3846  136.6381  152.6623 N   0  0  0  0  0  0  0  0  0  0  0  0
  145.2234  135.7745  152.4646 C   0  0  0  0  0  0  0  0  0  0  0  0
  145.1366  135.1952  151.0288 C   0  0  0  0  0  0  0  0  0  0  0  0
  145.2231  136.2668  150.1096 O   0  0  0  0  0  0  0  0  0  0  0  0
  146.1711  134.1031  150.7124 C   0  0  0  0  0  0  0  0  0  0  0  0
  145.5730  132.8171  151.2911 C   0  0  0  0  0  0  0  0  0  0  0  0
  144.0495  133.0203  151.2878 C   0  0  0  0  0  0  0  0  0  0  0  0
  143.8074  134.4589  150.8087 C   0  0  0  0  0  0  0  0  0  0  0  0
  147.5872  138.3863  153.2949 N   0  0  0  0  0  0  0  0  0  0  0  0
  147.9854  139.6335  153.8488 C   0  0  0  0  0  0  0  0  0  0  0  0
  147.0404  140.6836  153.8372 C   0  0  0  0  0  0  0  0  0  0  0  0
  147.3844  141.9360  154.3855 C   0  0  0  0  0  0  0  0  0  0  0  0
  148.6075  142.1199  154.9268 N   0  3  0  0  0  0  0  0  0  0  0  0
  149.5381  141.1429  154.9760 C   0  0  0  0  0  0  0  0  0  0  0  0
  149.2518  139.8696  154.4426 C   0  0  0  0  0  0  0  0  0  0  0  0
  147.2541  136.3253  152.2563 H   0  0  0  0  0  0  0  0  0  0  0  0
  145.3251  134.9605  153.1827 H   0  0  0  0  0  0  0  0  0  0  0  0
  144.2977  136.2872  152.7331 H   0  0  0  0  0  0  0  0  0  0  0  0
  144.6439  136.9562  150.3958 H   0  0  0  0  0  0  0  0  0  0  0  0
  146.2604  133.9870  149.6310 H   0  0  0  0  0  0  0  0  0  0  0  0
  147.1725  134.3100  151.0896 H   0  0  0  0  0  0  0  0  0  0  0  0
  145.8736  131.9389  150.7188 H   0  0  0  0  0  0  0  0  0  0  0  0
  145.9213  132.6744  152.3149 H   0  0  0  0  0  0  0  0  0  0  0  0
  143.5470  132.3017  150.6395 H   0  0  0  0  0  0  0  0  0  0  0  0
  143.6540  132.8816  152.2947 H   0  0  0  0  0  0  0  0  0  0  0  0
  142.9663  134.9344  151.3149 H   0  0  0  0  0  0  0  0  0  0  0  0
  143.5669  134.4323  149.7443 H   0  0  0  0  0  0  0  0  0  0  0  0
  148.3289  137.8374  152.8856 H   0  0  0  0  0  0  0  0  0  0  0  0
  146.0604  140.5363  153.4067 H   0  0  0  0  0  0  0  0  0  0  0  0
  146.7216  142.7886  154.4090 H   0  0  0  0  0  0  0  0  0  0  0  0
  150.4766  141.4049  155.4422 H   0  0  0  0  0  0  0  0  0  0  0  0
  150.0046  139.0993  154.5108 H   0  0  0  0  0  0  0  0  0  0  0  0
  148.8366  143.0334  155.3194 H   0  0  0  0  0  0  0  0  0  0  0  0
  1  2  2  0  0  0  0
  2  3  1  0  0  0  0
  2 11  1  0  0  0  0
  3  4  1  0  0  0  0
  3 18  1  0  0  0  0
  4  5  1  0  0  0  0
  4 19  1  0  0  0  0
  4 20  1  0  0  0  0
  5 10  1  0  0  0  0
  5  6  1  0  0  0  0
  5  7  1  0  0  0  0
  6 21  1  0  0  0  0
  7  8  1  0  0  0  0
  7 22  1  0  0  0  0
  7 23  1  0  0  0  0
  8  9  1  0  0  0  0
  8 24  1  0  0  0  0
  8 25  1  0  0  0  0
  9 10  1  0  0  0  0
  9 26  1  0  0  0  0
  9 27  1  0  0  0  0
 10 28  1  0  0  0  0
 10 29  1  0  0  0  0
 11 12  1  0  0  0  0
 11 30  1  0  0  0  0
 12 17  1  0  0  0  0
 12 13  2  0  0  0  0
 13 14  1  0  0  0  0
 13 31  1  0  0  0  0
 14 15  2  0  0  0  0
 14 32  1  0  0  0  0
 15 16  1  0  0  0  0
 15 35  1  0  0  0  0
 16 17  2  0  0  0  0
 16 33  1  0  0  0  0
 17 34  1  0  0  0  0
M  CHG  1  15   1
M  END
> <s_m_source_file>
AV-unprocessed.smi

> <i_m_source_file_index>
1820

> <i_lp_mmshare_version>
43012

> <i_f3d_flags>
0

> <s_epik_input>
W2NIXTFbY0hdbltjSF1bY0hdYzFbTkhdQyg9TylbTkhdW0NIMl1DMihbT0hdKVtDSDJdW0NIMl1bQ0gyXVtDSDJdMg==

> <s_epik_cmdline>
J2VwaWtfcHl0aG9uJywgJy1waCcsICc3LjAnLCAnLXRuJywgJzgnLCAnLW1hJywgJzIwMCcsICctbWV0YWxfYmluZGluZycsICctaW1hZScsICc8aW5maWxlLm1hZT4nLCAnLW9tYWUnLCAnPG91dGZpbGUubWFlPic=

> <r_epik_Ionization_Penalty>
0.972463

> <r_epik_Ionization_Penalty_Charging>
0.972441

> <r_epik_Ionization_Penalty_Neutral>
2.25054e-05

> <r_epik_State_Penalty>
1.01855

> <r_epik_Charging_Adjusted_Penalty>
1.99099

> <i_epik_Tot_Q>
1

> <i_epik_Tot_abs_Q>
1

> <r_epik_Metal_State_Penalty>
1.12508

> <b_epik_Metal_Only>
0

> <s_lp_Force_Field>
OPLS_2005

> <r_lp_Energy>
34.043

> <b_lp_Chiralities_Consistent>
1

> <s_lp_Variant>
AV-unprocessed.smi:1820-2

> <Gold.Version>
5.8.1

> <Gold.Id.Protein>
6NUR|6NUR_protein|mol2

> <Gold.PLP.Fitness>
45.9500

> <Gold.PLP.PLP>
-31.8279

> <Gold.PLP.part.hbond>
-5.1023

> <Gold.PLP.part.metal>
0.0000

> <Gold.PLP.part.buried>
-4.1195

> <Gold.PLP.part.nonpolar>
-24.0742

> <Gold.PLP.part.repulsive>
1.3323

> <Gold.PLP.ligand.clash>
0.0000

> <Gold.PLP.ligand.torsion>
0.4196

> <Gold.PLP.Chemscore.Hbond>
4.9840

> <Gold.PLP.Chemscore.CHOScore>
0.0000

> <Gold.PLP.Chemscore.Metal>
0.0000

> <Gold.Chemscore.Hbonds>
donor molecule, donor type, donor heavy atom, donor atom, acceptor molecule, acceptor atom, score
      L1  H     3    18       P1  7948  1.00
      L1  H     6    21       P1 10171  0.82
      L1  H    11    30       P1  7948  1.00
      L1  H    15    35       P1  8028  2.00

> <Gold.PLP.Chemscore.Internal.Correction>
0.0094

> <Gold.Rescore>
     Score         DG    S(hbond)    S(metal)    S(lipo)     H(rot)  DE(clash)    DE(int)     intcor
     19.83     -22.04       3.93        0.00      68.54       1.79       0.51       1.69       ----

> <Gold.Chemscore.Fitness>
19.8336

> <Gold.Chemscore.DG>
-22.0378

> <Gold.Chemscore.ZeroCoef>
-5.4800

> <Gold.Chemscore.Hbond>
3.9252

> <Gold.Chemscore.Metal>
0.0000

> <Gold.Chemscore.Lipo>
68.5397

> <Gold.Chemscore.Internal_Hbond>
0.0000

> <Gold.Chemscore.DEClash>
0.5137

> <Gold.Chemscore.DEInternal>
1.6904

> <Gold.Chemscore.Rot>
1.7858

> <Gold.Chemscore.Internal.Correction>
   9.000000E+99

> <Gold.Chemscore.Hbonds>
donor molecule, donor type, donor heavy atom, donor atom, acceptor molecule, acceptor atom, score
      L1  H     3    18       P1  7948  1.00
      L1  H     6    21       P1 10171  0.81
      L1  H    11    30       P1  7948  0.94
      L1  H    15    35       P1  8028  1.00

> <Gold.Chemscore.Hbond.Weighted>
-13.1103

> <Gold.Chemscore.Metal.Weighted>
-0.0000

> <Gold.Chemscore.Lipo.Weighted>
-8.0191

> <Gold.Chemscore.Internal_Hbond.Weighted>
0.0000

> <Gold.Chemscore.DEClash.Weighted>
0.5137

> <Gold.Chemscore.DEInternal.Weighted>
1.6904

> <Gold.Chemscore.Rot.Weighted>
4.5717

> <Gold.Chemscore.Internal.Correction.Weighted>
   9.000000E+99

> <Gold.Protein.RotatedTorsions>
[ 6907 6896 6895 6894 ] final  -70.84 input  -60.11 | X-H torsion
[ 7974 7965 7964 7962 ] final  -11.22 input  175.53 | X-H torsion
[ 8008 7997 7996 7995 ] final -164.49 input   59.86 | X-H torsion
[ 10167 10162 10161 10158 ] final   27.85 input  -65.29 | X-H torsion
[ 10718 10713 10712 10709 ] final   60.08 input   66.30 | X-H torsion
[ 10763 10752 10751 10750 ] final  -64.26 input  -60.55 | X-H torsion
[ 11005 11000 10999 10996 ] final -111.22 input  -57.11 | X-H torsion

> <Gold.Protein.ActiveResidues>
 VAL166  LYS551  ARG553  GLY616  TRP617  ASP618  TYR619  PRO620  LYS621  CYS622 
 ASP623  PHE694  ASN695  SER759  ASP760  ASP761  ALA762  ILE779  LEU786  VAL792 
 PHE793  MET794  SER795  GLU796  ALA797  LYS798  CYS799  TRP800  GLU811  SER814 

> <Gold.Protein.RotatedAtoms>
  150.7239  134.5394  159.5739 H   0  0  0  0  0  0  0  0  0  0  0  0  # atno 6907 bound_to 6896
  152.2908  134.7720  160.0387 H   0  0  0  0  0  0  0  0  0  0  0  0  # atno 6908 bound_to 6896
  151.8334  133.3376  159.3657 H   0  0  0  0  0  0  0  0  0  0  0  0  # atno 6909 bound_to 6896
  146.2195  140.2878  142.8366 H   0  0  0  0  0  0  0  0  0  0  0  0  # atno 7974 bound_to 7965
  155.8363  140.0941  157.1762 H   0  0  0  0  0  0  0  0  0  0  0  0  # atno 8008 bound_to 7997
  154.3981  140.1409  156.3736 H   0  0  0  0  0  0  0  0  0  0  0  0  # atno 8009 bound_to 7997
  155.8112  140.3449  155.5461 H   0  0  0  0  0  0  0  0  0  0  0  0  # atno 8010 bound_to 7997
  140.4903  144.0477  150.6295 H   0  0  0  0  0  0  0  0  0  0  0  0  # atno 10167 bound_to 10162
  157.5725  130.8918  149.9291 H   0  0  0  0  0  0  0  0  0  0  0  0  # atno 10718 bound_to 10713
  154.3274  135.6183  153.5535 H   0  0  0  0  0  0  0  0  0  0  0  0  # atno 10763 bound_to 10752
  152.9814  135.5738  154.5001 H   0  0  0  0  0  0  0  0  0  0  0  0  # atno 10764 bound_to 10752
  154.4681  135.2858  155.1640 H   0  0  0  0  0  0  0  0  0  0  0  0  # atno 10765 bound_to 10752
  141.0747  133.9321  157.2414 H   0  0  0  0  0  0  0  0  0  0  0  0  # atno 11005 bound_to 11000
  144.9149  140.7800  143.5784 LP  0  0  0  0  0  0  0  0  0  0  0  0  # atno 17320 bound_to 7965
  145.2811  139.1918  143.4790 LP  0  0  0  0  0  0  0  0  0  0  0  0  # atno 17321 bound_to 7965
  140.3744  143.2837  152.0241 LP  0  0  0  0  0  0  0  0  0  0  0  0  # atno 17342 bound_to 10162
  139.4850  144.6204  151.7265 LP  0  0  0  0  0  0  0  0  0  0  0  0  # atno 17343 bound_to 10162
  156.0770  130.3677  150.0657 LP  0  0  0  0  0  0  0  0  0  0  0  0  # atno 17370 bound_to 10713
  156.8808  130.9556  151.3599 LP  0  0  0  0  0  0  0  0  0  0  0  0  # atno 17371 bound_to 10713
  139.9559  135.0165  156.9128 LP  0  0  0  0  0  0  0  0  0  0  0  0  # atno 17394 bound_to 11000
  140.5599  134.0545  155.7395 LP  0  0  0  0  0  0  0  0  0  0  0  0  # atno 17395 bound_to 11000

$$$$
