AV-unprocessed.smi:629|AV-procd|sdf|3115|dock7
  -GOLD-   22720 0 43D 1   1.00000     0.00000
 Structure written by MMmdl.
 31 32  0  0  0  0  0  0  0  0  1 V2000
  146.7755  138.6439  152.4325 C   0  0  0  0  0  0  0  0  0  0  0  0
  147.6510  139.7515  152.7825 N   0  0  0  0  0  0  0  0  0  0  0  0
  147.6543  140.3637  153.9761 C   0  0  0  0  0  0  0  0  0  0  0  0
  146.9164  140.0359  154.9051 O   0  0  0  0  0  0  0  0  0  0  0  0
  148.6454  141.5159  154.1554 C   0  0  0  0  0  0  0  0  0  0  0  0
  149.7622  141.1195  155.0682 C   0  0  0  0  0  0  0  0  0  0  0  0
  150.5548  140.0924  154.7827 N   0  0  0  0  0  0  0  0  0  0  0  0
  151.4439  140.0575  155.8662 O   0  0  0  0  0  0  0  0  0  0  0  0
  151.0823  141.0829  156.6743 C   0  0  0  0  0  0  0  0  0  0  0  0
  151.8191  141.2863  157.9567 C   0  0  0  0  0  0  0  0  0  0  0  0
  151.3090  142.5003  158.7544 C   0  0  2  0  0  0  0  0  0  0  0  0
  151.4057  143.7911  157.9811 C   0  0  0  0  0  0  0  0  0  0  0  0
  152.0481  144.7471  158.6483 C   0  0  0  0  0  0  0  0  0  0  0  0
  152.5142  144.2884  160.0013 C   0  0  0  0  0  0  0  0  0  0  0  0
  152.1481  142.7879  160.0270 C   0  0  0  0  0  0  0  0  0  0  0  0
  150.0268  141.7655  156.2379 N   0  0  0  0  0  0  0  0  0  0  0  0
  146.9614  138.3338  151.4043 H   0  0  0  0  0  0  0  0  0  0  0  0
  145.7278  138.9354  152.5165 H   0  0  0  0  0  0  0  0  0  0  0  0
  146.9526  137.7877  153.0846 H   0  0  0  0  0  0  0  0  0  0  0  0
  148.2866  140.0812  152.0701 H   0  0  0  0  0  0  0  0  0  0  0  0
  149.0531  141.8064  153.1863 H   0  0  0  0  0  0  0  0  0  0  0  0
  148.1284  142.3893  154.5554 H   0  0  0  0  0  0  0  0  0  0  0  0
  151.6917  140.3795  158.5493 H   0  0  0  0  0  0  0  0  0  0  0  0
  152.8876  141.3726  157.7541 H   0  0  0  0  0  0  0  0  0  0  0  0
  150.2690  142.3470  159.0465 H   0  0  0  0  0  0  0  0  0  0  0  0
  150.9739  143.9046  156.9974 H   0  0  0  0  0  0  0  0  0  0  0  0
  152.2179  145.7518  158.2896 H   0  0  0  0  0  0  0  0  0  0  0  0
  153.5868  144.4473  160.1168 H   0  0  0  0  0  0  0  0  0  0  0  0
  151.9918  144.8447  160.7802 H   0  0  0  0  0  0  0  0  0  0  0  0
  151.6005  142.5259  160.9331 H   0  0  0  0  0  0  0  0  0  0  0  0
  153.0644  142.1955  160.0274 H   0  0  0  0  0  0  0  0  0  0  0  0
  1  2  1  0  0  0  0
  1 17  1  0  0  0  0
  1 18  1  0  0  0  0
  1 19  1  0  0  0  0
  2  3  1  0  0  0  0
  2 20  1  0  0  0  0
  3  4  2  0  0  0  0
  3  5  1  0  0  0  0
  5  6  1  0  0  0  0
  5 21  1  0  0  0  0
  5 22  1  0  0  0  0
  6 16  1  0  0  0  0
  6  7  2  0  0  0  0
  7  8  1  0  0  0  0
  8  9  1  0  0  0  0
  9 10  1  0  0  0  0
  9 16  2  0  0  0  0
 10 11  1  0  0  0  0
 10 23  1  0  0  0  0
 10 24  1  0  0  0  0
 11 15  1  0  0  0  0
 11 12  1  0  0  0  0
 11 25  1  0  0  0  0
 12 13  2  0  0  0  0
 12 26  1  0  0  0  0
 13 14  1  0  0  0  0
 13 27  1  0  0  0  0
 14 15  1  0  0  0  0
 14 28  1  0  0  0  0
 14 29  1  0  0  0  0
 15 30  1  0  0  0  0
 15 31  1  0  0  0  0
M  END
> <s_m_source_file>
AV-unprocessed.smi

> <i_m_source_file_index>
629

> <i_lp_mmshare_version>
43012

> <i_f3d_flags>
0

> <s_epik_input>
W0NIM11bTkhdQyg9TylbQ0gyXWMxbm9jKG4xKVtDSDJdW0NAQEhdMltDSF09W0NIXVtDSDJdW0NIMl0y

> <s_epik_cmdline>
J2VwaWtfcHl0aG9uJywgJy1waCcsICc3LjAnLCAnLXRuJywgJzgnLCAnLW1hJywgJzIwMCcsICctbWV0YWxfYmluZGluZycsICctaW1hZScsICc8aW5maWxlLm1hZT4nLCAnLW9tYWUnLCAnPG91dGZpbGUubWFlPic=

> <r_lp_tautomer_probability>
1

> <r_epik_Ionization_Penalty>
1.02915e-07

> <r_epik_Ionization_Penalty_Charging>
0

> <r_epik_Ionization_Penalty_Neutral>
1.02915e-07

> <r_epik_State_Penalty>
-0

> <r_epik_Charging_Adjusted_Penalty>
0

> <i_epik_Tot_Q>
0

> <i_epik_Tot_abs_Q>
0

> <r_epik_Metal_State_Penalty>
-0

> <b_epik_Metal_Only>
0

> <s_lp_Force_Field>
OPLS_2005

> <r_lp_Energy>
15.6926

> <b_lp_Chiralities_Consistent>
1

> <s_lp_Variant>
AV-unprocessed.smi:629-1

> <Gold.Version>
5.8.1

> <Gold.Id.Protein>
6NUR|6NUR_protein|mol2

> <Gold.PLP.Fitness>
42.2567

> <Gold.PLP.PLP>
-36.5421

> <Gold.PLP.part.hbond>
-1.9025

> <Gold.PLP.part.metal>
0.0000

> <Gold.PLP.part.buried>
-3.7745

> <Gold.PLP.part.nonpolar>
-30.9108

> <Gold.PLP.part.repulsive>
0.3510

> <Gold.PLP.ligand.clash>
0.0000

> <Gold.PLP.ligand.torsion>
0.1380

> <Gold.PLP.Chemscore.Hbond>
1.9920

> <Gold.PLP.Chemscore.CHOScore>
0.0000

> <Gold.PLP.Chemscore.Metal>
0.0000

> <Gold.Chemscore.Hbonds>
donor molecule, donor type, donor heavy atom, donor atom, acceptor molecule, acceptor atom, score
      L1  H     2    20       P1  7957  1.00
      P1  H  7989  7998       L1     7  1.00

> <Gold.PLP.Chemscore.Internal.Correction>
0.0147

> <Gold.Rescore>
     Score         DG    S(hbond)    S(metal)    S(lipo)     H(rot)  DE(clash)    DE(int)     intcor
     13.51     -13.72       1.05        0.00      81.85       1.89       0.03       0.18       ----

> <Gold.Chemscore.Fitness>
13.5079

> <Gold.Chemscore.DG>
-13.7154

> <Gold.Chemscore.ZeroCoef>
-5.4800

> <Gold.Chemscore.Hbond>
1.0452

> <Gold.Chemscore.Metal>
0.0000

> <Gold.Chemscore.Lipo>
81.8550

> <Gold.Chemscore.Internal_Hbond>
0.0000

> <Gold.Chemscore.DEClash>
0.0284

> <Gold.Chemscore.DEInternal>
0.1791

> <Gold.Chemscore.Rot>
1.8877

> <Gold.Chemscore.Internal.Correction>
   9.000000E+99

> <Gold.Chemscore.Hbonds>
donor molecule, donor type, donor heavy atom, donor atom, acceptor molecule, acceptor atom, score
      L1  H     2    20       P1  7957  0.96
      P1  H  7989  7998       L1     7  0.07

> <Gold.Chemscore.Hbond.Weighted>
-3.4909

> <Gold.Chemscore.Metal.Weighted>
-0.0000

> <Gold.Chemscore.Lipo.Weighted>
-9.5770

> <Gold.Chemscore.Internal_Hbond.Weighted>
0.0000

> <Gold.Chemscore.DEClash.Weighted>
0.0284

> <Gold.Chemscore.DEInternal.Weighted>
0.1791

> <Gold.Chemscore.Rot.Weighted>
4.8325

> <Gold.Chemscore.Internal.Correction.Weighted>
   9.000000E+99

> <Gold.Protein.RotatedTorsions>
[ 6907 6896 6895 6894 ] final -156.12 input  -60.11 | X-H torsion
[ 7974 7965 7964 7962 ] final  138.77 input  175.53 | X-H torsion
[ 8008 7997 7996 7995 ] final  -67.92 input   59.86 | X-H torsion
[ 10167 10162 10161 10158 ] final -151.53 input  -65.29 | X-H torsion
[ 10718 10713 10712 10709 ] final  -26.00 input   66.30 | X-H torsion
[ 10763 10752 10751 10750 ] final -154.36 input  -60.55 | X-H torsion
[ 11005 11000 10999 10996 ] final  148.41 input  -57.11 | X-H torsion

> <Gold.Protein.ActiveResidues>
 VAL166  LYS551  ARG553  GLY616  TRP617  ASP618  TYR619  PRO620  LYS621  CYS622 
 ASP623  PHE694  ASN695  SER759  ASP760  ASP761  ALA762  ILE779  LEU786  VAL792 
 PHE793  MET794  SER795  GLU796  ALA797  LYS798  CYS799  TRP800  GLU811  SER814 

> <Gold.Protein.RotatedAtoms>
  151.2827  133.4202  159.2627 H   0  0  0  0  0  0  0  0  0  0  0  0  # atno 6907 bound_to 6896
  151.0346  134.9564  159.8139 H   0  0  0  0  0  0  0  0  0  0  0  0  # atno 6908 bound_to 6896
  152.5353  134.2787  159.9052 H   0  0  0  0  0  0  0  0  0  0  0  0  # atno 6909 bound_to 6896
  144.9341  139.5011  143.5603 H   0  0  0  0  0  0  0  0  0  0  0  0  # atno 7974 bound_to 7965
  154.4832  140.0883  156.7426 H   0  0  0  0  0  0  0  0  0  0  0  0  # atno 8008 bound_to 7997
  155.4417  140.3454  155.4272 H   0  0  0  0  0  0  0  0  0  0  0  0  # atno 8009 bound_to 7997
  156.1223  140.1477  156.9175 H   0  0  0  0  0  0  0  0  0  0  0  0  # atno 8010 bound_to 7997
  139.7259  143.8884  152.2519 H   0  0  0  0  0  0  0  0  0  0  0  0  # atno 10167 bound_to 10162
  156.4570  130.4496  149.6953 H   0  0  0  0  0  0  0  0  0  0  0  0  # atno 10718 bound_to 10713
  154.7864  135.3192  154.7876 H   0  0  0  0  0  0  0  0  0  0  0  0  # atno 10763 bound_to 10752
  153.8575  135.6856  153.4790 H   0  0  0  0  0  0  0  0  0  0  0  0  # atno 10764 bound_to 10752
  153.1517  135.4696  154.9586 H   0  0  0  0  0  0  0  0  0  0  0  0  # atno 10765 bound_to 10752
  140.0957  134.9014  157.1719 H   0  0  0  0  0  0  0  0  0  0  0  0  # atno 11005 bound_to 11000
  146.3259  139.8312  142.8908 LP  0  0  0  0  0  0  0  0  0  0  0  0  # atno 17320 bound_to 7965
  145.3095  141.0216  143.3562 LP  0  0  0  0  0  0  0  0  0  0  0  0  # atno 17321 bound_to 7965
  139.8793  144.7026  150.8896 LP  0  0  0  0  0  0  0  0  0  0  0  0  # atno 17342 bound_to 10162
  140.7762  143.3674  151.1713 LP  0  0  0  0  0  0  0  0  0  0  0  0  # atno 17343 bound_to 10162
  156.3756  130.7553  151.2541 LP  0  0  0  0  0  0  0  0  0  0  0  0  # atno 17370 bound_to 10713
  157.7500  131.0310  150.4163 LP  0  0  0  0  0  0  0  0  0  0  0  0  # atno 17371 bound_to 10713
  140.3290  134.2831  155.7231 LP  0  0  0  0  0  0  0  0  0  0  0  0  # atno 17394 bound_to 11000
  141.2091  133.7758  157.0016 LP  0  0  0  0  0  0  0  0  0  0  0  0  # atno 17395 bound_to 11000

$$$$
