AV-unprocessed.smi:2837|AV-procd|sdf|10926|dock3
  -GOLD-   2272015373D 1   1.00000     0.00000
 Structure written by MMmdl.
 33 35  0  0  0  0  0  0  0  0  2 V2000
  153.9607  141.4554  161.6329 F   0  0  0  0  0  0  0  0  0  0  0  0
  152.9484  142.2617  161.2298 C   0  0  0  0  0  0  0  0  0  0  0  0
  152.7560  143.1907  162.1967 F   0  0  0  0  0  0  0  0  0  0  0  0
  153.2682  142.8767  160.0601 O   0  0  0  0  0  0  0  0  0  0  0  0
  152.4430  142.7223  158.9695 C   0  0  0  0  0  0  0  0  0  0  0  0
  152.2271  141.4202  158.4725 C   0  0  0  0  0  0  0  0  0  0  0  0
  151.3783  141.2221  157.3644 C   0  0  0  0  0  0  0  0  0  0  0  0
  150.7421  142.3365  156.7680 C   0  0  0  0  0  0  0  0  0  0  0  0
  149.8795  142.2642  155.6655 N   0  0  0  0  0  0  0  0  0  0  0  0
  149.5654  140.9888  155.0320 C   0  0  2  0  0  0  0  0  0  0  0  0
  148.6119  141.1294  153.8427 C   0  0  0  0  0  0  0  0  0  0  0  0
  147.5031  140.1323  154.2070 C   0  0  2  0  0  0  0  0  0  0  0  0
  146.5969  140.6790  155.3172 C   0  0  0  0  0  0  0  0  0  0  0  0
  147.5083  140.5790  156.5386 C   0  0  0  0  0  0  0  0  0  0  0  0
  148.7962  139.9981  155.9294 C   0  0  1  0  0  0  0  0  0  0  0  0
  148.2396  139.1603  154.9309 O   0  0  0  0  0  0  0  0  0  0  0  0
  150.9662  143.5668  157.2800 N   0  3  0  0  0  0  0  0  0  0  0  0
  151.7734  143.7981  158.3383 C   0  0  0  0  0  0  0  0  0  0  0  0
  152.0314  141.6787  161.1406 H   0  0  0  0  0  0  0  0  0  0  0  0
  152.7142  140.5755  158.9377 H   0  0  0  0  0  0  0  0  0  0  0  0
  151.2306  140.2196  156.9916 H   0  0  0  0  0  0  0  0  0  0  0  0
  149.3240  143.0701  155.4168 H   0  0  0  0  0  0  0  0  0  0  0  0
  150.4861  140.5246  154.6767 H   0  0  0  0  0  0  0  0  0  0  0  0
  148.2222  142.1393  153.7055 H   0  0  0  0  0  0  0  0  0  0  0  0
  149.1133  140.8338  152.9203 H   0  0  0  0  0  0  0  0  0  0  0  0
  146.9605  139.7391  153.3470 H   0  0  0  0  0  0  0  0  0  0  0  0
  146.2628  141.6979  155.1186 H   0  0  0  0  0  0  0  0  0  0  0  0
  145.7159  140.0489  155.4454 H   0  0  0  0  0  0  0  0  0  0  0  0
  147.6619  141.5368  157.0359 H   0  0  0  0  0  0  0  0  0  0  0  0
  147.0857  139.8873  157.2681 H   0  0  0  0  0  0  0  0  0  0  0  0
  149.4221  139.4702  156.6489 H   0  0  0  0  0  0  0  0  0  0  0  0
  151.8488  144.8319  158.6430 H   0  0  0  0  0  0  0  0  0  0  0  0
  150.4997  144.3649  156.8482 H   0  0  0  0  0  0  0  0  0  0  0  0
  1  2  1  0  0  0  0
  2  3  1  0  0  0  0
  2  4  1  0  0  0  0
  2 19  1  0  0  0  0
  4  5  1  0  0  0  0
  5 18  1  0  0  0  0
  5  6  2  0  0  0  0
  6  7  1  0  0  0  0
  6 20  1  0  0  0  0
  7  8  2  0  0  0  0
  7 21  1  0  0  0  0
  8  9  1  0  0  0  0
  8 17  1  0  0  0  0
  9 10  1  0  0  0  0
  9 22  1  0  0  0  0
 10 15  1  0  0  0  0
 10 11  1  0  0  0  0
 10 23  1  0  0  0  0
 11 12  1  0  0  0  0
 11 24  1  0  0  0  0
 11 25  1  0  0  0  0
 12 16  1  0  0  0  0
 12 13  1  0  0  0  0
 12 26  1  0  0  0  0
 13 14  1  0  0  0  0
 13 27  1  0  0  0  0
 13 28  1  0  0  0  0
 14 15  1  0  0  0  0
 14 29  1  0  0  0  0
 14 30  1  0  0  0  0
 15 16  1  0  0  0  0
 15 31  1  0  0  0  0
 17 18  2  0  0  0  0
 17 33  1  0  0  0  0
 18 32  1  0  0  0  0
M  CHG  1  17   1
M  END
> <s_m_source_file>
AV-unprocessed.smi

> <i_m_source_file_index>
2837

> <i_lp_mmshare_version>
43012

> <i_f3d_flags>
0

> <s_epik_input>
RltDSF0oRilPYzFbY0hdW2NIXWMobltjSF0xKVtOSF1bQ0BIXShbQ0gyXVtDQEBIXTIzKVtDQEBIXShPMylbQ0gyXVtDSDJdMg==

> <s_epik_cmdline>
J2VwaWtfcHl0aG9uJywgJy1waCcsICc3LjAnLCAnLXRuJywgJzgnLCAnLW1hJywgJzIwMCcsICctbWV0YWxfYmluZGluZycsICctaW1hZScsICc8aW5maWxlLm1hZT4nLCAnLW9tYWUnLCAnPG91dGZpbGUubWFlPic=

> <r_lp_tautomer_probability>
0.999429

> <r_epik_Ionization_Penalty>
2.29716

> <r_epik_Ionization_Penalty_Charging>
2.29716

> <r_epik_Ionization_Penalty_Neutral>
1.42285e-06

> <r_epik_State_Penalty>
2.44762

> <r_epik_Charging_Adjusted_Penalty>
4.74478

> <i_epik_Tot_Q>
1

> <i_epik_Tot_abs_Q>
1

> <r_epik_Metal_State_Penalty>
6.53078

> <b_epik_Metal_Only>
0

> <s_lp_Force_Field>
OPLS_2005

> <r_lp_Energy>
46.8355

> <b_lp_Chiralities_Consistent>
1

> <s_lp_Variant>
AV-unprocessed.smi:2837-7

> <Gold.Version>
5.8.1

> <Gold.Id.Protein>
6NUR|6NUR_protein|mol2

> <Gold.PLP.Fitness>
45.9568

> <Gold.PLP.PLP>
-36.5629

> <Gold.PLP.part.hbond>
-2.0000

> <Gold.PLP.part.metal>
0.0000

> <Gold.PLP.part.buried>
-3.7425

> <Gold.PLP.part.nonpolar>
-31.0280

> <Gold.PLP.part.repulsive>
0.2393

> <Gold.PLP.ligand.clash>
0.0000

> <Gold.PLP.ligand.torsion>
0.7584

> <Gold.PLP.Chemscore.Hbond>
3.6320

> <Gold.PLP.Chemscore.CHOScore>
0.0000

> <Gold.PLP.Chemscore.Metal>
0.0000

> <Gold.Chemscore.Hbonds>
donor molecule, donor type, donor heavy atom, donor atom, acceptor molecule, acceptor atom, score
      L1  H     9    22       P1  8028  2.00
      L1  H    17    33       P1  8028  1.60

> <Gold.PLP.Chemscore.Internal.Correction>
0.0148

> <Gold.Rescore>
     Score         DG    S(hbond)    S(metal)    S(lipo)     H(rot)  DE(clash)    DE(int)     intcor
     15.56     -16.59       1.69        0.00      75.95       1.34       0.27       0.77       ----

> <Gold.Chemscore.Fitness>
15.5602

> <Gold.Chemscore.DG>
-16.5941

> <Gold.Chemscore.ZeroCoef>
-5.4800

> <Gold.Chemscore.Hbond>
1.6918

> <Gold.Chemscore.Metal>
0.0000

> <Gold.Chemscore.Lipo>
75.9470

> <Gold.Chemscore.Internal_Hbond>
0.0000

> <Gold.Chemscore.DEClash>
0.2672

> <Gold.Chemscore.DEInternal>
0.7667

> <Gold.Chemscore.Rot>
1.3368

> <Gold.Chemscore.Internal.Correction>
   9.000000E+99

> <Gold.Chemscore.Hbonds>
donor molecule, donor type, donor heavy atom, donor atom, acceptor molecule, acceptor atom, score
      L1  H     9    22       P1  8028  0.95
      L1  H    17    33       P1  8028  0.73

> <Gold.Chemscore.Hbond.Weighted>
-5.6506

> <Gold.Chemscore.Metal.Weighted>
-0.0000

> <Gold.Chemscore.Lipo.Weighted>
-8.8858

> <Gold.Chemscore.Internal_Hbond.Weighted>
0.0000

> <Gold.Chemscore.DEClash.Weighted>
0.2672

> <Gold.Chemscore.DEInternal.Weighted>
0.7667

> <Gold.Chemscore.Rot.Weighted>
3.4223

> <Gold.Chemscore.Internal.Correction.Weighted>
   9.000000E+99

> <Gold.Protein.RotatedTorsions>
[ 6907 6896 6895 6894 ] final -173.61 input  -60.11 | X-H torsion
[ 7974 7965 7964 7962 ] final -159.46 input  175.53 | X-H torsion
[ 8008 7997 7996 7995 ] final   36.43 input   59.86 | X-H torsion
[ 10167 10162 10161 10158 ] final   92.66 input  -65.29 | X-H torsion
[ 10718 10713 10712 10709 ] final  -43.16 input   66.30 | X-H torsion
[ 10763 10752 10751 10750 ] final   48.70 input  -60.55 | X-H torsion
[ 11005 11000 10999 10996 ] final -173.19 input  -57.11 | X-H torsion

> <Gold.Protein.ActiveResidues>
 VAL166  LYS551  ARG553  GLY616  TRP617  ASP618  TYR619  PRO620  LYS621  CYS622 
 ASP623  PHE694  ASN695  SER759  ASP760  ASP761  ALA762  ILE779  LEU786  VAL792 
 PHE793  MET794  SER795  GLU796  ALA797  LYS798  CYS799  TRP800  GLU811  SER814 

> <Gold.Protein.RotatedAtoms>
  151.5590  133.3406  159.2967 H   0  0  0  0  0  0  0  0  0  0  0  0  # atno 6907 bound_to 6896
  150.8434  134.7736  159.6961 H   0  0  0  0  0  0  0  0  0  0  0  0  # atno 6908 bound_to 6896
  152.4496  134.5428  159.9896 H   0  0  0  0  0  0  0  0  0  0  0  0  # atno 6909 bound_to 6896
  144.7464  140.3681  143.6082 H   0  0  0  0  0  0  0  0  0  0  0  0  # atno 7974 bound_to 7965
  155.1873  140.3305  155.4364 H   0  0  0  0  0  0  0  0  0  0  0  0  # atno 8008 bound_to 7997
  156.2455  140.1916  156.6918 H   0  0  0  0  0  0  0  0  0  0  0  0  # atno 8009 bound_to 7997
  154.6230  140.0593  156.9624 H   0  0  0  0  0  0  0  0  0  0  0  0  # atno 8010 bound_to 7997
  139.8255  144.6711  150.9465 H   0  0  0  0  0  0  0  0  0  0  0  0  # atno 10167 bound_to 10162
  156.2519  130.4189  149.8640 H   0  0  0  0  0  0  0  0  0  0  0  0  # atno 10718 bound_to 10713
  152.9790  135.5935  154.3969 H   0  0  0  0  0  0  0  0  0  0  0  0  # atno 10763 bound_to 10752
  154.3618  135.2767  155.2317 H   0  0  0  0  0  0  0  0  0  0  0  0  # atno 10764 bound_to 10752
  154.4311  135.6036  153.6124 H   0  0  0  0  0  0  0  0  0  0  0  0  # atno 10765 bound_to 10752
  140.4885  134.6007  157.4946 H   0  0  0  0  0  0  0  0  0  0  0  0  # atno 11005 bound_to 11000
  145.7106  139.1684  143.2541 LP  0  0  0  0  0  0  0  0  0  0  0  0  # atno 17320 bound_to 7965
  146.1349  140.7136  142.9394 LP  0  0  0  0  0  0  0  0  0  0  0  0  # atno 17321 bound_to 7965
  140.7810  143.4051  151.1085 LP  0  0  0  0  0  0  0  0  0  0  0  0  # atno 17342 bound_to 10162
  139.7708  143.8497  152.3120 LP  0  0  0  0  0  0  0  0  0  0  0  0  # atno 17343 bound_to 10162
  156.6185  130.8616  151.3470 LP  0  0  0  0  0  0  0  0  0  0  0  0  # atno 17370 bound_to 10713
  157.7218  130.9568  150.1468 LP  0  0  0  0  0  0  0  0  0  0  0  0  # atno 17371 bound_to 10713
  139.9783  134.7179  155.9907 LP  0  0  0  0  0  0  0  0  0  0  0  0  # atno 17394 bound_to 11000
  141.1496  133.6550  156.3971 LP  0  0  0  0  0  0  0  0  0  0  0  0  # atno 17395 bound_to 11000

$$$$
