AV-unprocessed.smi:890|AV-procd|sdf|4062|dock3
  -GOLD-   22720 1553D 1   1.00000     0.00000
 Structure written by MMmdl.
 52 55  0  0  0  0  0  0  0  0  2 V2000
  150.5425  134.4363  155.7661 O   0  0  0  0  0  0  0  0  0  0  0  0
  150.0197  134.9374  154.7709 C   0  0  0  0  0  0  0  0  0  0  0  0
  149.2405  134.2812  153.8948 N   0  0  0  0  0  0  0  0  0  0  0  0
  148.8458  132.9129  153.9261 C   0  0  0  0  0  0  0  0  0  0  0  0
  149.6706  131.9035  154.4859 C   0  0  0  0  0  0  0  0  0  0  0  0
  149.2351  130.5642  154.4869 C   0  0  0  0  0  0  0  0  0  0  0  0
  147.9868  130.2518  153.9200 C   0  0  0  0  0  0  0  0  0  0  0  0
  147.2338  131.2321  153.3795 N   0  3  0  0  0  0  0  0  0  0  0  0
  147.6005  132.5375  153.3525 C   0  0  0  0  0  0  0  0  0  0  0  0
  146.7443  133.4742  152.7363 N   0  0  0  0  0  0  0  0  0  0  0  0
  146.6100  133.2923  151.2932 C   0  0  0  0  0  0  0  0  0  0  0  0
  145.1491  133.5935  150.9498 C   0  0  0  0  0  0  0  0  0  0  0  0
  144.4149  133.2869  152.2492 C   0  0  0  0  0  0  0  0  0  0  0  0
  145.4230  133.7257  153.3090 C   0  0  0  0  0  0  0  0  0  0  0  0
  150.1461  136.2300  154.4380 N   0  0  0  0  0  0  0  0  0  0  0  0
  150.9031  137.2215  155.1971 C   0  0  0  0  0  0  0  0  0  0  0  0
  150.1939  137.5167  156.5284 C   0  0  0  0  0  0  0  0  0  0  0  0
  150.8967  138.6554  157.2890 C   0  0  0  0  0  0  0  0  0  0  0  0
  150.9305  139.8656  156.4676 N   0  0  0  0  0  0  0  0  0  0  0  0
  151.5576  140.9339  157.2285 C   0  0  0  0  0  0  0  0  0  0  0  0
  150.7410  141.5888  158.3193 C   0  0  0  0  0  0  0  0  0  0  0  0
  151.0219  142.3345  157.0370 C   0  0  0  0  0  0  0  0  0  0  0  0
  151.7173  139.6230  155.2582 C   0  0  0  0  0  0  0  0  0  0  0  0
  151.0517  138.5313  154.4023 C   0  0  0  0  0  0  0  0  0  0  0  0
  148.8022  134.8456  153.1819 H   0  0  0  0  0  0  0  0  0  0  0  0
  150.6386  132.1323  154.9050 H   0  0  0  0  0  0  0  0  0  0  0  0
  149.8535  129.7874  154.9125 H   0  0  0  0  0  0  0  0  0  0  0  0
  147.5751  129.2540  153.8739 H   0  0  0  0  0  0  0  0  0  0  0  0
  147.2870  133.9515  150.7496 H   0  0  0  0  0  0  0  0  0  0  0  0
  146.8526  132.2643  151.0181 H   0  0  0  0  0  0  0  0  0  0  0  0
  145.0360  134.6505  150.7040 H   0  0  0  0  0  0  0  0  0  0  0  0
  144.7834  133.0099  150.1042 H   0  0  0  0  0  0  0  0  0  0  0  0
  143.4585  133.8037  152.3329 H   0  0  0  0  0  0  0  0  0  0  0  0
  144.2306  132.2146  152.3295 H   0  0  0  0  0  0  0  0  0  0  0  0
  145.2427  133.2377  154.2667 H   0  0  0  0  0  0  0  0  0  0  0  0
  145.3367  134.7990  153.4818 H   0  0  0  0  0  0  0  0  0  0  0  0
  149.6815  136.5575  153.6038 H   0  0  0  0  0  0  0  0  0  0  0  0
  151.8956  136.8242  155.4189 H   0  0  0  0  0  0  0  0  0  0  0  0
  149.1540  137.7927  156.3464 H   0  0  0  0  0  0  0  0  0  0  0  0
  150.1721  136.6193  157.1478 H   0  0  0  0  0  0  0  0  0  0  0  0
  150.3586  138.8595  158.2157 H   0  0  0  0  0  0  0  0  0  0  0  0
  151.9097  138.3583  157.5655 H   0  0  0  0  0  0  0  0  0  0  0  0
  152.6267  140.8715  157.4254 H   0  0  0  0  0  0  0  0  0  0  0  0
  149.7246  141.2336  158.4802 H   0  0  0  0  0  0  0  0  0  0  0  0
  151.2678  141.9129  159.2143 H   0  0  0  0  0  0  0  0  0  0  0  0
  151.7369  143.1536  157.0771 H   0  0  0  0  0  0  0  0  0  0  0  0
  150.1929  142.4732  156.3453 H   0  0  0  0  0  0  0  0  0  0  0  0
  151.7892  140.5445  154.6791 H   0  0  0  0  0  0  0  0  0  0  0  0
  152.7351  139.3304  155.5222 H   0  0  0  0  0  0  0  0  0  0  0  0
  151.6442  138.3618  153.5027 H   0  0  0  0  0  0  0  0  0  0  0  0
  150.0733  138.8800  154.0677 H   0  0  0  0  0  0  0  0  0  0  0  0
  146.3384  130.9748  152.9637 H   0  0  0  0  0  0  0  0  0  0  0  0
  1  2  2  0  0  0  0
  2  3  1  0  0  0  0
  2 15  1  0  0  0  0
  3  4  1  0  0  0  0
  3 25  1  0  0  0  0
  4  9  1  0  0  0  0
  4  5  2  0  0  0  0
  5  6  1  0  0  0  0
  5 26  1  0  0  0  0
  6  7  2  0  0  0  0
  6 27  1  0  0  0  0
  7  8  1  0  0  0  0
  7 28  1  0  0  0  0
  8  9  2  0  0  0  0
  8 52  1  0  0  0  0
  9 10  1  0  0  0  0
 10 14  1  0  0  0  0
 10 11  1  0  0  0  0
 11 12  1  0  0  0  0
 11 29  1  0  0  0  0
 11 30  1  0  0  0  0
 12 13  1  0  0  0  0
 12 31  1  0  0  0  0
 12 32  1  0  0  0  0
 13 14  1  0  0  0  0
 13 33  1  0  0  0  0
 13 34  1  0  0  0  0
 14 35  1  0  0  0  0
 14 36  1  0  0  0  0
 15 16  1  0  0  0  0
 15 37  1  0  0  0  0
 16 24  1  0  0  0  0
 16 17  1  0  0  0  0
 16 38  1  0  0  0  0
 17 18  1  0  0  0  0
 17 39  1  0  0  0  0
 17 40  1  0  0  0  0
 18 19  1  0  0  0  0
 18 41  1  0  0  0  0
 18 42  1  0  0  0  0
 19 20  1  0  0  0  0
 19 23  1  0  0  0  0
 20 22  1  0  0  0  0
 20 21  1  0  0  0  0
 20 43  1  0  0  0  0
 21 22  1  0  0  0  0
 21 44  1  0  0  0  0
 21 45  1  0  0  0  0
 22 46  1  0  0  0  0
 22 47  1  0  0  0  0
 23 24  1  0  0  0  0
 23 48  1  0  0  0  0
 23 49  1  0  0  0  0
 24 50  1  0  0  0  0
 24 51  1  0  0  0  0
M  CHG  1   8   1
M  END
> <s_m_source_file>
AV-unprocessed.smi

> <i_m_source_file_index>
890

> <i_lp_mmshare_version>
43012

> <i_f3d_flags>
0

> <s_epik_input>
W0NIMl0xW0NIMl1bQ0hdMU4oW0NIMl1bQ0gyXTIpW0NIMl1bQ0gyXVtDSF0yW05IXUMoPU8pW05IXWMzW2NIXVtjSF1bY0hdbmMzTjRbQ0gyXVtDSDJdW0NIMl1bQ0gyXTQ=

> <s_epik_cmdline>
J2VwaWtfcHl0aG9uJywgJy1waCcsICc3LjAnLCAnLXRuJywgJzgnLCAnLW1hJywgJzIwMCcsICctbWV0YWxfYmluZGluZycsICctaW1hZScsICc8aW5maWxlLm1hZT4nLCAnLW9tYWUnLCAnPG91dGZpbGUubWFlPic=

> <r_epik_Ionization_Penalty>
2.06048

> <r_epik_Ionization_Penalty_Charging>
1.08388

> <r_epik_Ionization_Penalty_Neutral>
0.976602

> <r_epik_State_Penalty>
2.25814

> <r_epik_Charging_Adjusted_Penalty>
3.34202

> <i_epik_Tot_Q>
1

> <i_epik_Tot_abs_Q>
1

> <r_epik_Metal_State_Penalty>
2.33083

> <b_epik_Metal_Only>
0

> <s_lp_Force_Field>
OPLS_2005

> <r_lp_Energy>
56.489

> <b_lp_Chiralities_Consistent>
1

> <s_lp_Variant>
AV-unprocessed.smi:890-6

> <Gold.Version>
5.8.1

> <Gold.Id.Protein>
6NUR|6NUR_protein|mol2

> <Gold.PLP.Fitness>
44.2430

> <Gold.PLP.PLP>
-39.2849

> <Gold.PLP.part.hbond>
-2.9087

> <Gold.PLP.part.metal>
0.0000

> <Gold.PLP.part.buried>
-4.1185

> <Gold.PLP.part.nonpolar>
-31.7870

> <Gold.PLP.part.repulsive>
0.2569

> <Gold.PLP.ligand.clash>
0.0000

> <Gold.PLP.ligand.torsion>
0.9557

> <Gold.PLP.Chemscore.Hbond>
1.8500

> <Gold.PLP.Chemscore.CHOScore>
0.0000

> <Gold.PLP.Chemscore.Metal>
0.0000

> <Gold.Chemscore.Hbonds>
donor molecule, donor type, donor heavy atom, donor atom, acceptor molecule, acceptor atom, score
      L1  H     3    25       P1  7948  0.96
      L1  H    15    37       P1  7948  0.99

> <Gold.PLP.Chemscore.Internal.Correction>
1.3195

> <Gold.Rescore>
     Score         DG    S(hbond)    S(metal)    S(lipo)     H(rot)  DE(clash)    DE(int)     intcor
     14.55     -16.63       1.32        0.00      86.62       1.32       0.01       2.07       ----

> <Gold.Chemscore.Fitness>
14.5545

> <Gold.Chemscore.DG>
-16.6279

> <Gold.Chemscore.ZeroCoef>
-5.4800

> <Gold.Chemscore.Hbond>
1.3180

> <Gold.Chemscore.Metal>
0.0000

> <Gold.Chemscore.Lipo>
86.6243

> <Gold.Chemscore.Internal_Hbond>
0.0000

> <Gold.Chemscore.DEClash>
0.0053

> <Gold.Chemscore.DEInternal>
2.0681

> <Gold.Chemscore.Rot>
1.3239

> <Gold.Chemscore.Internal.Correction>
   9.000000E+99

> <Gold.Chemscore.Hbonds>
donor molecule, donor type, donor heavy atom, donor atom, acceptor molecule, acceptor atom, score
      L1  H     3    25       P1  7948  0.28
      L1  H    15    37       P1  7948  0.52

> <Gold.Chemscore.Hbond.Weighted>
-4.4020

> <Gold.Chemscore.Metal.Weighted>
-0.0000

> <Gold.Chemscore.Lipo.Weighted>
-10.1350

> <Gold.Chemscore.Internal_Hbond.Weighted>
0.0000

> <Gold.Chemscore.DEClash.Weighted>
0.0053

> <Gold.Chemscore.DEInternal.Weighted>
2.0681

> <Gold.Chemscore.Rot.Weighted>
3.3891

> <Gold.Chemscore.Internal.Correction.Weighted>
   9.000000E+99

> <Gold.Protein.RotatedTorsions>
[ 6907 6896 6895 6894 ] final -114.02 input  -60.11 | X-H torsion
[ 7974 7965 7964 7962 ] final -116.72 input  175.53 | X-H torsion
[ 8008 7997 7996 7995 ] final    7.47 input   59.86 | X-H torsion
[ 10167 10162 10161 10158 ] final  138.74 input  -65.29 | X-H torsion
[ 10718 10713 10712 10709 ] final -171.63 input   66.30 | X-H torsion
[ 10763 10752 10751 10750 ] final  163.81 input  -60.55 | X-H torsion
[ 11005 11000 10999 10996 ] final   -2.13 input  -57.11 | X-H torsion

> <Gold.Protein.ActiveResidues>
 VAL166  LYS551  ARG553  GLY616  TRP617  ASP618  TYR619  PRO620  LYS621  CYS622 
 ASP623  PHE694  ASN695  SER759  ASP760  ASP761  ALA762  ILE779  LEU786  VAL792 
 PHE793  MET794  SER795  GLU796  ALA797  LYS798  CYS799  TRP800  GLU811  SER814 

> <Gold.Protein.RotatedAtoms>
  150.7871  133.8861  159.3299 H   0  0  0  0  0  0  0  0  0  0  0  0  # atno 6907 bound_to 6896
  151.6709  135.0974  160.0207 H   0  0  0  0  0  0  0  0  0  0  0  0  # atno 6908 bound_to 6896
  152.3937  133.6677  159.6294 H   0  0  0  0  0  0  0  0  0  0  0  0  # atno 6909 bound_to 6896
  145.0935  140.8505  143.3968 H   0  0  0  0  0  0  0  0  0  0  0  0  # atno 7974 bound_to 7965
  154.7543  140.2773  155.6266 H   0  0  0  0  0  0  0  0  0  0  0  0  # atno 8008 bound_to 7997
  156.2902  140.2672  156.2231 H   0  0  0  0  0  0  0  0  0  0  0  0  # atno 8009 bound_to 7997
  155.0097  140.0372  157.2384 H   0  0  0  0  0  0  0  0  0  0  0  0  # atno 8010 bound_to 7997
  139.5101  144.6335  151.5756 H   0  0  0  0  0  0  0  0  0  0  0  0  # atno 10167 bound_to 10162
  156.7437  130.9352  151.3111 H   0  0  0  0  0  0  0  0  0  0  0  0  # atno 10718 bound_to 10713
  154.2993  135.2759  155.2618 H   0  0  0  0  0  0  0  0  0  0  0  0  # atno 10763 bound_to 10752
  154.5062  135.5795  153.6573 H   0  0  0  0  0  0  0  0  0  0  0  0  # atno 10764 bound_to 10752
  152.9903  135.6170  154.3163 H   0  0  0  0  0  0  0  0  0  0  0  0  # atno 10765 bound_to 10752
  140.6550  133.9371  155.8402 H   0  0  0  0  0  0  0  0  0  0  0  0  # atno 11005 bound_to 11000
  145.1038  139.2804  143.5672 LP  0  0  0  0  0  0  0  0  0  0  0  0  # atno 17320 bound_to 7965
  146.3531  140.0613  142.8629 LP  0  0  0  0  0  0  0  0  0  0  0  0  # atno 17321 bound_to 7965
  140.6076  143.9495  150.6430 LP  0  0  0  0  0  0  0  0  0  0  0  0  # atno 17342 bound_to 10162
  140.2727  143.3444  152.1223 LP  0  0  0  0  0  0  0  0  0  0  0  0  # atno 17343 bound_to 10162
  157.6807  130.9137  150.0260 LP  0  0  0  0  0  0  0  0  0  0  0  0  # atno 17370 bound_to 10713
  156.1447  130.3642  149.9528 LP  0  0  0  0  0  0  0  0  0  0  0  0  # atno 17371 bound_to 10713
  141.0508  134.0487  157.3785 LP  0  0  0  0  0  0  0  0  0  0  0  0  # atno 17394 bound_to 11000
  139.9033  135.0172  156.7369 LP  0  0  0  0  0  0  0  0  0  0  0  0  # atno 17395 bound_to 11000

$$$$
