AV-unprocessed.smi:1521|AV-procd|sdf|6132|dock5
  -GOLD-   22720 6273D 1   1.00000     0.00000
 Structure written by MMmdl.
 35 36  0  0  0  0  0  0  0  0  2 V2000
  149.4863  135.9720  158.2034 O   0  0  0  0  0  0  0  0  0  0  0  0
  148.8578  136.9295  158.6551 C   0  0  0  0  0  0  0  0  0  0  0  0
  148.8719  138.1468  158.0948 N   0  0  0  0  0  0  0  0  0  0  0  0
  149.6057  138.5065  156.8867 C   0  0  0  0  0  0  0  0  0  0  0  0
  150.7268  139.5154  157.1865 C   0  0  2  0  0  0  0  0  0  0  0  0
  152.0065  138.8187  157.6902 C   0  0  0  0  0  0  0  0  0  0  0  0
  152.9851  139.7999  158.0075 O   0  0  0  0  0  0  0  0  0  0  0  0
  152.5201  140.6844  159.0177 C   0  0  0  0  0  0  0  0  0  0  0  0
  151.2480  141.3876  158.5173 C   0  0  0  0  0  0  0  0  0  0  0  0
  150.2721  140.4035  158.2031 O   0  0  0  0  0  0  0  0  0  0  0  0
  148.0610  136.9118  159.7386 N   0  0  0  0  0  0  0  0  0  0  0  0
  147.7896  135.8574  160.6265 C   0  0  0  0  0  0  0  0  0  0  0  0
  147.8433  134.5359  160.3012 C   0  0  0  0  0  0  0  0  0  0  0  0
  147.5679  133.4825  161.2703 C   0  0  0  0  0  0  0  0  0  0  0  0
  147.5281  132.0051  160.9230 C   0  0  0  0  0  0  0  0  0  0  0  0
  148.4650  131.3306  161.5897 F   0  0  0  0  0  0  0  0  0  0  0  0
  146.3399  131.4761  161.2157 F   0  0  0  0  0  0  0  0  0  0  0  0
  147.7469  131.8403  159.6192 F   0  0  0  0  0  0  0  0  0  0  0  0
  147.2458  133.9870  162.5153 C   0  0  0  0  0  0  0  0  0  0  0  0
  147.1977  135.2733  162.9260 N   0  5  0  0  0  0  0  0  0  0  0  0
  147.4624  136.2500  162.0128 C   0  0  0  0  0  0  0  0  0  0  0  0
  147.4353  137.4425  162.3192 O   0  0  0  0  0  0  0  0  0  0  0  0
  148.3187  138.8738  158.5242 H   0  0  0  0  0  0  0  0  0  0  0  0
  150.0254  137.5972  156.4556 H   0  0  0  0  0  0  0  0  0  0  0  0
  148.9192  138.9123  156.1418 H   0  0  0  0  0  0  0  0  0  0  0  0
  150.9571  140.0822  156.2823 H   0  0  0  0  0  0  0  0  0  0  0  0
  151.7984  138.2009  158.5652 H   0  0  0  0  0  0  0  0  0  0  0  0
  152.4075  138.1597  156.9198 H   0  0  0  0  0  0  0  0  0  0  0  0
  152.3239  140.1349  159.9397 H   0  0  0  0  0  0  0  0  0  0  0  0
  153.2977  141.4160  159.2380 H   0  0  0  0  0  0  0  0  0  0  0  0
  150.8515  142.0490  159.2878 H   0  0  0  0  0  0  0  0  0  0  0  0
  151.4608  142.0030  157.6418 H   0  0  0  0  0  0  0  0  0  0  0  0
  147.5500  137.7601  159.9341 H   0  0  0  0  0  0  0  0  0  0  0  0
  148.1172  134.2228  159.3071 H   0  0  0  0  0  0  0  0  0  0  0  0
  146.9866  133.2445  163.2998 H   0  0  0  0  0  0  0  0  0  0  0  0
  1  2  2  0  0  0  0
  2  3  1  0  0  0  0
  2 11  1  0  0  0  0
  3  4  1  0  0  0  0
  3 23  1  0  0  0  0
  4  5  1  0  0  0  0
  4 24  1  0  0  0  0
  4 25  1  0  0  0  0
  5 10  1  0  0  0  0
  5  6  1  0  0  0  0
  5 26  1  0  0  0  0
  6  7  1  0  0  0  0
  6 27  1  0  0  0  0
  6 28  1  0  0  0  0
  7  8  1  0  0  0  0
  8  9  1  0  0  0  0
  8 29  1  0  0  0  0
  8 30  1  0  0  0  0
  9 10  1  0  0  0  0
  9 31  1  0  0  0  0
  9 32  1  0  0  0  0
 11 12  1  0  0  0  0
 11 33  1  0  0  0  0
 12 21  1  0  0  0  0
 12 13  2  0  0  0  0
 13 14  1  0  0  0  0
 13 34  1  0  0  0  0
 14 15  1  0  0  0  0
 14 19  2  0  0  0  0
 15 16  1  0  0  0  0
 15 17  1  0  0  0  0
 15 18  1  0  0  0  0
 19 20  1  0  0  0  0
 19 35  1  0  0  0  0
 20 21  1  0  0  0  0
 21 22  2  0  0  0  0
M  CHG  1  20  -1
M  END
> <s_m_source_file>
AV-unprocessed.smi

> <i_m_source_file_index>
1521

> <i_lp_mmshare_version>
43012

> <i_f3d_flags>
0

> <s_epik_input>
Tz1jMVtuSF1bY0hdYyhDKEYpKEYpRilbY0hdYzFbTkhdQyg9TylbTkhdW0NIMl1bQ0BASF0yW0NIMl1PW0NIMl1bQ0gyXU8y

> <s_epik_cmdline>
J2VwaWtfcHl0aG9uJywgJy1waCcsICc3LjAnLCAnLXRuJywgJzgnLCAnLW1hJywgJzIwMCcsICctbWV0YWxfYmluZGluZycsICctaW1hZScsICc8aW5maWxlLm1hZT4nLCAnLW9tYWUnLCAnPG91dGZpbGUubWFlPic=

> <r_lp_tautomer_probability>
1

> <r_epik_Ionization_Penalty>
3.1412

> <r_epik_Ionization_Penalty_Charging>
0.17015

> <r_epik_Ionization_Penalty_Neutral>
2.97105

> <r_epik_State_Penalty>
2.96707

> <r_epik_Charging_Adjusted_Penalty>
3.13722

> <i_epik_Tot_Q>
-1

> <i_epik_Tot_abs_Q>
1

> <r_epik_Metal_State_Penalty>
0.451298

> <b_epik_Metal_Only>
1

> <s_lp_Force_Field>
OPLS_2005

> <r_lp_Energy>
20.4323

> <b_lp_Chiralities_Consistent>
1

> <s_lp_Variant>
AV-unprocessed.smi:1521-3

> <Gold.Version>
5.8.1

> <Gold.Id.Protein>
6NUR|6NUR_protein|mol2

> <Gold.PLP.Fitness>
42.5980

> <Gold.PLP.PLP>
-33.7211

> <Gold.PLP.part.hbond>
-4.0000

> <Gold.PLP.part.metal>
0.0000

> <Gold.PLP.part.buried>
-4.8906

> <Gold.PLP.part.nonpolar>
-24.6920

> <Gold.PLP.part.repulsive>
0.3226

> <Gold.PLP.ligand.clash>
0.0000

> <Gold.PLP.ligand.torsion>
0.5090

> <Gold.PLP.Chemscore.Hbond>
3.2800

> <Gold.PLP.Chemscore.CHOScore>
0.0000

> <Gold.PLP.Chemscore.Metal>
0.0000

> <Gold.Chemscore.Hbonds>
donor molecule, donor type, donor heavy atom, donor atom, acceptor molecule, acceptor atom, score
      P1  H  6896  6908       L1     1  0.34
      P1  H  6931  6943       L1    22  0.74
      P1  H  6934  6947       L1    22  0.44
      P1  H  7997  8008       L1     7  1.00

> <Gold.PLP.Chemscore.Internal.Correction>
0.0549

> <Gold.Rescore>
     Score         DG    S(hbond)    S(metal)    S(lipo)     H(rot)  DE(clash)    DE(int)     intcor
     18.03     -19.41       3.27        0.00      55.65       1.36       0.02       1.36       ----

> <Gold.Chemscore.Fitness>
18.0321

> <Gold.Chemscore.DG>
-19.4051

> <Gold.Chemscore.ZeroCoef>
-5.4800

> <Gold.Chemscore.Hbond>
3.2651

> <Gold.Chemscore.Metal>
0.0000

> <Gold.Chemscore.Lipo>
55.6528

> <Gold.Chemscore.Internal_Hbond>
0.0000

> <Gold.Chemscore.DEClash>
0.0174

> <Gold.Chemscore.DEInternal>
1.3556

> <Gold.Chemscore.Rot>
1.3640

> <Gold.Chemscore.Internal.Correction>
   9.000000E+99

> <Gold.Chemscore.Hbonds>
donor molecule, donor type, donor heavy atom, donor atom, acceptor molecule, acceptor atom, score
      P1  H  6896  6908       L1     1  0.29
      P1  H  6931  6943       L1    22  0.59
      P1  H  6934  6947       L1    22  0.42
      P1  H  7997  8008       L1     7  0.98

> <Gold.Chemscore.Hbond.Weighted>
-10.9055

> <Gold.Chemscore.Metal.Weighted>
-0.0000

> <Gold.Chemscore.Lipo.Weighted>
-6.5114

> <Gold.Chemscore.Internal_Hbond.Weighted>
0.0000

> <Gold.Chemscore.DEClash.Weighted>
0.0174

> <Gold.Chemscore.DEInternal.Weighted>
1.3556

> <Gold.Chemscore.Rot.Weighted>
3.4918

> <Gold.Chemscore.Internal.Correction.Weighted>
   9.000000E+99

> <Gold.Protein.RotatedTorsions>
[ 6907 6896 6895 6894 ] final -168.89 input  -60.11 | X-H torsion
[ 7974 7965 7964 7962 ] final  130.83 input  175.53 | X-H torsion
[ 8008 7997 7996 7995 ] final  -86.58 input   59.86 | X-H torsion
[ 10167 10162 10161 10158 ] final  -17.66 input  -65.29 | X-H torsion
[ 10718 10713 10712 10709 ] final   43.18 input   66.30 | X-H torsion
[ 10763 10752 10751 10750 ] final -143.58 input  -60.55 | X-H torsion
[ 11005 11000 10999 10996 ] final   21.41 input  -57.11 | X-H torsion

> <Gold.Protein.ActiveResidues>
 VAL166  LYS551  ARG553  GLY616  TRP617  ASP618  TYR619  PRO620  LYS621  CYS622 
 ASP623  PHE694  ASN695  SER759  ASP760  ASP761  ALA762  ILE779  LEU786  VAL792 
 PHE793  MET794  SER795  GLU796  ALA797  LYS798  CYS799  TRP800  GLU811  SER814 

> <Gold.Protein.RotatedAtoms>
  151.4828  133.3542  159.2840 H   0  0  0  0  0  0  0  0  0  0  0  0  # atno 6907 bound_to 6896
  150.8886  134.8288  159.7288 H   0  0  0  0  0  0  0  0  0  0  0  0  # atno 6908 bound_to 6896
  152.4808  134.4735  159.9695 H   0  0  0  0  0  0  0  0  0  0  0  0  # atno 6909 bound_to 6896
  145.0137  139.4196  143.5232 H   0  0  0  0  0  0  0  0  0  0  0  0  # atno 7974 bound_to 7965
  154.6535  140.0576  156.9982 H   0  0  0  0  0  0  0  0  0  0  0  0  # atno 8008 bound_to 7997
  155.1335  140.3259  155.4450 H   0  0  0  0  0  0  0  0  0  0  0  0  # atno 8009 bound_to 7997
  156.2587  140.1976  156.6454 H   0  0  0  0  0  0  0  0  0  0  0  0  # atno 8010 bound_to 7997
  140.7250  143.4994  150.9889 H   0  0  0  0  0  0  0  0  0  0  0  0  # atno 10167 bound_to 10162
  157.4130  130.7925  149.7447 H   0  0  0  0  0  0  0  0  0  0  0  0  # atno 10718 bound_to 10713
  154.8464  135.3464  154.6210 H   0  0  0  0  0  0  0  0  0  0  0  0  # atno 10763 bound_to 10752
  153.6819  135.6979  153.5120 H   0  0  0  0  0  0  0  0  0  0  0  0  # atno 10764 bound_to 10752
  153.2662  135.4307  155.0898 H   0  0  0  0  0  0  0  0  0  0  0  0  # atno 10765 bound_to 10752
  140.3919  134.1810  155.7662 H   0  0  0  0  0  0  0  0  0  0  0  0  # atno 11005 bound_to 11000
  146.3474  139.9596  142.8719 LP  0  0  0  0  0  0  0  0  0  0  0  0  # atno 17320 bound_to 7965
  145.1988  140.9845  143.4168 LP  0  0  0  0  0  0  0  0  0  0  0  0  # atno 17321 bound_to 7965
  139.8702  143.7202  152.3167 LP  0  0  0  0  0  0  0  0  0  0  0  0  # atno 17342 bound_to 10162
  139.7448  144.7550  151.0597 LP  0  0  0  0  0  0  0  0  0  0  0  0  # atno 17343 bound_to 10162
  155.9856  130.3981  150.3251 LP  0  0  0  0  0  0  0  0  0  0  0  0  # atno 17370 bound_to 10713
  157.1391  131.0292  151.2936 LP  0  0  0  0  0  0  0  0  0  0  0  0  # atno 17371 bound_to 10713
  141.1888  133.8253  157.0982 LP  0  0  0  0  0  0  0  0  0  0  0  0  # atno 17394 bound_to 11000
  140.0400  134.9859  157.0944 LP  0  0  0  0  0  0  0  0  0  0  0  0  # atno 17395 bound_to 11000

$$$$
