AV-unprocessed.smi:2120|AV-procd|sdf|8639|dock8
  -GOLD-   2272011383D 1   1.00000     0.00000
 Structure written by MMmdl.
 46 49  0  0  0  0  0  0  0  0  2 V2000
  149.2131  135.5234  158.4462 O   0  0  0  0  0  0  0  0  0  0  0  0
  148.8522  136.4265  159.2023 C   0  0  0  0  0  0  0  0  0  0  0  0
  149.2989  137.6871  159.0709 N   0  0  0  0  0  0  0  0  0  0  0  0
  150.2439  138.1410  158.0577 C   0  0  0  0  0  0  0  0  0  0  0  0
  149.6103  139.1724  157.1079 C   0  0  0  0  0  0  0  0  0  0  0  0
  150.0876  140.5837  157.3904 C   0  0  0  0  0  0  0  0  0  0  0  0
  151.0415  140.8257  158.4038 C   0  0  0  0  0  0  0  0  0  0  0  0
  151.4710  142.1465  158.6488 C   0  0  0  0  0  0  0  0  0  0  0  0
  150.9387  143.1961  157.8724 C   0  0  0  0  0  0  0  0  0  0  0  0
  150.0290  142.9264  156.9104 N   0  3  0  0  0  0  0  0  0  0  0  0
  149.5905  141.6758  156.6463 C   0  0  0  0  0  0  0  0  0  0  0  0
  147.8493  136.1172  160.3391 C   0  0  0  0  0  0  0  0  0  0  0  0
  147.5702  134.5896  160.3697 C   0  0  0  0  0  0  0  0  0  0  0  0
  146.6116  134.2414  161.5292 C   0  0  1  0  0  0  0  0  0  0  0  0
  147.2527  134.6553  162.8702 C   0  0  0  0  0  0  0  0  0  0  0  0
  147.5138  136.1761  162.8605 C   0  0  2  0  0  0  0  0  0  0  0  0
  146.1807  136.9298  162.6766 C   0  0  0  0  0  0  0  0  0  0  0  0
  145.5406  136.5100  161.3374 C   0  0  2  0  0  0  0  0  0  0  0  0
  145.2756  134.9899  161.3411 C   0  0  0  0  0  0  0  0  0  0  0  0
  146.4919  136.8648  160.1748 C   0  0  0  0  0  0  0  0  0  0  0  0
  148.4724  136.5279  161.7026 C   0  0  0  0  0  0  0  0  0  0  0  0
  148.9625  138.3778  159.7265 H   0  0  0  0  0  0  0  0  0  0  0  0
  151.1012  138.5823  158.5669 H   0  0  0  0  0  0  0  0  0  0  0  0
  150.6217  137.2830  157.4993 H   0  0  0  0  0  0  0  0  0  0  0  0
  149.8493  138.9332  156.0710 H   0  0  0  0  0  0  0  0  0  0  0  0
  148.5229  139.1339  157.1880 H   0  0  0  0  0  0  0  0  0  0  0  0
  151.4386  140.0085  158.9887 H   0  0  0  0  0  0  0  0  0  0  0  0
  152.1984  142.3510  159.4210 H   0  0  0  0  0  0  0  0  0  0  0  0
  151.2113  144.2347  157.9911 H   0  0  0  0  0  0  0  0  0  0  0  0
  148.8617  141.5889  155.8534 H   0  0  0  0  0  0  0  0  0  0  0  0
  147.1353  134.2646  159.4230 H   0  0  0  0  0  0  0  0  0  0  0  0
  148.4993  134.0288  160.4856 H   0  0  0  0  0  0  0  0  0  0  0  0
  146.4261  133.1668  161.5340 H   0  0  0  0  0  0  0  0  0  0  0  0
  146.5981  134.3890  163.7009 H   0  0  0  0  0  0  0  0  0  0  0  0
  148.1857  134.1127  163.0267 H   0  0  0  0  0  0  0  0  0  0  0  0
  147.9682  136.4707  163.8070 H   0  0  0  0  0  0  0  0  0  0  0  0
  145.5051  136.7099  163.5043 H   0  0  0  0  0  0  0  0  0  0  0  0
  146.3501  138.0072  162.6941 H   0  0  0  0  0  0  0  0  0  0  0  0
  144.5969  137.0405  161.2069 H   0  0  0  0  0  0  0  0  0  0  0  0
  144.7994  134.6860  160.4081 H   0  0  0  0  0  0  0  0  0  0  0  0
  144.5806  134.7291  162.1403 H   0  0  0  0  0  0  0  0  0  0  0  0
  146.6484  137.9446  160.1509 H   0  0  0  0  0  0  0  0  0  0  0  0
  146.0155  136.5988  159.2298 H   0  0  0  0  0  0  0  0  0  0  0  0
  149.4273  136.0239  161.8614 H   0  0  0  0  0  0  0  0  0  0  0  0
  148.6876  137.5975  161.7143 H   0  0  0  0  0  0  0  0  0  0  0  0
  149.6575  143.7006  156.3590 H   0  0  0  0  0  0  0  0  0  0  0  0
  1  2  2  0  0  0  0
  2  3  1  0  0  0  0
  2 12  1  0  0  0  0
  3  4  1  0  0  0  0
  3 22  1  0  0  0  0
  4  5  1  0  0  0  0
  4 23  1  0  0  0  0
  4 24  1  0  0  0  0
  5  6  1  0  0  0  0
  5 25  1  0  0  0  0
  5 26  1  0  0  0  0
  6 11  1  0  0  0  0
  6  7  2  0  0  0  0
  7  8  1  0  0  0  0
  7 27  1  0  0  0  0
  8  9  2  0  0  0  0
  8 28  1  0  0  0  0
  9 10  1  0  0  0  0
  9 29  1  0  0  0  0
 10 11  2  0  0  0  0
 10 46  1  0  0  0  0
 11 30  1  0  0  0  0
 12 20  1  0  0  0  0
 12 21  1  0  0  0  0
 12 13  1  0  0  0  0
 13 14  1  0  0  0  0
 13 31  1  0  0  0  0
 13 32  1  0  0  0  0
 14 19  1  0  0  0  0
 14 15  1  0  0  0  0
 14 33  1  0  0  0  0
 15 16  1  0  0  0  0
 15 34  1  0  0  0  0
 15 35  1  0  0  0  0
 16 17  1  0  0  0  0
 16 21  1  0  0  0  0
 16 36  1  0  0  0  0
 17 18  1  0  0  0  0
 17 37  1  0  0  0  0
 17 38  1  0  0  0  0
 18 19  1  0  0  0  0
 18 20  1  0  0  0  0
 18 39  1  0  0  0  0
 19 40  1  0  0  0  0
 19 41  1  0  0  0  0
 20 42  1  0  0  0  0
 20 43  1  0  0  0  0
 21 44  1  0  0  0  0
 21 45  1  0  0  0  0
M  CHG  1  10   1
M  END
> <s_m_source_file>
AV-unprocessed.smi

> <i_m_source_file_index>
2120

> <i_lp_mmshare_version>
43012

> <i_f3d_flags>
0

> <s_epik_input>
W0NIMl0xW0NASF0oW0NIMl0yKVtDSDJdW0NASF0oW0NIMl0zKVtDSDJdW0NAQEhdMVtDSDJdQzIzQyg9TylbTkhdW0NIMl1bQ0gyXWM0W2NIXVtjSF1bY0hdbltjSF00

> <s_epik_cmdline>
J2VwaWtfcHl0aG9uJywgJy1waCcsICc3LjAnLCAnLXRuJywgJzgnLCAnLW1hJywgJzIwMCcsICctbWV0YWxfYmluZGluZycsICctaW1hZScsICc8aW5maWxlLm1hZT4nLCAnLW9tYWUnLCAnPG91dGZpbGUubWFlPic=

> <r_epik_Ionization_Penalty>
2.23732

> <r_epik_Ionization_Penalty_Charging>
2.23732

> <r_epik_Ionization_Penalty_Neutral>
2.68417e-08

> <r_epik_State_Penalty>
2.38345

> <r_epik_Charging_Adjusted_Penalty>
4.62076

> <i_epik_Tot_Q>
1

> <i_epik_Tot_abs_Q>
1

> <r_epik_Metal_State_Penalty>
2.39692

> <b_epik_Metal_Only>
0

> <s_lp_Force_Field>
OPLS_2005

> <r_lp_Energy>
42.1143

> <b_lp_Chiralities_Consistent>
1

> <s_lp_Variant>
AV-unprocessed.smi:2120-2

> <Gold.Version>
5.8.1

> <Gold.Id.Protein>
6NUR|6NUR_protein|mol2

> <Gold.PLP.Fitness>
42.6997

> <Gold.PLP.PLP>
-34.4500

> <Gold.PLP.part.hbond>
-2.0000

> <Gold.PLP.part.metal>
0.0000

> <Gold.PLP.part.buried>
-3.0517

> <Gold.PLP.part.nonpolar>
-29.9842

> <Gold.PLP.part.repulsive>
0.2686

> <Gold.PLP.ligand.clash>
0.0000

> <Gold.PLP.ligand.torsion>
0.3808

> <Gold.PLP.Chemscore.Hbond>
3.0000

> <Gold.PLP.Chemscore.CHOScore>
0.0000

> <Gold.PLP.Chemscore.Metal>
0.0000

> <Gold.Chemscore.Hbonds>
donor molecule, donor type, donor heavy atom, donor atom, acceptor molecule, acceptor atom, score
      L1  H    10    46       P1  8028  1.62
      P1  H  6896  6909       L1     1  0.78

> <Gold.PLP.Chemscore.Internal.Correction>
0.0114

> <Gold.Rescore>
     Score         DG    S(hbond)    S(metal)    S(lipo)     H(rot)  DE(clash)    DE(int)     intcor
     19.49     -21.81       1.96        0.00     114.55       1.41       1.74       0.57       ----

> <Gold.Chemscore.Fitness>
19.4931

> <Gold.Chemscore.DG>
-21.8055

> <Gold.Chemscore.ZeroCoef>
-5.4800

> <Gold.Chemscore.Hbond>
1.9593

> <Gold.Chemscore.Metal>
0.0000

> <Gold.Chemscore.Lipo>
114.5516

> <Gold.Chemscore.Internal_Hbond>
0.0000

> <Gold.Chemscore.DEClash>
1.7384

> <Gold.Chemscore.DEInternal>
0.5739

> <Gold.Chemscore.Rot>
1.4145

> <Gold.Chemscore.Internal.Correction>
   9.000000E+99

> <Gold.Chemscore.Hbonds>
donor molecule, donor type, donor heavy atom, donor atom, acceptor molecule, acceptor atom, score
      L1  H    10    46       P1  8028  0.79
      P1  H  6896  6909       L1     1  0.55

> <Gold.Chemscore.Hbond.Weighted>
-6.5440

> <Gold.Chemscore.Metal.Weighted>
-0.0000

> <Gold.Chemscore.Lipo.Weighted>
-13.4025

> <Gold.Chemscore.Internal_Hbond.Weighted>
0.0000

> <Gold.Chemscore.DEClash.Weighted>
1.7384

> <Gold.Chemscore.DEInternal.Weighted>
0.5739

> <Gold.Chemscore.Rot.Weighted>
3.6210

> <Gold.Chemscore.Internal.Correction.Weighted>
   9.000000E+99

> <Gold.Protein.RotatedTorsions>
[ 6907 6896 6895 6894 ] final   30.24 input  -60.11 | X-H torsion
[ 7974 7965 7964 7962 ] final  130.82 input  175.53 | X-H torsion
[ 8008 7997 7996 7995 ] final  -83.23 input   59.86 | X-H torsion
[ 10167 10162 10161 10158 ] final  -33.97 input  -65.29 | X-H torsion
[ 10718 10713 10712 10709 ] final  141.04 input   66.30 | X-H torsion
[ 10763 10752 10751 10750 ] final   50.68 input  -60.55 | X-H torsion
[ 11005 11000 10999 10996 ] final  -91.67 input  -57.11 | X-H torsion

> <Gold.Protein.ActiveResidues>
 VAL166  LYS551  ARG553  GLY616  TRP617  ASP618  TYR619  PRO620  LYS621  CYS622 
 ASP623  PHE694  ASN695  SER759  ASP760  ASP761  ALA762  ILE779  LEU786  VAL792 
 PHE793  MET794  SER795  GLU796  ALA797  LYS798  CYS799  TRP800  GLU811  SER814 

> <Gold.Protein.RotatedAtoms>
  152.0432  134.9699  160.0573 H   0  0  0  0  0  0  0  0  0  0  0  0  # atno 6907 bound_to 6896
  152.1129  133.4306  159.4648 H   0  0  0  0  0  0  0  0  0  0  0  0  # atno 6908 bound_to 6896
  150.6844  134.2545  159.4567 H   0  0  0  0  0  0  0  0  0  0  0  0  # atno 6909 bound_to 6896
  145.0138  139.4195  143.5231 H   0  0  0  0  0  0  0  0  0  0  0  0  # atno 7974 bound_to 7965
  154.6169  140.0622  156.9565 H   0  0  0  0  0  0  0  0  0  0  0  0  # atno 8008 bound_to 7997
  155.1882  140.3305  155.4345 H   0  0  0  0  0  0  0  0  0  0  0  0  # atno 8009 bound_to 7997
  156.2409  140.1886  156.6973 H   0  0  0  0  0  0  0  0  0  0  0  0  # atno 8010 bound_to 7997
  140.7194  143.3581  151.2017 H   0  0  0  0  0  0  0  0  0  0  0  0  # atno 10167 bound_to 10162
  157.3965  131.1011  151.0595 H   0  0  0  0  0  0  0  0  0  0  0  0  # atno 10718 bound_to 10713
  152.9784  135.5871  154.4291 H   0  0  0  0  0  0  0  0  0  0  0  0  # atno 10763 bound_to 10752
  154.3907  135.2768  155.2158 H   0  0  0  0  0  0  0  0  0  0  0  0  # atno 10764 bound_to 10752
  154.4032  135.6098  153.5963 H   0  0  0  0  0  0  0  0  0  0  0  0  # atno 10765 bound_to 10752
  141.1539  133.7771  156.9912 H   0  0  0  0  0  0  0  0  0  0  0  0  # atno 11005 bound_to 11000
  146.3474  139.9597  142.8719 LP  0  0  0  0  0  0  0  0  0  0  0  0  # atno 17320 bound_to 7965
  145.1987  140.9845  143.4168 LP  0  0  0  0  0  0  0  0  0  0  0  0  # atno 17321 bound_to 7965
  139.7127  143.9350  152.2954 LP  0  0  0  0  0  0  0  0  0  0  0  0  # atno 17342 bound_to 10162
  139.9080  144.6873  150.8592 LP  0  0  0  0  0  0  0  0  0  0  0  0  # atno 17343 bound_to 10162
  157.1609  130.6225  149.5610 LP  0  0  0  0  0  0  0  0  0  0  0  0  # atno 17370 bound_to 10713
  155.9812  130.4817  150.6813 LP  0  0  0  0  0  0  0  0  0  0  0  0  # atno 17371 bound_to 10713
  140.1001  134.9540  157.1910 LP  0  0  0  0  0  0  0  0  0  0  0  0  # atno 17394 bound_to 11000
  140.3329  134.2789  155.7225 LP  0  0  0  0  0  0  0  0  0  0  0  0  # atno 17395 bound_to 11000

$$$$
