AV-unprocessed.smi:2570|AV-procd|sdf|10106|dock8
  -GOLD-   2272014123D 1   1.00000     0.00000
 Structure written by MMmdl.
 32 33  0  0  0  0  0  0  0  0  1 V2000
  145.7307  143.3449  154.3125 C   0  0  0  0  0  0  0  0  0  0  0  0
  146.2071  142.4895  155.3497 O   0  0  0  0  0  0  0  0  0  0  0  0
  147.3674  141.7804  155.0910 C   0  0  0  0  0  0  0  0  0  0  0  0
  147.4644  141.0479  153.8459 C   0  0  0  0  0  0  0  0  0  0  0  0
  148.5920  140.3535  153.5804 C   0  0  0  0  0  0  0  0  0  0  0  0
  149.7154  140.3220  154.5166 C   0  0  0  0  0  0  0  0  0  0  0  0
  150.7547  139.6983  154.3022 O   0  0  0  0  0  0  0  0  0  0  0  0
  149.5046  141.0473  155.6553 N   0  0  0  0  0  0  0  0  0  0  0  0
  150.5232  141.1281  156.7093 C   0  0  0  0  0  0  0  0  0  0  0  0
  150.5394  142.5055  157.4090 C   0  0  2  0  0  0  0  0  0  0  0  0
  151.0111  143.4808  156.4999 O   0  0  0  0  0  0  0  0  0  0  0  0
  151.3793  142.4700  158.6796 C   0  0  0  0  0  0  0  0  0  0  0  0
  151.9925  141.2597  159.0709 C   0  0  0  0  0  0  0  0  0  0  0  0
  152.7788  141.2030  160.2377 C   0  0  0  0  0  0  0  0  0  0  0  0
  152.9593  142.3574  161.0224 C   0  0  0  0  0  0  0  0  0  0  0  0
  153.7141  142.3027  162.1451 F   0  0  0  0  0  0  0  0  0  0  0  0
  152.3558  143.5693  160.6369 C   0  0  0  0  0  0  0  0  0  0  0  0
  151.5701  143.6293  159.4692 C   0  0  0  0  0  0  0  0  0  0  0  0
  151.0060  144.8084  159.1124 F   0  0  0  0  0  0  0  0  0  0  0  0
  148.3528  141.7632  155.9320 N   0  0  0  0  0  0  0  0  0  0  0  0
  144.8162  143.8348  154.6465 H   0  0  0  0  0  0  0  0  0  0  0  0
  145.4884  142.7881  153.4055 H   0  0  0  0  0  0  0  0  0  0  0  0
  146.4502  144.1289  154.0697 H   0  0  0  0  0  0  0  0  0  0  0  0
  146.6415  141.0644  153.1467 H   0  0  0  0  0  0  0  0  0  0  0  0
  148.6683  139.8060  152.6526 H   0  0  0  0  0  0  0  0  0  0  0  0
  150.3119  140.3501  157.4454 H   0  0  0  0  0  0  0  0  0  0  0  0
  151.5126  140.8841  156.3173 H   0  0  0  0  0  0  0  0  0  0  0  0
  149.5243  142.7924  157.6855 H   0  0  0  0  0  0  0  0  0  0  0  0
  150.2858  143.7706  155.9679 H   0  0  0  0  0  0  0  0  0  0  0  0
  151.8640  140.3674  158.4758 H   0  0  0  0  0  0  0  0  0  0  0  0
  153.2442  140.2731  160.5300 H   0  0  0  0  0  0  0  0  0  0  0  0
  152.4973  144.4560  161.2370 H   0  0  0  0  0  0  0  0  0  0  0  0
  1  2  1  0  0  0  0
  1 21  1  0  0  0  0
  1 22  1  0  0  0  0
  1 23  1  0  0  0  0
  2  3  1  0  0  0  0
  3 20  2  0  0  0  0
  3  4  1  0  0  0  0
  4  5  2  0  0  0  0
  4 24  1  0  0  0  0
  5  6  1  0  0  0  0
  5 25  1  0  0  0  0
  6  7  2  0  0  0  0
  6  8  1  0  0  0  0
  8  9  1  0  0  0  0
  8 20  1  0  0  0  0
  9 10  1  0  0  0  0
  9 26  1  0  0  0  0
  9 27  1  0  0  0  0
 10 11  1  0  0  0  0
 10 12  1  0  0  0  0
 10 28  1  0  0  0  0
 11 29  1  0  0  0  0
 12 18  1  0  0  0  0
 12 13  2  0  0  0  0
 13 14  1  0  0  0  0
 13 30  1  0  0  0  0
 14 15  2  0  0  0  0
 14 31  1  0  0  0  0
 15 16  1  0  0  0  0
 15 17  1  0  0  0  0
 17 18  2  0  0  0  0
 17 32  1  0  0  0  0
 18 19  1  0  0  0  0
M  END
> <s_m_source_file>
AV-unprocessed.smi

> <i_m_source_file_index>
2570

> <i_lp_mmshare_version>
43012

> <i_f3d_flags>
0

> <s_epik_input>
W0NIM11PYzFbY0hdW2NIXWMoPU8pbihuMSlbQ0gyXVtDQEhdKFtPSF0pYzJbY0hdW2NIXWMoRilbY0hdYzJG

> <s_epik_cmdline>
J2VwaWtfcHl0aG9uJywgJy1waCcsICc3LjAnLCAnLXRuJywgJzgnLCAnLW1hJywgJzIwMCcsICctbWV0YWxfYmluZGluZycsICctaW1hZScsICc8aW5maWxlLm1hZT4nLCAnLW9tYWUnLCAnPG91dGZpbGUubWFlPic=

> <r_lp_tautomer_probability>
1

> <r_epik_Ionization_Penalty>
6.40224e-06

> <r_epik_Ionization_Penalty_Charging>
4.38647e-06

> <r_epik_Ionization_Penalty_Neutral>
2.01577e-06

> <r_epik_State_Penalty>
-0

> <r_epik_Charging_Adjusted_Penalty>
4.38647e-06

> <i_epik_Tot_Q>
0

> <i_epik_Tot_abs_Q>
0

> <r_epik_Metal_State_Penalty>
-0

> <b_epik_Metal_Only>
0

> <s_lp_Force_Field>
OPLS_2005

> <r_lp_Energy>
30.8929

> <b_lp_Chiralities_Consistent>
1

> <s_lp_Variant>
AV-unprocessed.smi:2570-1

> <Gold.Version>
5.8.1

> <Gold.Id.Protein>
6NUR|6NUR_protein|mol2

> <Gold.PLP.Fitness>
48.2968

> <Gold.PLP.PLP>
-43.3619

> <Gold.PLP.part.hbond>
-2.0000

> <Gold.PLP.part.metal>
0.0000

> <Gold.PLP.part.buried>
-2.0480

> <Gold.PLP.part.nonpolar>
-39.9261

> <Gold.PLP.part.repulsive>
1.0771

> <Gold.PLP.ligand.clash>
0.0000

> <Gold.PLP.ligand.torsion>
0.5393

> <Gold.PLP.Chemscore.Hbond>
2.0000

> <Gold.PLP.Chemscore.CHOScore>
0.0000

> <Gold.PLP.Chemscore.Metal>
0.0000

> <Gold.Chemscore.Hbonds>
donor molecule, donor type, donor heavy atom, donor atom, acceptor molecule, acceptor atom, score
      L1  H    11    29       P1  8028  1.00
      P1  H  7989  7998       L1     7  1.00

> <Gold.PLP.Chemscore.Internal.Correction>
0.0134

> <Gold.Rescore>
     Score         DG    S(hbond)    S(metal)    S(lipo)     H(rot)  DE(clash)    DE(int)     intcor
     15.30     -16.04       1.98        0.00      87.41       2.45       0.10       0.64       ----

> <Gold.Chemscore.Fitness>
15.3025

> <Gold.Chemscore.DG>
-16.0408

> <Gold.Chemscore.ZeroCoef>
-5.4800

> <Gold.Chemscore.Hbond>
1.9803

> <Gold.Chemscore.Metal>
0.0000

> <Gold.Chemscore.Lipo>
87.4110

> <Gold.Chemscore.Internal_Hbond>
0.0000

> <Gold.Chemscore.DEClash>
0.0973

> <Gold.Chemscore.DEInternal>
0.6411

> <Gold.Chemscore.Rot>
2.4533

> <Gold.Chemscore.Internal.Correction>
   9.000000E+99

> <Gold.Chemscore.Hbonds>
donor molecule, donor type, donor heavy atom, donor atom, acceptor molecule, acceptor atom, score
      L1  H    11    29       P1  8028  0.97
      P1  H  7989  7998       L1     7  0.26

> <Gold.Chemscore.Hbond.Weighted>
-6.6141

> <Gold.Chemscore.Metal.Weighted>
-0.0000

> <Gold.Chemscore.Lipo.Weighted>
-10.2271

> <Gold.Chemscore.Internal_Hbond.Weighted>
0.0000

> <Gold.Chemscore.DEClash.Weighted>
0.0973

> <Gold.Chemscore.DEInternal.Weighted>
0.6411

> <Gold.Chemscore.Rot.Weighted>
6.2804

> <Gold.Chemscore.Internal.Correction.Weighted>
   9.000000E+99

> <Gold.Protein.RotatedTorsions>
[ 6907 6896 6895 6894 ] final  -80.35 input  -60.11 | X-H torsion
[ 7974 7965 7964 7962 ] final -171.12 input  175.53 | X-H torsion
[ 8008 7997 7996 7995 ] final -142.62 input   59.86 | X-H torsion
[ 10167 10162 10161 10158 ] final  151.34 input  -65.29 | X-H torsion
[ 10718 10713 10712 10709 ] final   65.51 input   66.30 | X-H torsion
[ 10763 10752 10751 10750 ] final  123.03 input  -60.55 | X-H torsion
[ 11005 11000 10999 10996 ] final -137.73 input  -57.11 | X-H torsion

> <Gold.Protein.ActiveResidues>
 VAL166  LYS551  ARG553  GLY616  TRP617  ASP618  TYR619  PRO620  LYS621  CYS622 
 ASP623  PHE694  ASN695  SER759  ASP760  ASP761  ALA762  ILE779  LEU786  VAL792 
 PHE793  MET794  SER795  GLU796  ALA797  LYS798  CYS799  TRP800  GLU811  SER814 

> <Gold.Protein.RotatedAtoms>
  150.6931  134.3983  159.5107 H   0  0  0  0  0  0  0  0  0  0  0  0  # atno 6907 bound_to 6896
  152.1760  134.8791  160.0539 H   0  0  0  0  0  0  0  0  0  0  0  0  # atno 6908 bound_to 6896
  151.9799  133.3719  159.4140 H   0  0  0  0  0  0  0  0  0  0  0  0  # atno 6909 bound_to 6896
  144.7161  140.1969  143.6342 H   0  0  0  0  0  0  0  0  0  0  0  0  # atno 7974 bound_to 7965
  155.4972  140.0572  157.2945 H   0  0  0  0  0  0  0  0  0  0  0  0  # atno 8008 bound_to 7997
  154.4601  140.1992  156.0220 H   0  0  0  0  0  0  0  0  0  0  0  0  # atno 8009 bound_to 7997
  156.0873  140.3238  155.7775 H   0  0  0  0  0  0  0  0  0  0  0  0  # atno 8010 bound_to 7997
  139.4841  144.5449  151.7501 H   0  0  0  0  0  0  0  0  0  0  0  0  # atno 10167 bound_to 10162
  157.6110  130.9218  149.9986 H   0  0  0  0  0  0  0  0  0  0  0  0  # atno 10718 bound_to 10713
  153.6392  135.3382  155.3066 H   0  0  0  0  0  0  0  0  0  0  0  0  # atno 10763 bound_to 10752
  154.8563  135.4314  154.2023 H   0  0  0  0  0  0  0  0  0  0  0  0  # atno 10764 bound_to 10752
  153.2938  135.7019  153.7342 H   0  0  0  0  0  0  0  0  0  0  0  0  # atno 10765 bound_to 10752
  140.8683  134.2083  157.4666 H   0  0  0  0  0  0  0  0  0  0  0  0  # atno 11005 bound_to 11000
  145.8716  139.2275  143.1657 LP  0  0  0  0  0  0  0  0  0  0  0  0  # atno 17320 bound_to 7965
  146.0079  140.8462  142.9985 LP  0  0  0  0  0  0  0  0  0  0  0  0  # atno 17321 bound_to 7965
  140.4994  144.1192  150.5967 LP  0  0  0  0  0  0  0  0  0  0  0  0  # atno 17342 bound_to 10162
  140.4080  143.2671  151.9868 LP  0  0  0  0  0  0  0  0  0  0  0  0  # atno 17343 bound_to 10162
  156.1213  130.3646  149.9883 LP  0  0  0  0  0  0  0  0  0  0  0  0  # atno 17370 bound_to 10713
  156.7962  130.9274  151.3646 LP  0  0  0  0  0  0  0  0  0  0  0  0  # atno 17371 bound_to 10713
  139.8710  134.9762  156.4913 LP  0  0  0  0  0  0  0  0  0  0  0  0  # atno 17394 bound_to 11000
  140.8603  133.8065  155.9258 LP  0  0  0  0  0  0  0  0  0  0  0  0  # atno 17395 bound_to 11000

$$$$
