AV-unprocessed.smi:1248|AV-procd|sdf|5252|dock5
  -GOLD-   22720 4363D 1   1.00000     0.00000
 Structure written by MMmdl.
 43 45  0  0  0  0  0  0  0  0  1 V2000
  146.4849  129.7248  152.8999 C   0  0  0  0  0  0  0  0  0  0  0  0
  148.0038  129.5966  153.0670 C   0  0  0  0  0  0  0  0  0  0  0  0
  148.5829  130.7796  153.6741 N   0  0  0  0  0  0  0  0  0  0  0  0
  148.6200  132.0659  153.1734 C   0  0  0  0  0  0  0  0  0  0  0  0
  149.2704  132.8111  154.1105 C   0  0  0  0  0  0  0  0  0  0  0  0
  149.5322  134.1998  154.0022 N   0  0  0  0  0  0  0  0  0  0  0  0
  150.2751  134.9531  154.8291 C   0  0  0  0  0  0  0  0  0  0  0  0
  150.8589  134.5397  155.8307 O   0  0  0  0  0  0  0  0  0  0  0  0
  150.3035  136.2326  154.4295 N   0  0  0  0  0  0  0  0  0  0  0  0
  151.0148  137.3109  155.1101 C   0  0  0  0  0  0  0  0  0  0  0  0
  150.5758  137.4178  156.5816 C   0  0  0  0  0  0  0  0  0  0  0  0
  151.2025  138.6496  157.2579 C   0  0  0  0  0  0  0  0  0  0  0  0
  150.8293  139.8674  156.5381 N   0  0  0  0  0  0  0  0  0  0  0  0
  151.3966  141.0142  157.2285 C   0  0  0  0  0  0  0  0  0  0  0  0
  150.4618  141.8607  158.0623 C   0  0  0  0  0  0  0  0  0  0  0  0
  150.9895  142.3892  156.7504 C   0  0  0  0  0  0  0  0  0  0  0  0
  151.3628  139.8219  155.1767 C   0  0  0  0  0  0  0  0  0  0  0  0
  150.7395  138.6471  154.4026 C   0  0  0  0  0  0  0  0  0  0  0  0
  149.6052  131.9095  155.1601 C   0  0  0  0  0  0  0  0  0  0  0  0
  149.1860  130.6835  154.8848 N   0  0  0  0  0  0  0  0  0  0  0  0
  146.0709  128.8344  152.4265 H   0  0  0  0  0  0  0  0  0  0  0  0
  146.2283  130.5828  152.2781 H   0  0  0  0  0  0  0  0  0  0  0  0
  145.9897  129.8484  153.8632 H   0  0  0  0  0  0  0  0  0  0  0  0
  148.2461  128.7315  153.6855 H   0  0  0  0  0  0  0  0  0  0  0  0
  148.4755  129.4349  152.0972 H   0  0  0  0  0  0  0  0  0  0  0  0
  148.1901  132.3303  152.2184 H   0  0  0  0  0  0  0  0  0  0  0  0
  149.1061  134.6691  153.2168 H   0  0  0  0  0  0  0  0  0  0  0  0
  149.7940  136.4814  153.5945 H   0  0  0  0  0  0  0  0  0  0  0  0
  152.0885  137.1172  155.0711 H   0  0  0  0  0  0  0  0  0  0  0  0
  149.4884  137.4853  156.6439 H   0  0  0  0  0  0  0  0  0  0  0  0
  150.8610  136.5175  157.1267 H   0  0  0  0  0  0  0  0  0  0  0  0
  150.8522  138.7142  158.2887 H   0  0  0  0  0  0  0  0  0  0  0  0
  152.2887  138.5506  157.2943 H   0  0  0  0  0  0  0  0  0  0  0  0
  152.4139  140.9389  157.6090 H   0  0  0  0  0  0  0  0  0  0  0  0
  149.4121  141.5756  158.1013 H   0  0  0  0  0  0  0  0  0  0  0  0
  150.8607  142.2944  158.9769 H   0  0  0  0  0  0  0  0  0  0  0  0
  151.7394  143.1765  156.7909 H   0  0  0  0  0  0  0  0  0  0  0  0
  150.2901  142.4544  155.9188 H   0  0  0  0  0  0  0  0  0  0  0  0
  151.1338  140.7570  154.6643 H   0  0  0  0  0  0  0  0  0  0  0  0
  152.4500  139.7275  155.2000 H   0  0  0  0  0  0  0  0  0  0  0  0
  151.1381  138.6218  153.3878 H   0  0  0  0  0  0  0  0  0  0  0  0
  149.6641  138.8073  154.3093 H   0  0  0  0  0  0  0  0  0  0  0  0
  150.1246  132.0872  156.0898 H   0  0  0  0  0  0  0  0  0  0  0  0
  1  2  1  0  0  0  0
  1 21  1  0  0  0  0
  1 22  1  0  0  0  0
  1 23  1  0  0  0  0
  2  3  1  0  0  0  0
  2 24  1  0  0  0  0
  2 25  1  0  0  0  0
  3 20  1  0  0  0  0
  3  4  1  0  0  0  0
  4  5  2  0  0  0  0
  4 26  1  0  0  0  0
  5  6  1  0  0  0  0
  5 19  1  0  0  0  0
  6  7  1  0  0  0  0
  6 27  1  0  0  0  0
  7  8  2  0  0  0  0
  7  9  1  0  0  0  0
  9 10  1  0  0  0  0
  9 28  1  0  0  0  0
 10 18  1  0  0  0  0
 10 11  1  0  0  0  0
 10 29  1  0  0  0  0
 11 12  1  0  0  0  0
 11 30  1  0  0  0  0
 11 31  1  0  0  0  0
 12 13  1  0  0  0  0
 12 32  1  0  0  0  0
 12 33  1  0  0  0  0
 13 14  1  0  0  0  0
 13 17  1  0  0  0  0
 14 16  1  0  0  0  0
 14 15  1  0  0  0  0
 14 34  1  0  0  0  0
 15 16  1  0  0  0  0
 15 35  1  0  0  0  0
 15 36  1  0  0  0  0
 16 37  1  0  0  0  0
 16 38  1  0  0  0  0
 17 18  1  0  0  0  0
 17 39  1  0  0  0  0
 17 40  1  0  0  0  0
 18 41  1  0  0  0  0
 18 42  1  0  0  0  0
 19 20  2  0  0  0  0
 19 43  1  0  0  0  0
M  END
> <s_m_source_file>
AV-unprocessed.smi

> <i_m_source_file_index>
1248

> <i_lp_mmshare_version>
43012

> <i_f3d_flags>
0

> <s_epik_input>
W0NIM11bQ0gyXW4xW2NIXWMoW2NIXW4xKVtOSF1DKD1PKVtOSF1bQ0hdMltDSDJdW0NIMl1OKFtDSDJdW0NIMl0yKVtDSF0zW0NIMl1bQ0gyXTM=

> <s_epik_cmdline>
J2VwaWtfcHl0aG9uJywgJy1waCcsICc3LjAnLCAnLXRuJywgJzgnLCAnLW1hJywgJzIwMCcsICctbWV0YWxfYmluZGluZycsICctaW1hZScsICc8aW5maWxlLm1hZT4nLCAnLW9tYWUnLCAnPG91dGZpbGUubWFlPic=

> <r_lp_tautomer_probability>
1

> <r_epik_Ionization_Penalty>
1.02552

> <r_epik_Ionization_Penalty_Charging>
0

> <r_epik_Ionization_Penalty_Neutral>
1.02552

> <r_epik_State_Penalty>
1.07599

> <r_epik_Charging_Adjusted_Penalty>
1.07599

> <i_epik_Tot_Q>
0

> <i_epik_Tot_abs_Q>
0

> <r_epik_Metal_State_Penalty>
1.07597

> <b_epik_Metal_Only>
0

> <s_lp_Force_Field>
OPLS_2005

> <r_lp_Energy>
25.1211

> <b_lp_Chiralities_Consistent>
1

> <s_lp_Variant>
AV-unprocessed.smi:1248-3

> <Gold.Version>
5.8.1

> <Gold.Id.Protein>
6NUR|6NUR_protein|mol2

> <Gold.PLP.Fitness>
38.9398

> <Gold.PLP.PLP>
-32.3561

> <Gold.PLP.part.hbond>
-2.8394

> <Gold.PLP.part.metal>
0.0000

> <Gold.PLP.part.buried>
-1.1721

> <Gold.PLP.part.nonpolar>
-28.0695

> <Gold.PLP.part.repulsive>
0.1492

> <Gold.PLP.ligand.clash>
0.0000

> <Gold.PLP.ligand.torsion>
0.6940

> <Gold.PLP.Chemscore.Hbond>
1.6443

> <Gold.PLP.Chemscore.CHOScore>
0.6195

> <Gold.PLP.Chemscore.Metal>
0.0000

> <Gold.Chemscore.Hbonds>
donor molecule, donor type, donor heavy atom, donor atom, acceptor molecule, acceptor atom, score
      L1  H     6    27       P1  7948  0.60
      L1  H     9    28       P1  7948  1.00
      L1  C     4    26       P1 10747  0.64

> <Gold.PLP.Chemscore.Internal.Correction>
1.1803

> <Gold.Rescore>
     Score         DG    S(hbond)    S(metal)    S(lipo)     H(rot)  DE(clash)    DE(int)     intcor
     13.42     -15.24       1.20        0.00      77.92       1.32       0.08       1.74       ----

> <Gold.Chemscore.Fitness>
13.4190

> <Gold.Chemscore.DG>
-15.2362

> <Gold.Chemscore.ZeroCoef>
-5.4800

> <Gold.Chemscore.Hbond>
1.2010

> <Gold.Chemscore.Metal>
0.0000

> <Gold.Chemscore.Lipo>
77.9160

> <Gold.Chemscore.Internal_Hbond>
0.0000

> <Gold.Chemscore.DEClash>
0.0757

> <Gold.Chemscore.DEInternal>
1.7416

> <Gold.Chemscore.Rot>
1.3169

> <Gold.Chemscore.Internal.Correction>
   9.000000E+99

> <Gold.Chemscore.Hbonds>
donor molecule, donor type, donor heavy atom, donor atom, acceptor molecule, acceptor atom, score
      L1  H     6    27       P1  7948  0.04
      L1  H     9    28       P1  7948  0.34

> <Gold.Chemscore.Hbond.Weighted>
-4.0112

> <Gold.Chemscore.Metal.Weighted>
-0.0000

> <Gold.Chemscore.Lipo.Weighted>
-9.1162

> <Gold.Chemscore.Internal_Hbond.Weighted>
0.0000

> <Gold.Chemscore.DEClash.Weighted>
0.0757

> <Gold.Chemscore.DEInternal.Weighted>
1.7416

> <Gold.Chemscore.Rot.Weighted>
3.3712

> <Gold.Chemscore.Internal.Correction.Weighted>
   9.000000E+99

> <Gold.Protein.RotatedTorsions>
[ 6907 6896 6895 6894 ] final -114.05 input  -60.11 | X-H torsion
[ 7974 7965 7964 7962 ] final -159.62 input  175.53 | X-H torsion
[ 8008 7997 7996 7995 ] final  -48.25 input   59.86 | X-H torsion
[ 10167 10162 10161 10158 ] final   91.21 input  -65.29 | X-H torsion
[ 10718 10713 10712 10709 ] final   56.90 input   66.30 | X-H torsion
[ 10763 10752 10751 10750 ] final -173.24 input  -60.55 | X-H torsion
[ 11005 11000 10999 10996 ] final -127.06 input  -57.11 | X-H torsion

> <Gold.Protein.ActiveResidues>
 VAL166  LYS551  ARG553  GLY616  TRP617  ASP618  TYR619  PRO620  LYS621  CYS622 
 ASP623  PHE694  ASN695  SER759  ASP760  ASP761  ALA762  ILE779  LEU786  VAL792 
 PHE793  MET794  SER795  GLU796  ALA797  LYS798  CYS799  TRP800  GLU811  SER814 

> <Gold.Protein.RotatedAtoms>
  150.7873  133.8857  159.3298 H   0  0  0  0  0  0  0  0  0  0  0  0  # atno 6907 bound_to 6896
  151.6704  135.0975  160.0206 H   0  0  0  0  0  0  0  0  0  0  0  0  # atno 6908 bound_to 6896
  152.3940  133.6681  159.6296 H   0  0  0  0  0  0  0  0  0  0  0  0  # atno 6909 bound_to 6896
  144.7458  140.3658  143.6086 H   0  0  0  0  0  0  0  0  0  0  0  0  # atno 7974 bound_to 7965
  154.4026  140.1326  156.4308 H   0  0  0  0  0  0  0  0  0  0  0  0  # atno 8008 bound_to 7997
  155.7553  140.3487  155.5150 H   0  0  0  0  0  0  0  0  0  0  0  0  # atno 8009 bound_to 7997
  155.8911  140.1003  157.1408 H   0  0  0  0  0  0  0  0  0  0  0  0  # atno 8010 bound_to 7997
  139.8397  144.6647  150.9298 H   0  0  0  0  0  0  0  0  0  0  0  0  # atno 10167 bound_to 10162
  157.5470  130.8738  149.8906 H   0  0  0  0  0  0  0  0  0  0  0  0  # atno 10718 bound_to 10713
  154.6101  135.2863  155.0441 H   0  0  0  0  0  0  0  0  0  0  0  0  # atno 10763 bound_to 10752
  154.1674  135.6478  153.5004 H   0  0  0  0  0  0  0  0  0  0  0  0  # atno 10764 bound_to 10752
  153.0192  135.5392  154.6852 H   0  0  0  0  0  0  0  0  0  0  0  0  # atno 10765 bound_to 10752
  140.9630  134.0910  157.3948 H   0  0  0  0  0  0  0  0  0  0  0  0  # atno 11005 bound_to 11000
  145.7129  139.1689  143.2528 LP  0  0  0  0  0  0  0  0  0  0  0  0  # atno 17320 bound_to 7965
  146.1334  140.7156  142.9401 LP  0  0  0  0  0  0  0  0  0  0  0  0  # atno 17321 bound_to 7965
  140.7799  143.3924  151.1287 LP  0  0  0  0  0  0  0  0  0  0  0  0  # atno 17342 bound_to 10162
  139.7571  143.8691  152.3091 LP  0  0  0  0  0  0  0  0  0  0  0  0  # atno 17343 bound_to 10162
  156.0544  130.3711  150.1126 LP  0  0  0  0  0  0  0  0  0  0  0  0  # atno 17370 bound_to 10713
  156.9301  130.9711  151.3534 LP  0  0  0  0  0  0  0  0  0  0  0  0  # atno 17371 bound_to 10713
  139.8885  135.0098  156.6622 LP  0  0  0  0  0  0  0  0  0  0  0  0  # atno 17394 bound_to 11000
  140.7439  133.8954  155.8298 LP  0  0  0  0  0  0  0  0  0  0  0  0  # atno 17395 bound_to 11000

$$$$
