AV-unprocessed.smi:1601|AV-procd|sdf|6437|dock7
  -GOLD-   22720 7 83D 1   1.00000     0.00000
 Structure written by MMmdl.
 42 43  0  0  0  0  0  0  0  0  2 V2000
  149.5348  140.0111  154.5648 C   0  0  0  0  0  0  0  0  0  0  0  0
  149.4042  141.0688  155.6880 C   0  0  2  0  0  0  0  0  0  0  0  0
  149.4740  140.3807  157.0822 C   0  0  0  0  0  0  0  0  0  0  0  0
  150.3002  141.1062  158.0436 N   0  0  0  0  0  0  0  0  0  0  0  0
  151.5534  140.7701  158.3894 C   0  0  0  0  0  0  0  0  0  0  0  0
  152.1407  139.7984  157.9124 O   0  0  0  0  0  0  0  0  0  0  0  0
  152.2356  141.6635  159.4373 C   0  0  1  0  0  0  0  0  0  0  0  0
  153.7181  141.2958  159.6523 C   0  0  0  0  0  0  0  0  0  0  0  0
  152.0573  143.0712  159.0994 N   0  0  0  0  0  0  0  0  0  0  0  0
  152.4865  144.1744  159.8091 C   0  0  0  0  0  0  0  0  0  0  0  0
  152.0677  145.2857  159.1354 C   0  0  0  0  0  0  0  0  0  0  0  0
  151.3676  144.7579  158.0155 C   0  0  0  0  0  0  0  0  0  0  0  0
  151.3541  143.4354  158.0015 N   0  0  0  0  0  0  0  0  0  0  0  0
  148.1676  141.9009  155.5048 N   0  3  0  0  0  0  0  0  0  0  0  0
  147.7455  142.0811  154.0869 C   0  0  0  0  0  0  0  0  0  0  0  0
  146.4712  142.9364  153.9790 C   0  0  0  0  0  0  0  0  0  0  0  0
  145.4301  142.3522  154.7449 O   0  0  0  0  0  0  0  0  0  0  0  0
  145.7731  142.3001  156.1202 C   0  0  0  0  0  0  0  0  0  0  0  0
  147.0125  141.4106  156.3090 C   0  0  0  0  0  0  0  0  0  0  0  0
  150.3979  139.3623  154.7098 H   0  0  0  0  0  0  0  0  0  0  0  0
  149.6791  140.4585  153.5830 H   0  0  0  0  0  0  0  0  0  0  0  0
  148.6514  139.3735  154.5188 H   0  0  0  0  0  0  0  0  0  0  0  0
  150.2575  141.7448  155.6134 H   0  0  0  0  0  0  0  0  0  0  0  0
  148.4868  140.2808  157.5333 H   0  0  0  0  0  0  0  0  0  0  0  0
  149.8768  139.3724  156.9822 H   0  0  0  0  0  0  0  0  0  0  0  0
  149.8890  141.9189  158.4798 H   0  0  0  0  0  0  0  0  0  0  0  0
  151.7260  141.4967  160.3881 H   0  0  0  0  0  0  0  0  0  0  0  0
  153.8242  140.2540  159.9570 H   0  0  0  0  0  0  0  0  0  0  0  0
  154.1604  141.9112  160.4361 H   0  0  0  0  0  0  0  0  0  0  0  0
  154.3125  141.4361  158.7486 H   0  0  0  0  0  0  0  0  0  0  0  0
  153.0508  144.0782  160.7250 H   0  0  0  0  0  0  0  0  0  0  0  0
  152.2333  146.3187  159.4029 H   0  0  0  0  0  0  0  0  0  0  0  0
  150.8693  145.2925  157.2205 H   0  0  0  0  0  0  0  0  0  0  0  0
  148.5164  142.5910  153.5114 H   0  0  0  0  0  0  0  0  0  0  0  0
  147.5825  141.1051  153.6269 H   0  0  0  0  0  0  0  0  0  0  0  0
  146.6579  143.9582  154.3140 H   0  0  0  0  0  0  0  0  0  0  0  0
  146.1493  142.9990  152.9393 H   0  0  0  0  0  0  0  0  0  0  0  0
  145.9504  143.3053  156.5064 H   0  0  0  0  0  0  0  0  0  0  0  0
  144.9303  141.8903  156.6771 H   0  0  0  0  0  0  0  0  0  0  0  0
  146.7780  140.3840  156.0224 H   0  0  0  0  0  0  0  0  0  0  0  0
  147.2470  141.4008  157.3713 H   0  0  0  0  0  0  0  0  0  0  0  0
  148.3903  142.8238  155.8494 H   0  0  0  0  0  0  0  0  0  0  0  0
  1  2  1  0  0  0  0
  1 20  1  0  0  0  0
  1 21  1  0  0  0  0
  1 22  1  0  0  0  0
  2  3  1  0  0  0  0
  2 14  1  0  0  0  0
  2 23  1  0  0  0  0
  3  4  1  0  0  0  0
  3 24  1  0  0  0  0
  3 25  1  0  0  0  0
  4  5  1  0  0  0  0
  4 26  1  0  0  0  0
  5  6  2  0  0  0  0
  5  7  1  0  0  0  0
  7  8  1  0  0  0  0
  7  9  1  0  0  0  0
  7 27  1  0  0  0  0
  8 28  1  0  0  0  0
  8 29  1  0  0  0  0
  8 30  1  0  0  0  0
  9 13  1  0  0  0  0
  9 10  1  0  0  0  0
 10 11  2  0  0  0  0
 10 31  1  0  0  0  0
 11 12  1  0  0  0  0
 11 32  1  0  0  0  0
 12 13  2  0  0  0  0
 12 33  1  0  0  0  0
 14 19  1  0  0  0  0
 14 15  1  0  0  0  0
 14 42  1  0  0  0  0
 15 16  1  0  0  0  0
 15 34  1  0  0  0  0
 15 35  1  0  0  0  0
 16 17  1  0  0  0  0
 16 36  1  0  0  0  0
 16 37  1  0  0  0  0
 17 18  1  0  0  0  0
 18 19  1  0  0  0  0
 18 38  1  0  0  0  0
 18 39  1  0  0  0  0
 19 40  1  0  0  0  0
 19 41  1  0  0  0  0
M  CHG  1  14   1
M  END
> <s_m_source_file>
AV-unprocessed.smi

> <i_m_source_file_index>
1601

> <i_lp_mmshare_version>
43012

> <i_f3d_flags>
0

> <s_epik_input>
W0NIMl0xW0NIMl1PW0NIMl1bQ0gyXU4xW0NASF0oW0NIM10pW0NIMl1bTkhdQyg9TylbQ0BIXShbQ0gzXSluMltjSF1bY0hdW2NIXW4y

> <s_epik_cmdline>
J2VwaWtfcHl0aG9uJywgJy1waCcsICc3LjAnLCAnLXRuJywgJzgnLCAnLW1hJywgJzIwMCcsICctbWV0YWxfYmluZGluZycsICctaW1hZScsICc8aW5maWxlLm1hZT4nLCAnLW9tYWUnLCAnPG91dGZpbGUubWFlPic=

> <r_lp_tautomer_probability>
1

> <r_epik_Ionization_Penalty>
0.732551

> <r_epik_Ionization_Penalty_Charging>
0.732531

> <r_epik_Ionization_Penalty_Neutral>
2.04647e-05

> <r_epik_State_Penalty>
0.757939

> <r_epik_Charging_Adjusted_Penalty>
1.49047

> <i_epik_Tot_Q>
1

> <i_epik_Tot_abs_Q>
1

> <r_epik_Metal_State_Penalty>
0.757952

> <b_epik_Metal_Only>
0

> <s_lp_Force_Field>
OPLS_2005

> <r_lp_Energy>
24.7345

> <b_lp_Chiralities_Consistent>
1

> <s_lp_Variant>
AV-unprocessed.smi:1601-7

> <Gold.Version>
5.8.1

> <Gold.Id.Protein>
6NUR|6NUR_protein|mol2

> <Gold.PLP.Fitness>
44.7748

> <Gold.PLP.PLP>
-39.0191

> <Gold.PLP.part.hbond>
-1.0000

> <Gold.PLP.part.metal>
0.0000

> <Gold.PLP.part.buried>
-6.9652

> <Gold.PLP.part.nonpolar>
-31.5889

> <Gold.PLP.part.repulsive>
0.5087

> <Gold.PLP.ligand.clash>
0.0000

> <Gold.PLP.ligand.torsion>
1.6939

> <Gold.PLP.Chemscore.Hbond>
2.0000

> <Gold.PLP.Chemscore.CHOScore>
0.9988

> <Gold.PLP.Chemscore.Metal>
0.0000

> <Gold.Chemscore.Hbonds>
donor molecule, donor type, donor heavy atom, donor atom, acceptor molecule, acceptor atom, score
      L1  H    14    42       P1  8028  2.00
      L1  C    12    33       P1  8028  0.98

> <Gold.PLP.Chemscore.Internal.Correction>
0.1470

> <Gold.Rescore>
     Score         DG    S(hbond)    S(metal)    S(lipo)     H(rot)  DE(clash)    DE(int)     intcor
     11.65     -15.14       0.96        0.00      95.87       1.86       0.22       3.27       ----

> <Gold.Chemscore.Fitness>
11.6478

> <Gold.Chemscore.DG>
-15.1416

> <Gold.Chemscore.ZeroCoef>
-5.4800

> <Gold.Chemscore.Hbond>
0.9626

> <Gold.Chemscore.Metal>
0.0000

> <Gold.Chemscore.Lipo>
95.8654

> <Gold.Chemscore.Internal_Hbond>
0.0000

> <Gold.Chemscore.DEClash>
0.2243

> <Gold.Chemscore.DEInternal>
3.2696

> <Gold.Chemscore.Rot>
1.8631

> <Gold.Chemscore.Internal.Correction>
   9.000000E+99

> <Gold.Chemscore.Hbonds>
donor molecule, donor type, donor heavy atom, donor atom, acceptor molecule, acceptor atom, score
      L1  H    14    42       P1  8028  0.94

> <Gold.Chemscore.Hbond.Weighted>
-3.2150

> <Gold.Chemscore.Metal.Weighted>
-0.0000

> <Gold.Chemscore.Lipo.Weighted>
-11.2162

> <Gold.Chemscore.Internal_Hbond.Weighted>
0.0000

> <Gold.Chemscore.DEClash.Weighted>
0.2243

> <Gold.Chemscore.DEInternal.Weighted>
3.2696

> <Gold.Chemscore.Rot.Weighted>
4.7697

> <Gold.Chemscore.Internal.Correction.Weighted>
   9.000000E+99

> <Gold.Protein.RotatedTorsions>
[ 6907 6896 6895 6894 ] final  109.88 input  -60.11 | X-H torsion
[ 7974 7965 7964 7962 ] final -146.61 input  175.53 | X-H torsion
[ 8008 7997 7996 7995 ] final  -74.55 input   59.86 | X-H torsion
[ 10167 10162 10161 10158 ] final -138.08 input  -65.29 | X-H torsion
[ 10718 10713 10712 10709 ] final -131.00 input   66.30 | X-H torsion
[ 10763 10752 10751 10750 ] final  146.15 input  -60.55 | X-H torsion
[ 11005 11000 10999 10996 ] final   82.17 input  -57.11 | X-H torsion

> <Gold.Protein.ActiveResidues>
 VAL166  LYS551  ARG553  GLY616  TRP617  ASP618  TYR619  PRO620  LYS621  CYS622 
 ASP623  PHE694  ASN695  SER759  ASP760  ASP761  ALA762  ILE779  LEU786  VAL792 
 PHE793  MET794  SER795  GLU796  ALA797  LYS798  CYS799  TRP800  GLU811  SER814 

> <Gold.Protein.RotatedAtoms>
  152.5046  133.8880  159.7379 H   0  0  0  0  0  0  0  0  0  0  0  0  # atno 6907 bound_to 6896
  150.9326  133.6740  159.2814 H   0  0  0  0  0  0  0  0  0  0  0  0  # atno 6908 bound_to 6896
  151.4079  135.0985  159.9628 H   0  0  0  0  0  0  0  0  0  0  0  0  # atno 6909 bound_to 6896
  144.8148  140.5433  143.5618 H   0  0  0  0  0  0  0  0  0  0  0  0  # atno 7974 bound_to 7965
  154.5341  140.0759  156.8396 H   0  0  0  0  0  0  0  0  0  0  0  0  # atno 8008 bound_to 7997
  155.3315  140.3402  155.4221 H   0  0  0  0  0  0  0  0  0  0  0  0  # atno 8009 bound_to 7997
  156.1810  140.1652  156.8260 H   0  0  0  0  0  0  0  0  0  0  0  0  # atno 8010 bound_to 7997
  139.8513  143.7194  152.2657 H   0  0  0  0  0  0  0  0  0  0  0  0  # atno 10167 bound_to 10162
  156.2201  130.6973  151.0746 H   0  0  0  0  0  0  0  0  0  0  0  0  # atno 10718 bound_to 10713
  154.0172  135.2909  155.3385 H   0  0  0  0  0  0  0  0  0  0  0  0  # atno 10763 bound_to 10752
  154.7068  135.5166  153.8610 H   0  0  0  0  0  0  0  0  0  0  0  0  # atno 10764 bound_to 10752
  153.0697  135.6643  154.0397 H   0  0  0  0  0  0  0  0  0  0  0  0  # atno 10765 bound_to 10752
  139.9073  134.8051  156.2138 H   0  0  0  0  0  0  0  0  0  0  0  0  # atno 11005 bound_to 11000
  145.5241  139.1476  143.3536 LP  0  0  0  0  0  0  0  0  0  0  0  0  # atno 17320 bound_to 7965
  146.2450  140.5382  142.8918 LP  0  0  0  0  0  0  0  0  0  0  0  0  # atno 17321 bound_to 7965
  139.7462  144.7546  151.0576 LP  0  0  0  0  0  0  0  0  0  0  0  0  # atno 17342 bound_to 10162
  140.7787  143.4913  150.9889 LP  0  0  0  0  0  0  0  0  0  0  0  0  # atno 17343 bound_to 10162
  157.7083  131.0746  150.6591 LP  0  0  0  0  0  0  0  0  0  0  0  0  # atno 17370 bound_to 10713
  156.6653  130.4524  149.5674 LP  0  0  0  0  0  0  0  0  0  0  0  0  # atno 17371 bound_to 10713
  141.0448  133.6919  156.1664 LP  0  0  0  0  0  0  0  0  0  0  0  0  # atno 17394 bound_to 11000
  140.6900  134.4676  157.5588 LP  0  0  0  0  0  0  0  0  0  0  0  0  # atno 17395 bound_to 11000

$$$$
