AV-unprocessed.smi:1983|AV-procd|sdf|8030|dock4
  -GOLD-   2272010223D 1   1.00000     0.00000
 Structure written by MMmdl.
 49 50  0  0  0  0  0  0  0  0  1 V2000
  146.1426  133.9230  153.1639 C   0  0  0  0  0  0  0  0  0  0  0  0
  145.6093  135.0781  152.2962 C   0  0  2  0  0  0  0  0  0  0  0  0
  145.3648  134.6803  150.8288 C   0  0  0  0  0  0  0  0  0  0  0  0
  144.9752  135.7921  150.0478 O   0  0  0  0  0  0  0  0  0  0  0  0
  146.4867  136.2443  152.3531 N   0  0  0  0  0  0  0  0  0  0  0  0
  146.0883  137.5084  152.5496 C   0  0  0  0  0  0  0  0  0  0  0  0
  144.9140  137.8482  152.6988 O   0  0  0  0  0  0  0  0  0  0  0  0
  147.1247  138.3579  152.5763 N   0  0  0  0  0  0  0  0  0  0  0  0
  147.0153  139.7904  152.8284 C   0  0  0  0  0  0  0  0  0  0  0  0
  147.8955  140.2653  153.9728 C   0  0  0  0  0  0  0  0  0  0  0  0
  147.3515  140.9398  155.0847 C   0  0  0  0  0  0  0  0  0  0  0  0
  148.2129  141.3638  156.1140 C   0  0  0  0  0  0  0  0  0  0  0  0
  149.5988  141.1011  156.0050 C   0  0  0  0  0  0  0  0  0  0  0  0
  150.4777  141.5221  157.0249 N   0  0  0  0  0  0  0  0  0  0  0  0
  151.2644  140.5062  157.7176 C   0  0  0  0  0  0  0  0  0  0  0  0
  152.3946  141.1669  158.5261 C   0  0  2  0  0  0  0  0  0  0  0  0
  153.1668  140.1462  159.3684 C   0  0  0  0  0  0  0  0  0  0  0  0
  151.8423  142.1430  159.4089 O   0  0  0  0  0  0  0  0  0  0  0  0
  151.0843  143.1711  158.7667 C   0  0  1  0  0  0  0  0  0  0  0  0
  151.9774  144.1471  157.9803 C   0  0  0  0  0  0  0  0  0  0  0  0
  149.9561  142.5532  157.9168 C   0  0  0  0  0  0  0  0  0  0  0  0
  150.1178  140.4522  154.9333 N   0  0  0  0  0  0  0  0  0  0  0  0
  149.2871  140.0452  153.9506 C   0  0  0  0  0  0  0  0  0  0  0  0
  145.4871  133.0541  153.1016 H   0  0  0  0  0  0  0  0  0  0  0  0
  146.2019  134.2123  154.2136 H   0  0  0  0  0  0  0  0  0  0  0  0
  147.1399  133.6118  152.8516 H   0  0  0  0  0  0  0  0  0  0  0  0
  144.6407  135.3763  152.7018 H   0  0  0  0  0  0  0  0  0  0  0  0
  146.2783  134.2682  150.3990 H   0  0  0  0  0  0  0  0  0  0  0  0
  144.6033  133.9026  150.7578 H   0  0  0  0  0  0  0  0  0  0  0  0
  145.1518  135.5976  149.1399 H   0  0  0  0  0  0  0  0  0  0  0  0
  147.4754  136.0678  152.2490 H   0  0  0  0  0  0  0  0  0  0  0  0
  148.0528  137.9856  152.4388 H   0  0  0  0  0  0  0  0  0  0  0  0
  147.3125  140.3207  151.9236 H   0  0  0  0  0  0  0  0  0  0  0  0
  145.9734  140.0571  153.0145 H   0  0  0  0  0  0  0  0  0  0  0  0
  146.2910  141.1346  155.1489 H   0  0  0  0  0  0  0  0  0  0  0  0
  147.8081  141.8957  156.9621 H   0  0  0  0  0  0  0  0  0  0  0  0
  150.6110  139.9346  158.3782 H   0  0  0  0  0  0  0  0  0  0  0  0
  151.6945  139.8077  156.9987 H   0  0  0  0  0  0  0  0  0  0  0  0
  153.1001  141.6440  157.8458 H   0  0  0  0  0  0  0  0  0  0  0  0
  153.6167  139.3781  158.7386 H   0  0  0  0  0  0  0  0  0  0  0  0
  152.5124  139.6504  160.0859 H   0  0  0  0  0  0  0  0  0  0  0  0
  153.9687  140.6293  159.9270 H   0  0  0  0  0  0  0  0  0  0  0  0
  150.6176  143.7473  159.5661 H   0  0  0  0  0  0  0  0  0  0  0  0
  151.3951  144.9937  157.6158 H   0  0  0  0  0  0  0  0  0  0  0  0
  152.4403  143.6775  157.1125 H   0  0  0  0  0  0  0  0  0  0  0  0
  152.7729  144.5419  158.6124 H   0  0  0  0  0  0  0  0  0  0  0  0
  149.4378  143.3411  157.3715 H   0  0  0  0  0  0  0  0  0  0  0  0
  149.2172  142.0911  158.5727 H   0  0  0  0  0  0  0  0  0  0  0  0
  149.7511  139.5344  153.1197 H   0  0  0  0  0  0  0  0  0  0  0  0
  1  2  1  0  0  0  0
  1 24  1  0  0  0  0
  1 25  1  0  0  0  0
  1 26  1  0  0  0  0
  2  3  1  0  0  0  0
  2  5  1  0  0  0  0
  2 27  1  0  0  0  0
  3  4  1  0  0  0  0
  3 28  1  0  0  0  0
  3 29  1  0  0  0  0
  4 30  1  0  0  0  0
  5  6  1  0  0  0  0
  5 31  1  0  0  0  0
  6  7  2  0  0  0  0
  6  8  1  0  0  0  0
  8  9  1  0  0  0  0
  8 32  1  0  0  0  0
  9 10  1  0  0  0  0
  9 33  1  0  0  0  0
  9 34  1  0  0  0  0
 10 23  1  0  0  0  0
 10 11  2  0  0  0  0
 11 12  1  0  0  0  0
 11 35  1  0  0  0  0
 12 13  2  0  0  0  0
 12 36  1  0  0  0  0
 13 14  1  0  0  0  0
 13 22  1  0  0  0  0
 14 21  1  0  0  0  0
 14 15  1  0  0  0  0
 15 16  1  0  0  0  0
 15 37  1  0  0  0  0
 15 38  1  0  0  0  0
 16 17  1  0  0  0  0
 16 18  1  0  0  0  0
 16 39  1  0  0  0  0
 17 40  1  0  0  0  0
 17 41  1  0  0  0  0
 17 42  1  0  0  0  0
 18 19  1  0  0  0  0
 19 20  1  0  0  0  0
 19 21  1  0  0  0  0
 19 43  1  0  0  0  0
 20 44  1  0  0  0  0
 20 45  1  0  0  0  0
 20 46  1  0  0  0  0
 21 47  1  0  0  0  0
 21 48  1  0  0  0  0
 22 23  2  0  0  0  0
 23 49  1  0  0  0  0
M  END
> <s_m_source_file>
AV-unprocessed.smi

> <i_m_source_file_index>
1983

> <i_lp_mmshare_version>
43012

> <i_f3d_flags>
0

> <s_epik_input>
W09IXVtDSDJdW0NAQEhdKFtDSDNdKVtOSF1DKD1PKVtOSF1bQ0gyXWMxW2NIXVtjSF1jKG5bY0hdMSlOMltDSDJdW0NAQEhdKFtDSDNdKU9bQ0BASF0oW0NIM10pW0NIMl0y

> <s_epik_cmdline>
J2VwaWtfcHl0aG9uJywgJy1waCcsICc3LjAnLCAnLXRuJywgJzgnLCAnLW1hJywgJzIwMCcsICctbWV0YWxfYmluZGluZycsICctaW1hZScsICc8aW5maWxlLm1hZT4nLCAnLW9tYWUnLCAnPG91dGZpbGUubWFlPic=

> <r_lp_tautomer_probability>
1

> <r_epik_Ionization_Penalty>
0.00801967

> <r_epik_Ionization_Penalty_Charging>
0

> <r_epik_Ionization_Penalty_Neutral>
0.00801967

> <r_epik_State_Penalty>
0.00598289

> <r_epik_Charging_Adjusted_Penalty>
0.00598289

> <i_epik_Tot_Q>
0

> <i_epik_Tot_abs_Q>
0

> <r_epik_Metal_State_Penalty>
0.00590297

> <b_epik_Metal_Only>
0

> <s_lp_Force_Field>
OPLS_2005

> <r_lp_Energy>
17.398

> <b_lp_Chiralities_Consistent>
1

> <s_lp_Variant>
AV-unprocessed.smi:1983-3

> <Gold.Version>
5.8.1

> <Gold.Id.Protein>
6NUR|6NUR_protein|mol2

> <Gold.PLP.Fitness>
45.3585

> <Gold.PLP.PLP>
-33.7134

> <Gold.PLP.part.hbond>
-5.0014

> <Gold.PLP.part.metal>
0.0000

> <Gold.PLP.part.buried>
-3.7304

> <Gold.PLP.part.nonpolar>
-28.6355

> <Gold.PLP.part.repulsive>
1.9446

> <Gold.PLP.ligand.clash>
0.0000

> <Gold.PLP.ligand.torsion>
0.5148

> <Gold.PLP.Chemscore.Hbond>
3.1490

> <Gold.PLP.Chemscore.CHOScore>
0.9478

> <Gold.PLP.Chemscore.Metal>
0.0000

> <Gold.Chemscore.Hbonds>
donor molecule, donor type, donor heavy atom, donor atom, acceptor molecule, acceptor atom, score
      L1  H     4    30       P1  7921  1.00
      L1  H     5    31       P1  7948  0.98
      L1  H     8    32       P1  7948  0.79
      P1  H  7989  7998       L1    22  0.37
      L1  C    23    49       P1  7957  0.93

> <Gold.PLP.Chemscore.Internal.Correction>
0.3841

> <Gold.Rescore>
     Score         DG    S(hbond)    S(metal)    S(lipo)     H(rot)  DE(clash)    DE(int)     intcor
     16.97     -19.17       2.88        0.00      91.84       2.61       1.70       0.50       ----

> <Gold.Chemscore.Fitness>
16.9726

> <Gold.Chemscore.DG>
-19.1652

> <Gold.Chemscore.ZeroCoef>
-5.4800

> <Gold.Chemscore.Hbond>
2.8806

> <Gold.Chemscore.Metal>
0.0000

> <Gold.Chemscore.Lipo>
91.8357

> <Gold.Chemscore.Internal_Hbond>
0.0000

> <Gold.Chemscore.DEClash>
1.6971

> <Gold.Chemscore.DEInternal>
0.4955

> <Gold.Chemscore.Rot>
2.6097

> <Gold.Chemscore.Internal.Correction>
   9.000000E+99

> <Gold.Chemscore.Hbonds>
donor molecule, donor type, donor heavy atom, donor atom, acceptor molecule, acceptor atom, score
      L1  H     4    30       P1  7921  0.97
      L1  H     5    31       P1  7948  0.91
      L1  H     8    32       P1  7948  0.73
      P1  H  7989  7998       L1    22  0.02

> <Gold.Chemscore.Hbond.Weighted>
-9.6213

> <Gold.Chemscore.Metal.Weighted>
-0.0000

> <Gold.Chemscore.Lipo.Weighted>
-10.7448

> <Gold.Chemscore.Internal_Hbond.Weighted>
0.0000

> <Gold.Chemscore.DEClash.Weighted>
1.6971

> <Gold.Chemscore.DEInternal.Weighted>
0.4955

> <Gold.Chemscore.Rot.Weighted>
6.6809

> <Gold.Chemscore.Internal.Correction.Weighted>
   9.000000E+99

> <Gold.Protein.RotatedTorsions>
[ 6907 6896 6895 6894 ] final -131.92 input  -60.11 | X-H torsion
[ 7974 7965 7964 7962 ] final   11.71 input  175.53 | X-H torsion
[ 8008 7997 7996 7995 ] final -179.07 input   59.86 | X-H torsion
[ 10167 10162 10161 10158 ] final -128.96 input  -65.29 | X-H torsion
[ 10718 10713 10712 10709 ] final  -69.16 input   66.30 | X-H torsion
[ 10763 10752 10751 10750 ] final -170.85 input  -60.55 | X-H torsion
[ 11005 11000 10999 10996 ] final   32.33 input  -57.11 | X-H torsion

> <Gold.Protein.ActiveResidues>
 VAL166  LYS551  ARG553  GLY616  TRP617  ASP618  TYR619  PRO620  LYS621  CYS622 
 ASP623  PHE694  ASN695  SER759  ASP760  ASP761  ALA762  ILE779  LEU786  VAL792 
 PHE793  MET794  SER795  GLU796  ALA797  LYS798  CYS799  TRP800  GLU811  SER814 

> <Gold.Protein.RotatedAtoms>
  150.9564  133.6493  159.2762 H   0  0  0  0  0  0  0  0  0  0  0  0  # atno 6907 bound_to 6896
  151.3830  135.0942  159.9512 H   0  0  0  0  0  0  0  0  0  0  0  0  # atno 6908 bound_to 6896
  152.5130  133.9095  159.7535 H   0  0  0  0  0  0  0  0  0  0  0  0  # atno 6909 bound_to 6896
  146.2366  139.9445  142.8478 H   0  0  0  0  0  0  0  0  0  0  0  0  # atno 7974 bound_to 7965
  156.0262  140.1272  157.0306 H   0  0  0  0  0  0  0  0  0  0  0  0  # atno 8008 bound_to 7997
  154.4331  140.1058  156.6104 H   0  0  0  0  0  0  0  0  0  0  0  0  # atno 8009 bound_to 7997
  155.5873  140.3469  155.4559 H   0  0  0  0  0  0  0  0  0  0  0  0  # atno 8010 bound_to 7997
  139.9448  143.6122  152.2493 H   0  0  0  0  0  0  0  0  0  0  0  0  # atno 10167 bound_to 10162
  156.0469  130.4307  150.2106 H   0  0  0  0  0  0  0  0  0  0  0  0  # atno 10718 bound_to 10713
  154.6370  135.2893  155.0149 H   0  0  0  0  0  0  0  0  0  0  0  0  # atno 10763 bound_to 10752
  154.1289  135.6536  153.4922 H   0  0  0  0  0  0  0  0  0  0  0  0  # atno 10764 bound_to 10752
  153.0307  135.5305  154.7221 H   0  0  0  0  0  0  0  0  0  0  0  0  # atno 10765 bound_to 10752
  140.2746  134.3043  155.7818 H   0  0  0  0  0  0  0  0  0  0  0  0  # atno 11005 bound_to 11000
  145.1920  140.9816  143.4205 LP  0  0  0  0  0  0  0  0  0  0  0  0  # atno 17320 bound_to 7965
  144.9848  139.3747  143.6244 LP  0  0  0  0  0  0  0  0  0  0  0  0  # atno 17321 bound_to 7965
  139.6675  144.7662  151.1845 LP  0  0  0  0  0  0  0  0  0  0  0  0  # atno 17342 bound_to 10162
  140.7600  143.5915  150.8791 LP  0  0  0  0  0  0  0  0  0  0  0  0  # atno 17343 bound_to 10162
  157.0195  130.9975  151.3343 LP  0  0  0  0  0  0  0  0  0  0  0  0  # atno 17370 bound_to 10713
  157.5354  130.8085  149.7966 LP  0  0  0  0  0  0  0  0  0  0  0  0  # atno 17371 bound_to 10713
  141.2172  133.7488  156.9387 LP  0  0  0  0  0  0  0  0  0  0  0  0  # atno 17394 bound_to 11000
  140.1341  134.9337  157.2377 LP  0  0  0  0  0  0  0  0  0  0  0  0  # atno 17395 bound_to 11000

$$$$
