AV-unprocessed.smi:3181|AV-procd|sdf|12145|dock7
  -GOLD-   2272017583D 1   1.00000     0.00000
 Structure written by MMmdl.
 42 43  0  0  0  0  0  0  0  0  2 V2000
  148.8892  141.7464  157.8381 C   0  0  0  0  0  0  0  0  0  0  0  0
  150.3890  142.0873  157.8041 C   0  0  2  0  0  0  0  0  0  0  0  0
  151.2853  140.8327  157.7629 C   0  0  0  0  0  0  0  0  0  0  0  0
  151.4046  140.2629  156.4330 N   0  0  0  0  0  0  0  0  0  0  0  0
  150.5921  140.3409  155.3778 C   0  0  0  0  0  0  0  0  0  0  0  0
  151.0281  139.6762  154.3169 N   0  0  0  0  0  0  0  0  0  0  0  0
  152.1910  139.1704  154.8256 C   0  0  0  0  0  0  0  0  0  0  0  0
  152.4619  139.4894  156.0917 N   0  0  0  0  0  0  0  0  0  0  0  0
  150.7449  142.9117  158.9814 N   0  3  0  0  0  0  0  0  0  0  0  0
  152.1175  143.4714  158.9946 C   0  0  1  0  0  0  0  0  0  0  0  0
  152.2165  144.7710  159.8173 C   0  0  0  0  0  0  0  0  0  0  0  0
  152.0534  144.5113  161.3223 C   0  0  0  0  0  0  0  0  0  0  0  0
  153.0707  143.4784  161.8464 C   0  0  1  0  0  0  0  0  0  0  0  0
  152.8719  143.2739  163.3589 C   0  0  0  0  0  0  0  0  0  0  0  0
  152.9765  142.1572  161.0380 C   0  0  2  0  0  0  0  0  0  0  0  0
  154.0169  141.1115  161.4780 C   0  0  0  0  0  0  0  0  0  0  0  0
  153.1195  142.4289  159.5233 C   0  0  0  0  0  0  0  0  0  0  0  0
  148.5809  141.2051  156.9433 H   0  0  0  0  0  0  0  0  0  0  0  0
  148.2797  142.6485  157.8925 H   0  0  0  0  0  0  0  0  0  0  0  0
  148.6431  141.1274  158.7015 H   0  0  0  0  0  0  0  0  0  0  0  0
  150.5794  142.6601  156.8949 H   0  0  0  0  0  0  0  0  0  0  0  0
  152.2880  141.0721  158.1202 H   0  0  0  0  0  0  0  0  0  0  0  0
  150.8911  140.0645  158.4300 H   0  0  0  0  0  0  0  0  0  0  0  0
  149.6658  140.8968  155.3834 H   0  0  0  0  0  0  0  0  0  0  0  0
  152.8570  138.5482  154.2461 H   0  0  0  0  0  0  0  0  0  0  0  0
  150.0829  143.6700  159.0645 H   0  0  0  0  0  0  0  0  0  0  0  0
  152.3865  143.6884  157.9597 H   0  0  0  0  0  0  0  0  0  0  0  0
  153.1927  145.2259  159.6437 H   0  0  0  0  0  0  0  0  0  0  0  0
  151.4847  145.5060  159.4826 H   0  0  0  0  0  0  0  0  0  0  0  0
  152.1705  145.4522  161.8611 H   0  0  0  0  0  0  0  0  0  0  0  0
  151.0388  144.1681  161.5281 H   0  0  0  0  0  0  0  0  0  0  0  0
  154.0691  143.8941  161.7013 H   0  0  0  0  0  0  0  0  0  0  0  0
  151.9174  142.7924  163.5735 H   0  0  0  0  0  0  0  0  0  0  0  0
  152.8867  144.2277  163.8869 H   0  0  0  0  0  0  0  0  0  0  0  0
  153.6624  142.6628  163.7930 H   0  0  0  0  0  0  0  0  0  0  0  0
  151.9901  141.7242  161.2099 H   0  0  0  0  0  0  0  0  0  0  0  0
  155.0314  141.5045  161.4037 H   0  0  0  0  0  0  0  0  0  0  0  0
  153.9622  140.2186  160.8550 H   0  0  0  0  0  0  0  0  0  0  0  0
  153.8566  140.7877  162.5059 H   0  0  0  0  0  0  0  0  0  0  0  0
  153.0109  141.4989  158.9634 H   0  0  0  0  0  0  0  0  0  0  0  0
  154.1319  142.7820  159.3208 H   0  0  0  0  0  0  0  0  0  0  0  0
  150.6528  142.3227  159.7966 H   0  0  0  0  0  0  0  0  0  0  0  0
  1  2  1  0  0  0  0
  1 18  1  0  0  0  0
  1 19  1  0  0  0  0
  1 20  1  0  0  0  0
  2  3  1  0  0  0  0
  2  9  1  0  0  0  0
  2 21  1  0  0  0  0
  3  4  1  0  0  0  0
  3 22  1  0  0  0  0
  3 23  1  0  0  0  0
  4  8  1  0  0  0  0
  4  5  1  0  0  0  0
  5  6  2  0  0  0  0
  5 24  1  0  0  0  0
  6  7  1  0  0  0  0
  7  8  2  0  0  0  0
  7 25  1  0  0  0  0
  9 10  1  0  0  0  0
  9 26  1  0  0  0  0
  9 42  1  0  0  0  0
 10 17  1  0  0  0  0
 10 11  1  0  0  0  0
 10 27  1  0  0  0  0
 11 12  1  0  0  0  0
 11 28  1  0  0  0  0
 11 29  1  0  0  0  0
 12 13  1  0  0  0  0
 12 30  1  0  0  0  0
 12 31  1  0  0  0  0
 13 14  1  0  0  0  0
 13 15  1  0  0  0  0
 13 32  1  0  0  0  0
 14 33  1  0  0  0  0
 14 34  1  0  0  0  0
 14 35  1  0  0  0  0
 15 16  1  0  0  0  0
 15 17  1  0  0  0  0
 15 36  1  0  0  0  0
 16 37  1  0  0  0  0
 16 38  1  0  0  0  0
 16 39  1  0  0  0  0
 17 40  1  0  0  0  0
 17 41  1  0  0  0  0
M  CHG  1   9   1
M  END
> <s_m_source_file>
AV-unprocessed.smi

> <i_m_source_file_index>
3181

> <i_lp_mmshare_version>
43012

> <i_f3d_flags>
0

> <s_epik_input>
bjFbY0hdbltjSF1uMVtDSDJdW0NAQEhdKFtDSDNdKVtOSF1bQ0BASF0yW0NIMl1bQ0gyXVtDQEBIXShbQ0gzXSlbQ0BASF0oW0NIM10pW0NIMl0y

> <s_epik_cmdline>
J2VwaWtfcHl0aG9uJywgJy1waCcsICc3LjAnLCAnLXRuJywgJzgnLCAnLW1hJywgJzIwMCcsICctbWV0YWxfYmluZGluZycsICctaW1hZScsICc8aW5maWxlLm1hZT4nLCAnLW9tYWUnLCAnPG91dGZpbGUubWFlPic=

> <r_lp_tautomer_probability>
1

> <r_epik_Ionization_Penalty>
0.000617007

> <r_epik_Ionization_Penalty_Charging>
0.000616215

> <r_epik_Ionization_Penalty_Neutral>
7.92544e-07

> <r_epik_State_Penalty>
0.000388807

> <r_epik_Charging_Adjusted_Penalty>
0.00100502

> <i_epik_Tot_Q>
1

> <i_epik_Tot_abs_Q>
1

> <r_epik_Metal_State_Penalty>
-0

> <b_epik_Metal_Only>
0

> <s_lp_Force_Field>
OPLS_2005

> <r_lp_Energy>
23.0816

> <b_lp_Chiralities_Consistent>
1

> <s_lp_Variant>
AV-unprocessed.smi:3181-11

> <Gold.Version>
5.8.1

> <Gold.Id.Protein>
6NUR|6NUR_protein|mol2

> <Gold.PLP.Fitness>
45.0937

> <Gold.PLP.PLP>
-40.9339

> <Gold.PLP.part.hbond>
-2.0000

> <Gold.PLP.part.metal>
0.0000

> <Gold.PLP.part.buried>
-1.7594

> <Gold.PLP.part.nonpolar>
-36.8899

> <Gold.PLP.part.repulsive>
0.2305

> <Gold.PLP.ligand.clash>
0.0000

> <Gold.PLP.ligand.torsion>
0.8552

> <Gold.PLP.Chemscore.Hbond>
1.9500

> <Gold.PLP.Chemscore.CHOScore>
0.0000

> <Gold.PLP.Chemscore.Metal>
0.0000

> <Gold.Chemscore.Hbonds>
donor molecule, donor type, donor heavy atom, donor atom, acceptor molecule, acceptor atom, score
      P1  H  7989  7998       L1     6  0.90
      P1  H  7997  8009       L1     8  1.00

> <Gold.PLP.Chemscore.Internal.Correction>
0.0202

> <Gold.Rescore>
     Score         DG    S(hbond)    S(metal)    S(lipo)     H(rot)  DE(clash)    DE(int)     intcor
     12.71     -15.93       0.97        0.00     107.82       2.11       1.42       1.80       ----

> <Gold.Chemscore.Fitness>
12.7072

> <Gold.Chemscore.DG>
-15.9257

> <Gold.Chemscore.ZeroCoef>
-5.4800

> <Gold.Chemscore.Hbond>
0.9674

> <Gold.Chemscore.Metal>
0.0000

> <Gold.Chemscore.Lipo>
107.8203

> <Gold.Chemscore.Internal_Hbond>
0.0000

> <Gold.Chemscore.DEClash>
1.4178

> <Gold.Chemscore.DEInternal>
1.8007

> <Gold.Chemscore.Rot>
2.1095

> <Gold.Chemscore.Internal.Correction>
   9.000000E+99

> <Gold.Chemscore.Hbonds>
donor molecule, donor type, donor heavy atom, donor atom, acceptor molecule, acceptor atom, score
      P1  H  7989  7998       L1     6  0.04
      P1  H  7997  8009       L1     8  0.81

> <Gold.Chemscore.Hbond.Weighted>
-3.2310

> <Gold.Chemscore.Metal.Weighted>
-0.0000

> <Gold.Chemscore.Lipo.Weighted>
-12.6150

> <Gold.Chemscore.Internal_Hbond.Weighted>
0.0000

> <Gold.Chemscore.DEClash.Weighted>
1.4178

> <Gold.Chemscore.DEInternal.Weighted>
1.8007

> <Gold.Chemscore.Rot.Weighted>
5.4003

> <Gold.Chemscore.Internal.Correction.Weighted>
   9.000000E+99

> <Gold.Protein.RotatedTorsions>
[ 6907 6896 6895 6894 ] final   77.65 input  -60.11 | X-H torsion
[ 7974 7965 7964 7962 ] final  102.39 input  175.53 | X-H torsion
[ 8008 7997 7996 7995 ] final -162.86 input   59.86 | X-H torsion
[ 10167 10162 10161 10158 ] final -155.12 input  -65.29 | X-H torsion
[ 10718 10713 10712 10709 ] final  -77.73 input   66.30 | X-H torsion
[ 10763 10752 10751 10750 ] final  150.49 input  -60.55 | X-H torsion
[ 11005 11000 10999 10996 ] final  -21.49 input  -57.11 | X-H torsion

> <Gold.Protein.ActiveResidues>
 VAL166  LYS551  ARG553  GLY616  TRP617  ASP618  TYR619  PRO620  LYS621  CYS622 
 ASP623  PHE694  ASN695  SER759  ASP760  ASP761  ALA762  ILE779  LEU786  VAL792 
 PHE793  MET794  SER795  GLU796  ALA797  LYS798  CYS799  TRP800  GLU811  SER814 

> <Gold.Protein.RotatedAtoms>
  152.5126  134.3784  159.9342 H   0  0  0  0  0  0  0  0  0  0  0  0  # atno 6907 bound_to 6896
  151.3741  133.3838  159.2710 H   0  0  0  0  0  0  0  0  0  0  0  0  # atno 6908 bound_to 6896
  150.9555  134.8970  159.7757 H   0  0  0  0  0  0  0  0  0  0  0  0  # atno 6909 bound_to 6896
  145.3598  139.2420  143.3513 H   0  0  0  0  0  0  0  0  0  0  0  0  # atno 7974 bound_to 7965
  155.8130  140.0908  157.1893 H   0  0  0  0  0  0  0  0  0  0  0  0  # atno 8008 bound_to 7997
  154.3979  140.1451  156.3469 H   0  0  0  0  0  0  0  0  0  0  0  0  # atno 8009 bound_to 7997
  155.8345  140.3441  155.5596 H   0  0  0  0  0  0  0  0  0  0  0  0  # atno 8010 bound_to 7997
  139.6957  143.9346  152.2406 H   0  0  0  0  0  0  0  0  0  0  0  0  # atno 10167 bound_to 10162
  156.0137  130.4499  150.3389 H   0  0  0  0  0  0  0  0  0  0  0  0  # atno 10718 bound_to 10713
  154.0883  135.2854  155.3277 H   0  0  0  0  0  0  0  0  0  0  0  0  # atno 10763 bound_to 10752
  154.6637  135.5325  153.8054 H   0  0  0  0  0  0  0  0  0  0  0  0  # atno 10764 bound_to 10752
  153.0423  135.6540  154.1053 H   0  0  0  0  0  0  0  0  0  0  0  0  # atno 10765 bound_to 10752
  140.8566  133.7818  156.0027 H   0  0  0  0  0  0  0  0  0  0  0  0  # atno 11005 bound_to 11000
  146.2932  140.4230  142.8731 LP  0  0  0  0  0  0  0  0  0  0  0  0  # atno 17320 bound_to 7965
  144.8655  140.7200  143.6080 LP  0  0  0  0  0  0  0  0  0  0  0  0  # atno 17321 bound_to 7965
  139.9174  144.6820  150.8497 LP  0  0  0  0  0  0  0  0  0  0  0  0  # atno 17342 bound_to 10162
  140.7696  143.3399  151.2229 LP  0  0  0  0  0  0  0  0  0  0  0  0  # atno 17343 bound_to 10162
  157.1485  131.0315  151.2896 LP  0  0  0  0  0  0  0  0  0  0  0  0  # atno 17370 bound_to 10713
  157.4412  130.7545  149.7071 LP  0  0  0  0  0  0  0  0  0  0  0  0  # atno 17371 bound_to 10713
  140.8730  134.2703  157.5181 LP  0  0  0  0  0  0  0  0  0  0  0  0  # atno 17394 bound_to 11000
  139.8705  134.9577  156.4276 LP  0  0  0  0  0  0  0  0  0  0  0  0  # atno 17395 bound_to 11000

$$$$
