AV-unprocessed.smi:833|AV-procd|sdf|3880|dock1
  -GOLD-   22720 1333D 1   1.00000     0.00000
 Structure written by MMmdl.
 39 40  0  0  0  0  0  0  0  0  1 V2000
  147.0598  135.2448  162.6339 C   0  0  0  0  0  0  0  0  0  0  0  0
  147.7842  136.3815  161.9013 C   0  0  2  0  0  0  0  0  0  0  0  0
  146.8923  137.4752  161.8308 O   0  0  0  0  0  0  0  0  0  0  0  0
  148.1907  135.9762  160.4708 C   0  0  0  0  0  0  0  0  0  0  0  0
  148.8142  137.0801  159.7477 N   0  0  0  0  0  0  0  0  0  0  0  0
  149.5485  136.9547  158.6334 C   0  0  0  0  0  0  0  0  0  0  0  0
  149.7845  135.8737  158.0940 O   0  0  0  0  0  0  0  0  0  0  0  0
  149.9969  138.1494  158.2128 N   0  0  0  0  0  0  0  0  0  0  0  0
  150.8289  138.4453  157.0949 C   0  0  0  0  0  0  0  0  0  0  0  0
  150.8159  137.6544  155.9193 C   0  0  0  0  0  0  0  0  0  0  0  0
  151.6738  137.9841  154.8558 C   0  0  0  0  0  0  0  0  0  0  0  0
  152.5160  139.0985  155.0021 C   0  0  0  0  0  0  0  0  0  0  0  0
  152.5266  139.8730  156.1050 N   0  0  0  0  0  0  0  0  0  0  0  0
  151.6940  139.5765  157.1333 C   0  0  0  0  0  0  0  0  0  0  0  0
  151.7302  140.4382  158.2533 N   0  0  0  0  0  0  0  0  0  0  0  0
  152.8379  140.3740  159.2011 C   0  0  0  0  0  0  0  0  0  0  0  0
  152.7470  141.6694  160.0021 C   0  0  0  0  0  0  0  0  0  0  0  0
  152.2713  142.6670  158.9506 C   0  0  0  0  0  0  0  0  0  0  0  0
  151.3517  141.8337  158.0515 C   0  0  0  0  0  0  0  0  0  0  0  0
  147.7077  134.3742  162.7398 H   0  0  0  0  0  0  0  0  0  0  0  0
  146.1650  134.9296  162.0959 H   0  0  0  0  0  0  0  0  0  0  0  0
  146.7574  135.5518  163.6356 H   0  0  0  0  0  0  0  0  0  0  0  0
  148.6583  136.6737  162.4845 H   0  0  0  0  0  0  0  0  0  0  0  0
  146.2535  137.3844  162.5210 H   0  0  0  0  0  0  0  0  0  0  0  0
  148.8935  135.1416  160.5049 H   0  0  0  0  0  0  0  0  0  0  0  0
  147.3275  135.6184  159.9084 H   0  0  0  0  0  0  0  0  0  0  0  0
  148.6762  138.0059  160.1256 H   0  0  0  0  0  0  0  0  0  0  0  0
  149.7962  138.9332  158.8164 H   0  0  0  0  0  0  0  0  0  0  0  0
  150.1584  136.8061  155.8097 H   0  0  0  0  0  0  0  0  0  0  0  0
  151.6866  137.3951  153.9508 H   0  0  0  0  0  0  0  0  0  0  0  0
  153.1934  139.3812  154.2101 H   0  0  0  0  0  0  0  0  0  0  0  0
  152.7625  139.4946  159.8415 H   0  0  0  0  0  0  0  0  0  0  0  0
  153.7952  140.3383  158.6800 H   0  0  0  0  0  0  0  0  0  0  0  0
  151.9979  141.5713  160.7891 H   0  0  0  0  0  0  0  0  0  0  0  0
  153.6933  141.9519  160.4641 H   0  0  0  0  0  0  0  0  0  0  0  0
  151.7709  143.5346  159.3811 H   0  0  0  0  0  0  0  0  0  0  0  0
  153.1250  143.0232  158.3725 H   0  0  0  0  0  0  0  0  0  0  0  0
  151.4354  142.1363  157.0066 H   0  0  0  0  0  0  0  0  0  0  0  0
  150.3143  141.9639  158.3604 H   0  0  0  0  0  0  0  0  0  0  0  0
  1  2  1  0  0  0  0
  1 20  1  0  0  0  0
  1 21  1  0  0  0  0
  1 22  1  0  0  0  0
  2  3  1  0  0  0  0
  2  4  1  0  0  0  0
  2 23  1  0  0  0  0
  3 24  1  0  0  0  0
  4  5  1  0  0  0  0
  4 25  1  0  0  0  0
  4 26  1  0  0  0  0
  5  6  1  0  0  0  0
  5 27  1  0  0  0  0
  6  7  2  0  0  0  0
  6  8  1  0  0  0  0
  8  9  1  0  0  0  0
  8 28  1  0  0  0  0
  9 14  1  0  0  0  0
  9 10  2  0  0  0  0
 10 11  1  0  0  0  0
 10 29  1  0  0  0  0
 11 12  2  0  0  0  0
 11 30  1  0  0  0  0
 12 13  1  0  0  0  0
 12 31  1  0  0  0  0
 13 14  2  0  0  0  0
 14 15  1  0  0  0  0
 15 19  1  0  0  0  0
 15 16  1  0  0  0  0
 16 17  1  0  0  0  0
 16 32  1  0  0  0  0
 16 33  1  0  0  0  0
 17 18  1  0  0  0  0
 17 34  1  0  0  0  0
 17 35  1  0  0  0  0
 18 19  1  0  0  0  0
 18 36  1  0  0  0  0
 18 37  1  0  0  0  0
 19 38  1  0  0  0  0
 19 39  1  0  0  0  0
M  END
> <s_m_source_file>
AV-unprocessed.smi

> <i_m_source_file_index>
833

> <i_lp_mmshare_version>
43012

> <i_f3d_flags>
0

> <s_epik_input>
W0NIM11bQ0BIXShbT0hdKVtDSDJdW05IXUMoPU8pW05IXWMxW2NIXVtjSF1bY0hdbmMxTjJbQ0gyXVtDSDJdW0NIMl1bQ0gyXTI=

> <s_epik_cmdline>
J2VwaWtfcHl0aG9uJywgJy1waCcsICc3LjAnLCAnLXRuJywgJzgnLCAnLW1hJywgJzIwMCcsICctbWV0YWxfYmluZGluZycsICctaW1hZScsICc8aW5maWxlLm1hZT4nLCAnLW9tYWUnLCAnPG91dGZpbGUubWFlPic=

> <r_lp_tautomer_probability>
1

> <r_epik_Ionization_Penalty>
0.0986749

> <r_epik_Ionization_Penalty_Charging>
0

> <r_epik_Ionization_Penalty_Neutral>
0.0986749

> <r_epik_State_Penalty>
0.0881977

> <r_epik_Charging_Adjusted_Penalty>
0.0881977

> <i_epik_Tot_Q>
0

> <i_epik_Tot_abs_Q>
0

> <r_epik_Metal_State_Penalty>
0.0755487

> <b_epik_Metal_Only>
0

> <s_lp_Force_Field>
OPLS_2005

> <r_lp_Energy>
31.5613

> <b_lp_Chiralities_Consistent>
1

> <s_lp_Variant>
AV-unprocessed.smi:833-1

> <Gold.Version>
5.8.1

> <Gold.Id.Protein>
6NUR|6NUR_protein|mol2

> <Gold.PLP.Fitness>
43.3126

> <Gold.PLP.PLP>
-35.6605

> <Gold.PLP.part.hbond>
-4.0000

> <Gold.PLP.part.metal>
0.0000

> <Gold.PLP.part.buried>
-4.2869

> <Gold.PLP.part.nonpolar>
-27.5890

> <Gold.PLP.part.repulsive>
0.6366

> <Gold.PLP.ligand.clash>
0.0000

> <Gold.PLP.ligand.torsion>
0.5091

> <Gold.PLP.Chemscore.Hbond>
2.7840

> <Gold.PLP.Chemscore.CHOScore>
0.0000

> <Gold.PLP.Chemscore.Metal>
0.0000

> <Gold.Chemscore.Hbonds>
donor molecule, donor type, donor heavy atom, donor atom, acceptor molecule, acceptor atom, score
      P1  H  6896  6909       L1     7  0.76
      P1  H  6934  6947       L1     3  0.85
      P1  H  7997  8009       L1    13  1.00

> <Gold.PLP.Chemscore.Internal.Correction>
0.3184

> <Gold.Rescore>
     Score         DG    S(hbond)    S(metal)    S(lipo)     H(rot)  DE(clash)    DE(int)     intcor
     17.56     -18.97       2.66        0.00      83.81       2.03       0.09       1.33       ----

> <Gold.Chemscore.Fitness>
17.5559

> <Gold.Chemscore.DG>
-18.9709

> <Gold.Chemscore.ZeroCoef>
-5.4800

> <Gold.Chemscore.Hbond>
2.6596

> <Gold.Chemscore.Metal>
0.0000

> <Gold.Chemscore.Lipo>
83.8140

> <Gold.Chemscore.Internal_Hbond>
0.0000

> <Gold.Chemscore.DEClash>
0.0859

> <Gold.Chemscore.DEInternal>
1.3291

> <Gold.Chemscore.Rot>
2.0306

> <Gold.Chemscore.Internal.Correction>
   9.000000E+99

> <Gold.Chemscore.Hbonds>
donor molecule, donor type, donor heavy atom, donor atom, acceptor molecule, acceptor atom, score
      P1  H  6896  6909       L1     7  0.40
      P1  H  6934  6947       L1     3  0.84
      P1  H  7997  8009       L1    13  0.34

> <Gold.Chemscore.Hbond.Weighted>
-8.8830

> <Gold.Chemscore.Metal.Weighted>
-0.0000

> <Gold.Chemscore.Lipo.Weighted>
-9.8062

> <Gold.Chemscore.Internal_Hbond.Weighted>
0.0000

> <Gold.Chemscore.DEClash.Weighted>
0.0859

> <Gold.Chemscore.DEInternal.Weighted>
1.3291

> <Gold.Chemscore.Rot.Weighted>
5.1984

> <Gold.Chemscore.Internal.Correction.Weighted>
   9.000000E+99

> <Gold.Protein.RotatedTorsions>
[ 6907 6896 6895 6894 ] final   55.34 input  -60.11 | X-H torsion
[ 7974 7965 7964 7962 ] final    1.52 input  175.53 | X-H torsion
[ 8008 7997 7996 7995 ] final -165.21 input   59.86 | X-H torsion
[ 10167 10162 10161 10158 ] final  -18.82 input  -65.29 | X-H torsion
[ 10718 10713 10712 10709 ] final   17.02 input   66.30 | X-H torsion
[ 10763 10752 10751 10750 ] final  100.00 input  -60.55 | X-H torsion
[ 11005 11000 10999 10996 ] final  166.65 input  -57.11 | X-H torsion

> <Gold.Protein.ActiveResidues>
 VAL166  LYS551  ARG553  GLY616  TRP617  ASP618  TYR619  PRO620  LYS621  CYS622 
 ASP623  PHE694  ASN695  SER759  ASP760  ASP761  ALA762  ILE779  LEU786  VAL792 
 PHE793  MET794  SER795  GLU796  ALA797  LYS798  CYS799  TRP800  GLU811  SER814 

> <Gold.Protein.RotatedAtoms>
  152.3528  134.6981  160.0230 H   0  0  0  0  0  0  0  0  0  0  0  0  # atno 6907 bound_to 6896
  151.7330  133.3313  159.3353 H   0  0  0  0  0  0  0  0  0  0  0  0  # atno 6908 bound_to 6896
  150.7552  134.6280  159.6216 H   0  0  0  0  0  0  0  0  0  0  0  0  # atno 6909 bound_to 6896
  146.2440  140.0974  142.8349 H   0  0  0  0  0  0  0  0  0  0  0  0  # atno 7974 bound_to 7965
  155.8466  140.0956  157.1701 H   0  0  0  0  0  0  0  0  0  0  0  0  # atno 8008 bound_to 7997
  154.3984  140.1391  156.3854 H   0  0  0  0  0  0  0  0  0  0  0  0  # atno 8009 bound_to 7997
  155.8007  140.3453  155.5403 H   0  0  0  0  0  0  0  0  0  0  0  0  # atno 8010 bound_to 7997
  140.7262  143.4879  151.0030 H   0  0  0  0  0  0  0  0  0  0  0  0  # atno 10167 bound_to 10162
  157.0762  130.6368  149.5816 H   0  0  0  0  0  0  0  0  0  0  0  0  # atno 10718 bound_to 10713
  153.3084  135.4094  155.1314 H   0  0  0  0  0  0  0  0  0  0  0  0  # atno 10763 bound_to 10752
  154.8569  135.3558  154.5757 H   0  0  0  0  0  0  0  0  0  0  0  0  # atno 10764 bound_to 10752
  153.6185  135.7065  153.5378 H   0  0  0  0  0  0  0  0  0  0  0  0  # atno 10765 bound_to 10752
  140.2686  134.7844  157.3655 H   0  0  0  0  0  0  0  0  0  0  0  0  # atno 11005 bound_to 11000
  145.0598  140.9079  143.4946 LP  0  0  0  0  0  0  0  0  0  0  0  0  # atno 17320 bound_to 7965
  145.1088  139.2771  143.5648 LP  0  0  0  0  0  0  0  0  0  0  0  0  # atno 17321 bound_to 7965
  139.8582  143.7349  152.3175 LP  0  0  0  0  0  0  0  0  0  0  0  0  # atno 17342 bound_to 10162
  139.7555  144.7522  151.0441 LP  0  0  0  0  0  0  0  0  0  0  0  0  # atno 17343 bound_to 10162
  155.9936  130.4998  150.7388 LP  0  0  0  0  0  0  0  0  0  0  0  0  # atno 17370 bound_to 10713
  157.4838  131.0905  151.0506 LP  0  0  0  0  0  0  0  0  0  0  0  0  # atno 17371 bound_to 10713
  140.1395  134.4991  155.8043 LP  0  0  0  0  0  0  0  0  0  0  0  0  # atno 17394 bound_to 11000
  141.2180  133.6820  156.7184 LP  0  0  0  0  0  0  0  0  0  0  0  0  # atno 17395 bound_to 11000

$$$$
