AV-unprocessed.smi:3118|AV-procd|sdf|11886|dock8
  -GOLD-   2272017273D 1   1.00000     0.00000
 Structure written by MMmdl.
 33 34  0  0  0  0  0  0  0  0  2 V2000
  149.3025  140.4813  157.2655 C   0  0  0  0  0  0  0  0  0  0  0  0
  150.0704  141.2595  156.1885 C   0  0  2  0  0  0  0  0  0  0  0  0
  151.3624  140.5199  155.7786 C   0  0  0  0  0  0  0  0  0  0  0  0
  151.1103  139.1654  155.2752 N   0  0  0  0  0  0  0  0  0  0  0  0
  151.6540  137.9945  155.7375 C   0  0  0  0  0  0  0  0  0  0  0  0
  151.1181  136.9876  154.9767 C   0  0  0  0  0  0  0  0  0  0  0  0
  150.2749  137.5864  154.0794 N   0  3  0  0  0  0  0  0  0  0  0  0
  150.2753  138.9111  154.2590 C   0  0  0  0  0  0  0  0  0  0  0  0
  150.3676  142.5987  156.6959 N   0  0  0  0  0  0  0  0  0  0  0  0
  151.0988  142.8814  157.7856 C   0  0  0  0  0  0  0  0  0  0  0  0
  151.6116  142.0173  158.4978 O   0  0  0  0  0  0  0  0  0  0  0  0
  151.2565  144.3698  158.1204 C   0  0  0  0  0  0  0  0  0  0  0  0
  152.6563  144.7822  158.6101 C   0  0  0  0  0  0  0  0  0  0  0  0
  151.9826  145.6066  159.7111 C   0  0  0  0  0  0  0  0  0  0  0  0
  150.7216  144.7613  159.5087 C   0  0  0  0  0  0  0  0  0  0  0  0
  149.0307  139.4864  156.9118 H   0  0  0  0  0  0  0  0  0  0  0  0
  148.3799  140.9946  157.5390 H   0  0  0  0  0  0  0  0  0  0  0  0
  149.8982  140.3606  158.1710 H   0  0  0  0  0  0  0  0  0  0  0  0
  149.4151  141.3335  155.3184 H   0  0  0  0  0  0  0  0  0  0  0  0
  151.9104  141.0809  155.0195 H   0  0  0  0  0  0  0  0  0  0  0  0
  152.0279  140.4197  156.6369 H   0  0  0  0  0  0  0  0  0  0  0  0
  152.3571  137.9649  156.5573 H   0  0  0  0  0  0  0  0  0  0  0  0
  151.2687  135.9183  155.0069 H   0  0  0  0  0  0  0  0  0  0  0  0
  149.7034  139.6312  153.7014 H   0  0  0  0  0  0  0  0  0  0  0  0
  149.9915  143.3747  156.1705 H   0  0  0  0  0  0  0  0  0  0  0  0
  150.8867  145.0348  157.3372 H   0  0  0  0  0  0  0  0  0  0  0  0
  153.2580  143.9629  159.0074 H   0  0  0  0  0  0  0  0  0  0  0  0
  153.2240  145.3792  157.8959 H   0  0  0  0  0  0  0  0  0  0  0  0
  152.4412  145.5124  160.6957 H   0  0  0  0  0  0  0  0  0  0  0  0
  151.8401  146.6507  159.4281 H   0  0  0  0  0  0  0  0  0  0  0  0
  149.7984  145.3408  159.4871 H   0  0  0  0  0  0  0  0  0  0  0  0
  150.6535  143.9304  160.2136 H   0  0  0  0  0  0  0  0  0  0  0  0
  149.7273  137.0988  153.3815 H   0  0  0  0  0  0  0  0  0  0  0  0
  1  2  1  0  0  0  0
  1 16  1  0  0  0  0
  1 17  1  0  0  0  0
  1 18  1  0  0  0  0
  2  3  1  0  0  0  0
  2  9  1  0  0  0  0
  2 19  1  0  0  0  0
  3  4  1  0  0  0  0
  3 20  1  0  0  0  0
  3 21  1  0  0  0  0
  4  8  1  0  0  0  0
  4  5  1  0  0  0  0
  5  6  2  0  0  0  0
  5 22  1  0  0  0  0
  6  7  1  0  0  0  0
  6 23  1  0  0  0  0
  7  8  2  0  0  0  0
  7 33  1  0  0  0  0
  8 24  1  0  0  0  0
  9 10  1  0  0  0  0
  9 25  1  0  0  0  0
 10 11  2  0  0  0  0
 10 12  1  0  0  0  0
 12 15  1  0  0  0  0
 12 13  1  0  0  0  0
 12 26  1  0  0  0  0
 13 14  1  0  0  0  0
 13 27  1  0  0  0  0
 13 28  1  0  0  0  0
 14 15  1  0  0  0  0
 14 29  1  0  0  0  0
 14 30  1  0  0  0  0
 15 31  1  0  0  0  0
 15 32  1  0  0  0  0
M  CHG  1   7   1
M  END
> <s_m_source_file>
AV-unprocessed.smi

> <i_m_source_file_index>
3118

> <i_lp_mmshare_version>
43012

> <i_f3d_flags>
0

> <s_epik_input>
W0NIMl0xW0NIMl1bQ0gyXVtDSF0xQyg9TylbTkhdW0NASF0oW0NIM10pW0NIMl1uMltjSF1bY0hdbltjSF0y

> <s_epik_cmdline>
J2VwaWtfcHl0aG9uJywgJy1waCcsICc3LjAnLCAnLXRuJywgJzgnLCAnLW1hJywgJzIwMCcsICctbWV0YWxfYmluZGluZycsICctaW1hZScsICc8aW5maWxlLm1hZT4nLCAnLW9tYWUnLCAnPG91dGZpbGUubWFlPic=

> <r_lp_tautomer_probability>
1

> <r_epik_Ionization_Penalty>
0.244425

> <r_epik_Ionization_Penalty_Charging>
0

> <r_epik_Ionization_Penalty_Neutral>
0.244425

> <r_epik_State_Penalty>
0.23553

> <r_epik_Charging_Adjusted_Penalty>
0.23553

> <i_epik_Tot_Q>
1

> <i_epik_Tot_abs_Q>
1

> <r_epik_Metal_State_Penalty>
0.5288

> <b_epik_Metal_Only>
0

> <s_lp_Force_Field>
OPLS_2005

> <r_lp_Energy>
13.9066

> <b_lp_Chiralities_Consistent>
1

> <s_lp_Variant>
AV-unprocessed.smi:3118-1

> <Gold.Version>
5.8.1

> <Gold.Id.Protein>
6NUR|6NUR_protein|mol2

> <Gold.PLP.Fitness>
48.3045

> <Gold.PLP.PLP>
-36.5009

> <Gold.PLP.part.hbond>
-2.9734

> <Gold.PLP.part.metal>
0.0000

> <Gold.PLP.part.buried>
-3.0573

> <Gold.PLP.part.nonpolar>
-30.9220

> <Gold.PLP.part.repulsive>
0.1444

> <Gold.PLP.ligand.clash>
0.0000

> <Gold.PLP.ligand.torsion>
0.3052

> <Gold.PLP.Chemscore.Hbond>
3.0000

> <Gold.PLP.Chemscore.CHOScore>
1.0000

> <Gold.PLP.Chemscore.Metal>
0.0000

> <Gold.Chemscore.Hbonds>
donor molecule, donor type, donor heavy atom, donor atom, acceptor molecule, acceptor atom, score
      L1  H     7    33       P1  7948  2.00
      L1  H     9    25       P1  8028  1.00
      L1  C     8    24       P1  7957  0.88

> <Gold.PLP.Chemscore.Internal.Correction>
0.4139

> <Gold.Rescore>
     Score         DG    S(hbond)    S(metal)    S(lipo)     H(rot)  DE(clash)    DE(int)     intcor
     15.26     -16.50       1.96        0.00      78.89       1.86       0.08       1.15       ----

> <Gold.Chemscore.Fitness>
15.2632

> <Gold.Chemscore.DG>
-16.4979

> <Gold.Chemscore.ZeroCoef>
-5.4800

> <Gold.Chemscore.Hbond>
1.9580

> <Gold.Chemscore.Metal>
0.0000

> <Gold.Chemscore.Lipo>
78.8871

> <Gold.Chemscore.Internal_Hbond>
0.0000

> <Gold.Chemscore.DEClash>
0.0812

> <Gold.Chemscore.DEInternal>
1.1535

> <Gold.Chemscore.Rot>
1.8561

> <Gold.Chemscore.Internal.Correction>
   9.000000E+99

> <Gold.Chemscore.Hbonds>
donor molecule, donor type, donor heavy atom, donor atom, acceptor molecule, acceptor atom, score
      L1  H     7    33       P1  7948  0.60
      L1  H     9    25       P1  8028  1.00

> <Gold.Chemscore.Hbond.Weighted>
-6.5397

> <Gold.Chemscore.Metal.Weighted>
-0.0000

> <Gold.Chemscore.Lipo.Weighted>
-9.2298

> <Gold.Chemscore.Internal_Hbond.Weighted>
0.0000

> <Gold.Chemscore.DEClash.Weighted>
0.0812

> <Gold.Chemscore.DEInternal.Weighted>
1.1535

> <Gold.Chemscore.Rot.Weighted>
4.7516

> <Gold.Chemscore.Internal.Correction.Weighted>
   9.000000E+99

> <Gold.Protein.RotatedTorsions>
[ 6907 6896 6895 6894 ] final  104.05 input  -60.11 | X-H torsion
[ 7974 7965 7964 7962 ] final -164.12 input  175.53 | X-H torsion
[ 8008 7997 7996 7995 ] final -104.58 input   59.86 | X-H torsion
[ 10167 10162 10161 10158 ] final    2.46 input  -65.29 | X-H torsion
[ 10718 10713 10712 10709 ] final   35.91 input   66.30 | X-H torsion
[ 10763 10752 10751 10750 ] final  152.48 input  -60.55 | X-H torsion
[ 11005 11000 10999 10996 ] final  -12.62 input  -57.11 | X-H torsion

> <Gold.Protein.ActiveResidues>
 VAL166  LYS551  ARG553  GLY616  TRP617  ASP618  TYR619  PRO620  LYS621  CYS622 
 ASP623  PHE694  ASN695  SER759  ASP760  ASP761  ALA762  ILE779  LEU786  VAL792 
 PHE793  MET794  SER795  GLU796  ALA797  LYS798  CYS799  TRP800  GLU811  SER814 

> <Gold.Protein.RotatedAtoms>
  152.5276  133.9734  159.7772 H   0  0  0  0  0  0  0  0  0  0  0  0  # atno 6907 bound_to 6896
  151.0001  133.6056  159.2703 H   0  0  0  0  0  0  0  0  0  0  0  0  # atno 6908 bound_to 6896
  151.3168  135.0815  159.9345 H   0  0  0  0  0  0  0  0  0  0  0  0  # atno 6909 bound_to 6896
  144.7306  140.3007  143.6205 H   0  0  0  0  0  0  0  0  0  0  0  0  # atno 7974 bound_to 7965
  154.8874  140.0417  157.1818 H   0  0  0  0  0  0  0  0  0  0  0  0  # atno 8008 bound_to 7997
  154.8576  140.2939  155.5538 H   0  0  0  0  0  0  0  0  0  0  0  0  # atno 8009 bound_to 7997
  156.2997  140.2453  156.3545 H   0  0  0  0  0  0  0  0  0  0  0  0  # atno 8010 bound_to 7997
  140.6634  143.7244  150.7781 H   0  0  0  0  0  0  0  0  0  0  0  0  # atno 10167 bound_to 10162
  157.3285  130.7485  149.6831 H   0  0  0  0  0  0  0  0  0  0  0  0  # atno 10718 bound_to 10713
  154.1208  135.2833  155.3209 H   0  0  0  0  0  0  0  0  0  0  0  0  # atno 10763 bound_to 10752
  154.6425  135.5397  153.7809 H   0  0  0  0  0  0  0  0  0  0  0  0  # atno 10764 bound_to 10752
  153.0313  135.6490  154.1362 H   0  0  0  0  0  0  0  0  0  0  0  0  # atno 10765 bound_to 10752
  140.7676  133.8464  155.9179 H   0  0  0  0  0  0  0  0  0  0  0  0  # atno 11005 bound_to 11000
  145.7763  139.1875  143.2183 LP  0  0  0  0  0  0  0  0  0  0  0  0  # atno 17320 bound_to 7965
  146.0870  140.7699  142.9614 LP  0  0  0  0  0  0  0  0  0  0  0  0  # atno 17321 bound_to 7965
  140.0917  143.4871  152.2475 LP  0  0  0  0  0  0  0  0  0  0  0  0  # atno 17342 bound_to 10162
  139.5875  144.7537  151.3484 LP  0  0  0  0  0  0  0  0  0  0  0  0  # atno 17343 bound_to 10162
  155.9693  130.4202  150.4412 LP  0  0  0  0  0  0  0  0  0  0  0  0  # atno 17370 bound_to 10713
  157.2439  131.0531  151.2420 LP  0  0  0  0  0  0  0  0  0  0  0  0  # atno 17371 bound_to 10713
  140.9604  134.1663  157.4658 LP  0  0  0  0  0  0  0  0  0  0  0  0  # atno 17394 bound_to 11000
  139.8761  134.9942  156.5685 LP  0  0  0  0  0  0  0  0  0  0  0  0  # atno 17395 bound_to 11000

$$$$
