AV-unprocessed.smi:100|AV-procd|sdf|911|dock10
  -GOLD-   2262017413D 1   1.00000     0.00000
 Structure written by MMmdl.
 31 33  0  0  0  0  0  0  0  0  1 V2000
  153.7745  137.5019  156.1050 N   0  0  0  0  0  0  0  0  0  0  0  0
  152.7889  138.4019  156.2286 C   0  0  0  0  0  0  0  0  0  0  0  0
  152.9754  139.4482  157.0668 N   0  0  0  0  0  0  0  0  0  0  0  0
  152.0080  140.3604  157.2064 C   0  0  0  0  0  0  0  0  0  0  0  0
  150.8125  140.4078  156.6128 N   0  0  0  0  0  0  0  0  0  0  0  0
  150.6255  139.3524  155.7670 C   0  0  0  0  0  0  0  0  0  0  0  0
  151.5623  138.3098  155.5231 C   0  0  0  0  0  0  0  0  0  0  0  0
  151.0362  137.4043  154.6121 N   0  0  0  0  0  0  0  0  0  0  0  0
  149.8554  137.8885  154.3347 C   0  0  0  0  0  0  0  0  0  0  0  0
  149.5255  139.0577  154.9851 N   0  0  0  0  0  0  0  0  0  0  0  0
  148.2500  139.8341  154.8647 C   0  0  2  0  0  0  0  0  0  0  0  0
  147.3828  139.1783  153.9919 O   0  0  0  0  0  0  0  0  0  0  0  0
  146.6822  140.1160  153.1731 C   0  0  2  0  0  0  0  0  0  0  0  0
  147.0159  139.8187  151.7016 C   0  0  0  0  0  0  0  0  0  0  0  0
  146.4669  138.5764  151.3150 O   0  0  0  0  0  0  0  0  0  0  0  0
  147.1318  141.5096  153.6374 C   0  0  1  0  0  0  0  0  0  0  0  0
  146.2562  141.9835  154.5257 F   0  0  0  0  0  0  0  0  0  0  0  0
  148.4558  141.2584  154.3334 C   0  0  2  0  0  0  0  0  0  0  0  0
  149.5490  141.4000  153.4445 O   0  0  0  0  0  0  0  0  0  0  0  0
  153.6604  136.7124  155.4858 H   0  0  0  0  0  0  0  0  0  0  0  0
  154.6311  137.6184  156.6267 H   0  0  0  0  0  0  0  0  0  0  0  0
  152.2219  141.1681  157.8908 H   0  0  0  0  0  0  0  0  0  0  0  0
  149.1852  137.4007  153.6418 H   0  0  0  0  0  0  0  0  0  0  0  0
  147.8140  139.8213  155.8650 H   0  0  0  0  0  0  0  0  0  0  0  0
  145.6113  139.9824  153.3335 H   0  0  0  0  0  0  0  0  0  0  0  0
  146.6447  140.6040  151.0431 H   0  0  0  0  0  0  0  0  0  0  0  0
  148.0966  139.7690  151.5657 H   0  0  0  0  0  0  0  0  0  0  0  0
  145.6115  138.7293  150.9435 H   0  0  0  0  0  0  0  0  0  0  0  0
  147.1914  142.2456  152.8344 H   0  0  0  0  0  0  0  0  0  0  0  0
  148.6165  141.9397  155.1697 H   0  0  0  0  0  0  0  0  0  0  0  0
  149.5840  140.6354  152.8901 H   0  0  0  0  0  0  0  0  0  0  0  0
  1  2  1  0  0  0  0
  1 20  1  0  0  0  0
  1 21  1  0  0  0  0
  2  7  1  0  0  0  0
  2  3  2  0  0  0  0
  3  4  1  0  0  0  0
  4  5  2  0  0  0  0
  4 22  1  0  0  0  0
  5  6  1  0  0  0  0
  6 10  1  0  0  0  0
  6  7  2  0  0  0  0
  7  8  1  0  0  0  0
  8  9  2  0  0  0  0
  9 10  1  0  0  0  0
  9 23  1  0  0  0  0
 10 11  1  0  0  0  0
 11 18  1  0  0  0  0
 11 12  1  0  0  0  0
 11 24  1  0  0  0  0
 12 13  1  0  0  0  0
 13 14  1  0  0  0  0
 13 16  1  0  0  0  0
 13 25  1  0  0  0  0
 14 15  1  0  0  0  0
 14 26  1  0  0  0  0
 14 27  1  0  0  0  0
 15 28  1  0  0  0  0
 16 17  1  0  0  0  0
 16 18  1  0  0  0  0
 16 29  1  0  0  0  0
 18 19  1  0  0  0  0
 18 30  1  0  0  0  0
 19 31  1  0  0  0  0
M  END
> <s_m_source_file>
AV-unprocessed.smi

> <i_m_source_file_index>
100

> <i_lp_mmshare_version>
43012

> <i_f3d_flags>
0

> <s_epik_input>
bjFbY0hdbmMoW05IMl0pYyhjMTIpbltjSF1uMltDQEBIXTNPW0NAQEhdKFtDSDJdW09IXSlbQ0BIXShGKVtDQEhdM1tPSF0=

> <s_epik_cmdline>
J2VwaWtfcHl0aG9uJywgJy1waCcsICc3LjAnLCAnLXRuJywgJzgnLCAnLW1hJywgJzIwMCcsICctbWV0YWxfYmluZGluZycsICctaW1hZScsICc8aW5maWxlLm1hZT4nLCAnLW9tYWUnLCAnPG91dGZpbGUubWFlPic=

> <r_lp_tautomer_probability>
1

> <r_epik_Ionization_Penalty>
0.000750324

> <r_epik_Ionization_Penalty_Charging>
0

> <r_epik_Ionization_Penalty_Neutral>
0.000750324

> <r_epik_State_Penalty>
-0

> <r_epik_Charging_Adjusted_Penalty>
0

> <i_epik_Tot_Q>
0

> <i_epik_Tot_abs_Q>
0

> <r_epik_Metal_State_Penalty>
-0

> <b_epik_Metal_Only>
0

> <s_epik_Chemistry_Notes>
This compound contains an acetal/aminal-like group ( X-CH(R)-Y where X, Y are N, S, or O) that may be acid/base labile, releasing an aldehyde.

> <s_lp_Force_Field>
OPLS_2005

> <r_lp_Energy>
38.301

> <b_lp_Chiralities_Consistent>
1

> <s_lp_Variant>
AV-unprocessed.smi:100-15

> <Gold.Version>
5.8.1

> <Gold.Id.Protein>
6NUR|6NUR_protein|mol2

> <Gold.PLP.Fitness>
40.9245

> <Gold.PLP.PLP>
-25.4879

> <Gold.PLP.part.hbond>
-5.8184

> <Gold.PLP.part.metal>
0.0000

> <Gold.PLP.part.buried>
2.5242

> <Gold.PLP.part.nonpolar>
-22.7906

> <Gold.PLP.part.repulsive>
0.5350

> <Gold.PLP.ligand.clash>
0.0000

> <Gold.PLP.ligand.torsion>
0.0246

> <Gold.PLP.Chemscore.Hbond>
4.1615

> <Gold.PLP.Chemscore.CHOScore>
1.0000

> <Gold.PLP.Chemscore.Metal>
0.0000

> <Gold.Chemscore.Hbonds>
donor molecule, donor type, donor heavy atom, donor atom, acceptor molecule, acceptor atom, score
      L1  H    15    28       P1 10171  0.91
      L1  H    19    31       P1  7957  0.88
      P1  H  7954  7966       L1    15  0.25
      P1  H  7997  8010       L1     3  1.00
      P1  H  8011  8017       L1    19  0.74
      L1  C     9    23       P1  7948  1.00

> <Gold.PLP.Chemscore.Internal.Correction>
0.0014

> <Gold.Rescore>
     Score         DG    S(hbond)    S(metal)    S(lipo)     H(rot)  DE(clash)    DE(int)     intcor
      9.89     -13.17       3.31        0.00      41.16       3.19       3.15       0.13       ----

> <Gold.Chemscore.Fitness>
9.8901

> <Gold.Chemscore.DG>
-13.1709

> <Gold.Chemscore.ZeroCoef>
-5.4800

> <Gold.Chemscore.Hbond>
3.3060

> <Gold.Chemscore.Metal>
0.0000

> <Gold.Chemscore.Lipo>
41.1589

> <Gold.Chemscore.Internal_Hbond>
0.0000

> <Gold.Chemscore.DEClash>
3.1509

> <Gold.Chemscore.DEInternal>
0.1300

> <Gold.Chemscore.Rot>
3.1901

> <Gold.Chemscore.Internal.Correction>
   9.000000E+99

> <Gold.Chemscore.Hbonds>
donor molecule, donor type, donor heavy atom, donor atom, acceptor molecule, acceptor atom, score
      L1  H    15    28       P1 10171  0.88
      L1  H    19    31       P1  7957  0.87
      P1  H  7954  7966       L1    15  0.05
      P1  H  7997  8010       L1     3  0.69
      P1  H  8011  8017       L1    19  0.10

> <Gold.Chemscore.Hbond.Weighted>
-11.0420

> <Gold.Chemscore.Metal.Weighted>
-0.0000

> <Gold.Chemscore.Lipo.Weighted>
-4.8156

> <Gold.Chemscore.Internal_Hbond.Weighted>
0.0000

> <Gold.Chemscore.DEClash.Weighted>
3.1509

> <Gold.Chemscore.DEInternal.Weighted>
0.1300

> <Gold.Chemscore.Rot.Weighted>
8.1667

> <Gold.Chemscore.Internal.Correction.Weighted>
   9.000000E+99

> <Gold.Protein.RotatedTorsions>
[ 6907 6896 6895 6894 ] final  -14.30 input  -60.11 | X-H torsion
[ 7974 7965 7964 7962 ] final  118.50 input  175.53 | X-H torsion
[ 8008 7997 7996 7995 ] final   38.71 input   59.86 | X-H torsion
[ 10167 10162 10161 10158 ] final  158.24 input  -65.29 | X-H torsion
[ 10718 10713 10712 10709 ] final  -71.43 input   66.30 | X-H torsion
[ 10763 10752 10751 10750 ] final   37.56 input  -60.55 | X-H torsion
[ 11005 11000 10999 10996 ] final -163.73 input  -57.11 | X-H torsion

> <Gold.Protein.ActiveResidues>
 VAL166  LYS551  ARG553  GLY616  TRP617  ASP618  TYR619  PRO620  LYS621  CYS622 
 ASP623  PHE694  ASN695  SER759  ASP760  ASP761  ALA762  ILE779  LEU786  VAL792 
 PHE793  MET794  SER795  GLU796  ALA797  LYS798  CYS799  TRP800  GLU811  SER814 

> <Gold.Protein.RotatedAtoms>
  151.3415  135.0864  159.9372 H   0  0  0  0  0  0  0  0  0  0  0  0  # atno 6907 bound_to 6896
  152.5210  133.9443  159.7652 H   0  0  0  0  0  0  0  0  0  0  0  0  # atno 6908 bound_to 6896
  150.9801  133.6201  159.2754 H   0  0  0  0  0  0  0  0  0  0  0  0  # atno 6909 bound_to 6896
  145.1544  139.3191  143.4550 H   0  0  0  0  0  0  0  0  0  0  0  0  # atno 7974 bound_to 7965
  155.2246  140.3333  155.4311 H   0  0  0  0  0  0  0  0  0  0  0  0  # atno 8008 bound_to 7997
  156.2319  140.1854  156.7266 H   0  0  0  0  0  0  0  0  0  0  0  0  # atno 8009 bound_to 7997
  154.5993  140.0625  156.9332 H   0  0  0  0  0  0  0  0  0  0  0  0  # atno 8010 bound_to 7997
  139.4826  144.4842  151.8400 H   0  0  0  0  0  0  0  0  0  0  0  0  # atno 10167 bound_to 10162
  156.0363  130.4351  150.2443 H   0  0  0  0  0  0  0  0  0  0  0  0  # atno 10718 bound_to 10713
  153.0033  135.6274  154.2164 H   0  0  0  0  0  0  0  0  0  0  0  0  # atno 10763 bound_to 10752
  154.1907  135.2809  155.3024 H   0  0  0  0  0  0  0  0  0  0  0  0  # atno 10764 bound_to 10752
  154.5762  135.5661  153.7201 H   0  0  0  0  0  0  0  0  0  0  0  0  # atno 10765 bound_to 10752
  140.5948  134.5008  157.5198 H   0  0  0  0  0  0  0  0  0  0  0  0  # atno 11005 bound_to 11000
  146.3490  140.1631  142.8590 LP  0  0  0  0  0  0  0  0  0  0  0  0  # atno 17320 bound_to 7965
  145.0396  140.8935  143.5060 LP  0  0  0  0  0  0  0  0  0  0  0  0  # atno 17321 bound_to 7965
  140.4321  144.2101  150.5888 LP  0  0  0  0  0  0  0  0  0  0  0  0  # atno 17342 bound_to 10162
  140.4769  143.2393  151.9011 LP  0  0  0  0  0  0  0  0  0  0  0  0  # atno 17343 bound_to 10162
  157.0542  131.0071  151.3244 LP  0  0  0  0  0  0  0  0  0  0  0  0  # atno 17370 bound_to 10713
  157.5118  130.7943  149.7713 LP  0  0  0  0  0  0  0  0  0  0  0  0  # atno 17371 bound_to 10713
  139.9258  134.8059  156.1073 LP  0  0  0  0  0  0  0  0  0  0  0  0  # atno 17394 bound_to 11000
  141.0911  133.6714  156.2543 LP  0  0  0  0  0  0  0  0  0  0  0  0  # atno 17395 bound_to 11000

$$$$
