AV-unprocessed.smi:2043|AV-procd|sdf|8296|dock3
  -GOLD-   2272010563D 1   1.00000     0.00000
 Structure written by MMmdl.
 29 30  0  0  0  0  0  0  0  0  1 V2000
  146.6661  138.8467  152.2771 C   0  0  0  0  0  0  0  0  0  0  0  0
  147.6104  139.5171  153.2155 C   0  0  0  0  0  0  0  0  0  0  0  0
  148.6132  138.8685  153.8200 N   0  0  0  0  0  0  0  0  0  0  0  0
  149.3532  139.6998  154.6494 N   0  0  0  0  0  0  0  0  0  0  0  0
  148.8831  140.9548  154.6470 C   0  0  0  0  0  0  0  0  0  0  0  0
  149.4487  142.0116  155.4082 N   0  0  0  0  0  0  0  0  0  0  0  0
  150.5371  141.9811  156.1973 C   0  0  0  0  0  0  0  0  0  0  0  0
  151.2522  140.9967  156.3859 O   0  0  0  0  0  0  0  0  0  0  0  0
  150.7562  143.1759  156.7654 N   0  0  0  0  0  0  0  0  0  0  0  0
  151.8543  143.4905  157.6724 C   0  0  0  0  0  0  0  0  0  0  0  0
  151.3593  143.6702  159.1055 C   0  0  0  0  0  0  0  0  0  0  0  0
  151.3316  145.0674  159.7460 C   0  0  0  0  0  0  0  0  0  0  0  0
  151.6928  144.4123  161.0815 C   0  0  0  0  0  0  0  0  0  0  0  0
  152.2597  143.2418  160.2740 C   0  0  0  0  0  0  0  0  0  0  0  0
  147.4853  141.2247  153.6201 S   0  0  0  0  0  0  0  0  0  0  0  0
  147.1027  137.9271  151.8863 H   0  0  0  0  0  0  0  0  0  0  0  0
  146.4381  139.5064  151.4397 H   0  0  0  0  0  0  0  0  0  0  0  0
  145.7386  138.6027  152.7949 H   0  0  0  0  0  0  0  0  0  0  0  0
  148.9641  142.8947  155.3481 H   0  0  0  0  0  0  0  0  0  0  0  0
  150.1167  143.9275  156.5527 H   0  0  0  0  0  0  0  0  0  0  0  0
  152.5700  142.6697  157.6261 H   0  0  0  0  0  0  0  0  0  0  0  0
  152.3915  144.3771  157.3313 H   0  0  0  0  0  0  0  0  0  0  0  0
  150.3801  143.2046  159.2370 H   0  0  0  0  0  0  0  0  0  0  0  0
  152.1215  145.7215  159.3725 H   0  0  0  0  0  0  0  0  0  0  0  0
  150.3592  145.5603  159.7242 H   0  0  0  0  0  0  0  0  0  0  0  0
  152.4275  144.9569  161.6751 H   0  0  0  0  0  0  0  0  0  0  0  0
  150.8161  144.1367  161.6697 H   0  0  0  0  0  0  0  0  0  0  0  0
  152.0391  142.2552  160.6825 H   0  0  0  0  0  0  0  0  0  0  0  0
  153.3228  143.3583  160.0558 H   0  0  0  0  0  0  0  0  0  0  0  0
  1  2  1  0  0  0  0
  1 16  1  0  0  0  0
  1 17  1  0  0  0  0
  1 18  1  0  0  0  0
  2 15  1  0  0  0  0
  2  3  2  0  0  0  0
  3  4  1  0  0  0  0
  4  5  2  0  0  0  0
  5  6  1  0  0  0  0
  5 15  1  0  0  0  0
  6  7  1  0  0  0  0
  6 19  1  0  0  0  0
  7  8  2  0  0  0  0
  7  9  1  0  0  0  0
  9 10  1  0  0  0  0
  9 20  1  0  0  0  0
 10 11  1  0  0  0  0
 10 21  1  0  0  0  0
 10 22  1  0  0  0  0
 11 14  1  0  0  0  0
 11 12  1  0  0  0  0
 11 23  1  0  0  0  0
 12 13  1  0  0  0  0
 12 24  1  0  0  0  0
 12 25  1  0  0  0  0
 13 14  1  0  0  0  0
 13 26  1  0  0  0  0
 13 27  1  0  0  0  0
 14 28  1  0  0  0  0
 14 29  1  0  0  0  0
M  END
> <s_m_source_file>
AV-unprocessed.smi

> <i_m_source_file_index>
2043

> <i_lp_mmshare_version>
43012

> <i_f3d_flags>
0

> <s_epik_input>
W0NIM11jMW5uYyhzMSlbTkhdQyg9TylbTkhdW0NIMl1bQ0hdMltDSDJdW0NIMl1bQ0gyXTI=

> <s_epik_cmdline>
J2VwaWtfcHl0aG9uJywgJy1waCcsICc3LjAnLCAnLXRuJywgJzgnLCAnLW1hJywgJzIwMCcsICctbWV0YWxfYmluZGluZycsICctaW1hZScsICc8aW5maWxlLm1hZT4nLCAnLW9tYWUnLCAnPG91dGZpbGUubWFlPic=

> <r_lp_tautomer_probability>
1

> <r_epik_Ionization_Penalty>
0.000387707

> <r_epik_Ionization_Penalty_Charging>
0

> <r_epik_Ionization_Penalty_Neutral>
0.000387707

> <r_epik_State_Penalty>
-0

> <r_epik_Charging_Adjusted_Penalty>
0

> <i_epik_Tot_Q>
0

> <i_epik_Tot_abs_Q>
0

> <r_epik_Metal_State_Penalty>
0.190371

> <b_epik_Metal_Only>
0

> <s_lp_Force_Field>
OPLS_2005

> <r_lp_Energy>
11.3872

> <b_lp_Chiralities_Consistent>
1

> <s_lp_Variant>
AV-unprocessed.smi:2043-1

> <Gold.Version>
5.8.1

> <Gold.Id.Protein>
6NUR|6NUR_protein|mol2

> <Gold.PLP.Fitness>
38.6104

> <Gold.PLP.PLP>
-33.8122

> <Gold.PLP.part.hbond>
-2.0000

> <Gold.PLP.part.metal>
0.0000

> <Gold.PLP.part.buried>
-3.4095

> <Gold.PLP.part.nonpolar>
-28.9269

> <Gold.PLP.part.repulsive>
1.2363

> <Gold.PLP.ligand.clash>
0.0000

> <Gold.PLP.ligand.torsion>
0.6299

> <Gold.PLP.Chemscore.Hbond>
2.0000

> <Gold.PLP.Chemscore.CHOScore>
0.0000

> <Gold.PLP.Chemscore.Metal>
0.0000

> <Gold.Chemscore.Hbonds>
donor molecule, donor type, donor heavy atom, donor atom, acceptor molecule, acceptor atom, score
      L1  H     6    19       P1  8028  1.00
      L1  H     9    20       P1  8028  1.00

> <Gold.PLP.Chemscore.Internal.Correction>
0.0580

> <Gold.Rescore>
     Score         DG    S(hbond)    S(metal)    S(lipo)     H(rot)  DE(clash)    DE(int)     intcor
     16.29     -17.97       1.93        0.00      79.42       1.27       0.17       1.51       ----

> <Gold.Chemscore.Fitness>
16.2868

> <Gold.Chemscore.DG>
-17.9680

> <Gold.Chemscore.ZeroCoef>
-5.4800

> <Gold.Chemscore.Hbond>
1.9339

> <Gold.Chemscore.Metal>
0.0000

> <Gold.Chemscore.Lipo>
79.4248

> <Gold.Chemscore.Internal_Hbond>
0.0000

> <Gold.Chemscore.DEClash>
0.1698

> <Gold.Chemscore.DEInternal>
1.5113

> <Gold.Chemscore.Rot>
1.2750

> <Gold.Chemscore.Internal.Correction>
   9.000000E+99

> <Gold.Chemscore.Hbonds>
donor molecule, donor type, donor heavy atom, donor atom, acceptor molecule, acceptor atom, score
      L1  H     6    19       P1  8028  0.96
      L1  H     9    20       P1  8028  0.99

> <Gold.Chemscore.Hbond.Weighted>
-6.4593

> <Gold.Chemscore.Metal.Weighted>
-0.0000

> <Gold.Chemscore.Lipo.Weighted>
-9.2927

> <Gold.Chemscore.Internal_Hbond.Weighted>
0.0000

> <Gold.Chemscore.DEClash.Weighted>
0.1698

> <Gold.Chemscore.DEInternal.Weighted>
1.5113

> <Gold.Chemscore.Rot.Weighted>
3.2640

> <Gold.Chemscore.Internal.Correction.Weighted>
   9.000000E+99

> <Gold.Protein.RotatedTorsions>
[ 6907 6896 6895 6894 ] final  161.77 input  -60.11 | X-H torsion
[ 7974 7965 7964 7962 ] final  162.45 input  175.53 | X-H torsion
[ 8008 7997 7996 7995 ] final  147.05 input   59.86 | X-H torsion
[ 10167 10162 10161 10158 ] final  -17.53 input  -65.29 | X-H torsion
[ 10718 10713 10712 10709 ] final   29.98 input   66.30 | X-H torsion
[ 10763 10752 10751 10750 ] final  -78.17 input  -60.55 | X-H torsion
[ 11005 11000 10999 10996 ] final -144.71 input  -57.11 | X-H torsion

> <Gold.Protein.ActiveResidues>
 VAL166  LYS551  ARG553  GLY616  TRP617  ASP618  TYR619  PRO620  LYS621  CYS622 
 ASP623  PHE694  ASN695  SER759  ASP760  ASP761  ALA762  ILE779  LEU786  VAL792 
 PHE793  MET794  SER795  GLU796  ALA797  LYS798  CYS799  TRP800  GLU811  SER814 

> <Gold.Protein.RotatedAtoms>
  151.9506  133.3665  159.3998 H   0  0  0  0  0  0  0  0  0  0  0  0  # atno 6907 bound_to 6896
  150.6981  134.4344  159.5272 H   0  0  0  0  0  0  0  0  0  0  0  0  # atno 6908 bound_to 6896
  152.2016  134.8582  160.0558 H   0  0  0  0  0  0  0  0  0  0  0  0  # atno 6909 bound_to 6896
  144.7636  139.8041  143.6323 H   0  0  0  0  0  0  0  0  0  0  0  0  # atno 7974 bound_to 7965
  156.2837  140.2166  156.5476 H   0  0  0  0  0  0  0  0  0  0  0  0  # atno 8008 bound_to 7997
  154.7318  140.0495  157.0755 H   0  0  0  0  0  0  0  0  0  0  0  0  # atno 8009 bound_to 7997
  155.0344  140.3138  155.4750 H   0  0  0  0  0  0  0  0  0  0  0  0  # atno 8010 bound_to 7997
  140.7248  143.5006  150.9874 H   0  0  0  0  0  0  0  0  0  0  0  0  # atno 10167 bound_to 10162
  157.2537  130.7127  149.6418 H   0  0  0  0  0  0  0  0  0  0  0  0  # atno 10718 bound_to 10713
  154.5224  135.5739  153.6692 H   0  0  0  0  0  0  0  0  0  0  0  0  # atno 10763 bound_to 10752
  152.9920  135.6185  154.2737 H   0  0  0  0  0  0  0  0  0  0  0  0  # atno 10764 bound_to 10752
  154.2658  135.2855  155.2738 H   0  0  0  0  0  0  0  0  0  0  0  0  # atno 10765 bound_to 10752
  140.7996  134.2872  157.4983 H   0  0  0  0  0  0  0  0  0  0  0  0  # atno 11005 bound_to 11000
  146.1723  139.4879  142.9919 LP  0  0  0  0  0  0  0  0  0  0  0  0  # atno 17320 bound_to 7965
  145.6540  141.0256  143.1745 LP  0  0  0  0  0  0  0  0  0  0  0  0  # atno 17321 bound_to 7965
  139.8715  143.7186  152.3166 LP  0  0  0  0  0  0  0  0  0  0  0  0  # atno 17342 bound_to 10162
  139.7437  144.7553  151.0613 LP  0  0  0  0  0  0  0  0  0  0  0  0  # atno 17343 bound_to 10162
  155.9665  130.4419  150.5361 LP  0  0  0  0  0  0  0  0  0  0  0  0  # atno 17370 bound_to 10713
  157.3251  131.0689  151.1903 LP  0  0  0  0  0  0  0  0  0  0  0  0  # atno 17371 bound_to 10713
  139.8723  134.9422  156.3818 LP  0  0  0  0  0  0  0  0  0  0  0  0  # atno 17394 bound_to 11000
  140.9307  133.7581  156.0022 LP  0  0  0  0  0  0  0  0  0  0  0  0  # atno 17395 bound_to 11000

$$$$
