AV-unprocessed.smi:1809|AV-procd|sdf|7315|dock1
  -GOLD-   22720 8573D 1   1.00000     0.00000
 Structure written by MMmdl.
 40 42  0  0  0  0  0  0  0  0  2 V2000
  146.2535  129.8144  151.7531 C   0  0  0  0  0  0  0  0  0  0  0  0
  147.0819  130.8438  152.4429 C   0  0  0  0  0  0  0  0  0  0  0  0
  147.9019  130.5514  153.4600 N   0  0  0  0  0  0  0  0  0  0  0  0
  148.5649  131.6721  153.9402 N   0  0  0  0  0  0  0  0  0  0  0  0
  148.2255  132.7803  153.2674 C   0  0  0  0  0  0  0  0  0  0  0  0
  148.7523  134.0680  153.5523 N   0  0  0  0  0  0  0  0  0  0  0  0
  149.3810  134.4813  154.6666 C   0  0  0  0  0  0  0  0  0  0  0  0
  149.6155  133.7838  155.6537 O   0  0  0  0  0  0  0  0  0  0  0  0
  149.7300  135.7731  154.5802 N   0  0  0  0  0  0  0  0  0  0  0  0
  150.4101  136.5224  155.6313 C   0  0  0  0  0  0  0  0  0  0  0  0
  151.5436  137.4108  155.0699 C   0  0  2  0  0  0  0  0  0  0  0  0
  152.2941  138.1970  156.1723 C   0  0  0  0  0  0  0  0  0  0  0  0
  151.4498  139.3176  156.6259 N   0  3  1  0  0  0  0  0  0  0  0  0
  151.9743  140.1980  157.6839 C   0  0  0  0  0  0  0  0  0  0  0  0
  151.2118  141.5261  157.5068 C   0  0  0  0  0  0  0  0  0  0  0  0
  150.4087  141.3763  156.2019 C   0  0  0  0  0  0  0  0  0  0  0  0
  151.0816  140.1936  155.5119 C   0  0  2  0  0  0  0  0  0  0  0  0
  150.2616  139.3921  154.4947 C   0  0  0  0  0  0  0  0  0  0  0  0
  151.0637  138.2961  154.0451 O   0  0  0  0  0  0  0  0  0  0  0  0
  147.0608  132.5401  151.9761 S   0  0  0  0  0  0  0  0  0  0  0  0
  146.1413  128.9289  152.3800 H   0  0  0  0  0  0  0  0  0  0  0  0
  146.7278  129.5225  150.8161 H   0  0  0  0  0  0  0  0  0  0  0  0
  145.2629  130.2141  151.5361 H   0  0  0  0  0  0  0  0  0  0  0  0
  148.6233  134.7575  152.8268 H   0  0  0  0  0  0  0  0  0  0  0  0
  149.5015  136.2747  153.7342 H   0  0  0  0  0  0  0  0  0  0  0  0
  149.6684  137.1186  156.1620 H   0  0  0  0  0  0  0  0  0  0  0  0
  150.8127  135.8252  156.3681 H   0  0  0  0  0  0  0  0  0  0  0  0
  152.2721  136.7545  154.5928 H   0  0  0  0  0  0  0  0  0  0  0  0
  152.5432  137.5487  157.0130 H   0  0  0  0  0  0  0  0  0  0  0  0
  153.2342  138.5868  155.7792 H   0  0  0  0  0  0  0  0  0  0  0  0
  151.8269  139.7569  158.6700 H   0  0  0  0  0  0  0  0  0  0  0  0
  153.0441  140.3583  157.5385 H   0  0  0  0  0  0  0  0  0  0  0  0
  150.5487  141.7250  158.3496 H   0  0  0  0  0  0  0  0  0  0  0  0
  151.9145  142.3573  157.4389 H   0  0  0  0  0  0  0  0  0  0  0  0
  149.3694  141.1373  156.4326 H   0  0  0  0  0  0  0  0  0  0  0  0
  150.4188  142.2806  155.5924 H   0  0  0  0  0  0  0  0  0  0  0  0
  151.9954  140.5506  155.0315 H   0  0  0  0  0  0  0  0  0  0  0  0
  149.3242  139.0389  154.9251 H   0  0  0  0  0  0  0  0  0  0  0  0
  150.0037  140.0160  153.6389 H   0  0  0  0  0  0  0  0  0  0  0  0
  150.5890  138.9253  156.9797 H   0  0  0  0  0  0  0  0  0  0  0  0
  1  2  1  0  0  0  0
  1 21  1  0  0  0  0
  1 22  1  0  0  0  0
  1 23  1  0  0  0  0
  2 20  1  0  0  0  0
  2  3  2  0  0  0  0
  3  4  1  0  0  0  0
  4  5  2  0  0  0  0
  5  6  1  0  0  0  0
  5 20  1  0  0  0  0
  6  7  1  0  0  0  0
  6 24  1  0  0  0  0
  7  8  2  0  0  0  0
  7  9  1  0  0  0  0
  9 10  1  0  0  0  0
  9 25  1  0  0  0  0
 10 11  1  0  0  0  0
 10 26  1  0  0  0  0
 10 27  1  0  0  0  0
 11 19  1  0  0  0  0
 11 12  1  0  0  0  0
 11 28  1  0  0  0  0
 12 13  1  0  0  0  0
 12 29  1  0  0  0  0
 12 30  1  0  0  0  0
 13 17  1  0  0  0  0
 13 14  1  0  0  0  0
 13 40  1  0  0  0  0
 14 15  1  0  0  0  0
 14 31  1  0  0  0  0
 14 32  1  0  0  0  0
 15 16  1  0  0  0  0
 15 33  1  0  0  0  0
 15 34  1  0  0  0  0
 16 17  1  0  0  0  0
 16 35  1  0  0  0  0
 16 36  1  0  0  0  0
 17 18  1  0  0  0  0
 17 37  1  0  0  0  0
 18 19  1  0  0  0  0
 18 38  1  0  0  0  0
 18 39  1  0  0  0  0
M  CHG  1  13   1
M  END
> <s_m_source_file>
AV-unprocessed.smi

> <i_m_source_file_index>
1809

> <i_lp_mmshare_version>
43012

> <i_f3d_flags>
0

> <s_epik_input>
W0NIM11jMW5uYyhzMSlbTkhdQyg9TylbTkhdW0NIMl1bQ0BIXShbQ0gyXTIpT1tDSDJdW0NAQEhdKE4yMylbQ0gyXVtDSDJdW0NIMl0z

> <s_epik_cmdline>
J2VwaWtfcHl0aG9uJywgJy1waCcsICc3LjAnLCAnLXRuJywgJzgnLCAnLW1hJywgJzIwMCcsICctbWV0YWxfYmluZGluZycsICctaW1hZScsICc8aW5maWxlLm1hZT4nLCAnLW9tYWUnLCAnPG91dGZpbGUubWFlPic=

> <r_lp_tautomer_probability>
1

> <r_epik_Ionization_Penalty>
0.112474

> <r_epik_Ionization_Penalty_Charging>
0.108916

> <r_epik_Ionization_Penalty_Neutral>
0.00355844

> <r_epik_State_Penalty>
0.0565397

> <r_epik_Charging_Adjusted_Penalty>
0.165456

> <i_epik_Tot_Q>
1

> <i_epik_Tot_abs_Q>
1

> <r_epik_Metal_State_Penalty>
0.422831

> <b_epik_Metal_Only>
0

> <s_lp_Force_Field>
OPLS_2005

> <r_lp_Energy>
36.9848

> <b_lp_Chiralities_Consistent>
1

> <s_lp_Variant>
AV-unprocessed.smi:1809-7

> <Gold.Version>
5.8.1

> <Gold.Id.Protein>
6NUR|6NUR_protein|mol2

> <Gold.PLP.Fitness>
36.9193

> <Gold.PLP.PLP>
-31.4436

> <Gold.PLP.part.hbond>
-2.0000

> <Gold.PLP.part.metal>
0.0000

> <Gold.PLP.part.buried>
-2.7775

> <Gold.PLP.part.nonpolar>
-26.7648

> <Gold.PLP.part.repulsive>
0.5207

> <Gold.PLP.ligand.clash>
0.0000

> <Gold.PLP.ligand.torsion>
0.1833

> <Gold.PLP.Chemscore.Hbond>
1.9440

> <Gold.PLP.Chemscore.CHOScore>
0.0000

> <Gold.PLP.Chemscore.Metal>
0.0000

> <Gold.Chemscore.Hbonds>
donor molecule, donor type, donor heavy atom, donor atom, acceptor molecule, acceptor atom, score
      L1  H     6    24       P1  7948  0.95
      L1  H     9    25       P1  7948  0.98

> <Gold.PLP.Chemscore.Internal.Correction>
0.0103

> <Gold.Rescore>
     Score         DG    S(hbond)    S(metal)    S(lipo)     H(rot)  DE(clash)    DE(int)     intcor
     14.02     -15.52       1.62        0.00      68.85       1.34       0.07       1.42       ----

> <Gold.Chemscore.Fitness>
14.0228

> <Gold.Chemscore.DG>
-15.5188

> <Gold.Chemscore.ZeroCoef>
-5.4800

> <Gold.Chemscore.Hbond>
1.6204

> <Gold.Chemscore.Metal>
0.0000

> <Gold.Chemscore.Lipo>
68.8452

> <Gold.Chemscore.Internal_Hbond>
0.0000

> <Gold.Chemscore.DEClash>
0.0726

> <Gold.Chemscore.DEInternal>
1.4235

> <Gold.Chemscore.Rot>
1.3391

> <Gold.Chemscore.Internal.Correction>
   9.000000E+99

> <Gold.Chemscore.Hbonds>
donor molecule, donor type, donor heavy atom, donor atom, acceptor molecule, acceptor atom, score
      L1  H     6    24       P1  7948  0.21
      L1  H     9    25       P1  7948  0.61

> <Gold.Chemscore.Hbond.Weighted>
-5.4120

> <Gold.Chemscore.Metal.Weighted>
-0.0000

> <Gold.Chemscore.Lipo.Weighted>
-8.0549

> <Gold.Chemscore.Internal_Hbond.Weighted>
0.0000

> <Gold.Chemscore.DEClash.Weighted>
0.0726

> <Gold.Chemscore.DEInternal.Weighted>
1.4235

> <Gold.Chemscore.Rot.Weighted>
3.4281

> <Gold.Chemscore.Internal.Correction.Weighted>
   9.000000E+99

> <Gold.Protein.RotatedTorsions>
[ 6907 6896 6895 6894 ] final -161.29 input  -60.11 | X-H torsion
[ 7974 7965 7964 7962 ] final  127.88 input  175.53 | X-H torsion
[ 8008 7997 7996 7995 ] final    3.53 input   59.86 | X-H torsion
[ 10167 10162 10161 10158 ] final   34.89 input  -65.29 | X-H torsion
[ 10718 10713 10712 10709 ] final -106.67 input   66.30 | X-H torsion
[ 10763 10752 10751 10750 ] final    8.78 input  -60.55 | X-H torsion
[ 11005 11000 10999 10996 ] final  -68.35 input  -57.11 | X-H torsion

> <Gold.Protein.ActiveResidues>
 VAL166  LYS551  ARG553  GLY616  TRP617  ASP618  TYR619  PRO620  LYS621  CYS622 
 ASP623  PHE694  ASN695  SER759  ASP760  ASP761  ALA762  ILE779  LEU786  VAL792 
 PHE793  MET794  SER795  GLU796  ALA797  LYS798  CYS799  TRP800  GLU811  SER814 

> <Gold.Protein.RotatedAtoms>
  151.3623  133.3885  159.2690 H   0  0  0  0  0  0  0  0  0  0  0  0  # atno 6907 bound_to 6896
  150.9716  134.9089  159.7801 H   0  0  0  0  0  0  0  0  0  0  0  0  # atno 6908 bound_to 6896
  152.5186  134.3585  159.9328 H   0  0  0  0  0  0  0  0  0  0  0  0  # atno 6909 bound_to 6896
  145.0457  139.3925  143.5079 H   0  0  0  0  0  0  0  0  0  0  0  0  # atno 7974 bound_to 7965
  154.7048  140.2680  155.6684 H   0  0  0  0  0  0  0  0  0  0  0  0  # atno 8008 bound_to 7997
  156.2777  140.2765  156.1595 H   0  0  0  0  0  0  0  0  0  0  0  0  # atno 8009 bound_to 7997
  155.0714  140.0372  157.2600 H   0  0  0  0  0  0  0  0  0  0  0  0  # atno 8010 bound_to 7997
  140.4273  144.1375  150.6155 H   0  0  0  0  0  0  0  0  0  0  0  0  # atno 10167 bound_to 10162
  156.0400  130.5624  150.7713 H   0  0  0  0  0  0  0  0  0  0  0  0  # atno 10718 bound_to 10713
  153.2213  135.6881  153.7997 H   0  0  0  0  0  0  0  0  0  0  0  0  # atno 10763 bound_to 10752
  153.7195  135.3269  155.3264 H   0  0  0  0  0  0  0  0  0  0  0  0  # atno 10764 bound_to 10752
  154.8271  135.4609  154.1061 H   0  0  0  0  0  0  0  0  0  0  0  0  # atno 10765 bound_to 10752
  141.1530  133.6739  156.6432 H   0  0  0  0  0  0  0  0  0  0  0  0  # atno 11005 bound_to 11000
  146.3513  140.0081  142.8669 LP  0  0  0  0  0  0  0  0  0  0  0  0  # atno 17320 bound_to 7965
  145.1591  140.9663  143.4388 LP  0  0  0  0  0  0  0  0  0  0  0  0  # atno 17321 bound_to 7965
  140.4467  143.2504  151.9402 LP  0  0  0  0  0  0  0  0  0  0  0  0  # atno 17342 bound_to 10162
  139.4784  144.5602  151.8250 LP  0  0  0  0  0  0  0  0  0  0  0  0  # atno 17343 bound_to 10162
  157.5206  131.0931  151.0083 LP  0  0  0  0  0  0  0  0  0  0  0  0  # atno 17370 bound_to 10713
  157.0415  130.5751  149.5357 LP  0  0  0  0  0  0  0  0  0  0  0  0  # atno 17371 bound_to 10713
  140.3377  134.7875  157.4374 LP  0  0  0  0  0  0  0  0  0  0  0  0  # atno 17394 bound_to 11000
  140.0964  134.5532  155.8394 LP  0  0  0  0  0  0  0  0  0  0  0  0  # atno 17395 bound_to 11000

$$$$
