AV-unprocessed.smi:2441|AV-procd|sdf|9622|dock7
  -GOLD-   2272013253D 1   1.00000     0.00000
 Structure written by MMmdl.
 40 41  0  0  0  0  0  0  0  0  1 V2000
  146.9682  133.0118  152.7904 C   0  0  0  0  0  0  0  0  0  0  0  0
  146.2430  133.5220  151.5325 C   0  0  1  0  0  0  0  0  0  0  0  0
  145.2423  132.4649  151.0223 C   0  0  0  0  0  0  0  0  0  0  0  0
  144.4979  132.9373  149.7645 C   0  0  0  0  0  0  0  0  0  0  0  0
  143.7837  134.2718  150.0161 C   0  0  0  0  0  0  0  0  0  0  0  0
  144.7735  135.3391  150.5040 C   0  0  0  0  0  0  0  0  0  0  0  0
  145.5329  134.8802  151.7643 C   0  0  2  0  0  0  0  0  0  0  0  0
  146.4993  135.9144  152.1325 N   0  0  0  0  0  0  0  0  0  0  0  0
  146.2077  137.1608  152.5322 C   0  0  0  0  0  0  0  0  0  0  0  0
  145.0586  137.5858  152.6486 O   0  0  0  0  0  0  0  0  0  0  0  0
  147.3333  137.8615  152.7636 N   0  0  0  0  0  0  0  0  0  0  0  0
  147.4834  139.1826  153.2204 C   0  0  0  0  0  0  0  0  0  0  0  0
  146.5996  140.1840  152.9817 C   0  0  0  0  0  0  0  0  0  0  0  0
  146.8255  141.5113  153.5001 C   0  0  0  0  0  0  0  0  0  0  0  0
  147.9251  141.7282  154.2343 C   0  0  0  0  0  0  0  0  0  0  0  0
  148.8483  140.7059  154.5057 N   0  0  0  0  0  0  0  0  0  0  0  0
  150.0035  141.0920  155.3207 C   0  0  0  0  0  0  0  0  0  0  0  0
  148.6895  139.4311  154.0355 C   0  0  0  0  0  0  0  0  0  0  0  0
  149.5122  138.5461  154.2818 O   0  0  0  0  0  0  0  0  0  0  0  0
  146.2736  132.8857  153.6212 H   0  0  0  0  0  0  0  0  0  0  0  0
  147.7503  133.6993  153.1126 H   0  0  0  0  0  0  0  0  0  0  0  0
  147.4424  132.0477  152.6050 H   0  0  0  0  0  0  0  0  0  0  0  0
  146.9962  133.6623  150.7555 H   0  0  0  0  0  0  0  0  0  0  0  0
  145.7641  131.5325  150.8044 H   0  0  0  0  0  0  0  0  0  0  0  0
  144.5189  132.2357  151.8060 H   0  0  0  0  0  0  0  0  0  0  0  0
  145.2038  133.0484  148.9404 H   0  0  0  0  0  0  0  0  0  0  0  0
  143.7756  132.1819  149.4543 H   0  0  0  0  0  0  0  0  0  0  0  0
  143.2931  134.6092  149.1029 H   0  0  0  0  0  0  0  0  0  0  0  0
  142.9968  134.1343  150.7588 H   0  0  0  0  0  0  0  0  0  0  0  0
  145.4829  135.5624  149.7056 H   0  0  0  0  0  0  0  0  0  0  0  0
  144.2380  136.2671  150.7086 H   0  0  0  0  0  0  0  0  0  0  0  0
  144.8003  134.7470  152.5628 H   0  0  0  0  0  0  0  0  0  0  0  0
  147.4738  135.6593  152.0680 H   0  0  0  0  0  0  0  0  0  0  0  0
  148.2020  137.3934  152.5497 H   0  0  0  0  0  0  0  0  0  0  0  0
  145.6956  140.0239  152.4170 H   0  0  0  0  0  0  0  0  0  0  0  0
  146.1257  142.3096  153.3006 H   0  0  0  0  0  0  0  0  0  0  0  0
  148.1717  142.6907  154.6597 H   0  0  0  0  0  0  0  0  0  0  0  0
  150.6556  140.2632  155.5978 H   0  0  0  0  0  0  0  0  0  0  0  0
  149.6684  141.5579  156.2482 H   0  0  0  0  0  0  0  0  0  0  0  0
  150.6110  141.8197  154.7814 H   0  0  0  0  0  0  0  0  0  0  0  0
  1  2  1  0  0  0  0
  1 20  1  0  0  0  0
  1 21  1  0  0  0  0
  1 22  1  0  0  0  0
  2  7  1  0  0  0  0
  2  3  1  0  0  0  0
  2 23  1  0  0  0  0
  3  4  1  0  0  0  0
  3 24  1  0  0  0  0
  3 25  1  0  0  0  0
  4  5  1  0  0  0  0
  4 26  1  0  0  0  0
  4 27  1  0  0  0  0
  5  6  1  0  0  0  0
  5 28  1  0  0  0  0
  5 29  1  0  0  0  0
  6  7  1  0  0  0  0
  6 30  1  0  0  0  0
  6 31  1  0  0  0  0
  7  8  1  0  0  0  0
  7 32  1  0  0  0  0
  8  9  1  0  0  0  0
  8 33  1  0  0  0  0
  9 10  2  0  0  0  0
  9 11  1  0  0  0  0
 11 12  1  0  0  0  0
 11 34  1  0  0  0  0
 12 18  1  0  0  0  0
 12 13  2  0  0  0  0
 13 14  1  0  0  0  0
 13 35  1  0  0  0  0
 14 15  2  0  0  0  0
 14 36  1  0  0  0  0
 15 16  1  0  0  0  0
 15 37  1  0  0  0  0
 16 17  1  0  0  0  0
 16 18  1  0  0  0  0
 17 38  1  0  0  0  0
 17 39  1  0  0  0  0
 17 40  1  0  0  0  0
 18 19  2  0  0  0  0
M  END
> <s_m_source_file>
AV-unprocessed.smi

> <i_m_source_file_index>
2441

> <i_lp_mmshare_version>
43012

> <i_f3d_flags>
0

> <s_epik_input>
W0NIM11bQ0BASF0xW0NIMl1bQ0gyXVtDSDJdW0NIMl1bQ0BIXTFbTkhdQyg9TylbTkhdYzJbY0hdW2NIXVtjSF1uKFtDSDNdKWMyPU8=

> <s_epik_cmdline>
J2VwaWtfcHl0aG9uJywgJy1waCcsICc3LjAnLCAnLXRuJywgJzgnLCAnLW1hJywgJzIwMCcsICctbWV0YWxfYmluZGluZycsICctaW1hZScsICc8aW5maWxlLm1hZT4nLCAnLW9tYWUnLCAnPG91dGZpbGUubWFlPic=

> <r_lp_tautomer_probability>
1

> <r_epik_Ionization_Penalty>
2.64999e-05

> <r_epik_Ionization_Penalty_Charging>
5.09663e-06

> <r_epik_Ionization_Penalty_Neutral>
2.14032e-05

> <r_epik_State_Penalty>
-0

> <r_epik_Charging_Adjusted_Penalty>
5.09663e-06

> <i_epik_Tot_Q>
0

> <i_epik_Tot_abs_Q>
0

> <r_epik_Metal_State_Penalty>
-0

> <b_epik_Metal_Only>
0

> <s_lp_Force_Field>
OPLS_2005

> <r_lp_Energy>
23.8871

> <b_lp_Chiralities_Consistent>
1

> <s_lp_Variant>
AV-unprocessed.smi:2441-4

> <Gold.Version>
5.8.1

> <Gold.Id.Protein>
6NUR|6NUR_protein|mol2

> <Gold.PLP.Fitness>
39.6410

> <Gold.PLP.PLP>
-31.3716

> <Gold.PLP.part.hbond>
-1.5532

> <Gold.PLP.part.metal>
0.0000

> <Gold.PLP.part.buried>
3.1949

> <Gold.PLP.part.nonpolar>
-33.3911

> <Gold.PLP.part.repulsive>
0.5447

> <Gold.PLP.ligand.clash>
0.0000

> <Gold.PLP.ligand.torsion>
0.2354

> <Gold.PLP.Chemscore.Hbond>
1.9120

> <Gold.PLP.Chemscore.CHOScore>
1.0000

> <Gold.PLP.Chemscore.Metal>
0.0000

> <Gold.Chemscore.Hbonds>
donor molecule, donor type, donor heavy atom, donor atom, acceptor molecule, acceptor atom, score
      L1  H     8    33       P1  7948  0.90
      L1  H    11    34       P1  7948  0.99
      L1  C    15    37       P1  8028  1.00

> <Gold.PLP.Chemscore.Internal.Correction>
0.0041

> <Gold.Rescore>
     Score         DG    S(hbond)    S(metal)    S(lipo)     H(rot)  DE(clash)    DE(int)     intcor
     15.64     -18.04       1.76        0.00      78.94       1.00       1.28       1.12       ----

> <Gold.Chemscore.Fitness>
15.6402

> <Gold.Chemscore.DG>
-18.0362

> <Gold.Chemscore.ZeroCoef>
-5.4800

> <Gold.Chemscore.Hbond>
1.7607

> <Gold.Chemscore.Metal>
0.0000

> <Gold.Chemscore.Lipo>
78.9354

> <Gold.Chemscore.Internal_Hbond>
0.0000

> <Gold.Chemscore.DEClash>
1.2775

> <Gold.Chemscore.DEInternal>
1.1185

> <Gold.Chemscore.Rot>
1.0000

> <Gold.Chemscore.Internal.Correction>
   9.000000E+99

> <Gold.Chemscore.Hbonds>
donor molecule, donor type, donor heavy atom, donor atom, acceptor molecule, acceptor atom, score
      L1  H     8    33       P1  7948  0.85
      L1  H    11    34       P1  7948  0.88

> <Gold.Chemscore.Hbond.Weighted>
-5.8807

> <Gold.Chemscore.Metal.Weighted>
-0.0000

> <Gold.Chemscore.Lipo.Weighted>
-9.2354

> <Gold.Chemscore.Internal_Hbond.Weighted>
0.0000

> <Gold.Chemscore.DEClash.Weighted>
1.2775

> <Gold.Chemscore.DEInternal.Weighted>
1.1185

> <Gold.Chemscore.Rot.Weighted>
2.5600

> <Gold.Chemscore.Internal.Correction.Weighted>
   9.000000E+99

> <Gold.Protein.RotatedTorsions>
[ 6907 6896 6895 6894 ] final   93.85 input  -60.11 | X-H torsion
[ 7974 7965 7964 7962 ] final  -98.69 input  175.53 | X-H torsion
[ 8008 7997 7996 7995 ] final -165.00 input   59.86 | X-H torsion
[ 10167 10162 10161 10158 ] final -132.92 input  -65.29 | X-H torsion
[ 10718 10713 10712 10709 ] final -126.62 input   66.30 | X-H torsion
[ 10763 10752 10751 10750 ] final  130.32 input  -60.55 | X-H torsion
[ 11005 11000 10999 10996 ] final -123.58 input  -57.11 | X-H torsion

> <Gold.Protein.ActiveResidues>
 VAL166  LYS551  ARG553  GLY616  TRP617  ASP618  TYR619  PRO620  LYS621  CYS622 
 ASP623  PHE694  ASN695  SER759  ASP760  ASP761  ALA762  ILE779  LEU786  VAL792 
 PHE793  MET794  SER795  GLU796  ALA797  LYS798  CYS799  TRP800  GLU811  SER814 

> <Gold.Protein.RotatedAtoms>
  152.5451  134.1284  159.8428 H   0  0  0  0  0  0  0  0  0  0  0  0  # atno 6907 bound_to 6896
  151.1332  133.5015  159.2606 H   0  0  0  0  0  0  0  0  0  0  0  0  # atno 6908 bound_to 6896
  151.1652  135.0302  159.8782 H   0  0  0  0  0  0  0  0  0  0  0  0  # atno 6909 bound_to 6896
  145.3173  140.9414  143.2735 H   0  0  0  0  0  0  0  0  0  0  0  0  # atno 7974 bound_to 7965
  155.8436  140.0952  157.1719 H   0  0  0  0  0  0  0  0  0  0  0  0  # atno 8008 bound_to 7997
  154.3982  140.1396  156.3819 H   0  0  0  0  0  0  0  0  0  0  0  0  # atno 8009 bound_to 7997
  155.8038  140.3452  155.5420 H   0  0  0  0  0  0  0  0  0  0  0  0  # atno 8010 bound_to 7997
  139.9036  143.6578  152.2590 H   0  0  0  0  0  0  0  0  0  0  0  0  # atno 10167 bound_to 10162
  156.1782  130.6714  151.0270 H   0  0  0  0  0  0  0  0  0  0  0  0  # atno 10718 bound_to 10713
  153.7561  135.3202  155.3329 H   0  0  0  0  0  0  0  0  0  0  0  0  # atno 10763 bound_to 10752
  154.8246  135.4579  154.0883 H   0  0  0  0  0  0  0  0  0  0  0  0  # atno 10764 bound_to 10752
  153.2100  135.6934  153.8208 H   0  0  0  0  0  0  0  0  0  0  0  0  # atno 10765 bound_to 10752
  140.9908  134.0542  157.3656 H   0  0  0  0  0  0  0  0  0  0  0  0  # atno 11005 bound_to 11000
  144.8967  139.4703  143.6652 LP  0  0  0  0  0  0  0  0  0  0  0  0  # atno 17320 bound_to 7965
  146.3095  139.7697  142.9030 LP  0  0  0  0  0  0  0  0  0  0  0  0  # atno 17321 bound_to 7965
  139.7004  144.7636  151.1283 LP  0  0  0  0  0  0  0  0  0  0  0  0  # atno 17342 bound_to 10162
  140.7701  143.5466  150.9252 LP  0  0  0  0  0  0  0  0  0  0  0  0  # atno 17343 bound_to 10162
  157.6850  131.0827  150.7267 LP  0  0  0  0  0  0  0  0  0  0  0  0  # atno 17370 bound_to 10713
  156.7325  130.4714  149.5496 LP  0  0  0  0  0  0  0  0  0  0  0  0  # atno 17371 bound_to 10713
  139.8991  135.0157  156.7181 LP  0  0  0  0  0  0  0  0  0  0  0  0  # atno 17394 bound_to 11000
  140.7043  133.9279  155.8044 LP  0  0  0  0  0  0  0  0  0  0  0  0  # atno 17395 bound_to 11000

$$$$
