AV-unprocessed.smi:1356|AV-procd|sdf|5540|dock7
  -GOLD-   22720 5133D 1   1.00000     0.00000
 Structure written by MMmdl.
 41 42  0  0  0  0  0  0  0  0  1 V2000
  149.8427  131.7568  154.4257 C   0  0  0  0  0  0  0  0  0  0  0  0
  149.5082  133.0167  155.1948 C   0  0  2  0  0  0  0  0  0  0  0  0
  148.1442  133.6538  155.0844 C   0  0  0  0  0  0  0  0  0  0  0  0
  149.3462  134.3389  154.4677 C   0  0  1  0  0  0  0  0  0  0  0  0
  149.8508  135.5739  155.1395 C   0  0  0  0  0  0  0  0  0  0  0  0
  149.4332  135.9656  156.2301 O   0  0  0  0  0  0  0  0  0  0  0  0
  150.7902  136.2269  154.4388 N   0  0  0  0  0  0  0  0  0  0  0  0
  151.4213  137.4863  154.8314 C   0  0  0  0  0  0  0  0  0  0  0  0
  150.8795  138.7118  154.0610 C   0  0  0  0  0  0  0  0  0  0  0  0
  150.3533  139.8221  154.9765 C   0  0  0  0  0  0  0  0  0  0  0  0
  149.2059  140.2461  154.8378 O   0  0  0  0  0  0  0  0  0  0  0  0
  151.1968  140.2652  155.9210 N   0  0  0  0  0  0  0  0  0  0  0  0
  150.8641  141.2471  156.9453 C   0  0  0  0  0  0  0  0  0  0  0  0
  152.1184  141.7025  157.7102 C   0  0  0  0  0  0  0  0  0  0  0  0
  151.8500  142.9130  158.5837 C   0  0  0  0  0  0  0  0  0  0  0  0
  152.5124  143.0704  159.8200 C   0  0  0  0  0  0  0  0  0  0  0  0
  152.2332  144.2164  160.5894 C   0  0  0  0  0  0  0  0  0  0  0  0
  151.3080  145.1562  160.0956 C   0  0  0  0  0  0  0  0  0  0  0  0
  150.7012  144.9074  158.8484 C   0  0  0  0  0  0  0  0  0  0  0  0
  150.9619  143.8120  158.1027 N   0  0  0  0  0  0  0  0  0  0  0  0
  149.3656  131.7627  153.4452 H   0  0  0  0  0  0  0  0  0  0  0  0
  149.4974  130.8808  154.9750 H   0  0  0  0  0  0  0  0  0  0  0  0
  150.9212  131.6785  154.2874 H   0  0  0  0  0  0  0  0  0  0  0  0
  149.9636  133.0463  156.1833 H   0  0  0  0  0  0  0  0  0  0  0  0
  147.4232  133.2135  154.3988 H   0  0  0  0  0  0  0  0  0  0  0  0
  147.7146  134.0753  155.9916 H   0  0  0  0  0  0  0  0  0  0  0  0
  149.4088  134.3186  153.3804 H   0  0  0  0  0  0  0  0  0  0  0  0
  151.0754  135.8351  153.5528 H   0  0  0  0  0  0  0  0  0  0  0  0
  151.2948  137.6365  155.9046 H   0  0  0  0  0  0  0  0  0  0  0  0
  152.4943  137.3894  154.6632 H   0  0  0  0  0  0  0  0  0  0  0  0
  151.6582  139.1114  153.4097 H   0  0  0  0  0  0  0  0  0  0  0  0
  150.0686  138.3982  153.4031 H   0  0  0  0  0  0  0  0  0  0  0  0
  152.1223  139.8625  155.9579 H   0  0  0  0  0  0  0  0  0  0  0  0
  150.3985  142.1025  156.4549 H   0  0  0  0  0  0  0  0  0  0  0  0
  150.1205  140.8385  157.6317 H   0  0  0  0  0  0  0  0  0  0  0  0
  152.4936  140.8933  158.3388 H   0  0  0  0  0  0  0  0  0  0  0  0
  152.9186  141.9373  157.0068 H   0  0  0  0  0  0  0  0  0  0  0  0
  153.2186  142.3326  160.1710 H   0  0  0  0  0  0  0  0  0  0  0  0
  152.7203  144.3718  161.5407 H   0  0  0  0  0  0  0  0  0  0  0  0
  151.0696  146.0465  160.6584 H   0  0  0  0  0  0  0  0  0  0  0  0
  149.9879  145.6070  158.4385 H   0  0  0  0  0  0  0  0  0  0  0  0
  1  2  1  0  0  0  0
  1 21  1  0  0  0  0
  1 22  1  0  0  0  0
  1 23  1  0  0  0  0
  2  4  1  0  0  0  0
  2  3  1  0  0  0  0
  2 24  1  0  0  0  0
  3  4  1  0  0  0  0
  3 25  1  0  0  0  0
  3 26  1  0  0  0  0
  4  5  1  0  0  0  0
  4 27  1  0  0  0  0
  5  6  2  0  0  0  0
  5  7  1  0  0  0  0
  7  8  1  0  0  0  0
  7 28  1  0  0  0  0
  8  9  1  0  0  0  0
  8 29  1  0  0  0  0
  8 30  1  0  0  0  0
  9 10  1  0  0  0  0
  9 31  1  0  0  0  0
  9 32  1  0  0  0  0
 10 11  2  0  0  0  0
 10 12  1  0  0  0  0
 12 13  1  0  0  0  0
 12 33  1  0  0  0  0
 13 14  1  0  0  0  0
 13 34  1  0  0  0  0
 13 35  1  0  0  0  0
 14 15  1  0  0  0  0
 14 36  1  0  0  0  0
 14 37  1  0  0  0  0
 15 20  1  0  0  0  0
 15 16  2  0  0  0  0
 16 17  1  0  0  0  0
 16 38  1  0  0  0  0
 17 18  2  0  0  0  0
 17 39  1  0  0  0  0
 18 19  1  0  0  0  0
 18 40  1  0  0  0  0
 19 20  2  0  0  0  0
 19 41  1  0  0  0  0
M  END
> <s_m_source_file>
AV-unprocessed.smi

> <i_m_source_file_index>
1356

> <i_lp_mmshare_version>
43012

> <i_f3d_flags>
0

> <s_epik_input>
W0NIM11bQ0BASF0xW0NIMl1bQ0BIXTFDKD1PKVtOSF1bQ0gyXVtDSDJdQyg9TylbTkhdW0NIMl1bQ0gyXWMyW2NIXVtjSF1bY0hdW2NIXW4y

> <s_epik_cmdline>
J2VwaWtfcHl0aG9uJywgJy1waCcsICc3LjAnLCAnLXRuJywgJzgnLCAnLW1hJywgJzIwMCcsICctbWV0YWxfYmluZGluZycsICctaW1hZScsICc8aW5maWxlLm1hZT4nLCAnLW9tYWUnLCAnPG91dGZpbGUubWFlPic=

> <r_epik_Ionization_Penalty>
0.0258005

> <r_epik_Ionization_Penalty_Charging>
0

> <r_epik_Ionization_Penalty_Neutral>
0.0258005

> <r_epik_State_Penalty>
0.0210245

> <r_epik_Charging_Adjusted_Penalty>
0.0210245

> <i_epik_Tot_Q>
0

> <i_epik_Tot_abs_Q>
0

> <r_epik_Metal_State_Penalty>
0.0201445

> <b_epik_Metal_Only>
0

> <s_lp_Force_Field>
OPLS_2005

> <r_lp_Energy>
2.94754

> <b_lp_Chiralities_Consistent>
1

> <s_lp_Variant>
AV-unprocessed.smi:1356-1

> <Gold.Version>
5.8.1

> <Gold.Id.Protein>
6NUR|6NUR_protein|mol2

> <Gold.PLP.Fitness>
41.8865

> <Gold.PLP.PLP>
-37.7733

> <Gold.PLP.part.hbond>
-1.8055

> <Gold.PLP.part.metal>
0.0000

> <Gold.PLP.part.buried>
-5.1238

> <Gold.PLP.part.nonpolar>
-29.9263

> <Gold.PLP.part.repulsive>
0.4950

> <Gold.PLP.ligand.clash>
0.0000

> <Gold.PLP.ligand.torsion>
1.0161

> <Gold.PLP.Chemscore.Hbond>
1.0000

> <Gold.PLP.Chemscore.CHOScore>
1.0000

> <Gold.PLP.Chemscore.Metal>
0.0000

> <Gold.Chemscore.Hbonds>
donor molecule, donor type, donor heavy atom, donor atom, acceptor molecule, acceptor atom, score
      L1  H     7    28       P1  7949  0.87
      L1  C    19    41       P1  8029  1.00

> <Gold.PLP.Chemscore.Internal.Correction>
0.1452

> <Gold.Rescore>
     Score         DG    S(hbond)    S(metal)    S(lipo)     H(rot)  DE(clash)    DE(int)     intcor
     11.97     -13.28       0.31        0.00     105.45       2.18       0.26       1.05       ----

> <Gold.Chemscore.Fitness>
11.9733

> <Gold.Chemscore.DG>
-13.2800

> <Gold.Chemscore.ZeroCoef>
-5.4800

> <Gold.Chemscore.Hbond>
0.3086

> <Gold.Chemscore.Metal>
0.0000

> <Gold.Chemscore.Lipo>
105.4532

> <Gold.Chemscore.Internal_Hbond>
0.0000

> <Gold.Chemscore.DEClash>
0.2610

> <Gold.Chemscore.DEInternal>
1.0456

> <Gold.Chemscore.Rot>
2.1753

> <Gold.Chemscore.Internal.Correction>
   9.000000E+99

> <Gold.Chemscore.Hbonds>
donor molecule, donor type, donor heavy atom, donor atom, acceptor molecule, acceptor atom, score
      L1  H     7    28       P1  7949  0.18

> <Gold.Chemscore.Hbond.Weighted>
-1.0306

> <Gold.Chemscore.Metal.Weighted>
-0.0000

> <Gold.Chemscore.Lipo.Weighted>
-12.3380

> <Gold.Chemscore.Internal_Hbond.Weighted>
0.0000

> <Gold.Chemscore.DEClash.Weighted>
0.2610

> <Gold.Chemscore.DEInternal.Weighted>
1.0456

> <Gold.Chemscore.Rot.Weighted>
5.5687

> <Gold.Chemscore.Internal.Correction.Weighted>
   9.000000E+99

> <Gold.Protein.RotatedTorsions>
[ 6907 6896 6895 6894 ] final  152.81 input  -60.11 | X-H torsion
[ 7974 7965 7964 7962 ] final -126.53 input  175.53 | X-H torsion
[ 8008 7997 7996 7995 ] final -158.05 input   59.86 | X-H torsion
[ 10167 10162 10161 10158 ] final  162.23 input  -65.29 | X-H torsion
[ 10718 10713 10712 10709 ] final   52.14 input   66.30 | X-H torsion
[ 10763 10752 10751 10750 ] final  -36.74 input  -60.55 | X-H torsion
[ 11005 11000 10999 10996 ] final -130.40 input  -57.11 | X-H torsion

> <Gold.Protein.ActiveResidues>
 VAL166  LYS551  ARG553  GLY616  TRP617  ASP618  TYR619  PRO620  LYS621  CYS622 
 ASP623  PHE694  ASN695  SER759  ASP760  ASP761  ALA762  ILE779  LEU786  VAL792 
 PHE793  MET794  SER795  GLU796  ALA797  LYS798  CYS799  TRP800  GLU811  SER814 

> <Gold.Protein.RotatedAtoms>
  152.0816  133.4155  159.4503 H   0  0  0  0  0  0  0  0  0  0  0  0  # atno 6907 bound_to 6896
  150.6862  134.2976  159.4702 H   0  0  0  0  0  0  0  0  0  0  0  0  # atno 6908 bound_to 6896
  152.0818  134.9465  160.0624 H   0  0  0  0  0  0  0  0  0  0  0  0  # atno 6909 bound_to 6896
  144.9863  140.7689  143.4581 H   0  0  0  0  0  0  0  0  0  0  0  0  # atno 7974 bound_to 7965
  155.7417  140.0815  157.2242 H   0  0  0  0  0  0  0  0  0  0  0  0  # atno 8008 bound_to 7997
  154.4021  140.1576  156.2679 H   0  0  0  0  0  0  0  0  0  0  0  0  # atno 8009 bound_to 7997
  155.9014  140.3409  155.6032 H   0  0  0  0  0  0  0  0  0  0  0  0  # atno 8010 bound_to 7997
  139.4858  144.4457  151.8894 H   0  0  0  0  0  0  0  0  0  0  0  0  # atno 10167 bound_to 10162
  157.5047  130.8461  149.8360 H   0  0  0  0  0  0  0  0  0  0  0  0  # atno 10718 bound_to 10713
  153.8848  135.6818  153.4764 H   0  0  0  0  0  0  0  0  0  0  0  0  # atno 10763 bound_to 10752
  153.1214  135.4738  154.9199 H   0  0  0  0  0  0  0  0  0  0  0  0  # atno 10764 bound_to 10752
  154.7651  135.3222  154.8254 H   0  0  0  0  0  0  0  0  0  0  0  0  # atno 10765 bound_to 10752
  140.9349  134.1271  157.4202 H   0  0  0  0  0  0  0  0  0  0  0  0  # atno 11005 bound_to 11000
  145.2349  139.2098  143.5023 LP  0  0  0  0  0  0  0  0  0  0  0  0  # atno 17320 bound_to 7965
  146.3421  140.2233  142.8592 LP  0  0  0  0  0  0  0  0  0  0  0  0  # atno 17321 bound_to 7965
  140.3912  144.2613  150.5899 LP  0  0  0  0  0  0  0  0  0  0  0  0  # atno 17342 bound_to 10162
  140.5145  143.2282  151.8485 LP  0  0  0  0  0  0  0  0  0  0  0  0  # atno 17343 bound_to 10162
  156.0251  130.3782  150.1848 LP  0  0  0  0  0  0  0  0  0  0  0  0  # atno 17370 bound_to 10713
  157.0037  130.9930  151.3384 LP  0  0  0  0  0  0  0  0  0  0  0  0  # atno 17371 bound_to 10713
  139.8805  135.0017  156.6085 LP  0  0  0  0  0  0  0  0  0  0  0  0  # atno 17394 bound_to 11000
  140.7813  133.8658  155.8570 LP  0  0  0  0  0  0  0  0  0  0  0  0  # atno 17395 bound_to 11000

$$$$
