AV-unprocessed.smi:2824|AV-procd|sdf|10887|dock3
  -GOLD-   2272015333D 1   1.00000     0.00000
 Structure written by MMmdl.
 38 39  0  0  0  0  0  0  0  0  1 V2000
  150.6242  142.4139  157.5997 C   0  0  0  0  0  0  0  0  0  0  0  0
  151.4746  142.2818  158.8494 C   0  0  0  0  0  0  0  0  0  0  0  0
  151.6660  143.4036  159.6834 C   0  0  0  0  0  0  0  0  0  0  0  0
  152.4505  143.2974  160.8460 C   0  0  0  0  0  0  0  0  0  0  0  0
  153.0452  142.0673  161.1784 C   0  0  0  0  0  0  0  0  0  0  0  0
  152.8570  140.9446  160.3497 C   0  0  0  0  0  0  0  0  0  0  0  0
  152.0687  141.0396  159.1741 C   0  0  0  0  0  0  0  0  0  0  0  0
  151.8405  139.9825  158.3171 O   0  0  0  0  0  0  0  0  0  0  0  0
  152.5808  138.7837  158.5039 C   0  0  0  0  0  0  0  0  0  0  0  0
  151.6282  137.5855  158.3553 C   0  0  1  0  0  0  0  0  0  0  0  0
  152.2424  136.4794  158.9883 O   0  0  0  0  0  0  0  0  0  0  0  0
  150.2731  137.8397  159.0521 C   0  0  0  0  0  0  0  0  0  0  0  0
  149.3785  136.6795  158.9593 N   0  0  0  0  0  0  0  0  0  0  0  0
  148.8519  136.2773  160.1743 N   0  0  0  0  0  0  0  0  0  0  0  0
  148.0561  135.2603  160.2594 C   0  0  0  0  0  0  0  0  0  0  0  0
  147.5412  134.8942  161.6294 C   0  0  0  0  0  0  0  0  0  0  0  0
  146.2261  135.0948  161.7179 F   0  0  0  0  0  0  0  0  0  0  0  0
  147.7916  133.6095  161.8841 F   0  0  0  0  0  0  0  0  0  0  0  0
  148.1461  135.6345  162.5591 F   0  0  0  0  0  0  0  0  0  0  0  0
  147.7059  134.5351  159.0493 C   0  0  0  0  0  0  0  0  0  0  0  0
  148.2197  134.9304  157.8648 C   0  0  0  0  0  0  0  0  0  0  0  0
  149.1241  136.0731  157.7629 C   0  0  0  0  0  0  0  0  0  0  0  0
  149.6152  136.4528  156.7002 O   0  0  0  0  0  0  0  0  0  0  0  0
  150.2755  143.4373  157.4594 H   0  0  0  0  0  0  0  0  0  0  0  0
  149.7515  141.7638  157.6662 H   0  0  0  0  0  0  0  0  0  0  0  0
  151.1984  142.1288  156.7177 H   0  0  0  0  0  0  0  0  0  0  0  0
  151.2113  144.3514  159.4350 H   0  0  0  0  0  0  0  0  0  0  0  0
  152.5948  144.1582  161.4820 H   0  0  0  0  0  0  0  0  0  0  0  0
  153.6469  141.9831  162.0713 H   0  0  0  0  0  0  0  0  0  0  0  0
  153.3292  140.0190  160.6409 H   0  0  0  0  0  0  0  0  0  0  0  0
  153.4136  138.7083  157.8021 H   0  0  0  0  0  0  0  0  0  0  0  0
  152.9946  138.7950  159.5135 H   0  0  0  0  0  0  0  0  0  0  0  0
  151.4774  137.3714  157.2964 H   0  0  0  0  0  0  0  0  0  0  0  0
  152.6839  136.7844  159.7660 H   0  0  0  0  0  0  0  0  0  0  0  0
  150.4263  138.1324  160.0929 H   0  0  0  0  0  0  0  0  0  0  0  0
  149.7749  138.6959  158.5936 H   0  0  0  0  0  0  0  0  0  0  0  0
  147.0398  133.6868  159.1009 H   0  0  0  0  0  0  0  0  0  0  0  0
  147.9566  134.3887  156.9682 H   0  0  0  0  0  0  0  0  0  0  0  0
  1  2  1  0  0  0  0
  1 24  1  0  0  0  0
  1 25  1  0  0  0  0
  1 26  1  0  0  0  0
  2  7  1  0  0  0  0
  2  3  2  0  0  0  0
  3  4  1  0  0  0  0
  3 27  1  0  0  0  0
  4  5  2  0  0  0  0
  4 28  1  0  0  0  0
  5  6  1  0  0  0  0
  5 29  1  0  0  0  0
  6  7  2  0  0  0  0
  6 30  1  0  0  0  0
  7  8  1  0  0  0  0
  8  9  1  0  0  0  0
  9 10  1  0  0  0  0
  9 31  1  0  0  0  0
  9 32  1  0  0  0  0
 10 11  1  0  0  0  0
 10 12  1  0  0  0  0
 10 33  1  0  0  0  0
 11 34  1  0  0  0  0
 12 13  1  0  0  0  0
 12 35  1  0  0  0  0
 12 36  1  0  0  0  0
 13 22  1  0  0  0  0
 13 14  1  0  0  0  0
 14 15  2  0  0  0  0
 15 16  1  0  0  0  0
 15 20  1  0  0  0  0
 16 17  1  0  0  0  0
 16 18  1  0  0  0  0
 16 19  1  0  0  0  0
 20 21  2  0  0  0  0
 20 37  1  0  0  0  0
 21 22  1  0  0  0  0
 21 38  1  0  0  0  0
 22 23  2  0  0  0  0
M  END
> <s_m_source_file>
AV-unprocessed.smi

> <i_m_source_file_index>
2824

> <i_lp_mmshare_version>
43012

> <i_f3d_flags>
0

> <s_epik_input>
W0NIM11jMVtjSF1bY0hdW2NIXVtjSF1jMU9bQ0gyXVtDQEhdKFtPSF0pW0NIMl1uMm5jKEMoRikoRilGKVtjSF1bY0hdYzI9Tw==

> <s_epik_cmdline>
J2VwaWtfcHl0aG9uJywgJy1waCcsICc3LjAnLCAnLXRuJywgJzgnLCAnLW1hJywgJzIwMCcsICctbWV0YWxfYmluZGluZycsICctaW1hZScsICc8aW5maWxlLm1hZT4nLCAnLW9tYWUnLCAnPG91dGZpbGUubWFlPic=

> <r_lp_tautomer_probability>
1

> <r_epik_Ionization_Penalty>
1.2156e-07

> <r_epik_Ionization_Penalty_Charging>
4.38548e-09

> <r_epik_Ionization_Penalty_Neutral>
1.17174e-07

> <r_epik_State_Penalty>
-0

> <r_epik_Charging_Adjusted_Penalty>
4.38548e-09

> <i_epik_Tot_Q>
0

> <i_epik_Tot_abs_Q>
0

> <r_epik_Metal_State_Penalty>
-0

> <b_epik_Metal_Only>
0

> <s_lp_Force_Field>
OPLS_2005

> <r_lp_Energy>
34.0789

> <b_lp_Chiralities_Consistent>
1

> <s_lp_Variant>
AV-unprocessed.smi:2824-2

> <Gold.Version>
5.8.1

> <Gold.Id.Protein>
6NUR|6NUR_protein|mol2

> <Gold.PLP.Fitness>
51.4359

> <Gold.PLP.PLP>
-47.3895

> <Gold.PLP.part.hbond>
-2.0000

> <Gold.PLP.part.metal>
0.0000

> <Gold.PLP.part.buried>
-3.8569

> <Gold.PLP.part.nonpolar>
-41.9503

> <Gold.PLP.part.repulsive>
0.0000

> <Gold.PLP.ligand.clash>
0.0000

> <Gold.PLP.ligand.torsion>
0.7779

> <Gold.PLP.Chemscore.Hbond>
1.8480

> <Gold.PLP.Chemscore.CHOScore>
0.0000

> <Gold.PLP.Chemscore.Metal>
0.0000

> <Gold.Chemscore.Hbonds>
donor molecule, donor type, donor heavy atom, donor atom, acceptor molecule, acceptor atom, score
      P1  H  6896  6908       L1    11  0.29

> <Gold.PLP.Chemscore.Internal.Correction>
0.0582

> <Gold.Rescore>
     Score         DG    S(hbond)    S(metal)    S(lipo)     H(rot)  DE(clash)    DE(int)     intcor
     14.07     -17.09       1.82        0.00     104.10       2.60       0.87       2.14       ----

> <Gold.Chemscore.Fitness>
14.0679

> <Gold.Chemscore.DG>
-17.0851

> <Gold.Chemscore.ZeroCoef>
-5.4800

> <Gold.Chemscore.Hbond>
1.8191

> <Gold.Chemscore.Metal>
0.0000

> <Gold.Chemscore.Lipo>
104.1005

> <Gold.Chemscore.Internal_Hbond>
0.0000

> <Gold.Chemscore.DEClash>
0.8725

> <Gold.Chemscore.DEInternal>
2.1447

> <Gold.Chemscore.Rot>
2.5978

> <Gold.Chemscore.Internal.Correction>
   9.000000E+99

> <Gold.Chemscore.Hbonds>
donor molecule, donor type, donor heavy atom, donor atom, acceptor molecule, acceptor atom, score
      P1  H  6896  6908       L1    11  0.01

> <Gold.Chemscore.Hbond.Weighted>
-6.0757

> <Gold.Chemscore.Metal.Weighted>
-0.0000

> <Gold.Chemscore.Lipo.Weighted>
-12.1798

> <Gold.Chemscore.Internal_Hbond.Weighted>
0.0000

> <Gold.Chemscore.DEClash.Weighted>
0.8725

> <Gold.Chemscore.DEInternal.Weighted>
2.1447

> <Gold.Chemscore.Rot.Weighted>
6.6504

> <Gold.Chemscore.Internal.Correction.Weighted>
   9.000000E+99

> <Gold.Protein.RotatedTorsions>
[ 6907 6896 6895 6894 ] final -121.95 input  -60.11 | X-H torsion
[ 7974 7965 7964 7962 ] final  -96.32 input  175.53 | X-H torsion
[ 8008 7997 7996 7995 ] final -172.61 input   59.86 | X-H torsion
[ 10167 10162 10161 10158 ] final   96.62 input  -65.29 | X-H torsion
[ 10718 10713 10712 10709 ] final   74.28 input   66.30 | X-H torsion
[ 10763 10752 10751 10750 ] final  -45.72 input  -60.55 | X-H torsion
[ 11005 11000 10999 10996 ] final  118.57 input  -57.11 | X-H torsion

> <Gold.Protein.ActiveResidues>
 VAL166  LYS551  ARG553  GLY616  TRP617  ASP618  TYR619  PRO620  LYS621  CYS622 
 ASP623  PHE694  ASN695  SER759  ASP760  ASP761  ALA762  ILE779  LEU786  VAL792 
 PHE793  MET794  SER795  GLU796  ALA797  LYS798  CYS799  TRP800  GLU811  SER814 

> <Gold.Protein.RotatedAtoms>
  150.8531  133.7757  159.3018 H   0  0  0  0  0  0  0  0  0  0  0  0  # atno 6907 bound_to 6896
  151.5422  135.1067  159.9939 H   0  0  0  0  0  0  0  0  0  0  0  0  # atno 6908 bound_to 6896
  152.4568  133.7697  159.6848 H   0  0  0  0  0  0  0  0  0  0  0  0  # atno 6909 bound_to 6896
  145.3484  140.9472  143.2568 H   0  0  0  0  0  0  0  0  0  0  0  0  # atno 7974 bound_to 7965
  155.9467  140.1119  157.1010 H   0  0  0  0  0  0  0  0  0  0  0  0  # atno 8008 bound_to 7997
  154.4101  140.1208  156.5065 H   0  0  0  0  0  0  0  0  0  0  0  0  # atno 8009 bound_to 7997
  155.6893  140.3472  155.4889 H   0  0  0  0  0  0  0  0  0  0  0  0  # atno 8010 bound_to 7997
  139.7877  144.6864  150.9935 H   0  0  0  0  0  0  0  0  0  0  0  0  # atno 10167 bound_to 10162
  157.6585  130.9670  150.1189 H   0  0  0  0  0  0  0  0  0  0  0  0  # atno 10718 bound_to 10713
  154.0332  135.6654  153.4782 H   0  0  0  0  0  0  0  0  0  0  0  0  # atno 10763 bound_to 10752
  153.0532  135.5072  154.7913 H   0  0  0  0  0  0  0  0  0  0  0  0  # atno 10764 bound_to 10752
  154.6865  135.3054  154.9505 H   0  0  0  0  0  0  0  0  0  0  0  0  # atno 10765 bound_to 10752
  139.9114  134.9621  156.7524 H   0  0  0  0  0  0  0  0  0  0  0  0  # atno 11005 bound_to 11000
  144.8736  139.5003  143.6756 LP  0  0  0  0  0  0  0  0  0  0  0  0  # atno 17320 bound_to 7965
  146.2978  139.7332  142.9114 LP  0  0  0  0  0  0  0  0  0  0  0  0  # atno 17321 bound_to 7965
  140.7820  143.4414  151.0545 LP  0  0  0  0  0  0  0  0  0  0  0  0  # atno 17342 bound_to 10162
  139.8092  143.7974  152.3170 LP  0  0  0  0  0  0  0  0  0  0  0  0  # atno 17343 bound_to 10162
  156.2066  130.3664  149.8722 LP  0  0  0  0  0  0  0  0  0  0  0  0  # atno 17370 bound_to 10713
  156.6612  130.8783  151.3547 LP  0  0  0  0  0  0  0  0  0  0  0  0  # atno 17371 bound_to 10713
  140.6763  133.9514  155.7885 LP  0  0  0  0  0  0  0  0  0  0  0  0  # atno 17394 bound_to 11000
  141.0542  134.0441  157.3744 LP  0  0  0  0  0  0  0  0  0  0  0  0  # atno 17395 bound_to 11000

$$$$
