AV-unprocessed.smi:114|AV-procd|sdf|1114|dock1
  -GOLD-   2262018233D 1   1.00000     0.00000
 Structure written by MMmdl.
 32 34  0  0  0  0  0  0  0  0  1 V2000
  144.3739  138.5854  154.4339 N   0  0  0  0  0  0  0  0  0  0  0  0
  145.6096  138.1279  154.6799 C   0  0  0  0  0  0  0  0  0  0  0  0
  145.7424  136.9566  155.3448 N   0  0  0  0  0  0  0  0  0  0  0  0
  146.9586  136.4651  155.6121 C   0  0  0  0  0  0  0  0  0  0  0  0
  146.9991  135.2892  156.2812 F   0  0  0  0  0  0  0  0  0  0  0  0
  148.1393  137.0046  155.2911 N   0  0  0  0  0  0  0  0  0  0  0  0
  148.0103  138.1852  154.6194 C   0  0  0  0  0  0  0  0  0  0  0  0
  146.7824  138.8125  154.2775 C   0  0  0  0  0  0  0  0  0  0  0  0
  147.0290  139.9994  153.6009 N   0  0  0  0  0  0  0  0  0  0  0  0
  148.3327  140.0662  153.5494 C   0  0  0  0  0  0  0  0  0  0  0  0
  149.0023  139.0135  154.1342 N   0  0  0  0  0  0  0  0  0  0  0  0
  150.4801  138.8146  154.2336 C   0  0  1  0  0  0  0  0  0  0  0  0
  150.9870  139.7830  155.0987 O   0  0  0  0  0  0  0  0  0  0  0  0
  151.9681  139.2015  155.9489 C   0  0  1  0  0  0  0  0  0  0  0  0
  152.0929  140.0294  157.2368 C   0  0  0  0  0  0  0  0  0  0  0  0
  153.1771  139.5616  158.0106 O   0  0  0  0  0  0  0  0  0  0  0  0
  151.4149  137.7938  156.1780 C   0  0  2  0  0  0  0  0  0  0  0  0
  152.4041  136.8812  156.6174 O   0  0  0  0  0  0  0  0  0  0  0  0
  150.8137  137.4325  154.8205 C   0  0  2  0  0  0  0  0  0  0  0  0
  151.7333  136.7426  153.9933 O   0  0  0  0  0  0  0  0  0  0  0  0
  150.8526  138.9647  153.2191 H   0  0  0  0  0  0  0  0  0  0  0  0
  152.9199  139.1422  155.4168 H   0  0  0  0  0  0  0  0  0  0  0  0
  150.6215  137.8283  156.9246 H   0  0  0  0  0  0  0  0  0  0  0  0
  149.9159  136.8219  154.9278 H   0  0  0  0  0  0  0  0  0  0  0  0
  144.2497  139.4575  153.9397 H   0  0  0  0  0  0  0  0  0  0  0  0
  143.5700  138.0595  154.7452 H   0  0  0  0  0  0  0  0  0  0  0  0
  148.8452  140.8915  153.0767 H   0  0  0  0  0  0  0  0  0  0  0  0
  152.2106  141.0911  157.0167 H   0  0  0  0  0  0  0  0  0  0  0  0
  151.1914  139.9227  157.8406 H   0  0  0  0  0  0  0  0  0  0  0  0
  152.9096  139.5349  158.9166 H   0  0  0  0  0  0  0  0  0  0  0  0
  153.2039  137.3597  156.7744 H   0  0  0  0  0  0  0  0  0  0  0  0
  151.3066  136.5446  153.1735 H   0  0  0  0  0  0  0  0  0  0  0  0
  1  2  1  0  0  0  0
  1 25  1  0  0  0  0
  1 26  1  0  0  0  0
  2  8  1  0  0  0  0
  2  3  2  0  0  0  0
  3  4  1  0  0  0  0
  4  5  1  0  0  0  0
  4  6  2  0  0  0  0
  6  7  1  0  0  0  0
  7 11  1  0  0  0  0
  7  8  2  0  0  0  0
  8  9  1  0  0  0  0
  9 10  2  0  0  0  0
 10 11  1  0  0  0  0
 10 27  1  0  0  0  0
 11 12  1  0  0  0  0
 12 21  1  0  0  0  0
 12 19  1  0  0  0  0
 12 13  1  0  0  0  0
 13 14  1  0  0  0  0
 14 22  1  0  0  0  0
 14 15  1  0  0  0  0
 14 17  1  0  0  0  0
 15 16  1  0  0  0  0
 15 28  1  0  0  0  0
 15 29  1  0  0  0  0
 16 30  1  0  0  0  0
 17 23  1  0  0  0  0
 17 18  1  0  0  0  0
 17 19  1  0  0  0  0
 18 31  1  0  0  0  0
 19 24  1  0  0  0  0
 19 20  1  0  0  0  0
 20 32  1  0  0  0  0
M  END
> <s_m_source_file>
AV-unprocessed.smi

> <i_m_source_file_index>
114

> <i_lp_mmshare_version>
43012

> <i_f3d_flags>
0

> <s_epik_input>
RmMobjEpbmMoW05IMl0pYyhjMTIpbltjSF1uMltDQEBIXTNPW0NASF0oW0NIMl1bT0hdKVtDQEBIXShbT0hdKVtDQEBIXTNbT0hd

> <s_epik_cmdline>
J2VwaWtfcHl0aG9uJywgJy1waCcsICc3LjAnLCAnLXRuJywgJzgnLCAnLW1hJywgJzIwMCcsICctbWV0YWxfYmluZGluZycsICctaW1hZScsICc8aW5maWxlLm1hZT4nLCAnLW9tYWUnLCAnPG91dGZpbGUubWFlPic=

> <r_lp_tautomer_probability>
1

> <r_epik_Ionization_Penalty>
1.13199e-05

> <r_epik_Ionization_Penalty_Charging>
0

> <r_epik_Ionization_Penalty_Neutral>
1.13199e-05

> <r_epik_State_Penalty>
-0

> <r_epik_Charging_Adjusted_Penalty>
0

> <i_epik_Tot_Q>
0

> <i_epik_Tot_abs_Q>
0

> <r_epik_Metal_State_Penalty>
-0

> <b_epik_Metal_Only>
0

> <s_epik_Chemistry_Notes>
This compound contains an acetal/aminal-like group ( X-CH(R)-Y where X, Y are N, S, or O) that may be acid/base labile, releasing an aldehyde.

> <s_lp_Force_Field>
OPLS_2005

> <r_lp_Energy>
39.1669

> <b_lp_Chiralities_Consistent>
1

> <s_lp_Variant>
AV-unprocessed.smi:114-8

> <Gold.Version>
5.8.1

> <Gold.Id.Protein>
6NUR|6NUR_protein|mol2

> <Gold.PLP.Fitness>
36.3868

> <Gold.PLP.PLP>
-21.2804

> <Gold.PLP.part.hbond>
-5.9701

> <Gold.PLP.part.metal>
0.0000

> <Gold.PLP.part.buried>
-0.0503

> <Gold.PLP.part.nonpolar>
-15.8546

> <Gold.PLP.part.repulsive>
0.3282

> <Gold.PLP.ligand.clash>
0.0343

> <Gold.PLP.ligand.torsion>
0.1736

> <Gold.PLP.Chemscore.Hbond>
4.6737

> <Gold.PLP.Chemscore.CHOScore>
0.4846

> <Gold.PLP.Chemscore.Metal>
0.0000

> <Gold.Chemscore.Hbonds>
donor molecule, donor type, donor heavy atom, donor atom, acceptor molecule, acceptor atom, score
      L1  H     1    25       P1 10175  1.00
      L1  H    20    32       P1  7949  1.00
      P1  H  7989  7998       L1    13  0.49
      P1  H  7997  8010       L1    16  0.80
      P1  H 10752 10764       L1    20  0.84
      P1  H 10752 10765       L1    18  0.03
      L1  C    10    27       P1  7957  0.50

> <Gold.PLP.Chemscore.Internal.Correction>
0.0130

> <Gold.Rescore>
     Score         DG    S(hbond)    S(metal)    S(lipo)     H(rot)  DE(clash)    DE(int)     intcor
      6.34      -9.83       3.40        0.00      28.26       4.03       1.75       1.74       ----

> <Gold.Chemscore.Fitness>
6.3401

> <Gold.Chemscore.DG>
-9.8285

> <Gold.Chemscore.ZeroCoef>
-5.4800

> <Gold.Chemscore.Hbond>
3.3989

> <Gold.Chemscore.Metal>
0.0000

> <Gold.Chemscore.Lipo>
28.2648

> <Gold.Chemscore.Internal_Hbond>
0.0000

> <Gold.Chemscore.DEClash>
1.7456

> <Gold.Chemscore.DEInternal>
1.7428

> <Gold.Chemscore.Rot>
4.0277

> <Gold.Chemscore.Internal.Correction>
   9.000000E+99

> <Gold.Chemscore.Hbonds>
donor molecule, donor type, donor heavy atom, donor atom, acceptor molecule, acceptor atom, score
      L1  H     1    25       P1 10175  0.96
      L1  H    20    32       P1  7949  0.69
      P1  H  7989  7998       L1    13  0.02
      P1  H  7997  8010       L1    16  0.12
      P1  H 10752 10764       L1    20  0.19

> <Gold.Chemscore.Hbond.Weighted>
-11.3525

> <Gold.Chemscore.Metal.Weighted>
-0.0000

> <Gold.Chemscore.Lipo.Weighted>
-3.3070

> <Gold.Chemscore.Internal_Hbond.Weighted>
0.0000

> <Gold.Chemscore.DEClash.Weighted>
1.7456

> <Gold.Chemscore.DEInternal.Weighted>
1.7428

> <Gold.Chemscore.Rot.Weighted>
10.3110

> <Gold.Chemscore.Internal.Correction.Weighted>
   9.000000E+99

> <Gold.Protein.RotatedTorsions>
[ 6907 6896 6895 6894 ] final    1.10 input  -60.11 | X-H torsion
[ 7974 7965 7964 7962 ] final  154.32 input  175.53 | X-H torsion
[ 8008 7997 7996 7995 ] final   48.91 input   59.86 | X-H torsion
[ 10167 10162 10161 10158 ] final   44.92 input  -65.29 | X-H torsion
[ 10718 10713 10712 10709 ] final   71.56 input   66.30 | X-H torsion
[ 10763 10752 10751 10750 ] final -108.01 input  -60.55 | X-H torsion
[ 11005 11000 10999 10996 ] final -134.77 input  -57.11 | X-H torsion

> <Gold.Protein.ActiveResidues>
 VAL166  LYS551  ARG553  GLY616  TRP617  ASP618  TYR619  PRO620  LYS621  CYS622 
 ASP623  PHE694  ASN695  SER759  ASP760  ASP761  ALA762  ILE779  LEU786  VAL792 
 PHE793  MET794  SER795  GLU796  ALA797  LYS798  CYS799  TRP800  GLU811  SER814 

> <Gold.Protein.RotatedAtoms>
  151.5871  135.1055  160.0030 H   0  0  0  0  0  0  0  0  0  0  0  0  # atno 6907 bound_to 6896
  152.4325  133.7298  159.6591 H   0  0  0  0  0  0  0  0  0  0  0  0  # atno 6908 bound_to 6896
  150.8219  133.8168  159.3158 H   0  0  0  0  0  0  0  0  0  0  0  0  # atno 6909 bound_to 6896
  144.8097  139.6917  143.6147 H   0  0  0  0  0  0  0  0  0  0  0  0  # atno 7974 bound_to 7965
  155.3935  140.3434  155.4252 H   0  0  0  0  0  0  0  0  0  0  0  0  # atno 8008 bound_to 7997
  156.1544  140.1581  156.8749 H   0  0  0  0  0  0  0  0  0  0  0  0  # atno 8009 bound_to 7997
  154.5081  140.0797  156.7917 H   0  0  0  0  0  0  0  0  0  0  0  0  # atno 8010 bound_to 7997
  140.3294  144.2607  150.6170 H   0  0  0  0  0  0  0  0  0  0  0  0  # atno 10167 bound_to 10162
  157.6458  130.9534  150.0806 H   0  0  0  0  0  0  0  0  0  0  0  0  # atno 10718 bound_to 10713
  154.8110  135.4653  154.0517 H   0  0  0  0  0  0  0  0  0  0  0  0  # atno 10763 bound_to 10752
  153.1947  135.6860  153.8313 H   0  0  0  0  0  0  0  0  0  0  0  0  # atno 10764 bound_to 10752
  153.7819  135.3255  155.3344 H   0  0  0  0  0  0  0  0  0  0  0  0  # atno 10765 bound_to 10752
  140.8959  134.1752  157.4495 H   0  0  0  0  0  0  0  0  0  0  0  0  # atno 11005 bound_to 11000
  146.2393  139.5969  142.9502 LP  0  0  0  0  0  0  0  0  0  0  0  0  # atno 17320 bound_to 7965
  145.5354  141.0424  143.2360 LP  0  0  0  0  0  0  0  0  0  0  0  0  # atno 17321 bound_to 7965
  140.5411  143.2223  151.8083 LP  0  0  0  0  0  0  0  0  0  0  0  0  # atno 17342 bound_to 10162
  139.4859  144.4599  151.9554 LP  0  0  0  0  0  0  0  0  0  0  0  0  # atno 17343 bound_to 10162
  156.1784  130.3649  149.9069 LP  0  0  0  0  0  0  0  0  0  0  0  0  # atno 17370 bound_to 10713
  156.7028  130.8939  151.3601 LP  0  0  0  0  0  0  0  0  0  0  0  0  # atno 17371 bound_to 10713
  139.8735  134.9878  156.5384 LP  0  0  0  0  0  0  0  0  0  0  0  0  # atno 17394 bound_to 11000
  140.8289  133.8294  155.8965 LP  0  0  0  0  0  0  0  0  0  0  0  0  # atno 17395 bound_to 11000

$$$$
