AV-unprocessed.smi:946|AV-procd|sdf|4235|dock8
  -GOLD-   22720 2143D 1   1.00000     0.00000
 Structure written by MMmdl.
 42 43  0  0  0  0  0  0  0  0  1 V2000
  151.3481  138.6566  155.0961 C   0  0  0  0  0  0  0  0  0  0  0  0
  151.4366  140.0968  155.6220 C   0  0  1  0  0  0  0  0  0  0  0  0
  150.1049  140.5707  155.8020 O   0  0  0  0  0  0  0  0  0  0  0  0
  149.4480  141.0114  154.6188 C   0  0  0  0  0  0  0  0  0  0  0  0
  147.9848  141.3261  154.9570 C   0  0  2  0  0  0  0  0  0  0  0  0
  147.3595  142.3135  153.9522 C   0  0  0  0  0  0  0  0  0  0  0  0
  145.9274  142.6697  154.3677 C   0  0  0  0  0  0  0  0  0  0  0  0
  145.9175  143.1630  155.8185 C   0  0  0  0  0  0  0  0  0  0  0  0
  146.6271  142.1517  156.7327 C   0  0  0  0  0  0  0  0  0  0  0  0
  147.9479  141.9111  156.2572 O   0  0  0  0  0  0  0  0  0  0  0  0
  152.2060  140.1578  156.9510 C   0  0  0  0  0  0  0  0  0  0  0  0
  152.9778  139.2460  157.2502 O   0  0  0  0  0  0  0  0  0  0  0  0
  151.9610  141.2365  157.7185 N   0  0  0  0  0  0  0  0  0  0  0  0
  152.4993  141.5482  158.9946 C   0  0  0  0  0  0  0  0  0  0  0  0
  152.0620  142.7719  159.5475 C   0  0  0  0  0  0  0  0  0  0  0  0
  152.5360  143.1677  160.8126 C   0  0  0  0  0  0  0  0  0  0  0  0
  153.4333  142.3280  161.4958 C   0  0  0  0  0  0  0  0  0  0  0  0
  153.8209  141.1198  160.8781 C   0  0  0  0  0  0  0  0  0  0  0  0
  154.7823  140.1506  161.5517 C   0  0  0  0  0  0  0  0  0  0  0  0
  155.8930  140.0383  160.8225 F   0  0  0  0  0  0  0  0  0  0  0  0
  155.1202  140.5610  162.7749 F   0  0  0  0  0  0  0  0  0  0  0  0
  154.2111  138.9502  161.6535 F   0  0  0  0  0  0  0  0  0  0  0  0
  153.3648  140.7457  159.6613 N   0  0  0  0  0  0  0  0  0  0  0  0
  152.3398  138.2299  154.9412 H   0  0  0  0  0  0  0  0  0  0  0  0
  150.8246  138.6262  154.1403 H   0  0  0  0  0  0  0  0  0  0  0  0
  150.8078  138.0079  155.7869 H   0  0  0  0  0  0  0  0  0  0  0  0
  151.9401  140.7061  154.8689 H   0  0  0  0  0  0  0  0  0  0  0  0
  149.9297  141.8882  154.1843 H   0  0  0  0  0  0  0  0  0  0  0  0
  149.4917  140.2132  153.8765 H   0  0  0  0  0  0  0  0  0  0  0  0
  147.4123  140.3966  154.9539 H   0  0  0  0  0  0  0  0  0  0  0  0
  147.9622  143.2216  153.9041 H   0  0  0  0  0  0  0  0  0  0  0  0
  147.3590  141.8851  152.9495 H   0  0  0  0  0  0  0  0  0  0  0  0
  145.5155  143.4301  153.7038 H   0  0  0  0  0  0  0  0  0  0  0  0
  145.2886  141.7906  154.2737 H   0  0  0  0  0  0  0  0  0  0  0  0
  146.4241  144.1269  155.8809 H   0  0  0  0  0  0  0  0  0  0  0  0
  144.8933  143.3244  156.1559 H   0  0  0  0  0  0  0  0  0  0  0  0
  146.6844  142.5415  157.7490 H   0  0  0  0  0  0  0  0  0  0  0  0
  146.0716  141.2140  156.7829 H   0  0  0  0  0  0  0  0  0  0  0  0
  151.3144  141.9138  157.3417 H   0  0  0  0  0  0  0  0  0  0  0  0
  151.3706  143.4054  159.0107 H   0  0  0  0  0  0  0  0  0  0  0  0
  152.2144  144.1004  161.2517 H   0  0  0  0  0  0  0  0  0  0  0  0
  153.8080  142.6106  162.4684 H   0  0  0  0  0  0  0  0  0  0  0  0
  1  2  1  0  0  0  0
  1 24  1  0  0  0  0
  1 25  1  0  0  0  0
  1 26  1  0  0  0  0
  2  3  1  0  0  0  0
  2 11  1  0  0  0  0
  2 27  1  0  0  0  0
  3  4  1  0  0  0  0
  4  5  1  0  0  0  0
  4 28  1  0  0  0  0
  4 29  1  0  0  0  0
  5 10  1  0  0  0  0
  5  6  1  0  0  0  0
  5 30  1  0  0  0  0
  6  7  1  0  0  0  0
  6 31  1  0  0  0  0
  6 32  1  0  0  0  0
  7  8  1  0  0  0  0
  7 33  1  0  0  0  0
  7 34  1  0  0  0  0
  8  9  1  0  0  0  0
  8 35  1  0  0  0  0
  8 36  1  0  0  0  0
  9 10  1  0  0  0  0
  9 37  1  0  0  0  0
  9 38  1  0  0  0  0
 11 12  2  0  0  0  0
 11 13  1  0  0  0  0
 13 14  1  0  0  0  0
 13 39  1  0  0  0  0
 14 23  1  0  0  0  0
 14 15  2  0  0  0  0
 15 16  1  0  0  0  0
 15 40  1  0  0  0  0
 16 17  2  0  0  0  0
 16 41  1  0  0  0  0
 17 18  1  0  0  0  0
 17 42  1  0  0  0  0
 18 19  1  0  0  0  0
 18 23  2  0  0  0  0
 19 20  1  0  0  0  0
 19 21  1  0  0  0  0
 19 22  1  0  0  0  0
M  END
> <s_m_source_file>
AV-unprocessed.smi

> <i_m_source_file_index>
946

> <i_lp_mmshare_version>
43012

> <i_f3d_flags>
0

> <s_epik_input>
TzFbQ0gyXVtDSDJdW0NIMl1bQ0gyXVtDQEhdMVtDSDJdT1tDQEBIXShbQ0gzXSlDKD1PKVtOSF1jMltjSF1bY0hdW2NIXWMobjIpQyhGKShGKUY=

> <s_epik_cmdline>
J2VwaWtfcHl0aG9uJywgJy1waCcsICc3LjAnLCAnLXRuJywgJzgnLCAnLW1hJywgJzIwMCcsICctbWV0YWxfYmluZGluZycsICctaW1hZScsICc8aW5maWxlLm1hZT4nLCAnLW9tYWUnLCAnPG91dGZpbGUubWFlPic=

> <r_lp_tautomer_probability>
1

> <r_epik_Ionization_Penalty>
1.32683e-06

> <r_epik_Ionization_Penalty_Charging>
0

> <r_epik_Ionization_Penalty_Neutral>
1.32683e-06

> <r_epik_State_Penalty>
-0

> <r_epik_Charging_Adjusted_Penalty>
0

> <i_epik_Tot_Q>
0

> <i_epik_Tot_abs_Q>
0

> <r_epik_Metal_State_Penalty>
-0

> <b_epik_Metal_Only>
0

> <s_lp_Force_Field>
OPLS_2005

> <r_lp_Energy>
15.913

> <b_lp_Chiralities_Consistent>
1

> <s_lp_Variant>
AV-unprocessed.smi:946-2

> <Gold.Version>
5.8.1

> <Gold.Id.Protein>
6NUR|6NUR_protein|mol2

> <Gold.PLP.Fitness>
46.6965

> <Gold.PLP.PLP>
-45.8120

> <Gold.PLP.part.hbond>
-1.0000

> <Gold.PLP.part.metal>
0.0000

> <Gold.PLP.part.buried>
-2.8974

> <Gold.PLP.part.nonpolar>
-41.1283

> <Gold.PLP.part.repulsive>
0.2686

> <Gold.PLP.ligand.clash>
0.0000

> <Gold.PLP.ligand.torsion>
1.0917

> <Gold.PLP.Chemscore.Hbond>
1.0000

> <Gold.PLP.Chemscore.CHOScore>
0.0000

> <Gold.PLP.Chemscore.Metal>
0.0000

> <Gold.Chemscore.Hbonds>
donor molecule, donor type, donor heavy atom, donor atom, acceptor molecule, acceptor atom, score
      P1  H  7997  8010       L1    12  0.75

> <Gold.PLP.Chemscore.Internal.Correction>
0.0679

> <Gold.Rescore>
     Score         DG    S(hbond)    S(metal)    S(lipo)     H(rot)  DE(clash)    DE(int)     intcor
     11.69     -14.51       0.74        0.00      94.38       1.76       0.28       2.54       ----

> <Gold.Chemscore.Fitness>
11.6852

> <Gold.Chemscore.DG>
-14.5087

> <Gold.Chemscore.ZeroCoef>
-5.4800

> <Gold.Chemscore.Hbond>
0.7428

> <Gold.Chemscore.Metal>
0.0000

> <Gold.Chemscore.Lipo>
94.3793

> <Gold.Chemscore.Internal_Hbond>
0.0000

> <Gold.Chemscore.DEClash>
0.2843

> <Gold.Chemscore.DEInternal>
2.5391

> <Gold.Chemscore.Rot>
1.7557

> <Gold.Chemscore.Internal.Correction>
   9.000000E+99

> <Gold.Chemscore.Hbonds>
donor molecule, donor type, donor heavy atom, donor atom, acceptor molecule, acceptor atom, score
      P1  H  7997  8010       L1    12  0.09

> <Gold.Chemscore.Hbond.Weighted>
-2.4809

> <Gold.Chemscore.Metal.Weighted>
-0.0000

> <Gold.Chemscore.Lipo.Weighted>
-11.0424

> <Gold.Chemscore.Internal_Hbond.Weighted>
0.0000

> <Gold.Chemscore.DEClash.Weighted>
0.2843

> <Gold.Chemscore.DEInternal.Weighted>
2.5391

> <Gold.Chemscore.Rot.Weighted>
4.4946

> <Gold.Chemscore.Internal.Correction.Weighted>
   9.000000E+99

> <Gold.Protein.RotatedTorsions>
[ 6907 6896 6895 6894 ] final  118.83 input  -60.11 | X-H torsion
[ 7974 7965 7964 7962 ] final  -49.95 input  175.53 | X-H torsion
[ 8008 7997 7996 7995 ] final   55.62 input   59.86 | X-H torsion
[ 10167 10162 10161 10158 ] final   60.62 input  -65.29 | X-H torsion
[ 10718 10713 10712 10709 ] final  -62.90 input   66.30 | X-H torsion
[ 10763 10752 10751 10750 ] final  140.75 input  -60.55 | X-H torsion
[ 11005 11000 10999 10996 ] final -148.99 input  -57.11 | X-H torsion

> <Gold.Protein.ActiveResidues>
 VAL166  LYS551  ARG553  GLY616  TRP617  ASP618  TYR619  PRO620  LYS621  CYS622 
 ASP623  PHE694  ASN695  SER759  ASP760  ASP761  ALA762  ILE779  LEU786  VAL792 
 PHE793  MET794  SER795  GLU796  ALA797  LYS798  CYS799  TRP800  GLU811  SER814 

> <Gold.Protein.RotatedAtoms>
  152.4515  133.7639  159.6761 H   0  0  0  0  0  0  0  0  0  0  0  0  # atno 6907 bound_to 6896
  150.8429  133.7897  159.3060 H   0  0  0  0  0  0  0  0  0  0  0  0  # atno 6908 bound_to 6896
  151.5517  135.1070  160.0003 H   0  0  0  0  0  0  0  0  0  0  0  0  # atno 6909 bound_to 6896
  145.9350  140.7714  142.9580 H   0  0  0  0  0  0  0  0  0  0  0  0  # atno 7974 bound_to 7965
  155.5041  140.3475  155.4376 H   0  0  0  0  0  0  0  0  0  0  0  0  # atno 8008 bound_to 7997
  156.0894  140.1406  156.9639 H   0  0  0  0  0  0  0  0  0  0  0  0  # atno 8009 bound_to 7997
  154.4626  140.0929  156.6910 H   0  0  0  0  0  0  0  0  0  0  0  0  # atno 8010 bound_to 7997
  140.1637  144.4345  150.6696 H   0  0  0  0  0  0  0  0  0  0  0  0  # atno 10167 bound_to 10162
  156.0825  130.4214  150.1201 H   0  0  0  0  0  0  0  0  0  0  0  0  # atno 10718 bound_to 10713
  153.9279  135.2993  155.3446 H   0  0  0  0  0  0  0  0  0  0  0  0  # atno 10763 bound_to 10752
  154.7542  135.4966  153.9347 H   0  0  0  0  0  0  0  0  0  0  0  0  # atno 10764 bound_to 10752
  153.1107  135.6758  153.9610 H   0  0  0  0  0  0  0  0  0  0  0  0  # atno 10765 bound_to 10752
  140.7554  134.3359  157.5115 H   0  0  0  0  0  0  0  0  0  0  0  0  # atno 11005 bound_to 11000
  144.6770  140.2189  143.7368 LP  0  0  0  0  0  0  0  0  0  0  0  0  # atno 17320 bound_to 7965
  145.8375  139.2114  143.1847 LP  0  0  0  0  0  0  0  0  0  0  0  0  # atno 17321 bound_to 7965
  140.6627  143.2257  151.5818 LP  0  0  0  0  0  0  0  0  0  0  0  0  # atno 17342 bound_to 10162
  139.5369  144.2755  152.1271 LP  0  0  0  0  0  0  0  0  0  0  0  0  # atno 17343 bound_to 10162
  156.9229  130.9689  151.3545 LP  0  0  0  0  0  0  0  0  0  0  0  0  # atno 17370 bound_to 10713
  157.5947  130.8469  149.8712 LP  0  0  0  0  0  0  0  0  0  0  0  0  # atno 17371 bound_to 10713
  139.8780  134.9168  156.3164 LP  0  0  0  0  0  0  0  0  0  0  0  0  # atno 17394 bound_to 11000
  140.9712  133.7326  156.0537 LP  0  0  0  0  0  0  0  0  0  0  0  0  # atno 17395 bound_to 11000

$$$$
