AV-unprocessed.smi:33|AV-procd|sdf|210|dock1
  -GOLD-   2262015503D 1   1.00000     0.00000
 Structure written by MMmdl.
 67 72  0  0  0  0  0  0  0  0  1 V2000
  147.7763  132.4580  153.2799 O   0  0  0  0  0  0  0  0  0  0  0  0
  146.6867  133.0316  153.2254 C   0  0  0  0  0  0  0  0  0  0  0  0
  146.1058  133.6306  154.2820 O   0  0  0  0  0  0  0  0  0  0  0  0
  146.7245  133.5829  155.5567 C   0  0  0  0  0  0  0  0  0  0  0  0
  147.8559  134.6162  155.5940 C   0  0  1  0  0  0  0  0  0  0  0  0
  148.2261  134.9167  156.9393 O   0  0  0  0  0  0  0  0  0  0  0  0
  149.5760  135.2787  156.9980 C   0  0  2  0  0  0  0  0  0  0  0  0
  149.6673  136.6934  157.4787 N   0  0  0  0  0  0  0  0  0  0  0  0
  148.8144  137.3236  158.3580 C   0  0  0  0  0  0  0  0  0  0  0  0
  149.1019  138.5681  158.6273 N   0  0  0  0  0  0  0  0  0  0  0  0
  150.2329  138.8219  157.8639 C   0  0  0  0  0  0  0  0  0  0  0  0
  151.0633  139.9602  157.6801 C   0  0  0  0  0  0  0  0  0  0  0  0
  150.8468  141.1367  158.3135 N   0  0  0  0  0  0  0  0  0  0  0  0
  151.8603  141.5673  159.2865 C   0  0  0  0  0  0  0  0  0  0  0  0
  152.5605  140.7239  159.8498 O   0  0  0  0  0  0  0  0  0  0  0  0
  152.0148  143.0221  159.6286 C   0  0  0  0  0  0  0  0  0  0  0  0
  151.9965  143.9958  158.6061 C   0  0  0  0  0  0  0  0  0  0  0  0
  152.1246  145.3618  158.9246 C   0  0  0  0  0  0  0  0  0  0  0  0
  152.2521  145.7640  160.2678 C   0  0  0  0  0  0  0  0  0  0  0  0
  152.2432  144.8004  161.2940 C   0  0  0  0  0  0  0  0  0  0  0  0
  152.1167  143.4343  160.9766 C   0  0  0  0  0  0  0  0  0  0  0  0
  149.6236  141.8761  157.9674 C   0  0  0  0  0  0  0  0  0  0  0  0
  149.1442  142.6704  158.7789 O   0  0  0  0  0  0  0  0  0  0  0  0
  148.9255  141.6277  156.6600 C   0  0  0  0  0  0  0  0  0  0  0  0
  147.5145  141.6401  156.5994 C   0  0  0  0  0  0  0  0  0  0  0  0
  146.8544  141.4222  155.3747 C   0  0  0  0  0  0  0  0  0  0  0  0
  147.6001  141.2087  154.1998 C   0  0  0  0  0  0  0  0  0  0  0  0
  149.0070  141.2231  154.2479 C   0  0  0  0  0  0  0  0  0  0  0  0
  149.6680  141.4407  155.4721 C   0  0  0  0  0  0  0  0  0  0  0  0
  152.1187  139.8505  156.8329 N   0  0  0  0  0  0  0  0  0  0  0  0
  152.3458  138.6937  156.2046 C   0  0  0  0  0  0  0  0  0  0  0  0
  151.6591  137.5519  156.2847 N   0  0  0  0  0  0  0  0  0  0  0  0
  150.5966  137.6563  157.1343 C   0  0  0  0  0  0  0  0  0  0  0  0
  150.1553  135.1253  155.5845 C   0  0  1  0  0  0  0  0  0  0  0  0
  151.4651  134.5946  155.5605 O   0  0  0  0  0  0  0  0  0  0  0  0
  149.1673  134.1487  154.9670 C   0  0  1  0  0  0  0  0  0  0  0  0
  149.4177  132.8984  155.3678 F   0  0  0  0  0  0  0  0  0  0  0  0
  145.8714  133.1354  151.9807 C   0  0  0  0  0  0  0  0  0  0  0  0
  145.8378  132.0444  151.0811 C   0  0  0  0  0  0  0  0  0  0  0  0
  145.0751  132.1130  149.8989 C   0  0  0  0  0  0  0  0  0  0  0  0
  144.3365  133.2732  149.6024 C   0  0  0  0  0  0  0  0  0  0  0  0
  144.3616  134.3655  150.4891 C   0  0  0  0  0  0  0  0  0  0  0  0
  145.1238  134.2991  151.6717 C   0  0  0  0  0  0  0  0  0  0  0  0
  145.9962  133.7776  156.3453 H   0  0  0  0  0  0  0  0  0  0  0  0
  147.1297  132.5829  155.7180 H   0  0  0  0  0  0  0  0  0  0  0  0
  147.5327  135.5253  155.0879 H   0  0  0  0  0  0  0  0  0  0  0  0
  150.0858  134.6787  157.7532 H   0  0  0  0  0  0  0  0  0  0  0  0
  147.9664  136.8246  158.8040 H   0  0  0  0  0  0  0  0  0  0  0  0
  151.8988  143.6987  157.5718 H   0  0  0  0  0  0  0  0  0  0  0  0
  152.1234  146.1013  158.1376 H   0  0  0  0  0  0  0  0  0  0  0  0
  152.3496  146.8115  160.5113 H   0  0  0  0  0  0  0  0  0  0  0  0
  152.3315  145.1084  162.3254 H   0  0  0  0  0  0  0  0  0  0  0  0
  152.1048  142.7038  161.7727 H   0  0  0  0  0  0  0  0  0  0  0  0
  146.9315  141.8025  157.4944 H   0  0  0  0  0  0  0  0  0  0  0  0
  145.7750  141.4196  155.3366 H   0  0  0  0  0  0  0  0  0  0  0  0
  147.0930  141.0407  153.2611 H   0  0  0  0  0  0  0  0  0  0  0  0
  149.5799  141.0686  153.3455 H   0  0  0  0  0  0  0  0  0  0  0  0
  150.7482  141.4547  155.4956 H   0  0  0  0  0  0  0  0  0  0  0  0
  153.2015  138.6796  155.5459 H   0  0  0  0  0  0  0  0  0  0  0  0
  150.1226  136.0775  155.0538 H   0  0  0  0  0  0  0  0  0  0  0  0
  151.4311  133.6994  155.8619 H   0  0  0  0  0  0  0  0  0  0  0  0
  149.1611  134.1621  153.8767 H   0  0  0  0  0  0  0  0  0  0  0  0
  146.3966  131.1429  151.2877 H   0  0  0  0  0  0  0  0  0  0  0  0
  145.0570  131.2734  149.2197 H   0  0  0  0  0  0  0  0  0  0  0  0
  143.7511  133.3256  148.6961 H   0  0  0  0  0  0  0  0  0  0  0  0
  143.7945  135.2565  150.2628 H   0  0  0  0  0  0  0  0  0  0  0  0
  145.1197  135.1550  152.3308 H   0  0  0  0  0  0  0  0  0  0  0  0
  1  2  2  0  0  0  0
  2  3  1  0  0  0  0
  2 38  1  0  0  0  0
  3  4  1  0  0  0  0
  4  5  1  0  0  0  0
  4 44  1  0  0  0  0
  4 45  1  0  0  0  0
  5 36  1  0  0  0  0
  5  6  1  0  0  0  0
  5 46  1  0  0  0  0
  6  7  1  0  0  0  0
  7  8  1  0  0  0  0
  7 34  1  0  0  0  0
  7 47  1  0  0  0  0
  8 33  1  0  0  0  0
  8  9  1  0  0  0  0
  9 10  2  0  0  0  0
  9 48  1  0  0  0  0
 10 11  1  0  0  0  0
 11 33  2  0  0  0  0
 11 12  1  0  0  0  0
 12 13  1  0  0  0  0
 12 30  2  0  0  0  0
 13 14  1  0  0  0  0
 13 22  1  0  0  0  0
 14 15  2  0  0  0  0
 14 16  1  0  0  0  0
 16 21  1  0  0  0  0
 16 17  2  0  0  0  0
 17 18  1  0  0  0  0
 17 49  1  0  0  0  0
 18 19  2  0  0  0  0
 18 50  1  0  0  0  0
 19 20  1  0  0  0  0
 19 51  1  0  0  0  0
 20 21  2  0  0  0  0
 20 52  1  0  0  0  0
 21 53  1  0  0  0  0
 22 23  2  0  0  0  0
 22 24  1  0  0  0  0
 24 29  1  0  0  0  0
 24 25  2  0  0  0  0
 25 26  1  0  0  0  0
 25 54  1  0  0  0  0
 26 27  2  0  0  0  0
 26 55  1  0  0  0  0
 27 28  1  0  0  0  0
 27 56  1  0  0  0  0
 28 29  2  0  0  0  0
 28 57  1  0  0  0  0
 29 58  1  0  0  0  0
 30 31  1  0  0  0  0
 31 32  2  0  0  0  0
 31 59  1  0  0  0  0
 32 33  1  0  0  0  0
 34 35  1  0  0  0  0
 34 36  1  0  0  0  0
 34 60  1  0  0  0  0
 35 61  1  0  0  0  0
 36 37  1  0  0  0  0
 36 62  1  0  0  0  0
 38 43  1  0  0  0  0
 38 39  2  0  0  0  0
 39 40  1  0  0  0  0
 39 63  1  0  0  0  0
 40 41  2  0  0  0  0
 40 64  1  0  0  0  0
 41 42  1  0  0  0  0
 41 65  1  0  0  0  0
 42 43  2  0  0  0  0
 42 66  1  0  0  0  0
 43 67  1  0  0  0  0
M  END
> <s_m_source_file>
AV-unprocessed.smi

> <i_m_source_file_index>
33

> <i_lp_mmshare_version>
43012

> <i_f3d_flags>
0

> <s_epik_input>
W2NIXTFbY0hdW2NIXVtjSF1bY0hdYzFDKD1PKU9bQ0gyXVtDQEBIXTJPW0NASF0oW0NAQEhdKFtPSF0pW0NAQEhdMkYpbihbY0hdbjMpYyhjMzQpbltjSF1uYzROKEMoPU8pYzVbY0hdW2NIXVtjSF1bY0hdW2NIXTUpQyg9TyljNltjSF1bY0hdW2NIXVtjSF1bY0hdNg==

> <s_epik_cmdline>
J2VwaWtfcHl0aG9uJywgJy1waCcsICc3LjAnLCAnLXRuJywgJzgnLCAnLW1hJywgJzIwMCcsICctbWV0YWxfYmluZGluZycsICctaW1hZScsICc8aW5maWxlLm1hZT4nLCAnLW9tYWUnLCAnPG91dGZpbGUubWFlPic=

> <r_lp_tautomer_probability>
1

> <r_epik_Ionization_Penalty>
0.00067664

> <r_epik_Ionization_Penalty_Charging>
0

> <r_epik_Ionization_Penalty_Neutral>
0.00067664

> <r_epik_State_Penalty>
0.000428095

> <r_epik_Charging_Adjusted_Penalty>
0.000428095

> <i_epik_Tot_Q>
0

> <i_epik_Tot_abs_Q>
0

> <r_epik_Metal_State_Penalty>
-0

> <b_epik_Metal_Only>
0

> <s_epik_Chemistry_Notes>
This compound has an ester and may undergo hydrolysis at high or low pH. This compound contains an acetal/aminal-like group ( X-CH(R)-Y where X, Y are N, S, or O) that may be acid/base labile, releasing an aldehyde.

> <s_lp_Force_Field>
OPLS_2005

> <r_lp_Energy>
69.9903

> <b_lp_Chiralities_Consistent>
1

> <s_lp_Variant>
AV-unprocessed.smi:33-12

> <Gold.Version>
5.8.1

> <Gold.Id.Protein>
6NUR|6NUR_protein|mol2

> <Gold.PLP.Fitness>
61.8364

> <Gold.PLP.PLP>
-63.7749

> <Gold.PLP.part.hbond>
-2.1050

> <Gold.PLP.part.metal>
0.0000

> <Gold.PLP.part.buried>
-5.4684

> <Gold.PLP.part.nonpolar>
-56.0575

> <Gold.PLP.part.repulsive>
0.3255

> <Gold.PLP.ligand.clash>
0.0000

> <Gold.PLP.ligand.torsion>
4.6024

> <Gold.PLP.Chemscore.Hbond>
0.7045

> <Gold.PLP.Chemscore.CHOScore>
0.0000

> <Gold.PLP.Chemscore.Metal>
0.0000

> <Gold.Chemscore.Hbonds>
donor molecule, donor type, donor heavy atom, donor atom, acceptor molecule, acceptor atom, score
      P1  H  7997  8009       L1    30  0.07
      P1  H 10752 10763       L1    35  0.66

> <Gold.PLP.Chemscore.Internal.Correction>
5.1530

> <Gold.Rescore>
     Score         DG    S(hbond)    S(metal)    S(lipo)     H(rot)  DE(clash)    DE(int)     intcor
      9.02     -20.42       0.64        0.00     164.70       2.52       2.08       9.31       ----

> <Gold.Chemscore.Fitness>
9.0238

> <Gold.Chemscore.DG>
-20.4178

> <Gold.Chemscore.ZeroCoef>
-5.4800

> <Gold.Chemscore.Hbond>
0.6379

> <Gold.Chemscore.Metal>
0.0000

> <Gold.Chemscore.Lipo>
164.7049

> <Gold.Chemscore.Internal_Hbond>
0.0000

> <Gold.Chemscore.DEClash>
2.0819

> <Gold.Chemscore.DEInternal>
9.3121

> <Gold.Chemscore.Rot>
2.5247

> <Gold.Chemscore.Internal.Correction>
   9.000000E+99

> <Gold.Chemscore.Hbonds>
donor molecule, donor type, donor heavy atom, donor atom, acceptor molecule, acceptor atom, score
      P1  H 10752 10763       L1    35  0.65

> <Gold.Chemscore.Hbond.Weighted>
-2.1306

> <Gold.Chemscore.Metal.Weighted>
-0.0000

> <Gold.Chemscore.Lipo.Weighted>
-19.2705

> <Gold.Chemscore.Internal_Hbond.Weighted>
0.0000

> <Gold.Chemscore.DEClash.Weighted>
2.0819

> <Gold.Chemscore.DEInternal.Weighted>
9.3121

> <Gold.Chemscore.Rot.Weighted>
6.4633

> <Gold.Chemscore.Internal.Correction.Weighted>
   9.000000E+99

> <Gold.Protein.RotatedTorsions>
[ 6907 6896 6895 6894 ] final  164.31 input  -60.11 | X-H torsion
[ 7974 7965 7964 7962 ] final -102.30 input  175.53 | X-H torsion
[ 8008 7997 7996 7995 ] final  169.86 input   59.86 | X-H torsion
[ 10167 10162 10161 10158 ] final  107.16 input  -65.29 | X-H torsion
[ 10718 10713 10712 10709 ] final  148.00 input   66.30 | X-H torsion
[ 10763 10752 10751 10750 ] final   74.66 input  -60.55 | X-H torsion
[ 11005 11000 10999 10996 ] final   66.14 input  -57.11 | X-H torsion

> <Gold.Protein.ActiveResidues>
 VAL166  LYS551  ARG553  GLY616  TRP617  ASP618  TYR619  PRO620  LYS621  CYS622 
 ASP623  PHE694  ASN695  SER759  ASP760  ASP761  ALA762  ILE779  LEU786  VAL792 
 PHE793  MET794  SER795  GLU796  ALA797  LYS798  CYS799  TRP800  GLU811  SER814 

> <Gold.Protein.RotatedAtoms>
  151.9118  133.3563  159.3866 H   0  0  0  0  0  0  0  0  0  0  0  0  # atno 6907 bound_to 6896
  150.7056  134.4724  159.5441 H   0  0  0  0  0  0  0  0  0  0  0  0  # atno 6908 bound_to 6896
  152.2331  134.8302  160.0521 H   0  0  0  0  0  0  0  0  0  0  0  0  # atno 6909 bound_to 6896
  145.2706  140.9297  143.2989 H   0  0  0  0  0  0  0  0  0  0  0  0  # atno 7974 bound_to 7965
  156.1418  140.1553  156.8908 H   0  0  0  0  0  0  0  0  0  0  0  0  # atno 8008 bound_to 7997
  154.4994  140.0829  156.7805 H   0  0  0  0  0  0  0  0  0  0  0  0  # atno 8009 bound_to 7997
  155.4063  140.3417  155.4262 H   0  0  0  0  0  0  0  0  0  0  0  0  # atno 8010 bound_to 7997
  139.6950  144.7103  151.1283 H   0  0  0  0  0  0  0  0  0  0  0  0  # atno 10167 bound_to 10162
  157.3140  131.0893  151.1293 H   0  0  0  0  0  0  0  0  0  0  0  0  # atno 10718 bound_to 10713
  153.0601  135.5017  154.8075 H   0  0  0  0  0  0  0  0  0  0  0  0  # atno 10763 bound_to 10752
  154.6870  135.2978  154.9536 H   0  0  0  0  0  0  0  0  0  0  0  0  # atno 10764 bound_to 10752
  154.0303  135.6730  153.4833 H   0  0  0  0  0  0  0  0  0  0  0  0  # atno 10765 bound_to 10752
  139.9850  134.6682  156.0192 H   0  0  0  0  0  0  0  0  0  0  0  0  # atno 11005 bound_to 11000
  144.9339  139.4267  143.6482 LP  0  0  0  0  0  0  0  0  0  0  0  0  # atno 17320 bound_to 7965
  146.3248  139.8264  142.8917 LP  0  0  0  0  0  0  0  0  0  0  0  0  # atno 17321 bound_to 7965
  140.7693  143.5505  150.9210 LP  0  0  0  0  0  0  0  0  0  0  0  0  # atno 17342 bound_to 10162
  139.9184  143.6635  152.3101 LP  0  0  0  0  0  0  0  0  0  0  0  0  # atno 17343 bound_to 10162
  157.2604  130.6656  149.5972 LP  0  0  0  0  0  0  0  0  0  0  0  0  # atno 17370 bound_to 10713
  155.9680  130.4510  150.5720 LP  0  0  0  0  0  0  0  0  0  0  0  0  # atno 17371 bound_to 10713
  141.1517  133.6547  156.4033 LP  0  0  0  0  0  0  0  0  0  0  0  0  # atno 17394 bound_to 11000
  140.5020  134.6477  157.5252 LP  0  0  0  0  0  0  0  0  0  0  0  0  # atno 17395 bound_to 11000

$$$$
