AV-unprocessed.smi:2377|AV-procd|sdf|9446|dock5
  -GOLD-   2272013 73D 1   1.00000     0.00000
 Structure written by MMmdl.
 24 24  0  0  0  0  0  0  0  0  2 V2000
  146.9955  138.7971  152.9478 C   0  0  0  0  0  0  0  0  0  0  0  0
  148.4545  138.6004  153.0293 N   0  3  0  0  0  0  0  0  0  0  0  0
  149.0213  138.8667  154.3666 C   0  0  0  0  0  0  0  0  0  0  0  0
  149.9617  140.0848  154.3499 C   0  0  1  0  0  0  0  0  0  0  0  0
  149.2886  141.1720  153.7444 O   0  0  0  0  0  0  0  0  0  0  0  0
  150.4407  140.4267  155.7515 C   0  0  0  0  0  0  0  0  0  0  0  0
  151.1585  139.4950  156.5334 C   0  0  0  0  0  0  0  0  0  0  0  0
  151.5843  139.8718  157.8216 C   0  0  0  0  0  0  0  0  0  0  0  0
  151.2774  141.1694  158.2768 C   0  0  0  0  0  0  0  0  0  0  0  0
  150.5961  142.0712  157.5381 N   0  0  0  0  0  0  0  0  0  0  0  0
  150.1902  141.7017  156.3047 C   0  0  0  0  0  0  0  0  0  0  0  0
  146.6468  138.5863  151.9368 H   0  0  0  0  0  0  0  0  0  0  0  0
  146.7291  139.8257  153.1932 H   0  0  0  0  0  0  0  0  0  0  0  0
  146.4753  138.1291  153.6351 H   0  0  0  0  0  0  0  0  0  0  0  0
  148.6680  137.6471  152.7727 H   0  0  0  0  0  0  0  0  0  0  0  0
  148.2127  139.0193  155.0832 H   0  0  0  0  0  0  0  0  0  0  0  0
  149.5716  137.9816  154.6899 H   0  0  0  0  0  0  0  0  0  0  0  0
  150.8332  139.8583  153.7338 H   0  0  0  0  0  0  0  0  0  0  0  0
  148.3851  141.1603  154.0235 H   0  0  0  0  0  0  0  0  0  0  0  0
  151.3823  138.5085  156.1548 H   0  0  0  0  0  0  0  0  0  0  0  0
  152.1334  139.1828  158.4464 H   0  0  0  0  0  0  0  0  0  0  0  0
  151.5890  141.4920  159.2593 H   0  0  0  0  0  0  0  0  0  0  0  0
  149.6507  142.4493  155.7421 H   0  0  0  0  0  0  0  0  0  0  0  0
  148.9019  139.2202  152.3684 H   0  0  0  0  0  0  0  0  0  0  0  0
  1  2  1  0  0  0  0
  1 12  1  0  0  0  0
  1 13  1  0  0  0  0
  1 14  1  0  0  0  0
  2  3  1  0  0  0  0
  2 15  1  0  0  0  0
  2 24  1  0  0  0  0
  3  4  1  0  0  0  0
  3 16  1  0  0  0  0
  3 17  1  0  0  0  0
  4  5  1  0  0  0  0
  4  6  1  0  0  0  0
  4 18  1  0  0  0  0
  5 19  1  0  0  0  0
  6 11  1  0  0  0  0
  6  7  2  0  0  0  0
  7  8  1  0  0  0  0
  7 20  1  0  0  0  0
  8  9  2  0  0  0  0
  8 21  1  0  0  0  0
  9 10  1  0  0  0  0
  9 22  1  0  0  0  0
 10 11  2  0  0  0  0
 11 23  1  0  0  0  0
M  CHG  1   2   1
M  END
> <s_m_source_file>
AV-unprocessed.smi

> <i_m_source_file_index>
2377

> <i_lp_mmshare_version>
43012

> <i_f3d_flags>
0

> <s_epik_input>
W0NIM11bTkhdW0NIMl1bQ0BIXShbT0hdKWMxW2NIXVtjSF1bY0hdbltjSF0x

> <s_epik_cmdline>
J2VwaWtfcHl0aG9uJywgJy1waCcsICc3LjAnLCAnLXRuJywgJzgnLCAnLW1hJywgJzIwMCcsICctbWV0YWxfYmluZGluZycsICctaW1hZScsICc8aW5maWxlLm1hZT4nLCAnLW9tYWUnLCAnPG91dGZpbGUubWFlPic=

> <r_epik_Ionization_Penalty>
0.00990913

> <r_epik_Ionization_Penalty_Charging>
0.00939893

> <r_epik_Ionization_Penalty_Neutral>
0.000510194

> <r_epik_State_Penalty>
0.00713549

> <r_epik_Charging_Adjusted_Penalty>
0.0165344

> <i_epik_Tot_Q>
1

> <i_epik_Tot_abs_Q>
1

> <r_epik_Metal_State_Penalty>
0.00716299

> <b_epik_Metal_Only>
0

> <s_lp_Force_Field>
OPLS_2005

> <r_lp_Energy>
6.48909

> <b_lp_Chiralities_Consistent>
1

> <s_lp_Variant>
AV-unprocessed.smi:2377-2

> <Gold.Version>
5.8.1

> <Gold.Id.Protein>
6NUR|6NUR_protein|mol2

> <Gold.PLP.Fitness>
36.3605

> <Gold.PLP.PLP>
-22.1652

> <Gold.PLP.part.hbond>
-5.0000

> <Gold.PLP.part.metal>
0.0000

> <Gold.PLP.part.buried>
-1.2185

> <Gold.PLP.part.nonpolar>
-16.0365

> <Gold.PLP.part.repulsive>
0.1430

> <Gold.PLP.ligand.clash>
0.0000

> <Gold.PLP.ligand.torsion>
0.3941

> <Gold.PLP.Chemscore.Hbond>
3.9920

> <Gold.PLP.Chemscore.CHOScore>
1.0000

> <Gold.PLP.Chemscore.Metal>
0.0000

> <Gold.Chemscore.Hbonds>
donor molecule, donor type, donor heavy atom, donor atom, acceptor molecule, acceptor atom, score
      L1  H     2    15       P1  7948  2.00
      L1  H     2    24       P1  7957  1.00
      P1  H  8011  8017       L1     5  0.93
      L1  C    11    23       P1  8028  1.00

> <Gold.PLP.Chemscore.Internal.Correction>
0.0075

> <Gold.Rescore>
     Score         DG    S(hbond)    S(metal)    S(lipo)     H(rot)  DE(clash)    DE(int)     intcor
     15.10     -15.59       2.89        0.00      48.52       2.03       0.09       0.40       ----

> <Gold.Chemscore.Fitness>
15.0966

> <Gold.Chemscore.DG>
-15.5860

> <Gold.Chemscore.ZeroCoef>
-5.4800

> <Gold.Chemscore.Hbond>
2.8853

> <Gold.Chemscore.Metal>
0.0000

> <Gold.Chemscore.Lipo>
48.5229

> <Gold.Chemscore.Internal_Hbond>
0.0000

> <Gold.Chemscore.DEClash>
0.0916

> <Gold.Chemscore.DEInternal>
0.3979

> <Gold.Chemscore.Rot>
2.0344

> <Gold.Chemscore.Internal.Correction>
   9.000000E+99

> <Gold.Chemscore.Hbonds>
donor molecule, donor type, donor heavy atom, donor atom, acceptor molecule, acceptor atom, score
      L1  H     2    15       P1  7948  1.00
      L1  H     2    24       P1  7957  0.99
      P1  H  8011  8017       L1     5  0.85

> <Gold.Chemscore.Hbond.Weighted>
-9.6368

> <Gold.Chemscore.Metal.Weighted>
-0.0000

> <Gold.Chemscore.Lipo.Weighted>
-5.6772

> <Gold.Chemscore.Internal_Hbond.Weighted>
0.0000

> <Gold.Chemscore.DEClash.Weighted>
0.0916

> <Gold.Chemscore.DEInternal.Weighted>
0.3979

> <Gold.Chemscore.Rot.Weighted>
5.2080

> <Gold.Chemscore.Internal.Correction.Weighted>
   9.000000E+99

> <Gold.Protein.RotatedTorsions>
[ 6907 6896 6895 6894 ] final -114.97 input  -60.11 | X-H torsion
[ 7974 7965 7964 7962 ] final -105.57 input  175.53 | X-H torsion
[ 8008 7997 7996 7995 ] final   78.32 input   59.86 | X-H torsion
[ 10167 10162 10161 10158 ] final  178.40 input  -65.29 | X-H torsion
[ 10718 10713 10712 10709 ] final   71.98 input   66.30 | X-H torsion
[ 10763 10752 10751 10750 ] final   34.71 input  -60.55 | X-H torsion
[ 11005 11000 10999 10996 ] final -157.13 input  -57.11 | X-H torsion

> <Gold.Protein.ActiveResidues>
 VAL166  LYS551  ARG553  GLY616  TRP617  ASP618  TYR619  PRO620  LYS621  CYS622 
 ASP623  PHE694  ASN695  SER759  ASP760  ASP761  ALA762  ILE779  LEU786  VAL792 
 PHE793  MET794  SER795  GLU796  ALA797  LYS798  CYS799  TRP800  GLU811  SER814 

> <Gold.Protein.RotatedAtoms>
  150.7942  133.8725  159.3262 H   0  0  0  0  0  0  0  0  0  0  0  0  # atno 6907 bound_to 6896
  151.6555  135.0994  160.0178 H   0  0  0  0  0  0  0  0  0  0  0  0  # atno 6908 bound_to 6896
  152.4021  133.6794  159.6360 H   0  0  0  0  0  0  0  0  0  0  0  0  # atno 6909 bound_to 6896
  145.2288  140.9162  143.3217 H   0  0  0  0  0  0  0  0  0  0  0  0  # atno 7974 bound_to 7965
  155.8541  140.3457  155.5713 H   0  0  0  0  0  0  0  0  0  0  0  0  # atno 8008 bound_to 7997
  155.8005  140.0884  157.1979 H   0  0  0  0  0  0  0  0  0  0  0  0  # atno 8009 bound_to 7997
  154.4009  140.1466  156.3256 H   0  0  0  0  0  0  0  0  0  0  0  0  # atno 8010 bound_to 7997
  139.5292  144.2685  152.0648 H   0  0  0  0  0  0  0  0  0  0  0  0  # atno 10167 bound_to 10162
  157.6479  130.9556  150.0865 H   0  0  0  0  0  0  0  0  0  0  0  0  # atno 10718 bound_to 10713
  153.0152  135.6353  154.1712 H   0  0  0  0  0  0  0  0  0  0  0  0  # atno 10763 bound_to 10752
  154.1451  135.2832  155.3152 H   0  0  0  0  0  0  0  0  0  0  0  0  # atno 10764 bound_to 10752
  154.6095  135.5561  153.7519 H   0  0  0  0  0  0  0  0  0  0  0  0  # atno 10765 bound_to 10752
  140.6680  134.4278  157.5232 H   0  0  0  0  0  0  0  0  0  0  0  0  # atno 11005 bound_to 11000
  144.9696  139.3894  143.6315 LP  0  0  0  0  0  0  0  0  0  0  0  0  # atno 17320 bound_to 7965
  146.3358  139.8788  142.8828 LP  0  0  0  0  0  0  0  0  0  0  0  0  # atno 17321 bound_to 7965
  140.2145  144.4529  150.6370 LP  0  0  0  0  0  0  0  0  0  0  0  0  # atno 17342 bound_to 10162
  140.6458  143.2213  151.6188 LP  0  0  0  0  0  0  0  0  0  0  0  0  # atno 17343 bound_to 10162
  156.1827  130.3651  149.9014 LP  0  0  0  0  0  0  0  0  0  0  0  0  # atno 17370 bound_to 10713
  156.6963  130.8915  151.3594 LP  0  0  0  0  0  0  0  0  0  0  0  0  # atno 17371 bound_to 10713
  139.8991  134.8599  156.1974 LP  0  0  0  0  0  0  0  0  0  0  0  0  # atno 17394 bound_to 11000
  141.0414  133.6935  156.1605 LP  0  0  0  0  0  0  0  0  0  0  0  0  # atno 17395 bound_to 11000

$$$$
