AV-unprocessed.smi:527|AV-procd|sdf|2818|dock1
  -GOLD-   2262023303D 1   1.00000     0.00000
 Structure written by MMmdl.
 42 43  0  0  0  0  0  0  0  0  1 V2000
  147.8645  141.5983  156.4764 C   0  0  0  0  0  0  0  0  0  0  0  0
  148.9155  141.2662  155.3971 C   0  0  1  0  0  0  0  0  0  0  0  0
  149.9994  140.3108  155.9365 C   0  0  0  0  0  0  0  0  0  0  0  0
  149.4744  138.8776  156.1151 C   0  0  0  0  0  0  0  0  0  0  0  0
  148.8808  138.3371  154.8070 C   0  0  0  0  0  0  0  0  0  0  0  0
  147.7871  139.2679  154.2427 C   0  0  2  0  0  0  0  0  0  0  0  0
  147.3135  138.7443  152.9626 N   0  0  0  0  0  0  0  0  0  0  0  0
  146.1284  138.1505  152.7570 C   0  0  0  0  0  0  0  0  0  0  0  0
  145.1641  138.2833  153.5139 O   0  0  0  0  0  0  0  0  0  0  0  0
  146.1483  137.4090  151.6323 N   0  0  0  0  0  0  0  0  0  0  0  0
  145.1152  136.7606  151.0564 C   0  0  0  0  0  0  0  0  0  0  0  0
  143.9598  136.7509  151.4894 O   0  0  0  0  0  0  0  0  0  0  0  0
  145.4711  136.0033  149.7700 C   0  0  0  0  0  0  0  0  0  0  0  0
  145.4605  134.5596  149.9366 N   0  0  0  0  0  0  0  0  0  0  0  0
  146.3053  133.8013  150.7373 C   0  0  0  0  0  0  0  0  0  0  0  0
  145.9213  132.4886  150.5815 C   0  0  0  0  0  0  0  0  0  0  0  0
  144.8502  132.4153  149.6941 N   0  0  0  0  0  0  0  0  0  0  0  0
  144.6326  133.6796  149.3556 C   0  0  0  0  0  0  0  0  0  0  0  0
  148.3176  140.7153  154.0746 C   0  0  1  0  0  0  0  0  0  0  0  0
  147.2761  141.6705  153.4583 C   0  0  0  0  0  0  0  0  0  0  0  0
  147.2645  140.7308  156.7490 H   0  0  0  0  0  0  0  0  0  0  0  0
  147.1825  142.3807  156.1443 H   0  0  0  0  0  0  0  0  0  0  0  0
  148.3441  141.9622  157.3853 H   0  0  0  0  0  0  0  0  0  0  0  0
  149.4161  142.2063  155.1611 H   0  0  0  0  0  0  0  0  0  0  0  0
  150.8415  140.2957  155.2433 H   0  0  0  0  0  0  0  0  0  0  0  0
  150.3955  140.6831  156.8821 H   0  0  0  0  0  0  0  0  0  0  0  0
  150.2831  138.2269  156.4488 H   0  0  0  0  0  0  0  0  0  0  0  0
  148.7189  138.8506  156.9005 H   0  0  0  0  0  0  0  0  0  0  0  0
  149.6798  138.2214  154.0730 H   0  0  0  0  0  0  0  0  0  0  0  0
  148.4744  137.3395  154.9780 H   0  0  0  0  0  0  0  0  0  0  0  0
  146.9503  139.2901  154.9429 H   0  0  0  0  0  0  0  0  0  0  0  0
  147.9358  138.8509  152.1749 H   0  0  0  0  0  0  0  0  0  0  0  0
  147.0393  137.3297  151.1652 H   0  0  0  0  0  0  0  0  0  0  0  0
  144.7630  136.2703  148.9843 H   0  0  0  0  0  0  0  0  0  0  0  0
  146.4619  136.3072  149.4298 H   0  0  0  0  0  0  0  0  0  0  0  0
  147.0864  134.2456  151.3367 H   0  0  0  0  0  0  0  0  0  0  0  0
  146.3298  131.5984  151.0366 H   0  0  0  0  0  0  0  0  0  0  0  0
  143.8507  133.9729  148.6703 H   0  0  0  0  0  0  0  0  0  0  0  0
  149.1432  140.6699  153.3621 H   0  0  0  0  0  0  0  0  0  0  0  0
  146.3528  141.6860  154.0376 H   0  0  0  0  0  0  0  0  0  0  0  0
  147.0172  141.3773  152.4409 H   0  0  0  0  0  0  0  0  0  0  0  0
  147.6586  142.6903  153.4097 H   0  0  0  0  0  0  0  0  0  0  0  0
  1  2  1  0  0  0  0
  1 21  1  0  0  0  0
  1 22  1  0  0  0  0
  1 23  1  0  0  0  0
  2 19  1  0  0  0  0
  2  3  1  0  0  0  0
  2 24  1  0  0  0  0
  3  4  1  0  0  0  0
  3 25  1  0  0  0  0
  3 26  1  0  0  0  0
  4  5  1  0  0  0  0
  4 27  1  0  0  0  0
  4 28  1  0  0  0  0
  5  6  1  0  0  0  0
  5 29  1  0  0  0  0
  5 30  1  0  0  0  0
  6  7  1  0  0  0  0
  6 19  1  0  0  0  0
  6 31  1  0  0  0  0
  7  8  1  0  0  0  0
  7 32  1  0  0  0  0
  8  9  2  0  0  0  0
  8 10  1  0  0  0  0
 10 11  1  0  0  0  0
 10 33  1  0  0  0  0
 11 12  2  0  0  0  0
 11 13  1  0  0  0  0
 13 14  1  0  0  0  0
 13 34  1  0  0  0  0
 13 35  1  0  0  0  0
 14 18  1  0  0  0  0
 14 15  1  0  0  0  0
 15 16  2  0  0  0  0
 15 36  1  0  0  0  0
 16 17  1  0  0  0  0
 16 37  1  0  0  0  0
 17 18  2  0  0  0  0
 18 38  1  0  0  0  0
 19 20  1  0  0  0  0
 19 39  1  0  0  0  0
 20 40  1  0  0  0  0
 20 41  1  0  0  0  0
 20 42  1  0  0  0  0
M  END
> <s_m_source_file>
AV-unprocessed.smi

> <i_m_source_file_index>
527

> <i_lp_mmshare_version>
43012

> <i_f3d_flags>
0

> <s_epik_input>
W0NIM11bQ0BASF0xW0NIMl1bQ0gyXVtDSDJdW0NASF0oW0NASF0xW0NIM10pW05IXUMoPU8pW05IXUMoPU8pW0NIMl1uMltjSF1bY0hdbltjSF0y

> <s_epik_cmdline>
J2VwaWtfcHl0aG9uJywgJy1waCcsICc3LjAnLCAnLXRuJywgJzgnLCAnLW1hJywgJzIwMCcsICctbWV0YWxfYmluZGluZycsICctaW1hZScsICc8aW5maWxlLm1hZT4nLCAnLW9tYWUnLCAnPG91dGZpbGUubWFlPic=

> <r_lp_tautomer_probability>
1

> <r_epik_Ionization_Penalty>
0.172132

> <r_epik_Ionization_Penalty_Charging>
0.172105

> <r_epik_Ionization_Penalty_Neutral>
2.71747e-05

> <r_epik_State_Penalty>
0.161503

> <r_epik_Charging_Adjusted_Penalty>
0.333607

> <i_epik_Tot_Q>
0

> <i_epik_Tot_abs_Q>
0

> <r_epik_Metal_State_Penalty>
0.124763

> <b_epik_Metal_Only>
0

> <s_lp_Force_Field>
OPLS_2005

> <r_lp_Energy>
17.6389

> <b_lp_Chiralities_Consistent>
1

> <s_lp_Variant>
AV-unprocessed.smi:527-4

> <Gold.Version>
5.8.1

> <Gold.Id.Protein>
6NUR|6NUR_protein|mol2

> <Gold.PLP.Fitness>
45.9133

> <Gold.PLP.PLP>
-35.0275

> <Gold.PLP.part.hbond>
-2.9330

> <Gold.PLP.part.metal>
0.0000

> <Gold.PLP.part.buried>
-0.6239

> <Gold.PLP.part.nonpolar>
-31.3696

> <Gold.PLP.part.repulsive>
0.4257

> <Gold.PLP.ligand.clash>
0.0000

> <Gold.PLP.ligand.torsion>
0.3634

> <Gold.PLP.Chemscore.Hbond>
1.1963

> <Gold.PLP.Chemscore.CHOScore>
2.6656

> <Gold.PLP.Chemscore.Metal>
0.0000

> <Gold.Chemscore.Hbonds>
donor molecule, donor type, donor heavy atom, donor atom, acceptor molecule, acceptor atom, score
      L1  H     7    32       P1  7957  0.42
      L1  H    10    33       P1  7948  0.24
      L1  C    15    36       P1  7948  0.54
      L1  C    16    37       P1 10747  0.15

> <Gold.PLP.Chemscore.Internal.Correction>
0.0269

> <Gold.Rescore>
     Score         DG    S(hbond)    S(metal)    S(lipo)     H(rot)  DE(clash)    DE(int)     intcor
     13.43     -15.29       1.64        0.00      73.34       1.66       0.11       1.75       ----

> <Gold.Chemscore.Fitness>
13.4295

> <Gold.Chemscore.DG>
-15.2884

> <Gold.Chemscore.ZeroCoef>
-5.4800

> <Gold.Chemscore.Hbond>
1.6421

> <Gold.Chemscore.Metal>
0.0000

> <Gold.Chemscore.Lipo>
73.3392

> <Gold.Chemscore.Internal_Hbond>
0.0000

> <Gold.Chemscore.DEClash>
0.1137

> <Gold.Chemscore.DEInternal>
1.7451

> <Gold.Chemscore.Rot>
1.6629

> <Gold.Chemscore.Internal.Correction>
   9.000000E+99

> <Gold.Chemscore.Hbonds>
donor molecule, donor type, donor heavy atom, donor atom, acceptor molecule, acceptor atom, score
      L1  H     7    32       P1  7957  0.38
      L1  H    10    33       P1  7948  0.24

> <Gold.Chemscore.Hbond.Weighted>
-5.4846

> <Gold.Chemscore.Metal.Weighted>
-0.0000

> <Gold.Chemscore.Lipo.Weighted>
-8.5807

> <Gold.Chemscore.Internal_Hbond.Weighted>
0.0000

> <Gold.Chemscore.DEClash.Weighted>
0.1137

> <Gold.Chemscore.DEInternal.Weighted>
1.7451

> <Gold.Chemscore.Rot.Weighted>
4.2569

> <Gold.Chemscore.Internal.Correction.Weighted>
   9.000000E+99

> <Gold.Protein.RotatedTorsions>
[ 6907 6896 6895 6894 ] final  154.71 input  -60.11 | X-H torsion
[ 7974 7965 7964 7962 ] final -175.44 input  175.53 | X-H torsion
[ 8008 7997 7996 7995 ] final   38.68 input   59.86 | X-H torsion
[ 10167 10162 10161 10158 ] final  -22.95 input  -65.29 | X-H torsion
[ 10718 10713 10712 10709 ] final -137.15 input   66.30 | X-H torsion
[ 10763 10752 10751 10750 ] final   -9.15 input  -60.55 | X-H torsion
[ 11005 11000 10999 10996 ] final   13.73 input  -57.11 | X-H torsion

> <Gold.Protein.ActiveResidues>
 VAL166  LYS551  ARG553  GLY616  TRP617  ASP618  TYR619  PRO620  LYS621  CYS622 
 ASP623  PHE694  ASN695  SER759  ASP760  ASP761  ALA762  ILE779  LEU786  VAL792 
 PHE793  MET794  SER795  GLU796  ALA797  LYS798  CYS799  TRP800  GLU811  SER814 

> <Gold.Protein.RotatedAtoms>
  152.0546  133.4034  159.4391 H   0  0  0  0  0  0  0  0  0  0  0  0  # atno 6907 bound_to 6896
  150.6868  134.3269  159.4820 H   0  0  0  0  0  0  0  0  0  0  0  0  # atno 6908 bound_to 6896
  152.1083  134.9292  160.0618 H   0  0  0  0  0  0  0  0  0  0  0  0  # atno 6909 bound_to 6896
  144.7128  140.1321  143.6398 H   0  0  0  0  0  0  0  0  0  0  0  0  # atno 7974 bound_to 7965
  155.2242  140.3333  155.4311 H   0  0  0  0  0  0  0  0  0  0  0  0  # atno 8008 bound_to 7997
  156.2321  140.1855  156.7262 H   0  0  0  0  0  0  0  0  0  0  0  0  # atno 8009 bound_to 7997
  154.5996  140.0625  156.9335 H   0  0  0  0  0  0  0  0  0  0  0  0  # atno 8010 bound_to 7997
  140.7287  143.4488  151.0547 H   0  0  0  0  0  0  0  0  0  0  0  0  # atno 10167 bound_to 10162
  156.2850  130.7342  151.1351 H   0  0  0  0  0  0  0  0  0  0  0  0  # atno 10718 bound_to 10713
  153.4507  135.7015  153.6111 H   0  0  0  0  0  0  0  0  0  0  0  0  # atno 10763 bound_to 10752
  153.4447  135.3772  155.2249 H   0  0  0  0  0  0  0  0  0  0  0  0  # atno 10764 bound_to 10752
  154.8728  135.3982  154.3919 H   0  0  0  0  0  0  0  0  0  0  0  0  # atno 10765 bound_to 10752
  140.4775  134.0969  155.7744 H   0  0  0  0  0  0  0  0  0  0  0  0  # atno 11005 bound_to 11000
  145.9278  139.2586  143.1343 LP  0  0  0  0  0  0  0  0  0  0  0  0  # atno 17320 bound_to 7965
  145.9554  140.8876  143.0238 LP  0  0  0  0  0  0  0  0  0  0  0  0  # atno 17321 bound_to 7965
  139.8162  143.7883  152.3174 LP  0  0  0  0  0  0  0  0  0  0  0  0  # atno 17342 bound_to 10162
  139.7949  144.7396  150.9903 LP  0  0  0  0  0  0  0  0  0  0  0  0  # atno 17343 bound_to 10162
  157.7326  131.0598  150.5621 LP  0  0  0  0  0  0  0  0  0  0  0  0  # atno 17370 bound_to 10713
  156.5731  130.4285  149.6010 LP  0  0  0  0  0  0  0  0  0  0  0  0  # atno 17371 bound_to 10713
  141.1547  133.8904  157.2007 LP  0  0  0  0  0  0  0  0  0  0  0  0  # atno 17394 bound_to 11000
  139.9847  135.0086  156.9834 LP  0  0  0  0  0  0  0  0  0  0  0  0  # atno 17395 bound_to 11000

$$$$
