AV-unprocessed.smi:3185|AV-procd|sdf|12169|dock3
  -GOLD-   2272018 03D 1   1.00000     0.00000
 Structure written by MMmdl.
 37 38  0  0  0  0  0  0  0  0  1 V2000
  153.8522  139.0764  154.6170 N   0  0  0  0  0  0  0  0  0  0  0  0
  152.6985  139.1261  154.6867 C   0  0  0  0  0  0  0  0  0  0  0  0
  151.2322  139.1887  154.7751 C   0  0  0  0  0  0  0  0  0  0  0  0
  150.7311  140.5262  155.3365 C   0  0  0  0  0  0  0  0  0  0  0  0
  150.6117  140.5160  156.8656 C   0  0  0  0  0  0  0  0  0  0  0  0
  151.8330  141.0453  157.4528 N   0  0  0  0  0  0  0  0  0  0  0  0
  151.5713  142.0158  158.5112 C   0  0  2  0  0  0  0  0  0  0  0  0
  150.8878  143.2669  157.9156 C   0  0  0  0  0  0  0  0  0  0  0  0
  150.7044  144.3688  158.9700 C   0  0  0  0  0  0  0  0  0  0  0  0
  152.0435  144.7425  159.6210 C   0  0  0  0  0  0  0  0  0  0  0  0
  152.7165  143.5079  160.2373 C   0  0  0  0  0  0  0  0  0  0  0  0
  152.9142  142.3898  159.1917 C   0  0  1  0  0  0  0  0  0  0  0  0
  153.5643  141.2291  159.7909 N   0  0  0  0  0  0  0  0  0  0  0  0
  153.9258  141.0436  161.1094 C   0  0  0  0  0  0  0  0  0  0  0  0
  154.5172  139.8167  161.2036 C   0  0  0  0  0  0  0  0  0  0  0  0
  154.4717  139.3168  159.8726 C   0  0  0  0  0  0  0  0  0  0  0  0
  153.9018  140.1624  159.0301 N   0  0  0  0  0  0  0  0  0  0  0  0
  150.8293  139.0195  153.7764 H   0  0  0  0  0  0  0  0  0  0  0  0
  150.9028  138.3592  155.4013 H   0  0  0  0  0  0  0  0  0  0  0  0
  151.3849  141.3376  155.0140 H   0  0  0  0  0  0  0  0  0  0  0  0
  149.7504  140.7384  154.9093 H   0  0  0  0  0  0  0  0  0  0  0  0
  149.7627  141.1267  157.1725 H   0  0  0  0  0  0  0  0  0  0  0  0
  150.4292  139.5000  157.2177 H   0  0  0  0  0  0  0  0  0  0  0  0
  152.4274  141.4482  156.7427 H   0  0  0  0  0  0  0  0  0  0  0  0
  150.9167  141.5692  159.2615 H   0  0  0  0  0  0  0  0  0  0  0  0
  151.4841  143.6579  157.0898 H   0  0  0  0  0  0  0  0  0  0  0  0
  149.9137  143.0107  157.4983 H   0  0  0  0  0  0  0  0  0  0  0  0
  150.2558  145.2507  158.5120 H   0  0  0  0  0  0  0  0  0  0  0  0
  150.0066  144.0292  159.7364 H   0  0  0  0  0  0  0  0  0  0  0  0
  152.7035  145.1879  158.8757 H   0  0  0  0  0  0  0  0  0  0  0  0
  151.8855  145.5010  160.3882 H   0  0  0  0  0  0  0  0  0  0  0  0
  153.6785  143.7912  160.6661 H   0  0  0  0  0  0  0  0  0  0  0  0
  152.1048  143.1451  161.0646 H   0  0  0  0  0  0  0  0  0  0  0  0
  153.5899  142.7748  158.4255 H   0  0  0  0  0  0  0  0  0  0  0  0
  153.7372  141.7942  161.8628 H   0  0  0  0  0  0  0  0  0  0  0  0
  154.9216  139.3481  162.0884 H   0  0  0  0  0  0  0  0  0  0  0  0
  154.8337  138.3716  159.4963 H   0  0  0  0  0  0  0  0  0  0  0  0
  1  2  3  0  0  0  0
  2  3  1  0  0  0  0
  3  4  1  0  0  0  0
  3 18  1  0  0  0  0
  3 19  1  0  0  0  0
  4  5  1  0  0  0  0
  4 20  1  0  0  0  0
  4 21  1  0  0  0  0
  5  6  1  0  0  0  0
  5 22  1  0  0  0  0
  5 23  1  0  0  0  0
  6  7  1  0  0  0  0
  6 24  1  0  0  0  0
  7 12  1  0  0  0  0
  7  8  1  0  0  0  0
  7 25  1  0  0  0  0
  8  9  1  0  0  0  0
  8 26  1  0  0  0  0
  8 27  1  0  0  0  0
  9 10  1  0  0  0  0
  9 28  1  0  0  0  0
  9 29  1  0  0  0  0
 10 11  1  0  0  0  0
 10 30  1  0  0  0  0
 10 31  1  0  0  0  0
 11 12  1  0  0  0  0
 11 32  1  0  0  0  0
 11 33  1  0  0  0  0
 12 13  1  0  0  0  0
 12 34  1  0  0  0  0
 13 17  1  0  0  0  0
 13 14  1  0  0  0  0
 14 15  2  0  0  0  0
 14 35  1  0  0  0  0
 15 16  1  0  0  0  0
 15 36  1  0  0  0  0
 16 17  2  0  0  0  0
 16 37  1  0  0  0  0
M  END
> <s_m_source_file>
AV-unprocessed.smi

> <i_m_source_file_index>
3185

> <i_lp_mmshare_version>
43012

> <i_f3d_flags>
0

> <s_epik_input>
TiNDW0NIMl1bQ0gyXVtDSDJdW05IXVtDQEBIXTFbQ0gyXVtDSDJdW0NIMl1bQ0gyXVtDQEhdMW4yW2NIXVtjSF1bY0hdbjI=

> <s_epik_cmdline>
J2VwaWtfcHl0aG9uJywgJy1waCcsICc3LjAnLCAnLXRuJywgJzgnLCAnLW1hJywgJzIwMCcsICctbWV0YWxfYmluZGluZycsICctaW1hZScsICc8aW5maWxlLm1hZT4nLCAnLW9tYWUnLCAnPG91dGZpbGUubWFlPic=

> <r_lp_tautomer_probability>
1

> <r_epik_Ionization_Penalty>
2.21326

> <r_epik_Ionization_Penalty_Charging>
0

> <r_epik_Ionization_Penalty_Neutral>
2.21326

> <r_epik_State_Penalty>
2.35651

> <r_epik_Charging_Adjusted_Penalty>
2.35651

> <i_epik_Tot_Q>
0

> <i_epik_Tot_abs_Q>
0

> <r_epik_Metal_State_Penalty>
2.3555

> <b_epik_Metal_Only>
0

> <s_lp_Force_Field>
OPLS_2005

> <r_lp_Energy>
16.739

> <b_lp_Chiralities_Consistent>
1

> <s_lp_Variant>
AV-unprocessed.smi:3185-5

> <Gold.Version>
5.8.1

> <Gold.Id.Protein>
6NUR|6NUR_protein|mol2

> <Gold.PLP.Fitness>
45.7783

> <Gold.PLP.PLP>
-41.5983

> <Gold.PLP.part.hbond>
-2.0000

> <Gold.PLP.part.metal>
0.0000

> <Gold.PLP.part.buried>
-3.4843

> <Gold.PLP.part.nonpolar>
-35.8563

> <Gold.PLP.part.repulsive>
0.0037

> <Gold.PLP.ligand.clash>
0.0000

> <Gold.PLP.ligand.torsion>
0.7682

> <Gold.PLP.Chemscore.Hbond>
1.8880

> <Gold.PLP.Chemscore.CHOScore>
0.0000

> <Gold.PLP.Chemscore.Metal>
0.0000

> <Gold.Chemscore.Hbonds>
donor molecule, donor type, donor heavy atom, donor atom, acceptor molecule, acceptor atom, score
      P1  H  7997  8008       L1    17  0.89
      P1  H  7997  8009       L1     1  1.00

> <Gold.PLP.Chemscore.Internal.Correction>
0.0524

> <Gold.Rescore>
     Score         DG    S(hbond)    S(metal)    S(lipo)     H(rot)  DE(clash)    DE(int)     intcor
     17.09     -19.23       1.74        0.00     107.57       1.81       0.01       2.13       ----

> <Gold.Chemscore.Fitness>
17.0937

> <Gold.Chemscore.DG>
-19.2302

> <Gold.Chemscore.ZeroCoef>
-5.4800

> <Gold.Chemscore.Hbond>
1.7367

> <Gold.Chemscore.Metal>
0.0000

> <Gold.Chemscore.Lipo>
107.5721

> <Gold.Chemscore.Internal_Hbond>
0.0000

> <Gold.Chemscore.DEClash>
0.0060

> <Gold.Chemscore.DEInternal>
2.1304

> <Gold.Chemscore.Rot>
1.8110

> <Gold.Chemscore.Internal.Correction>
   9.000000E+99

> <Gold.Chemscore.Hbonds>
donor molecule, donor type, donor heavy atom, donor atom, acceptor molecule, acceptor atom, score
      P1  H  7997  8008       L1    17  0.45
      P1  H  7997  8009       L1     1  0.88

> <Gold.Chemscore.Hbond.Weighted>
-5.8004

> <Gold.Chemscore.Metal.Weighted>
-0.0000

> <Gold.Chemscore.Lipo.Weighted>
-12.5859

> <Gold.Chemscore.Internal_Hbond.Weighted>
0.0000

> <Gold.Chemscore.DEClash.Weighted>
0.0060

> <Gold.Chemscore.DEInternal.Weighted>
2.1304

> <Gold.Chemscore.Rot.Weighted>
4.6362

> <Gold.Chemscore.Internal.Correction.Weighted>
   9.000000E+99

> <Gold.Protein.RotatedTorsions>
[ 6907 6896 6895 6894 ] final  175.49 input  -60.11 | X-H torsion
[ 7974 7965 7964 7962 ] final  -22.59 input  175.53 | X-H torsion
[ 8008 7997 7996 7995 ] final -113.90 input   59.86 | X-H torsion
[ 10167 10162 10161 10158 ] final -164.74 input  -65.29 | X-H torsion
[ 10718 10713 10712 10709 ] final  129.23 input   66.30 | X-H torsion
[ 10763 10752 10751 10750 ] final  -37.26 input  -60.55 | X-H torsion
[ 11005 11000 10999 10996 ] final -146.35 input  -57.11 | X-H torsion

> <Gold.Protein.ActiveResidues>
 VAL166  LYS551  ARG553  GLY616  TRP617  ASP618  TYR619  PRO620  LYS621  CYS622 
 ASP623  PHE694  ASN695  SER759  ASP760  ASP761  ALA762  ILE779  LEU786  VAL792 
 PHE793  MET794  SER795  GLU796  ALA797  LYS798  CYS799  TRP800  GLU811  SER814 

> <Gold.Protein.RotatedAtoms>
  151.7353  133.3319  159.3351 H   0  0  0  0  0  0  0  0  0  0  0  0  # atno 6907 bound_to 6896
  150.7595  134.6326  159.6204 H   0  0  0  0  0  0  0  0  0  0  0  0  # atno 6908 bound_to 6896
  152.3565  134.6935  160.0272 H   0  0  0  0  0  0  0  0  0  0  0  0  # atno 6909 bound_to 6896
  146.1666  140.4500  142.8549 H   0  0  0  0  0  0  0  0  0  0  0  0  # atno 7974 bound_to 7965
  155.0280  140.0393  157.2463 H   0  0  0  0  0  0  0  0  0  0  0  0  # atno 8008 bound_to 7997
  154.7321  140.2732  155.6423 H   0  0  0  0  0  0  0  0  0  0  0  0  # atno 8009 bound_to 7997
  156.2844  140.2682  156.2024 H   0  0  0  0  0  0  0  0  0  0  0  0  # atno 8010 bound_to 7997
  139.6230  144.0588  152.1949 H   0  0  0  0  0  0  0  0  0  0  0  0  # atno 10167 bound_to 10162
  157.5173  131.1097  150.9206 H   0  0  0  0  0  0  0  0  0  0  0  0  # atno 10718 bound_to 10713
  153.8933  135.6810  153.4759 H   0  0  0  0  0  0  0  0  0  0  0  0  # atno 10763 bound_to 10752
  153.1169  135.4757  154.9128 H   0  0  0  0  0  0  0  0  0  0  0  0  # atno 10764 bound_to 10752
  154.7611  135.3211  154.8329 H   0  0  0  0  0  0  0  0  0  0  0  0  # atno 10765 bound_to 10752
  140.7829  134.3058  157.5039 H   0  0  0  0  0  0  0  0  0  0  0  0  # atno 11005 bound_to 11000
  144.8102  140.6372  143.6420 LP  0  0  0  0  0  0  0  0  0  0  0  0  # atno 17320 bound_to 7965
  145.4450  139.1530  143.3949 LP  0  0  0  0  0  0  0  0  0  0  0  0  # atno 17321 bound_to 7965
  140.0234  144.6136  150.7547 LP  0  0  0  0  0  0  0  0  0  0  0  0  # atno 17342 bound_to 10162
  140.7393  143.2790  151.3655 LP  0  0  0  0  0  0  0  0  0  0  0  0  # atno 17343 bound_to 10162
  156.9827  130.5533  149.5297 LP  0  0  0  0  0  0  0  0  0  0  0  0  # atno 17370 bound_to 10713
  156.0329  130.5419  150.8580 LP  0  0  0  0  0  0  0  0  0  0  0  0  # atno 17371 bound_to 10713
  139.8740  134.9329  156.3566 LP  0  0  0  0  0  0  0  0  0  0  0  0  # atno 17394 bound_to 11000
  140.9465  133.7479  156.0215 LP  0  0  0  0  0  0  0  0  0  0  0  0  # atno 17395 bound_to 11000

$$$$
