AV-unprocessed.smi:340|AV-procd|sdf|2381|dock2
  -GOLD-   2262022303D 1   1.00000     0.00000
 Structure written by MMmdl.
 34 35  0  0  0  0  0  0  0  0  2 V2000
  149.9743  134.1598  155.4050 C   0  0  0  0  0  0  0  0  0  0  0  0
  150.8582  135.4795  156.3282 S   0  0  0  0  0  0  0  0  0  0  0  0
  149.8099  136.3029  156.9523 O   0  0  0  0  0  0  0  0  0  0  0  0
  151.7913  134.7830  157.2286 O   0  0  0  0  0  0  0  0  0  0  0  0
  151.6113  136.2403  155.1118 N   0  5  0  0  0  0  0  0  0  0  0  0
  151.0376  137.4626  154.5786 C   0  0  0  0  0  0  0  0  0  0  0  0
  151.3188  138.6530  155.4839 C   0  0  0  0  0  0  0  0  0  0  0  0
  150.6602  139.8880  155.2907 C   0  0  0  0  0  0  0  0  0  0  0  0
  150.9544  140.9604  156.1557 C   0  0  0  0  0  0  0  0  0  0  0  0
  151.8954  140.7630  157.1871 C   0  0  0  0  0  0  0  0  0  0  0  0
  152.1870  141.8258  158.0535 N   0  0  0  0  0  0  0  0  0  0  0  0
  153.0439  141.4445  159.1694 C   0  0  0  0  0  0  0  0  0  0  0  0
  153.4124  142.6874  159.9979 C   0  0  0  0  0  0  0  0  0  0  0  0
  152.2242  143.3486  160.4243 O   0  0  0  0  0  0  0  0  0  0  0  0
  151.4292  143.7829  159.3244 C   0  0  0  0  0  0  0  0  0  0  0  0
  151.0074  142.5661  158.4837 C   0  0  0  0  0  0  0  0  0  0  0  0
  152.5320  139.5832  157.3783 N   0  0  0  0  0  0  0  0  0  0  0  0
  152.2467  138.5577  156.5463 C   0  0  0  0  0  0  0  0  0  0  0  0
  149.4047  133.5499  156.1054 H   0  0  0  0  0  0  0  0  0  0  0  0
  150.6978  133.5341  154.8832 H   0  0  0  0  0  0  0  0  0  0  0  0
  149.2960  134.6134  154.6829 H   0  0  0  0  0  0  0  0  0  0  0  0
  151.4282  137.6945  153.5873 H   0  0  0  0  0  0  0  0  0  0  0  0
  149.9573  137.3803  154.4545 H   0  0  0  0  0  0  0  0  0  0  0  0
  149.9370  140.0286  154.4989 H   0  0  0  0  0  0  0  0  0  0  0  0
  150.4627  141.9140  156.0296 H   0  0  0  0  0  0  0  0  0  0  0  0
  152.5283  140.7192  159.8006 H   0  0  0  0  0  0  0  0  0  0  0  0
  153.9475  140.9624  158.7942 H   0  0  0  0  0  0  0  0  0  0  0  0
  153.9918  142.3970  160.8742 H   0  0  0  0  0  0  0  0  0  0  0  0
  154.0333  143.3717  159.4175 H   0  0  0  0  0  0  0  0  0  0  0  0
  150.5489  144.3018  159.7037 H   0  0  0  0  0  0  0  0  0  0  0  0
  151.9866  144.4995  158.7188 H   0  0  0  0  0  0  0  0  0  0  0  0
  150.4367  142.8904  157.6126 H   0  0  0  0  0  0  0  0  0  0  0  0
  150.3571  141.9184  159.0734 H   0  0  0  0  0  0  0  0  0  0  0  0
  152.7825  137.6407  156.7501 H   0  0  0  0  0  0  0  0  0  0  0  0
  1  2  1  0  0  0  0
  1 19  1  0  0  0  0
  1 20  1  0  0  0  0
  1 21  1  0  0  0  0
  2  3  2  0  0  0  0
  2  4  2  0  0  0  0
  2  5  1  0  0  0  0
  5  6  1  0  0  0  0
  6  7  1  0  0  0  0
  6 22  1  0  0  0  0
  6 23  1  0  0  0  0
  7 18  1  0  0  0  0
  7  8  2  0  0  0  0
  8  9  1  0  0  0  0
  8 24  1  0  0  0  0
  9 10  2  0  0  0  0
  9 25  1  0  0  0  0
 10 11  1  0  0  0  0
 10 17  1  0  0  0  0
 11 16  1  0  0  0  0
 11 12  1  0  0  0  0
 12 13  1  0  0  0  0
 12 26  1  0  0  0  0
 12 27  1  0  0  0  0
 13 14  1  0  0  0  0
 13 28  1  0  0  0  0
 13 29  1  0  0  0  0
 14 15  1  0  0  0  0
 15 16  1  0  0  0  0
 15 30  1  0  0  0  0
 15 31  1  0  0  0  0
 16 32  1  0  0  0  0
 16 33  1  0  0  0  0
 17 18  2  0  0  0  0
 18 34  1  0  0  0  0
M  CHG  1   5  -1
M  END
> <s_m_source_file>
AV-unprocessed.smi

> <i_m_source_file_index>
340

> <i_lp_mmshare_version>
43012

> <i_f3d_flags>
0

> <s_epik_input>
W0NIM11TKD1PKSg9TylbTkhdW0NIMl1jMVtjSF1bY0hdYyhuW2NIXTEpTjJbQ0gyXVtDSDJdT1tDSDJdW0NIMl0y

> <s_epik_cmdline>
J2VwaWtfcHl0aG9uJywgJy1waCcsICc3LjAnLCAnLXRuJywgJzgnLCAnLW1hJywgJzIwMCcsICctbWV0YWxfYmluZGluZycsICctaW1hZScsICc8aW5maWxlLm1hZT4nLCAnLW9tYWUnLCAnPG91dGZpbGUubWFlPic=

> <r_lp_tautomer_probability>
1

> <r_epik_Ionization_Penalty>
5.97683

> <r_epik_Ionization_Penalty_Charging>
5.90424

> <r_epik_Ionization_Penalty_Neutral>
0.0725937

> <r_epik_State_Penalty>
5.9092

> <r_epik_Charging_Adjusted_Penalty>
11.8134

> <i_epik_Tot_Q>
-1

> <i_epik_Tot_abs_Q>
1

> <r_epik_Metal_State_Penalty>
1.87112

> <b_epik_Metal_Only>
1

> <s_lp_Force_Field>
OPLS_2005

> <r_lp_Energy>
14.5027

> <b_lp_Chiralities_Consistent>
1

> <s_lp_Variant>
AV-unprocessed.smi:340-2

> <Gold.Version>
5.8.1

> <Gold.Id.Protein>
6NUR|6NUR_protein|mol2

> <Gold.PLP.Fitness>
39.3669

> <Gold.PLP.PLP>
-31.4578

> <Gold.PLP.part.hbond>
-3.0000

> <Gold.PLP.part.metal>
0.0000

> <Gold.PLP.part.buried>
-3.2126

> <Gold.PLP.part.nonpolar>
-25.1226

> <Gold.PLP.part.repulsive>
0.1773

> <Gold.PLP.ligand.clash>
0.0000

> <Gold.PLP.ligand.torsion>
1.0084

> <Gold.PLP.Chemscore.Hbond>
2.9500

> <Gold.PLP.Chemscore.CHOScore>
0.0000

> <Gold.PLP.Chemscore.Metal>
0.0000

> <Gold.Chemscore.Hbonds>
donor molecule, donor type, donor heavy atom, donor atom, acceptor molecule, acceptor atom, score
      P1  H  7997  8010       L1    17  0.79
      P1  H 10752 10763       L1     5  2.00

> <Gold.PLP.Chemscore.Internal.Correction>
1.0759

> <Gold.Rescore>
     Score         DG    S(hbond)    S(metal)    S(lipo)     H(rot)  DE(clash)    DE(int)     intcor
     13.24     -14.26       1.05        0.00      78.94       1.54       0.21       0.81       ----

> <Gold.Chemscore.Fitness>
13.2380

> <Gold.Chemscore.DG>
-14.2632

> <Gold.Chemscore.ZeroCoef>
-5.4800

> <Gold.Chemscore.Hbond>
1.0485

> <Gold.Chemscore.Metal>
0.0000

> <Gold.Chemscore.Lipo>
78.9390

> <Gold.Chemscore.Internal_Hbond>
0.0000

> <Gold.Chemscore.DEClash>
0.2109

> <Gold.Chemscore.DEInternal>
0.8143

> <Gold.Chemscore.Rot>
1.5448

> <Gold.Chemscore.Internal.Correction>
   9.000000E+99

> <Gold.Chemscore.Hbonds>
donor molecule, donor type, donor heavy atom, donor atom, acceptor molecule, acceptor atom, score
      P1  H  7997  8010       L1    17  0.03
      P1  H 10752 10763       L1     5  0.73

> <Gold.Chemscore.Hbond.Weighted>
-3.5019

> <Gold.Chemscore.Metal.Weighted>
-0.0000

> <Gold.Chemscore.Lipo.Weighted>
-9.2359

> <Gold.Chemscore.Internal_Hbond.Weighted>
0.0000

> <Gold.Chemscore.DEClash.Weighted>
0.2109

> <Gold.Chemscore.DEInternal.Weighted>
0.8143

> <Gold.Chemscore.Rot.Weighted>
3.9546

> <Gold.Chemscore.Internal.Correction.Weighted>
   9.000000E+99

> <Gold.Protein.RotatedTorsions>
[ 6907 6896 6895 6894 ] final -173.32 input  -60.11 | X-H torsion
[ 7974 7965 7964 7962 ] final  -75.76 input  175.53 | X-H torsion
[ 8008 7997 7996 7995 ] final   63.77 input   59.86 | X-H torsion
[ 10167 10162 10161 10158 ] final -154.10 input  -65.29 | X-H torsion
[ 10718 10713 10712 10709 ] final -179.00 input   66.30 | X-H torsion
[ 10763 10752 10751 10750 ] final   73.82 input  -60.55 | X-H torsion
[ 11005 11000 10999 10996 ] final  131.43 input  -57.11 | X-H torsion

> <Gold.Protein.ActiveResidues>
 VAL166  LYS551  ARG553  GLY616  TRP617  ASP618  TYR619  PRO620  LYS621  CYS622 
 ASP623  PHE694  ASN695  SER759  ASP760  ASP761  ALA762  ILE779  LEU786  VAL792 
 PHE793  MET794  SER795  GLU796  ALA797  LYS798  CYS799  TRP800  GLU811  SER814 

> <Gold.Protein.RotatedAtoms>
  151.5542  133.3413  159.2958 H   0  0  0  0  0  0  0  0  0  0  0  0  # atno 6907 bound_to 6896
  150.8460  134.7772  159.6982 H   0  0  0  0  0  0  0  0  0  0  0  0  # atno 6908 bound_to 6896
  152.4518  134.5385  159.9884 H   0  0  0  0  0  0  0  0  0  0  0  0  # atno 6909 bound_to 6896
  145.6218  140.9361  143.1134 H   0  0  0  0  0  0  0  0  0  0  0  0  # atno 7974 bound_to 7965
  155.6355  140.3496  155.4697 H   0  0  0  0  0  0  0  0  0  0  0  0  # atno 8008 bound_to 7997
  155.9969  140.1205  157.0609 H   0  0  0  0  0  0  0  0  0  0  0  0  # atno 8009 bound_to 7997
  154.4236  140.1108  156.5628 H   0  0  0  0  0  0  0  0  0  0  0  0  # atno 8010 bound_to 7997
  139.7041  143.9214  152.2441 H   0  0  0  0  0  0  0  0  0  0  0  0  # atno 10167 bound_to 10162
  156.8526  130.9724  151.3091 H   0  0  0  0  0  0  0  0  0  0  0  0  # atno 10718 bound_to 10713
  153.0546  135.5048  154.7951 H   0  0  0  0  0  0  0  0  0  0  0  0  # atno 10763 bound_to 10752
  154.6786  135.2964  154.9646 H   0  0  0  0  0  0  0  0  0  0  0  0  # atno 10764 bound_to 10752
  154.0440  135.6713  153.4845 H   0  0  0  0  0  0  0  0  0  0  0  0  # atno 10765 bound_to 10752
  139.9730  134.9572  156.9437 H   0  0  0  0  0  0  0  0  0  0  0  0  # atno 11005 bound_to 11000
  144.7228  139.7973  143.7376 LP  0  0  0  0  0  0  0  0  0  0  0  0  # atno 17320 bound_to 7965
  146.1425  139.4486  143.0100 LP  0  0  0  0  0  0  0  0  0  0  0  0  # atno 17321 bound_to 7965
  139.9065  144.6881  150.8608 LP  0  0  0  0  0  0  0  0  0  0  0  0  # atno 17342 bound_to 10162
  140.7717  143.3475  151.2082 LP  0  0  0  0  0  0  0  0  0  0  0  0  # atno 17343 bound_to 10162
  157.6295  130.8718  149.9248 LP  0  0  0  0  0  0  0  0  0  0  0  0  # atno 17370 bound_to 10713
  156.0820  130.3672  150.0562 LP  0  0  0  0  0  0  0  0  0  0  0  0  # atno 17371 bound_to 10713
  140.5254  134.0866  155.7302 LP  0  0  0  0  0  0  0  0  0  0  0  0  # atno 17394 bound_to 11000
  141.1409  133.9140  157.2329 LP  0  0  0  0  0  0  0  0  0  0  0  0  # atno 17395 bound_to 11000

$$$$
