AV-unprocessed.smi:849|AV-procd|sdf|3943|dock5
  -GOLD-   22720 1413D 1   1.00000     0.00000
 Structure written by MMmdl.
 36 38  0  0  0  0  0  0  0  0  1 V2000
  152.2140  137.0989  153.9068 O   0  0  0  0  0  0  0  0  0  0  0  0
  151.5018  137.5142  155.0529 C   0  0  0  0  0  0  0  0  0  0  0  0
  150.4534  138.5462  154.7468 C   0  0  0  0  0  0  0  0  0  0  0  0
  149.3522  138.2217  154.0670 N   0  0  0  0  0  0  0  0  0  0  0  0
  148.6561  139.4118  154.0198 C   0  0  0  0  0  0  0  0  0  0  0  0
  147.4066  139.7207  153.4361 C   0  0  0  0  0  0  0  0  0  0  0  0
  146.8814  141.0266  153.5228 C   0  0  0  0  0  0  0  0  0  0  0  0
  147.5960  142.0389  154.1947 C   0  0  0  0  0  0  0  0  0  0  0  0
  148.8429  141.7511  154.7827 C   0  0  0  0  0  0  0  0  0  0  0  0
  149.3659  140.4468  154.6900 C   0  0  0  0  0  0  0  0  0  0  0  0
  150.5379  139.8453  155.1437 N   0  0  0  0  0  0  0  0  0  0  0  0
  151.5966  140.5107  155.8999 C   0  0  0  0  0  0  0  0  0  0  0  0
  151.2973  140.6516  157.4115 C   0  0  2  0  0  0  0  0  0  0  0  0
  149.9407  140.3393  157.6648 O   0  0  0  0  0  0  0  0  0  0  0  0
  151.7151  142.0071  157.9827 C   0  0  0  0  0  0  0  0  0  0  0  0
  151.2247  143.2008  157.4022 C   0  0  0  0  0  0  0  0  0  0  0  0
  151.6047  144.4567  157.9112 C   0  0  0  0  0  0  0  0  0  0  0  0
  152.4831  144.5347  159.0065 C   0  0  0  0  0  0  0  0  0  0  0  0
  152.9833  143.3554  159.5879 C   0  0  0  0  0  0  0  0  0  0  0  0
  152.6063  142.0949  159.0824 C   0  0  0  0  0  0  0  0  0  0  0  0
  153.2699  140.6807  159.8236 Cl  0  0  0  0  0  0  0  0  0  0  0  0
  151.5924  136.8694  153.2337 H   0  0  0  0  0  0  0  0  0  0  0  0
  151.0150  136.6454  155.4956 H   0  0  0  0  0  0  0  0  0  0  0  0
  152.2244  137.8737  155.7803 H   0  0  0  0  0  0  0  0  0  0  0  0
  146.8508  138.9506  152.9220 H   0  0  0  0  0  0  0  0  0  0  0  0
  145.9253  141.2519  153.0737 H   0  0  0  0  0  0  0  0  0  0  0  0
  147.1873  143.0369  154.2582 H   0  0  0  0  0  0  0  0  0  0  0  0
  149.3929  142.5258  155.2959 H   0  0  0  0  0  0  0  0  0  0  0  0
  152.5114  139.9311  155.7694 H   0  0  0  0  0  0  0  0  0  0  0  0
  151.8150  141.4794  155.4538 H   0  0  0  0  0  0  0  0  0  0  0  0
  151.8569  139.8783  157.9372 H   0  0  0  0  0  0  0  0  0  0  0  0
  149.8838  139.4282  157.9094 H   0  0  0  0  0  0  0  0  0  0  0  0
  150.5594  143.1639  156.5519 H   0  0  0  0  0  0  0  0  0  0  0  0
  151.2256  145.3603  157.4570 H   0  0  0  0  0  0  0  0  0  0  0  0
  152.7772  145.4979  159.3968 H   0  0  0  0  0  0  0  0  0  0  0  0
  153.6634  143.4193  160.4246 H   0  0  0  0  0  0  0  0  0  0  0  0
  1  2  1  0  0  0  0
  1 22  1  0  0  0  0
  2  3  1  0  0  0  0
  2 23  1  0  0  0  0
  2 24  1  0  0  0  0
  3 11  1  0  0  0  0
  3  4  2  0  0  0  0
  4  5  1  0  0  0  0
  5 10  2  0  0  0  0
  5  6  1  0  0  0  0
  6  7  2  0  0  0  0
  6 25  1  0  0  0  0
  7  8  1  0  0  0  0
  7 26  1  0  0  0  0
  8  9  2  0  0  0  0
  8 27  1  0  0  0  0
  9 10  1  0  0  0  0
  9 28  1  0  0  0  0
 10 11  1  0  0  0  0
 11 12  1  0  0  0  0
 12 13  1  0  0  0  0
 12 29  1  0  0  0  0
 12 30  1  0  0  0  0
 13 14  1  0  0  0  0
 13 15  1  0  0  0  0
 13 31  1  0  0  0  0
 14 32  1  0  0  0  0
 15 20  1  0  0  0  0
 15 16  2  0  0  0  0
 16 17  1  0  0  0  0
 16 33  1  0  0  0  0
 17 18  2  0  0  0  0
 17 34  1  0  0  0  0
 18 19  1  0  0  0  0
 18 35  1  0  0  0  0
 19 20  2  0  0  0  0
 19 36  1  0  0  0  0
 20 21  1  0  0  0  0
M  END
> <s_m_source_file>
AV-unprocessed.smi

> <i_m_source_file_index>
849

> <i_lp_mmshare_version>
43012

> <i_f3d_flags>
0

> <s_epik_input>
W2NIXTFbY0hdW2NIXVtjSF1jKGMxMiluKGMobjIpW0NIMl1bT0hdKVtDSDJdW0NASF0oW09IXSljM1tjSF1bY0hdW2NIXVtjSF1jM0Ns

> <s_epik_cmdline>
J2VwaWtfcHl0aG9uJywgJy1waCcsICc3LjAnLCAnLXRuJywgJzgnLCAnLW1hJywgJzIwMCcsICctbWV0YWxfYmluZGluZycsICctaW1hZScsICc8aW5maWxlLm1hZT4nLCAnLW9tYWUnLCAnPG91dGZpbGUubWFlPic=

> <r_epik_Ionization_Penalty>
0.0634742

> <r_epik_Ionization_Penalty_Charging>
0

> <r_epik_Ionization_Penalty_Neutral>
0.0634742

> <r_epik_State_Penalty>
0.0551572

> <r_epik_Charging_Adjusted_Penalty>
0.0551572

> <i_epik_Tot_Q>
0

> <i_epik_Tot_abs_Q>
0

> <r_epik_Metal_State_Penalty>
5.78034e-05

> <b_epik_Metal_Only>
0

> <s_lp_Force_Field>
OPLS_2005

> <r_lp_Energy>
13.6996

> <b_lp_Chiralities_Consistent>
1

> <s_lp_Variant>
AV-unprocessed.smi:849-1

> <Gold.Version>
5.8.1

> <Gold.Id.Protein>
6NUR|6NUR_protein|mol2

> <Gold.PLP.Fitness>
54.2736

> <Gold.PLP.PLP>
-50.5038

> <Gold.PLP.part.hbond>
-1.9440

> <Gold.PLP.part.metal>
0.0000

> <Gold.PLP.part.buried>
-2.4779

> <Gold.PLP.part.nonpolar>
-47.5391

> <Gold.PLP.part.repulsive>
1.1914

> <Gold.PLP.ligand.clash>
0.0000

> <Gold.PLP.ligand.torsion>
1.1294

> <Gold.PLP.Chemscore.Hbond>
1.9840

> <Gold.PLP.Chemscore.CHOScore>
0.0000

> <Gold.PLP.Chemscore.Metal>
0.0000

> <Gold.Chemscore.Hbonds>
donor molecule, donor type, donor heavy atom, donor atom, acceptor molecule, acceptor atom, score
      L1  H     1    22       P1  7949  0.99
      P1  H 10752 10765       L1     1  0.99

> <Gold.PLP.Chemscore.Internal.Correction>
0.0766

> <Gold.Rescore>
     Score         DG    S(hbond)    S(metal)    S(lipo)     H(rot)  DE(clash)    DE(int)     intcor
     17.33     -19.11       1.36        0.00     135.09       2.62       0.68       1.11       ----

> <Gold.Chemscore.Fitness>
17.3258

> <Gold.Chemscore.DG>
-19.1082

> <Gold.Chemscore.ZeroCoef>
-5.4800

> <Gold.Chemscore.Hbond>
1.3588

> <Gold.Chemscore.Metal>
0.0000

> <Gold.Chemscore.Lipo>
135.0869

> <Gold.Chemscore.Internal_Hbond>
0.0000

> <Gold.Chemscore.DEClash>
0.6751

> <Gold.Chemscore.DEInternal>
1.1073

> <Gold.Chemscore.Rot>
2.6232

> <Gold.Chemscore.Internal.Correction>
   9.000000E+99

> <Gold.Chemscore.Hbonds>
donor molecule, donor type, donor heavy atom, donor atom, acceptor molecule, acceptor atom, score
      L1  H     1    22       P1  7949  0.86
      P1  H 10752 10765       L1     1  0.23

> <Gold.Chemscore.Hbond.Weighted>
-4.5385

> <Gold.Chemscore.Metal.Weighted>
-0.0000

> <Gold.Chemscore.Lipo.Weighted>
-15.8052

> <Gold.Chemscore.Internal_Hbond.Weighted>
0.0000

> <Gold.Chemscore.DEClash.Weighted>
0.6751

> <Gold.Chemscore.DEInternal.Weighted>
1.1073

> <Gold.Chemscore.Rot.Weighted>
6.7154

> <Gold.Chemscore.Internal.Correction.Weighted>
   9.000000E+99

> <Gold.Protein.RotatedTorsions>
[ 6907 6896 6895 6894 ] final   12.56 input  -60.11 | X-H torsion
[ 7974 7965 7964 7962 ] final  140.73 input  175.53 | X-H torsion
[ 8008 7997 7996 7995 ] final  -59.23 input   59.86 | X-H torsion
[ 10167 10162 10161 10158 ] final  -76.62 input  -65.29 | X-H torsion
[ 10718 10713 10712 10709 ] final  -47.36 input   66.30 | X-H torsion
[ 10763 10752 10751 10750 ] final  142.94 input  -60.55 | X-H torsion
[ 11005 11000 10999 10996 ] final   92.22 input  -57.11 | X-H torsion

> <Gold.Protein.ActiveResidues>
 VAL166  LYS551  ARG553  GLY616  TRP617  ASP618  TYR619  PRO620  LYS621  CYS622 
 ASP623  PHE694  ASN695  SER759  ASP760  ASP761  ALA762  ILE779  LEU786  VAL792 
 PHE793  MET794  SER795  GLU796  ALA797  LYS798  CYS799  TRP800  GLU811  SER814 

> <Gold.Protein.RotatedAtoms>
  151.7722  135.0783  160.0361 H   0  0  0  0  0  0  0  0  0  0  0  0  # atno 6907 bound_to 6896
  152.3280  133.5922  159.5798 H   0  0  0  0  0  0  0  0  0  0  0  0  # atno 6908 bound_to 6896
  150.7406  133.9826  159.3623 H   0  0  0  0  0  0  0  0  0  0  0  0  # atno 6909 bound_to 6896
  144.9160  139.5230  143.5686 H   0  0  0  0  0  0  0  0  0  0  0  0  # atno 7974 bound_to 7965
  154.4343  140.1066  156.6082 H   0  0  0  0  0  0  0  0  0  0  0  0  # atno 8008 bound_to 7997
  155.5838  140.3491  155.4529 H   0  0  0  0  0  0  0  0  0  0  0  0  # atno 8009 bound_to 7997
  156.0298  140.1258  157.0259 H   0  0  0  0  0  0  0  0  0  0  0  0  # atno 8010 bound_to 7997
  140.4841  143.2395  151.8012 H   0  0  0  0  0  0  0  0  0  0  0  0  # atno 10167 bound_to 10162
  156.2092  130.4160  149.9137 H   0  0  0  0  0  0  0  0  0  0  0  0  # atno 10718 bound_to 10713
  153.9641  135.2957  155.3431 H   0  0  0  0  0  0  0  0  0  0  0  0  # atno 10763 bound_to 10752
  154.7358  135.5047  153.9043 H   0  0  0  0  0  0  0  0  0  0  0  0  # atno 10764 bound_to 10752
  153.0932  135.6713  153.9924 H   0  0  0  0  0  0  0  0  0  0  0  0  # atno 10765 bound_to 10752
  139.8826  134.8720  156.3541 H   0  0  0  0  0  0  0  0  0  0  0  0  # atno 11005 bound_to 11000
  146.3182  139.8002  142.8967 LP  0  0  0  0  0  0  0  0  0  0  0  0  # atno 17320 bound_to 7965
  145.3375  141.0280  143.3411 LP  0  0  0  0  0  0  0  0  0  0  0  0  # atno 17321 bound_to 7965
  139.4838  144.4735  151.9396 LP  0  0  0  0  0  0  0  0  0  0  0  0  # atno 17342 bound_to 10162
  140.3820  144.2724  150.5907 LP  0  0  0  0  0  0  0  0  0  0  0  0  # atno 17343 bound_to 10162
  156.6821  130.8862  151.3577 LP  0  0  0  0  0  0  0  0  0  0  0  0  # atno 17370 bound_to 10713
  157.7029  130.9353  150.0841 LP  0  0  0  0  0  0  0  0  0  0  0  0  # atno 17371 bound_to 10713
  140.9574  133.7411  156.0354 LP  0  0  0  0  0  0  0  0  0  0  0  0  # atno 17394 bound_to 11000
  140.8031  134.3485  157.5433 LP  0  0  0  0  0  0  0  0  0  0  0  0  # atno 17395 bound_to 11000

$$$$
