AV-unprocessed.smi:2300|AV-procd|sdf|9233|dock7
  -GOLD-   2272012453D 1   1.00000     0.00000
 Structure written by MMmdl.
 51 52  0  0  0  0  0  0  0  0  1 V2000
  156.4743  133.1802  161.6151 C   0  0  0  0  0  0  0  0  0  0  0  0
  155.4670  134.2993  161.3698 C   0  0  0  0  0  0  0  0  0  0  0  0
  154.8655  134.3587  160.2980 O   0  0  0  0  0  0  0  0  0  0  0  0
  155.2951  135.1822  162.3655 N   0  0  0  0  0  0  0  0  0  0  0  0
  154.3933  136.3283  162.3233 C   0  0  0  0  0  0  0  0  0  0  0  0
  155.0082  137.5087  161.5527 C   0  0  1  0  0  0  0  0  0  0  0  0
  153.9349  138.5126  161.0920 C   0  0  0  0  0  0  0  0  0  0  0  0
  154.5584  139.6675  160.4491 N   0  0  0  0  0  0  0  0  0  0  0  0
  153.7272  140.5496  159.7268 C   0  0  0  0  0  0  0  0  0  0  0  0
  153.5028  141.8714  160.1787 C   0  0  0  0  0  0  0  0  0  0  0  0
  152.6618  142.6846  159.3897 C   0  0  0  0  0  0  0  0  0  0  0  0
  152.3608  144.1241  159.7824 C   0  0  0  0  0  0  0  0  0  0  0  0
  151.8126  144.2228  161.2143 C   0  0  0  0  0  0  0  0  0  0  0  0
  151.4483  144.8160  158.7578 C   0  0  0  0  0  0  0  0  0  0  0  0
  152.0942  142.2228  158.2533 N   0  0  0  0  0  0  0  0  0  0  0  0
  152.3697  140.9630  157.9073 C   0  0  0  0  0  0  0  0  0  0  0  0
  151.7267  140.4458  156.6272 C   0  0  0  0  0  0  0  0  0  0  0  0
  150.1924  140.4903  156.6972 C   0  0  0  0  0  0  0  0  0  0  0  0
  152.2706  139.0655  156.2265 C   0  0  0  0  0  0  0  0  0  0  0  0
  153.1506  140.1123  158.5807 N   0  0  0  0  0  0  0  0  0  0  0  0
  155.5990  140.2931  161.2601 C   0  0  0  0  0  0  0  0  0  0  0  0
  156.6095  139.2376  161.7408 C   0  0  0  0  0  0  0  0  0  0  0  0
  155.9256  138.1837  162.4106 O   0  0  0  0  0  0  0  0  0  0  0  0
  156.7606  133.1228  162.6660 H   0  0  0  0  0  0  0  0  0  0  0  0
  157.3743  133.3493  161.0233 H   0  0  0  0  0  0  0  0  0  0  0  0
  156.0497  132.2182  161.3263 H   0  0  0  0  0  0  0  0  0  0  0  0
  155.8367  135.0595  163.2088 H   0  0  0  0  0  0  0  0  0  0  0  0
  153.4449  136.0330  161.8709 H   0  0  0  0  0  0  0  0  0  0  0  0
  154.1662  136.6270  163.3471 H   0  0  0  0  0  0  0  0  0  0  0  0
  155.5411  137.1290  160.6787 H   0  0  0  0  0  0  0  0  0  0  0  0
  153.2549  138.0188  160.3966 H   0  0  0  0  0  0  0  0  0  0  0  0
  153.3425  138.8510  161.9434 H   0  0  0  0  0  0  0  0  0  0  0  0
  153.9632  142.2567  161.0762 H   0  0  0  0  0  0  0  0  0  0  0  0
  153.3088  144.6636  159.7722 H   0  0  0  0  0  0  0  0  0  0  0  0
  152.5065  143.7806  161.9299 H   0  0  0  0  0  0  0  0  0  0  0  0
  150.8573  143.7064  161.3136 H   0  0  0  0  0  0  0  0  0  0  0  0
  151.6580  145.2625  161.5038 H   0  0  0  0  0  0  0  0  0  0  0  0
  151.8896  144.7901  157.7611 H   0  0  0  0  0  0  0  0  0  0  0  0
  151.2866  145.8618  159.0199 H   0  0  0  0  0  0  0  0  0  0  0  0
  150.4716  144.3341  158.7024 H   0  0  0  0  0  0  0  0  0  0  0  0
  152.0138  141.1284  155.8250 H   0  0  0  0  0  0  0  0  0  0  0  0
  149.8398  141.5003  156.9082 H   0  0  0  0  0  0  0  0  0  0  0  0
  149.8093  139.8334  157.4788 H   0  0  0  0  0  0  0  0  0  0  0  0
  149.7480  140.1760  155.7527 H   0  0  0  0  0  0  0  0  0  0  0  0
  153.3552  139.0892  156.1159 H   0  0  0  0  0  0  0  0  0  0  0  0
  151.8480  138.7385  155.2763 H   0  0  0  0  0  0  0  0  0  0  0  0
  152.0283  138.3092  156.9740 H   0  0  0  0  0  0  0  0  0  0  0  0
  156.1312  141.0667  160.7085 H   0  0  0  0  0  0  0  0  0  0  0  0
  155.1309  140.7786  162.1173 H   0  0  0  0  0  0  0  0  0  0  0  0
  157.1837  138.8384  160.9030 H   0  0  0  0  0  0  0  0  0  0  0  0
  157.3243  139.6894  162.4286 H   0  0  0  0  0  0  0  0  0  0  0  0
  1  2  1  0  0  0  0
  1 24  1  0  0  0  0
  1 25  1  0  0  0  0
  1 26  1  0  0  0  0
  2  3  2  0  0  0  0
  2  4  1  0  0  0  0
  4  5  1  0  0  0  0
  4 27  1  0  0  0  0
  5  6  1  0  0  0  0
  5 28  1  0  0  0  0
  5 29  1  0  0  0  0
  6 23  1  0  0  0  0
  6  7  1  0  0  0  0
  6 30  1  0  0  0  0
  7  8  1  0  0  0  0
  7 31  1  0  0  0  0
  7 32  1  0  0  0  0
  8  9  1  0  0  0  0
  8 21  1  0  0  0  0
  9 20  1  0  0  0  0
  9 10  2  0  0  0  0
 10 11  1  0  0  0  0
 10 33  1  0  0  0  0
 11 12  1  0  0  0  0
 11 15  2  0  0  0  0
 12 13  1  0  0  0  0
 12 14  1  0  0  0  0
 12 34  1  0  0  0  0
 13 35  1  0  0  0  0
 13 36  1  0  0  0  0
 13 37  1  0  0  0  0
 14 38  1  0  0  0  0
 14 39  1  0  0  0  0
 14 40  1  0  0  0  0
 15 16  1  0  0  0  0
 16 17  1  0  0  0  0
 16 20  2  0  0  0  0
 17 18  1  0  0  0  0
 17 19  1  0  0  0  0
 17 41  1  0  0  0  0
 18 42  1  0  0  0  0
 18 43  1  0  0  0  0
 18 44  1  0  0  0  0
 19 45  1  0  0  0  0
 19 46  1  0  0  0  0
 19 47  1  0  0  0  0
 21 22  1  0  0  0  0
 21 48  1  0  0  0  0
 21 49  1  0  0  0  0
 22 23  1  0  0  0  0
 22 50  1  0  0  0  0
 22 51  1  0  0  0  0
M  END
> <s_m_source_file>
AV-unprocessed.smi

> <i_m_source_file_index>
2300

> <i_lp_mmshare_version>
43012

> <i_f3d_flags>
0

> <s_epik_input>
W0NIM11DKD1PKVtOSF1bQ0gyXVtDQEBIXTFbQ0gyXU4oW0NIMl1bQ0gyXU8xKWMyW2NIXWMoW0NIXShbQ0gzXSlbQ0gzXSluYyhuMilbQ0hdKFtDSDNdKVtDSDNd

> <s_epik_cmdline>
J2VwaWtfcHl0aG9uJywgJy1waCcsICc3LjAnLCAnLXRuJywgJzgnLCAnLW1hJywgJzIwMCcsICctbWV0YWxfYmluZGluZycsICctaW1hZScsICc8aW5maWxlLm1hZT4nLCAnLW9tYWUnLCAnPG91dGZpbGUubWFlPic=

> <r_lp_tautomer_probability>
1

> <r_epik_Ionization_Penalty>
0.0035465

> <r_epik_Ionization_Penalty_Charging>
0

> <r_epik_Ionization_Penalty_Neutral>
0.0035465

> <r_epik_State_Penalty>
0.00247846

> <r_epik_Charging_Adjusted_Penalty>
0.00247846

> <i_epik_Tot_Q>
0

> <i_epik_Tot_abs_Q>
0

> <r_epik_Metal_State_Penalty>
-0

> <b_epik_Metal_Only>
0

> <s_lp_Force_Field>
OPLS_2005

> <r_lp_Energy>
1.47364

> <b_lp_Chiralities_Consistent>
1

> <s_lp_Variant>
AV-unprocessed.smi:2300-2

> <Gold.Version>
5.8.1

> <Gold.Id.Protein>
6NUR|6NUR_protein|mol2

> <Gold.PLP.Fitness>
43.6890

> <Gold.PLP.PLP>
-39.0984

> <Gold.PLP.part.hbond>
-2.0000

> <Gold.PLP.part.metal>
0.0000

> <Gold.PLP.part.buried>
-4.0114

> <Gold.PLP.part.nonpolar>
-32.3322

> <Gold.PLP.part.repulsive>
0.0655

> <Gold.PLP.ligand.clash>
0.0000

> <Gold.PLP.ligand.torsion>
0.8445

> <Gold.PLP.Chemscore.Hbond>
1.9350

> <Gold.PLP.Chemscore.CHOScore>
0.0000

> <Gold.PLP.Chemscore.Metal>
0.0000

> <Gold.Chemscore.Hbonds>
donor molecule, donor type, donor heavy atom, donor atom, acceptor molecule, acceptor atom, score
      P1  H  6896  6909       L1     3  0.32
      P1  H  7997  8008       L1    20  0.52

> <Gold.PLP.Chemscore.Internal.Correction>
0.4747

> <Gold.Rescore>
     Score         DG    S(hbond)    S(metal)    S(lipo)     H(rot)  DE(clash)    DE(int)     intcor
     16.47     -17.44       1.09        0.00     110.67       1.82       0.11       0.86       ----

> <Gold.Chemscore.Fitness>
16.4699

> <Gold.Chemscore.DG>
-17.4368

> <Gold.Chemscore.ZeroCoef>
-5.4800

> <Gold.Chemscore.Hbond>
1.0948

> <Gold.Chemscore.Metal>
0.0000

> <Gold.Chemscore.Lipo>
110.6689

> <Gold.Chemscore.Internal_Hbond>
0.0000

> <Gold.Chemscore.DEClash>
0.1104

> <Gold.Chemscore.DEInternal>
0.8565

> <Gold.Chemscore.Rot>
1.8156

> <Gold.Chemscore.Internal.Correction>
   9.000000E+99

> <Gold.Chemscore.Hbonds>
donor molecule, donor type, donor heavy atom, donor atom, acceptor molecule, acceptor atom, score
      P1  H  6896  6909       L1     3  0.31
      P1  H  7997  8008       L1    20  0.03

> <Gold.Chemscore.Hbond.Weighted>
-3.6566

> <Gold.Chemscore.Metal.Weighted>
-0.0000

> <Gold.Chemscore.Lipo.Weighted>
-12.9483

> <Gold.Chemscore.Internal_Hbond.Weighted>
0.0000

> <Gold.Chemscore.DEClash.Weighted>
0.1104

> <Gold.Chemscore.DEInternal.Weighted>
0.8565

> <Gold.Chemscore.Rot.Weighted>
4.6481

> <Gold.Chemscore.Internal.Correction.Weighted>
   9.000000E+99

> <Gold.Protein.RotatedTorsions>
[ 6907 6896 6895 6894 ] final -146.74 input  -60.11 | X-H torsion
[ 7974 7965 7964 7962 ] final  120.77 input  175.53 | X-H torsion
[ 8008 7997 7996 7995 ] final  -85.54 input   59.86 | X-H torsion
[ 10167 10162 10161 10158 ] final   64.30 input  -65.29 | X-H torsion
[ 10718 10713 10712 10709 ] final  150.79 input   66.30 | X-H torsion
[ 10763 10752 10751 10750 ] final   52.63 input  -60.55 | X-H torsion
[ 11005 11000 10999 10996 ] final  -16.86 input  -57.11 | X-H torsion

> <Gold.Protein.ActiveResidues>
 VAL166  LYS551  ARG553  GLY616  TRP617  ASP618  TYR619  PRO620  LYS621  CYS622 
 ASP623  PHE694  ASN695  SER759  ASP760  ASP761  ALA762  ILE779  LEU786  VAL792 
 PHE793  MET794  SER795  GLU796  ALA797  LYS798  CYS799  TRP800  GLU811  SER814 

> <Gold.Protein.RotatedAtoms>
  151.1459  133.4940  159.2595 H   0  0  0  0  0  0  0  0  0  0  0  0  # atno 6907 bound_to 6896
  151.1605  135.0271  159.8718 H   0  0  0  0  0  0  0  0  0  0  0  0  # atno 6908 bound_to 6896
  152.5463  134.1333  159.8501 H   0  0  0  0  0  0  0  0  0  0  0  0  # atno 6909 bound_to 6896
  145.1272  139.3351  143.4684 H   0  0  0  0  0  0  0  0  0  0  0  0  # atno 7974 bound_to 7965
  154.6419  140.0590  156.9855 H   0  0  0  0  0  0  0  0  0  0  0  0  # atno 8008 bound_to 7997
  155.1504  140.3273  155.4414 H   0  0  0  0  0  0  0  0  0  0  0  0  # atno 8009 bound_to 7997
  156.2535  140.1948  156.6616 H   0  0  0  0  0  0  0  0  0  0  0  0  # atno 8010 bound_to 7997
  140.1237  144.4708  150.6905 H   0  0  0  0  0  0  0  0  0  0  0  0  # atno 10167 bound_to 10162
  157.2789  131.0831  151.1546 H   0  0  0  0  0  0  0  0  0  0  0  0  # atno 10718 bound_to 10713
  152.9790  135.5806  154.4610 H   0  0  0  0  0  0  0  0  0  0  0  0  # atno 10763 bound_to 10752
  154.4186  135.2771  155.1992 H   0  0  0  0  0  0  0  0  0  0  0  0  # atno 10764 bound_to 10752
  154.3751  135.6159  153.5814 H   0  0  0  0  0  0  0  0  0  0  0  0  # atno 10765 bound_to 10752
  140.8110  133.8140  155.9563 H   0  0  0  0  0  0  0  0  0  0  0  0  # atno 11005 bound_to 11000
  146.3517  140.1256  142.8599 LP  0  0  0  0  0  0  0  0  0  0  0  0  # atno 17320 bound_to 7965
  145.0675  140.9132  143.4902 LP  0  0  0  0  0  0  0  0  0  0  0  0  # atno 17321 bound_to 7965
  140.6857  143.2349  151.5265 LP  0  0  0  0  0  0  0  0  0  0  0  0  # atno 17342 bound_to 10162
  139.5555  144.2285  152.1605 LP  0  0  0  0  0  0  0  0  0  0  0  0  # atno 17343 bound_to 10162
  157.2988  130.6832  149.6153 LP  0  0  0  0  0  0  0  0  0  0  0  0  # atno 17370 bound_to 10713
  155.9664  130.4398  150.5275 LP  0  0  0  0  0  0  0  0  0  0  0  0  # atno 17371 bound_to 10713
  140.9197  134.2157  157.4934 LP  0  0  0  0  0  0  0  0  0  0  0  0  # atno 17394 bound_to 11000
  139.8714  134.9787  156.5007 LP  0  0  0  0  0  0  0  0  0  0  0  0  # atno 17395 bound_to 11000

$$$$
