AV-unprocessed.smi:1697|AV-procd|sdf|6803|dock6
  -GOLD-   22720 7573D 1   1.00000     0.00000
 Structure written by MMmdl.
 54 56  0  0  0  0  0  0  0  0  2 V2000
  142.6983  146.8814  155.3800 C   0  0  0  0  0  0  0  0  0  0  0  0
  143.0785  145.5347  154.7606 C   0  0  0  0  0  0  0  0  0  0  0  0
  143.8491  144.8030  155.7023 O   0  0  0  0  0  0  0  0  0  0  0  0
  144.4868  143.6466  155.1763 C   0  0  2  0  0  0  0  0  0  0  0  0
  145.4742  143.0406  156.1913 C   0  0  0  0  0  0  0  0  0  0  0  0
  146.2887  141.8984  155.5606 C   0  0  0  0  0  0  0  0  0  0  0  0
  147.0081  142.3610  154.3440 N   0  3  1  0  0  0  0  0  0  0  0  0
  147.9223  141.3382  153.7731 C   0  0  0  0  0  0  0  0  0  0  0  0
  149.2662  141.2698  154.5243 C   0  0  2  0  0  0  0  0  0  0  0  0
  150.0980  140.3207  153.8839 O   0  0  0  0  0  0  0  0  0  0  0  0
  149.0823  140.8702  156.0011 C   0  0  0  0  0  0  0  0  0  0  0  0
  150.2906  141.0705  156.7801 N   0  0  0  0  0  0  0  0  0  0  0  0
  151.4582  140.4088  156.6616 C   0  0  0  0  0  0  0  0  0  0  0  0
  152.4447  140.7641  157.4793 N   0  0  0  0  0  0  0  0  0  0  0  0
  151.8467  141.7714  158.2171 C   0  0  0  0  0  0  0  0  0  0  0  0
  152.3594  142.5723  159.2608 C   0  0  0  0  0  0  0  0  0  0  0  0
  151.5567  143.5567  159.8800 C   0  0  0  0  0  0  0  0  0  0  0  0
  152.1496  144.3976  160.9968 C   0  0  0  0  0  0  0  0  0  0  0  0
  150.2168  143.7503  159.4576 C   0  0  0  0  0  0  0  0  0  0  0  0
  149.3348  144.7993  160.1111 C   0  0  0  0  0  0  0  0  0  0  0  0
  149.6893  142.9605  158.4148 C   0  0  0  0  0  0  0  0  0  0  0  0
  150.4988  141.9855  157.8058 C   0  0  0  0  0  0  0  0  0  0  0  0
  146.0684  142.9112  153.3338 C   0  0  0  0  0  0  0  0  0  0  0  0
  145.2537  144.0769  153.9173 C   0  0  0  0  0  0  0  0  0  0  0  0
  142.1073  147.4773  154.6840 H   0  0  0  0  0  0  0  0  0  0  0  0
  143.5867  147.4563  155.6423 H   0  0  0  0  0  0  0  0  0  0  0  0
  142.1082  146.7430  156.2865 H   0  0  0  0  0  0  0  0  0  0  0  0
  142.1750  144.9888  154.4893 H   0  0  0  0  0  0  0  0  0  0  0  0
  143.6535  145.6979  153.8479 H   0  0  0  0  0  0  0  0  0  0  0  0
  143.7399  142.9033  154.8908 H   0  0  0  0  0  0  0  0  0  0  0  0
  146.1524  143.8151  156.5523 H   0  0  0  0  0  0  0  0  0  0  0  0
  144.9436  142.6625  157.0649 H   0  0  0  0  0  0  0  0  0  0  0  0
  146.9939  141.5190  156.2990 H   0  0  0  0  0  0  0  0  0  0  0  0
  145.6290  141.0687  155.3014 H   0  0  0  0  0  0  0  0  0  0  0  0
  147.4257  140.3666  153.7825 H   0  0  0  0  0  0  0  0  0  0  0  0
  148.1252  141.5629  152.7246 H   0  0  0  0  0  0  0  0  0  0  0  0
  149.7678  142.2365  154.4883 H   0  0  0  0  0  0  0  0  0  0  0  0
  149.7834  140.1862  153.0026 H   0  0  0  0  0  0  0  0  0  0  0  0
  148.2858  141.4612  156.4551 H   0  0  0  0  0  0  0  0  0  0  0  0
  148.7805  139.8248  156.0837 H   0  0  0  0  0  0  0  0  0  0  0  0
  151.5937  139.6256  155.9301 H   0  0  0  0  0  0  0  0  0  0  0  0
  153.3794  142.4232  159.5834 H   0  0  0  0  0  0  0  0  0  0  0  0
  151.5910  144.2526  161.9218 H   0  0  0  0  0  0  0  0  0  0  0  0
  152.1199  145.4556  160.7353 H   0  0  0  0  0  0  0  0  0  0  0  0
  153.1892  144.1301  161.1881 H   0  0  0  0  0  0  0  0  0  0  0  0
  148.3307  144.7957  159.6861 H   0  0  0  0  0  0  0  0  0  0  0  0
  149.7560  145.7947  159.9682 H   0  0  0  0  0  0  0  0  0  0  0  0
  149.2451  144.6112  161.1813 H   0  0  0  0  0  0  0  0  0  0  0  0
  148.6712  143.0981  158.0825 H   0  0  0  0  0  0  0  0  0  0  0  0
  146.6261  143.2675  152.4668 H   0  0  0  0  0  0  0  0  0  0  0  0
  145.4025  142.1213  152.9823 H   0  0  0  0  0  0  0  0  0  0  0  0
  144.5565  144.4542  153.1683 H   0  0  0  0  0  0  0  0  0  0  0  0
  145.9243  144.9031  154.1586 H   0  0  0  0  0  0  0  0  0  0  0  0
  147.5968  143.1325  154.6256 H   0  0  0  0  0  0  0  0  0  0  0  0
  1  2  1  0  0  0  0
  1 25  1  0  0  0  0
  1 26  1  0  0  0  0
  1 27  1  0  0  0  0
  2  3  1  0  0  0  0
  2 28  1  0  0  0  0
  2 29  1  0  0  0  0
  3  4  1  0  0  0  0
  4 24  1  0  0  0  0
  4  5  1  0  0  0  0
  4 30  1  0  0  0  0
  5  6  1  0  0  0  0
  5 31  1  0  0  0  0
  5 32  1  0  0  0  0
  6  7  1  0  0  0  0
  6 33  1  0  0  0  0
  6 34  1  0  0  0  0
  7  8  1  0  0  0  0
  7 23  1  0  0  0  0
  7 54  1  0  0  0  0
  8  9  1  0  0  0  0
  8 35  1  0  0  0  0
  8 36  1  0  0  0  0
  9 10  1  0  0  0  0
  9 11  1  0  0  0  0
  9 37  1  0  0  0  0
 10 38  1  0  0  0  0
 11 12  1  0  0  0  0
 11 39  1  0  0  0  0
 11 40  1  0  0  0  0
 12 22  1  0  0  0  0
 12 13  1  0  0  0  0
 13 14  2  0  0  0  0
 13 41  1  0  0  0  0
 14 15  1  0  0  0  0
 15 22  2  0  0  0  0
 15 16  1  0  0  0  0
 16 17  2  0  0  0  0
 16 42  1  0  0  0  0
 17 18  1  0  0  0  0
 17 19  1  0  0  0  0
 18 43  1  0  0  0  0
 18 44  1  0  0  0  0
 18 45  1  0  0  0  0
 19 20  1  0  0  0  0
 19 21  2  0  0  0  0
 20 46  1  0  0  0  0
 20 47  1  0  0  0  0
 20 48  1  0  0  0  0
 21 22  1  0  0  0  0
 21 49  1  0  0  0  0
 23 24  1  0  0  0  0
 23 50  1  0  0  0  0
 23 51  1  0  0  0  0
 24 52  1  0  0  0  0
 24 53  1  0  0  0  0
M  CHG  1   7   1
M  END
> <s_m_source_file>
AV-unprocessed.smi

> <i_m_source_file_index>
1697

> <i_lp_mmshare_version>
43012

> <i_f3d_flags>
0

> <s_epik_input>
W0NIM11bQ0gyXU9bQ0hdMVtDSDJdW0NIMl1OKFtDSDJdW0NIMl0xKVtDSDJdW0NASF0oW09IXSlbQ0gyXW4oW2NIXW4yKWMoYzIzKVtjSF1jKFtDSDNdKWMoW2NIXTMpW0NIM10=

> <s_epik_cmdline>
J2VwaWtfcHl0aG9uJywgJy1waCcsICc3LjAnLCAnLXRuJywgJzgnLCAnLW1hJywgJzIwMCcsICctbWV0YWxfYmluZGluZycsICctaW1hZScsICc8aW5maWxlLm1hZT4nLCAnLW9tYWUnLCAnPG91dGZpbGUubWFlPic=

> <r_epik_Ionization_Penalty>
0.112476

> <r_epik_Ionization_Penalty_Charging>
0.0244612

> <r_epik_Ionization_Penalty_Neutral>
0.0880147

> <r_epik_State_Penalty>
0.0961447

> <r_epik_Charging_Adjusted_Penalty>
0.120606

> <i_epik_Tot_Q>
1

> <i_epik_Tot_abs_Q>
1

> <r_epik_Metal_State_Penalty>
0.0206204

> <b_epik_Metal_Only>
0

> <s_lp_Force_Field>
OPLS_2005

> <r_lp_Energy>
22.6968

> <b_lp_Chiralities_Consistent>
1

> <s_lp_Variant>
AV-unprocessed.smi:1697-1

> <Gold.Version>
5.8.1

> <Gold.Id.Protein>
6NUR|6NUR_protein|mol2

> <Gold.PLP.Fitness>
57.8727

> <Gold.PLP.PLP>
-44.9233

> <Gold.PLP.part.hbond>
-3.9802

> <Gold.PLP.part.metal>
0.0000

> <Gold.PLP.part.buried>
-5.0961

> <Gold.PLP.part.nonpolar>
-32.2657

> <Gold.PLP.part.repulsive>
0.2154

> <Gold.PLP.ligand.clash>
0.0000

> <Gold.PLP.ligand.torsion>
0.4541

> <Gold.PLP.Chemscore.Hbond>
4.5617

> <Gold.PLP.Chemscore.CHOScore>
0.0000

> <Gold.PLP.Chemscore.Metal>
0.0000

> <Gold.Chemscore.Hbonds>
donor molecule, donor type, donor heavy atom, donor atom, acceptor molecule, acceptor atom, score
      L1  H     7    54       P1  8028  0.91
      L1  H    10    38       P1  7957  1.00
      P1  H  7989  7998       L1    10  0.65
      P1  H  7997  8008       L1    14  0.44

> <Gold.PLP.Chemscore.Internal.Correction>
0.1726

> <Gold.Rescore>
     Score         DG    S(hbond)    S(metal)    S(lipo)     H(rot)  DE(clash)    DE(int)     intcor
     19.78     -22.24       2.35        0.00     125.95       2.27       1.84       0.62       ----

> <Gold.Chemscore.Fitness>
19.7844

> <Gold.Chemscore.DG>
-22.2428

> <Gold.Chemscore.ZeroCoef>
-5.4800

> <Gold.Chemscore.Hbond>
2.3475

> <Gold.Chemscore.Metal>
0.0000

> <Gold.Chemscore.Lipo>
125.9481

> <Gold.Chemscore.Internal_Hbond>
0.0000

> <Gold.Chemscore.DEClash>
1.8434

> <Gold.Chemscore.DEInternal>
0.6150

> <Gold.Chemscore.Rot>
2.2710

> <Gold.Chemscore.Internal.Correction>
   9.000000E+99

> <Gold.Chemscore.Hbonds>
donor molecule, donor type, donor heavy atom, donor atom, acceptor molecule, acceptor atom, score
      L1  H     7    54       P1  8028  0.28
      L1  H    10    38       P1  7957  1.00
      P1  H  7989  7998       L1    10  0.10
      P1  H  7997  8008       L1    14  0.34

> <Gold.Chemscore.Hbond.Weighted>
-7.8406

> <Gold.Chemscore.Metal.Weighted>
-0.0000

> <Gold.Chemscore.Lipo.Weighted>
-14.7359

> <Gold.Chemscore.Internal_Hbond.Weighted>
0.0000

> <Gold.Chemscore.DEClash.Weighted>
1.8434

> <Gold.Chemscore.DEInternal.Weighted>
0.6150

> <Gold.Chemscore.Rot.Weighted>
5.8137

> <Gold.Chemscore.Internal.Correction.Weighted>
   9.000000E+99

> <Gold.Protein.RotatedTorsions>
[ 6907 6896 6895 6894 ] final  161.47 input  -60.11 | X-H torsion
[ 7974 7965 7964 7962 ] final  -84.83 input  175.53 | X-H torsion
[ 8008 7997 7996 7995 ] final  -63.68 input   59.86 | X-H torsion
[ 10167 10162 10161 10158 ] final -114.49 input  -65.29 | X-H torsion
[ 10718 10713 10712 10709 ] final -140.98 input   66.30 | X-H torsion
[ 10763 10752 10751 10750 ] final  -66.17 input  -60.55 | X-H torsion
[ 11005 11000 10999 10996 ] final  173.57 input  -57.11 | X-H torsion

> <Gold.Protein.ActiveResidues>
 VAL166  LYS551  ARG553  GLY616  TRP617  ASP618  TYR619  PRO620  LYS621  CYS622 
 ASP623  PHE694  ASN695  SER759  ASP760  ASP761  ALA762  ILE779  LEU786  VAL792 
 PHE793  MET794  SER795  GLU796  ALA797  LYS798  CYS799  TRP800  GLU811  SER814 

> <Gold.Protein.RotatedAtoms>
  151.9551  133.3678  159.4014 H   0  0  0  0  0  0  0  0  0  0  0  0  # atno 6907 bound_to 6896
  150.6974  134.4300  159.5253 H   0  0  0  0  0  0  0  0  0  0  0  0  # atno 6908 bound_to 6896
  152.1979  134.8614  160.0561 H   0  0  0  0  0  0  0  0  0  0  0  0  # atno 6909 bound_to 6896
  145.5013  140.9547  143.1758 H   0  0  0  0  0  0  0  0  0  0  0  0  # atno 7974 bound_to 7965
  154.4568  140.0970  156.6780 H   0  0  0  0  0  0  0  0  0  0  0  0  # atno 8008 bound_to 7997
  155.5114  140.3476  155.4371 H   0  0  0  0  0  0  0  0  0  0  0  0  # atno 8009 bound_to 7997
  156.0793  140.1369  156.9721 H   0  0  0  0  0  0  0  0  0  0  0  0  # atno 8010 bound_to 7997
  140.1004  143.4618  152.1816 H   0  0  0  0  0  0  0  0  0  0  0  0  # atno 10167 bound_to 10162
  156.3287  130.7574  151.1687 H   0  0  0  0  0  0  0  0  0  0  0  0  # atno 10718 bound_to 10713
  154.3559  135.6126  153.5666 H   0  0  0  0  0  0  0  0  0  0  0  0  # atno 10763 bound_to 10752
  152.9796  135.5803  154.4689 H   0  0  0  0  0  0  0  0  0  0  0  0  # atno 10764 bound_to 10752
  154.4418  135.2850  155.1819 H   0  0  0  0  0  0  0  0  0  0  0  0  # atno 10765 bound_to 10752
  140.3420  134.7268  157.4208 H   0  0  0  0  0  0  0  0  0  0  0  0  # atno 11005 bound_to 11000
  144.7778  139.6591  143.7167 LP  0  0  0  0  0  0  0  0  0  0  0  0  # atno 17320 bound_to 7965
  146.2224  139.5660  142.9609 LP  0  0  0  0  0  0  0  0  0  0  0  0  # atno 17321 bound_to 7965
  139.5674  144.7443  151.3983 LP  0  0  0  0  0  0  0  0  0  0  0  0  # atno 17342 bound_to 10162
  140.6981  143.7700  150.7358 LP  0  0  0  0  0  0  0  0  0  0  0  0  # atno 17343 bound_to 10162
  157.7426  131.0487  150.5010 LP  0  0  0  0  0  0  0  0  0  0  0  0  # atno 17370 bound_to 10713
  156.5173  130.4153  149.6269 LP  0  0  0  0  0  0  0  0  0  0  0  0  # atno 17371 bound_to 10713
  140.0773  134.5779  155.8577 LP  0  0  0  0  0  0  0  0  0  0  0  0  # atno 17394 bound_to 11000
  141.2036  133.6633  156.6072 LP  0  0  0  0  0  0  0  0  0  0  0  0  # atno 17395 bound_to 11000

$$$$
