AV-unprocessed.smi:3085|AV-procd|sdf|11757|dock3
  -GOLD-   2272017143D 1   1.00000     0.00000
 Structure written by MMmdl.
 27 28  0  0  0  0  0  0  0  0  1 V2000
  152.2831  144.0164  161.4524 C   0  0  0  0  0  0  0  0  0  0  0  0
  152.6171  142.8477  160.5185 C   0  0  0  0  0  0  0  0  0  0  0  0
  151.8369  142.8990  159.2467 C   0  0  0  0  0  0  0  0  0  0  0  0
  151.9455  141.9443  158.2740 N   0  0  0  0  0  0  0  0  0  0  0  0
  151.1199  142.4423  157.3586 C   0  0  0  0  0  0  0  0  0  0  0  0
  150.7950  141.7859  156.0523 C   0  0  1  0  0  0  0  0  0  0  0  0
  151.5125  140.4320  155.8853 C   0  0  0  0  0  0  0  0  0  0  0  0
  151.1048  139.7927  154.6352 N   0  0  0  0  0  0  0  0  0  0  0  0
  149.6511  139.6576  154.5598 C   0  0  0  0  0  0  0  0  0  0  0  0
  148.9757  141.0254  154.7628 C   0  0  0  0  0  0  0  0  0  0  0  0
  149.3842  141.5794  156.0091 O   0  0  0  0  0  0  0  0  0  0  0  0
  150.5656  143.5934  157.7498 N   0  0  0  0  0  0  0  0  0  0  0  0
  151.0273  143.9213  158.9748 N   0  0  0  0  0  0  0  0  0  0  0  0
  149.9093  144.1632  157.2352 H   0  0  0  0  0  0  0  0  0  0  0  0
  152.8657  143.9571  162.3718 H   0  0  0  0  0  0  0  0  0  0  0  0
  151.2276  144.0115  161.7262 H   0  0  0  0  0  0  0  0  0  0  0  0
  152.5026  144.9736  160.9785 H   0  0  0  0  0  0  0  0  0  0  0  0
  153.6819  142.8566  160.2829 H   0  0  0  0  0  0  0  0  0  0  0  0
  152.4199  141.9013  161.0236 H   0  0  0  0  0  0  0  0  0  0  0  0
  151.0857  142.4670  155.2499 H   0  0  0  0  0  0  0  0  0  0  0  0
  152.5933  140.5748  155.8971 H   0  0  0  0  0  0  0  0  0  0  0  0
  151.2728  139.7817  156.7276 H   0  0  0  0  0  0  0  0  0  0  0  0
  151.5366  138.8767  154.5648 H   0  0  0  0  0  0  0  0  0  0  0  0
  149.3633  139.2360  153.5965 H   0  0  0  0  0  0  0  0  0  0  0  0
  149.3032  138.9610  155.3236 H   0  0  0  0  0  0  0  0  0  0  0  0
  149.2205  141.7078  153.9470 H   0  0  0  0  0  0  0  0  0  0  0  0
  147.8915  140.9108  154.7669 H   0  0  0  0  0  0  0  0  0  0  0  0
  1  2  1  0  0  0  0
  1 15  1  0  0  0  0
  1 16  1  0  0  0  0
  1 17  1  0  0  0  0
  2 18  1  0  0  0  0
  2 19  1  0  0  0  0
  2  3  1  0  0  0  0
  3  4  1  0  0  0  0
  3 13  2  0  0  0  0
  4  5  2  0  0  0  0
  5  6  1  0  0  0  0
  5 12  1  0  0  0  0
  6 11  1  0  0  0  0
  6  7  1  0  0  0  0
  6 20  1  0  0  0  0
  7  8  1  0  0  0  0
  7 21  1  0  0  0  0
  7 22  1  0  0  0  0
  8  9  1  0  0  0  0
  8 23  1  0  0  0  0
  9 10  1  0  0  0  0
  9 24  1  0  0  0  0
  9 25  1  0  0  0  0
 10 11  1  0  0  0  0
 10 26  1  0  0  0  0
 10 27  1  0  0  0  0
 12 13  1  0  0  0  0
 12 14  1  0  0  0  0
M  END
> <s_m_source_file>
AV-unprocessed.smi

> <i_m_source_file_index>
3085

> <i_lp_mmshare_version>
43012

> <i_f3d_flags>
0

> <s_epik_input>
W0NIM11bQ0gyXWMxbmMobltuSF0xKVtDQEBIXTJbQ0gyXVtOSF1bQ0gyXVtDSDJdTzI=

> <s_epik_cmdline>
J2VwaWtfcHl0aG9uJywgJy1waCcsICc3LjAnLCAnLXRuJywgJzgnLCAnLW1hJywgJzIwMCcsICctbWV0YWxfYmluZGluZycsICctaW1hZScsICc8aW5maWxlLm1hZT4nLCAnLW9tYWUnLCAnPG91dGZpbGUubWFlPic=

> <r_epik_Ionization_Penalty>
0.98256

> <r_epik_Ionization_Penalty_Charging>
0

> <r_epik_Ionization_Penalty_Neutral>
0.98256

> <r_epik_State_Penalty>
1.54989

> <r_epik_Charging_Adjusted_Penalty>
1.54989

> <i_epik_Tot_Q>
0

> <i_epik_Tot_abs_Q>
0

> <r_epik_Metal_State_Penalty>
1.76981

> <b_epik_Metal_Only>
0

> <s_lp_Force_Field>
OPLS_2005

> <r_lp_Energy>
9.32891

> <b_lp_Chiralities_Consistent>
1

> <s_lp_Variant>
AV-unprocessed.smi:3085-8

> <Gold.Version>
5.8.1

> <Gold.Id.Protein>
6NUR|6NUR_protein|mol2

> <Gold.PLP.Fitness>
34.8881

> <Gold.PLP.PLP>
-28.9275

> <Gold.PLP.part.hbond>
-2.0000

> <Gold.PLP.part.metal>
0.0000

> <Gold.PLP.part.buried>
-5.4694

> <Gold.PLP.part.nonpolar>
-21.7307

> <Gold.PLP.part.repulsive>
0.5410

> <Gold.PLP.ligand.clash>
0.0000

> <Gold.PLP.ligand.torsion>
0.0242

> <Gold.PLP.Chemscore.Hbond>
2.0000

> <Gold.PLP.Chemscore.CHOScore>
0.0000

> <Gold.PLP.Chemscore.Metal>
0.0000

> <Gold.Chemscore.Hbonds>
donor molecule, donor type, donor heavy atom, donor atom, acceptor molecule, acceptor atom, score
      L1  H    12    14       P1  8028  1.00
      P1  H  7989  7998       L1     8  1.00

> <Gold.PLP.Chemscore.Internal.Correction>
0.0090

> <Gold.Rescore>
     Score         DG    S(hbond)    S(metal)    S(lipo)     H(rot)  DE(clash)    DE(int)     intcor
     11.79     -11.84       1.02        0.00      53.34       1.28       0.04       0.01       ----

> <Gold.Chemscore.Fitness>
11.7876

> <Gold.Chemscore.DG>
-11.8369

> <Gold.Chemscore.ZeroCoef>
-5.4800

> <Gold.Chemscore.Hbond>
1.0171

> <Gold.Chemscore.Metal>
0.0000

> <Gold.Chemscore.Lipo>
53.3375

> <Gold.Chemscore.Internal_Hbond>
0.0000

> <Gold.Chemscore.DEClash>
0.0440

> <Gold.Chemscore.DEInternal>
0.0054

> <Gold.Chemscore.Rot>
1.2815

> <Gold.Chemscore.Internal.Correction>
   9.000000E+99

> <Gold.Chemscore.Hbonds>
donor molecule, donor type, donor heavy atom, donor atom, acceptor molecule, acceptor atom, score
      L1  H    12    14       P1  8028  0.64
      P1  H  7989  7998       L1     8  0.25

> <Gold.Chemscore.Hbond.Weighted>
-3.3969

> <Gold.Chemscore.Metal.Weighted>
-0.0000

> <Gold.Chemscore.Lipo.Weighted>
-6.2405

> <Gold.Chemscore.Internal_Hbond.Weighted>
0.0000

> <Gold.Chemscore.DEClash.Weighted>
0.0440

> <Gold.Chemscore.DEInternal.Weighted>
0.0054

> <Gold.Chemscore.Rot.Weighted>
3.2805

> <Gold.Chemscore.Internal.Correction.Weighted>
   9.000000E+99

> <Gold.Protein.RotatedTorsions>
[ 6907 6896 6895 6894 ] final  -56.14 input  -60.11 | X-H torsion
[ 7974 7965 7964 7962 ] final  175.81 input  175.53 | X-H torsion
[ 8008 7997 7996 7995 ] final -108.94 input   59.86 | X-H torsion
[ 10167 10162 10161 10158 ] final  152.23 input  -65.29 | X-H torsion
[ 10718 10713 10712 10709 ] final -120.43 input   66.30 | X-H torsion
[ 10763 10752 10751 10750 ] final  -35.94 input  -60.55 | X-H torsion
[ 11005 11000 10999 10996 ] final   96.76 input  -57.11 | X-H torsion

> <Gold.Protein.ActiveResidues>
 VAL166  LYS551  ARG553  GLY616  TRP617  ASP618  TYR619  PRO620  LYS621  CYS622 
 ASP623  PHE694  ASN695  SER759  ASP760  ASP761  ALA762  ILE779  LEU786  VAL792 
 PHE793  MET794  SER795  GLU796  ALA797  LYS798  CYS799  TRP800  GLU811  SER814 

> <Gold.Protein.RotatedAtoms>
  150.8192  134.7391  159.6757 H   0  0  0  0  0  0  0  0  0  0  0  0  # atno 6907 bound_to 6896
  152.4309  134.5776  159.9948 H   0  0  0  0  0  0  0  0  0  0  0  0  # atno 6908 bound_to 6896
  151.5965  133.3323  159.3074 H   0  0  0  0  0  0  0  0  0  0  0  0  # atno 6909 bound_to 6896
  144.7195  140.0003  143.6440 H   0  0  0  0  0  0  0  0  0  0  0  0  # atno 7974 bound_to 7965
  154.9519  140.0400  157.2148 H   0  0  0  0  0  0  0  0  0  0  0  0  # atno 8008 bound_to 7997
  154.7971  140.2845  155.5927 H   0  0  0  0  0  0  0  0  0  0  0  0  # atno 8009 bound_to 7997
  156.2957  140.2562  156.2831 H   0  0  0  0  0  0  0  0  0  0  0  0  # atno 8010 bound_to 7997
  139.4834  144.5375  151.7621 H   0  0  0  0  0  0  0  0  0  0  0  0  # atno 10167 bound_to 10162
  156.1258  130.6358  150.9539 H   0  0  0  0  0  0  0  0  0  0  0  0  # atno 10718 bound_to 10713
  153.8715  135.6830  153.4774 H   0  0  0  0  0  0  0  0  0  0  0  0  # atno 10763 bound_to 10752
  153.1284  135.4708  154.9308 H   0  0  0  0  0  0  0  0  0  0  0  0  # atno 10764 bound_to 10752
  154.7712  135.3239  154.8137 H   0  0  0  0  0  0  0  0  0  0  0  0  # atno 10765 bound_to 10752
  139.8779  134.8967  156.4207 H   0  0  0  0  0  0  0  0  0  0  0  0  # atno 11005 bound_to 11000
  146.0341  139.3361  143.0737 LP  0  0  0  0  0  0  0  0  0  0  0  0  # atno 17320 bound_to 7965
  145.8416  140.9577  143.0796 LP  0  0  0  0  0  0  0  0  0  0  0  0  # atno 17321 bound_to 7965
  140.4909  144.1311  150.5950 LP  0  0  0  0  0  0  0  0  0  0  0  0  # atno 17342 bound_to 10162
  140.4172  143.2629  151.9761 LP  0  0  0  0  0  0  0  0  0  0  0  0  # atno 17343 bound_to 10162
  157.6439  131.0906  150.8194 LP  0  0  0  0  0  0  0  0  0  0  0  0  # atno 17370 bound_to 10713
  156.8284  130.5007  149.5334 LP  0  0  0  0  0  0  0  0  0  0  0  0  # atno 17371 bound_to 10713
  140.9136  133.7694  155.9821 LP  0  0  0  0  0  0  0  0  0  0  0  0  # atno 17394 bound_to 11000
  140.8519  134.2944  157.5272 LP  0  0  0  0  0  0  0  0  0  0  0  0  # atno 17395 bound_to 11000

$$$$
