AV-unprocessed.smi:2032|AV-procd|sdf|8247|dock5
  -GOLD-   2272010513D 1   1.00000     0.00000
 Structure written by MMmdl.
 41 42  0  0  0  0  0  0  0  0  2 V2000
  154.4251  140.7937  160.3298 C   0  0  0  0  0  0  0  0  0  0  0  0
  153.0816  141.3683  159.8683 C   0  0  2  0  0  0  0  0  0  0  0  0
  152.3840  140.4579  158.8420 C   0  0  0  0  0  0  0  0  0  0  0  0
  151.1301  141.0251  158.3381 N   0  0  0  0  0  0  0  0  0  0  0  0
  150.4476  140.1340  157.3687 C   0  0  1  0  0  0  0  0  0  0  0  0
  151.0620  140.2103  155.9471 C   0  0  0  0  0  0  0  0  0  0  0  0
  150.4147  138.6478  157.8207 C   0  0  0  0  0  0  0  0  0  0  0  0
  149.3095  138.3600  158.7297 N   0  0  0  0  0  0  0  0  0  0  0  0
  149.0585  137.1671  159.2853 C   0  0  0  0  0  0  0  0  0  0  0  0
  149.7968  136.2099  159.0408 O   0  0  0  0  0  0  0  0  0  0  0  0
  147.9716  137.1560  160.0905 N   0  5  0  0  0  0  0  0  0  0  0  0
  147.5843  136.0112  160.6766 C   0  0  0  0  0  0  0  0  0  0  0  0
  146.9668  135.9702  161.8630 N   0  0  0  0  0  0  0  0  0  0  0  0
  146.6538  134.6757  162.2819 C   0  0  0  0  0  0  0  0  0  0  0  0
  147.0522  133.7076  161.3987 C   0  0  0  0  0  0  0  0  0  0  0  0
  147.8368  134.3970  160.0061 S   0  0  0  0  0  0  0  0  0  0  0  0
  151.4264  142.3495  157.7789 C   0  0  0  0  0  0  0  0  0  0  0  0
  152.1678  143.2856  158.7548 C   0  0  1  0  0  0  0  0  0  0  0  0
  151.2652  143.8463  159.8673 C   0  0  0  0  0  0  0  0  0  0  0  0
  153.3251  142.6427  159.2837 O   0  0  0  0  0  0  0  0  0  0  0  0
  154.2955  139.8161  160.7948 H   0  0  0  0  0  0  0  0  0  0  0  0
  154.8976  141.4486  161.0621 H   0  0  0  0  0  0  0  0  0  0  0  0
  155.1141  140.6782  159.4927 H   0  0  0  0  0  0  0  0  0  0  0  0
  152.4431  141.4849  160.7444 H   0  0  0  0  0  0  0  0  0  0  0  0
  153.0590  140.2563  158.0088 H   0  0  0  0  0  0  0  0  0  0  0  0
  152.2013  139.5070  159.3387 H   0  0  0  0  0  0  0  0  0  0  0  0
  149.4105  140.4626  157.2839 H   0  0  0  0  0  0  0  0  0  0  0  0
  150.5989  139.5101  155.2529 H   0  0  0  0  0  0  0  0  0  0  0  0
  152.1300  139.9909  155.9672 H   0  0  0  0  0  0  0  0  0  0  0  0
  150.9257  141.1894  155.4903 H   0  0  0  0  0  0  0  0  0  0  0  0
  150.3485  137.9937  156.9495 H   0  0  0  0  0  0  0  0  0  0  0  0
  151.3201  138.3743  158.3604 H   0  0  0  0  0  0  0  0  0  0  0  0
  148.6846  139.1211  158.9518 H   0  0  0  0  0  0  0  0  0  0  0  0
  146.1470  134.5357  163.2250 H   0  0  0  0  0  0  0  0  0  0  0  0
  146.9340  132.6379  161.4812 H   0  0  0  0  0  0  0  0  0  0  0  0
  152.0284  142.2324  156.8765 H   0  0  0  0  0  0  0  0  0  0  0  0
  150.5136  142.8605  157.4800 H   0  0  0  0  0  0  0  0  0  0  0  0
  152.5309  144.1405  158.1836 H   0  0  0  0  0  0  0  0  0  0  0  0
  150.4568  144.4435  159.4451 H   0  0  0  0  0  0  0  0  0  0  0  0
  151.8326  144.4885  160.5410 H   0  0  0  0  0  0  0  0  0  0  0  0
  150.8080  143.0565  160.4627 H   0  0  0  0  0  0  0  0  0  0  0  0
  1  2  1  0  0  0  0
  1 21  1  0  0  0  0
  1 22  1  0  0  0  0
  1 23  1  0  0  0  0
  2 20  1  0  0  0  0
  2  3  1  0  0  0  0
  2 24  1  0  0  0  0
  3  4  1  0  0  0  0
  3 25  1  0  0  0  0
  3 26  1  0  0  0  0
  4  5  1  0  0  0  0
  4 17  1  0  0  0  0
  5  6  1  0  0  0  0
  5  7  1  0  0  0  0
  5 27  1  0  0  0  0
  6 28  1  0  0  0  0
  6 29  1  0  0  0  0
  6 30  1  0  0  0  0
  7  8  1  0  0  0  0
  7 31  1  0  0  0  0
  7 32  1  0  0  0  0
  8  9  1  0  0  0  0
  8 33  1  0  0  0  0
  9 10  2  0  0  0  0
  9 11  1  0  0  0  0
 11 12  1  0  0  0  0
 12 16  1  0  0  0  0
 12 13  2  0  0  0  0
 13 14  1  0  0  0  0
 14 15  2  0  0  0  0
 14 34  1  0  0  0  0
 15 16  1  0  0  0  0
 15 35  1  0  0  0  0
 17 18  1  0  0  0  0
 17 36  1  0  0  0  0
 17 37  1  0  0  0  0
 18 19  1  0  0  0  0
 18 20  1  0  0  0  0
 18 38  1  0  0  0  0
 19 39  1  0  0  0  0
 19 40  1  0  0  0  0
 19 41  1  0  0  0  0
M  CHG  1  11  -1
M  END
> <s_m_source_file>
AV-unprocessed.smi

> <i_m_source_file_index>
2032

> <i_lp_mmshare_version>
43012

> <i_f3d_flags>
0

> <s_epik_input>
W0NIM11bQ0BASF0xW0NIMl1OKFtDSDJdW0NASF0oTzEpW0NIM10pW0NASF0oW0NIM10pW0NIMl1bTkhdQyg9TylbTkhdYzJuW2NIXVtjSF1zMg==

> <s_epik_cmdline>
J2VwaWtfcHl0aG9uJywgJy1waCcsICc3LjAnLCAnLXRuJywgJzgnLCAnLW1hJywgJzIwMCcsICctbWV0YWxfYmluZGluZycsICctaW1hZScsICc8aW5maWxlLm1hZT4nLCAnLW9tYWUnLCAnPG91dGZpbGUubWFlPic=

> <r_lp_tautomer_probability>
0.999

> <r_epik_Ionization_Penalty>
7.22375

> <r_epik_Ionization_Penalty_Charging>
5.82415

> <r_epik_Ionization_Penalty_Neutral>
1.39959

> <r_epik_State_Penalty>
6.03347

> <r_epik_Charging_Adjusted_Penalty>
11.8576

> <i_epik_Tot_Q>
-1

> <i_epik_Tot_abs_Q>
1

> <r_epik_Metal_State_Penalty>
2.01024

> <b_epik_Metal_Only>
1

> <s_lp_Force_Field>
OPLS_2005

> <r_lp_Energy>
26.6576

> <b_lp_Chiralities_Consistent>
1

> <s_lp_Variant>
AV-unprocessed.smi:2032-17

> <Gold.Version>
5.8.1

> <Gold.Id.Protein>
6NUR|6NUR_protein|mol2

> <Gold.PLP.Fitness>
46.0023

> <Gold.PLP.PLP>
-36.8295

> <Gold.PLP.part.hbond>
-3.0000

> <Gold.PLP.part.metal>
0.0000

> <Gold.PLP.part.buried>
-3.7281

> <Gold.PLP.part.nonpolar>
-31.7090

> <Gold.PLP.part.repulsive>
0.2419

> <Gold.PLP.ligand.clash>
0.0000

> <Gold.PLP.ligand.torsion>
0.7617

> <Gold.PLP.Chemscore.Hbond>
3.5280

> <Gold.PLP.Chemscore.CHOScore>
0.0000

> <Gold.PLP.Chemscore.Metal>
0.0000

> <Gold.Chemscore.Hbonds>
donor molecule, donor type, donor heavy atom, donor atom, acceptor molecule, acceptor atom, score
      P1  H  6896  6908       L1    10  1.00
      P1  H  6931  6943       L1    11  0.18
      P1  H  6934  6947       L1    11  0.93

> <Gold.PLP.Chemscore.Internal.Correction>
0.1122

> <Gold.Rescore>
     Score         DG    S(hbond)    S(metal)    S(lipo)     H(rot)  DE(clash)    DE(int)     intcor
     15.62     -17.93       1.68        0.00      92.33       1.54       0.04       2.27       ----

> <Gold.Chemscore.Fitness>
15.6200

> <Gold.Chemscore.DG>
-17.9271

> <Gold.Chemscore.ZeroCoef>
-5.4800

> <Gold.Chemscore.Hbond>
1.6752

> <Gold.Chemscore.Metal>
0.0000

> <Gold.Chemscore.Lipo>
92.3275

> <Gold.Chemscore.Internal_Hbond>
0.0000

> <Gold.Chemscore.DEClash>
0.0407

> <Gold.Chemscore.DEInternal>
2.2663

> <Gold.Chemscore.Rot>
1.5431

> <Gold.Chemscore.Internal.Correction>
   9.000000E+99

> <Gold.Chemscore.Hbonds>
donor molecule, donor type, donor heavy atom, donor atom, acceptor molecule, acceptor atom, score
      P1  H  6896  6908       L1    10  1.00
      P1  H  6934  6947       L1    11  0.44

> <Gold.Chemscore.Hbond.Weighted>
-5.5951

> <Gold.Chemscore.Metal.Weighted>
-0.0000

> <Gold.Chemscore.Lipo.Weighted>
-10.8023

> <Gold.Chemscore.Internal_Hbond.Weighted>
0.0000

> <Gold.Chemscore.DEClash.Weighted>
0.0407

> <Gold.Chemscore.DEInternal.Weighted>
2.2663

> <Gold.Chemscore.Rot.Weighted>
3.9503

> <Gold.Chemscore.Internal.Correction.Weighted>
   9.000000E+99

> <Gold.Protein.RotatedTorsions>
[ 6907 6896 6895 6894 ] final  179.72 input  -60.11 | X-H torsion
[ 7974 7965 7964 7962 ] final  -53.36 input  175.53 | X-H torsion
[ 8008 7997 7996 7995 ] final   85.84 input   59.86 | X-H torsion
[ 10167 10162 10161 10158 ] final   -6.77 input  -65.29 | X-H torsion
[ 10718 10713 10712 10709 ] final   26.68 input   66.30 | X-H torsion
[ 10763 10752 10751 10750 ] final   72.05 input  -60.55 | X-H torsion
[ 11005 11000 10999 10996 ] final  -93.68 input  -57.11 | X-H torsion

> <Gold.Protein.ActiveResidues>
 VAL166  LYS551  ARG553  GLY616  TRP617  ASP618  TYR619  PRO620  LYS621  CYS622 
 ASP623  PHE694  ASN695  SER759  ASP760  ASP761  ALA762  ILE779  LEU786  VAL792 
 PHE793  MET794  SER795  GLU796  ALA797  LYS798  CYS799  TRP800  GLU811  SER814 

> <Gold.Protein.RotatedAtoms>
  151.6670  133.3315  159.3187 H   0  0  0  0  0  0  0  0  0  0  0  0  # atno 6907 bound_to 6896
  150.7886  134.6895  159.6498 H   0  0  0  0  0  0  0  0  0  0  0  0  # atno 6908 bound_to 6896
  152.3961  134.6367  160.0141 H   0  0  0  0  0  0  0  0  0  0  0  0  # atno 6909 bound_to 6896
  145.8977  140.8020  142.9759 H   0  0  0  0  0  0  0  0  0  0  0  0  # atno 7974 bound_to 7965
  155.9552  140.3398  155.6442 H   0  0  0  0  0  0  0  0  0  0  0  0  # atno 8008 bound_to 7997
  155.6869  140.0744  157.2481 H   0  0  0  0  0  0  0  0  0  0  0  0  # atno 8009 bound_to 7997
  154.4130  140.1664  156.2031 H   0  0  0  0  0  0  0  0  0  0  0  0  # atno 8010 bound_to 7997
  140.7008  143.6156  150.8661 H   0  0  0  0  0  0  0  0  0  0  0  0  # atno 10167 bound_to 10162
  157.2100  130.6930  149.6224 H   0  0  0  0  0  0  0  0  0  0  0  0  # atno 10718 bound_to 10713
  153.0435  135.5114  154.7686 H   0  0  0  0  0  0  0  0  0  0  0  0  # atno 10763 bound_to 10752
  154.6604  135.2938  154.9876 H   0  0  0  0  0  0  0  0  0  0  0  0  # atno 10764 bound_to 10752
  154.0729  135.6675  153.4879 H   0  0  0  0  0  0  0  0  0  0  0  0  # atno 10765 bound_to 10752
  141.1491  133.7904  157.0193 H   0  0  0  0  0  0  0  0  0  0  0  0  # atno 11005 bound_to 11000
  144.6734  140.1628  143.7421 LP  0  0  0  0  0  0  0  0  0  0  0  0  # atno 17320 bound_to 7965
  145.8830  139.2333  143.1594 LP  0  0  0  0  0  0  0  0  0  0  0  0  # atno 17321 bound_to 7965
  139.9878  143.5880  152.2921 LP  0  0  0  0  0  0  0  0  0  0  0  0  # atno 17342 bound_to 10162
  139.6524  144.7661  151.2121 LP  0  0  0  0  0  0  0  0  0  0  0  0  # atno 17343 bound_to 10162
  155.9691  130.4554  150.5887 LP  0  0  0  0  0  0  0  0  0  0  0  0  # atno 17370 bound_to 10713
  157.3681  131.0761  151.1580 LP  0  0  0  0  0  0  0  0  0  0  0  0  # atno 17371 bound_to 10713
  140.0826  134.9639  157.1649 LP  0  0  0  0  0  0  0  0  0  0  0  0  # atno 17394 bound_to 11000
  140.3555  134.2551  155.7193 LP  0  0  0  0  0  0  0  0  0  0  0  0  # atno 17395 bound_to 11000

$$$$
