AV-unprocessed.smi:2722|AV-procd|sdf|10505|dock2
  -GOLD-   2272014543D 1   1.00000     0.00000
 Structure written by MMmdl.
 27 27  0  0  0  0  0  0  0  0  2 V2000
  154.3457  137.6140  158.5526 C   0  0  0  0  0  0  0  0  0  0  0  0
  152.8950  137.9810  158.1655 C   0  0  2  0  0  0  0  0  0  0  0  0
  152.9998  138.8620  157.0609 O   0  0  0  0  0  0  0  0  0  0  0  0
  152.1566  138.7690  159.2928 C   0  0  0  0  0  0  0  0  0  0  0  0
  152.7301  140.0851  159.6422 N   0  0  0  0  0  0  0  0  0  0  0  0
  152.0994  141.2277  159.1076 C   0  0  0  0  0  0  0  0  0  0  0  0
  152.5319  142.4823  159.3351 C   0  0  0  0  0  0  0  0  0  0  0  0
  151.7898  143.6916  158.7881 C   0  0  0  0  0  0  0  0  0  0  0  0
  150.7426  143.3227  158.0498 F   0  0  0  0  0  0  0  0  0  0  0  0
  151.3438  144.4423  159.7945 F   0  0  0  0  0  0  0  0  0  0  0  0
  152.5904  144.4449  158.0331 F   0  0  0  0  0  0  0  0  0  0  0  0
  153.6891  142.6184  160.1967 C   0  0  0  0  0  0  0  0  0  0  0  0
  154.3146  141.5381  160.7030 C   0  0  0  0  0  0  0  0  0  0  0  0
  153.8562  140.1778  160.4110 C   0  0  0  0  0  0  0  0  0  0  0  0
  154.4549  139.1866  160.8290 O   0  0  0  0  0  0  0  0  0  0  0  0
  152.1048  136.7244  157.7266 C   0  0  0  0  0  0  0  0  0  0  0  0
  151.0715  136.4176  158.3631 O   0  0  0  0  0  0  0  0  0  0  0  0
  152.5338  136.1002  156.7300 O   0  5  0  0  0  0  0  0  0  0  0  0
  154.3835  136.9149  159.3880 H   0  0  0  0  0  0  0  0  0  0  0  0
  154.9123  138.4987  158.8449 H   0  0  0  0  0  0  0  0  0  0  0  0
  154.8756  137.1499  157.7194 H   0  0  0  0  0  0  0  0  0  0  0  0
  152.5941  138.4523  156.3132 H   0  0  0  0  0  0  0  0  0  0  0  0
  151.1011  138.8750  159.0360 H   0  0  0  0  0  0  0  0  0  0  0  0
  152.1403  138.1579  160.1976 H   0  0  0  0  0  0  0  0  0  0  0  0
  151.2281  141.0185  158.5040 H   0  0  0  0  0  0  0  0  0  0  0  0
  154.0643  143.6016  160.4391 H   0  0  0  0  0  0  0  0  0  0  0  0
  155.1756  141.6763  161.3403 H   0  0  0  0  0  0  0  0  0  0  0  0
  1  2  1  0  0  0  0
  1 19  1  0  0  0  0
  1 20  1  0  0  0  0
  1 21  1  0  0  0  0
  2  3  1  0  0  0  0
  2  4  1  0  0  0  0
  2 16  1  0  0  0  0
  3 22  1  0  0  0  0
  4  5  1  0  0  0  0
  4 23  1  0  0  0  0
  4 24  1  0  0  0  0
  5 14  1  0  0  0  0
  5  6  1  0  0  0  0
  6  7  2  0  0  0  0
  6 25  1  0  0  0  0
  7  8  1  0  0  0  0
  7 12  1  0  0  0  0
  8  9  1  0  0  0  0
  8 10  1  0  0  0  0
  8 11  1  0  0  0  0
 12 13  2  0  0  0  0
 12 26  1  0  0  0  0
 13 14  1  0  0  0  0
 13 27  1  0  0  0  0
 14 15  2  0  0  0  0
 16 17  2  0  0  0  0
 16 18  1  0  0  0  0
M  CHG  1  18  -1
M  END
> <s_m_source_file>
AV-unprocessed.smi

> <i_m_source_file_index>
2722

> <i_lp_mmshare_version>
43012

> <i_f3d_flags>
0

> <s_epik_input>
Tz1DKFtPSF0pW0NAXShbQ0gzXSkoW09IXSlbQ0gyXW4xW2NIXWMoQyhGKShGKUYpW2NIXVtjSF1jMT1P

> <s_epik_cmdline>
J2VwaWtfcHl0aG9uJywgJy1waCcsICc3LjAnLCAnLXRuJywgJzgnLCAnLW1hJywgJzIwMCcsICctbWV0YWxfYmluZGluZycsICctaW1hZScsICc8aW5maWxlLm1hZT4nLCAnLW9tYWUnLCAnPG91dGZpbGUubWFlPic=

> <r_lp_tautomer_probability>
1

> <r_epik_Ionization_Penalty>
0.000391429

> <r_epik_Ionization_Penalty_Charging>
0.000383902

> <r_epik_Ionization_Penalty_Neutral>
7.52792e-06

> <r_epik_State_Penalty>
0.000234534

> <r_epik_Charging_Adjusted_Penalty>
0.000618436

> <i_epik_Tot_Q>
-1

> <i_epik_Tot_abs_Q>
1

> <r_epik_Metal_State_Penalty>
-0

> <b_epik_Metal_Only>
0

> <s_lp_Force_Field>
OPLS_2005

> <r_lp_Energy>
14.9238

> <b_lp_Chiralities_Consistent>
1

> <s_lp_Variant>
AV-unprocessed.smi:2722-2

> <Gold.Version>
5.8.1

> <Gold.Id.Protein>
6NUR|6NUR_protein|mol2

> <Gold.PLP.Fitness>
47.1580

> <Gold.PLP.PLP>
-35.8321

> <Gold.PLP.part.hbond>
-3.0000

> <Gold.PLP.part.metal>
0.0000

> <Gold.PLP.part.buried>
-4.4913

> <Gold.PLP.part.nonpolar>
-29.0856

> <Gold.PLP.part.repulsive>
0.0000

> <Gold.PLP.ligand.clash>
1.4106

> <Gold.PLP.ligand.torsion>
0.3630

> <Gold.PLP.Chemscore.Hbond>
4.4080

> <Gold.PLP.Chemscore.CHOScore>
0.0000

> <Gold.PLP.Chemscore.Metal>
0.0000

> <Gold.Chemscore.Hbonds>
donor molecule, donor type, donor heavy atom, donor atom, acceptor molecule, acceptor atom, score
      P1  H  6896  6909       L1    17  1.34
      P1  H  7997  8009       L1     3  1.00
      P1  H 10752 10764       L1    18  2.00

> <Gold.PLP.Chemscore.Internal.Correction>
0.2385

> <Gold.Rescore>
     Score         DG    S(hbond)    S(metal)    S(lipo)     H(rot)  DE(clash)    DE(int)     intcor
     13.59     -15.36       2.68        0.00      65.63       2.63       0.01       1.76       ----

> <Gold.Chemscore.Fitness>
13.5950

> <Gold.Chemscore.DG>
-15.3585

> <Gold.Chemscore.ZeroCoef>
-5.4800

> <Gold.Chemscore.Hbond>
2.6781

> <Gold.Chemscore.Metal>
0.0000

> <Gold.Chemscore.Lipo>
65.6299

> <Gold.Chemscore.Internal_Hbond>
0.0000

> <Gold.Chemscore.DEClash>
0.0064

> <Gold.Chemscore.DEInternal>
1.7571

> <Gold.Chemscore.Rot>
2.6348

> <Gold.Chemscore.Internal.Correction>
   9.000000E+99

> <Gold.Chemscore.Hbonds>
donor molecule, donor type, donor heavy atom, donor atom, acceptor molecule, acceptor atom, score
      P1  H  6896  6909       L1    17  0.65
      P1  H  7997  8009       L1     3  0.97
      P1  H 10752 10764       L1    18  1.00

> <Gold.Chemscore.Hbond.Weighted>
-8.9449

> <Gold.Chemscore.Metal.Weighted>
-0.0000

> <Gold.Chemscore.Lipo.Weighted>
-7.6787

> <Gold.Chemscore.Internal_Hbond.Weighted>
0.0000

> <Gold.Chemscore.DEClash.Weighted>
0.0064

> <Gold.Chemscore.DEInternal.Weighted>
1.7571

> <Gold.Chemscore.Rot.Weighted>
6.7451

> <Gold.Chemscore.Internal.Correction.Weighted>
   9.000000E+99

> <Gold.Protein.RotatedTorsions>
[ 6907 6896 6895 6894 ] final   82.04 input  -60.11 | X-H torsion
[ 7974 7965 7964 7962 ] final  122.54 input  175.53 | X-H torsion
[ 8008 7997 7996 7995 ] final  166.64 input   59.86 | X-H torsion
[ 10167 10162 10161 10158 ] final  -32.41 input  -65.29 | X-H torsion
[ 10718 10713 10712 10709 ] final  170.95 input   66.30 | X-H torsion
[ 10763 10752 10751 10750 ] final  -10.22 input  -60.55 | X-H torsion
[ 11005 11000 10999 10996 ] final   65.04 input  -57.11 | X-H torsion

> <Gold.Protein.ActiveResidues>
 VAL166  LYS551  ARG553  GLY616  TRP617  ASP618  TYR619  PRO620  LYS621  CYS622 
 ASP623  PHE694  ASN695  SER759  ASP760  ASP761  ALA762  ILE779  LEU786  VAL792 
 PHE793  MET794  SER795  GLU796  ALA797  LYS798  CYS799  TRP800  GLU811  SER814 

> <Gold.Protein.RotatedAtoms>
  152.5287  134.3111  159.9113 H   0  0  0  0  0  0  0  0  0  0  0  0  # atno 6907 bound_to 6896
  151.3060  133.4095  159.2651 H   0  0  0  0  0  0  0  0  0  0  0  0  # atno 6908 bound_to 6896
  151.0078  134.9390  159.8047 H   0  0  0  0  0  0  0  0  0  0  0  0  # atno 6909 bound_to 6896
  145.1064  139.3483  143.4785 H   0  0  0  0  0  0  0  0  0  0  0  0  # atno 7974 bound_to 7965
  156.1701  140.1638  156.8462 H   0  0  0  0  0  0  0  0  0  0  0  0  # atno 8008 bound_to 7997
  154.5248  140.0770  156.8273 H   0  0  0  0  0  0  0  0  0  0  0  0  # atno 8009 bound_to 7997
  155.3530  140.3391  155.4242 H   0  0  0  0  0  0  0  0  0  0  0  0  # atno 8010 bound_to 7997
  140.7221  143.3697  151.1802 H   0  0  0  0  0  0  0  0  0  0  0  0  # atno 10167 bound_to 10162
  157.0006  131.0175  151.2831 H   0  0  0  0  0  0  0  0  0  0  0  0  # atno 10718 bound_to 10713
  153.4661  135.7016  153.6021 H   0  0  0  0  0  0  0  0  0  0  0  0  # atno 10763 bound_to 10752
  153.4295  135.3806  155.2162 H   0  0  0  0  0  0  0  0  0  0  0  0  # atno 10764 bound_to 10752
  154.8726  135.3947  154.4093 H   0  0  0  0  0  0  0  0  0  0  0  0  # atno 10765 bound_to 10752
  139.9920  134.6577  156.0075 H   0  0  0  0  0  0  0  0  0  0  0  0  # atno 11005 bound_to 11000
  146.3528  140.0964  142.8610 LP  0  0  0  0  0  0  0  0  0  0  0  0  # atno 17320 bound_to 7965
  145.0896  140.9276  143.4776 LP  0  0  0  0  0  0  0  0  0  0  0  0  # atno 17321 bound_to 7965
  139.7266  143.9139  152.3005 LP  0  0  0  0  0  0  0  0  0  0  0  0  # atno 17342 bound_to 10162
  139.8914  144.6963  150.8766 LP  0  0  0  0  0  0  0  0  0  0  0  0  # atno 17343 bound_to 10162
  157.5393  130.8109  149.8009 LP  0  0  0  0  0  0  0  0  0  0  0  0  # atno 17370 bound_to 10713
  156.0172  130.3809  150.2072 LP  0  0  0  0  0  0  0  0  0  0  0  0  # atno 17371 bound_to 10713
  141.1573  133.6541  156.4204 LP  0  0  0  0  0  0  0  0  0  0  0  0  # atno 17394 bound_to 11000
  140.4891  134.6593  157.5203 LP  0  0  0  0  0  0  0  0  0  0  0  0  # atno 17395 bound_to 11000

$$$$
