AV-unprocessed.smi:926|AV-procd|sdf|4186|dock8
  -GOLD-   22720 2 93D 1   1.00000     0.00000
 Structure written by MMmdl.
 37 39  0  0  0  0  0  0  0  0  1 V2000
  152.5955  139.8873  154.8278 O   0  0  0  0  0  0  0  0  0  0  0  0
  151.6716  139.4340  155.5057 C   0  0  0  0  0  0  0  0  0  0  0  0
  151.3605  137.9325  155.5245 C   0  0  0  0  0  0  0  0  0  0  0  0
  151.7830  137.2836  156.7538 N   0  0  0  0  0  0  0  0  0  0  0  0
  151.3455  137.4099  158.0087 C   0  0  0  0  0  0  0  0  0  0  0  0
  152.0130  136.6253  158.8407 N   0  0  0  0  0  0  0  0  0  0  0  0
  152.9177  135.9841  158.0108 N   0  0  0  0  0  0  0  0  0  0  0  0
  152.7857  136.3706  156.7713 N   0  0  0  0  0  0  0  0  0  0  0  0
  150.8827  140.2013  156.2733 N   0  0  0  0  0  0  0  0  0  0  0  0
  151.0039  141.6475  156.4108 C   0  0  0  0  0  0  0  0  0  0  0  0
  150.4848  142.1309  157.7762 C   0  0  0  0  0  0  0  0  0  0  0  0
  150.7696  143.6222  158.0434 C   0  0  1  0  0  0  0  0  0  0  0  0
  150.1590  144.1520  159.3589 C   0  0  0  0  0  0  0  0  0  0  0  0
  151.3534  144.8474  160.0384 C   0  0  1  0  0  0  0  0  0  0  0  0
  152.3223  143.7773  160.5748 C   0  0  0  0  0  0  0  0  0  0  0  0
  152.9737  143.2362  159.2890 C   0  0  0  0  0  0  0  0  0  0  0  0
  152.2564  144.0346  158.1810 C   0  0  2  0  0  0  0  0  0  0  0  0
  152.1230  145.4015  158.8445 C   0  0  0  0  0  0  0  0  0  0  0  0
  150.2864  137.7844  155.4073 H   0  0  0  0  0  0  0  0  0  0  0  0
  151.8487  137.4463  154.6782 H   0  0  0  0  0  0  0  0  0  0  0  0
  150.5477  138.0732  158.3090 H   0  0  0  0  0  0  0  0  0  0  0  0
  150.1463  139.7526  156.7990 H   0  0  0  0  0  0  0  0  0  0  0  0
  152.0438  141.9432  156.2635 H   0  0  0  0  0  0  0  0  0  0  0  0
  150.4322  142.1150  155.6089 H   0  0  0  0  0  0  0  0  0  0  0  0
  149.4070  141.9697  157.8206 H   0  0  0  0  0  0  0  0  0  0  0  0
  150.9024  141.5188  158.5754 H   0  0  0  0  0  0  0  0  0  0  0  0
  150.3407  144.1933  157.2178 H   0  0  0  0  0  0  0  0  0  0  0  0
  149.3606  144.8651  159.1493 H   0  0  0  0  0  0  0  0  0  0  0  0
  149.7395  143.3627  159.9841 H   0  0  0  0  0  0  0  0  0  0  0  0
  151.0623  145.5868  160.7849 H   0  0  0  0  0  0  0  0  0  0  0  0
  153.0746  144.2224  161.2273 H   0  0  0  0  0  0  0  0  0  0  0  0
  151.8076  142.9990  161.1396 H   0  0  0  0  0  0  0  0  0  0  0  0
  154.0412  143.4608  159.2861 H   0  0  0  0  0  0  0  0  0  0  0  0
  152.8741  142.1566  159.1826 H   0  0  0  0  0  0  0  0  0  0  0  0
  152.7964  144.0459  157.2340 H   0  0  0  0  0  0  0  0  0  0  0  0
  151.5495  146.1183  158.2541 H   0  0  0  0  0  0  0  0  0  0  0  0
  153.0812  145.8481  159.1163 H   0  0  0  0  0  0  0  0  0  0  0  0
  1  2  2  0  0  0  0
  2  3  1  0  0  0  0
  2  9  1  0  0  0  0
  3  4  1  0  0  0  0
  3 19  1  0  0  0  0
  3 20  1  0  0  0  0
  4  8  1  0  0  0  0
  4  5  1  0  0  0  0
  5  6  2  0  0  0  0
  5 21  1  0  0  0  0
  6  7  1  0  0  0  0
  7  8  2  0  0  0  0
  9 10  1  0  0  0  0
  9 22  1  0  0  0  0
 10 11  1  0  0  0  0
 10 23  1  0  0  0  0
 10 24  1  0  0  0  0
 11 12  1  0  0  0  0
 11 25  1  0  0  0  0
 11 26  1  0  0  0  0
 12 17  1  0  0  0  0
 12 13  1  0  0  0  0
 12 27  1  0  0  0  0
 13 14  1  0  0  0  0
 13 28  1  0  0  0  0
 13 29  1  0  0  0  0
 14 18  1  0  0  0  0
 14 15  1  0  0  0  0
 14 30  1  0  0  0  0
 15 16  1  0  0  0  0
 15 31  1  0  0  0  0
 15 32  1  0  0  0  0
 16 17  1  0  0  0  0
 16 33  1  0  0  0  0
 16 34  1  0  0  0  0
 17 18  1  0  0  0  0
 17 35  1  0  0  0  0
 18 36  1  0  0  0  0
 18 37  1  0  0  0  0
M  END
> <s_m_source_file>
AV-unprocessed.smi

> <i_m_source_file_index>
926

> <i_lp_mmshare_version>
43012

> <i_f3d_flags>
0

> <s_epik_input>
bjFubltjSF1uMVtDSDJdQyg9TylbTkhdW0NIMl1bQ0gyXVtDQEhdKFtDSDJdW0NASF0yMylbQ0BIXShbQ0gyXTMpW0NIMl1bQ0gyXTI=

> <s_epik_cmdline>
J2VwaWtfcHl0aG9uJywgJy1waCcsICc3LjAnLCAnLXRuJywgJzgnLCAnLW1hJywgJzIwMCcsICctbWV0YWxfYmluZGluZycsICctaW1hZScsICc8aW5maWxlLm1hZT4nLCAnLW9tYWUnLCAnPG91dGZpbGUubWFlPic=

> <r_lp_tautomer_probability>
1

> <r_epik_Ionization_Penalty>
4.22645e-07

> <r_epik_Ionization_Penalty_Charging>
0

> <r_epik_Ionization_Penalty_Neutral>
4.22645e-07

> <r_epik_State_Penalty>
-0

> <r_epik_Charging_Adjusted_Penalty>
0

> <i_epik_Tot_Q>
0

> <i_epik_Tot_abs_Q>
0

> <r_epik_Metal_State_Penalty>
-0

> <b_epik_Metal_Only>
0

> <s_lp_Force_Field>
OPLS_2005

> <r_lp_Energy>
51.6894

> <b_lp_Chiralities_Consistent>
1

> <s_lp_Variant>
AV-unprocessed.smi:926-4

> <Gold.Version>
5.8.1

> <Gold.Id.Protein>
6NUR|6NUR_protein|mol2

> <Gold.PLP.Fitness>
49.2162

> <Gold.PLP.PLP>
-40.6279

> <Gold.PLP.part.hbond>
-4.9952

> <Gold.PLP.part.metal>
0.0000

> <Gold.PLP.part.buried>
-5.8156

> <Gold.PLP.part.nonpolar>
-30.4366

> <Gold.PLP.part.repulsive>
0.1248

> <Gold.PLP.ligand.clash>
0.0000

> <Gold.PLP.ligand.torsion>
0.4391

> <Gold.PLP.Chemscore.Hbond>
3.1504

> <Gold.PLP.Chemscore.CHOScore>
0.0000

> <Gold.PLP.Chemscore.Metal>
0.0000

> <Gold.Chemscore.Hbonds>
donor molecule, donor type, donor heavy atom, donor atom, acceptor molecule, acceptor atom, score
      P1  H  6896  6907       L1     6  0.69
      P1  H  7989  7998       L1     1  0.53
      P1  H  7997  8010       L1     1  0.68
      P1  H 10752 10765       L1     8  1.00

> <Gold.PLP.Chemscore.Internal.Correction>
0.0152

> <Gold.Rescore>
     Score         DG    S(hbond)    S(metal)    S(lipo)     H(rot)  DE(clash)    DE(int)     intcor
     18.57     -19.26       2.55        0.00     100.78       2.54       0.02       0.67       ----

> <Gold.Chemscore.Fitness>
18.5728

> <Gold.Chemscore.DG>
-19.2636

> <Gold.Chemscore.ZeroCoef>
-5.4800

> <Gold.Chemscore.Hbond>
2.5463

> <Gold.Chemscore.Metal>
0.0000

> <Gold.Chemscore.Lipo>
100.7751

> <Gold.Chemscore.Internal_Hbond>
0.0000

> <Gold.Chemscore.DEClash>
0.0244

> <Gold.Chemscore.DEInternal>
0.6664

> <Gold.Chemscore.Rot>
2.5436

> <Gold.Chemscore.Internal.Correction>
   9.000000E+99

> <Gold.Chemscore.Hbonds>
donor molecule, donor type, donor heavy atom, donor atom, acceptor molecule, acceptor atom, score
      P1  H  6896  6907       L1     6  0.21
      P1  H  7989  7998       L1     1  0.21
      P1  H  7997  8010       L1     1  0.62
      P1  H 10752 10765       L1     8  0.99

> <Gold.Chemscore.Hbond.Weighted>
-8.5046

> <Gold.Chemscore.Metal.Weighted>
-0.0000

> <Gold.Chemscore.Lipo.Weighted>
-11.7907

> <Gold.Chemscore.Internal_Hbond.Weighted>
0.0000

> <Gold.Chemscore.DEClash.Weighted>
0.0244

> <Gold.Chemscore.DEInternal.Weighted>
0.6664

> <Gold.Chemscore.Rot.Weighted>
6.5117

> <Gold.Chemscore.Internal.Correction.Weighted>
   9.000000E+99

> <Gold.Protein.RotatedTorsions>
[ 6907 6896 6895 6894 ] final  -13.97 input  -60.11 | X-H torsion
[ 7974 7965 7964 7962 ] final    9.28 input  175.53 | X-H torsion
[ 8008 7997 7996 7995 ] final  106.08 input   59.86 | X-H torsion
[ 10167 10162 10161 10158 ] final   47.21 input  -65.29 | X-H torsion
[ 10718 10713 10712 10709 ] final -105.30 input   66.30 | X-H torsion
[ 10763 10752 10751 10750 ] final -125.76 input  -60.55 | X-H torsion
[ 11005 11000 10999 10996 ] final  -85.78 input  -57.11 | X-H torsion

> <Gold.Protein.ActiveResidues>
 VAL166  LYS551  ARG553  GLY616  TRP617  ASP618  TYR619  PRO620  LYS621  CYS622 
 ASP623  PHE694  ASN695  SER759  ASP760  ASP761  ALA762  ILE779  LEU786  VAL792 
 PHE793  MET794  SER795  GLU796  ALA797  LYS798  CYS799  TRP800  GLU811  SER814 

> <Gold.Protein.RotatedAtoms>
  151.3467  135.0875  159.9389 H   0  0  0  0  0  0  0  0  0  0  0  0  # atno 6907 bound_to 6896
  152.5197  133.9393  159.7629 H   0  0  0  0  0  0  0  0  0  0  0  0  # atno 6908 bound_to 6896
  150.9760  133.6240  159.2760 H   0  0  0  0  0  0  0  0  0  0  0  0  # atno 6909 bound_to 6896
  146.2405  139.9807  142.8436 H   0  0  0  0  0  0  0  0  0  0  0  0  # atno 7974 bound_to 7965
  156.1713  140.3119  155.8980 H   0  0  0  0  0  0  0  0  0  0  0  0  # atno 8008 bound_to 7997
  155.3580  140.0475  157.3063 H   0  0  0  0  0  0  0  0  0  0  0  0  # atno 8009 bound_to 7997
  154.5244  140.2209  155.8927 H   0  0  0  0  0  0  0  0  0  0  0  0  # atno 8010 bound_to 7997
  140.3060  144.2877  150.6209 H   0  0  0  0  0  0  0  0  0  0  0  0  # atno 10167 bound_to 10162
  156.0340  130.5557  150.7519 H   0  0  0  0  0  0  0  0  0  0  0  0  # atno 10718 bound_to 10713
  154.8739  135.4018  154.3321 H   0  0  0  0  0  0  0  0  0  0  0  0  # atno 10763 bound_to 10752
  153.4133  135.7021  153.6349 H   0  0  0  0  0  0  0  0  0  0  0  0  # atno 10764 bound_to 10752
  153.5043  135.3721  155.2526 H   0  0  0  0  0  0  0  0  0  0  0  0  # atno 10765 bound_to 10752
  141.1637  133.7418  156.9065 H   0  0  0  0  0  0  0  0  0  0  0  0  # atno 11005 bound_to 11000
  145.1594  140.9665  143.4386 LP  0  0  0  0  0  0  0  0  0  0  0  0  # atno 17320 bound_to 7965
  145.0130  139.3492  143.6110 LP  0  0  0  0  0  0  0  0  0  0  0  0  # atno 17321 bound_to 7965
  140.5610  143.2192  151.7766 LP  0  0  0  0  0  0  0  0  0  0  0  0  # atno 17342 bound_to 10162
  139.4904  144.4349  151.9830 LP  0  0  0  0  0  0  0  0  0  0  0  0  # atno 17343 bound_to 10162
  157.5061  131.0922  151.0255 LP  0  0  0  0  0  0  0  0  0  0  0  0  # atno 17370 bound_to 10713
  157.0623  130.5830  149.5388 LP  0  0  0  0  0  0  0  0  0  0  0  0  # atno 17371 bound_to 10713
  140.1546  134.9207  157.2637 LP  0  0  0  0  0  0  0  0  0  0  0  0  # atno 17394 bound_to 11000
  140.2682  134.3491  155.7382 LP  0  0  0  0  0  0  0  0  0  0  0  0  # atno 17395 bound_to 11000

$$$$
