AV-unprocessed.smi:52|AV-procd|sdf|512|dock1
  -GOLD-   2262016383D 1   1.00000     0.00000
 Structure written by MMmdl.
 26 27  0  0  0  0  0  0  0  0  2 V2000
  153.6596  135.4050  157.6772 O   0  0  0  0  0  0  0  0  0  0  0  0
  153.2004  136.4449  158.1999 C   0  0  0  0  0  0  0  0  0  0  0  0
  152.9711  136.5199  159.4273 O   0  5  0  0  0  0  0  0  0  0  0  0
  152.9205  137.6224  157.3373 C   0  0  0  0  0  0  0  0  0  0  0  0
  153.4222  137.8571  156.0818 C   0  0  0  0  0  0  0  0  0  0  0  0
  152.9333  139.0478  155.6166 O   0  0  0  0  0  0  0  0  0  0  0  0
  152.1390  139.5000  156.6245 C   0  0  0  0  0  0  0  0  0  0  0  0
  151.4401  140.8094  156.4617 C   0  0  0  0  0  0  0  0  0  0  0  0
  150.5865  140.8583  155.2794 N   0  0  0  0  0  0  0  0  0  0  0  0
  149.6131  139.7804  155.2092 C   0  0  0  0  0  0  0  0  0  0  0  0
  148.5136  140.2466  154.2444 C   0  0  0  0  0  0  0  0  0  0  0  0
  148.7371  141.7634  154.1286 C   0  0  1  0  0  0  0  0  0  0  0  0
  147.5533  142.5086  154.3202 O   0  0  0  0  0  0  0  0  0  0  0  0
  149.7790  142.0578  155.2089 C   0  0  0  0  0  0  0  0  0  0  0  0
  152.0933  138.6860  157.6769 N   0  0  0  0  0  0  0  0  0  0  0  0
  149.1519  141.9974  153.1471 H   0  0  0  0  0  0  0  0  0  0  0  0
  154.0907  137.3146  155.4297 H   0  0  0  0  0  0  0  0  0  0  0  0
  150.8583  141.0134  157.3618 H   0  0  0  0  0  0  0  0  0  0  0  0
  152.1999  141.5891  156.3960 H   0  0  0  0  0  0  0  0  0  0  0  0
  150.0747  138.8458  154.8885 H   0  0  0  0  0  0  0  0  0  0  0  0
  149.1740  139.6102  156.1937 H   0  0  0  0  0  0  0  0  0  0  0  0
  148.6155  139.7697  153.2688 H   0  0  0  0  0  0  0  0  0  0  0  0
  147.5274  139.9955  154.6370 H   0  0  0  0  0  0  0  0  0  0  0  0
  147.7886  143.3756  154.6137 H   0  0  0  0  0  0  0  0  0  0  0  0
  149.2855  142.2286  156.1675 H   0  0  0  0  0  0  0  0  0  0  0  0
  150.3809  142.9378  154.9794 H   0  0  0  0  0  0  0  0  0  0  0  0
  1  2  2  0  0  0  0
  2  3  1  0  0  0  0
  2  4  1  0  0  0  0
  4 15  1  0  0  0  0
  4  5  2  0  0  0  0
  5  6  1  0  0  0  0
  5 17  1  0  0  0  0
  6  7  1  0  0  0  0
  7  8  1  0  0  0  0
  7 15  2  0  0  0  0
  8  9  1  0  0  0  0
  8 18  1  0  0  0  0
  8 19  1  0  0  0  0
  9 14  1  0  0  0  0
  9 10  1  0  0  0  0
 10 11  1  0  0  0  0
 10 20  1  0  0  0  0
 10 21  1  0  0  0  0
 11 12  1  0  0  0  0
 11 22  1  0  0  0  0
 11 23  1  0  0  0  0
 12 16  1  0  0  0  0
 12 13  1  0  0  0  0
 12 14  1  0  0  0  0
 13 24  1  0  0  0  0
 14 25  1  0  0  0  0
 14 26  1  0  0  0  0
M  CHG  1   3  -1
M  END
> <s_m_source_file>
AV-unprocessed.smi

> <i_m_source_file_index>
52

> <i_lp_mmshare_version>
43012

> <i_f3d_flags>
0

> <s_epik_input>
Tz1DKFtPSF0pYzFbY0hdb2MobjEpW0NIMl1OMltDSDJdW0NIMl1bQ0BIXShbT0hdKVtDSDJdMg==

> <s_epik_cmdline>
J2VwaWtfcHl0aG9uJywgJy1waCcsICc3LjAnLCAnLXRuJywgJzgnLCAnLW1hJywgJzIwMCcsICctbWV0YWxfYmluZGluZycsICctaW1hZScsICc8aW5maWxlLm1hZT4nLCAnLW9tYWUnLCAnPG91dGZpbGUubWFlPic=

> <r_epik_Ionization_Penalty>
1.6537

> <r_epik_Ionization_Penalty_Charging>
0.000221913

> <r_epik_Ionization_Penalty_Neutral>
1.65348

> <r_epik_State_Penalty>
1.75577

> <r_epik_Charging_Adjusted_Penalty>
1.75599

> <i_epik_Tot_Q>
-1

> <i_epik_Tot_abs_Q>
1

> <r_epik_Metal_State_Penalty>
1.75577

> <b_epik_Metal_Only>
0

> <s_lp_Force_Field>
OPLS_2005

> <r_lp_Energy>
35.559

> <b_lp_Chiralities_Consistent>
1

> <s_lp_Variant>
AV-unprocessed.smi:52-6

> <Gold.Version>
5.8.1

> <Gold.Id.Protein>
6NUR|6NUR_protein|mol2

> <Gold.PLP.Fitness>
38.6046

> <Gold.PLP.PLP>
-18.9576

> <Gold.PLP.part.hbond>
-5.0000

> <Gold.PLP.part.metal>
0.0000

> <Gold.PLP.part.buried>
3.8583

> <Gold.PLP.part.nonpolar>
-16.3551

> <Gold.PLP.part.repulsive>
0.0672

> <Gold.PLP.ligand.clash>
0.0000

> <Gold.PLP.ligand.torsion>
0.1844

> <Gold.PLP.Chemscore.Hbond>
6.6713

> <Gold.PLP.Chemscore.CHOScore>
0.0000

> <Gold.PLP.Chemscore.Metal>
0.0000

> <Gold.Chemscore.Hbonds>
donor molecule, donor type, donor heavy atom, donor atom, acceptor molecule, acceptor atom, score
      L1  H    13    24       P1  8028  1.00
      P1  H  6896  6908       L1     3  1.95
      P1  H  7989  7998       L1     9  0.75
      P1  H  7997  8009       L1     6  0.86
      P1  H 10752 10765       L1     1  0.52

> <Gold.PLP.Chemscore.Internal.Correction>
0.0021

> <Gold.Rescore>
     Score         DG    S(hbond)    S(metal)    S(lipo)     H(rot)  DE(clash)    DE(int)     intcor
     14.77     -15.89       3.06        0.00      44.36       1.95       0.97       0.14       ----

> <Gold.Chemscore.Fitness>
14.7719

> <Gold.Chemscore.DG>
-15.8871

> <Gold.Chemscore.ZeroCoef>
-5.4800

> <Gold.Chemscore.Hbond>
3.0564

> <Gold.Chemscore.Metal>
0.0000

> <Gold.Chemscore.Lipo>
44.3597

> <Gold.Chemscore.Internal_Hbond>
0.0000

> <Gold.Chemscore.DEClash>
0.9708

> <Gold.Chemscore.DEInternal>
0.1444

> <Gold.Chemscore.Rot>
1.9497

> <Gold.Chemscore.Internal.Correction>
   9.000000E+99

> <Gold.Chemscore.Hbonds>
donor molecule, donor type, donor heavy atom, donor atom, acceptor molecule, acceptor atom, score
      L1  H    13    24       P1  8028  0.58
      P1  H  6896  6908       L1     3  0.64
      P1  H  7989  7998       L1     9  0.16
      P1  H  7997  8009       L1     6  0.10
      P1  H 10752 10765       L1     1  0.26

> <Gold.Chemscore.Hbond.Weighted>
-10.2082

> <Gold.Chemscore.Metal.Weighted>
-0.0000

> <Gold.Chemscore.Lipo.Weighted>
-5.1901

> <Gold.Chemscore.Internal_Hbond.Weighted>
0.0000

> <Gold.Chemscore.DEClash.Weighted>
0.9708

> <Gold.Chemscore.DEInternal.Weighted>
0.1444

> <Gold.Chemscore.Rot.Weighted>
4.9912

> <Gold.Chemscore.Internal.Correction.Weighted>
   9.000000E+99

> <Gold.Protein.RotatedTorsions>
[ 6907 6896 6895 6894 ] final  -74.20 input  -60.11 | X-H torsion
[ 7974 7965 7964 7962 ] final -157.19 input  175.53 | X-H torsion
[ 8008 7997 7996 7995 ] final -125.91 input   59.86 | X-H torsion
[ 10167 10162 10161 10158 ] final   11.77 input  -65.29 | X-H torsion
[ 10718 10713 10712 10709 ] final   -9.35 input   66.30 | X-H torsion
[ 10763 10752 10751 10750 ] final  -89.23 input  -60.55 | X-H torsion
[ 11005 11000 10999 10996 ] final   46.23 input  -57.11 | X-H torsion

> <Gold.Protein.ActiveResidues>
 VAL166  LYS551  ARG553  GLY616  TRP617  ASP618  TYR619  PRO620  LYS621  CYS622 
 ASP623  PHE694  ASN695  SER759  ASP760  ASP761  ALA762  ILE779  LEU786  VAL792 
 PHE793  MET794  SER795  GLU796  ALA797  LYS798  CYS799  TRP800  GLU811  SER814 

> <Gold.Protein.RotatedAtoms>
  150.7102  134.4904  159.5512 H   0  0  0  0  0  0  0  0  0  0  0  0  # atno 6907 bound_to 6896
  152.2522  134.8118  160.0453 H   0  0  0  0  0  0  0  0  0  0  0  0  # atno 6908 bound_to 6896
  151.8861  133.3470  159.3819 H   0  0  0  0  0  0  0  0  0  0  0  0  # atno 6909 bound_to 6896
  144.7559  140.4004  143.6012 H   0  0  0  0  0  0  0  0  0  0  0  0  # atno 7974 bound_to 7965
  155.2210  140.0422  157.2948 H   0  0  0  0  0  0  0  0  0  0  0  0  # atno 8008 bound_to 7997
  154.5949  140.2437  155.7840 H   0  0  0  0  0  0  0  0  0  0  0  0  # atno 8009 bound_to 7997
  156.2284  140.2947  156.0134 H   0  0  0  0  0  0  0  0  0  0  0  0  # atno 8010 bound_to 7997
  140.6110  143.8407  150.7066 H   0  0  0  0  0  0  0  0  0  0  0  0  # atno 10167 bound_to 10162
  156.6893  130.5060  149.5948 H   0  0  0  0  0  0  0  0  0  0  0  0  # atno 10718 bound_to 10713
  154.6530  135.5348  153.7925 H   0  0  0  0  0  0  0  0  0  0  0  0  # atno 10763 bound_to 10752
  153.0397  135.6487  154.0987 H   0  0  0  0  0  0  0  0  0  0  0  0  # atno 10764 bound_to 10752
  154.0903  135.2940  155.3253 H   0  0  0  0  0  0  0  0  0  0  0  0  # atno 10765 bound_to 10752
  140.1388  134.4610  155.8465 H   0  0  0  0  0  0  0  0  0  0  0  0  # atno 11005 bound_to 11000
  145.6780  139.1612  143.2717 LP  0  0  0  0  0  0  0  0  0  0  0  0  # atno 17320 bound_to 7965
  146.1569  140.6845  142.9296 LP  0  0  0  0  0  0  0  0  0  0  0  0  # atno 17321 bound_to 7965
  140.1975  143.3986  152.1817 LP  0  0  0  0  0  0  0  0  0  0  0  0  # atno 17342 bound_to 10162
  139.5362  144.7211  151.4887 LP  0  0  0  0  0  0  0  0  0  0  0  0  # atno 17343 bound_to 10162
  156.1810  130.6498  151.0951 LP  0  0  0  0  0  0  0  0  0  0  0  0  # atno 17370 bound_to 10713
  157.7015  131.0774  150.6805 LP  0  0  0  0  0  0  0  0  0  0  0  0  # atno 17371 bound_to 10713
  141.2182  133.6825  156.7208 LP  0  0  0  0  0  0  0  0  0  0  0  0  # atno 17394 bound_to 11000
  140.2748  134.8363  157.3880 LP  0  0  0  0  0  0  0  0  0  0  0  0  # atno 17395 bound_to 11000

$$$$
