AV-unprocessed.smi:1672|AV-procd|sdf|6704|dock2
  -GOLD-   22720 7443D 1   1.00000     0.00000
 Structure written by MMmdl.
 48 50  0  0  0  0  0  0  0  0  2 V2000
  147.7747  137.6394  154.9548 C   0  0  0  0  0  0  0  0  0  0  0  0
  146.9104  138.8217  154.4823 C   0  0  2  0  0  0  0  0  0  0  0  0
  145.4385  138.6936  154.9145 C   0  0  0  0  0  0  0  0  0  0  0  0
  144.6817  137.6324  154.0961 C   0  0  0  0  0  0  0  0  0  0  0  0
  144.7712  137.9152  152.6390 N   0  3  2  0  0  0  0  0  0  0  0  0
  143.9486  136.9983  151.8081 C   0  0  0  0  0  0  0  0  0  0  0  0
  144.2894  135.5133  152.0431 C   0  0  1  0  0  0  0  0  0  0  0  0
  143.0966  134.8161  152.3464 O   0  0  0  0  0  0  0  0  0  0  0  0
  144.9538  134.8799  150.8047 C   0  0  0  0  0  0  0  0  0  0  0  0
  145.1824  133.4494  150.9630 N   0  0  0  0  0  0  0  0  0  0  0  0
  144.8002  132.4332  150.1476 C   0  0  0  0  0  0  0  0  0  0  0  0
  144.0397  132.6649  148.8778 C   0  0  0  0  0  0  0  0  0  0  0  0
  142.7546  132.0825  148.9016 O   0  0  0  0  0  0  0  0  0  0  0  0
  145.1482  131.2092  150.5456 N   0  0  0  0  0  0  0  0  0  0  0  0
  145.8257  131.4522  151.7242 C   0  0  0  0  0  0  0  0  0  0  0  0
  146.4466  130.5610  152.6282 C   0  0  0  0  0  0  0  0  0  0  0  0
  147.0892  131.0500  153.7846 C   0  0  0  0  0  0  0  0  0  0  0  0
  147.1203  132.4337  154.0530 C   0  0  0  0  0  0  0  0  0  0  0  0
  146.5073  133.3392  153.1656 C   0  0  0  0  0  0  0  0  0  0  0  0
  145.8668  132.8454  152.0131 C   0  0  0  0  0  0  0  0  0  0  0  0
  146.1831  137.9762  152.1806 C   0  0  0  0  0  0  0  0  0  0  0  0
  146.9790  139.0392  152.9597 C   0  0  0  0  0  0  0  0  0  0  0  0
  147.4519  136.6933  154.5212 H   0  0  0  0  0  0  0  0  0  0  0  0
  147.7336  137.5355  156.0394 H   0  0  0  0  0  0  0  0  0  0  0  0
  148.8199  137.7871  154.6812 H   0  0  0  0  0  0  0  0  0  0  0  0
  147.3187  139.7127  154.9615 H   0  0  0  0  0  0  0  0  0  0  0  0
  145.3758  138.4625  155.9786 H   0  0  0  0  0  0  0  0  0  0  0  0
  144.9432  139.6572  154.7859 H   0  0  0  0  0  0  0  0  0  0  0  0
  145.0784  136.6375  154.3023 H   0  0  0  0  0  0  0  0  0  0  0  0
  143.6415  137.6229  154.4184 H   0  0  0  0  0  0  0  0  0  0  0  0
  142.8911  137.1463  152.0338 H   0  0  0  0  0  0  0  0  0  0  0  0
  144.0729  137.2589  150.7559 H   0  0  0  0  0  0  0  0  0  0  0  0
  144.9658  135.4071  152.8904 H   0  0  0  0  0  0  0  0  0  0  0  0
  142.7721  135.1244  153.1796 H   0  0  0  0  0  0  0  0  0  0  0  0
  144.3562  135.0621  149.9117 H   0  0  0  0  0  0  0  0  0  0  0  0
  145.9191  135.3532  150.6201 H   0  0  0  0  0  0  0  0  0  0  0  0
  143.9313  133.7376  148.7142 H   0  0  0  0  0  0  0  0  0  0  0  0
  144.6018  132.2758  148.0292 H   0  0  0  0  0  0  0  0  0  0  0  0
  142.1108  132.7718  148.8492 H   0  0  0  0  0  0  0  0  0  0  0  0
  146.4294  129.4993  152.4313 H   0  0  0  0  0  0  0  0  0  0  0  0
  147.5615  130.3595  154.4680 H   0  0  0  0  0  0  0  0  0  0  0  0
  147.6161  132.7992  154.9405 H   0  0  0  0  0  0  0  0  0  0  0  0
  146.5311  134.3995  153.3683 H   0  0  0  0  0  0  0  0  0  0  0  0
  146.6464  136.9943  152.2857 H   0  0  0  0  0  0  0  0  0  0  0  0
  146.2129  138.2243  151.1189 H   0  0  0  0  0  0  0  0  0  0  0  0
  146.5769  140.0249  152.7220 H   0  0  0  0  0  0  0  0  0  0  0  0
  148.0172  139.0491  152.6260 H   0  0  0  0  0  0  0  0  0  0  0  0
  144.3904  138.8397  152.4933 H   0  0  0  0  0  0  0  0  0  0  0  0
  1  2  1  0  0  0  0
  1 23  1  0  0  0  0
  1 24  1  0  0  0  0
  1 25  1  0  0  0  0
  2 22  1  0  0  0  0
  2  3  1  0  0  0  0
  2 26  1  0  0  0  0
  3  4  1  0  0  0  0
  3 27  1  0  0  0  0
  3 28  1  0  0  0  0
  4  5  1  0  0  0  0
  4 29  1  0  0  0  0
  4 30  1  0  0  0  0
  5  6  1  0  0  0  0
  5 21  1  0  0  0  0
  5 48  1  0  0  0  0
  6  7  1  0  0  0  0
  6 31  1  0  0  0  0
  6 32  1  0  0  0  0
  7  8  1  0  0  0  0
  7  9  1  0  0  0  0
  7 33  1  0  0  0  0
  8 34  1  0  0  0  0
  9 10  1  0  0  0  0
  9 35  1  0  0  0  0
  9 36  1  0  0  0  0
 10 20  1  0  0  0  0
 10 11  1  0  0  0  0
 11 12  1  0  0  0  0
 11 14  2  0  0  0  0
 12 13  1  0  0  0  0
 12 37  1  0  0  0  0
 12 38  1  0  0  0  0
 13 39  1  0  0  0  0
 14 15  1  0  0  0  0
 15 20  2  0  0  0  0
 15 16  1  0  0  0  0
 16 17  2  0  0  0  0
 16 40  1  0  0  0  0
 17 18  1  0  0  0  0
 17 41  1  0  0  0  0
 18 19  2  0  0  0  0
 18 42  1  0  0  0  0
 19 20  1  0  0  0  0
 19 43  1  0  0  0  0
 21 22  1  0  0  0  0
 21 44  1  0  0  0  0
 21 45  1  0  0  0  0
 22 46  1  0  0  0  0
 22 47  1  0  0  0  0
M  CHG  1   5   1
M  END
> <s_m_source_file>
AV-unprocessed.smi

> <i_m_source_file_index>
1672

> <i_lp_mmshare_version>
43012

> <i_f3d_flags>
0

> <s_epik_input>
W0NIM11bQ0hdMVtDSDJdW0NIMl1OKFtDSDJdW0NIMl0xKVtDSDJdW0NASF0oW09IXSlbQ0gyXW4oYyhuMilbQ0gyXVtPSF0pYyhjMjMpW2NIXVtjSF1bY0hdW2NIXTM=

> <s_epik_cmdline>
J2VwaWtfcHl0aG9uJywgJy1waCcsICc3LjAnLCAnLXRuJywgJzgnLCAnLW1hJywgJzIwMCcsICctbWV0YWxfYmluZGluZycsICctaW1hZScsICc8aW5maWxlLm1hZT4nLCAnLW9tYWUnLCAnPG91dGZpbGUubWFlPic=

> <r_epik_Ionization_Penalty>
0.0498263

> <r_epik_Ionization_Penalty_Charging>
0.00181365

> <r_epik_Ionization_Penalty_Neutral>
0.0480127

> <r_epik_State_Penalty>
0.0408546

> <r_epik_Charging_Adjusted_Penalty>
0.0426682

> <i_epik_Tot_Q>
1

> <i_epik_Tot_abs_Q>
1

> <r_epik_Metal_State_Penalty>
4.22946e-05

> <b_epik_Metal_Only>
0

> <s_lp_Force_Field>
OPLS_2005

> <r_lp_Energy>
24.4653

> <b_lp_Chiralities_Consistent>
1

> <s_lp_Variant>
AV-unprocessed.smi:1672-4

> <Gold.Version>
5.8.1

> <Gold.Id.Protein>
6NUR|6NUR_protein|mol2

> <Gold.PLP.Fitness>
46.4432

> <Gold.PLP.PLP>
-36.0364

> <Gold.PLP.part.hbond>
-5.2019

> <Gold.PLP.part.metal>
0.0000

> <Gold.PLP.part.buried>
-0.8292

> <Gold.PLP.part.nonpolar>
-30.6325

> <Gold.PLP.part.repulsive>
0.1061

> <Gold.PLP.ligand.clash>
0.0000

> <Gold.PLP.ligand.torsion>
0.8218

> <Gold.PLP.Chemscore.Hbond>
3.9913

> <Gold.PLP.Chemscore.CHOScore>
0.0000

> <Gold.PLP.Chemscore.Metal>
0.0000

> <Gold.Chemscore.Hbonds>
donor molecule, donor type, donor heavy atom, donor atom, acceptor molecule, acceptor atom, score
      L1  H     5    48       P1 10175  2.00
      L1  H    13    39       P1 10186  0.86
      P1  H 10785 10796       L1    13  1.00

> <Gold.PLP.Chemscore.Internal.Correction>
0.0768

> <Gold.Rescore>
     Score         DG    S(hbond)    S(metal)    S(lipo)     H(rot)  DE(clash)    DE(int)     intcor
     13.83     -16.14       2.55        0.00      81.15       2.88       1.49       0.81       ----

> <Gold.Chemscore.Fitness>
13.8336

> <Gold.Chemscore.DG>
-16.1399

> <Gold.Chemscore.ZeroCoef>
-5.4800

> <Gold.Chemscore.Hbond>
2.5548

> <Gold.Chemscore.Metal>
0.0000

> <Gold.Chemscore.Lipo>
81.1451

> <Gold.Chemscore.Internal_Hbond>
0.0000

> <Gold.Chemscore.DEClash>
1.4925

> <Gold.Chemscore.DEInternal>
0.8138

> <Gold.Chemscore.Rot>
2.8778

> <Gold.Chemscore.Internal.Correction>
   9.000000E+99

> <Gold.Chemscore.Hbonds>
donor molecule, donor type, donor heavy atom, donor atom, acceptor molecule, acceptor atom, score
      L1  H     5    48       P1 10175  1.00
      L1  H    13    39       P1 10186  0.83
      P1  H 10785 10796       L1    13  0.33

> <Gold.Chemscore.Hbond.Weighted>
-8.5330

> <Gold.Chemscore.Metal.Weighted>
-0.0000

> <Gold.Chemscore.Lipo.Weighted>
-9.4940

> <Gold.Chemscore.Internal_Hbond.Weighted>
0.0000

> <Gold.Chemscore.DEClash.Weighted>
1.4925

> <Gold.Chemscore.DEInternal.Weighted>
0.8138

> <Gold.Chemscore.Rot.Weighted>
7.3671

> <Gold.Chemscore.Internal.Correction.Weighted>
   9.000000E+99

> <Gold.Protein.RotatedTorsions>
[ 6907 6896 6895 6894 ] final  -24.93 input  -60.11 | X-H torsion
[ 7974 7965 7964 7962 ] final   67.43 input  175.53 | X-H torsion
[ 8008 7997 7996 7995 ] final  108.29 input   59.86 | X-H torsion
[ 10167 10162 10161 10158 ] final  149.01 input  -65.29 | X-H torsion
[ 10718 10713 10712 10709 ] final  166.23 input   66.30 | X-H torsion
[ 10763 10752 10751 10750 ] final   51.81 input  -60.55 | X-H torsion
[ 11005 11000 10999 10996 ] final   23.26 input  -57.11 | X-H torsion

> <Gold.Protein.ActiveResidues>
 VAL166  LYS551  ARG553  GLY616  TRP617  ASP618  TYR619  PRO620  LYS621  CYS622 
 ASP623  PHE694  ASN695  SER759  ASP760  ASP761  ALA762  ILE779  LEU786  VAL792 
 PHE793  MET794  SER795  GLU796  ALA797  LYS798  CYS799  TRP800  GLU811  SER814 

> <Gold.Protein.RotatedAtoms>
  151.1824  135.0367  159.8797 H   0  0  0  0  0  0  0  0  0  0  0  0  # atno 6907 bound_to 6896
  152.5444  134.1048  159.8343 H   0  0  0  0  0  0  0  0  0  0  0  0  # atno 6908 bound_to 6896
  151.1166  133.5087  159.2636 H   0  0  0  0  0  0  0  0  0  0  0  0  # atno 6909 bound_to 6896
  145.8147  139.3051  143.1078 H   0  0  0  0  0  0  0  0  0  0  0  0  # atno 7974 bound_to 7965
  156.1891  140.3079  155.9297 H   0  0  0  0  0  0  0  0  0  0  0  0  # atno 8008 bound_to 7997
  155.3214  140.0456  157.3056 H   0  0  0  0  0  0  0  0  0  0  0  0  # atno 8009 bound_to 7997
  154.5431  140.2268  155.8618 H   0  0  0  0  0  0  0  0  0  0  0  0  # atno 8010 bound_to 7997
  139.4867  144.5635  151.7187 H   0  0  0  0  0  0  0  0  0  0  0  0  # atno 10167 bound_to 10162
  157.0688  131.0360  151.2619 H   0  0  0  0  0  0  0  0  0  0  0  0  # atno 10718 bound_to 10713
  152.9786  135.5833  154.4476 H   0  0  0  0  0  0  0  0  0  0  0  0  # atno 10763 bound_to 10752
  154.4069  135.2769  155.2063 H   0  0  0  0  0  0  0  0  0  0  0  0  # atno 10764 bound_to 10752
  154.3870  135.6134  153.5876 H   0  0  0  0  0  0  0  0  0  0  0  0  # atno 10765 bound_to 10752
  140.3715  134.2017  155.7666 H   0  0  0  0  0  0  0  0  0  0  0  0  # atno 11005 bound_to 11000
  145.9739  140.8737  143.0148 LP  0  0  0  0  0  0  0  0  0  0  0  0  # atno 17320 bound_to 7965
  144.6753  140.1985  143.7389 LP  0  0  0  0  0  0  0  0  0  0  0  0  # atno 17321 bound_to 7965
  140.5209  144.0880  150.6022 LP  0  0  0  0  0  0  0  0  0  0  0  0  # atno 17342 bound_to 10162
  140.3838  143.2789  152.0140 LP  0  0  0  0  0  0  0  0  0  0  0  0  # atno 17343 bound_to 10162
  157.4895  130.7813  149.7493 LP  0  0  0  0  0  0  0  0  0  0  0  0  # atno 17370 bound_to 10713
  155.9956  130.3910  150.2811 LP  0  0  0  0  0  0  0  0  0  0  0  0  # atno 17371 bound_to 10713
  141.1953  133.8109  157.0721 LP  0  0  0  0  0  0  0  0  0  0  0  0  # atno 17394 bound_to 11000
  140.0548  134.9786  157.1201 LP  0  0  0  0  0  0  0  0  0  0  0  0  # atno 17395 bound_to 11000

$$$$
