AV-unprocessed.smi:3349|AV-procd|sdf|12933|dock6
  -GOLD-   2272019363D 1   1.00000     0.00000
 Structure written by MMmdl.
 40 41  0  0  0  0  0  0  0  0  1 V2000
  153.2316  139.2027  154.5694 C   0  0  0  0  0  0  0  0  0  0  0  0
  152.2889  139.9146  155.5747 C   0  0  2  0  0  0  0  0  0  0  0  0
  151.9300  138.9217  156.7147 C   0  0  0  0  0  0  0  0  0  0  0  0
  152.1076  139.5132  158.0355 N   0  0  0  0  0  0  0  0  0  0  0  0
  153.2852  139.6623  158.6609 C   0  0  0  0  0  0  0  0  0  0  0  0
  154.3484  139.2538  158.1925 O   0  0  0  0  0  0  0  0  0  0  0  0
  153.2437  140.3832  160.0196 C   0  0  1  0  0  0  0  0  0  0  0  0
  154.5948  140.3519  160.7631 C   0  0  0  0  0  0  0  0  0  0  0  0
  152.7429  141.7439  159.8594 N   0  0  0  0  0  0  0  0  0  0  0  0
  152.5278  142.6924  160.7736 C   0  0  0  0  0  0  0  0  0  0  0  0
  152.0131  143.8099  160.2801 N   0  0  0  0  0  0  0  0  0  0  0  0
  151.9221  143.4569  158.9637 C   0  0  0  0  0  0  0  0  0  0  0  0
  152.3371  142.2275  158.6587 N   0  0  0  0  0  0  0  0  0  0  0  0
  151.1005  140.5103  154.9207 N   0  0  0  0  0  0  0  0  0  0  0  0
  150.1348  139.5022  154.4674 C   0  0  0  0  0  0  0  0  0  0  0  0
  148.8849  140.1204  153.8169 C   0  0  0  0  0  0  0  0  0  0  0  0
  148.2643  141.0182  154.7265 O   0  0  0  0  0  0  0  0  0  0  0  0
  149.1428  142.0595  155.1291 C   0  0  0  0  0  0  0  0  0  0  0  0
  150.3923  141.4549  155.7926 C   0  0  0  0  0  0  0  0  0  0  0  0
  154.0795  138.7217  155.0563 H   0  0  0  0  0  0  0  0  0  0  0  0
  153.6739  139.8954  153.8546 H   0  0  0  0  0  0  0  0  0  0  0  0
  152.6996  138.4337  154.0085 H   0  0  0  0  0  0  0  0  0  0  0  0
  152.8622  140.7247  156.0289 H   0  0  0  0  0  0  0  0  0  0  0  0
  150.8868  138.6132  156.6698 H   0  0  0  0  0  0  0  0  0  0  0  0
  152.5372  138.0193  156.6205 H   0  0  0  0  0  0  0  0  0  0  0  0
  151.2795  139.8695  158.4896 H   0  0  0  0  0  0  0  0  0  0  0  0
  152.5216  139.8476  160.6380 H   0  0  0  0  0  0  0  0  0  0  0  0
  154.9197  139.3271  160.9466 H   0  0  0  0  0  0  0  0  0  0  0  0
  154.5160  140.8459  161.7319 H   0  0  0  0  0  0  0  0  0  0  0  0
  155.3834  140.8534  160.2002 H   0  0  0  0  0  0  0  0  0  0  0  0
  152.7453  142.5604  161.8234 H   0  0  0  0  0  0  0  0  0  0  0  0
  151.5332  144.1238  158.2083 H   0  0  0  0  0  0  0  0  0  0  0  0
  150.5829  138.8455  153.7246 H   0  0  0  0  0  0  0  0  0  0  0  0
  149.8327  138.8748  155.3074 H   0  0  0  0  0  0  0  0  0  0  0  0
  149.1477  140.6456  152.8971 H   0  0  0  0  0  0  0  0  0  0  0  0
  148.1734  139.3398  153.5471 H   0  0  0  0  0  0  0  0  0  0  0  0
  149.4189  142.6685  154.2669 H   0  0  0  0  0  0  0  0  0  0  0  0
  148.6219  142.7131  155.8289 H   0  0  0  0  0  0  0  0  0  0  0  0
  150.1040  140.9574  156.7199 H   0  0  0  0  0  0  0  0  0  0  0  0
  151.0402  142.2856  156.0664 H   0  0  0  0  0  0  0  0  0  0  0  0
  1  2  1  0  0  0  0
  1 20  1  0  0  0  0
  1 21  1  0  0  0  0
  1 22  1  0  0  0  0
  2  3  1  0  0  0  0
  2 14  1  0  0  0  0
  2 23  1  0  0  0  0
  3  4  1  0  0  0  0
  3 24  1  0  0  0  0
  3 25  1  0  0  0  0
  4  5  1  0  0  0  0
  4 26  1  0  0  0  0
  5  6  2  0  0  0  0
  5  7  1  0  0  0  0
  7  8  1  0  0  0  0
  7  9  1  0  0  0  0
  7 27  1  0  0  0  0
  8 28  1  0  0  0  0
  8 29  1  0  0  0  0
  8 30  1  0  0  0  0
  9 13  1  0  0  0  0
  9 10  1  0  0  0  0
 10 11  2  0  0  0  0
 10 31  1  0  0  0  0
 11 12  1  0  0  0  0
 12 13  2  0  0  0  0
 12 32  1  0  0  0  0
 14 19  1  0  0  0  0
 14 15  1  0  0  0  0
 15 16  1  0  0  0  0
 15 33  1  0  0  0  0
 15 34  1  0  0  0  0
 16 17  1  0  0  0  0
 16 35  1  0  0  0  0
 16 36  1  0  0  0  0
 17 18  1  0  0  0  0
 18 19  1  0  0  0  0
 18 37  1  0  0  0  0
 18 38  1  0  0  0  0
 19 39  1  0  0  0  0
 19 40  1  0  0  0  0
M  END
> <s_m_source_file>
AV-unprocessed.smi

> <i_m_source_file_index>
3349

> <i_lp_mmshare_version>
43012

> <i_f3d_flags>
0

> <s_epik_input>
W0NIMl0xW0NIMl1PW0NIMl1bQ0gyXU4xW0NASF0oW0NIM10pW0NIMl1bTkhdQyg9TylbQ0BIXShbQ0gzXSluMltjSF1uW2NIXW4y

> <s_epik_cmdline>
J2VwaWtfcHl0aG9uJywgJy1waCcsICc3LjAnLCAnLXRuJywgJzgnLCAnLW1hJywgJzIwMCcsICctbWV0YWxfYmluZGluZycsICctaW1hZScsICc8aW5maWxlLm1hZT4nLCAnLW9tYWUnLCAnPG91dGZpbGUubWFlPic=

> <r_lp_tautomer_probability>
1

> <r_epik_Ionization_Penalty>
0.211373

> <r_epik_Ionization_Penalty_Charging>
0

> <r_epik_Ionization_Penalty_Neutral>
0.211373

> <r_epik_State_Penalty>
0.201459

> <r_epik_Charging_Adjusted_Penalty>
0.201459

> <i_epik_Tot_Q>
0

> <i_epik_Tot_abs_Q>
0

> <r_epik_Metal_State_Penalty>
0.201458

> <b_epik_Metal_Only>
0

> <s_lp_Force_Field>
OPLS_2005

> <r_lp_Energy>
35.2026

> <b_lp_Chiralities_Consistent>
1

> <s_lp_Variant>
AV-unprocessed.smi:3349-3

> <Gold.Version>
5.8.1

> <Gold.Id.Protein>
6NUR|6NUR_protein|mol2

> <Gold.PLP.Fitness>
40.8434

> <Gold.PLP.PLP>
-36.7290

> <Gold.PLP.part.hbond>
-2.0000

> <Gold.PLP.part.metal>
0.0000

> <Gold.PLP.part.buried>
-0.8457

> <Gold.PLP.part.nonpolar>
-33.6877

> <Gold.PLP.part.repulsive>
0.2510

> <Gold.PLP.ligand.clash>
0.0000

> <Gold.PLP.ligand.torsion>
1.0195

> <Gold.PLP.Chemscore.Hbond>
2.0000

> <Gold.PLP.Chemscore.CHOScore>
0.0000

> <Gold.PLP.Chemscore.Metal>
0.0000

> <Gold.Chemscore.Hbonds>
donor molecule, donor type, donor heavy atom, donor atom, acceptor molecule, acceptor atom, score
      P1  H  7989  7998       L1    14  0.85
      P1  H  7997  8008       L1     6  0.49

> <Gold.PLP.Chemscore.Internal.Correction>
0.1534

> <Gold.Rescore>
     Score         DG    S(hbond)    S(metal)    S(lipo)     H(rot)  DE(clash)    DE(int)     intcor
      7.13      -9.33       0.99        0.00      60.51       2.56       0.02       2.18       ----

> <Gold.Chemscore.Fitness>
7.1277

> <Gold.Chemscore.DG>
-9.3255

> <Gold.Chemscore.ZeroCoef>
-5.4800

> <Gold.Chemscore.Hbond>
0.9917

> <Gold.Chemscore.Metal>
0.0000

> <Gold.Chemscore.Lipo>
60.5065

> <Gold.Chemscore.Internal_Hbond>
0.0000

> <Gold.Chemscore.DEClash>
0.0197

> <Gold.Chemscore.DEInternal>
2.1782

> <Gold.Chemscore.Rot>
2.5570

> <Gold.Chemscore.Internal.Correction>
   9.000000E+99

> <Gold.Chemscore.Hbonds>
donor molecule, donor type, donor heavy atom, donor atom, acceptor molecule, acceptor atom, score
      P1  H  7989  7998       L1    14  0.05
      P1  H  7997  8008       L1     6  0.43

> <Gold.Chemscore.Hbond.Weighted>
-3.3121

> <Gold.Chemscore.Metal.Weighted>
-0.0000

> <Gold.Chemscore.Lipo.Weighted>
-7.0793

> <Gold.Chemscore.Internal_Hbond.Weighted>
0.0000

> <Gold.Chemscore.DEClash.Weighted>
0.0197

> <Gold.Chemscore.DEInternal.Weighted>
2.1782

> <Gold.Chemscore.Rot.Weighted>
6.5459

> <Gold.Chemscore.Internal.Correction.Weighted>
   9.000000E+99

> <Gold.Protein.RotatedTorsions>
[ 6907 6896 6895 6894 ] final -135.88 input  -60.11 | X-H torsion
[ 7974 7965 7964 7962 ] final   10.46 input  175.53 | X-H torsion
[ 8008 7997 7996 7995 ] final -100.82 input   59.86 | X-H torsion
[ 10167 10162 10161 10158 ] final -148.40 input  -65.29 | X-H torsion
[ 10718 10713 10712 10709 ] final   63.55 input   66.30 | X-H torsion
[ 10763 10752 10751 10750 ] final   76.74 input  -60.55 | X-H torsion
[ 11005 11000 10999 10996 ] final    4.24 input  -57.11 | X-H torsion

> <Gold.Protein.ActiveResidues>
 VAL166  LYS551  ARG553  GLY616  TRP617  ASP618  TYR619  PRO620  LYS621  CYS622 
 ASP623  PHE694  ASN695  SER759  ASP760  ASP761  ALA762  ILE779  LEU786  VAL792 
 PHE793  MET794  SER795  GLU796  ALA797  LYS798  CYS799  TRP800  GLU811  SER814 

> <Gold.Protein.RotatedAtoms>
  151.0033  133.6035  159.2691 H   0  0  0  0  0  0  0  0  0  0  0  0  # atno 6907 bound_to 6896
  151.3214  135.0818  159.9316 H   0  0  0  0  0  0  0  0  0  0  0  0  # atno 6908 bound_to 6896
  152.5280  133.9679  159.7802 H   0  0  0  0  0  0  0  0  0  0  0  0  # atno 6909 bound_to 6896
  146.2388  139.9631  142.8456 H   0  0  0  0  0  0  0  0  0  0  0  0  # atno 7974 bound_to 7965
  154.8339  140.0438  157.1495 H   0  0  0  0  0  0  0  0  0  0  0  0  # atno 8008 bound_to 7997
  154.9122  140.3015  155.5240 H   0  0  0  0  0  0  0  0  0  0  0  0  # atno 8009 bound_to 7997
  156.2988  140.2356  156.4162 H   0  0  0  0  0  0  0  0  0  0  0  0  # atno 8010 bound_to 7997
  139.7535  143.8482  152.2592 H   0  0  0  0  0  0  0  0  0  0  0  0  # atno 10167 bound_to 10162
  157.5979  130.9111  149.9730 H   0  0  0  0  0  0  0  0  0  0  0  0  # atno 10718 bound_to 10713
  153.0747  135.4940  154.8379 H   0  0  0  0  0  0  0  0  0  0  0  0  # atno 10763 bound_to 10752
  154.7071  135.3012  154.9256 H   0  0  0  0  0  0  0  0  0  0  0  0  # atno 10764 bound_to 10752
  153.9961  135.6772  153.4809 H   0  0  0  0  0  0  0  0  0  0  0  0  # atno 10765 bound_to 10752
  140.5841  133.9985  155.8060 H   0  0  0  0  0  0  0  0  0  0  0  0  # atno 11005 bound_to 11000
  145.1752  140.9740  143.4298 LP  0  0  0  0  0  0  0  0  0  0  0  0  # atno 17320 bound_to 7965
  144.9992  139.3614  143.6176 LP  0  0  0  0  0  0  0  0  0  0  0  0  # atno 17321 bound_to 7965
  139.8467  144.7184  150.9263 LP  0  0  0  0  0  0  0  0  0  0  0  0  # atno 17342 bound_to 10162
  140.7800  143.3935  151.1270 LP  0  0  0  0  0  0  0  0  0  0  0  0  # atno 17343 bound_to 10162
  156.1045  130.3653  150.0158 LP  0  0  0  0  0  0  0  0  0  0  0  0  # atno 17370 bound_to 10713
  156.8267  130.9378  151.3639 LP  0  0  0  0  0  0  0  0  0  0  0  0  # atno 17371 bound_to 10713
  141.0977  133.9817  157.3132 LP  0  0  0  0  0  0  0  0  0  0  0  0  # atno 17394 bound_to 11000
  139.9304  135.0200  156.8379 LP  0  0  0  0  0  0  0  0  0  0  0  0  # atno 17395 bound_to 11000

$$$$
