AV-unprocessed.smi:2077|AV-procd|sdf|8462|dock6
  -GOLD-   2272011163D 1   1.00000     0.00000
 Structure written by MMmdl.
 38 40  0  0  0  0  0  0  0  0  1 V2000
  154.4812  139.5881  160.0344 C   0  0  0  0  0  0  0  0  0  0  0  0
  153.6001  140.7646  159.9095 N   0  0  0  0  0  0  0  0  0  0  0  0
  152.8703  140.9075  158.7586 C   0  0  0  0  0  0  0  0  0  0  0  0
  152.8822  140.1196  157.8117 O   0  0  0  0  0  0  0  0  0  0  0  0
  152.0393  142.1139  158.7308 C   0  0  0  0  0  0  0  0  0  0  0  0
  151.9859  142.9983  159.7552 C   0  0  0  0  0  0  0  0  0  0  0  0
  151.1219  144.0502  159.4713 N   0  0  0  0  0  0  0  0  0  0  0  0
  150.6875  143.7314  158.2507 C   0  0  0  0  0  0  0  0  0  0  0  0
  151.1868  142.5888  157.7365 N   0  0  0  0  0  0  0  0  0  0  0  0
  150.8827  142.0161  156.4347 C   0  0  0  0  0  0  0  0  0  0  0  0
  149.9079  140.8261  156.5265 C   0  0  1  0  0  0  0  0  0  0  0  0
  149.1980  140.8849  157.7491 O   0  0  0  0  0  0  0  0  0  0  0  0
  148.9835  140.7771  155.3206 C   0  0  0  0  0  0  0  0  0  0  0  0
  149.0455  139.7038  154.4042 C   0  0  0  0  0  0  0  0  0  0  0  0
  148.1749  139.6648  153.2975 C   0  0  0  0  0  0  0  0  0  0  0  0
  147.2363  140.6962  153.1023 C   0  0  0  0  0  0  0  0  0  0  0  0
  147.1672  141.7660  154.0152 C   0  0  0  0  0  0  0  0  0  0  0  0
  146.2621  142.7558  153.8309 F   0  0  0  0  0  0  0  0  0  0  0  0
  148.0378  141.8058  155.1214 C   0  0  0  0  0  0  0  0  0  0  0  0
  152.7709  142.7490  160.9084 N   0  0  0  0  0  0  0  0  0  0  0  0
  152.6853  143.7241  161.9995 C   0  0  0  0  0  0  0  0  0  0  0  0
  153.5807  141.6409  160.9821 C   0  0  0  0  0  0  0  0  0  0  0  0
  154.2742  141.4331  161.9814 O   0  0  0  0  0  0  0  0  0  0  0  0
  154.4928  138.9283  159.1662 H   0  0  0  0  0  0  0  0  0  0  0  0
  154.1788  138.9761  160.8857 H   0  0  0  0  0  0  0  0  0  0  0  0
  155.5140  139.9011  160.1960 H   0  0  0  0  0  0  0  0  0  0  0  0
  149.9818  144.3479  157.7132 H   0  0  0  0  0  0  0  0  0  0  0  0
  150.4691  142.7980  155.7959 H   0  0  0  0  0  0  0  0  0  0  0  0
  151.8192  141.7094  155.9685 H   0  0  0  0  0  0  0  0  0  0  0  0
  150.4805  139.8980  156.5488 H   0  0  0  0  0  0  0  0  0  0  0  0
  148.4115  141.3913  157.6143 H   0  0  0  0  0  0  0  0  0  0  0  0
  149.7584  138.9049  154.5485 H   0  0  0  0  0  0  0  0  0  0  0  0
  148.2259  138.8423  152.5995 H   0  0  0  0  0  0  0  0  0  0  0  0
  146.5681  140.6656  152.2542 H   0  0  0  0  0  0  0  0  0  0  0  0
  147.9744  142.6285  155.8189 H   0  0  0  0  0  0  0  0  0  0  0  0
  153.2525  143.4542  162.8908 H   0  0  0  0  0  0  0  0  0  0  0  0
  151.6463  143.8481  162.3068 H   0  0  0  0  0  0  0  0  0  0  0  0
  153.0514  144.6934  161.6599 H   0  0  0  0  0  0  0  0  0  0  0  0
  1  2  1  0  0  0  0
  1 24  1  0  0  0  0
  1 25  1  0  0  0  0
  1 26  1  0  0  0  0
  2 22  1  0  0  0  0
  2  3  1  0  0  0  0
  3  4  2  0  0  0  0
  3  5  1  0  0  0  0
  5  9  1  0  0  0  0
  5  6  2  0  0  0  0
  6  7  1  0  0  0  0
  6 20  1  0  0  0  0
  7  8  2  0  0  0  0
  8  9  1  0  0  0  0
  8 27  1  0  0  0  0
  9 10  1  0  0  0  0
 10 11  1  0  0  0  0
 10 28  1  0  0  0  0
 10 29  1  0  0  0  0
 11 12  1  0  0  0  0
 11 13  1  0  0  0  0
 11 30  1  0  0  0  0
 12 31  1  0  0  0  0
 13 19  1  0  0  0  0
 13 14  2  0  0  0  0
 14 15  1  0  0  0  0
 14 32  1  0  0  0  0
 15 16  2  0  0  0  0
 15 33  1  0  0  0  0
 16 17  1  0  0  0  0
 16 34  1  0  0  0  0
 17 18  1  0  0  0  0
 17 19  2  0  0  0  0
 19 35  1  0  0  0  0
 20 21  1  0  0  0  0
 20 22  1  0  0  0  0
 21 36  1  0  0  0  0
 21 37  1  0  0  0  0
 21 38  1  0  0  0  0
 22 23  2  0  0  0  0
M  END
> <s_m_source_file>
AV-unprocessed.smi

> <i_m_source_file_index>
2077

> <i_lp_mmshare_version>
43012

> <i_f3d_flags>
0

> <s_epik_input>
Tz1jMW4oW0NIM10pYyg9TyluKFtDSDNdKWMoYzEyKW5bY0hdbjJbQ0gyXVtDQEhdKFtPSF0pYzNbY0hdW2NIXVtjSF1jKEYpW2NIXTM=

> <s_epik_cmdline>
J2VwaWtfcHl0aG9uJywgJy1waCcsICc3LjAnLCAnLXRuJywgJzgnLCAnLW1hJywgJzIwMCcsICctbWV0YWxfYmluZGluZycsICctaW1hZScsICc8aW5maWxlLm1hZT4nLCAnLW9tYWUnLCAnPG91dGZpbGUubWFlPic=

> <r_lp_tautomer_probability>
1

> <r_epik_Ionization_Penalty>
1.5338e-06

> <r_epik_Ionization_Penalty_Charging>
3.74189e-09

> <r_epik_Ionization_Penalty_Neutral>
1.53006e-06

> <r_epik_State_Penalty>
-0

> <r_epik_Charging_Adjusted_Penalty>
3.74189e-09

> <i_epik_Tot_Q>
0

> <i_epik_Tot_abs_Q>
0

> <r_epik_Metal_State_Penalty>
-0

> <b_epik_Metal_Only>
0

> <s_lp_Force_Field>
OPLS_2005

> <r_lp_Energy>
35.2463

> <b_lp_Chiralities_Consistent>
1

> <s_lp_Variant>
AV-unprocessed.smi:2077-2

> <Gold.Version>
5.8.1

> <Gold.Id.Protein>
6NUR|6NUR_protein|mol2

> <Gold.PLP.Fitness>
53.4825

> <Gold.PLP.PLP>
-48.7261

> <Gold.PLP.part.hbond>
-2.0000

> <Gold.PLP.part.metal>
0.0000

> <Gold.PLP.part.buried>
-1.9491

> <Gold.PLP.part.nonpolar>
-44.7229

> <Gold.PLP.part.repulsive>
0.0836

> <Gold.PLP.ligand.clash>
0.0000

> <Gold.PLP.ligand.torsion>
0.7698

> <Gold.PLP.Chemscore.Hbond>
1.0000

> <Gold.PLP.Chemscore.CHOScore>
1.0911

> <Gold.PLP.Chemscore.Metal>
0.0000

> <Gold.Chemscore.Hbonds>
donor molecule, donor type, donor heavy atom, donor atom, acceptor molecule, acceptor atom, score
      P1  H  7997  8010       L1     4  1.00
      L1  C     8    27       P1  8028  0.96
      L1  C     8    27       P1  8029  0.15

> <Gold.PLP.Chemscore.Internal.Correction>
0.0227

> <Gold.Rescore>
     Score         DG    S(hbond)    S(metal)    S(lipo)     H(rot)  DE(clash)    DE(int)     intcor
      9.76     -10.46       0.64        0.00      73.28       2.24       0.23       0.47       ----

> <Gold.Chemscore.Fitness>
9.7557

> <Gold.Chemscore.DG>
-10.4573

> <Gold.Chemscore.ZeroCoef>
-5.4800

> <Gold.Chemscore.Hbond>
0.6385

> <Gold.Chemscore.Metal>
0.0000

> <Gold.Chemscore.Lipo>
73.2757

> <Gold.Chemscore.Internal_Hbond>
0.0000

> <Gold.Chemscore.DEClash>
0.2330

> <Gold.Chemscore.DEInternal>
0.4686

> <Gold.Chemscore.Rot>
2.2377

> <Gold.Chemscore.Internal.Correction>
   9.000000E+99

> <Gold.Chemscore.Hbonds>
donor molecule, donor type, donor heavy atom, donor atom, acceptor molecule, acceptor atom, score
      P1  H  7997  8010       L1     4  0.85

> <Gold.Chemscore.Hbond.Weighted>
-2.1327

> <Gold.Chemscore.Metal.Weighted>
-0.0000

> <Gold.Chemscore.Lipo.Weighted>
-8.5733

> <Gold.Chemscore.Internal_Hbond.Weighted>
0.0000

> <Gold.Chemscore.DEClash.Weighted>
0.2330

> <Gold.Chemscore.DEInternal.Weighted>
0.4686

> <Gold.Chemscore.Rot.Weighted>
5.7286

> <Gold.Chemscore.Internal.Correction.Weighted>
   9.000000E+99

> <Gold.Protein.RotatedTorsions>
[ 6907 6896 6895 6894 ] final  -36.66 input  -60.11 | X-H torsion
[ 7974 7965 7964 7962 ] final  156.40 input  175.53 | X-H torsion
[ 8008 7997 7996 7995 ] final   45.66 input   59.86 | X-H torsion
[ 10167 10162 10161 10158 ] final   23.17 input  -65.29 | X-H torsion
[ 10718 10713 10712 10709 ] final  -10.23 input   66.30 | X-H torsion
[ 10763 10752 10751 10750 ] final  -96.94 input  -60.55 | X-H torsion
[ 11005 11000 10999 10996 ] final   26.94 input  -57.11 | X-H torsion

> <Gold.Protein.ActiveResidues>
 VAL166  LYS551  ARG553  GLY616  TRP617  ASP618  TYR619  PRO620  LYS621  CYS622 
 ASP623  PHE694  ASN695  SER759  ASP760  ASP761  ALA762  ILE779  LEU786  VAL792 
 PHE793  MET794  SER795  GLU796  ALA797  LYS798  CYS799  TRP800  GLU811  SER814 

> <Gold.Protein.RotatedAtoms>
  151.0244  134.9493  159.8076 H   0  0  0  0  0  0  0  0  0  0  0  0  # atno 6907 bound_to 6896
  152.5332  134.2861  159.9035 H   0  0  0  0  0  0  0  0  0  0  0  0  # atno 6908 bound_to 6896
  151.2869  133.4141  159.2664 H   0  0  0  0  0  0  0  0  0  0  0  0  # atno 6909 bound_to 6896
  144.7965  139.7199  143.6199 H   0  0  0  0  0  0  0  0  0  0  0  0  # atno 7974 bound_to 7965
  155.3395  140.3407  155.4239 H   0  0  0  0  0  0  0  0  0  0  0  0  # atno 8008 bound_to 7997
  156.1820  140.1667  156.8292 H   0  0  0  0  0  0  0  0  0  0  0  0  # atno 8009 bound_to 7997
  154.5344  140.0738  156.8385 H   0  0  0  0  0  0  0  0  0  0  0  0  # atno 8010 bound_to 7997
  140.5290  143.9874  150.6455 H   0  0  0  0  0  0  0  0  0  0  0  0  # atno 10167 bound_to 10162
  156.6765  130.5024  149.5984 H   0  0  0  0  0  0  0  0  0  0  0  0  # atno 10718 bound_to 10713
  154.7284  135.5065  153.8923 H   0  0  0  0  0  0  0  0  0  0  0  0  # atno 10763 bound_to 10752
  153.0926  135.6663  153.9833 H   0  0  0  0  0  0  0  0  0  0  0  0  # atno 10764 bound_to 10752
  153.9640  135.3045  155.3411 H   0  0  0  0  0  0  0  0  0  0  0  0  # atno 10765 bound_to 10752
  140.3316  134.2431  155.7701 H   0  0  0  0  0  0  0  0  0  0  0  0  # atno 11005 bound_to 11000
  146.2235  139.5679  142.9603 LP  0  0  0  0  0  0  0  0  0  0  0  0  # atno 17320 bound_to 7965
  145.5660  141.0399  143.2200 LP  0  0  0  0  0  0  0  0  0  0  0  0  # atno 17321 bound_to 7965
  140.3243  143.3117  152.0752 LP  0  0  0  0  0  0  0  0  0  0  0  0  # atno 17342 bound_to 10162
  139.4948  144.6552  151.6588 LP  0  0  0  0  0  0  0  0  0  0  0  0  # atno 17343 bound_to 10162
  156.1900  130.6553  151.1050 LP  0  0  0  0  0  0  0  0  0  0  0  0  # atno 17370 bound_to 10713
  157.7059  131.0756  150.6668 LP  0  0  0  0  0  0  0  0  0  0  0  0  # atno 17371 bound_to 10713
  141.2062  133.7840  157.0191 LP  0  0  0  0  0  0  0  0  0  0  0  0  # atno 17394 bound_to 11000
  140.0856  134.9623  157.1694 LP  0  0  0  0  0  0  0  0  0  0  0  0  # atno 17395 bound_to 11000

$$$$
