AV-unprocessed.smi:2925|AV-procd|sdf|11224|dock8
  -GOLD-   2272016113D 1   1.00000     0.00000
 Structure written by MMmdl.
 44 45  0  0  0  0  0  0  0  0  1 V2000
  147.3399  142.1118  154.1218 C   0  0  0  0  0  0  0  0  0  0  0  0
  148.6817  141.3767  154.2578 C   0  0  0  0  0  0  0  0  0  0  0  0
  148.9745  140.8638  155.6833 C   0  0  2  0  0  0  0  0  0  0  0  0
  149.6810  141.8908  156.4495 N   0  0  0  0  0  0  0  0  0  0  0  0
  150.3419  141.6984  157.5999 C   0  0  0  0  0  0  0  0  0  0  0  0
  150.4371  140.6086  158.1654 O   0  0  0  0  0  0  0  0  0  0  0  0
  150.8514  142.8519  158.0669 N   0  0  0  0  0  0  0  0  0  0  0  0
  151.5260  143.0218  159.2856 C   0  0  0  0  0  0  0  0  0  0  0  0
  151.3452  144.1747  159.9820 C   0  0  0  0  0  0  0  0  0  0  0  0
  150.4063  145.2667  159.4935 C   0  0  0  0  0  0  0  0  0  0  0  0
  152.0450  144.3560  161.2367 C   0  0  0  0  0  0  0  0  0  0  0  0
  152.8587  143.3896  161.6829 C   0  0  0  0  0  0  0  0  0  0  0  0
  153.0675  142.2083  160.9564 N   0  0  0  0  0  0  0  0  0  0  0  0
  153.9919  141.2208  161.5200 C   0  0  0  0  0  0  0  0  0  0  0  0
  152.4739  141.9799  159.7496 C   0  0  0  0  0  0  0  0  0  0  0  0
  152.7401  140.9690  159.0954 O   0  0  0  0  0  0  0  0  0  0  0  0
  149.8110  139.5687  155.6684 C   0  0  1  0  0  0  0  0  0  0  0  0
  149.0427  138.3167  155.2386 C   0  0  0  0  0  0  0  0  0  0  0  0
  150.1643  137.4174  154.7729 C   0  0  0  0  0  0  0  0  0  0  0  0
  151.0995  138.4112  154.0903 C   0  0  0  0  0  0  0  0  0  0  0  0
  150.8794  139.6665  154.7294 O   0  0  0  0  0  0  0  0  0  0  0  0
  147.1590  142.3960  153.0851 H   0  0  0  0  0  0  0  0  0  0  0  0
  147.3171  143.0231  154.7195 H   0  0  0  0  0  0  0  0  0  0  0  0
  146.5113  141.4796  154.4423 H   0  0  0  0  0  0  0  0  0  0  0  0
  148.6794  140.5338  153.5660 H   0  0  0  0  0  0  0  0  0  0  0  0
  149.4873  142.0343  153.9288 H   0  0  0  0  0  0  0  0  0  0  0  0
  148.0202  140.6313  156.1597 H   0  0  0  0  0  0  0  0  0  0  0  0
  149.6556  142.8269  156.0727 H   0  0  0  0  0  0  0  0  0  0  0  0
  150.6082  143.6993  157.5757 H   0  0  0  0  0  0  0  0  0  0  0  0
  150.3808  146.1062  160.1885 H   0  0  0  0  0  0  0  0  0  0  0  0
  149.3906  144.8818  159.3950 H   0  0  0  0  0  0  0  0  0  0  0  0
  150.7298  145.6446  158.5231 H   0  0  0  0  0  0  0  0  0  0  0  0
  151.9090  145.2571  161.8172 H   0  0  0  0  0  0  0  0  0  0  0  0
  153.4036  143.4661  162.6125 H   0  0  0  0  0  0  0  0  0  0  0  0
  153.5368  140.2292  161.5418 H   0  0  0  0  0  0  0  0  0  0  0  0
  154.2872  141.4586  162.5426 H   0  0  0  0  0  0  0  0  0  0  0  0
  154.9002  141.1656  160.9184 H   0  0  0  0  0  0  0  0  0  0  0  0
  150.2496  139.3929  156.6524 H   0  0  0  0  0  0  0  0  0  0  0  0
  148.4518  137.8796  156.0440 H   0  0  0  0  0  0  0  0  0  0  0  0
  148.3741  138.5414  154.4060 H   0  0  0  0  0  0  0  0  0  0  0  0
  150.6597  136.9636  155.6325 H   0  0  0  0  0  0  0  0  0  0  0  0
  149.8302  136.6194  154.1091 H   0  0  0  0  0  0  0  0  0  0  0  0
  152.1445  138.1083  154.1596 H   0  0  0  0  0  0  0  0  0  0  0  0
  150.8458  138.5131  153.0346 H   0  0  0  0  0  0  0  0  0  0  0  0
  1  2  1  0  0  0  0
  1 22  1  0  0  0  0
  1 23  1  0  0  0  0
  1 24  1  0  0  0  0
  2  3  1  0  0  0  0
  2 25  1  0  0  0  0
  2 26  1  0  0  0  0
  3  4  1  0  0  0  0
  3 17  1  0  0  0  0
  3 27  1  0  0  0  0
  4  5  1  0  0  0  0
  4 28  1  0  0  0  0
  5  6  2  0  0  0  0
  5  7  1  0  0  0  0
  7  8  1  0  0  0  0
  7 29  1  0  0  0  0
  8 15  1  0  0  0  0
  8  9  2  0  0  0  0
  9 10  1  0  0  0  0
  9 11  1  0  0  0  0
 10 30  1  0  0  0  0
 10 31  1  0  0  0  0
 10 32  1  0  0  0  0
 11 12  2  0  0  0  0
 11 33  1  0  0  0  0
 12 13  1  0  0  0  0
 12 34  1  0  0  0  0
 13 14  1  0  0  0  0
 13 15  1  0  0  0  0
 14 35  1  0  0  0  0
 14 36  1  0  0  0  0
 14 37  1  0  0  0  0
 15 16  2  0  0  0  0
 17 21  1  0  0  0  0
 17 18  1  0  0  0  0
 17 38  1  0  0  0  0
 18 19  1  0  0  0  0
 18 39  1  0  0  0  0
 18 40  1  0  0  0  0
 19 20  1  0  0  0  0
 19 41  1  0  0  0  0
 19 42  1  0  0  0  0
 20 21  1  0  0  0  0
 20 43  1  0  0  0  0
 20 44  1  0  0  0  0
M  END
> <s_m_source_file>
AV-unprocessed.smi

> <i_m_source_file_index>
2925

> <i_lp_mmshare_version>
43012

> <i_f3d_flags>
0

> <s_epik_input>
TzFbQ0gyXVtDSDJdW0NIMl1bQ0BIXTFbQ0BIXShbQ0gyXVtDSDNdKVtOSF1DKD1PKVtOSF1jMmMoW0NIM10pW2NIXVtjSF1uKFtDSDNdKWMyPU8=

> <s_epik_cmdline>
J2VwaWtfcHl0aG9uJywgJy1waCcsICc3LjAnLCAnLXRuJywgJzgnLCAnLW1hJywgJzIwMCcsICctbWV0YWxfYmluZGluZycsICctaW1hZScsICc8aW5maWxlLm1hZT4nLCAnLW9tYWUnLCAnPG91dGZpbGUubWFlPic=

> <r_lp_tautomer_probability>
1

> <r_epik_Ionization_Penalty>
2.58789e-05

> <r_epik_Ionization_Penalty_Charging>
6.72534e-06

> <r_epik_Ionization_Penalty_Neutral>
1.91535e-05

> <r_epik_State_Penalty>
-0

> <r_epik_Charging_Adjusted_Penalty>
6.72534e-06

> <i_epik_Tot_Q>
0

> <i_epik_Tot_abs_Q>
0

> <r_epik_Metal_State_Penalty>
-0

> <b_epik_Metal_Only>
0

> <s_lp_Force_Field>
OPLS_2005

> <r_lp_Energy>
34.9681

> <b_lp_Chiralities_Consistent>
1

> <s_lp_Variant>
AV-unprocessed.smi:2925-3

> <Gold.Version>
5.8.1

> <Gold.Id.Protein>
6NUR|6NUR_protein|mol2

> <Gold.PLP.Fitness>
48.5570

> <Gold.PLP.PLP>
-44.2394

> <Gold.PLP.part.hbond>
-2.0000

> <Gold.PLP.part.metal>
0.0000

> <Gold.PLP.part.buried>
-6.8398

> <Gold.PLP.part.nonpolar>
-35.2460

> <Gold.PLP.part.repulsive>
0.1652

> <Gold.PLP.ligand.clash>
0.0000

> <Gold.PLP.ligand.torsion>
1.1407

> <Gold.PLP.Chemscore.Hbond>
1.9913

> <Gold.PLP.Chemscore.CHOScore>
0.0000

> <Gold.PLP.Chemscore.Metal>
0.0000

> <Gold.Chemscore.Hbonds>
donor molecule, donor type, donor heavy atom, donor atom, acceptor molecule, acceptor atom, score
      L1  H     4    28       P1  8028  0.86
      P1  H  7989  7998       L1    21  1.00

> <Gold.PLP.Chemscore.Internal.Correction>
0.6254

> <Gold.Rescore>
     Score         DG    S(hbond)    S(metal)    S(lipo)     H(rot)  DE(clash)    DE(int)     intcor
     13.15     -19.98       1.71        0.00     104.70       1.36       0.31       6.52       ----

> <Gold.Chemscore.Fitness>
13.1489

> <Gold.Chemscore.DG>
-19.9809

> <Gold.Chemscore.ZeroCoef>
-5.4800

> <Gold.Chemscore.Hbond>
1.7147

> <Gold.Chemscore.Metal>
0.0000

> <Gold.Chemscore.Lipo>
104.7014

> <Gold.Chemscore.Internal_Hbond>
0.0000

> <Gold.Chemscore.DEClash>
0.3131

> <Gold.Chemscore.DEInternal>
6.5188

> <Gold.Chemscore.Rot>
1.3579

> <Gold.Chemscore.Internal.Correction>
   9.000000E+99

> <Gold.Chemscore.Hbonds>
donor molecule, donor type, donor heavy atom, donor atom, acceptor molecule, acceptor atom, score
      L1  H     4    28       P1  8028  0.83
      P1  H  7989  7998       L1    21  0.35

> <Gold.Chemscore.Hbond.Weighted>
-5.7271

> <Gold.Chemscore.Metal.Weighted>
-0.0000

> <Gold.Chemscore.Lipo.Weighted>
-12.2501

> <Gold.Chemscore.Internal_Hbond.Weighted>
0.0000

> <Gold.Chemscore.DEClash.Weighted>
0.3131

> <Gold.Chemscore.DEInternal.Weighted>
6.5188

> <Gold.Chemscore.Rot.Weighted>
3.4763

> <Gold.Chemscore.Internal.Correction.Weighted>
   9.000000E+99

> <Gold.Protein.RotatedTorsions>
[ 6907 6896 6895 6894 ] final    3.66 input  -60.11 | X-H torsion
[ 7974 7965 7964 7962 ] final  -16.57 input  175.53 | X-H torsion
[ 8008 7997 7996 7995 ] final  -19.61 input   59.86 | X-H torsion
[ 10167 10162 10161 10158 ] final  -98.29 input  -65.29 | X-H torsion
[ 10718 10713 10712 10709 ] final  -40.92 input   66.30 | X-H torsion
[ 10763 10752 10751 10750 ] final -152.22 input  -60.55 | X-H torsion
[ 11005 11000 10999 10996 ] final  -85.01 input  -57.11 | X-H torsion

> <Gold.Protein.ActiveResidues>
 VAL166  LYS551  ARG553  GLY616  TRP617  ASP618  TYR619  PRO620  LYS621  CYS622 
 ASP623  PHE694  ASN695  SER759  ASP760  ASP761  ALA762  ILE779  LEU786  VAL792 
 PHE793  MET794  SER795  GLU796  ALA797  LYS798  CYS799  TRP800  GLU811  SER814 

> <Gold.Protein.RotatedAtoms>
  151.6287  135.1025  160.0116 H   0  0  0  0  0  0  0  0  0  0  0  0  # atno 6907 bound_to 6896
  152.4118  133.6971  159.6413 H   0  0  0  0  0  0  0  0  0  0  0  0  # atno 6908 bound_to 6896
  150.8008  133.8528  159.3251 H   0  0  0  0  0  0  0  0  0  0  0  0  # atno 6909 bound_to 6896
  146.1981  140.3655  142.8433 H   0  0  0  0  0  0  0  0  0  0  0  0  # atno 7974 bound_to 7965
  154.4825  140.2084  155.9731 H   0  0  0  0  0  0  0  0  0  0  0  0  # atno 8008 bound_to 7997
  156.1186  140.3217  155.8145 H   0  0  0  0  0  0  0  0  0  0  0  0  # atno 8009 bound_to 7997
  155.4507  140.0517  157.2992 H   0  0  0  0  0  0  0  0  0  0  0  0  # atno 8010 bound_to 7997
  140.2745  143.3322  152.0502 H   0  0  0  0  0  0  0  0  0  0  0  0  # atno 10167 bound_to 10162
  156.2761  130.4212  149.8386 H   0  0  0  0  0  0  0  0  0  0  0  0  # atno 10718 bound_to 10713
  154.8008  135.3241  154.7555 H   0  0  0  0  0  0  0  0  0  0  0  0  # atno 10763 bound_to 10752
  153.8224  135.6886  153.4830 H   0  0  0  0  0  0  0  0  0  0  0  0  # atno 10764 bound_to 10752
  153.1723  135.4618  154.9862 H   0  0  0  0  0  0  0  0  0  0  0  0  # atno 10765 bound_to 10752
  141.1645  133.7376  156.8952 H   0  0  0  0  0  0  0  0  0  0  0  0  # atno 11005 bound_to 11000
  144.8624  140.7158  143.6099 LP  0  0  0  0  0  0  0  0  0  0  0  0  # atno 17320 bound_to 7965
  145.3575  139.1690  143.4401 LP  0  0  0  0  0  0  0  0  0  0  0  0  # atno 17321 bound_to 7965
  139.4979  144.6634  151.6412 LP  0  0  0  0  0  0  0  0  0  0  0  0  # atno 17342 bound_to 10162
  140.5863  143.9859  150.6297 LP  0  0  0  0  0  0  0  0  0  0  0  0  # atno 17343 bound_to 10162
  156.5851  130.8482  151.3393 LP  0  0  0  0  0  0  0  0  0  0  0  0  # atno 17370 bound_to 10713
  157.7299  130.9678  150.1810 LP  0  0  0  0  0  0  0  0  0  0  0  0  # atno 17371 bound_to 10713
  140.1621  134.9158  157.2727 LP  0  0  0  0  0  0  0  0  0  0  0  0  # atno 17394 bound_to 11000
  140.2600  134.3583  155.7410 LP  0  0  0  0  0  0  0  0  0  0  0  0  # atno 17395 bound_to 11000

$$$$
