AV-unprocessed.smi:243|AV-procd|sdf|1854|dock5
  -GOLD-   2262020483D 1   1.00000     0.00000
 Structure written by MMmdl.
 58 61  0  0  0  0  0  0  0  0  2 V2000
  144.1380  132.3324  149.9956 C   0  0  0  0  0  0  0  0  0  0  0  0
  143.8987  132.9815  151.3663 C   0  0  0  0  0  0  0  0  0  0  0  0
  143.4059  134.3811  151.2592 N   0  3  2  0  0  0  0  0  0  0  0  0
  144.3729  135.2998  150.6062 C   0  0  0  0  0  0  0  0  0  0  0  0
  145.5416  135.6515  151.5406 C   0  0  0  0  0  0  0  0  0  0  0  0
  145.0320  136.2604  152.8635 C   0  0  2  0  0  0  0  0  0  0  0  0
  146.1418  136.6010  153.7653 N   0  0  0  0  0  0  0  0  0  0  0  0
  146.9152  135.5465  154.4175 C   0  0  0  0  0  0  0  0  0  0  0  0
  146.7029  137.8412  153.7187 C   0  0  0  0  0  0  0  0  0  0  0  0
  146.1763  138.7807  152.8877 N   0  0  0  0  0  0  0  0  0  0  0  0
  146.7123  140.0018  152.8125 C   0  0  0  0  0  0  0  0  0  0  0  0
  147.7605  140.4936  153.4732 N   0  0  0  0  0  0  0  0  0  0  0  0
  148.2900  139.5659  154.3202 C   0  0  0  0  0  0  0  0  0  0  0  0
  147.8311  138.2292  154.5016 C   0  0  0  0  0  0  0  0  0  0  0  0
  148.6205  137.5908  155.4522 N   0  0  0  0  0  0  0  0  0  0  0  0
  149.4980  138.4905  155.8014 C   0  0  0  0  0  0  0  0  0  0  0  0
  149.3665  139.7106  155.1787 N   0  0  0  0  0  0  0  0  0  0  0  0
  150.1989  140.8872  155.3791 C   0  0  0  0  0  0  0  0  0  0  0  0
  150.0182  141.5498  156.7658 C   0  0  2  0  0  0  0  0  0  0  0  0
  148.7228  142.1190  156.8444 O   0  0  0  0  0  0  0  0  0  0  0  0
  151.0403  142.6480  157.0317 C   0  0  0  0  0  0  0  0  0  0  0  0
  151.1778  142.6207  158.5477 C   0  0  0  0  0  0  0  0  0  0  0  0
  151.1396  141.2350  158.8426 O   0  0  0  0  0  0  0  0  0  0  0  0
  150.2085  140.6024  157.9690 C   0  0  0  0  0  0  0  0  0  0  0  0
  143.9905  135.3274  153.5313 C   0  0  1  0  0  0  0  0  0  0  0  0
  143.3720  135.9630  154.7889 C   0  0  0  0  0  0  0  0  0  0  0  0
  142.8764  134.9604  152.5236 C   0  0  0  0  0  0  0  0  0  0  0  0
  144.6002  131.3519  150.1131 H   0  0  0  0  0  0  0  0  0  0  0  0
  144.8046  132.9391  149.3822 H   0  0  0  0  0  0  0  0  0  0  0  0
  143.2102  132.1845  149.4437 H   0  0  0  0  0  0  0  0  0  0  0  0
  143.2205  132.3709  151.9620 H   0  0  0  0  0  0  0  0  0  0  0  0
  144.8504  132.9849  151.8990 H   0  0  0  0  0  0  0  0  0  0  0  0
  144.7425  134.8637  149.6775 H   0  0  0  0  0  0  0  0  0  0  0  0
  143.8469  136.2127  150.3237 H   0  0  0  0  0  0  0  0  0  0  0  0
  146.1372  134.7587  151.7309 H   0  0  0  0  0  0  0  0  0  0  0  0
  146.2053  136.3550  151.0374 H   0  0  0  0  0  0  0  0  0  0  0  0
  144.4913  137.1753  152.6175 H   0  0  0  0  0  0  0  0  0  0  0  0
  147.9870  135.7088  154.2966 H   0  0  0  0  0  0  0  0  0  0  0  0
  146.6879  134.5647  154.0042 H   0  0  0  0  0  0  0  0  0  0  0  0
  146.6877  135.5175  155.4832 H   0  0  0  0  0  0  0  0  0  0  0  0
  146.2324  140.6829  152.1251 H   0  0  0  0  0  0  0  0  0  0  0  0
  150.2678  138.2861  156.5313 H   0  0  0  0  0  0  0  0  0  0  0  0
  151.2395  140.5920  155.2378 H   0  0  0  0  0  0  0  0  0  0  0  0
  149.9758  141.6041  154.5877 H   0  0  0  0  0  0  0  0  0  0  0  0
  148.7053  142.9007  156.3138 H   0  0  0  0  0  0  0  0  0  0  0  0
  152.0006  142.3878  156.5842 H   0  0  0  0  0  0  0  0  0  0  0  0
  150.7481  143.6248  156.6436 H   0  0  0  0  0  0  0  0  0  0  0  0
  152.1016  143.0817  158.8976 H   0  0  0  0  0  0  0  0  0  0  0  0
  150.3361  143.1223  159.0276 H   0  0  0  0  0  0  0  0  0  0  0  0
  149.2722  140.4073  158.4947 H   0  0  0  0  0  0  0  0  0  0  0  0
  150.6257  139.6394  157.6766 H   0  0  0  0  0  0  0  0  0  0  0  0
  144.4805  134.4058  153.8441 H   0  0  0  0  0  0  0  0  0  0  0  0
  142.8752  136.9049  154.5540 H   0  0  0  0  0  0  0  0  0  0  0  0
  144.1265  136.1668  155.5489 H   0  0  0  0  0  0  0  0  0  0  0  0
  142.6325  135.3003  155.2388 H   0  0  0  0  0  0  0  0  0  0  0  0
  142.3139  135.8592  152.2664 H   0  0  0  0  0  0  0  0  0  0  0  0
  142.1546  134.2844  152.9808 H   0  0  0  0  0  0  0  0  0  0  0  0
  142.6198  134.3298  150.6271 H   0  0  0  0  0  0  0  0  0  0  0  0
  1  2  1  0  0  0  0
  1 28  1  0  0  0  0
  1 29  1  0  0  0  0
  1 30  1  0  0  0  0
  2  3  1  0  0  0  0
  2 31  1  0  0  0  0
  2 32  1  0  0  0  0
  3 27  1  0  0  0  0
  3  4  1  0  0  0  0
  3 58  1  0  0  0  0
  4  5  1  0  0  0  0
  4 33  1  0  0  0  0
  4 34  1  0  0  0  0
  5  6  1  0  0  0  0
  5 35  1  0  0  0  0
  5 36  1  0  0  0  0
  6  7  1  0  0  0  0
  6 25  1  0  0  0  0
  6 37  1  0  0  0  0
  7  8  1  0  0  0  0
  7  9  1  0  0  0  0
  8 38  1  0  0  0  0
  8 39  1  0  0  0  0
  8 40  1  0  0  0  0
  9 14  1  0  0  0  0
  9 10  2  0  0  0  0
 10 11  1  0  0  0  0
 11 12  2  0  0  0  0
 11 41  1  0  0  0  0
 12 13  1  0  0  0  0
 13 17  1  0  0  0  0
 13 14  2  0  0  0  0
 14 15  1  0  0  0  0
 15 16  2  0  0  0  0
 16 17  1  0  0  0  0
 16 42  1  0  0  0  0
 17 18  1  0  0  0  0
 18 19  1  0  0  0  0
 18 43  1  0  0  0  0
 18 44  1  0  0  0  0
 19 24  1  0  0  0  0
 19 20  1  0  0  0  0
 19 21  1  0  0  0  0
 20 45  1  0  0  0  0
 21 22  1  0  0  0  0
 21 46  1  0  0  0  0
 21 47  1  0  0  0  0
 22 23  1  0  0  0  0
 22 48  1  0  0  0  0
 22 49  1  0  0  0  0
 23 24  1  0  0  0  0
 24 50  1  0  0  0  0
 24 51  1  0  0  0  0
 25 26  1  0  0  0  0
 25 27  1  0  0  0  0
 25 52  1  0  0  0  0
 26 53  1  0  0  0  0
 26 54  1  0  0  0  0
 26 55  1  0  0  0  0
 27 56  1  0  0  0  0
 27 57  1  0  0  0  0
M  CHG  1   3   1
M  END
> <s_m_source_file>
AV-unprocessed.smi

> <i_m_source_file_index>
243

> <i_lp_mmshare_version>
43012

> <i_f3d_flags>
0

> <s_epik_input>
W0NIM11bQ0gyXU4xW0NIMl1bQ0gyXVtDQEhdKFtDQEBIXShbQ0gzXSlbQ0gyXTEpTihbQ0gzXSljKG5bY0hdbjIpYyhjMjMpbltjSF1uM1tDSDJdW0NAQF00KFtPSF0pW0NIMl1bQ0gyXU9bQ0gyXTQ=

> <s_epik_cmdline>
J2VwaWtfcHl0aG9uJywgJy1waCcsICc3LjAnLCAnLXRuJywgJzgnLCAnLW1hJywgJzIwMCcsICctbWV0YWxfYmluZGluZycsICctaW1hZScsICc8aW5maWxlLm1hZT4nLCAnLW9tYWUnLCAnPG91dGZpbGUubWFlPic=

> <r_lp_tautomer_probability>
1

> <r_epik_Ionization_Penalty>
0.00253099

> <r_epik_Ionization_Penalty_Charging>
0.00137877

> <r_epik_Ionization_Penalty_Neutral>
0.00115221

> <r_epik_State_Penalty>
-0

> <r_epik_Charging_Adjusted_Penalty>
0.00137877

> <i_epik_Tot_Q>
1

> <i_epik_Tot_abs_Q>
1

> <r_epik_Metal_State_Penalty>
-0

> <b_epik_Metal_Only>
0

> <s_lp_Force_Field>
OPLS_2005

> <r_lp_Energy>
46.0239

> <b_lp_Chiralities_Consistent>
1

> <s_lp_Variant>
AV-unprocessed.smi:243-7

> <Gold.Version>
5.8.1

> <Gold.Id.Protein>
6NUR|6NUR_protein|mol2

> <Gold.PLP.Fitness>
44.5665

> <Gold.PLP.PLP>
-34.8729

> <Gold.PLP.part.hbond>
-2.0000

> <Gold.PLP.part.metal>
0.0000

> <Gold.PLP.part.buried>
-5.1535

> <Gold.PLP.part.nonpolar>
-30.2819

> <Gold.PLP.part.repulsive>
1.8503

> <Gold.PLP.ligand.clash>
0.0000

> <Gold.PLP.ligand.torsion>
0.6428

> <Gold.PLP.Chemscore.Hbond>
3.0000

> <Gold.PLP.Chemscore.CHOScore>
0.4951

> <Gold.PLP.Chemscore.Metal>
0.0000

> <Gold.Chemscore.Hbonds>
donor molecule, donor type, donor heavy atom, donor atom, acceptor molecule, acceptor atom, score
      L1  H     3    58       P1 10186  2.00
      L1  H    20    45       P1  8028  1.00
      L1  C    11    41       P1 10175  0.44

> <Gold.PLP.Chemscore.Internal.Correction>
0.4939

> <Gold.Rescore>
     Score         DG    S(hbond)    S(metal)    S(lipo)     H(rot)  DE(clash)    DE(int)     intcor
     11.27     -14.30       1.41        0.00      84.19       2.24       1.24       1.79       ----

> <Gold.Chemscore.Fitness>
11.2715

> <Gold.Chemscore.DG>
-14.3030

> <Gold.Chemscore.ZeroCoef>
-5.4800

> <Gold.Chemscore.Hbond>
1.4076

> <Gold.Chemscore.Metal>
0.0000

> <Gold.Chemscore.Lipo>
84.1946

> <Gold.Chemscore.Internal_Hbond>
0.0000

> <Gold.Chemscore.DEClash>
1.2407

> <Gold.Chemscore.DEInternal>
1.7908

> <Gold.Chemscore.Rot>
2.2379

> <Gold.Chemscore.Internal.Correction>
   9.000000E+99

> <Gold.Chemscore.Hbonds>
donor molecule, donor type, donor heavy atom, donor atom, acceptor molecule, acceptor atom, score
      L1  H     3    58       P1 10186  0.45
      L1  H    20    45       P1  8028  0.97

> <Gold.Chemscore.Hbond.Weighted>
-4.7014

> <Gold.Chemscore.Metal.Weighted>
-0.0000

> <Gold.Chemscore.Lipo.Weighted>
-9.8508

> <Gold.Chemscore.Internal_Hbond.Weighted>
0.0000

> <Gold.Chemscore.DEClash.Weighted>
1.2407

> <Gold.Chemscore.DEInternal.Weighted>
1.7908

> <Gold.Chemscore.Rot.Weighted>
5.7291

> <Gold.Chemscore.Internal.Correction.Weighted>
   9.000000E+99

> <Gold.Protein.RotatedTorsions>
[ 6907 6896 6895 6894 ] final  139.78 input  -60.11 | X-H torsion
[ 7974 7965 7964 7962 ] final   21.27 input  175.53 | X-H torsion
[ 8008 7997 7996 7995 ] final    0.86 input   59.86 | X-H torsion
[ 10167 10162 10161 10158 ] final  144.33 input  -65.29 | X-H torsion
[ 10718 10713 10712 10709 ] final  -80.02 input   66.30 | X-H torsion
[ 10763 10752 10751 10750 ] final  118.27 input  -60.55 | X-H torsion
[ 11005 11000 10999 10996 ] final  -13.50 input  -57.11 | X-H torsion

> <Gold.Protein.ActiveResidues>
 VAL166  LYS551  ARG553  GLY616  TRP617  ASP618  TYR619  PRO620  LYS621  CYS622 
 ASP623  PHE694  ASN695  SER759  ASP760  ASP761  ALA762  ILE779  LEU786  VAL792 
 PHE793  MET794  SER795  GLU796  ALA797  LYS798  CYS799  TRP800  GLU811  SER814 

> <Gold.Protein.RotatedAtoms>
  152.2509  133.5214  159.5324 H   0  0  0  0  0  0  0  0  0  0  0  0  # atno 6907 bound_to 6896
  150.7093  134.0962  159.3958 H   0  0  0  0  0  0  0  0  0  0  0  0  # atno 6908 bound_to 6896
  151.8881  135.0427  160.0546 H   0  0  0  0  0  0  0  0  0  0  0  0  # atno 6909 bound_to 6896
  146.2078  139.8050  142.8712 H   0  0  0  0  0  0  0  0  0  0  0  0  # atno 7974 bound_to 7965
  154.6730  140.2616  155.6987 H   0  0  0  0  0  0  0  0  0  0  0  0  # atno 8008 bound_to 7997
  156.2666  140.2825  156.1168 H   0  0  0  0  0  0  0  0  0  0  0  0  # atno 8009 bound_to 7997
  155.1141  140.0376  157.2722 H   0  0  0  0  0  0  0  0  0  0  0  0  # atno 8010 bound_to 7997
  139.4949  144.5979  151.6543 H   0  0  0  0  0  0  0  0  0  0  0  0  # atno 10167 bound_to 10162
  156.0079  130.4562  150.3736 H   0  0  0  0  0  0  0  0  0  0  0  0  # atno 10718 bound_to 10713
  153.5650  135.3513  155.2815 H   0  0  0  0  0  0  0  0  0  0  0  0  # atno 10763 bound_to 10752
  154.8690  135.4145  154.2788 H   0  0  0  0  0  0  0  0  0  0  0  0  # atno 10764 bound_to 10752
  153.3542  135.7056  153.6833 H   0  0  0  0  0  0  0  0  0  0  0  0  # atno 10765 bound_to 10752
  140.7767  133.8395  155.9255 H   0  0  0  0  0  0  0  0  0  0  0  0  # atno 11005 bound_to 11000
  145.3256  141.0254  143.3476 LP  0  0  0  0  0  0  0  0  0  0  0  0  # atno 17320 bound_to 7965
  144.8836  139.4871  143.6711 LP  0  0  0  0  0  0  0  0  0  0  0  0  # atno 17321 bound_to 7965
  140.5622  144.0250  150.6175 LP  0  0  0  0  0  0  0  0  0  0  0  0  # atno 17342 bound_to 10162
  140.3339  143.3060  152.0658 LP  0  0  0  0  0  0  0  0  0  0  0  0  # atno 17343 bound_to 10162
  157.1820  131.0394  151.2744 LP  0  0  0  0  0  0  0  0  0  0  0  0  # atno 17370 bound_to 10713
  157.4138  130.7399  149.6859 LP  0  0  0  0  0  0  0  0  0  0  0  0  # atno 17371 bound_to 10713
  140.9522  134.1764  157.4719 LP  0  0  0  0  0  0  0  0  0  0  0  0  # atno 17394 bound_to 11000
  139.8748  134.9913  156.5544 LP  0  0  0  0  0  0  0  0  0  0  0  0  # atno 17395 bound_to 11000

$$$$
