AV-unprocessed.smi:212|AV-procd|sdf|1628|dock8
  -GOLD-   2262019573D 1   1.00000     0.00000
 Structure written by MMmdl.
 65 68  0  0  0  0  0  0  0  0  2 V2000
  146.0915  141.1580  156.6412 C   0  0  0  0  0  0  0  0  0  0  0  0
  147.4884  141.6390  156.2035 C   0  0  1  0  0  0  0  0  0  0  0  0
  148.4703  141.8282  157.3805 C   0  0  0  0  0  0  0  0  0  0  0  0
  149.7770  142.3575  156.9063 N   0  3  1  0  0  0  0  0  0  0  0  0
  150.7386  142.6245  158.0091 C   0  0  0  0  0  0  0  0  0  0  0  0
  151.4291  144.0028  157.8801 C   0  0  0  0  0  0  0  0  0  0  0  0
  152.5821  144.1126  158.8919 C   0  0  0  0  0  0  0  0  0  0  0  0
  151.9466  144.2663  156.4537 C   0  0  0  0  0  0  0  0  0  0  0  0
  150.5049  145.0195  158.2134 O   0  0  0  0  0  0  0  0  0  0  0  0
  150.3571  141.5376  155.8110 C   0  0  0  0  0  0  0  0  0  0  0  0
  149.3596  141.3748  154.6484 C   0  0  0  0  0  0  0  0  0  0  0  0
  148.0871  140.8419  155.1249 N   0  0  0  0  0  0  0  0  0  0  0  0
  148.0639  139.4847  155.1572 C   0  0  0  0  0  0  0  0  0  0  0  0
  148.8337  138.7972  156.0412 N   0  0  0  0  0  0  0  0  0  0  0  0
  148.8192  137.4608  156.0499 C   0  0  0  0  0  0  0  0  0  0  0  0
  148.1257  136.6291  155.2701 N   0  0  0  0  0  0  0  0  0  0  0  0
  147.3585  137.3147  154.3753 C   0  0  0  0  0  0  0  0  0  0  0  0
  147.2749  138.7292  154.2480 C   0  0  0  0  0  0  0  0  0  0  0  0
  146.4007  139.0641  153.2218 N   0  0  0  0  0  0  0  0  0  0  0  0
  145.9875  137.9118  152.7684 C   0  0  0  0  0  0  0  0  0  0  0  0
  146.4981  136.8090  153.4167 N   0  0  0  0  0  0  0  0  0  0  0  0
  146.2135  135.4162  153.1240 C   0  0  0  0  0  0  0  0  0  0  0  0
  145.1905  135.1858  151.9786 C   0  0  2  0  0  0  0  0  0  0  0  0
  143.7869  135.5855  152.4837 C   0  0  0  0  0  0  0  0  0  0  0  0
  143.2569  134.6130  153.3611 O   0  0  0  0  0  0  0  0  0  0  0  0
  145.1700  133.7653  151.3341 C   0  0  1  0  0  0  0  0  0  0  0  0
  144.0668  133.4583  150.3372 C   0  0  0  0  0  0  0  0  0  0  0  0
  144.5748  132.1578  149.7248 C   0  0  0  0  0  0  0  0  0  0  0  0
  145.9945  132.2770  149.6975 O   0  0  0  0  0  0  0  0  0  0  0  0
  146.4220  133.3184  150.5729 C   0  0  0  0  0  0  0  0  0  0  0  0
  145.6315  141.8804  157.3158 H   0  0  0  0  0  0  0  0  0  0  0  0
  146.1219  140.2046  157.1676 H   0  0  0  0  0  0  0  0  0  0  0  0
  145.4287  141.0460  155.7825 H   0  0  0  0  0  0  0  0  0  0  0  0
  147.3326  142.6268  155.7673 H   0  0  0  0  0  0  0  0  0  0  0  0
  148.0379  142.5189  158.1042 H   0  0  0  0  0  0  0  0  0  0  0  0
  148.6288  140.8885  157.9094 H   0  0  0  0  0  0  0  0  0  0  0  0
  150.2389  142.5327  158.9754 H   0  0  0  0  0  0  0  0  0  0  0  0
  151.5138  141.8561  158.0130 H   0  0  0  0  0  0  0  0  0  0  0  0
  153.3488  143.3613  158.6989 H   0  0  0  0  0  0  0  0  0  0  0  0
  152.2311  143.9680  159.9146 H   0  0  0  0  0  0  0  0  0  0  0  0
  153.0635  145.0904  158.8450 H   0  0  0  0  0  0  0  0  0  0  0  0
  152.6571  143.4986  156.1456 H   0  0  0  0  0  0  0  0  0  0  0  0
  152.4557  145.2287  156.3881 H   0  0  0  0  0  0  0  0  0  0  0  0
  151.1372  144.2790  155.7231 H   0  0  0  0  0  0  0  0  0  0  0  0
  149.6634  144.7962  157.8438 H   0  0  0  0  0  0  0  0  0  0  0  0
  151.2672  142.0114  155.4410 H   0  0  0  0  0  0  0  0  0  0  0  0
  150.6426  140.5598  156.2025 H   0  0  0  0  0  0  0  0  0  0  0  0
  149.1739  142.3423  154.1807 H   0  0  0  0  0  0  0  0  0  0  0  0
  149.7887  140.7387  153.8730 H   0  0  0  0  0  0  0  0  0  0  0  0
  149.4530  136.9904  156.7870 H   0  0  0  0  0  0  0  0  0  0  0  0
  145.2864  137.8363  151.9498 H   0  0  0  0  0  0  0  0  0  0  0  0
  147.1514  134.9026  152.9121 H   0  0  0  0  0  0  0  0  0  0  0  0
  145.8362  134.9701  154.0452 H   0  0  0  0  0  0  0  0  0  0  0  0
  145.4425  135.8898  151.1842 H   0  0  0  0  0  0  0  0  0  0  0  0
  143.8144  136.5527  152.9868 H   0  0  0  0  0  0  0  0  0  0  0  0
  143.0921  135.6812  151.6488 H   0  0  0  0  0  0  0  0  0  0  0  0
  142.4590  134.2721  152.9863 H   0  0  0  0  0  0  0  0  0  0  0  0
  145.0223  133.0424  152.1377 H   0  0  0  0  0  0  0  0  0  0  0  0
  143.0874  133.3502  150.8039 H   0  0  0  0  0  0  0  0  0  0  0  0
  143.9866  134.2093  149.5568 H   0  0  0  0  0  0  0  0  0  0  0  0
  144.3081  131.3106  150.3581 H   0  0  0  0  0  0  0  0  0  0  0  0
  144.1692  131.9771  148.7292 H   0  0  0  0  0  0  0  0  0  0  0  0
  146.8356  134.1138  149.9560 H   0  0  0  0  0  0  0  0  0  0  0  0
  147.2089  132.9714  151.2430 H   0  0  0  0  0  0  0  0  0  0  0  0
  149.5798  143.2576  156.4930 H   0  0  0  0  0  0  0  0  0  0  0  0
  1  2  1  0  0  0  0
  1 31  1  0  0  0  0
  1 32  1  0  0  0  0
  1 33  1  0  0  0  0
  2 12  1  0  0  0  0
  2  3  1  0  0  0  0
  2 34  1  0  0  0  0
  3  4  1  0  0  0  0
  3 35  1  0  0  0  0
  3 36  1  0  0  0  0
  4  5  1  0  0  0  0
  4 10  1  0  0  0  0
  4 65  1  0  0  0  0
  5  6  1  0  0  0  0
  5 37  1  0  0  0  0
  5 38  1  0  0  0  0
  6  7  1  0  0  0  0
  6  8  1  0  0  0  0
  6  9  1  0  0  0  0
  7 39  1  0  0  0  0
  7 40  1  0  0  0  0
  7 41  1  0  0  0  0
  8 42  1  0  0  0  0
  8 43  1  0  0  0  0
  8 44  1  0  0  0  0
  9 45  1  0  0  0  0
 10 11  1  0  0  0  0
 10 46  1  0  0  0  0
 10 47  1  0  0  0  0
 11 12  1  0  0  0  0
 11 48  1  0  0  0  0
 11 49  1  0  0  0  0
 12 13  1  0  0  0  0
 13 18  1  0  0  0  0
 13 14  2  0  0  0  0
 14 15  1  0  0  0  0
 15 16  2  0  0  0  0
 15 50  1  0  0  0  0
 16 17  1  0  0  0  0
 17 21  1  0  0  0  0
 17 18  2  0  0  0  0
 18 19  1  0  0  0  0
 19 20  2  0  0  0  0
 20 21  1  0  0  0  0
 20 51  1  0  0  0  0
 21 22  1  0  0  0  0
 22 23  1  0  0  0  0
 22 52  1  0  0  0  0
 22 53  1  0  0  0  0
 23 24  1  0  0  0  0
 23 26  1  0  0  0  0
 23 54  1  0  0  0  0
 24 25  1  0  0  0  0
 24 55  1  0  0  0  0
 24 56  1  0  0  0  0
 25 57  1  0  0  0  0
 26 30  1  0  0  0  0
 26 27  1  0  0  0  0
 26 58  1  0  0  0  0
 27 28  1  0  0  0  0
 27 59  1  0  0  0  0
 27 60  1  0  0  0  0
 28 29  1  0  0  0  0
 28 61  1  0  0  0  0
 28 62  1  0  0  0  0
 29 30  1  0  0  0  0
 30 63  1  0  0  0  0
 30 64  1  0  0  0  0
M  CHG  1   4   1
M  END
> <s_m_source_file>
AV-unprocessed.smi

> <i_m_source_file_index>
212

> <i_lp_mmshare_version>
43012

> <i_f3d_flags>
0

> <s_epik_input>
W0NIM11bQ0BASF0xW0NIMl1OKFtDSDJdQyhbQ0gzXSkoW0NIM10pW09IXSlbQ0gyXVtDSDJdTjFjKG5bY0hdbjIpYyhjMjMpbltjSF1uM1tDSDJdW0NASF0oW0NIMl1bT0hdKVtDQEBIXTRbQ0gyXVtDSDJdT1tDSDJdNA==

> <s_epik_cmdline>
J2VwaWtfcHl0aG9uJywgJy1waCcsICc3LjAnLCAnLXRuJywgJzgnLCAnLW1hJywgJzIwMCcsICctbWV0YWxfYmluZGluZycsICctaW1hZScsICc8aW5maWxlLm1hZT4nLCAnLW9tYWUnLCAnPG91dGZpbGUubWFlPic=

> <r_lp_tautomer_probability>
1

> <r_epik_Ionization_Penalty>
0.00182193

> <r_epik_Ionization_Penalty_Charging>
0.00173996

> <r_epik_Ionization_Penalty_Neutral>
8.19718e-05

> <r_epik_State_Penalty>
-0

> <r_epik_Charging_Adjusted_Penalty>
0.00173996

> <i_epik_Tot_Q>
1

> <i_epik_Tot_abs_Q>
1

> <r_epik_Metal_State_Penalty>
-0

> <b_epik_Metal_Only>
0

> <s_lp_Force_Field>
OPLS_2005

> <r_lp_Energy>
60.5032

> <b_lp_Chiralities_Consistent>
1

> <s_lp_Variant>
AV-unprocessed.smi:212-12

> <Gold.Version>
5.8.1

> <Gold.Id.Protein>
6NUR|6NUR_protein|mol2

> <Gold.PLP.Fitness>
47.6749

> <Gold.PLP.PLP>
-39.8091

> <Gold.PLP.part.hbond>
-3.1263

> <Gold.PLP.part.metal>
0.0000

> <Gold.PLP.part.buried>
-4.6903

> <Gold.PLP.part.nonpolar>
-32.9730

> <Gold.PLP.part.repulsive>
0.5943

> <Gold.PLP.ligand.clash>
0.0000

> <Gold.PLP.ligand.torsion>
1.1406

> <Gold.PLP.Chemscore.Hbond>
2.3691

> <Gold.PLP.Chemscore.CHOScore>
0.6732

> <Gold.PLP.Chemscore.Metal>
0.0000

> <Gold.Chemscore.Hbonds>
donor molecule, donor type, donor heavy atom, donor atom, acceptor molecule, acceptor atom, score
      L1  H     4    65       P1  8028  2.00
      L1  H     9    45       P1  8029  0.22
      L1  C    20    51       P1 10171  0.65

> <Gold.PLP.Chemscore.Internal.Correction>
1.0201

> <Gold.Rescore>
     Score         DG    S(hbond)    S(metal)    S(lipo)     H(rot)  DE(clash)    DE(int)     intcor
     10.85     -12.05       1.16        0.00     103.64       3.68       0.22       0.98       ----

> <Gold.Chemscore.Fitness>
10.8514

> <Gold.Chemscore.DG>
-12.0546

> <Gold.Chemscore.ZeroCoef>
-5.4800

> <Gold.Chemscore.Hbond>
1.1593

> <Gold.Chemscore.Metal>
0.0000

> <Gold.Chemscore.Lipo>
103.6444

> <Gold.Chemscore.Internal_Hbond>
0.0000

> <Gold.Chemscore.DEClash>
0.2198

> <Gold.Chemscore.DEInternal>
0.9834

> <Gold.Chemscore.Rot>
3.6812

> <Gold.Chemscore.Internal.Correction>
   9.000000E+99

> <Gold.Chemscore.Hbonds>
donor molecule, donor type, donor heavy atom, donor atom, acceptor molecule, acceptor atom, score
      L1  H     4    65       P1  8028  1.00
      L1  H     9    45       P1  8029  0.01

> <Gold.Chemscore.Hbond.Weighted>
-3.8721

> <Gold.Chemscore.Metal.Weighted>
-0.0000

> <Gold.Chemscore.Lipo.Weighted>
-12.1264

> <Gold.Chemscore.Internal_Hbond.Weighted>
0.0000

> <Gold.Chemscore.DEClash.Weighted>
0.2198

> <Gold.Chemscore.DEInternal.Weighted>
0.9834

> <Gold.Chemscore.Rot.Weighted>
9.4239

> <Gold.Chemscore.Internal.Correction.Weighted>
   9.000000E+99

> <Gold.Protein.RotatedTorsions>
[ 6907 6896 6895 6894 ] final    1.06 input  -60.11 | X-H torsion
[ 7974 7965 7964 7962 ] final   80.04 input  175.53 | X-H torsion
[ 8008 7997 7996 7995 ] final  129.58 input   59.86 | X-H torsion
[ 10167 10162 10161 10158 ] final  155.68 input  -65.29 | X-H torsion
[ 10718 10713 10712 10709 ] final -173.29 input   66.30 | X-H torsion
[ 10763 10752 10751 10750 ] final  -94.97 input  -60.55 | X-H torsion
[ 11005 11000 10999 10996 ] final -169.03 input  -57.11 | X-H torsion

> <Gold.Protein.ActiveResidues>
 VAL166  LYS551  ARG553  GLY616  TRP617  ASP618  TYR619  PRO620  LYS621  CYS622 
 ASP623  PHE694  ASN695  SER759  ASP760  ASP761  ALA762  ILE779  LEU786  VAL792 
 PHE793  MET794  SER795  GLU796  ALA797  LYS798  CYS799  TRP800  GLU811  SER814 

> <Gold.Protein.RotatedAtoms>
  151.5864  135.1056  160.0028 H   0  0  0  0  0  0  0  0  0  0  0  0  # atno 6907 bound_to 6896
  152.4328  133.7304  159.6594 H   0  0  0  0  0  0  0  0  0  0  0  0  # atno 6908 bound_to 6896
  150.8222  133.8162  159.3157 H   0  0  0  0  0  0  0  0  0  0  0  0  # atno 6909 bound_to 6896
  145.6564  139.2460  143.1948 H   0  0  0  0  0  0  0  0  0  0  0  0  # atno 7974 bound_to 7965
  156.2939  140.2617  156.2622 H   0  0  0  0  0  0  0  0  0  0  0  0  # atno 8008 bound_to 7997
  154.9777  140.0390  157.2282 H   0  0  0  0  0  0  0  0  0  0  0  0  # atno 8009 bound_to 7997
  154.7800  140.2793  155.6076 H   0  0  0  0  0  0  0  0  0  0  0  0  # atno 8010 bound_to 7997
  139.4821  144.5077  151.8073 H   0  0  0  0  0  0  0  0  0  0  0  0  # atno 10167 bound_to 10162
  156.7682  130.9439  151.3119 H   0  0  0  0  0  0  0  0  0  0  0  0  # atno 10718 bound_to 10713
  154.7105  135.5138  153.8659 H   0  0  0  0  0  0  0  0  0  0  0  0  # atno 10763 bound_to 10752
  153.0776  135.6621  154.0121 H   0  0  0  0  0  0  0  0  0  0  0  0  # atno 10764 bound_to 10752
  153.9963  135.3015  155.3386 H   0  0  0  0  0  0  0  0  0  0  0  0  # atno 10765 bound_to 10752
  140.5353  134.5576  157.5085 H   0  0  0  0  0  0  0  0  0  0  0  0  # atno 11005 bound_to 11000
  146.1162  140.7367  142.9479 LP  0  0  0  0  0  0  0  0  0  0  0  0  # atno 17320 bound_to 7965
  144.7104  140.4018  143.7085 LP  0  0  0  0  0  0  0  0  0  0  0  0  # atno 17321 bound_to 7965
  140.4576  144.1767  150.5903 LP  0  0  0  0  0  0  0  0  0  0  0  0  # atno 17342 bound_to 10162
  140.4518  143.2483  151.9337 LP  0  0  0  0  0  0  0  0  0  0  0  0  # atno 17343 bound_to 10162
  157.6703  130.9045  150.0026 LP  0  0  0  0  0  0  0  0  0  0  0  0  # atno 17370 bound_to 10713
  156.1295  130.3643  149.9755 LP  0  0  0  0  0  0  0  0  0  0  0  0  # atno 17371 bound_to 10713
  139.9532  134.7580  156.0400 LP  0  0  0  0  0  0  0  0  0  0  0  0  # atno 17394 bound_to 11000
  141.1258  133.6600  156.3333 LP  0  0  0  0  0  0  0  0  0  0  0  0  # atno 17395 bound_to 11000

$$$$
