AV-unprocessed.smi:2039|AV-procd|sdf|8282|dock6
  -GOLD-   2272010553D 1   1.00000     0.00000
 Structure written by MMmdl.
 33 34  0  0  0  0  0  0  0  0  1 V2000
  151.6020  130.5619  156.4936 C   0  0  0  0  0  0  0  0  0  0  0  0
  150.9277  131.6917  155.7931 C   0  0  0  0  0  0  0  0  0  0  0  0
  151.1841  132.9760  156.0715 N   0  0  0  0  0  0  0  0  0  0  0  0
  150.4346  133.8438  155.2895 N   0  0  0  0  0  0  0  0  0  0  0  0
  149.6324  133.1856  154.4413 C   0  0  0  0  0  0  0  0  0  0  0  0
  148.7564  133.8263  153.5254 N   0  0  0  0  0  0  0  0  0  0  0  0
  147.6987  133.3046  152.8795 C   0  0  0  0  0  0  0  0  0  0  0  0
  147.3038  132.1427  152.9815 O   0  0  0  0  0  0  0  0  0  0  0  0
  147.1103  134.2194  152.0950 N   0  0  0  0  0  0  0  0  0  0  0  0
  145.9387  133.9829  151.2566 C   0  0  2  0  0  0  0  0  0  0  0  0
  144.7428  133.5837  152.1418 C   0  0  0  0  0  0  0  0  0  0  0  0
  143.4982  133.2678  151.2967 C   0  0  0  0  0  0  0  0  0  0  0  0
  143.7988  132.1734  150.2585 C   0  0  1  0  0  0  0  0  0  0  0  0
  142.6567  131.9552  149.4577 O   0  0  0  0  0  0  0  0  0  0  0  0
  144.9858  132.5705  149.3643 C   0  0  0  0  0  0  0  0  0  0  0  0
  146.2318  132.8911  150.2059 C   0  0  0  0  0  0  0  0  0  0  0  0
  149.7293  131.4350  154.5309 S   0  0  0  0  0  0  0  0  0  0  0  0
  152.2594  130.9335  157.2803 H   0  0  0  0  0  0  0  0  0  0  0  0
  152.1966  129.9861  155.7844 H   0  0  0  0  0  0  0  0  0  0  0  0
  150.8575  129.9044  156.9427 H   0  0  0  0  0  0  0  0  0  0  0  0
  148.9589  134.7976  153.3414 H   0  0  0  0  0  0  0  0  0  0  0  0
  147.5021  135.1495  152.0733 H   0  0  0  0  0  0  0  0  0  0  0  0
  145.6805  134.9092  150.7393 H   0  0  0  0  0  0  0  0  0  0  0  0
  145.0014  132.7098  152.7419 H   0  0  0  0  0  0  0  0  0  0  0  0
  144.5139  134.3849  152.8455 H   0  0  0  0  0  0  0  0  0  0  0  0
  142.6807  132.9540  151.9470 H   0  0  0  0  0  0  0  0  0  0  0  0
  143.1633  134.1761  150.7934 H   0  0  0  0  0  0  0  0  0  0  0  0
  144.0301  131.2400  150.7734 H   0  0  0  0  0  0  0  0  0  0  0  0
  142.1924  132.7733  149.3669 H   0  0  0  0  0  0  0  0  0  0  0  0
  145.2123  131.7672  148.6621 H   0  0  0  0  0  0  0  0  0  0  0  0
  144.7231  133.4425  148.7634 H   0  0  0  0  0  0  0  0  0  0  0  0
  147.0421  133.2081  149.5484 H   0  0  0  0  0  0  0  0  0  0  0  0
  146.5751  131.9825  150.7028 H   0  0  0  0  0  0  0  0  0  0  0  0
  1  2  1  0  0  0  0
  1 18  1  0  0  0  0
  1 19  1  0  0  0  0
  1 20  1  0  0  0  0
  2 17  1  0  0  0  0
  2  3  2  0  0  0  0
  3  4  1  0  0  0  0
  4  5  2  0  0  0  0
  5  6  1  0  0  0  0
  5 17  1  0  0  0  0
  6  7  1  0  0  0  0
  6 21  1  0  0  0  0
  7  8  2  0  0  0  0
  7  9  1  0  0  0  0
  9 10  1  0  0  0  0
  9 22  1  0  0  0  0
 10 16  1  0  0  0  0
 10 11  1  0  0  0  0
 10 23  1  0  0  0  0
 11 12  1  0  0  0  0
 11 24  1  0  0  0  0
 11 25  1  0  0  0  0
 12 13  1  0  0  0  0
 12 26  1  0  0  0  0
 12 27  1  0  0  0  0
 13 14  1  0  0  0  0
 13 15  1  0  0  0  0
 13 28  1  0  0  0  0
 14 29  1  0  0  0  0
 15 16  1  0  0  0  0
 15 30  1  0  0  0  0
 15 31  1  0  0  0  0
 16 32  1  0  0  0  0
 16 33  1  0  0  0  0
M  END
> <s_m_source_file>
AV-unprocessed.smi

> <i_m_source_file_index>
2039

> <i_lp_mmshare_version>
43012

> <i_f3d_flags>
0

> <s_epik_input>
W0NIM11jMW5uYyhzMSlbTkhdQyg9TylbTkhdW0NAQEhdMltDSDJdW0NIMl1bQ0BASF0oW09IXSlbQ0gyXVtDSDJdMg==

> <s_epik_cmdline>
J2VwaWtfcHl0aG9uJywgJy1waCcsICc3LjAnLCAnLXRuJywgJzgnLCAnLW1hJywgJzIwMCcsICctbWV0YWxfYmluZGluZycsICctaW1hZScsICc8aW5maWxlLm1hZT4nLCAnLW9tYWUnLCAnPG91dGZpbGUubWFlPic=

> <r_lp_tautomer_probability>
1

> <r_epik_Ionization_Penalty>
0.000385244

> <r_epik_Ionization_Penalty_Charging>
0

> <r_epik_Ionization_Penalty_Neutral>
0.000385244

> <r_epik_State_Penalty>
-0

> <r_epik_Charging_Adjusted_Penalty>
0

> <i_epik_Tot_Q>
0

> <i_epik_Tot_abs_Q>
0

> <r_epik_Metal_State_Penalty>
0.189642

> <b_epik_Metal_Only>
0

> <s_lp_Force_Field>
OPLS_2005

> <r_lp_Energy>
6.55666

> <b_lp_Chiralities_Consistent>
1

> <s_lp_Variant>
AV-unprocessed.smi:2039-1

> <Gold.Version>
5.8.1

> <Gold.Id.Protein>
6NUR|6NUR_protein|mol2

> <Gold.PLP.Fitness>
42.0329

> <Gold.PLP.PLP>
-31.1775

> <Gold.PLP.part.hbond>
-4.6984

> <Gold.PLP.part.metal>
0.0000

> <Gold.PLP.part.buried>
-2.7435

> <Gold.PLP.part.nonpolar>
-23.5557

> <Gold.PLP.part.repulsive>
0.1982

> <Gold.PLP.ligand.clash>
0.0000

> <Gold.PLP.ligand.torsion>
0.0723

> <Gold.PLP.Chemscore.Hbond>
3.6656

> <Gold.PLP.Chemscore.CHOScore>
0.0000

> <Gold.PLP.Chemscore.Metal>
0.0000

> <Gold.Chemscore.Hbonds>
donor molecule, donor type, donor heavy atom, donor atom, acceptor molecule, acceptor atom, score
      L1  H     6    21       P1  7948  0.76
      L1  H     9    22       P1  7948  0.96
      L1  H    14    29       P1 10186  1.00
      P1  H 10785 10796       L1    14  0.90

> <Gold.PLP.Chemscore.Internal.Correction>
0.0033

> <Gold.Rescore>
     Score         DG    S(hbond)    S(metal)    S(lipo)     H(rot)  DE(clash)    DE(int)     intcor
     14.40     -16.73       2.36        0.00      61.71       1.50       0.10       2.23       ----

> <Gold.Chemscore.Fitness>
14.4006

> <Gold.Chemscore.DG>
-16.7271

> <Gold.Chemscore.ZeroCoef>
-5.4800

> <Gold.Chemscore.Hbond>
2.3556

> <Gold.Chemscore.Metal>
0.0000

> <Gold.Chemscore.Lipo>
61.7116

> <Gold.Chemscore.Internal_Hbond>
0.0000

> <Gold.Chemscore.DEClash>
0.0998

> <Gold.Chemscore.DEInternal>
2.2267

> <Gold.Chemscore.Rot>
1.5004

> <Gold.Chemscore.Internal.Correction>
   9.000000E+99

> <Gold.Chemscore.Hbonds>
donor molecule, donor type, donor heavy atom, donor atom, acceptor molecule, acceptor atom, score
      L1  H     6    21       P1  7948  0.14
      L1  H     9    22       P1  7948  0.89
      L1  H    14    29       P1 10186  0.93
      P1  H 10785 10796       L1    14  0.17

> <Gold.Chemscore.Hbond.Weighted>
-7.8678

> <Gold.Chemscore.Metal.Weighted>
-0.0000

> <Gold.Chemscore.Lipo.Weighted>
-7.2203

> <Gold.Chemscore.Internal_Hbond.Weighted>
0.0000

> <Gold.Chemscore.DEClash.Weighted>
0.0998

> <Gold.Chemscore.DEInternal.Weighted>
2.2267

> <Gold.Chemscore.Rot.Weighted>
3.8409

> <Gold.Chemscore.Internal.Correction.Weighted>
   9.000000E+99

> <Gold.Protein.RotatedTorsions>
[ 6907 6896 6895 6894 ] final  163.95 input  -60.11 | X-H torsion
[ 7974 7965 7964 7962 ] final  161.35 input  175.53 | X-H torsion
[ 8008 7997 7996 7995 ] final -123.54 input   59.86 | X-H torsion
[ 10167 10162 10161 10158 ] final   59.44 input  -65.29 | X-H torsion
[ 10718 10713 10712 10709 ] final  142.19 input   66.30 | X-H torsion
[ 10763 10752 10751 10750 ] final   -0.11 input  -60.55 | X-H torsion
[ 11005 11000 10999 10996 ] final   98.01 input  -57.11 | X-H torsion

> <Gold.Protein.ActiveResidues>
 VAL166  LYS551  ARG553  GLY616  TRP617  ASP618  TYR619  PRO620  LYS621  CYS622 
 ASP623  PHE694  ASN695  SER759  ASP760  ASP761  ALA762  ILE779  LEU786  VAL792 
 PHE793  MET794  SER795  GLU796  ALA797  LYS798  CYS799  TRP800  GLU811  SER814 

> <Gold.Protein.RotatedAtoms>
  151.9173  133.3576  159.3884 H   0  0  0  0  0  0  0  0  0  0  0  0  # atno 6907 bound_to 6896
  150.7044  134.4671  159.5417 H   0  0  0  0  0  0  0  0  0  0  0  0  # atno 6908 bound_to 6896
  152.2288  134.8342  160.0527 H   0  0  0  0  0  0  0  0  0  0  0  0  # atno 6909 bound_to 6896
  144.7690  139.7886  143.6304 H   0  0  0  0  0  0  0  0  0  0  0  0  # atno 7974 bound_to 7965
  155.1822  140.0411  157.2884 H   0  0  0  0  0  0  0  0  0  0  0  0  # atno 8008 bound_to 7997
  154.6196  140.2497  155.7539 H   0  0  0  0  0  0  0  0  0  0  0  0  # atno 8009 bound_to 7997
  156.2426  140.2898  156.0497 H   0  0  0  0  0  0  0  0  0  0  0  0  # atno 8010 bound_to 7997
  140.1764  144.4226  150.6636 H   0  0  0  0  0  0  0  0  0  0  0  0  # atno 10167 bound_to 10162
  157.3834  131.0995  151.0716 H   0  0  0  0  0  0  0  0  0  0  0  0  # atno 10718 bound_to 10713
  153.3277  135.6973  153.6975 H   0  0  0  0  0  0  0  0  0  0  0  0  # atno 10763 bound_to 10752
  153.5790  135.3501  155.2868 H   0  0  0  0  0  0  0  0  0  0  0  0  # atno 10764 bound_to 10752
  154.8611  135.4290  154.2457 H   0  0  0  0  0  0  0  0  0  0  0  0  # atno 10765 bound_to 10752
  139.8774  134.9028  156.4392 H   0  0  0  0  0  0  0  0  0  0  0  0  # atno 11005 bound_to 11000
  146.1821  139.5019  142.9859 LP  0  0  0  0  0  0  0  0  0  0  0  0  # atno 17320 bound_to 7965
  145.6381  141.0290  143.1826 LP  0  0  0  0  0  0  0  0  0  0  0  0  # atno 17321 bound_to 7965
  140.6548  143.2234  151.5993 LP  0  0  0  0  0  0  0  0  0  0  0  0  # atno 17342 bound_to 10162
  139.5315  144.2902  152.1158 LP  0  0  0  0  0  0  0  0  0  0  0  0  # atno 17343 bound_to 10162
  157.1776  130.6295  149.5661 LP  0  0  0  0  0  0  0  0  0  0  0  0  # atno 17370 bound_to 10713
  155.9781  130.4764  150.6635 LP  0  0  0  0  0  0  0  0  0  0  0  0  # atno 17371 bound_to 10713
  140.9012  133.7778  155.9682 LP  0  0  0  0  0  0  0  0  0  0  0  0  # atno 17394 bound_to 11000
  140.8649  134.2796  157.5217 LP  0  0  0  0  0  0  0  0  0  0  0  0  # atno 17395 bound_to 11000

$$$$
