AV-unprocessed.smi:672|AV-procd|sdf|3290|dock2
  -GOLD-   22720 0253D 1   1.00000     0.00000
 Structure written by MMmdl.
 36 37  0  0  0  0  0  0  0  0  1 V2000
  153.9608  141.3235  161.3714 C   0  0  0  0  0  0  0  0  0  0  0  0
  153.3754  142.5959  160.7499 C   0  0  0  0  0  0  0  0  0  0  0  0
  152.5330  142.3133  159.5508 C   0  0  0  0  0  0  0  0  0  0  0  0
  152.3846  141.0827  159.0447 N   0  0  0  0  0  0  0  0  0  0  0  0
  151.5333  141.0635  157.9489 N   0  0  0  0  0  0  0  0  0  0  0  0
  151.0510  142.2821  157.6691 C   0  0  0  0  0  0  0  0  0  0  0  0
  150.1555  142.5503  156.6004 N   0  0  0  0  0  0  0  0  0  0  0  0
  149.4710  141.6725  155.8461 C   0  0  0  0  0  0  0  0  0  0  0  0
  149.5078  140.4476  155.9670 O   0  0  0  0  0  0  0  0  0  0  0  0
  148.7237  142.3018  154.9280 N   0  0  0  0  0  0  0  0  0  0  0  0
  147.8614  141.6411  153.9513 C   0  0  1  0  0  0  0  0  0  0  0  0
  148.5998  140.4982  153.2263 C   0  0  0  0  0  0  0  0  0  0  0  0
  147.9870  139.2004  153.7522 C   0  0  0  0  0  0  0  0  0  0  0  0
  146.5416  139.5750  154.0746 C   0  0  1  0  0  0  0  0  0  0  0  0
  145.7419  138.4208  155.2268 S   0  0  0  0  0  0  0  0  0  0  0  0
  145.8415  136.8860  154.2680 C   0  0  0  0  0  0  0  0  0  0  0  0
  146.6468  140.9933  154.6428 C   0  0  0  0  0  0  0  0  0  0  0  0
  151.6039  143.5642  158.7327 S   0  0  0  0  0  0  0  0  0  0  0  0
  154.5679  141.5619  162.2448 H   0  0  0  0  0  0  0  0  0  0  0  0
  154.5946  140.7938  160.6595 H   0  0  0  0  0  0  0  0  0  0  0  0
  153.1713  140.6422  161.6897 H   0  0  0  0  0  0  0  0  0  0  0  0
  152.7689  143.1236  161.4865 H   0  0  0  0  0  0  0  0  0  0  0  0
  154.1798  143.2751  160.4650 H   0  0  0  0  0  0  0  0  0  0  0  0
  150.0194  143.5270  156.3852 H   0  0  0  0  0  0  0  0  0  0  0  0
  148.7514  143.3105  154.9001 H   0  0  0  0  0  0  0  0  0  0  0  0
  147.5130  142.3709  153.2179 H   0  0  0  0  0  0  0  0  0  0  0  0
  148.4122  140.5752  152.1545 H   0  0  0  0  0  0  0  0  0  0  0  0
  149.6819  140.5218  153.3623 H   0  0  0  0  0  0  0  0  0  0  0  0
  148.0625  138.3853  153.0322 H   0  0  0  0  0  0  0  0  0  0  0  0
  148.5063  138.8933  154.6612 H   0  0  0  0  0  0  0  0  0  0  0  0
  145.9637  139.6089  153.1499 H   0  0  0  0  0  0  0  0  0  0  0  0
  145.3600  136.0733  154.8118 H   0  0  0  0  0  0  0  0  0  0  0  0
  146.8808  136.6109  154.0894 H   0  0  0  0  0  0  0  0  0  0  0  0
  145.3406  137.0032  153.3071 H   0  0  0  0  0  0  0  0  0  0  0  0
  146.8068  140.9422  155.7213 H   0  0  0  0  0  0  0  0  0  0  0  0
  145.7313  141.5638  154.4826 H   0  0  0  0  0  0  0  0  0  0  0  0
  1  2  1  0  0  0  0
  1 19  1  0  0  0  0
  1 20  1  0  0  0  0
  1 21  1  0  0  0  0
  2  3  1  0  0  0  0
  2 22  1  0  0  0  0
  2 23  1  0  0  0  0
  3 18  1  0  0  0  0
  3  4  2  0  0  0  0
  4  5  1  0  0  0  0
  5  6  2  0  0  0  0
  6  7  1  0  0  0  0
  6 18  1  0  0  0  0
  7  8  1  0  0  0  0
  7 24  1  0  0  0  0
  8  9  2  0  0  0  0
  8 10  1  0  0  0  0
 10 11  1  0  0  0  0
 10 25  1  0  0  0  0
 11 17  1  0  0  0  0
 11 12  1  0  0  0  0
 11 26  1  0  0  0  0
 12 13  1  0  0  0  0
 12 27  1  0  0  0  0
 12 28  1  0  0  0  0
 13 14  1  0  0  0  0
 13 29  1  0  0  0  0
 13 30  1  0  0  0  0
 14 15  1  0  0  0  0
 14 17  1  0  0  0  0
 14 31  1  0  0  0  0
 15 16  1  0  0  0  0
 16 32  1  0  0  0  0
 16 33  1  0  0  0  0
 16 34  1  0  0  0  0
 17 35  1  0  0  0  0
 17 36  1  0  0  0  0
M  END
> <s_m_source_file>
AV-unprocessed.smi

> <i_m_source_file_index>
672

> <i_lp_mmshare_version>
43012

> <i_f3d_flags>
0

> <s_epik_input>
W0NIM11bQ0gyXWMxbm5jKHMxKVtOSF1DKD1PKVtOSF1bQ0BASF0yW0NIMl1bQ0gyXVtDQEhdKFtDSDJdMilTW0NIM10=

> <s_epik_cmdline>
J2VwaWtfcHl0aG9uJywgJy1waCcsICc3LjAnLCAnLXRuJywgJzgnLCAnLW1hJywgJzIwMCcsICctbWV0YWxfYmluZGluZycsICctaW1hZScsICc8aW5maWxlLm1hZT4nLCAnLW9tYWUnLCAnPG91dGZpbGUubWFlPic=

> <r_lp_tautomer_probability>
1

> <r_epik_Ionization_Penalty>
0.000422169

> <r_epik_Ionization_Penalty_Charging>
0

> <r_epik_Ionization_Penalty_Neutral>
0.000422169

> <r_epik_State_Penalty>
-0

> <r_epik_Charging_Adjusted_Penalty>
0

> <i_epik_Tot_Q>
0

> <i_epik_Tot_abs_Q>
0

> <r_epik_Metal_State_Penalty>
0.200061

> <b_epik_Metal_Only>
0

> <s_lp_Force_Field>
OPLS_2005

> <r_lp_Energy>
11.4796

> <b_lp_Chiralities_Consistent>
1

> <s_lp_Variant>
AV-unprocessed.smi:672-2

> <Gold.Version>
5.8.1

> <Gold.Id.Protein>
6NUR|6NUR_protein|mol2

> <Gold.PLP.Fitness>
33.1944

> <Gold.PLP.PLP>
-27.7649

> <Gold.PLP.part.hbond>
-1.9548

> <Gold.PLP.part.metal>
0.0000

> <Gold.PLP.part.buried>
0.8456

> <Gold.PLP.part.nonpolar>
-26.9619

> <Gold.PLP.part.repulsive>
0.2985

> <Gold.PLP.ligand.clash>
0.0000

> <Gold.PLP.ligand.torsion>
0.1599

> <Gold.PLP.Chemscore.Hbond>
1.9120

> <Gold.PLP.Chemscore.CHOScore>
0.0000

> <Gold.PLP.Chemscore.Metal>
0.0000

> <Gold.Chemscore.Hbonds>
donor molecule, donor type, donor heavy atom, donor atom, acceptor molecule, acceptor atom, score
      L1  H     7    24       P1  8028  0.91
      L1  H    10    25       P1  8028  1.00

> <Gold.PLP.Chemscore.Internal.Correction>
0.0133

> <Gold.Rescore>
     Score         DG    S(hbond)    S(metal)    S(lipo)     H(rot)  DE(clash)    DE(int)     intcor
     11.70     -17.28       1.92        0.00      76.12       1.37       1.81       3.78       ----

> <Gold.Chemscore.Fitness>
11.6970

> <Gold.Chemscore.DG>
-17.2848

> <Gold.Chemscore.ZeroCoef>
-5.4800

> <Gold.Chemscore.Hbond>
1.9157

> <Gold.Chemscore.Metal>
0.0000

> <Gold.Chemscore.Lipo>
76.1176

> <Gold.Chemscore.Internal_Hbond>
0.0000

> <Gold.Chemscore.DEClash>
1.8067

> <Gold.Chemscore.DEInternal>
3.7811

> <Gold.Chemscore.Rot>
1.3669

> <Gold.Chemscore.Internal.Correction>
   9.000000E+99

> <Gold.Chemscore.Hbonds>
donor molecule, donor type, donor heavy atom, donor atom, acceptor molecule, acceptor atom, score
      L1  H     7    24       P1  8028  0.88
      L1  H    10    25       P1  8028  0.94

> <Gold.Chemscore.Hbond.Weighted>
-6.3983

> <Gold.Chemscore.Metal.Weighted>
-0.0000

> <Gold.Chemscore.Lipo.Weighted>
-8.9058

> <Gold.Chemscore.Internal_Hbond.Weighted>
0.0000

> <Gold.Chemscore.DEClash.Weighted>
1.8067

> <Gold.Chemscore.DEInternal.Weighted>
3.7811

> <Gold.Chemscore.Rot.Weighted>
3.4992

> <Gold.Chemscore.Internal.Correction.Weighted>
   9.000000E+99

> <Gold.Protein.RotatedTorsions>
[ 6907 6896 6895 6894 ] final   -9.76 input  -60.11 | X-H torsion
[ 7974 7965 7964 7962 ] final  172.45 input  175.53 | X-H torsion
[ 8008 7997 7996 7995 ] final  170.94 input   59.86 | X-H torsion
[ 10167 10162 10161 10158 ] final   46.93 input  -65.29 | X-H torsion
[ 10718 10713 10712 10709 ] final  -68.77 input   66.30 | X-H torsion
[ 10763 10752 10751 10750 ] final  155.18 input  -60.55 | X-H torsion
[ 11005 11000 10999 10996 ] final -179.75 input  -57.11 | X-H torsion

> <Gold.Protein.ActiveResidues>
 VAL166  LYS551  ARG553  GLY616  TRP617  ASP618  TYR619  PRO620  LYS621  CYS622 
 ASP623  PHE694  ASN695  SER759  ASP760  ASP761  ALA762  ILE779  LEU786  VAL792 
 PHE793  MET794  SER795  GLU796  ALA797  LYS798  CYS799  TRP800  GLU811  SER814 

> <Gold.Protein.RotatedAtoms>
  151.4126  135.0987  159.9589 H   0  0  0  0  0  0  0  0  0  0  0  0  # atno 6907 bound_to 6896
  152.5015  133.8783  159.7344 H   0  0  0  0  0  0  0  0  0  0  0  0  # atno 6908 bound_to 6896
  150.9281  133.6742  159.2845 H   0  0  0  0  0  0  0  0  0  0  0  0  # atno 6909 bound_to 6896
  144.7268  139.9500  143.6431 H   0  0  0  0  0  0  0  0  0  0  0  0  # atno 7974 bound_to 7965
  156.1318  140.1525  156.9054 H   0  0  0  0  0  0  0  0  0  0  0  0  # atno 8008 bound_to 7997
  154.4915  140.0850  156.7645 H   0  0  0  0  0  0  0  0  0  0  0  0  # atno 8009 bound_to 7997
  155.4242  140.3424  155.4276 H   0  0  0  0  0  0  0  0  0  0  0  0  # atno 8010 bound_to 7997
  140.3089  144.2845  150.6204 H   0  0  0  0  0  0  0  0  0  0  0  0  # atno 10167 bound_to 10162
  156.0488  130.4300  150.2049 H   0  0  0  0  0  0  0  0  0  0  0  0  # atno 10718 bound_to 10713
  154.1642  135.2808  155.3100 H   0  0  0  0  0  0  0  0  0  0  0  0  # atno 10763 bound_to 10752
  154.6124  135.5494  153.7490 H   0  0  0  0  0  0  0  0  0  0  0  0  # atno 10764 bound_to 10752
  153.0183  135.6418  154.1783 H   0  0  0  0  0  0  0  0  0  0  0  0  # atno 10765 bound_to 10752
  140.4152  134.6656  157.4635 H   0  0  0  0  0  0  0  0  0  0  0  0  # atno 11005 bound_to 11000
  146.0719  139.3707  143.0518 LP  0  0  0  0  0  0  0  0  0  0  0  0  # atno 17320 bound_to 7965
  145.7957  140.9794  143.1025 LP  0  0  0  0  0  0  0  0  0  0  0  0  # atno 17321 bound_to 7965
  140.5586  143.2195  151.7805 LP  0  0  0  0  0  0  0  0  0  0  0  0  # atno 17342 bound_to 10162
  139.4898  144.4380  151.9797 LP  0  0  0  0  0  0  0  0  0  0  0  0  # atno 17343 bound_to 10162
  157.0136  130.9958  151.3359 LP  0  0  0  0  0  0  0  0  0  0  0  0  # atno 17370 bound_to 10713
  157.5393  130.8109  149.8010 LP  0  0  0  0  0  0  0  0  0  0  0  0  # atno 17371 bound_to 10713
  140.0239  134.6506  155.9200 LP  0  0  0  0  0  0  0  0  0  0  0  0  # atno 17394 bound_to 11000
  141.1806  133.6546  156.5004 LP  0  0  0  0  0  0  0  0  0  0  0  0  # atno 17395 bound_to 11000

$$$$
