AV-unprocessed.smi:1847|AV-procd|sdf|7517|dock7
  -GOLD-   22720 9223D 1   1.00000     0.00000
 Structure written by MMmdl.
 24 25  0  0  0  0  0  0  0  0  2 V2000
  151.1437  141.5742  155.8109 O   0  0  0  0  0  0  0  0  0  0  0  0
  151.7875  141.2644  156.8177 C   0  0  0  0  0  0  0  0  0  0  0  0
  152.3860  140.0584  156.9966 N   0  5  0  0  0  0  0  0  0  0  0  0
  152.0496  139.0052  156.2355 C   0  0  0  0  0  0  0  0  0  0  0  0
  152.0672  139.0784  154.8248 C   0  0  0  0  0  0  0  0  0  0  0  0
  151.7153  137.9423  154.0688 C   0  0  0  0  0  0  0  0  0  0  0  0
  151.3599  136.7636  154.6209 N   0  0  0  0  0  0  0  0  0  0  0  0
  151.3487  136.6868  155.9680 C   0  0  0  0  0  0  0  0  0  0  0  0
  151.6845  137.7666  156.8090 C   0  0  0  0  0  0  0  0  0  0  0  0
  151.9476  142.2154  157.9150 C   0  0  0  0  0  0  0  0  0  0  0  0
  151.4993  143.4869  157.7832 C   0  0  0  0  0  0  0  0  0  0  0  0
  151.6427  144.4513  158.7495 O   0  0  0  0  0  0  0  0  0  0  0  0
  152.5220  144.1008  159.8112 C   0  0  0  0  0  0  0  0  0  0  0  0
  152.3120  142.6349  160.2158 C   0  0  0  0  0  0  0  0  0  0  0  0
  152.5153  141.7836  159.0940 O   0  0  0  0  0  0  0  0  0  0  0  0
  152.3448  139.9954  154.3261 H   0  0  0  0  0  0  0  0  0  0  0  0
  151.7210  137.9827  152.9896 H   0  0  0  0  0  0  0  0  0  0  0  0
  151.0640  135.7346  156.3904 H   0  0  0  0  0  0  0  0  0  0  0  0
  151.6594  137.6446  157.8822 H   0  0  0  0  0  0  0  0  0  0  0  0
  151.0216  143.8843  156.8992 H   0  0  0  0  0  0  0  0  0  0  0  0
  153.5527  144.2634  159.4929 H   0  0  0  0  0  0  0  0  0  0  0  0
  152.3393  144.7610  160.6590 H   0  0  0  0  0  0  0  0  0  0  0  0
  153.0062  142.3537  161.0076 H   0  0  0  0  0  0  0  0  0  0  0  0
  151.3033  142.4849  160.6035 H   0  0  0  0  0  0  0  0  0  0  0  0
  1  2  2  0  0  0  0
  2  3  1  0  0  0  0
  2 10  1  0  0  0  0
  3  4  1  0  0  0  0
  4  9  1  0  0  0  0
  4  5  2  0  0  0  0
  5  6  1  0  0  0  0
  5 16  1  0  0  0  0
  6  7  2  0  0  0  0
  6 17  1  0  0  0  0
  7  8  1  0  0  0  0
  8  9  2  0  0  0  0
  8 18  1  0  0  0  0
  9 19  1  0  0  0  0
 10 15  1  0  0  0  0
 10 11  2  0  0  0  0
 11 12  1  0  0  0  0
 11 20  1  0  0  0  0
 12 13  1  0  0  0  0
 13 14  1  0  0  0  0
 13 21  1  0  0  0  0
 13 22  1  0  0  0  0
 14 15  1  0  0  0  0
 14 23  1  0  0  0  0
 14 24  1  0  0  0  0
M  CHG  1   3  -1
M  END
> <s_m_source_file>
AV-unprocessed.smi

> <i_m_source_file_index>
1847

> <i_lp_mmshare_version>
43012

> <i_f3d_flags>
0

> <s_epik_input>
TzFbQ0gyXVtDSDJdT1tDSF09QzFDKD1PKVtOSF1jMltjSF1bY0hdbltjSF1bY0hdMg==

> <s_epik_cmdline>
J2VwaWtfcHl0aG9uJywgJy1waCcsICc3LjAnLCAnLXRuJywgJzgnLCAnLW1hJywgJzIwMCcsICctbWV0YWxfYmluZGluZycsICctaW1hZScsICc8aW5maWxlLm1hZT4nLCAnLW9tYWUnLCAnPG91dGZpbGUubWFlPic=

> <r_epik_Ionization_Penalty>
6.68616

> <r_epik_Ionization_Penalty_Charging>
5.33655

> <r_epik_Ionization_Penalty_Neutral>
1.34962

> <r_epik_State_Penalty>
5.36971

> <r_epik_Charging_Adjusted_Penalty>
10.7063

> <i_epik_Tot_Q>
-1

> <i_epik_Tot_abs_Q>
1

> <r_epik_Metal_State_Penalty>
1.43726

> <b_epik_Metal_Only>
1

> <s_lp_Force_Field>
OPLS_2005

> <r_lp_Energy>
5.87976

> <b_lp_Chiralities_Consistent>
1

> <s_lp_Variant>
AV-unprocessed.smi:1847-3

> <Gold.Version>
5.8.1

> <Gold.Id.Protein>
6NUR|6NUR_protein|mol2

> <Gold.PLP.Fitness>
41.1363

> <Gold.PLP.PLP>
-26.7360

> <Gold.PLP.part.hbond>
-2.0000

> <Gold.PLP.part.metal>
0.0000

> <Gold.PLP.part.buried>
-5.4391

> <Gold.PLP.part.nonpolar>
-19.5581

> <Gold.PLP.part.repulsive>
0.2909

> <Gold.PLP.ligand.clash>
0.0000

> <Gold.PLP.ligand.torsion>
0.5587

> <Gold.PLP.Chemscore.Hbond>
3.0000

> <Gold.PLP.Chemscore.CHOScore>
2.0000

> <Gold.PLP.Chemscore.Metal>
0.0000

> <Gold.Chemscore.Hbonds>
donor molecule, donor type, donor heavy atom, donor atom, acceptor molecule, acceptor atom, score
      P1  H  7997  8010       L1     3  2.00
      P1  H 10752 10763       L1     7  0.85
      L1  C     6    17       P1  7949  0.85
      L1  C    11    20       P1  8028  0.86

> <Gold.PLP.Chemscore.Internal.Correction>
0.5178

> <Gold.Rescore>
     Score         DG    S(hbond)    S(metal)    S(lipo)     H(rot)  DE(clash)    DE(int)     intcor
     14.69     -16.78       0.76        0.00      74.88       0.00       0.08       2.01       ----

> <Gold.Chemscore.Fitness>
14.6896

> <Gold.Chemscore.DG>
-16.7781

> <Gold.Chemscore.ZeroCoef>
-5.4800

> <Gold.Chemscore.Hbond>
0.7596

> <Gold.Chemscore.Metal>
0.0000

> <Gold.Chemscore.Lipo>
74.8816

> <Gold.Chemscore.Internal_Hbond>
0.0000

> <Gold.Chemscore.DEClash>
0.0788

> <Gold.Chemscore.DEInternal>
2.0097

> <Gold.Chemscore.Rot>
0.0000

> <Gold.Chemscore.Internal.Correction>
   9.000000E+99

> <Gold.Chemscore.Hbonds>
donor molecule, donor type, donor heavy atom, donor atom, acceptor molecule, acceptor atom, score
      P1  H  7989  7998       L1     1  0.02
      P1  H  7997  8010       L1     3  0.21
      P1  H 10752 10763       L1     7  0.06

> <Gold.Chemscore.Hbond.Weighted>
-2.5370

> <Gold.Chemscore.Metal.Weighted>
-0.0000

> <Gold.Chemscore.Lipo.Weighted>
-8.7612

> <Gold.Chemscore.Internal_Hbond.Weighted>
0.0000

> <Gold.Chemscore.DEClash.Weighted>
0.0788

> <Gold.Chemscore.DEInternal.Weighted>
2.0097

> <Gold.Chemscore.Rot.Weighted>
0.0000

> <Gold.Chemscore.Internal.Correction.Weighted>
   9.000000E+99

> <Gold.Protein.RotatedTorsions>
[ 6907 6896 6895 6894 ] final -150.41 input  -60.11 | X-H torsion
[ 7974 7965 7964 7962 ] final   35.07 input  175.53 | X-H torsion
[ 8008 7997 7996 7995 ] final   56.56 input   59.86 | X-H torsion
[ 10167 10162 10161 10158 ] final   -6.00 input  -65.29 | X-H torsion
[ 10718 10713 10712 10709 ] final  122.99 input   66.30 | X-H torsion
[ 10763 10752 10751 10750 ] final   43.82 input  -60.55 | X-H torsion
[ 11005 11000 10999 10996 ] final  -89.60 input  -57.11 | X-H torsion

> <Gold.Protein.ActiveResidues>
 VAL166  LYS551  ARG553  GLY616  TRP617  ASP618  TYR619  PRO620  LYS621  CYS622 
 ASP623  PHE694  ASN695  SER759  ASP760  ASP761  ALA762  ILE779  LEU786  VAL792 
 PHE793  MET794  SER795  GLU796  ALA797  LYS798  CYS799  TRP800  GLU811  SER814 

> <Gold.Protein.RotatedAtoms>
  151.1981  133.4627  159.2595 H   0  0  0  0  0  0  0  0  0  0  0  0  # atno 6907 bound_to 6896
  151.1097  135.0019  159.8498 H   0  0  0  0  0  0  0  0  0  0  0  0  # atno 6908 bound_to 6896
  152.5449  134.1901  159.8723 H   0  0  0  0  0  0  0  0  0  0  0  0  # atno 6909 bound_to 6896
  146.1309  139.6189  142.9227 H   0  0  0  0  0  0  0  0  0  0  0  0  # atno 7974 bound_to 7965
  155.5194  140.3479  155.4404 H   0  0  0  0  0  0  0  0  0  0  0  0  # atno 8008 bound_to 7997
  156.0795  140.1383  156.9757 H   0  0  0  0  0  0  0  0  0  0  0  0  # atno 8009 bound_to 7997
  154.4572  140.0949  156.6766 H   0  0  0  0  0  0  0  0  0  0  0  0  # atno 8010 bound_to 7997
  140.6982  143.6244  150.8582 H   0  0  0  0  0  0  0  0  0  0  0  0  # atno 10167 bound_to 10162
  157.5700  131.1084  150.8385 H   0  0  0  0  0  0  0  0  0  0  0  0  # atno 10718 bound_to 10713
  152.9853  135.6089  154.3174 H   0  0  0  0  0  0  0  0  0  0  0  0  # atno 10763 bound_to 10752
  154.2886  135.2775  155.2667 H   0  0  0  0  0  0  0  0  0  0  0  0  # atno 10764 bound_to 10752
  154.4973  135.5876  153.6561 H   0  0  0  0  0  0  0  0  0  0  0  0  # atno 10765 bound_to 10752
  141.1582  133.7640  156.9618 H   0  0  0  0  0  0  0  0  0  0  0  0  # atno 11005 bound_to 11000
  145.5263  141.0429  143.2407 LP  0  0  0  0  0  0  0  0  0  0  0  0  # atno 17320 bound_to 7965
  144.7689  139.6780  143.7203 LP  0  0  0  0  0  0  0  0  0  0  0  0  # atno 17321 bound_to 7965
  139.9964  143.5791  152.2892 LP  0  0  0  0  0  0  0  0  0  0  0  0  # atno 17342 bound_to 10162
  139.6465  144.7658  151.2233 LP  0  0  0  0  0  0  0  0  0  0  0  0  # atno 17343 bound_to 10162
  156.8859  130.5196  149.5288 LP  0  0  0  0  0  0  0  0  0  0  0  0  # atno 17370 bound_to 10713
  156.0746  130.5771  150.9448 LP  0  0  0  0  0  0  0  0  0  0  0  0  # atno 17371 bound_to 10713
  140.1188  134.9430  157.2173 LP  0  0  0  0  0  0  0  0  0  0  0  0  # atno 17394 bound_to 11000
  140.3099  134.3036  155.7269 LP  0  0  0  0  0  0  0  0  0  0  0  0  # atno 17395 bound_to 11000

$$$$
