AV-unprocessed.smi:1464|AV-procd|sdf|5943|dock5
  -GOLD-   22720 6 23D 1   1.00000     0.00000
 Structure written by MMmdl.
 41 42  0  0  0  0  0  0  0  0  1 V2000
  151.0823  142.3582  156.8166 C   0  0  0  0  0  0  0  0  0  0  0  0
  151.0385  140.9837  157.5084 C   0  0  2  0  0  0  0  0  0  0  0  0
  152.1796  140.8841  158.5421 C   0  0  0  0  0  0  0  0  0  0  0  0
  152.1799  139.5373  159.2777 C   0  0  0  0  0  0  0  0  0  0  0  0
  152.2549  138.3689  158.2842 C   0  0  0  0  0  0  0  0  0  0  0  0
  151.1255  138.4300  157.2396 C   0  0  1  0  0  0  0  0  0  0  0  0
  149.8411  138.1364  157.8799 N   0  0  0  0  0  0  0  0  0  0  0  0
  149.5627  137.0762  158.6540 C   0  0  0  0  0  0  0  0  0  0  0  0
  150.3779  136.1887  158.9096 O   0  0  0  0  0  0  0  0  0  0  0  0
  148.1281  137.0070  159.1977 C   0  0  0  0  0  0  0  0  0  0  0  0
  147.9003  135.8721  160.1034 N   0  0  0  0  0  0  0  0  0  0  0  0
  148.0344  134.6303  159.5008 N   0  0  0  0  0  0  0  0  0  0  0  0
  147.8730  133.5555  160.1961 C   0  0  0  0  0  0  0  0  0  0  0  0
  148.0181  132.3464  159.5610 O   0  0  0  0  0  0  0  0  0  0  0  0
  147.5474  133.6165  161.6043 C   0  0  0  0  0  0  0  0  0  0  0  0
  147.4135  134.8309  162.1812 C   0  0  0  0  0  0  0  0  0  0  0  0
  147.5897  136.0701  161.4216 C   0  0  0  0  0  0  0  0  0  0  0  0
  147.4708  137.1892  161.9203 O   0  0  0  0  0  0  0  0  0  0  0  0
  151.1024  139.7976  156.5057 C   0  0  1  0  0  0  0  0  0  0  0  0
  149.9903  139.8462  155.4381 C   0  0  0  0  0  0  0  0  0  0  0  0
  148.8376  131.9949  159.8729 H   0  0  0  0  0  0  0  0  0  0  0  0
  151.9702  142.4605  156.1920 H   0  0  0  0  0  0  0  0  0  0  0  0
  151.0996  143.1646  157.5504 H   0  0  0  0  0  0  0  0  0  0  0  0
  150.2076  142.5221  156.1879 H   0  0  0  0  0  0  0  0  0  0  0  0
  150.0933  140.9244  158.0500 H   0  0  0  0  0  0  0  0  0  0  0  0
  153.1398  141.0219  158.0428 H   0  0  0  0  0  0  0  0  0  0  0  0
  152.0952  141.6914  159.2705 H   0  0  0  0  0  0  0  0  0  0  0  0
  153.0241  139.4914  159.9662 H   0  0  0  0  0  0  0  0  0  0  0  0
  151.2808  139.4511  159.8889 H   0  0  0  0  0  0  0  0  0  0  0  0
  153.2179  138.3969  157.7730 H   0  0  0  0  0  0  0  0  0  0  0  0
  152.2238  137.4190  158.8197 H   0  0  0  0  0  0  0  0  0  0  0  0
  151.3410  137.6586  156.4983 H   0  0  0  0  0  0  0  0  0  0  0  0
  149.1010  138.8051  157.7226 H   0  0  0  0  0  0  0  0  0  0  0  0
  147.8848  137.9424  159.7059 H   0  0  0  0  0  0  0  0  0  0  0  0
  147.4482  136.9527  158.3456 H   0  0  0  0  0  0  0  0  0  0  0  0
  147.4160  132.7080  162.1736 H   0  0  0  0  0  0  0  0  0  0  0  0
  147.1707  134.8918  163.2320 H   0  0  0  0  0  0  0  0  0  0  0  0
  152.0494  139.8789  155.9697 H   0  0  0  0  0  0  0  0  0  0  0  0
  149.0002  139.9084  155.8903 H   0  0  0  0  0  0  0  0  0  0  0  0
  150.0132  138.9547  154.8105 H   0  0  0  0  0  0  0  0  0  0  0  0
  150.1069  140.7026  154.7744 H   0  0  0  0  0  0  0  0  0  0  0  0
  1  2  1  0  0  0  0
  1 22  1  0  0  0  0
  1 23  1  0  0  0  0
  1 24  1  0  0  0  0
  2 19  1  0  0  0  0
  2  3  1  0  0  0  0
  2 25  1  0  0  0  0
  3  4  1  0  0  0  0
  3 26  1  0  0  0  0
  3 27  1  0  0  0  0
  4  5  1  0  0  0  0
  4 28  1  0  0  0  0
  4 29  1  0  0  0  0
  5  6  1  0  0  0  0
  5 30  1  0  0  0  0
  5 31  1  0  0  0  0
  6  7  1  0  0  0  0
  6 19  1  0  0  0  0
  6 32  1  0  0  0  0
  7  8  1  0  0  0  0
  7 33  1  0  0  0  0
  8  9  2  0  0  0  0
  8 10  1  0  0  0  0
 10 34  1  0  0  0  0
 10 35  1  0  0  0  0
 10 11  1  0  0  0  0
 11 12  1  0  0  0  0
 11 17  1  0  0  0  0
 12 13  2  0  0  0  0
 13 14  1  0  0  0  0
 13 15  1  0  0  0  0
 14 21  1  0  0  0  0
 15 36  1  0  0  0  0
 15 16  2  0  0  0  0
 16 37  1  0  0  0  0
 16 17  1  0  0  0  0
 17 18  2  0  0  0  0
 19 20  1  0  0  0  0
 19 38  1  0  0  0  0
 20 39  1  0  0  0  0
 20 40  1  0  0  0  0
 20 41  1  0  0  0  0
M  END
> <s_m_source_file>
AV-unprocessed.smi

> <i_m_source_file_index>
1464

> <i_lp_mmshare_version>
43012

> <i_f3d_flags>
0

> <s_epik_input>
W0NIM11bQ0BASF0xW0NIMl1bQ0gyXVtDSDJdW0NASF0oW0NASF0xW0NIM10pW05IXUMoPU8pW0NIMl1uMltuSF1jKD1PKVtjSF1bY0hdYzI9Tw==

> <s_epik_cmdline>
J2VwaWtfcHl0aG9uJywgJy1waCcsICc3LjAnLCAnLXRuJywgJzgnLCAnLW1hJywgJzIwMCcsICctbWV0YWxfYmluZGluZycsICctaW1hZScsICc8aW5maWxlLm1hZT4nLCAnLW9tYWUnLCAnPG91dGZpbGUubWFlPic=

> <r_lp_tautomer_probability>
0.9996

> <r_epik_Ionization_Penalty>
2.10335

> <r_epik_Ionization_Penalty_Charging>
3.98079e-08

> <r_epik_Ionization_Penalty_Neutral>
2.10335

> <r_epik_State_Penalty>
1.67957

> <r_epik_Charging_Adjusted_Penalty>
1.67957

> <i_epik_Tot_Q>
0

> <i_epik_Tot_abs_Q>
0

> <r_epik_Metal_State_Penalty>
1.67957

> <b_epik_Metal_Only>
0

> <s_lp_Force_Field>
OPLS_2005

> <r_lp_Energy>
20.9709

> <b_lp_Chiralities_Consistent>
1

> <s_lp_Variant>
AV-unprocessed.smi:1464-9

> <Gold.Version>
5.8.1

> <Gold.Id.Protein>
6NUR|6NUR_protein|mol2

> <Gold.PLP.Fitness>
40.2978

> <Gold.PLP.PLP>
-32.4523

> <Gold.PLP.part.hbond>
-3.0000

> <Gold.PLP.part.metal>
0.0000

> <Gold.PLP.part.buried>
-4.9476

> <Gold.PLP.part.nonpolar>
-24.4608

> <Gold.PLP.part.repulsive>
0.0704

> <Gold.PLP.ligand.clash>
0.0000

> <Gold.PLP.ligand.torsion>
0.0785

> <Gold.PLP.Chemscore.Hbond>
2.6640

> <Gold.PLP.Chemscore.CHOScore>
0.0000

> <Gold.PLP.Chemscore.Metal>
0.0000

> <Gold.Chemscore.Hbonds>
donor molecule, donor type, donor heavy atom, donor atom, acceptor molecule, acceptor atom, score
      P1  H  6896  6908       L1     9  1.00
      P1  H  6931  6943       L1    18  0.93
      P1  H  6934  6947       L1    18  0.61

> <Gold.PLP.Chemscore.Internal.Correction>
0.0104

> <Gold.Rescore>
     Score         DG    S(hbond)    S(metal)    S(lipo)     H(rot)  DE(clash)    DE(int)     intcor
     15.89     -16.23       2.67        0.00      64.26       2.22       0.04       0.29       ----

> <Gold.Chemscore.Fitness>
15.8925

> <Gold.Chemscore.DG>
-16.2284

> <Gold.Chemscore.ZeroCoef>
-5.4800

> <Gold.Chemscore.Hbond>
2.6704

> <Gold.Chemscore.Metal>
0.0000

> <Gold.Chemscore.Lipo>
64.2606

> <Gold.Chemscore.Internal_Hbond>
0.0000

> <Gold.Chemscore.DEClash>
0.0416

> <Gold.Chemscore.DEInternal>
0.2944

> <Gold.Chemscore.Rot>
2.2224

> <Gold.Chemscore.Internal.Correction>
   9.000000E+99

> <Gold.Chemscore.Hbonds>
donor molecule, donor type, donor heavy atom, donor atom, acceptor molecule, acceptor atom, score
      P1  H  6896  6908       L1     9  0.97
      P1  H  6931  6943       L1    18  0.84
      P1  H  6934  6947       L1    18  0.59

> <Gold.Chemscore.Hbond.Weighted>
-8.9193

> <Gold.Chemscore.Metal.Weighted>
-0.0000

> <Gold.Chemscore.Lipo.Weighted>
-7.5185

> <Gold.Chemscore.Internal_Hbond.Weighted>
0.0000

> <Gold.Chemscore.DEClash.Weighted>
0.0416

> <Gold.Chemscore.DEInternal.Weighted>
0.2944

> <Gold.Chemscore.Rot.Weighted>
5.6893

> <Gold.Chemscore.Internal.Correction.Weighted>
   9.000000E+99

> <Gold.Protein.RotatedTorsions>
[ 6907 6896 6895 6894 ] final -164.06 input  -60.11 | X-H torsion
[ 7974 7965 7964 7962 ] final  -92.21 input  175.53 | X-H torsion
[ 8008 7997 7996 7995 ] final  -61.98 input   59.86 | X-H torsion
[ 10167 10162 10161 10158 ] final  -40.79 input  -65.29 | X-H torsion
[ 10718 10713 10712 10709 ] final -152.61 input   66.30 | X-H torsion
[ 10763 10752 10751 10750 ] final  -50.23 input  -60.55 | X-H torsion
[ 11005 11000 10999 10996 ] final   32.94 input  -57.11 | X-H torsion

> <Gold.Protein.ActiveResidues>
 VAL166  LYS551  ARG553  GLY616  TRP617  ASP618  TYR619  PRO620  LYS621  CYS622 
 ASP623  PHE694  ASN695  SER759  ASP760  ASP761  ALA762  ILE779  LEU786  VAL792 
 PHE793  MET794  SER795  GLU796  ALA797  LYS798  CYS799  TRP800  GLU811  SER814 

> <Gold.Protein.RotatedAtoms>
  151.4058  133.3743  159.2737 H   0  0  0  0  0  0  0  0  0  0  0  0  # atno 6907 bound_to 6896
  150.9399  134.8810  159.7616 H   0  0  0  0  0  0  0  0  0  0  0  0  # atno 6908 bound_to 6896
  152.5067  134.4008  159.9468 H   0  0  0  0  0  0  0  0  0  0  0  0  # atno 6909 bound_to 6896
  145.4028  140.9539  143.2277 H   0  0  0  0  0  0  0  0  0  0  0  0  # atno 7974 bound_to 7965
  154.4476  140.1006  156.6516 H   0  0  0  0  0  0  0  0  0  0  0  0  # atno 8008 bound_to 7997
  155.5391  140.3483  155.4424 H   0  0  0  0  0  0  0  0  0  0  0  0  # atno 8009 bound_to 7997
  156.0610  140.1326  156.9930 H   0  0  0  0  0  0  0  0  0  0  0  0  # atno 8010 bound_to 7997
  140.7023  143.3132  151.2974 H   0  0  0  0  0  0  0  0  0  0  0  0  # atno 10167 bound_to 10162
  156.4748  130.8275  151.2504 H   0  0  0  0  0  0  0  0  0  0  0  0  # atno 10718 bound_to 10713
  154.1070  135.6555  153.4878 H   0  0  0  0  0  0  0  0  0  0  0  0  # atno 10763 bound_to 10752
  153.0269  135.5238  154.7229 H   0  0  0  0  0  0  0  0  0  0  0  0  # atno 10764 bound_to 10752
  154.6398  135.2987  155.0086 H   0  0  0  0  0  0  0  0  0  0  0  0  # atno 10765 bound_to 10752
  140.2683  134.3112  155.7836 H   0  0  0  0  0  0  0  0  0  0  0  0  # atno 11005 bound_to 11000
  144.8362  139.5546  143.6921 LP  0  0  0  0  0  0  0  0  0  0  0  0  # atno 17320 bound_to 7965
  146.2743  139.6714  142.9274 LP  0  0  0  0  0  0  0  0  0  0  0  0  # atno 17321 bound_to 7965
  139.6562  144.0271  152.2661 LP  0  0  0  0  0  0  0  0  0  0  0  0  # atno 17342 bound_to 10162
  139.9824  144.6419  150.7889 LP  0  0  0  0  0  0  0  0  0  0  0  0  # atno 17343 bound_to 10162
  157.7488  131.0064  150.3152 LP  0  0  0  0  0  0  0  0  0  0  0  0  # atno 17370 bound_to 10713
  156.3582  130.3842  149.7273 LP  0  0  0  0  0  0  0  0  0  0  0  0  # atno 17371 bound_to 10713
  141.2181  133.7451  156.9294 LP  0  0  0  0  0  0  0  0  0  0  0  0  # atno 17394 bound_to 11000
  140.1398  134.9301  157.2451 LP  0  0  0  0  0  0  0  0  0  0  0  0  # atno 17395 bound_to 11000

$$$$
