AV-unprocessed.smi:2855|AV-procd|sdf|10982|dock4
  -GOLD-   2272015433D 1   1.00000     0.00000
 Structure written by MMmdl.
 47 48  0  0  0  0  0  0  0  0  1 V2000
  155.1162  140.7082  160.3078 C   0  0  0  0  0  0  0  0  0  0  0  0
  153.6599  140.6282  160.7987 C   0  0  1  0  0  0  0  0  0  0  0  0
  153.2870  141.7811  161.7481 C   0  0  0  0  0  0  0  0  0  0  0  0
  153.1219  143.1196  161.0101 C   0  0  0  0  0  0  0  0  0  0  0  0
  152.0855  143.0284  159.8648 C   0  0  1  0  0  0  0  0  0  0  0  0
  151.8261  144.3948  159.1603 C   0  0  0  0  0  0  0  0  0  0  0  0
  152.8085  144.7097  158.0170 C   0  0  0  0  0  0  0  0  0  0  0  0
  151.7597  145.5662  160.1559 C   0  0  0  0  0  0  0  0  0  0  0  0
  152.4661  141.8762  158.8926 C   0  0  2  0  0  0  0  0  0  0  0  0
  151.4381  141.6952  157.8688 N   0  0  0  0  0  0  0  0  0  0  0  0
  151.4868  140.8273  156.8462 C   0  0  0  0  0  0  0  0  0  0  0  0
  152.4120  140.0335  156.6707 O   0  0  0  0  0  0  0  0  0  0  0  0
  150.2954  140.8561  155.8795 C   0  0  0  0  0  0  0  0  0  0  0  0
  149.6746  139.5345  155.7141 N   0  0  0  0  0  0  0  0  0  0  0  0
  148.9422  138.9680  156.7477 C   0  0  0  0  0  0  0  0  0  0  0  0
  148.3588  137.7487  156.6664 C   0  0  0  0  0  0  0  0  0  0  0  0
  148.4783  136.9518  155.4501 C   0  0  0  0  0  0  0  0  0  0  0  0
  147.9857  135.8387  155.2802 O   0  0  0  0  0  0  0  0  0  0  0  0
  149.2240  137.5553  154.4340 N   0  0  0  0  0  0  0  0  0  0  0  0
  149.8298  138.8102  154.5117 C   0  0  0  0  0  0  0  0  0  0  0  0
  150.4710  139.2478  153.5567 O   0  0  0  0  0  0  0  0  0  0  0  0
  152.6465  140.5397  159.6423 C   0  0  0  0  0  0  0  0  0  0  0  0
  149.3362  137.0396  153.5733 H   0  0  0  0  0  0  0  0  0  0  0  0
  155.3045  141.6053  159.7186 H   0  0  0  0  0  0  0  0  0  0  0  0
  155.3655  139.8482  159.6857 H   0  0  0  0  0  0  0  0  0  0  0  0
  155.8110  140.7152  161.1479 H   0  0  0  0  0  0  0  0  0  0  0  0
  153.5818  139.7017  161.3693 H   0  0  0  0  0  0  0  0  0  0  0  0
  152.3509  141.5388  162.2526 H   0  0  0  0  0  0  0  0  0  0  0  0
  154.0359  141.8785  162.5347 H   0  0  0  0  0  0  0  0  0  0  0  0
  152.8236  143.8755  161.7354 H   0  0  0  0  0  0  0  0  0  0  0  0
  154.0887  143.4377  160.6208 H   0  0  0  0  0  0  0  0  0  0  0  0
  151.1391  142.7395  160.3255 H   0  0  0  0  0  0  0  0  0  0  0  0
  150.8338  144.3508  158.7113 H   0  0  0  0  0  0  0  0  0  0  0  0
  153.8280  144.8335  158.3815 H   0  0  0  0  0  0  0  0  0  0  0  0
  152.5299  145.6358  157.5135 H   0  0  0  0  0  0  0  0  0  0  0  0
  152.8151  143.9267  157.2598 H   0  0  0  0  0  0  0  0  0  0  0  0
  152.7302  145.7753  160.6052 H   0  0  0  0  0  0  0  0  0  0  0  0
  151.0533  145.3622  160.9609 H   0  0  0  0  0  0  0  0  0  0  0  0
  151.4307  146.4793  159.6588 H   0  0  0  0  0  0  0  0  0  0  0  0
  153.4191  142.1202  158.4229 H   0  0  0  0  0  0  0  0  0  0  0  0
  150.6315  142.2991  157.9310 H   0  0  0  0  0  0  0  0  0  0  0  0
  149.5691  141.5753  156.2603 H   0  0  0  0  0  0  0  0  0  0  0  0
  150.6057  141.2460  154.9077 H   0  0  0  0  0  0  0  0  0  0  0  0
  148.8311  139.5199  157.6702 H   0  0  0  0  0  0  0  0  0  0  0  0
  147.8017  137.3605  157.5069 H   0  0  0  0  0  0  0  0  0  0  0  0
  152.9486  139.7567  158.9453 H   0  0  0  0  0  0  0  0  0  0  0  0
  151.6830  140.2250  160.0467 H   0  0  0  0  0  0  0  0  0  0  0  0
  1  2  1  0  0  0  0
  1 24  1  0  0  0  0
  1 25  1  0  0  0  0
  1 26  1  0  0  0  0
  2 22  1  0  0  0  0
  2  3  1  0  0  0  0
  2 27  1  0  0  0  0
  3  4  1  0  0  0  0
  3 28  1  0  0  0  0
  3 29  1  0  0  0  0
  4  5  1  0  0  0  0
  4 30  1  0  0  0  0
  4 31  1  0  0  0  0
  5  6  1  0  0  0  0
  5  9  1  0  0  0  0
  5 32  1  0  0  0  0
  6  7  1  0  0  0  0
  6  8  1  0  0  0  0
  6 33  1  0  0  0  0
  7 34  1  0  0  0  0
  7 35  1  0  0  0  0
  7 36  1  0  0  0  0
  8 37  1  0  0  0  0
  8 38  1  0  0  0  0
  8 39  1  0  0  0  0
  9 10  1  0  0  0  0
  9 22  1  0  0  0  0
  9 40  1  0  0  0  0
 10 11  1  0  0  0  0
 10 41  1  0  0  0  0
 11 12  2  0  0  0  0
 11 13  1  0  0  0  0
 13 14  1  0  0  0  0
 13 42  1  0  0  0  0
 13 43  1  0  0  0  0
 14 20  1  0  0  0  0
 14 15  1  0  0  0  0
 15 16  2  0  0  0  0
 15 44  1  0  0  0  0
 16 17  1  0  0  0  0
 16 45  1  0  0  0  0
 17 18  2  0  0  0  0
 17 19  1  0  0  0  0
 19 23  1  0  0  0  0
 19 20  1  0  0  0  0
 20 21  2  0  0  0  0
 22 46  1  0  0  0  0
 22 47  1  0  0  0  0
M  END
> <s_m_source_file>
AV-unprocessed.smi

> <i_m_source_file_index>
2855

> <i_lp_mmshare_version>
43012

> <i_f3d_flags>
0

> <s_epik_input>
W0NIM11bQ0BASF0xW0NIMl1bQ0gyXVtDQEBIXShbQ0hdKFtDSDNdKVtDSDNdKVtDQEhdKFtDSDJdMSlbTkhdQyg9TylbQ0gyXW4yW2NIXVtjSF1jKD1PKVtuSF1jMj1P

> <s_epik_cmdline>
J2VwaWtfcHl0aG9uJywgJy1waCcsICc3LjAnLCAnLXRuJywgJzgnLCAnLW1hJywgJzIwMCcsICctbWV0YWxfYmluZGluZycsICctaW1hZScsICc8aW5maWxlLm1hZT4nLCAnLW9tYWUnLCAnPG91dGZpbGUubWFlPic=

> <r_lp_tautomer_probability>
0.999537

> <r_epik_Ionization_Penalty>
0.00306256

> <r_epik_Ionization_Penalty_Charging>
0.00306254

> <r_epik_Ionization_Penalty_Neutral>
2.0223e-08

> <r_epik_State_Penalty>
0.0021533

> <r_epik_Charging_Adjusted_Penalty>
0.00521583

> <i_epik_Tot_Q>
0

> <i_epik_Tot_abs_Q>
0

> <r_epik_Metal_State_Penalty>
0.362116

> <b_epik_Metal_Only>
0

> <s_lp_Force_Field>
OPLS_2005

> <r_lp_Energy>
15.8562

> <b_lp_Chiralities_Consistent>
1

> <s_lp_Variant>
AV-unprocessed.smi:2855-6

> <Gold.Version>
5.8.1

> <Gold.Id.Protein>
6NUR|6NUR_protein|mol2

> <Gold.PLP.Fitness>
49.0059

> <Gold.PLP.PLP>
-41.2437

> <Gold.PLP.part.hbond>
-3.0000

> <Gold.PLP.part.metal>
0.0000

> <Gold.PLP.part.buried>
-2.4401

> <Gold.PLP.part.nonpolar>
-36.9678

> <Gold.PLP.part.repulsive>
1.9614

> <Gold.PLP.ligand.clash>
0.0000

> <Gold.PLP.ligand.torsion>
0.5301

> <Gold.PLP.Chemscore.Hbond>
2.9199

> <Gold.PLP.Chemscore.CHOScore>
0.0000

> <Gold.PLP.Chemscore.Metal>
0.0000

> <Gold.Chemscore.Hbonds>
donor molecule, donor type, donor heavy atom, donor atom, acceptor molecule, acceptor atom, score
      L1  H    19    23       P1  7948  1.00
      P1  H  7989  7998       L1    21  0.88
      P1  H  7997  8008       L1    12  1.00

> <Gold.PLP.Chemscore.Internal.Correction>
0.0628

> <Gold.Rescore>
     Score         DG    S(hbond)    S(metal)    S(lipo)     H(rot)  DE(clash)    DE(int)     intcor
     20.47     -23.44       2.77        0.00     114.94       1.85       1.67       1.30       ----

> <Gold.Chemscore.Fitness>
20.4679

> <Gold.Chemscore.DG>
-23.4421

> <Gold.Chemscore.ZeroCoef>
-5.4800

> <Gold.Chemscore.Hbond>
2.7725

> <Gold.Chemscore.Metal>
0.0000

> <Gold.Chemscore.Lipo>
114.9389

> <Gold.Chemscore.Internal_Hbond>
0.0000

> <Gold.Chemscore.DEClash>
1.6698

> <Gold.Chemscore.DEInternal>
1.3044

> <Gold.Chemscore.Rot>
1.8539

> <Gold.Chemscore.Internal.Correction>
   9.000000E+99

> <Gold.Chemscore.Hbonds>
donor molecule, donor type, donor heavy atom, donor atom, acceptor molecule, acceptor atom, score
      L1  H    19    23       P1  7948  0.96
      P1  H  7989  7998       L1    21  0.85
      P1  H  7997  8008       L1    12  0.99

> <Gold.Chemscore.Hbond.Weighted>
-9.2603

> <Gold.Chemscore.Metal.Weighted>
-0.0000

> <Gold.Chemscore.Lipo.Weighted>
-13.4478

> <Gold.Chemscore.Internal_Hbond.Weighted>
0.0000

> <Gold.Chemscore.DEClash.Weighted>
1.6698

> <Gold.Chemscore.DEInternal.Weighted>
1.3044

> <Gold.Chemscore.Rot.Weighted>
4.7460

> <Gold.Chemscore.Internal.Correction.Weighted>
   9.000000E+99

> <Gold.Protein.RotatedTorsions>
[ 6907 6896 6895 6894 ] final  -35.70 input  -60.11 | X-H torsion
[ 7974 7965 7964 7962 ] final  139.20 input  175.53 | X-H torsion
[ 8008 7997 7996 7995 ] final  -49.61 input   59.86 | X-H torsion
[ 10167 10162 10161 10158 ] final -166.98 input  -65.29 | X-H torsion
[ 10718 10713 10712 10709 ] final   97.10 input   66.30 | X-H torsion
[ 10763 10752 10751 10750 ] final   -5.32 input  -60.55 | X-H torsion
[ 11005 11000 10999 10996 ] final -111.34 input  -57.11 | X-H torsion

> <Gold.Protein.ActiveResidues>
 VAL166  LYS551  ARG553  GLY616  TRP617  ASP618  TYR619  PRO620  LYS621  CYS622 
 ASP623  PHE694  ASN695  SER759  ASP760  ASP761  ALA762  ILE779  LEU786  VAL792 
 PHE793  MET794  SER795  GLU796  ALA797  LYS798  CYS799  TRP800  GLU811  SER814 

> <Gold.Protein.RotatedAtoms>
  151.0365  134.9577  159.8138 H   0  0  0  0  0  0  0  0  0  0  0  0  # atno 6907 bound_to 6896
  152.5356  134.2713  159.8982 H   0  0  0  0  0  0  0  0  0  0  0  0  # atno 6908 bound_to 6896
  151.2724  133.4206  159.2656 H   0  0  0  0  0  0  0  0  0  0  0  0  # atno 6909 bound_to 6896
  144.9301  139.5058  143.5622 H   0  0  0  0  0  0  0  0  0  0  0  0  # atno 7974 bound_to 7965
  154.4047  140.1292  156.4530 H   0  0  0  0  0  0  0  0  0  0  0  0  # atno 8008 bound_to 7997
  155.7347  140.3491  155.5056 H   0  0  0  0  0  0  0  0  0  0  0  0  # atno 8009 bound_to 7997
  155.9094  140.1033  157.1280 H   0  0  0  0  0  0  0  0  0  0  0  0  # atno 8010 bound_to 7997
  139.6079  144.0874  152.1812 H   0  0  0  0  0  0  0  0  0  0  0  0  # atno 10167 bound_to 10162
  157.6917  131.0599  150.4593 H   0  0  0  0  0  0  0  0  0  0  0  0  # atno 10718 bound_to 10713
  153.3969  135.7003  153.6454 H   0  0  0  0  0  0  0  0  0  0  0  0  # atno 10763 bound_to 10752
  153.5004  135.3653  155.2537 H   0  0  0  0  0  0  0  0  0  0  0  0  # atno 10764 bound_to 10752
  154.8707  135.4110  154.3296 H   0  0  0  0  0  0  0  0  0  0  0  0  # atno 10765 bound_to 10752
  141.0740  133.9332  157.2427 H   0  0  0  0  0  0  0  0  0  0  0  0  # atno 11005 bound_to 11000
  146.3243  139.8244  142.8920 LP  0  0  0  0  0  0  0  0  0  0  0  0  # atno 17320 bound_to 7965
  145.3156  141.0231  143.3529 LP  0  0  0  0  0  0  0  0  0  0  0  0  # atno 17321 bound_to 7965
  140.0486  144.5951  150.7354 LP  0  0  0  0  0  0  0  0  0  0  0  0  # atno 17342 bound_to 10162
  140.7298  143.2677  151.3991 LP  0  0  0  0  0  0  0  0  0  0  0  0  # atno 17343 bound_to 10162
  156.4938  130.4101  149.6391 LP  0  0  0  0  0  0  0  0  0  0  0  0  # atno 17370 bound_to 10713
  156.3392  130.7373  151.2315 LP  0  0  0  0  0  0  0  0  0  0  0  0  # atno 17371 bound_to 10713
  139.9552  135.0167  156.9109 LP  0  0  0  0  0  0  0  0  0  0  0  0  # atno 17394 bound_to 11000
  140.5613  134.0532  155.7400 LP  0  0  0  0  0  0  0  0  0  0  0  0  # atno 17395 bound_to 11000

$$$$
