AV-unprocessed.smi:910|AV-procd|sdf|4126|dock4
  -GOLD-   22720 2 23D 1   1.00000     0.00000
 Structure written by MMmdl.
 46 47  0  0  0  0  0  0  0  0  1 V2000
  144.7781  135.2646  151.8584 C   0  0  0  0  0  0  0  0  0  0  0  0
  145.9275  134.3452  152.2075 C   0  0  0  0  0  0  0  0  0  0  0  0
  146.7441  134.5808  153.2780 N   0  0  0  0  0  0  0  0  0  0  0  0
  147.7005  133.5690  153.3267 C   0  0  0  0  0  0  0  0  0  0  0  0
  148.6965  133.3449  154.1274 N   0  0  0  0  0  0  0  0  0  0  0  0
  148.8916  134.2504  155.1537 C   0  0  0  0  0  0  0  0  0  0  0  0
  148.7736  134.0222  156.3612 O   0  0  0  0  0  0  0  0  0  0  0  0
  149.1551  135.4769  154.6752 N   0  0  0  0  0  0  0  0  0  0  0  0
  149.3176  136.6800  155.4856 C   0  0  0  0  0  0  0  0  0  0  0  0
  149.1812  137.9510  154.6357 C   0  0  0  0  0  0  0  0  0  0  0  0
  149.2561  139.0892  155.4791 O   0  0  0  0  0  0  0  0  0  0  0  0
  150.0096  140.1714  154.9481 C   0  0  2  0  0  0  0  0  0  0  0  0
  151.4023  140.1820  155.6087 C   0  0  0  0  0  0  0  0  0  0  0  0
  151.3107  140.4589  157.1195 C   0  0  0  0  0  0  0  0  0  0  0  0
  150.5445  141.7598  157.4059 C   0  0  0  0  0  0  0  0  0  0  0  0
  149.1543  141.7483  156.7499 C   0  0  0  0  0  0  0  0  0  0  0  0
  149.2518  141.4862  155.2339 C   0  0  2  0  0  0  0  0  0  0  0  0
  147.8770  141.5162  154.5486 C   0  0  0  0  0  0  0  0  0  0  0  0
  147.4273  132.7311  152.2754 O   0  0  0  0  0  0  0  0  0  0  0  0
  146.3461  133.2307  151.6132 C   0  0  0  0  0  0  0  0  0  0  0  0
  145.8316  132.4919  150.3986 C   0  0  0  0  0  0  0  0  0  0  0  0
  143.8381  134.7128  151.8699 H   0  0  0  0  0  0  0  0  0  0  0  0
  144.9204  135.6852  150.8627 H   0  0  0  0  0  0  0  0  0  0  0  0
  144.7037  136.0859  152.5712 H   0  0  0  0  0  0  0  0  0  0  0  0
  146.6430  135.3739  153.8950 H   0  0  0  0  0  0  0  0  0  0  0  0
  149.2174  135.5895  153.6737 H   0  0  0  0  0  0  0  0  0  0  0  0
  148.6040  136.6968  156.3110 H   0  0  0  0  0  0  0  0  0  0  0  0
  150.3084  136.6500  155.9391 H   0  0  0  0  0  0  0  0  0  0  0  0
  149.9775  137.9773  153.8909 H   0  0  0  0  0  0  0  0  0  0  0  0
  148.2310  137.9504  154.0996 H   0  0  0  0  0  0  0  0  0  0  0  0
  150.1188  140.0652  153.8670 H   0  0  0  0  0  0  0  0  0  0  0  0
  151.9135  139.2347  155.4358 H   0  0  0  0  0  0  0  0  0  0  0  0
  152.0182  140.9497  155.1387 H   0  0  0  0  0  0  0  0  0  0  0  0
  150.8111  139.6254  157.6151 H   0  0  0  0  0  0  0  0  0  0  0  0
  152.3116  140.5157  157.5479 H   0  0  0  0  0  0  0  0  0  0  0  0
  150.4460  141.9037  158.4823 H   0  0  0  0  0  0  0  0  0  0  0  0
  151.1167  142.6095  157.0317 H   0  0  0  0  0  0  0  0  0  0  0  0
  148.5340  140.9853  157.2219 H   0  0  0  0  0  0  0  0  0  0  0  0
  148.6602  142.7030  156.9317 H   0  0  0  0  0  0  0  0  0  0  0  0
  149.8354  142.3006  154.8018 H   0  0  0  0  0  0  0  0  0  0  0  0
  147.2418  140.6991  154.8887 H   0  0  0  0  0  0  0  0  0  0  0  0
  147.9782  141.4240  153.4671 H   0  0  0  0  0  0  0  0  0  0  0  0
  147.3551  142.4515  154.7525 H   0  0  0  0  0  0  0  0  0  0  0  0
  144.9463  131.9113  150.6584 H   0  0  0  0  0  0  0  0  0  0  0  0
  146.5918  131.8113  150.0149 H   0  0  0  0  0  0  0  0  0  0  0  0
  145.5665  133.1946  149.6087 H   0  0  0  0  0  0  0  0  0  0  0  0
  1 22  1  0  0  0  0
  1 23  1  0  0  0  0
  1 24  1  0  0  0  0
  1  2  1  0  0  0  0
  2  3  1  0  0  0  0
  2 20  2  0  0  0  0
  3 25  1  0  0  0  0
  3  4  1  0  0  0  0
  4 19  1  0  0  0  0
  4  5  2  0  0  0  0
  5  6  1  0  0  0  0
  6  8  1  0  0  0  0
  6  7  2  0  0  0  0
  8  9  1  0  0  0  0
  8 26  1  0  0  0  0
  9 10  1  0  0  0  0
  9 27  1  0  0  0  0
  9 28  1  0  0  0  0
 10 11  1  0  0  0  0
 10 29  1  0  0  0  0
 10 30  1  0  0  0  0
 11 12  1  0  0  0  0
 12 17  1  0  0  0  0
 12 13  1  0  0  0  0
 12 31  1  0  0  0  0
 13 14  1  0  0  0  0
 13 32  1  0  0  0  0
 13 33  1  0  0  0  0
 14 15  1  0  0  0  0
 14 34  1  0  0  0  0
 14 35  1  0  0  0  0
 15 16  1  0  0  0  0
 15 36  1  0  0  0  0
 15 37  1  0  0  0  0
 16 17  1  0  0  0  0
 16 38  1  0  0  0  0
 16 39  1  0  0  0  0
 17 18  1  0  0  0  0
 17 40  1  0  0  0  0
 18 41  1  0  0  0  0
 18 42  1  0  0  0  0
 18 43  1  0  0  0  0
 19 20  1  0  0  0  0
 20 21  1  0  0  0  0
 21 44  1  0  0  0  0
 21 45  1  0  0  0  0
 21 46  1  0  0  0  0
M  END
> <s_m_source_file>
AV-unprocessed.smi

> <i_m_source_file_index>
910

> <i_lp_mmshare_version>
43012

> <i_f3d_flags>
0

> <s_epik_input>
W0NIM11jMW5jKG9jMVtDSDNdKVtOSF1DKD1PKVtOSF1bQ0gyXVtDSDJdT1tDQEBIXTJbQ0gyXVtDSDJdW0NIMl1bQ0gyXVtDQEhdMltDSDNd

> <s_epik_cmdline>
J2VwaWtfcHl0aG9uJywgJy1waCcsICc3LjAnLCAnLXRuJywgJzgnLCAnLW1hJywgJzIwMCcsICctbWV0YWxfYmluZGluZycsICctaW1hZScsICc8aW5maWxlLm1hZT4nLCAnLW9tYWUnLCAnPG91dGZpbGUubWFlPic=

> <r_lp_tautomer_probability>
0.107061

> <r_epik_Ionization_Penalty>
0.727192

> <r_epik_Ionization_Penalty_Charging>
0.726719

> <r_epik_Ionization_Penalty_Neutral>
0.000473387

> <r_epik_State_Penalty>
2.53712

> <r_epik_Charging_Adjusted_Penalty>
3.26383

> <i_epik_Tot_Q>
0

> <i_epik_Tot_abs_Q>
0

> <r_epik_Metal_State_Penalty>
3.71015

> <b_epik_Metal_Only>
0

> <s_lp_Force_Field>
OPLS_2005

> <r_lp_Energy>
29.7751

> <b_lp_Chiralities_Consistent>
1

> <s_lp_Variant>
AV-unprocessed.smi:910-11

> <Gold.Version>
5.8.1

> <Gold.Id.Protein>
6NUR|6NUR_protein|mol2

> <Gold.PLP.Fitness>
33.7899

> <Gold.PLP.PLP>
-33.9228

> <Gold.PLP.part.hbond>
-2.0000

> <Gold.PLP.part.metal>
0.0000

> <Gold.PLP.part.buried>
-2.6831

> <Gold.PLP.part.nonpolar>
-30.0950

> <Gold.PLP.part.repulsive>
0.8613

> <Gold.PLP.ligand.clash>
0.0000

> <Gold.PLP.ligand.torsion>
1.6091

> <Gold.PLP.Chemscore.Hbond>
1.0000

> <Gold.PLP.Chemscore.CHOScore>
0.0000

> <Gold.PLP.Chemscore.Metal>
0.0000

> <Gold.Chemscore.Hbonds>
donor molecule, donor type, donor heavy atom, donor atom, acceptor molecule, acceptor atom, score
      L1  H     8    26       P1  7948  1.00

> <Gold.PLP.Chemscore.Internal.Correction>
0.0853

> <Gold.Rescore>
     Score         DG    S(hbond)    S(metal)    S(lipo)     H(rot)  DE(clash)    DE(int)     intcor
     11.14     -12.87       0.95        0.00      72.36       1.66       0.03       1.70       ----

> <Gold.Chemscore.Fitness>
11.1381

> <Gold.Chemscore.DG>
-12.8665

> <Gold.Chemscore.ZeroCoef>
-5.4800

> <Gold.Chemscore.Hbond>
0.9474

> <Gold.Chemscore.Metal>
0.0000

> <Gold.Chemscore.Lipo>
72.3583

> <Gold.Chemscore.Internal_Hbond>
0.0000

> <Gold.Chemscore.DEClash>
0.0331

> <Gold.Chemscore.DEInternal>
1.6953

> <Gold.Chemscore.Rot>
1.6576

> <Gold.Chemscore.Internal.Correction>
   9.000000E+99

> <Gold.Chemscore.Hbonds>
donor molecule, donor type, donor heavy atom, donor atom, acceptor molecule, acceptor atom, score
      L1  H     8    26       P1  7948  0.60

> <Gold.Chemscore.Hbond.Weighted>
-3.1642

> <Gold.Chemscore.Metal.Weighted>
-0.0000

> <Gold.Chemscore.Lipo.Weighted>
-8.4659

> <Gold.Chemscore.Internal_Hbond.Weighted>
0.0000

> <Gold.Chemscore.DEClash.Weighted>
0.0331

> <Gold.Chemscore.DEInternal.Weighted>
1.6953

> <Gold.Chemscore.Rot.Weighted>
4.2436

> <Gold.Chemscore.Internal.Correction.Weighted>
   9.000000E+99

> <Gold.Protein.RotatedTorsions>
[ 6907 6896 6895 6894 ] final  113.97 input  -60.11 | X-H torsion
[ 7974 7965 7964 7962 ] final  -89.71 input  175.53 | X-H torsion
[ 8008 7997 7996 7995 ] final  115.71 input   59.86 | X-H torsion
[ 10167 10162 10161 10158 ] final   70.55 input  -65.29 | X-H torsion
[ 10718 10713 10712 10709 ] final   38.11 input   66.30 | X-H torsion
[ 10763 10752 10751 10750 ] final  -27.78 input  -60.55 | X-H torsion
[ 11005 11000 10999 10996 ] final -129.23 input  -57.11 | X-H torsion

> <Gold.Protein.ActiveResidues>
 VAL166  LYS551  ARG553  GLY616  TRP617  ASP618  TYR619  PRO620  LYS621  CYS622 
 ASP623  PHE694  ASN695  SER759  ASP760  ASP761  ALA762  ILE779  LEU786  VAL792 
 PHE793  MET794  SER795  GLU796  ALA797  LYS798  CYS799  TRP800  GLU811  SER814 

> <Gold.Protein.RotatedAtoms>
  152.4830  133.8302  159.7098 H   0  0  0  0  0  0  0  0  0  0  0  0  # atno 6907 bound_to 6896
  150.8894  133.7254  159.2915 H   0  0  0  0  0  0  0  0  0  0  0  0  # atno 6908 bound_to 6896
  151.4732  135.1051  159.9809 H   0  0  0  0  0  0  0  0  0  0  0  0  # atno 6909 bound_to 6896
  145.4361  140.9557  143.2101 H   0  0  0  0  0  0  0  0  0  0  0  0  # atno 7974 bound_to 7965
  156.2397  140.2933  156.0411 H   0  0  0  0  0  0  0  0  0  0  0  0  # atno 8008 bound_to 7997
  155.1986  140.0409  157.2930 H   0  0  0  0  0  0  0  0  0  0  0  0  # atno 8009 bound_to 7997
  154.6145  140.2460  155.7633 H   0  0  0  0  0  0  0  0  0  0  0  0  # atno 8010 bound_to 7997
  140.0557  144.5275  150.7331 H   0  0  0  0  0  0  0  0  0  0  0  0  # atno 10167 bound_to 10162
  157.3549  130.7618  149.7005 H   0  0  0  0  0  0  0  0  0  0  0  0  # atno 10718 bound_to 10713
  153.7377  135.6934  153.4974 H   0  0  0  0  0  0  0  0  0  0  0  0  # atno 10763 bound_to 10752
  153.2091  135.4409  155.0357 H   0  0  0  0  0  0  0  0  0  0  0  0  # atno 10764 bound_to 10752
  154.8231  135.3432  154.6904 H   0  0  0  0  0  0  0  0  0  0  0  0  # atno 10765 bound_to 10752
  140.9449  134.1143  157.4116 H   0  0  0  0  0  0  0  0  0  0  0  0  # atno 11005 bound_to 11000
  144.8151  139.5891  143.7012 LP  0  0  0  0  0  0  0  0  0  0  0  0  # atno 17320 bound_to 7965
  146.2581  139.6348  142.9381 LP  0  0  0  0  0  0  0  0  0  0  0  0  # atno 17321 bound_to 7965
  140.7196  143.2576  151.4323 LP  0  0  0  0  0  0  0  0  0  0  0  0  # atno 17342 bound_to 10162
  139.5925  144.1468  152.2105 LP  0  0  0  0  0  0  0  0  0  0  0  0  # atno 17343 bound_to 10162
  155.9727  130.4130  150.4060 LP  0  0  0  0  0  0  0  0  0  0  0  0  # atno 17370 bound_to 10713
  157.2128  131.0464  151.2589 LP  0  0  0  0  0  0  0  0  0  0  0  0  # atno 17371 bound_to 10713
  139.8830  135.0048  156.6274 LP  0  0  0  0  0  0  0  0  0  0  0  0  # atno 17394 bound_to 11000
  140.7683  133.8760  155.8471 LP  0  0  0  0  0  0  0  0  0  0  0  0  # atno 17395 bound_to 11000

$$$$
