AV-unprocessed.smi:2291|AV-procd|sdf|9212|dock10
  -GOLD-   2272012433D 1   1.00000     0.00000
 Structure written by MMmdl.
 44 46  0  0  0  0  0  0  0  0  1 V2000
  142.8148  136.3713  154.2701 O   0  0  0  0  0  0  0  0  0  0  0  0
  142.9837  137.4865  153.7754 C   0  0  0  0  0  0  0  0  0  0  0  0
  142.0075  138.3691  153.5002 N   0  0  0  0  0  0  0  0  0  0  0  0
  140.6075  138.2142  153.6826 C   0  0  0  0  0  0  0  0  0  0  0  0
  140.1592  136.8761  153.7614 C   0  0  0  0  0  0  0  0  0  0  0  0
  138.7879  136.6140  153.9467 C   0  0  0  0  0  0  0  0  0  0  0  0
  137.8997  137.6998  154.0467 C   0  0  0  0  0  0  0  0  0  0  0  0
  136.2093  137.4419  154.2756 Cl  0  0  0  0  0  0  0  0  0  0  0  0
  138.4264  139.0015  153.9556 C   0  0  0  0  0  0  0  0  0  0  0  0
  139.7407  139.2537  153.7784 N   0  0  0  0  0  0  0  0  0  0  0  0
  144.1886  137.9754  153.4327 N   0  0  0  0  0  0  0  0  0  0  0  0
  145.4881  137.2964  153.5347 C   0  0  0  0  0  0  0  0  0  0  0  0
  145.4694  136.0155  152.6560 C   0  0  0  0  0  0  0  0  0  0  0  0
  145.8214  134.9418  153.1471 O   0  0  0  0  0  0  0  0  0  0  0  0
  145.1013  136.1246  151.3691 N   0  0  0  0  0  0  0  0  0  0  0  0
  145.0592  135.0277  150.4119 C   0  0  0  0  0  0  0  0  0  0  0  0
  144.2742  133.8120  150.8663 C   0  0  0  0  0  0  0  0  0  0  0  0
  144.9560  132.4840  151.1037 C   0  0  0  0  0  0  0  0  0  0  0  0
  144.0380  132.6592  149.9186 C   0  0  0  0  0  0  0  0  0  0  0  0
  146.5928  138.2682  153.0209 C   0  0  0  0  0  0  0  0  0  0  0  0
  147.5631  138.5251  154.1791 C   0  0  0  0  0  0  0  0  0  0  0  0
  147.3723  137.3437  155.1196 C   0  0  0  0  0  0  0  0  0  0  0  0
  145.8764  137.0623  155.0260 C   0  0  0  0  0  0  0  0  0  0  0  0
  142.2977  139.2461  153.0941 H   0  0  0  0  0  0  0  0  0  0  0  0
  140.8563  136.0542  153.6840 H   0  0  0  0  0  0  0  0  0  0  0  0
  138.4270  135.5982  154.0113 H   0  0  0  0  0  0  0  0  0  0  0  0
  137.7786  139.8627  154.0269 H   0  0  0  0  0  0  0  0  0  0  0  0
  144.2118  138.9017  153.0329 H   0  0  0  0  0  0  0  0  0  0  0  0
  144.8452  137.0396  151.0269 H   0  0  0  0  0  0  0  0  0  0  0  0
  144.5987  135.4072  149.4996 H   0  0  0  0  0  0  0  0  0  0  0  0
  146.0740  134.7315  150.1404 H   0  0  0  0  0  0  0  0  0  0  0  0
  143.4407  134.0508  151.5244 H   0  0  0  0  0  0  0  0  0  0  0  0
  146.0243  132.4188  150.9062 H   0  0  0  0  0  0  0  0  0  0  0  0
  144.5988  131.8806  151.9356 H   0  0  0  0  0  0  0  0  0  0  0  0
  143.0680  132.1677  149.9571 H   0  0  0  0  0  0  0  0  0  0  0  0
  144.4963  132.7103  148.9327 H   0  0  0  0  0  0  0  0  0  0  0  0
  147.1589  137.8450  152.1893 H   0  0  0  0  0  0  0  0  0  0  0  0
  146.1857  139.2117  152.6539 H   0  0  0  0  0  0  0  0  0  0  0  0
  148.5959  138.6322  153.8458 H   0  0  0  0  0  0  0  0  0  0  0  0
  147.2843  139.4467  154.6919 H   0  0  0  0  0  0  0  0  0  0  0  0
  147.9378  136.4825  154.7606 H   0  0  0  0  0  0  0  0  0  0  0  0
  147.6968  137.5605  156.1377 H   0  0  0  0  0  0  0  0  0  0  0  0
  145.3591  137.7830  155.6619 H   0  0  0  0  0  0  0  0  0  0  0  0
  145.6208  136.0821  155.4278 H   0  0  0  0  0  0  0  0  0  0  0  0
  1  2  2  0  0  0  0
  2  3  1  0  0  0  0
  2 11  1  0  0  0  0
  3  4  1  0  0  0  0
  3 24  1  0  0  0  0
  4 10  1  0  0  0  0
  4  5  2  0  0  0  0
  5  6  1  0  0  0  0
  5 25  1  0  0  0  0
  6  7  2  0  0  0  0
  6 26  1  0  0  0  0
  7  8  1  0  0  0  0
  7  9  1  0  0  0  0
  9 10  2  0  0  0  0
  9 27  1  0  0  0  0
 11 12  1  0  0  0  0
 11 28  1  0  0  0  0
 12 23  1  0  0  0  0
 12 13  1  0  0  0  0
 12 20  1  0  0  0  0
 13 14  2  0  0  0  0
 13 15  1  0  0  0  0
 15 16  1  0  0  0  0
 15 29  1  0  0  0  0
 16 17  1  0  0  0  0
 16 30  1  0  0  0  0
 16 31  1  0  0  0  0
 17 19  1  0  0  0  0
 17 18  1  0  0  0  0
 17 32  1  0  0  0  0
 18 19  1  0  0  0  0
 18 33  1  0  0  0  0
 18 34  1  0  0  0  0
 19 35  1  0  0  0  0
 19 36  1  0  0  0  0
 20 21  1  0  0  0  0
 20 37  1  0  0  0  0
 20 38  1  0  0  0  0
 21 22  1  0  0  0  0
 21 39  1  0  0  0  0
 21 40  1  0  0  0  0
 22 23  1  0  0  0  0
 22 41  1  0  0  0  0
 22 42  1  0  0  0  0
 23 43  1  0  0  0  0
 23 44  1  0  0  0  0
M  END
> <s_m_source_file>
AV-unprocessed.smi

> <i_m_source_file_index>
2291

> <i_lp_mmshare_version>
43012

> <i_f3d_flags>
0

> <s_epik_input>
bjFbY0hdYyhDbClbY0hdW2NIXWMxW05IXUMoPU8pW05IXUMyKFtDSDJdW0NIMl1bQ0gyXVtDSDJdMilDKD1PKVtOSF1bQ0gyXVtDSF0zW0NIMl1bQ0gyXTM=

> <s_epik_cmdline>
J2VwaWtfcHl0aG9uJywgJy1waCcsICc3LjAnLCAnLXRuJywgJzgnLCAnLW1hJywgJzIwMCcsICctbWV0YWxfYmluZGluZycsICctaW1hZScsICc8aW5maWxlLm1hZT4nLCAnLW9tYWUnLCAnPG91dGZpbGUubWFlPic=

> <r_lp_tautomer_probability>
1

> <r_epik_Ionization_Penalty>
3.27384e-05

> <r_epik_Ionization_Penalty_Charging>
0

> <r_epik_Ionization_Penalty_Neutral>
3.27384e-05

> <r_epik_State_Penalty>
-0

> <r_epik_Charging_Adjusted_Penalty>
0

> <i_epik_Tot_Q>
0

> <i_epik_Tot_abs_Q>
0

> <r_epik_Metal_State_Penalty>
-0

> <b_epik_Metal_Only>
0

> <s_lp_Force_Field>
OPLS_2005

> <r_lp_Energy>
31.8647

> <b_lp_Chiralities_Consistent>
1

> <s_lp_Variant>
AV-unprocessed.smi:2291-1

> <Gold.Version>
5.8.1

> <Gold.Id.Protein>
6NUR|6NUR_protein|mol2

> <Gold.PLP.Fitness>
46.3879

> <Gold.PLP.PLP>
-39.0837

> <Gold.PLP.part.hbond>
-3.5143

> <Gold.PLP.part.metal>
0.0000

> <Gold.PLP.part.buried>
-3.1817

> <Gold.PLP.part.nonpolar>
-34.5572

> <Gold.PLP.part.repulsive>
0.9671

> <Gold.PLP.ligand.clash>
0.0000

> <Gold.PLP.ligand.torsion>
0.6590

> <Gold.PLP.Chemscore.Hbond>
2.6640

> <Gold.PLP.Chemscore.CHOScore>
0.0000

> <Gold.PLP.Chemscore.Metal>
0.0000

> <Gold.Chemscore.Hbonds>
donor molecule, donor type, donor heavy atom, donor atom, acceptor molecule, acceptor atom, score
      L1  H     3    24       P1 10175  1.00
      L1  H    11    28       P1 10175  1.00
      L1  H    15    29       P1 10171  0.59

> <Gold.PLP.Chemscore.Internal.Correction>
0.6302

> <Gold.Rescore>
     Score         DG    S(hbond)    S(metal)    S(lipo)     H(rot)  DE(clash)    DE(int)     intcor
     17.91     -21.39       2.85        0.00      91.90       1.71       1.52       1.96       ----

> <Gold.Chemscore.Fitness>
17.9095

> <Gold.Chemscore.DG>
-21.3864

> <Gold.Chemscore.ZeroCoef>
-5.4800

> <Gold.Chemscore.Hbond>
2.8507

> <Gold.Chemscore.Metal>
0.0000

> <Gold.Chemscore.Lipo>
91.8983

> <Gold.Chemscore.Internal_Hbond>
0.0000

> <Gold.Chemscore.DEClash>
1.5214

> <Gold.Chemscore.DEInternal>
1.9555

> <Gold.Chemscore.Rot>
1.7059

> <Gold.Chemscore.Internal.Correction>
   9.000000E+99

> <Gold.Chemscore.Hbonds>
donor molecule, donor type, donor heavy atom, donor atom, acceptor molecule, acceptor atom, score
      L1  H     3    24       P1 10175  0.96
      L1  H    11    28       P1 10175  0.99
      L1  H    15    29       P1 10171  0.58

> <Gold.Chemscore.Hbond.Weighted>
-9.5214

> <Gold.Chemscore.Metal.Weighted>
-0.0000

> <Gold.Chemscore.Lipo.Weighted>
-10.7521

> <Gold.Chemscore.Internal_Hbond.Weighted>
0.0000

> <Gold.Chemscore.DEClash.Weighted>
1.5214

> <Gold.Chemscore.DEInternal.Weighted>
1.9555

> <Gold.Chemscore.Rot.Weighted>
4.3671

> <Gold.Chemscore.Internal.Correction.Weighted>
   9.000000E+99

> <Gold.Protein.RotatedTorsions>
[ 6907 6896 6895 6894 ] final  -33.03 input  -60.11 | X-H torsion
[ 7974 7965 7964 7962 ] final  -41.52 input  175.53 | X-H torsion
[ 8008 7997 7996 7995 ] final -147.42 input   59.86 | X-H torsion
[ 10167 10162 10161 10158 ] final  -95.48 input  -65.29 | X-H torsion
[ 10718 10713 10712 10709 ] final  -66.15 input   66.30 | X-H torsion
[ 10763 10752 10751 10750 ] final   30.63 input  -60.55 | X-H torsion
[ 11005 11000 10999 10996 ] final   90.87 input  -57.11 | X-H torsion

> <Gold.Protein.ActiveResidues>
 VAL166  LYS551  ARG553  GLY616  TRP617  ASP618  TYR619  PRO620  LYS621  CYS622 
 ASP623  PHE694  ASN695  SER759  ASP760  ASP761  ALA762  ILE779  LEU786  VAL792 
 PHE793  MET794  SER795  GLU796  ALA797  LYS798  CYS799  TRP800  GLU811  SER814 

> <Gold.Protein.RotatedAtoms>
  151.0709  134.9798  159.8307 H   0  0  0  0  0  0  0  0  0  0  0  0  # atno 6907 bound_to 6896
  152.5408  134.2300  159.8831 H   0  0  0  0  0  0  0  0  0  0  0  0  # atno 6908 bound_to 6896
  151.2325  133.4399  159.2638 H   0  0  0  0  0  0  0  0  0  0  0  0  # atno 6909 bound_to 6896
  146.0203  140.6858  142.9181 H   0  0  0  0  0  0  0  0  0  0  0  0  # atno 7974 bound_to 7965
  155.5753  140.0638  157.2796 H   0  0  0  0  0  0  0  0  0  0  0  0  # atno 8008 bound_to 7997
  154.4349  140.1861  156.0967 H   0  0  0  0  0  0  0  0  0  0  0  0  # atno 8009 bound_to 7997
  156.0346  140.3302  155.7180 H   0  0  0  0  0  0  0  0  0  0  0  0  # atno 8010 bound_to 7997
  140.3037  143.3146  152.0221 H   0  0  0  0  0  0  0  0  0  0  0  0  # atno 10167 bound_to 10162
  156.0629  130.4258  150.1667 H   0  0  0  0  0  0  0  0  0  0  0  0  # atno 10718 bound_to 10713
  153.0361  135.6459  154.1074 H   0  0  0  0  0  0  0  0  0  0  0  0  # atno 10763 bound_to 10752
  154.0789  135.2875  155.3296 H   0  0  0  0  0  0  0  0  0  0  0  0  # atno 10764 bound_to 10752
  154.6544  135.5414  153.8004 H   0  0  0  0  0  0  0  0  0  0  0  0  # atno 10765 bound_to 10752
  139.8848  134.8640  156.3346 H   0  0  0  0  0  0  0  0  0  0  0  0  # atno 11005 bound_to 11000
  144.6987  140.3554  143.7174 LP  0  0  0  0  0  0  0  0  0  0  0  0  # atno 17320 bound_to 7965
  145.7203  139.1708  143.2488 LP  0  0  0  0  0  0  0  0  0  0  0  0  # atno 17321 bound_to 7965
  139.4909  144.6436  151.6824 LP  0  0  0  0  0  0  0  0  0  0  0  0  # atno 17342 bound_to 10162
  140.5628  144.0239  150.6178 LP  0  0  0  0  0  0  0  0  0  0  0  0  # atno 17343 bound_to 10162
  156.9732  130.9841  151.3454 LP  0  0  0  0  0  0  0  0  0  0  0  0  # atno 17370 bound_to 10713
  157.5650  130.8271  149.8315 LP  0  0  0  0  0  0  0  0  0  0  0  0  # atno 17371 bound_to 10713
  140.9700  133.7333  156.0521 LP  0  0  0  0  0  0  0  0  0  0  0  0  # atno 17394 bound_to 11000
  140.7883  134.3647  157.5471 LP  0  0  0  0  0  0  0  0  0  0  0  0  # atno 17395 bound_to 11000

$$$$
