AV-unprocessed.smi:447|AV-procd|sdf|2598|dock1
  -GOLD-   2262022593D 1   1.00000     0.00000
 Structure written by MMmdl.
 45 47  0  0  0  0  0  0  0  0  1 V2000
  149.9161  134.2380  154.3320 C   0  0  0  0  0  0  0  0  0  0  0  0
  150.3010  135.4818  155.1248 C   0  0  0  0  0  0  0  0  0  0  0  0
  150.1110  135.5221  156.3401 O   0  0  0  0  0  0  0  0  0  0  0  0
  150.8309  136.4935  154.4216 N   0  0  0  0  0  0  0  0  0  0  0  0
  151.2168  137.7945  154.9644 C   0  0  1  0  0  0  0  0  0  0  0  0
  152.5650  138.2579  154.3916 C   0  0  0  0  0  0  0  0  0  0  0  0
  150.1096  138.7701  154.6559 C   0  0  0  0  0  0  0  0  0  0  0  0
  149.0566  138.4287  153.9064 N   0  0  0  0  0  0  0  0  0  0  0  0
  148.3133  139.5904  153.8665 C   0  0  0  0  0  0  0  0  0  0  0  0
  147.0807  139.8714  153.2348 C   0  0  0  0  0  0  0  0  0  0  0  0
  146.5034  141.1541  153.3357 C   0  0  0  0  0  0  0  0  0  0  0  0
  147.1494  142.1716  154.0671 C   0  0  0  0  0  0  0  0  0  0  0  0
  148.3789  141.9120  154.7027 C   0  0  0  0  0  0  0  0  0  0  0  0
  148.9504  140.6294  154.5994 C   0  0  0  0  0  0  0  0  0  0  0  0
  150.1192  140.0580  155.0932 N   0  0  0  0  0  0  0  0  0  0  0  0
  151.1105  140.7488  155.9090 C   0  0  0  0  0  0  0  0  0  0  0  0
  150.7836  140.6757  157.4147 C   0  0  2  0  0  0  0  0  0  0  0  0
  149.3806  140.7499  157.5664 O   0  0  0  0  0  0  0  0  0  0  0  0
  151.5137  141.7343  158.2312 C   0  0  0  0  0  0  0  0  0  0  0  0
  151.3506  143.1002  157.9135 C   0  0  0  0  0  0  0  0  0  0  0  0
  152.0136  144.0895  158.6649 C   0  0  0  0  0  0  0  0  0  0  0  0
  152.8472  143.7191  159.7372 C   0  0  0  0  0  0  0  0  0  0  0  0
  153.0115  142.3591  160.0620 C   0  0  0  0  0  0  0  0  0  0  0  0
  152.3450  141.3695  159.3138 C   0  0  0  0  0  0  0  0  0  0  0  0
  150.6973  133.9767  153.6173 H   0  0  0  0  0  0  0  0  0  0  0  0
  148.9899  134.4137  153.7840 H   0  0  0  0  0  0  0  0  0  0  0  0
  149.7646  133.3875  154.9974 H   0  0  0  0  0  0  0  0  0  0  0  0
  150.9521  136.3691  153.4267 H   0  0  0  0  0  0  0  0  0  0  0  0
  151.3138  137.6820  156.0424 H   0  0  0  0  0  0  0  0  0  0  0  0
  152.8466  139.2290  154.7995 H   0  0  0  0  0  0  0  0  0  0  0  0
  152.5247  138.3523  153.3060 H   0  0  0  0  0  0  0  0  0  0  0  0
  153.3621  137.5555  154.6363 H   0  0  0  0  0  0  0  0  0  0  0  0
  146.5784  139.0989  152.6717 H   0  0  0  0  0  0  0  0  0  0  0  0
  145.5608  141.3584  152.8492 H   0  0  0  0  0  0  0  0  0  0  0  0
  146.7011  143.1516  154.1398 H   0  0  0  0  0  0  0  0  0  0  0  0
  148.8764  142.6895  155.2631 H   0  0  0  0  0  0  0  0  0  0  0  0
  152.1108  140.3739  155.6967 H   0  0  0  0  0  0  0  0  0  0  0  0
  151.1195  141.7921  155.5904 H   0  0  0  0  0  0  0  0  0  0  0  0
  151.0750  139.6946  157.7920 H   0  0  0  0  0  0  0  0  0  0  0  0
  148.9770  140.3573  156.8072 H   0  0  0  0  0  0  0  0  0  0  0  0
  150.7095  143.3937  157.0950 H   0  0  0  0  0  0  0  0  0  0  0  0
  151.8811  145.1330  158.4196 H   0  0  0  0  0  0  0  0  0  0  0  0
  153.3539  144.4778  160.3153 H   0  0  0  0  0  0  0  0  0  0  0  0
  153.6434  142.0746  160.8903 H   0  0  0  0  0  0  0  0  0  0  0  0
  152.4715  140.3300  159.5791 H   0  0  0  0  0  0  0  0  0  0  0  0
  1  2  1  0  0  0  0
  1 25  1  0  0  0  0
  1 26  1  0  0  0  0
  1 27  1  0  0  0  0
  2  3  2  0  0  0  0
  2  4  1  0  0  0  0
  4  5  1  0  0  0  0
  4 28  1  0  0  0  0
  5  6  1  0  0  0  0
  5  7  1  0  0  0  0
  5 29  1  0  0  0  0
  6 30  1  0  0  0  0
  6 31  1  0  0  0  0
  6 32  1  0  0  0  0
  7 15  1  0  0  0  0
  7  8  2  0  0  0  0
  8  9  1  0  0  0  0
  9 14  2  0  0  0  0
  9 10  1  0  0  0  0
 10 11  2  0  0  0  0
 10 33  1  0  0  0  0
 11 12  1  0  0  0  0
 11 34  1  0  0  0  0
 12 13  2  0  0  0  0
 12 35  1  0  0  0  0
 13 14  1  0  0  0  0
 13 36  1  0  0  0  0
 14 15  1  0  0  0  0
 15 16  1  0  0  0  0
 16 17  1  0  0  0  0
 16 37  1  0  0  0  0
 16 38  1  0  0  0  0
 17 18  1  0  0  0  0
 17 19  1  0  0  0  0
 17 39  1  0  0  0  0
 18 40  1  0  0  0  0
 19 24  1  0  0  0  0
 19 20  2  0  0  0  0
 20 21  1  0  0  0  0
 20 41  1  0  0  0  0
 21 22  2  0  0  0  0
 21 42  1  0  0  0  0
 22 23  1  0  0  0  0
 22 43  1  0  0  0  0
 23 24  2  0  0  0  0
 23 44  1  0  0  0  0
 24 45  1  0  0  0  0
M  END
> <s_m_source_file>
AV-unprocessed.smi

> <i_m_source_file_index>
447

> <i_lp_mmshare_version>
43012

> <i_f3d_flags>
0

> <s_epik_input>
W0NIM11DKD1PKVtOSF1bQ0BIXShbQ0gzXSljKG4xKW4oYyhjMTIpW2NIXVtjSF1bY0hdW2NIXTIpW0NIMl1bQ0BIXShbT0hdKWMzW2NIXVtjSF1bY0hdW2NIXVtjSF0z

> <s_epik_cmdline>
J2VwaWtfcHl0aG9uJywgJy1waCcsICc3LjAnLCAnLXRuJywgJzgnLCAnLW1hJywgJzIwMCcsICctbWV0YWxfYmluZGluZycsICctaW1hZScsICc8aW5maWxlLm1hZT4nLCAnLW9tYWUnLCAnPG91dGZpbGUubWFlPic=

> <r_epik_Ionization_Penalty>
0.13301

> <r_epik_Ionization_Penalty_Charging>
0

> <r_epik_Ionization_Penalty_Neutral>
0.13301

> <r_epik_State_Penalty>
0.122384

> <r_epik_Charging_Adjusted_Penalty>
0.122384

> <i_epik_Tot_Q>
0

> <i_epik_Tot_abs_Q>
0

> <r_epik_Metal_State_Penalty>
0.0997374

> <b_epik_Metal_Only>
0

> <s_lp_Force_Field>
OPLS_2005

> <r_lp_Energy>
6.90784

> <b_lp_Chiralities_Consistent>
1

> <s_lp_Variant>
AV-unprocessed.smi:447-2

> <Gold.Version>
5.8.1

> <Gold.Id.Protein>
6NUR|6NUR_protein|mol2

> <Gold.PLP.Fitness>
51.5508

> <Gold.PLP.PLP>
-50.2808

> <Gold.PLP.part.hbond>
-1.4669

> <Gold.PLP.part.metal>
0.0000

> <Gold.PLP.part.buried>
-1.8666

> <Gold.PLP.part.nonpolar>
-48.8400

> <Gold.PLP.part.repulsive>
1.2791

> <Gold.PLP.ligand.clash>
0.0000

> <Gold.PLP.ligand.torsion>
0.9147

> <Gold.PLP.Chemscore.Hbond>
1.0000

> <Gold.PLP.Chemscore.CHOScore>
0.0000

> <Gold.PLP.Chemscore.Metal>
0.0000

> <Gold.Chemscore.Hbonds>
donor molecule, donor type, donor heavy atom, donor atom, acceptor molecule, acceptor atom, score
      L1  H     4    28       P1  7949  0.90

> <Gold.PLP.Chemscore.Internal.Correction>
0.0993

> <Gold.Rescore>
     Score         DG    S(hbond)    S(metal)    S(lipo)     H(rot)  DE(clash)    DE(int)     intcor
     14.73     -15.85       0.07        0.00     138.17       2.35       0.32       0.80       ----

> <Gold.Chemscore.Fitness>
14.7327

> <Gold.Chemscore.DG>
-15.8451

> <Gold.Chemscore.ZeroCoef>
-5.4800

> <Gold.Chemscore.Hbond>
0.0665

> <Gold.Chemscore.Metal>
0.0000

> <Gold.Chemscore.Lipo>
138.1713

> <Gold.Chemscore.Internal_Hbond>
0.0000

> <Gold.Chemscore.DEClash>
0.3154

> <Gold.Chemscore.DEInternal>
0.7970

> <Gold.Chemscore.Rot>
2.3528

> <Gold.Chemscore.Internal.Correction>
   9.000000E+99

> <Gold.Chemscore.Hbonds>
donor molecule, donor type, donor heavy atom, donor atom, acceptor molecule, acceptor atom, score
      L1  H     4    28       P1  7949  0.17

> <Gold.Chemscore.Hbond.Weighted>
-0.2222

> <Gold.Chemscore.Metal.Weighted>
-0.0000

> <Gold.Chemscore.Lipo.Weighted>
-16.1660

> <Gold.Chemscore.Internal_Hbond.Weighted>
0.0000

> <Gold.Chemscore.DEClash.Weighted>
0.3154

> <Gold.Chemscore.DEInternal.Weighted>
0.7970

> <Gold.Chemscore.Rot.Weighted>
6.0231

> <Gold.Chemscore.Internal.Correction.Weighted>
   9.000000E+99

> <Gold.Protein.RotatedTorsions>
[ 6907 6896 6895 6894 ] final -119.28 input  -60.11 | X-H torsion
[ 7974 7965 7964 7962 ] final   21.45 input  175.53 | X-H torsion
[ 8008 7997 7996 7995 ] final   52.71 input   59.86 | X-H torsion
[ 10167 10162 10161 10158 ] final  -19.43 input  -65.29 | X-H torsion
[ 10718 10713 10712 10709 ] final  111.93 input   66.30 | X-H torsion
[ 10763 10752 10751 10750 ] final  -47.31 input  -60.55 | X-H torsion
[ 11005 11000 10999 10996 ] final  160.96 input  -57.11 | X-H torsion

> <Gold.Protein.ActiveResidues>
 VAL166  LYS551  ARG553  GLY616  TRP617  ASP618  TYR619  PRO620  LYS621  CYS622 
 ASP623  PHE694  ASN695  SER759  ASP760  ASP761  ALA762  ILE779  LEU786  VAL792 
 PHE793  MET794  SER795  GLU796  ALA797  LYS798  CYS799  TRP800  GLU811  SER814 

> <Gold.Protein.RotatedAtoms>
  150.8292  133.8120  159.3105 H   0  0  0  0  0  0  0  0  0  0  0  0  # atno 6907 bound_to 6896
  151.5855  135.1054  160.0036 H   0  0  0  0  0  0  0  0  0  0  0  0  # atno 6908 bound_to 6896
  152.4373  133.7343  159.6661 H   0  0  0  0  0  0  0  0  0  0  0  0  # atno 6909 bound_to 6896
  146.2071  139.8025  142.8718 H   0  0  0  0  0  0  0  0  0  0  0  0  # atno 7974 bound_to 7965
  155.4563  140.3460  155.4307 H   0  0  0  0  0  0  0  0  0  0  0  0  # atno 8008 bound_to 7997
  156.1188  140.1481  156.9263 H   0  0  0  0  0  0  0  0  0  0  0  0  # atno 8009 bound_to 7997
  154.4808  140.0870  156.7353 H   0  0  0  0  0  0  0  0  0  0  0  0  # atno 8010 bound_to 7997
  140.7268  143.4819  151.0106 H   0  0  0  0  0  0  0  0  0  0  0  0  # atno 10167 bound_to 10162
  157.6419  131.0959  150.6820 H   0  0  0  0  0  0  0  0  0  0  0  0  # atno 10718 bound_to 10713
  154.0593  135.6620  153.4810 H   0  0  0  0  0  0  0  0  0  0  0  0  # atno 10763 bound_to 10752
  153.0433  135.5131  154.7675 H   0  0  0  0  0  0  0  0  0  0  0  0  # atno 10764 bound_to 10752
  154.6706  135.3029  154.9714 H   0  0  0  0  0  0  0  0  0  0  0  0  # atno 10765 bound_to 10752
  140.2111  134.8267  157.3121 H   0  0  0  0  0  0  0  0  0  0  0  0  # atno 11005 bound_to 11000
  145.3281  141.0260  143.3462 LP  0  0  0  0  0  0  0  0  0  0  0  0  # atno 17320 bound_to 7965
  144.8818  139.4893  143.6719 LP  0  0  0  0  0  0  0  0  0  0  0  0  # atno 17321 bound_to 7965
  139.8518  143.7428  152.3177 LP  0  0  0  0  0  0  0  0  0  0  0  0  # atno 17342 bound_to 10162
  139.7613  144.7505  151.0360 LP  0  0  0  0  0  0  0  0  0  0  0  0  # atno 17343 bound_to 10162
  156.7143  130.4661  149.5539 LP  0  0  0  0  0  0  0  0  0  0  0  0  # atno 17370 bound_to 10713
  156.1708  130.6436  151.0835 LP  0  0  0  0  0  0  0  0  0  0  0  0  # atno 17371 bound_to 10713
  140.1950  134.4324  155.7694 LP  0  0  0  0  0  0  0  0  0  0  0  0  # atno 17394 bound_to 11000
  141.2226  133.7045  156.8090 LP  0  0  0  0  0  0  0  0  0  0  0  0  # atno 17395 bound_to 11000

$$$$
