AV-unprocessed.smi:1915|AV-procd|sdf|7762|dock3
  -GOLD-   22720 9503D 1   1.00000     0.00000
 Structure written by MMmdl.
 45 46  0  0  0  0  0  0  0  0  2 V2000
  152.1965  144.0301  161.3416 C   0  0  0  0  0  0  0  0  0  0  0  0
  151.8045  144.8476  160.0990 C   0  0  0  0  0  0  0  0  0  0  0  0
  150.2812  145.0274  160.0296 C   0  0  0  0  0  0  0  0  0  0  0  0
  152.3416  144.2547  158.7770 C   0  0  0  0  0  0  0  0  0  0  0  0
  151.8407  142.9064  158.5169 N   0  0  0  0  0  0  0  0  0  0  0  0
  150.4520  142.6944  158.1467 C   0  0  0  0  0  0  0  0  0  0  0  0
  150.3766  141.2260  157.6823 C   0  0  1  0  0  0  0  0  0  0  0  0
  150.3314  141.1155  156.1495 C   0  0  0  0  0  0  0  0  0  0  0  0
  151.2993  140.6701  155.5313 O   0  0  0  0  0  0  0  0  0  0  0  0
  149.2123  141.5473  155.5464 N   0  0  0  0  0  0  0  0  0  0  0  0
  148.9701  141.5357  154.1050 C   0  0  0  0  0  0  0  0  0  0  0  0
  147.4969  141.2637  153.7337 C   0  0  0  0  0  0  0  0  0  0  0  0
  146.5168  142.2737  154.3064 C   0  0  0  0  0  0  0  0  0  0  0  0
  145.8842  143.2422  153.4971 C   0  0  0  0  0  0  0  0  0  0  0  0
  145.0228  144.1852  154.0961 C   0  0  0  0  0  0  0  0  0  0  0  0
  144.8090  144.1380  155.4891 C   0  0  0  0  0  0  0  0  0  0  0  0
  145.4621  143.1467  156.2490 C   0  0  0  0  0  0  0  0  0  0  0  0
  146.2829  142.2636  155.6392 N   0  3  0  0  0  0  0  0  0  0  0  0
  151.6449  140.5709  158.2662 C   0  0  0  0  0  0  0  0  0  0  0  0
  152.5123  141.7571  158.6591 C   0  0  0  0  0  0  0  0  0  0  0  0
  153.6791  141.6375  159.0288 O   0  0  0  0  0  0  0  0  0  0  0  0
  151.8489  142.9996  161.2630 H   0  0  0  0  0  0  0  0  0  0  0  0
  151.7638  144.4597  162.2453 H   0  0  0  0  0  0  0  0  0  0  0  0
  153.2768  144.0098  161.4853 H   0  0  0  0  0  0  0  0  0  0  0  0
  152.2375  145.8407  160.2160 H   0  0  0  0  0  0  0  0  0  0  0  0
  149.7740  144.0684  159.9183 H   0  0  0  0  0  0  0  0  0  0  0  0
  149.9967  145.6542  159.1840 H   0  0  0  0  0  0  0  0  0  0  0  0
  149.8989  145.5033  160.9333 H   0  0  0  0  0  0  0  0  0  0  0  0
  152.0888  144.9127  157.9436 H   0  0  0  0  0  0  0  0  0  0  0  0
  153.4313  144.2160  158.8062 H   0  0  0  0  0  0  0  0  0  0  0  0
  149.8183  142.8572  159.0194 H   0  0  0  0  0  0  0  0  0  0  0  0
  150.1407  143.4022  157.3773 H   0  0  0  0  0  0  0  0  0  0  0  0
  149.4870  140.7507  158.0988 H   0  0  0  0  0  0  0  0  0  0  0  0
  148.4658  141.8968  156.1302 H   0  0  0  0  0  0  0  0  0  0  0  0
  149.3014  142.4749  153.6586 H   0  0  0  0  0  0  0  0  0  0  0  0
  149.5990  140.7591  153.6695 H   0  0  0  0  0  0  0  0  0  0  0  0
  147.3927  141.2586  152.6483 H   0  0  0  0  0  0  0  0  0  0  0  0
  147.2135  140.2643  154.0670 H   0  0  0  0  0  0  0  0  0  0  0  0
  146.0678  143.2730  152.4331 H   0  0  0  0  0  0  0  0  0  0  0  0
  144.5360  144.9387  153.4944 H   0  0  0  0  0  0  0  0  0  0  0  0
  144.1571  144.8542  155.9677 H   0  0  0  0  0  0  0  0  0  0  0  0
  145.3611  143.0403  157.3191 H   0  0  0  0  0  0  0  0  0  0  0  0
  151.4099  139.9859  159.1558 H   0  0  0  0  0  0  0  0  0  0  0  0
  152.1696  139.9200  157.5648 H   0  0  0  0  0  0  0  0  0  0  0  0
  146.7541  141.5620  156.2106 H   0  0  0  0  0  0  0  0  0  0  0  0
  1  2  1  0  0  0  0
  1 22  1  0  0  0  0
  1 23  1  0  0  0  0
  1 24  1  0  0  0  0
  2  3  1  0  0  0  0
  2  4  1  0  0  0  0
  2 25  1  0  0  0  0
  3 26  1  0  0  0  0
  3 27  1  0  0  0  0
  3 28  1  0  0  0  0
  4  5  1  0  0  0  0
  4 29  1  0  0  0  0
  4 30  1  0  0  0  0
  5 20  1  0  0  0  0
  5  6  1  0  0  0  0
  6  7  1  0  0  0  0
  6 31  1  0  0  0  0
  6 32  1  0  0  0  0
  7  8  1  0  0  0  0
  7 19  1  0  0  0  0
  7 33  1  0  0  0  0
  8  9  2  0  0  0  0
  8 10  1  0  0  0  0
 10 11  1  0  0  0  0
 10 34  1  0  0  0  0
 11 12  1  0  0  0  0
 11 35  1  0  0  0  0
 11 36  1  0  0  0  0
 12 13  1  0  0  0  0
 12 37  1  0  0  0  0
 12 38  1  0  0  0  0
 13 18  1  0  0  0  0
 13 14  2  0  0  0  0
 14 15  1  0  0  0  0
 14 39  1  0  0  0  0
 15 16  2  0  0  0  0
 15 40  1  0  0  0  0
 16 17  1  0  0  0  0
 16 41  1  0  0  0  0
 17 18  2  0  0  0  0
 17 42  1  0  0  0  0
 18 45  1  0  0  0  0
 19 20  1  0  0  0  0
 19 43  1  0  0  0  0
 19 44  1  0  0  0  0
 20 21  2  0  0  0  0
M  CHG  1  18   1
M  END
> <s_m_source_file>
AV-unprocessed.smi

> <i_m_source_file_index>
1915

> <i_lp_mmshare_version>
43012

> <i_f3d_flags>
0

> <s_epik_input>
W0NIM11bQ0hdKFtDSDNdKVtDSDJdTjFbQ0gyXVtDQEhdKFtDSDJdQzE9TylDKD1PKVtOSF1bQ0gyXVtDSDJdYzJbY0hdW2NIXVtjSF1bY0hdbjI=

> <s_epik_cmdline>
J2VwaWtfcHl0aG9uJywgJy1waCcsICc3LjAnLCAnLXRuJywgJzgnLCAnLW1hJywgJzIwMCcsICctbWV0YWxfYmluZGluZycsICctaW1hZScsICc8aW5maWxlLm1hZT4nLCAnLW9tYWUnLCAnPG91dGZpbGUubWFlPic=

> <r_epik_Ionization_Penalty>
1.88249

> <r_epik_Ionization_Penalty_Charging>
1.88249

> <r_epik_Ionization_Penalty_Neutral>
3.64574e-08

> <r_epik_State_Penalty>
2.00238

> <r_epik_Charging_Adjusted_Penalty>
3.88487

> <i_epik_Tot_Q>
1

> <i_epik_Tot_abs_Q>
1

> <r_epik_Metal_State_Penalty>
2.02676

> <b_epik_Metal_Only>
0

> <s_lp_Force_Field>
OPLS_2005

> <r_lp_Energy>
19.4357

> <b_lp_Chiralities_Consistent>
1

> <s_lp_Variant>
AV-unprocessed.smi:1915-3

> <Gold.Version>
5.8.1

> <Gold.Id.Protein>
6NUR|6NUR_protein|mol2

> <Gold.PLP.Fitness>
47.5328

> <Gold.PLP.PLP>
-46.4635

> <Gold.PLP.part.hbond>
-1.7759

> <Gold.PLP.part.metal>
0.0000

> <Gold.PLP.part.buried>
-3.9668

> <Gold.PLP.part.nonpolar>
-39.7884

> <Gold.PLP.part.repulsive>
0.1491

> <Gold.PLP.ligand.clash>
0.0000

> <Gold.PLP.ligand.torsion>
0.5996

> <Gold.PLP.Chemscore.Hbond>
0.7007

> <Gold.PLP.Chemscore.CHOScore>
0.0000

> <Gold.PLP.Chemscore.Metal>
0.0000

> <Gold.Chemscore.Hbonds>
donor molecule, donor type, donor heavy atom, donor atom, acceptor molecule, acceptor atom, score
      P1  H  7989  7998       L1     9  0.74

> <Gold.PLP.Chemscore.Internal.Correction>
0.1664

> <Gold.Rescore>
     Score         DG    S(hbond)    S(metal)    S(lipo)     H(rot)  DE(clash)    DE(int)     intcor
     13.84     -15.87       0.79        0.00     107.15       1.86       1.36       0.67       ----

> <Gold.Chemscore.Fitness>
13.8423

> <Gold.Chemscore.DG>
-15.8695

> <Gold.Chemscore.ZeroCoef>
-5.4800

> <Gold.Chemscore.Hbond>
0.7858

> <Gold.Chemscore.Metal>
0.0000

> <Gold.Chemscore.Lipo>
107.1486

> <Gold.Chemscore.Internal_Hbond>
0.0000

> <Gold.Chemscore.DEClash>
1.3603

> <Gold.Chemscore.DEInternal>
0.6670

> <Gold.Chemscore.Rot>
1.8638

> <Gold.Chemscore.Internal.Correction>
   9.000000E+99

> <Gold.Chemscore.Hbonds>
donor molecule, donor type, donor heavy atom, donor atom, acceptor molecule, acceptor atom, score
      P1  H  7989  7998       L1     9  0.70

> <Gold.Chemscore.Hbond.Weighted>
-2.6245

> <Gold.Chemscore.Metal.Weighted>
-0.0000

> <Gold.Chemscore.Lipo.Weighted>
-12.5364

> <Gold.Chemscore.Internal_Hbond.Weighted>
0.0000

> <Gold.Chemscore.DEClash.Weighted>
1.3603

> <Gold.Chemscore.DEInternal.Weighted>
0.6670

> <Gold.Chemscore.Rot.Weighted>
4.7713

> <Gold.Chemscore.Internal.Correction.Weighted>
   9.000000E+99

> <Gold.Protein.RotatedTorsions>
[ 6907 6896 6895 6894 ] final   54.12 input  -60.11 | X-H torsion
[ 7974 7965 7964 7962 ] final -152.18 input  175.53 | X-H torsion
[ 8008 7997 7996 7995 ] final   24.69 input   59.86 | X-H torsion
[ 10167 10162 10161 10158 ] final   31.34 input  -65.29 | X-H torsion
[ 10718 10713 10712 10709 ] final    9.52 input   66.30 | X-H torsion
[ 10763 10752 10751 10750 ] final  175.73 input  -60.55 | X-H torsion
[ 11005 11000 10999 10996 ] final  -62.68 input  -57.11 | X-H torsion

> <Gold.Protein.ActiveResidues>
 VAL166  LYS551  ARG553  GLY616  TRP617  ASP618  TYR619  PRO620  LYS621  CYS622 
 ASP623  PHE694  ASN695  SER759  ASP760  ASP761  ALA762  ILE779  LEU786  VAL792 
 PHE793  MET794  SER795  GLU796  ALA797  LYS798  CYS799  TRP800  GLU811  SER814 

> <Gold.Protein.RotatedAtoms>
  152.3406  134.7139  160.0264 H   0  0  0  0  0  0  0  0  0  0  0  0  # atno 6907 bound_to 6896
  151.7525  133.3323  159.3403 H   0  0  0  0  0  0  0  0  0  0  0  0  # atno 6908 bound_to 6896
  150.7477  134.6111  159.6131 H   0  0  0  0  0  0  0  0  0  0  0  0  # atno 6909 bound_to 6896
  144.7809  140.4698  143.5840 H   0  0  0  0  0  0  0  0  0  0  0  0  # atno 7974 bound_to 7965
  155.0002  140.3124  155.4870 H   0  0  0  0  0  0  0  0  0  0  0  0  # atno 8008 bound_to 7997
  156.2926  140.2233  156.5052 H   0  0  0  0  0  0  0  0  0  0  0  0  # atno 8009 bound_to 7997
  154.7625  140.0458  157.0973 H   0  0  0  0  0  0  0  0  0  0  0  0  # atno 8010 bound_to 7997
  140.4597  144.0925  150.6210 H   0  0  0  0  0  0  0  0  0  0  0  0  # atno 10167 bound_to 10162
  156.9676  130.5956  149.5666 H   0  0  0  0  0  0  0  0  0  0  0  0  # atno 10718 bound_to 10713
  154.4716  135.2771  155.1638 H   0  0  0  0  0  0  0  0  0  0  0  0  # atno 10763 bound_to 10752
  154.3384  135.6175  153.5588 H   0  0  0  0  0  0  0  0  0  0  0  0  # atno 10764 bound_to 10752
  152.9865  135.5782  154.5099 H   0  0  0  0  0  0  0  0  0  0  0  0  # atno 10765 bound_to 10752
  141.1368  133.6643  156.5565 H   0  0  0  0  0  0  0  0  0  0  0  0  # atno 11005 bound_to 11000
  145.6054  139.1508  143.3105 LP  0  0  0  0  0  0  0  0  0  0  0  0  # atno 17320 bound_to 7965
  146.2016  140.6173  142.9100 LP  0  0  0  0  0  0  0  0  0  0  0  0  # atno 17321 bound_to 7965
  140.4108  143.2658  151.9835 LP  0  0  0  0  0  0  0  0  0  0  0  0  # atno 17342 bound_to 10162
  139.4805  144.5917  151.7760 LP  0  0  0  0  0  0  0  0  0  0  0  0  # atno 17343 bound_to 10162
  156.0296  130.5388  150.8499 LP  0  0  0  0  0  0  0  0  0  0  0  0  # atno 17370 bound_to 10713
  157.5615  131.0946  150.9552 LP  0  0  0  0  0  0  0  0  0  0  0  0  # atno 17371 bound_to 10713
  140.4022  134.7346  157.4787 LP  0  0  0  0  0  0  0  0  0  0  0  0  # atno 17394 bound_to 11000
  140.0487  134.6161  155.8888 LP  0  0  0  0  0  0  0  0  0  0  0  0  # atno 17395 bound_to 11000

$$$$
