AV-unprocessed.smi:882|AV-procd|sdf|4037|dock9
  -GOLD-   22720 1533D 1   1.00000     0.00000
 Structure written by MMmdl.
 33 34  0  0  0  0  0  0  0  0  1 V2000
  154.2978  135.0706  164.6450 C   0  0  0  0  0  0  0  0  0  0  0  0
  154.5496  135.3162  163.4757 C   0  0  0  0  0  0  0  0  0  0  0  0
  154.8644  135.6236  162.0702 C   0  0  0  0  0  0  0  0  0  0  0  0
  154.5037  136.9868  161.6979 N   0  0  0  0  0  0  0  0  0  0  0  0
  153.7141  137.3286  160.6655 C   0  0  0  0  0  0  0  0  0  0  0  0
  153.2194  136.5127  159.8875 O   0  0  0  0  0  0  0  0  0  0  0  0
  153.5100  138.8026  160.4657 C   0  0  0  0  0  0  0  0  0  0  0  0
  154.2521  139.7613  161.1898 C   0  0  0  0  0  0  0  0  0  0  0  0
  153.9983  141.1296  160.9760 C   0  0  0  0  0  0  0  0  0  0  0  0
  152.9992  141.5115  160.0496 C   0  0  0  0  0  0  0  0  0  0  0  0
  152.7259  142.8778  159.8210 N   0  0  0  0  0  0  0  0  0  0  0  0
  152.3227  143.6480  160.9951 C   0  0  0  0  0  0  0  0  0  0  0  0
  152.3531  145.1546  160.6849 C   0  0  0  0  0  0  0  0  0  0  0  0
  151.5502  145.4282  159.5415 O   0  0  0  0  0  0  0  0  0  0  0  0
  152.0319  144.7550  158.3836 C   0  0  0  0  0  0  0  0  0  0  0  0
  151.9855  143.2350  158.6122 C   0  0  0  0  0  0  0  0  0  0  0  0
  152.2849  140.5886  159.3592 N   0  0  0  0  0  0  0  0  0  0  0  0
  152.5301  139.2780  159.5684 C   0  0  0  0  0  0  0  0  0  0  0  0
  154.0809  134.8558  165.6672 H   0  0  0  0  0  0  0  0  0  0  0  0
  155.9373  135.4927  161.9304 H   0  0  0  0  0  0  0  0  0  0  0  0
  154.3660  134.8926  161.4317 H   0  0  0  0  0  0  0  0  0  0  0  0
  154.8841  137.7282  162.2679 H   0  0  0  0  0  0  0  0  0  0  0  0
  155.0082  139.4644  161.9023 H   0  0  0  0  0  0  0  0  0  0  0  0
  154.5779  141.8649  161.5138 H   0  0  0  0  0  0  0  0  0  0  0  0
  151.3144  143.3472  161.2824 H   0  0  0  0  0  0  0  0  0  0  0  0
  152.9672  143.4509  161.8503 H   0  0  0  0  0  0  0  0  0  0  0  0
  151.9661  145.7199  161.5327 H   0  0  0  0  0  0  0  0  0  0  0  0
  153.3756  145.4959  160.5150 H   0  0  0  0  0  0  0  0  0  0  0  0
  151.4090  145.0252  157.5309 H   0  0  0  0  0  0  0  0  0  0  0  0
  153.0468  145.0834  158.1537 H   0  0  0  0  0  0  0  0  0  0  0  0
  152.4094  142.7270  157.7450 H   0  0  0  0  0  0  0  0  0  0  0  0
  150.9505  142.9044  158.7111 H   0  0  0  0  0  0  0  0  0  0  0  0
  151.9245  138.5926  158.9932 H   0  0  0  0  0  0  0  0  0  0  0  0
  1  2  3  0  0  0  0
  1 19  1  0  0  0  0
  2  3  1  0  0  0  0
  3  4  1  0  0  0  0
  3 20  1  0  0  0  0
  3 21  1  0  0  0  0
  4  5  1  0  0  0  0
  4 22  1  0  0  0  0
  5  6  2  0  0  0  0
  5  7  1  0  0  0  0
  7 18  1  0  0  0  0
  7  8  2  0  0  0  0
  8  9  1  0  0  0  0
  8 23  1  0  0  0  0
  9 10  2  0  0  0  0
  9 24  1  0  0  0  0
 10 11  1  0  0  0  0
 10 17  1  0  0  0  0
 11 16  1  0  0  0  0
 11 12  1  0  0  0  0
 12 13  1  0  0  0  0
 12 25  1  0  0  0  0
 12 26  1  0  0  0  0
 13 14  1  0  0  0  0
 13 27  1  0  0  0  0
 13 28  1  0  0  0  0
 14 15  1  0  0  0  0
 15 16  1  0  0  0  0
 15 29  1  0  0  0  0
 15 30  1  0  0  0  0
 16 31  1  0  0  0  0
 16 32  1  0  0  0  0
 17 18  2  0  0  0  0
 18 33  1  0  0  0  0
M  END
> <s_m_source_file>
AV-unprocessed.smi

> <i_m_source_file_index>
882

> <i_lp_mmshare_version>
43012

> <i_f3d_flags>
0

> <s_epik_input>
W0NIXSNDW0NIMl1bTkhdQyg9TyljMVtjSF1bY0hdYyhuW2NIXTEpTjJbQ0gyXVtDSDJdT1tDSDJdW0NIMl0y

> <s_epik_cmdline>
J2VwaWtfcHl0aG9uJywgJy1waCcsICc3LjAnLCAnLXRuJywgJzgnLCAnLW1hJywgJzIwMCcsICctbWV0YWxfYmluZGluZycsICctaW1hZScsICc8aW5maWxlLm1hZT4nLCAnLW9tYWUnLCAnPG91dGZpbGUubWFlPic=

> <r_lp_tautomer_probability>
1

> <r_epik_Ionization_Penalty>
1.53095e-05

> <r_epik_Ionization_Penalty_Charging>
0

> <r_epik_Ionization_Penalty_Neutral>
1.53095e-05

> <r_epik_State_Penalty>
-0

> <r_epik_Charging_Adjusted_Penalty>
0

> <i_epik_Tot_Q>
0

> <i_epik_Tot_abs_Q>
0

> <r_epik_Metal_State_Penalty>
-0

> <b_epik_Metal_Only>
0

> <s_lp_Force_Field>
OPLS_2005

> <r_lp_Energy>
17.8132

> <b_lp_Chiralities_Consistent>
1

> <s_lp_Variant>
AV-unprocessed.smi:882-1

> <Gold.Version>
5.8.1

> <Gold.Id.Protein>
6NUR|6NUR_protein|mol2

> <Gold.PLP.Fitness>
40.2184

> <Gold.PLP.PLP>
-37.5214

> <Gold.PLP.part.hbond>
-0.9956

> <Gold.PLP.part.metal>
0.0000

> <Gold.PLP.part.buried>
-5.9333

> <Gold.PLP.part.nonpolar>
-30.9931

> <Gold.PLP.part.repulsive>
0.1456

> <Gold.PLP.ligand.clash>
0.0000

> <Gold.PLP.ligand.torsion>
0.3070

> <Gold.PLP.Chemscore.Hbond>
0.9913

> <Gold.PLP.Chemscore.CHOScore>
0.0000

> <Gold.PLP.Chemscore.Metal>
0.0000

> <Gold.Chemscore.Hbonds>
donor molecule, donor type, donor heavy atom, donor atom, acceptor molecule, acceptor atom, score
      P1  H  6896  6908       L1     6  1.00

> <Gold.PLP.Chemscore.Internal.Correction>
0.3374

> <Gold.Rescore>
     Score         DG    S(hbond)    S(metal)    S(lipo)     H(rot)  DE(clash)    DE(int)     intcor
     17.14     -17.39       0.98        0.00      99.89       1.19       0.00       0.25       ----

> <Gold.Chemscore.Fitness>
17.1381

> <Gold.Chemscore.DG>
-17.3942

> <Gold.Chemscore.ZeroCoef>
-5.4800

> <Gold.Chemscore.Hbond>
0.9790

> <Gold.Chemscore.Metal>
0.0000

> <Gold.Chemscore.Lipo>
99.8930

> <Gold.Chemscore.Internal_Hbond>
0.0000

> <Gold.Chemscore.DEClash>
0.0047

> <Gold.Chemscore.DEInternal>
0.2514

> <Gold.Chemscore.Rot>
1.1887

> <Gold.Chemscore.Internal.Correction>
   9.000000E+99

> <Gold.Chemscore.Hbonds>
donor molecule, donor type, donor heavy atom, donor atom, acceptor molecule, acceptor atom, score
      P1  H  6896  6908       L1     6  1.00

> <Gold.Chemscore.Hbond.Weighted>
-3.2698

> <Gold.Chemscore.Metal.Weighted>
-0.0000

> <Gold.Chemscore.Lipo.Weighted>
-11.6875

> <Gold.Chemscore.Internal_Hbond.Weighted>
0.0000

> <Gold.Chemscore.DEClash.Weighted>
0.0047

> <Gold.Chemscore.DEInternal.Weighted>
0.2514

> <Gold.Chemscore.Rot.Weighted>
3.0432

> <Gold.Chemscore.Internal.Correction.Weighted>
   9.000000E+99

> <Gold.Protein.RotatedTorsions>
[ 6907 6896 6895 6894 ] final  -76.94 input  -60.11 | X-H torsion
[ 7974 7965 7964 7962 ] final  -35.86 input  175.53 | X-H torsion
[ 8008 7997 7996 7995 ] final   -9.88 input   59.86 | X-H torsion
[ 10167 10162 10161 10158 ] final -173.19 input  -65.29 | X-H torsion
[ 10718 10713 10712 10709 ] final  124.82 input   66.30 | X-H torsion
[ 10763 10752 10751 10750 ] final  166.20 input  -60.55 | X-H torsion
[ 11005 11000 10999 10996 ] final   30.16 input  -57.11 | X-H torsion

> <Gold.Protein.ActiveResidues>
 VAL166  LYS551  ARG553  GLY616  TRP617  ASP618  TYR619  PRO620  LYS621  CYS622 
 ASP623  PHE694  ASN695  SER759  ASP760  ASP761  ALA762  ILE779  LEU786  VAL792 
 PHE793  MET794  SER795  GLU796  ALA797  LYS798  CYS799  TRP800  GLU811  SER814 

> <Gold.Protein.RotatedAtoms>
  150.7013  134.4497  159.5330 H   0  0  0  0  0  0  0  0  0  0  0  0  # atno 6907 bound_to 6896
  152.2192  134.8426  160.0497 H   0  0  0  0  0  0  0  0  0  0  0  0  # atno 6908 bound_to 6896
  151.9283  133.3569  159.3958 H   0  0  0  0  0  0  0  0  0  0  0  0  # atno 6909 bound_to 6896
  146.0711  140.6209  142.8952 H   0  0  0  0  0  0  0  0  0  0  0  0  # atno 7974 bound_to 7965
  154.5606  140.2343  155.8342 H   0  0  0  0  0  0  0  0  0  0  0  0  # atno 8008 bound_to 7997
  156.2026  140.3048  155.9518 H   0  0  0  0  0  0  0  0  0  0  0  0  # atno 8009 bound_to 7997
  155.2896  140.0426  157.3012 H   0  0  0  0  0  0  0  0  0  0  0  0  # atno 8010 bound_to 7997
  139.5702  144.1659  152.1373 H   0  0  0  0  0  0  0  0  0  0  0  0  # atno 10167 bound_to 10162
  157.5553  131.1092  150.8632 H   0  0  0  0  0  0  0  0  0  0  0  0  # atno 10718 bound_to 10713
  154.3354  135.2754  155.2450 H   0  0  0  0  0  0  0  0  0  0  0  0  # atno 10763 bound_to 10752
  154.4744  135.5875  153.6348 H   0  0  0  0  0  0  0  0  0  0  0  0  # atno 10764 bound_to 10752
  152.9862  135.6096  154.3551 H   0  0  0  0  0  0  0  0  0  0  0  0  # atno 10765 bound_to 10752
  140.2973  134.2796  155.7762 H   0  0  0  0  0  0  0  0  0  0  0  0  # atno 11005 bound_to 11000
  144.7232  140.4442  143.6992 LP  0  0  0  0  0  0  0  0  0  0  0  0  # atno 17320 bound_to 7965
  145.6390  139.1547  143.2926 LP  0  0  0  0  0  0  0  0  0  0  0  0  # atno 17321 bound_to 7965
  140.1190  144.5390  150.6875 LP  0  0  0  0  0  0  0  0  0  0  0  0  # atno 17342 bound_to 10162
  140.6987  143.2420  151.4928 LP  0  0  0  0  0  0  0  0  0  0  0  0  # atno 17343 bound_to 10162
  156.9145  130.5292  149.5280 LP  0  0  0  0  0  0  0  0  0  0  0  0  # atno 17370 bound_to 10713
  156.0613  130.5665  150.9198 LP  0  0  0  0  0  0  0  0  0  0  0  0  # atno 17371 bound_to 10713
  141.2135  133.7623  156.9715 LP  0  0  0  0  0  0  0  0  0  0  0  0  # atno 17394 bound_to 11000
  140.1141  134.9458  157.2108 LP  0  0  0  0  0  0  0  0  0  0  0  0  # atno 17395 bound_to 11000

$$$$
