AV-unprocessed.smi:2395|AV-procd|sdf|9491|dock6
  -GOLD-   2272013123D 1   1.00000     0.00000
 Structure written by MMmdl.
 39 40  0  0  0  0  0  0  0  0  1 V2000
  150.2028  137.8183  154.1709 C   0  0  0  0  0  0  0  0  0  0  0  0
  149.5069  139.1348  154.3660 C   0  0  0  0  0  0  0  0  0  0  0  0
  150.1850  140.1581  154.8573 N   0  0  0  0  0  0  0  0  0  0  0  0
  149.2977  141.1736  154.8995 N   0  0  0  0  0  0  0  0  0  0  0  0
  149.7311  142.4730  155.3944 C   0  0  0  0  0  0  0  0  0  0  0  0
  150.6306  142.3658  156.6317 C   0  0  0  0  0  0  0  0  0  0  0  0
  151.0188  141.2708  157.0420 O   0  0  0  0  0  0  0  0  0  0  0  0
  150.9591  143.5266  157.2178 N   0  0  0  0  0  0  0  0  0  0  0  0
  151.8210  143.6597  158.3848 C   0  0  0  0  0  0  0  0  0  0  0  0
  151.1417  144.2234  159.6184 C   0  0  0  0  0  0  0  0  0  0  0  0
  151.4890  145.6062  160.1171 C   0  0  0  0  0  0  0  0  0  0  0  0
  151.8971  144.3910  160.9157 C   0  0  0  0  0  0  0  0  0  0  0  0
  148.0520  140.7849  154.4388 C   0  0  0  0  0  0  0  0  0  0  0  0
  146.8911  141.7256  154.3764 C   0  0  0  0  0  0  0  0  0  0  0  0
  148.1487  139.4651  154.0875 C   0  0  0  0  0  0  0  0  0  0  0  0
  147.0844  138.5594  153.5271 C   0  0  0  0  0  0  0  0  0  0  0  0
  146.7510  138.9194  152.0735 C   0  0  0  0  0  0  0  0  0  0  0  0
  147.4507  138.0664  151.1937 O   0  0  0  0  0  0  0  0  0  0  0  0
  149.8665  137.3294  153.2563 H   0  0  0  0  0  0  0  0  0  0  0  0
  149.9990  137.1438  155.0024 H   0  0  0  0  0  0  0  0  0  0  0  0
  151.2840  137.9416  154.0983 H   0  0  0  0  0  0  0  0  0  0  0  0
  150.2592  142.9900  154.5921 H   0  0  0  0  0  0  0  0  0  0  0  0
  148.8571  143.0778  155.6410 H   0  0  0  0  0  0  0  0  0  0  0  0
  150.5943  144.3801  156.8200 H   0  0  0  0  0  0  0  0  0  0  0  0
  152.2277  142.6753  158.6183 H   0  0  0  0  0  0  0  0  0  0  0  0
  152.6761  144.2909  158.1378 H   0  0  0  0  0  0  0  0  0  0  0  0
  150.0925  143.9470  159.7073 H   0  0  0  0  0  0  0  0  0  0  0  0
  152.2748  146.1512  159.5977 H   0  0  0  0  0  0  0  0  0  0  0  0
  150.6780  146.2172  160.5084 H   0  0  0  0  0  0  0  0  0  0  0  0
  151.3580  144.1913  161.8395 H   0  0  0  0  0  0  0  0  0  0  0  0
  152.9530  144.1275  160.9257 H   0  0  0  0  0  0  0  0  0  0  0  0
  146.0048  141.2352  153.9744 H   0  0  0  0  0  0  0  0  0  0  0  0
  147.1166  142.5778  153.7351 H   0  0  0  0  0  0  0  0  0  0  0  0
  146.6430  142.1036  155.3681 H   0  0  0  0  0  0  0  0  0  0  0  0
  147.4047  137.5179  153.5749 H   0  0  0  0  0  0  0  0  0  0  0  0
  146.1775  138.6128  154.1306 H   0  0  0  0  0  0  0  0  0  0  0  0
  145.6809  138.8210  151.8875 H   0  0  0  0  0  0  0  0  0  0  0  0
  147.0268  139.9527  151.8603 H   0  0  0  0  0  0  0  0  0  0  0  0
  147.8395  137.3685  151.6986 H   0  0  0  0  0  0  0  0  0  0  0  0
  1  2  1  0  0  0  0
  1 19  1  0  0  0  0
  1 20  1  0  0  0  0
  1 21  1  0  0  0  0
  2 15  1  0  0  0  0
  2  3  2  0  0  0  0
  3  4  1  0  0  0  0
  4  5  1  0  0  0  0
  4 13  1  0  0  0  0
  5  6  1  0  0  0  0
  5 22  1  0  0  0  0
  5 23  1  0  0  0  0
  6  7  2  0  0  0  0
  6  8  1  0  0  0  0
  8  9  1  0  0  0  0
  8 24  1  0  0  0  0
  9 10  1  0  0  0  0
  9 25  1  0  0  0  0
  9 26  1  0  0  0  0
 10 12  1  0  0  0  0
 10 11  1  0  0  0  0
 10 27  1  0  0  0  0
 11 12  1  0  0  0  0
 11 28  1  0  0  0  0
 11 29  1  0  0  0  0
 12 30  1  0  0  0  0
 12 31  1  0  0  0  0
 13 14  1  0  0  0  0
 13 15  2  0  0  0  0
 14 32  1  0  0  0  0
 14 33  1  0  0  0  0
 14 34  1  0  0  0  0
 15 16  1  0  0  0  0
 16 17  1  0  0  0  0
 16 35  1  0  0  0  0
 16 36  1  0  0  0  0
 17 18  1  0  0  0  0
 17 37  1  0  0  0  0
 17 38  1  0  0  0  0
 18 39  1  0  0  0  0
M  END
> <s_m_source_file>
AV-unprocessed.smi

> <i_m_source_file_index>
2395

> <i_lp_mmshare_version>
43012

> <i_f3d_flags>
0

> <s_epik_input>
W09IXVtDSDJdW0NIMl1jMWMoW0NIM10pbihuYzFbQ0gzXSlbQ0gyXUMoPU8pW05IXVtDSDJdW0NIXTJbQ0gyXVtDSDJdMg==

> <s_epik_cmdline>
J2VwaWtfcHl0aG9uJywgJy1waCcsICc3LjAnLCAnLXRuJywgJzgnLCAnLW1hJywgJzIwMCcsICctbWV0YWxfYmluZGluZycsICctaW1hZScsICc8aW5maWxlLm1hZT4nLCAnLW9tYWUnLCAnPG91dGZpbGUubWFlPic=

> <r_lp_tautomer_probability>
1

> <r_epik_Ionization_Penalty>
0.000725848

> <r_epik_Ionization_Penalty_Charging>
0

> <r_epik_Ionization_Penalty_Neutral>
0.000725848

> <r_epik_State_Penalty>
-0

> <r_epik_Charging_Adjusted_Penalty>
0

> <i_epik_Tot_Q>
0

> <i_epik_Tot_abs_Q>
0

> <r_epik_Metal_State_Penalty>
-0

> <b_epik_Metal_Only>
0

> <s_lp_Force_Field>
OPLS_2005

> <r_lp_Energy>
10.6696

> <b_lp_Chiralities_Consistent>
1

> <s_lp_Variant>
AV-unprocessed.smi:2395-1

> <Gold.Version>
5.8.1

> <Gold.Id.Protein>
6NUR|6NUR_protein|mol2

> <Gold.PLP.Fitness>
47.6315

> <Gold.PLP.PLP>
-39.2323

> <Gold.PLP.part.hbond>
-4.7200

> <Gold.PLP.part.metal>
0.0000

> <Gold.PLP.part.buried>
0.7256

> <Gold.PLP.part.nonpolar>
-37.5816

> <Gold.PLP.part.repulsive>
0.1152

> <Gold.PLP.ligand.clash>
0.0000

> <Gold.PLP.ligand.torsion>
1.0386

> <Gold.PLP.Chemscore.Hbond>
3.2989

> <Gold.PLP.Chemscore.CHOScore>
0.0000

> <Gold.PLP.Chemscore.Metal>
0.0000

> <Gold.Chemscore.Hbonds>
donor molecule, donor type, donor heavy atom, donor atom, acceptor molecule, acceptor atom, score
      L1  H     8    24       P1  8028  0.59
      L1  H    18    39       P1  7948  0.96
      P1  H  7954  7966       L1    18  0.91
      P1  H  7989  7998       L1     3  0.81

> <Gold.PLP.Chemscore.Internal.Correction>
0.5795

> <Gold.Rescore>
     Score         DG    S(hbond)    S(metal)    S(lipo)     H(rot)  DE(clash)    DE(int)     intcor
     14.46     -19.39       2.53        0.00     102.09       2.53       2.03       2.91       ----

> <Gold.Chemscore.Fitness>
14.4589

> <Gold.Chemscore.DG>
-19.3923

> <Gold.Chemscore.ZeroCoef>
-5.4800

> <Gold.Chemscore.Hbond>
2.5289

> <Gold.Chemscore.Metal>
0.0000

> <Gold.Chemscore.Lipo>
102.0921

> <Gold.Chemscore.Internal_Hbond>
0.0000

> <Gold.Chemscore.DEClash>
2.0280

> <Gold.Chemscore.DEInternal>
2.9054

> <Gold.Chemscore.Rot>
2.5309

> <Gold.Chemscore.Internal.Correction>
   9.000000E+99

> <Gold.Chemscore.Hbonds>
donor molecule, donor type, donor heavy atom, donor atom, acceptor molecule, acceptor atom, score
      L1  H     8    24       P1  8028  0.55
      L1  H    18    39       P1  7948  0.89
      P1  H  7954  7966       L1    18  0.22
      P1  H  7989  7998       L1     3  0.23

> <Gold.Chemscore.Hbond.Weighted>
-8.4465

> <Gold.Chemscore.Metal.Weighted>
-0.0000

> <Gold.Chemscore.Lipo.Weighted>
-11.9448

> <Gold.Chemscore.Internal_Hbond.Weighted>
0.0000

> <Gold.Chemscore.DEClash.Weighted>
2.0280

> <Gold.Chemscore.DEInternal.Weighted>
2.9054

> <Gold.Chemscore.Rot.Weighted>
6.4790

> <Gold.Chemscore.Internal.Correction.Weighted>
   9.000000E+99

> <Gold.Protein.RotatedTorsions>
[ 6907 6896 6895 6894 ] final  -96.02 input  -60.11 | X-H torsion
[ 7974 7965 7964 7962 ] final -132.91 input  175.53 | X-H torsion
[ 8008 7997 7996 7995 ] final -134.49 input   59.86 | X-H torsion
[ 10167 10162 10161 10158 ] final   57.97 input  -65.29 | X-H torsion
[ 10718 10713 10712 10709 ] final   10.51 input   66.30 | X-H torsion
[ 10763 10752 10751 10750 ] final -157.13 input  -60.55 | X-H torsion
[ 11005 11000 10999 10996 ] final   -8.06 input  -57.11 | X-H torsion

> <Gold.Protein.ActiveResidues>
 VAL166  LYS551  ARG553  GLY616  TRP617  ASP618  TYR619  PRO620  LYS621  CYS622 
 ASP623  PHE694  ASN695  SER759  ASP760  ASP761  ALA762  ILE779  LEU786  VAL792 
 PHE793  MET794  SER795  GLU796  ALA797  LYS798  CYS799  TRP800  GLU811  SER814 

> <Gold.Protein.RotatedAtoms>
  150.6978  134.1567  159.4160 H   0  0  0  0  0  0  0  0  0  0  0  0  # atno 6907 bound_to 6896
  151.9549  135.0149  160.0553 H   0  0  0  0  0  0  0  0  0  0  0  0  # atno 6908 bound_to 6896
  152.1978  133.4784  159.5079 H   0  0  0  0  0  0  0  0  0  0  0  0  # atno 6909 bound_to 6896
  144.9242  140.7051  143.4946 H   0  0  0  0  0  0  0  0  0  0  0  0  # atno 7974 bound_to 7965
  155.3629  140.0484  157.3046 H   0  0  0  0  0  0  0  0  0  0  0  0  # atno 8008 bound_to 7997
  154.5169  140.2211  155.9013 H   0  0  0  0  0  0  0  0  0  0  0  0  # atno 8009 bound_to 7997
  156.1646  140.3109  155.8872 H   0  0  0  0  0  0  0  0  0  0  0  0  # atno 8010 bound_to 7997
  140.1922  144.4074  150.6566 H   0  0  0  0  0  0  0  0  0  0  0  0  # atno 10167 bound_to 10162
  156.9820  130.6009  149.5677 H   0  0  0  0  0  0  0  0  0  0  0  0  # atno 10718 bound_to 10713
  154.7660  135.3131  154.8285 H   0  0  0  0  0  0  0  0  0  0  0  0  # atno 10763 bound_to 10752
  153.9033  135.6813  153.4758 H   0  0  0  0  0  0  0  0  0  0  0  0  # atno 10764 bound_to 10752
  153.1266  135.4799  154.9215 H   0  0  0  0  0  0  0  0  0  0  0  0  # atno 10765 bound_to 10752
  140.7195  133.8841  155.8810 H   0  0  0  0  0  0  0  0  0  0  0  0  # atno 11005 bound_to 11000
  145.3246  139.1778  143.4569 LP  0  0  0  0  0  0  0  0  0  0  0  0  # atno 17320 bound_to 7965
  146.3218  140.3268  142.8637 LP  0  0  0  0  0  0  0  0  0  0  0  0  # atno 17321 bound_to 7965
  140.6448  143.2211  151.6211 LP  0  0  0  0  0  0  0  0  0  0  0  0  # atno 17342 bound_to 10162
  139.5251  144.3084  152.1014 LP  0  0  0  0  0  0  0  0  0  0  0  0  # atno 17343 bound_to 10162
  156.0241  130.5335  150.8357 LP  0  0  0  0  0  0  0  0  0  0  0  0  # atno 17370 bound_to 10713
  157.5519  131.0944  150.9683 LP  0  0  0  0  0  0  0  0  0  0  0  0  # atno 17371 bound_to 10713
  141.0016  134.1143  157.4312 LP  0  0  0  0  0  0  0  0  0  0  0  0  # atno 17394 bound_to 11000
  139.8851  135.0070  156.6416 LP  0  0  0  0  0  0  0  0  0  0  0  0  # atno 17395 bound_to 11000

$$$$
