AV-unprocessed.smi:3217|AV-procd|sdf|12289|dock7
  -GOLD-   2272018133D 1   1.00000     0.00000
 Structure written by MMmdl.
 34 35  0  0  0  0  0  0  0  0  1 V2000
  144.0076  136.6397  152.3349 C   0  0  0  0  0  0  0  0  0  0  0  0
  145.1724  135.6799  152.6225 C   0  0  2  0  0  0  0  0  0  0  0  0
  146.4088  136.4544  152.7074 N   0  0  0  0  0  0  0  0  0  0  0  0
  146.5597  137.6309  153.3325 C   0  0  0  0  0  0  0  0  0  0  0  0
  145.6467  138.2199  153.9102 O   0  0  0  0  0  0  0  0  0  0  0  0
  147.8239  138.0742  153.2218 N   0  0  0  0  0  0  0  0  0  0  0  0
  148.3950  139.2699  153.7363 C   0  0  0  0  0  0  0  0  0  0  0  0
  147.6144  140.4435  153.6944 C   0  0  0  0  0  0  0  0  0  0  0  0
  148.1570  141.6476  154.1820 C   0  0  0  0  0  0  0  0  0  0  0  0
  149.4712  141.6329  154.6874 C   0  0  0  0  0  0  0  0  0  0  0  0
  150.2381  140.5229  154.7213 N   0  0  0  0  0  0  0  0  0  0  0  0
  149.7106  139.3708  154.2537 C   0  0  0  0  0  0  0  0  0  0  0  0
  145.3234  134.5962  151.5373 C   0  0  2  0  0  0  0  0  0  0  0  0
  144.0981  133.6979  151.3531 C   0  0  0  0  0  0  0  0  0  0  0  0
  144.6761  132.3899  150.8323 C   0  0  0  0  0  0  0  0  0  0  0  0
  146.1847  132.5376  151.0413 C   0  0  0  0  0  0  0  0  0  0  0  0
  146.3237  133.6573  151.9024 O   0  0  0  0  0  0  0  0  0  0  0  0
  143.0550  136.1106  152.3016 H   0  0  0  0  0  0  0  0  0  0  0  0
  144.1392  137.1496  151.3800 H   0  0  0  0  0  0  0  0  0  0  0  0
  143.9278  137.4016  153.1111 H   0  0  0  0  0  0  0  0  0  0  0  0
  144.9693  135.1848  153.5737 H   0  0  0  0  0  0  0  0  0  0  0  0
  147.2198  136.0534  152.2600 H   0  0  0  0  0  0  0  0  0  0  0  0
  148.4401  137.5114  152.6541 H   0  0  0  0  0  0  0  0  0  0  0  0
  146.6098  140.4240  153.2974 H   0  0  0  0  0  0  0  0  0  0  0  0
  147.5805  142.5605  154.1679 H   0  0  0  0  0  0  0  0  0  0  0  0
  149.9201  142.5380  155.0691 H   0  0  0  0  0  0  0  0  0  0  0  0
  150.3812  138.5266  154.2851 H   0  0  0  0  0  0  0  0  0  0  0  0
  145.5979  135.0478  150.5815 H   0  0  0  0  0  0  0  0  0  0  0  0
  143.6106  133.5208  152.3127 H   0  0  0  0  0  0  0  0  0  0  0  0
  143.3603  134.1313  150.6773 H   0  0  0  0  0  0  0  0  0  0  0  0
  144.2771  131.5443  151.3935 H   0  0  0  0  0  0  0  0  0  0  0  0
  144.4436  132.2337  149.7784 H   0  0  0  0  0  0  0  0  0  0  0  0
  146.6390  131.6459  151.4737 H   0  0  0  0  0  0  0  0  0  0  0  0
  146.6843  132.7504  150.0951 H   0  0  0  0  0  0  0  0  0  0  0  0
  1  2  1  0  0  0  0
  1 18  1  0  0  0  0
  1 19  1  0  0  0  0
  1 20  1  0  0  0  0
  2  3  1  0  0  0  0
  2 13  1  0  0  0  0
  2 21  1  0  0  0  0
  3  4  1  0  0  0  0
  3 22  1  0  0  0  0
  4  5  2  0  0  0  0
  4  6  1  0  0  0  0
  6  7  1  0  0  0  0
  6 23  1  0  0  0  0
  7 12  1  0  0  0  0
  7  8  2  0  0  0  0
  8  9  1  0  0  0  0
  8 24  1  0  0  0  0
  9 10  2  0  0  0  0
  9 25  1  0  0  0  0
 10 11  1  0  0  0  0
 10 26  1  0  0  0  0
 11 12  2  0  0  0  0
 12 27  1  0  0  0  0
 13 17  1  0  0  0  0
 13 14  1  0  0  0  0
 13 28  1  0  0  0  0
 14 15  1  0  0  0  0
 14 29  1  0  0  0  0
 14 30  1  0  0  0  0
 15 16  1  0  0  0  0
 15 31  1  0  0  0  0
 15 32  1  0  0  0  0
 16 17  1  0  0  0  0
 16 33  1  0  0  0  0
 16 34  1  0  0  0  0
M  END
> <s_m_source_file>
AV-unprocessed.smi

> <i_m_source_file_index>
3217

> <i_lp_mmshare_version>
43012

> <i_f3d_flags>
0

> <s_epik_input>
TzFbQ0gyXVtDSDJdW0NIMl1bQ0BIXTFbQ0BIXShbQ0gzXSlbTkhdQyg9TylbTkhdYzJbY0hdW2NIXVtjSF1uW2NIXTI=

> <s_epik_cmdline>
J2VwaWtfcHl0aG9uJywgJy1waCcsICc3LjAnLCAnLXRuJywgJzgnLCAnLW1hJywgJzIwMCcsICctbWV0YWxfYmluZGluZycsICctaW1hZScsICc8aW5maWxlLm1hZT4nLCAnLW9tYWUnLCAnPG91dGZpbGUubWFlPic=

> <r_epik_Ionization_Penalty>
0.00475451

> <r_epik_Ionization_Penalty_Charging>
0

> <r_epik_Ionization_Penalty_Neutral>
0.00475451

> <r_epik_State_Penalty>
0.00341814

> <r_epik_Charging_Adjusted_Penalty>
0.00341814

> <i_epik_Tot_Q>
0

> <i_epik_Tot_abs_Q>
0

> <r_epik_Metal_State_Penalty>
-0

> <b_epik_Metal_Only>
0

> <s_lp_Force_Field>
OPLS_2005

> <r_lp_Energy>
20.3997

> <b_lp_Chiralities_Consistent>
1

> <s_lp_Variant>
AV-unprocessed.smi:3217-1

> <Gold.Version>
5.8.1

> <Gold.Id.Protein>
6NUR|6NUR_protein|mol2

> <Gold.PLP.Fitness>
39.5328

> <Gold.PLP.PLP>
-28.7146

> <Gold.PLP.part.hbond>
-3.0000

> <Gold.PLP.part.metal>
0.0000

> <Gold.PLP.part.buried>
-1.1286

> <Gold.PLP.part.nonpolar>
-24.2631

> <Gold.PLP.part.repulsive>
0.4306

> <Gold.PLP.ligand.clash>
0.0000

> <Gold.PLP.ligand.torsion>
0.5053

> <Gold.PLP.Chemscore.Hbond>
2.9360

> <Gold.PLP.Chemscore.CHOScore>
1.0000

> <Gold.PLP.Chemscore.Metal>
0.0000

> <Gold.Chemscore.Hbonds>
donor molecule, donor type, donor heavy atom, donor atom, acceptor molecule, acceptor atom, score
      L1  H     3    22       P1  7948  0.96
      L1  H     6    23       P1  7948  1.00
      P1  H  7989  7998       L1    11  0.94
      L1  C    10    26       P1  8028  1.00

> <Gold.PLP.Chemscore.Internal.Correction>
0.0208

> <Gold.Rescore>
     Score         DG    S(hbond)    S(metal)    S(lipo)     H(rot)  DE(clash)    DE(int)     intcor
     14.48     -17.95       2.18        0.00      71.04       1.22       0.45       3.02       ----

> <Gold.Chemscore.Fitness>
14.4818

> <Gold.Chemscore.DG>
-17.9532

> <Gold.Chemscore.ZeroCoef>
-5.4800

> <Gold.Chemscore.Hbond>
2.1838

> <Gold.Chemscore.Metal>
0.0000

> <Gold.Chemscore.Lipo>
71.0418

> <Gold.Chemscore.Internal_Hbond>
0.0000

> <Gold.Chemscore.DEClash>
0.4490

> <Gold.Chemscore.DEInternal>
3.0224

> <Gold.Chemscore.Rot>
1.2236

> <Gold.Chemscore.Internal.Correction>
   9.000000E+99

> <Gold.Chemscore.Hbonds>
donor molecule, donor type, donor heavy atom, donor atom, acceptor molecule, acceptor atom, score
      L1  H     3    22       P1  7948  0.92
      L1  H     6    23       P1  7948  0.97
      P1  H  7989  7998       L1    11  0.16

> <Gold.Chemscore.Hbond.Weighted>
-7.2938

> <Gold.Chemscore.Metal.Weighted>
-0.0000

> <Gold.Chemscore.Lipo.Weighted>
-8.3119

> <Gold.Chemscore.Internal_Hbond.Weighted>
0.0000

> <Gold.Chemscore.DEClash.Weighted>
0.4490

> <Gold.Chemscore.DEInternal.Weighted>
3.0224

> <Gold.Chemscore.Rot.Weighted>
3.1325

> <Gold.Chemscore.Internal.Correction.Weighted>
   9.000000E+99

> <Gold.Protein.RotatedTorsions>
[ 6907 6896 6895 6894 ] final  -68.07 input  -60.11 | X-H torsion
[ 7974 7965 7964 7962 ] final -172.08 input  175.53 | X-H torsion
[ 8008 7997 7996 7995 ] final   37.24 input   59.86 | X-H torsion
[ 10167 10162 10161 10158 ] final  -59.90 input  -65.29 | X-H torsion
[ 10718 10713 10712 10709 ] final  121.49 input   66.30 | X-H torsion
[ 10763 10752 10751 10750 ] final  127.56 input  -60.55 | X-H torsion
[ 11005 11000 10999 10996 ] final   88.88 input  -57.11 | X-H torsion

> <Gold.Protein.ActiveResidues>
 VAL166  LYS551  ARG553  GLY616  TRP617  ASP618  TYR619  PRO620  LYS621  CYS622 
 ASP623  PHE694  ASN695  SER759  ASP760  ASP761  ALA762  ILE779  LEU786  VAL792 
 PHE793  MET794  SER795  GLU796  ALA797  LYS798  CYS799  TRP800  GLU811  SER814 

> <Gold.Protein.RotatedAtoms>
  150.7376  134.5792  159.5929 H   0  0  0  0  0  0  0  0  0  0  0  0  # atno 6907 bound_to 6896
  152.3210  134.7377  160.0322 H   0  0  0  0  0  0  0  0  0  0  0  0  # atno 6908 bound_to 6896
  151.7893  133.3322  159.3531 H   0  0  0  0  0  0  0  0  0  0  0  0  # atno 6909 bound_to 6896
  144.7150  140.1826  143.6357 H   0  0  0  0  0  0  0  0  0  0  0  0  # atno 7974 bound_to 7965
  155.2006  140.3315  155.4344 H   0  0  0  0  0  0  0  0  0  0  0  0  # atno 8008 bound_to 7997
  156.2408  140.1894  156.7043 H   0  0  0  0  0  0  0  0  0  0  0  0  # atno 8009 bound_to 7997
  154.6144  140.0604  156.9521 H   0  0  0  0  0  0  0  0  0  0  0  0  # atno 8010 bound_to 7997
  140.6106  143.2386  151.5719 H   0  0  0  0  0  0  0  0  0  0  0  0  # atno 10167 bound_to 10162
  157.5814  131.1074  150.8180 H   0  0  0  0  0  0  0  0  0  0  0  0  # atno 10718 bound_to 10713
  153.7114  135.3267  155.3247 H   0  0  0  0  0  0  0  0  0  0  0  0  # atno 10763 bound_to 10752
  154.8384  135.4478  154.1310 H   0  0  0  0  0  0  0  0  0  0  0  0  # atno 10764 bound_to 10752
  153.2405  135.6970  153.7868 H   0  0  0  0  0  0  0  0  0  0  0  0  # atno 10765 bound_to 10752
  139.8887  134.8516  156.3064 H   0  0  0  0  0  0  0  0  0  0  0  0  # atno 11005 bound_to 11000
  145.8842  139.2340  143.1587 LP  0  0  0  0  0  0  0  0  0  0  0  0  # atno 17320 bound_to 7965
  145.9965  140.8557  143.0040 LP  0  0  0  0  0  0  0  0  0  0  0  0  # atno 17321 bound_to 7965
  139.5358  144.2785  152.1248 LP  0  0  0  0  0  0  0  0  0  0  0  0  # atno 17342 bound_to 10162
  140.1984  144.4682  150.6444 LP  0  0  0  0  0  0  0  0  0  0  0  0  # atno 17343 bound_to 10162
  156.8626  130.5118  149.5302 LP  0  0  0  0  0  0  0  0  0  0  0  0  # atno 17370 bound_to 10713
  156.0860  130.5858  150.9648 LP  0  0  0  0  0  0  0  0  0  0  0  0  # atno 17371 bound_to 10713
  140.9879  133.7226  156.0770 LP  0  0  0  0  0  0  0  0  0  0  0  0  # atno 17394 bound_to 11000
  140.7663  134.3882  157.5516 LP  0  0  0  0  0  0  0  0  0  0  0  0  # atno 17395 bound_to 11000

$$$$
