AV-unprocessed.smi:1840|AV-procd|sdf|7489|dock5
  -GOLD-   22720 9193D 1   1.00000     0.00000
 Structure written by MMmdl.
 43 44  0  0  0  0  0  0  0  0  1 V2000
  147.5176  142.2218  155.6857 C   0  0  0  0  0  0  0  0  0  0  0  0
  148.7673  141.3448  155.8512 C   0  0  1  0  0  0  0  0  0  0  0  0
  149.1317  140.6196  154.5414 C   0  0  0  0  0  0  0  0  0  0  0  0
  150.1928  139.6455  154.7281 N   0  0  0  0  0  0  0  0  0  0  0  0
  150.3990  138.4614  154.0516 C   0  0  0  0  0  0  0  0  0  0  0  0
  151.5299  137.8928  154.5634 C   0  0  0  0  0  0  0  0  0  0  0  0
  151.9480  138.8143  155.5639 C   0  0  0  0  0  0  0  0  0  0  0  0
  151.1455  139.8620  155.6603 N   0  0  0  0  0  0  0  0  0  0  0  0
  149.8914  142.1671  156.2944 N   0  0  0  0  0  0  0  0  0  0  0  0
  150.3905  142.1979  157.5376 C   0  0  0  0  0  0  0  0  0  0  0  0
  149.9299  141.5590  158.4837 O   0  0  0  0  0  0  0  0  0  0  0  0
  151.4615  143.0007  157.6170 N   0  0  0  0  0  0  0  0  0  0  0  0
  152.2571  143.2522  158.8177 C   0  0  2  0  0  0  0  0  0  0  0  0
  152.8097  141.9081  159.3322 C   0  0  0  0  0  0  0  0  0  0  0  0
  153.6065  142.0809  160.6330 C   0  0  0  0  0  0  0  0  0  0  0  0
  152.7547  142.7645  161.7104 C   0  0  0  0  0  0  0  0  0  0  0  0
  152.2179  144.1143  161.2111 C   0  0  0  0  0  0  0  0  0  0  0  0
  151.4116  143.9676  159.9041 C   0  0  1  0  0  0  0  0  0  0  0  0
  150.8818  145.3377  159.4427 C   0  0  0  0  0  0  0  0  0  0  0  0
  146.6593  141.6244  155.3773 H   0  0  0  0  0  0  0  0  0  0  0  0
  147.6719  142.9963  154.9338 H   0  0  0  0  0  0  0  0  0  0  0  0
  147.2548  142.7139  156.6228 H   0  0  0  0  0  0  0  0  0  0  0  0
  148.5469  140.5862  156.6048 H   0  0  0  0  0  0  0  0  0  0  0  0
  148.2587  140.1005  154.1424 H   0  0  0  0  0  0  0  0  0  0  0  0
  149.4432  141.3349  153.7788 H   0  0  0  0  0  0  0  0  0  0  0  0
  149.7345  138.1290  153.2680 H   0  0  0  0  0  0  0  0  0  0  0  0
  151.9887  136.9613  154.2673 H   0  0  0  0  0  0  0  0  0  0  0  0
  152.8053  138.7540  156.2182 H   0  0  0  0  0  0  0  0  0  0  0  0
  150.3421  142.7332  155.5905 H   0  0  0  0  0  0  0  0  0  0  0  0
  151.7576  143.4748  156.7764 H   0  0  0  0  0  0  0  0  0  0  0  0
  153.1107  143.8872  158.5729 H   0  0  0  0  0  0  0  0  0  0  0  0
  151.9878  141.2112  159.5041 H   0  0  0  0  0  0  0  0  0  0  0  0
  153.4462  141.4520  158.5731 H   0  0  0  0  0  0  0  0  0  0  0  0
  153.9513  141.1102  160.9907 H   0  0  0  0  0  0  0  0  0  0  0  0
  154.5002  142.6755  160.4396 H   0  0  0  0  0  0  0  0  0  0  0  0
  151.9216  142.1169  161.9865 H   0  0  0  0  0  0  0  0  0  0  0  0
  153.3462  142.9107  162.6145 H   0  0  0  0  0  0  0  0  0  0  0  0
  151.5947  144.5635  161.9851 H   0  0  0  0  0  0  0  0  0  0  0  0
  153.0525  144.7988  161.0533 H   0  0  0  0  0  0  0  0  0  0  0  0
  150.5451  143.3417  160.1235 H   0  0  0  0  0  0  0  0  0  0  0  0
  151.6985  145.9997  159.1533 H   0  0  0  0  0  0  0  0  0  0  0  0
  150.3214  145.8295  160.2382 H   0  0  0  0  0  0  0  0  0  0  0  0
  150.2107  145.2447  158.5888 H   0  0  0  0  0  0  0  0  0  0  0  0
  1  2  1  0  0  0  0
  1 20  1  0  0  0  0
  1 21  1  0  0  0  0
  1 22  1  0  0  0  0
  2  3  1  0  0  0  0
  2  9  1  0  0  0  0
  2 23  1  0  0  0  0
  3  4  1  0  0  0  0
  3 24  1  0  0  0  0
  3 25  1  0  0  0  0
  4  8  1  0  0  0  0
  4  5  1  0  0  0  0
  5  6  2  0  0  0  0
  5 26  1  0  0  0  0
  6  7  1  0  0  0  0
  6 27  1  0  0  0  0
  7  8  2  0  0  0  0
  7 28  1  0  0  0  0
  9 10  1  0  0  0  0
  9 29  1  0  0  0  0
 10 11  2  0  0  0  0
 10 12  1  0  0  0  0
 12 13  1  0  0  0  0
 12 30  1  0  0  0  0
 13 18  1  0  0  0  0
 13 14  1  0  0  0  0
 13 31  1  0  0  0  0
 14 15  1  0  0  0  0
 14 32  1  0  0  0  0
 14 33  1  0  0  0  0
 15 16  1  0  0  0  0
 15 34  1  0  0  0  0
 15 35  1  0  0  0  0
 16 17  1  0  0  0  0
 16 36  1  0  0  0  0
 16 37  1  0  0  0  0
 17 18  1  0  0  0  0
 17 38  1  0  0  0  0
 17 39  1  0  0  0  0
 18 19  1  0  0  0  0
 18 40  1  0  0  0  0
 19 41  1  0  0  0  0
 19 42  1  0  0  0  0
 19 43  1  0  0  0  0
M  END
> <s_m_source_file>
AV-unprocessed.smi

> <i_m_source_file_index>
1840

> <i_lp_mmshare_version>
43012

> <i_f3d_flags>
0

> <s_epik_input>
bjFbY0hdW2NIXVtjSF1uMVtDSDJdW0NAQEhdKFtDSDNdKVtOSF1DKD1PKVtOSF1bQ0BASF0yW0NIMl1bQ0gyXVtDSDJdW0NIMl1bQ0BIXTJbQ0gzXQ==

> <s_epik_cmdline>
J2VwaWtfcHl0aG9uJywgJy1waCcsICc3LjAnLCAnLXRuJywgJzgnLCAnLW1hJywgJzIwMCcsICctbWV0YWxfYmluZGluZycsICctaW1hZScsICc8aW5maWxlLm1hZT4nLCAnLW9tYWUnLCAnPG91dGZpbGUubWFlPic=

> <r_lp_tautomer_probability>
1

> <r_epik_Ionization_Penalty>
7.38659e-05

> <r_epik_Ionization_Penalty_Charging>
0

> <r_epik_Ionization_Penalty_Neutral>
7.38659e-05

> <r_epik_State_Penalty>
-0

> <r_epik_Charging_Adjusted_Penalty>
0

> <i_epik_Tot_Q>
0

> <i_epik_Tot_abs_Q>
0

> <r_epik_Metal_State_Penalty>
-0

> <b_epik_Metal_Only>
0

> <s_lp_Force_Field>
OPLS_2005

> <r_lp_Energy>
8.744

> <b_lp_Chiralities_Consistent>
1

> <s_lp_Variant>
AV-unprocessed.smi:1840-2

> <Gold.Version>
5.8.1

> <Gold.Id.Protein>
6NUR|6NUR_protein|mol2

> <Gold.PLP.Fitness>
48.7354

> <Gold.PLP.PLP>
-44.9801

> <Gold.PLP.part.hbond>
-1.5295

> <Gold.PLP.part.metal>
0.0000

> <Gold.PLP.part.buried>
-1.9434

> <Gold.PLP.part.nonpolar>
-40.4404

> <Gold.PLP.part.repulsive>
0.1468

> <Gold.PLP.ligand.clash>
0.0000

> <Gold.PLP.ligand.torsion>
0.5712

> <Gold.PLP.Chemscore.Hbond>
0.0062

> <Gold.PLP.Chemscore.CHOScore>
1.6205

> <Gold.PLP.Chemscore.Metal>
0.0000

> <Gold.Chemscore.Hbonds>
donor molecule, donor type, donor heavy atom, donor atom, acceptor molecule, acceptor atom, score
      L1  C     5    26       P1  7948  1.00
      L1  C     5    26       P1  7957  0.16

> <Gold.PLP.Chemscore.Internal.Correction>
0.0174

> <Gold.Rescore>
     Score         DG    S(hbond)    S(metal)    S(lipo)     H(rot)  DE(clash)    DE(int)     intcor
     14.39     -15.27       0.00        0.00     117.80       1.56       0.05       0.83       ----

> <Gold.Chemscore.Fitness>
14.3947

> <Gold.Chemscore.DG>
-15.2748

> <Gold.Chemscore.ZeroCoef>
-5.4800

> <Gold.Chemscore.Hbond>
0.0000

> <Gold.Chemscore.Metal>
0.0000

> <Gold.Chemscore.Lipo>
117.7963

> <Gold.Chemscore.Internal_Hbond>
0.0000

> <Gold.Chemscore.DEClash>
0.0464

> <Gold.Chemscore.DEInternal>
0.8337

> <Gold.Chemscore.Rot>
1.5576

> <Gold.Chemscore.Internal.Correction>
   9.000000E+99

> <Gold.Chemscore.Hbond.Weighted>
-0.0002

> <Gold.Chemscore.Metal.Weighted>
-0.0000

> <Gold.Chemscore.Lipo.Weighted>
-13.7822

> <Gold.Chemscore.Internal_Hbond.Weighted>
0.0000

> <Gold.Chemscore.DEClash.Weighted>
0.0464

> <Gold.Chemscore.DEInternal.Weighted>
0.8337

> <Gold.Chemscore.Rot.Weighted>
3.9875

> <Gold.Chemscore.Internal.Correction.Weighted>
   9.000000E+99

> <Gold.Protein.RotatedTorsions>
[ 6907 6896 6895 6894 ] final -153.56 input  -60.11 | X-H torsion
[ 7974 7965 7964 7962 ] final  -58.39 input  175.53 | X-H torsion
[ 8008 7997 7996 7995 ] final -157.27 input   59.86 | X-H torsion
[ 10167 10162 10161 10158 ] final   52.13 input  -65.29 | X-H torsion
[ 10718 10713 10712 10709 ] final -130.16 input   66.30 | X-H torsion
[ 10763 10752 10751 10750 ] final   -2.79 input  -60.55 | X-H torsion
[ 11005 11000 10999 10996 ] final  -22.31 input  -57.11 | X-H torsion

> <Gold.Protein.ActiveResidues>
 VAL166  LYS551  ARG553  GLY616  TRP617  ASP618  TYR619  PRO620  LYS621  CYS622 
 ASP623  PHE694  ASN695  SER759  ASP760  ASP761  ALA762  ILE779  LEU786  VAL792 
 PHE793  MET794  SER795  GLU796  ALA797  LYS798  CYS799  TRP800  GLU811  SER814 

> <Gold.Protein.RotatedAtoms>
  151.2443  133.4383  159.2608 H   0  0  0  0  0  0  0  0  0  0  0  0  # atno 6907 bound_to 6896
  151.0676  134.9777  159.8302 H   0  0  0  0  0  0  0  0  0  0  0  0  # atno 6908 bound_to 6896
  152.5407  134.2390  159.8907 H   0  0  0  0  0  0  0  0  0  0  0  0  # atno 6909 bound_to 6896
  145.8398  140.8424  143.0040 H   0  0  0  0  0  0  0  0  0  0  0  0  # atno 7974 bound_to 7965
  155.7299  140.0800  157.2293 H   0  0  0  0  0  0  0  0  0  0  0  0  # atno 8008 bound_to 7997
  154.4034  140.1597  156.2551 H   0  0  0  0  0  0  0  0  0  0  0  0  # atno 8009 bound_to 7997
  155.9119  140.3403  155.6108 H   0  0  0  0  0  0  0  0  0  0  0  0  # atno 8010 bound_to 7997
  140.2547  144.3440  150.6337 H   0  0  0  0  0  0  0  0  0  0  0  0  # atno 10167 bound_to 10162
  156.2117  130.6923  151.0657 H   0  0  0  0  0  0  0  0  0  0  0  0  # atno 10718 bound_to 10713
  153.3627  135.6991  153.6700 H   0  0  0  0  0  0  0  0  0  0  0  0  # atno 10763 bound_to 10752
  153.5382  135.3578  155.2707 H   0  0  0  0  0  0  0  0  0  0  0  0  # atno 10764 bound_to 10752
  154.8670  135.4197  154.2887 H   0  0  0  0  0  0  0  0  0  0  0  0  # atno 10765 bound_to 10752
  140.8644  133.7765  156.0113 H   0  0  0  0  0  0  0  0  0  0  0  0  # atno 11005 bound_to 11000
  144.6734  140.0796  143.7470 LP  0  0  0  0  0  0  0  0  0  0  0  0  # atno 17320 bound_to 7965
  145.9477  139.2712  143.1230 LP  0  0  0  0  0  0  0  0  0  0  0  0  # atno 17321 bound_to 7965
  140.6013  143.2167  151.7066 LP  0  0  0  0  0  0  0  0  0  0  0  0  # atno 17342 bound_to 10162
  139.5035  144.3788  152.0397 LP  0  0  0  0  0  0  0  0  0  0  0  0  # atno 17343 bound_to 10162
  157.7042  131.0763  150.6722 LP  0  0  0  0  0  0  0  0  0  0  0  0  # atno 17370 bound_to 10713
  156.6781  130.4559  149.5636 LP  0  0  0  0  0  0  0  0  0  0  0  0  # atno 17371 bound_to 10713
  140.8645  134.2800  157.5219 LP  0  0  0  0  0  0  0  0  0  0  0  0  # atno 17394 bound_to 11000
  139.8708  134.9535  156.4148 LP  0  0  0  0  0  0  0  0  0  0  0  0  # atno 17395 bound_to 11000

$$$$
