AV-unprocessed.smi:611|AV-procd|sdf|3061|dock9
  -GOLD-   2262023583D 1   1.00000     0.00000
 Structure written by MMmdl.
 41 42  0  0  0  0  0  0  0  0  1 V2000
  144.0641  131.5929  150.8732 C   0  0  0  0  0  0  0  0  0  0  0  0
  144.9500  132.4920  149.9787 C   0  0  0  0  0  0  0  0  0  0  0  0
  146.3710  131.9038  149.9036 C   0  0  0  0  0  0  0  0  0  0  0  0
  144.3041  132.4650  148.5732 C   0  0  0  0  0  0  0  0  0  0  0  0
  145.0153  133.9274  150.5292 C   0  0  0  0  0  0  0  0  0  0  0  0
  143.8671  134.4713  150.9544 N   0  0  0  0  0  0  0  0  0  0  0  0
  143.9241  135.6857  151.5421 C   0  0  0  0  0  0  0  0  0  0  0  0
  145.1538  136.3590  151.7354 C   0  0  0  0  0  0  0  0  0  0  0  0
  145.3068  137.6291  152.3524 N   0  0  0  0  0  0  0  0  0  0  0  0
  146.3165  138.5114  152.2213 C   0  0  0  0  0  0  0  0  0  0  0  0
  147.3008  138.3479  151.5042 O   0  0  0  0  0  0  0  0  0  0  0  0
  146.1819  139.6173  152.9760 N   0  0  0  0  0  0  0  0  0  0  0  0
  147.0879  140.7650  153.0730 C   0  0  0  0  0  0  0  0  0  0  0  0
  148.1654  140.5171  154.1468 C   0  0  0  0  0  0  0  0  0  0  0  0
  148.2090  141.7815  155.0065 C   0  0  0  0  0  0  0  0  0  0  0  0
  146.7875  142.3294  154.9407 C   0  0  0  0  0  0  0  0  0  0  0  0
  146.3445  142.0462  153.5054 C   0  0  0  0  0  0  0  0  0  0  0  0
  146.3036  135.6693  151.3033 C   0  0  0  0  0  0  0  0  0  0  0  0
  146.2319  134.4561  150.7165 N   0  0  0  0  0  0  0  0  0  0  0  0
  143.9712  130.5883  150.4590 H   0  0  0  0  0  0  0  0  0  0  0  0
  143.0575  132.0006  150.9725 H   0  0  0  0  0  0  0  0  0  0  0  0
  144.4759  131.4814  151.8770 H   0  0  0  0  0  0  0  0  0  0  0  0
  146.8413  131.8769  150.8872 H   0  0  0  0  0  0  0  0  0  0  0  0
  147.0108  132.4970  149.2493 H   0  0  0  0  0  0  0  0  0  0  0  0
  146.3597  130.8845  149.5164 H   0  0  0  0  0  0  0  0  0  0  0  0
  144.2093  131.4450  148.1989 H   0  0  0  0  0  0  0  0  0  0  0  0
  144.8967  133.0139  147.8405 H   0  0  0  0  0  0  0  0  0  0  0  0
  143.3054  132.9035  148.5864 H   0  0  0  0  0  0  0  0  0  0  0  0
  142.9783  136.0873  151.8701 H   0  0  0  0  0  0  0  0  0  0  0  0
  144.5948  137.8725  153.0256 H   0  0  0  0  0  0  0  0  0  0  0  0
  145.3612  139.6602  153.5625 H   0  0  0  0  0  0  0  0  0  0  0  0
  147.5774  140.9317  152.1118 H   0  0  0  0  0  0  0  0  0  0  0  0
  147.8918  139.6707  154.7789 H   0  0  0  0  0  0  0  0  0  0  0  0
  149.1380  140.2893  153.7096 H   0  0  0  0  0  0  0  0  0  0  0  0
  148.5379  141.5848  156.0273 H   0  0  0  0  0  0  0  0  0  0  0  0
  148.9000  142.5019  154.5669 H   0  0  0  0  0  0  0  0  0  0  0  0
  146.1502  141.7828  155.6372 H   0  0  0  0  0  0  0  0  0  0  0  0
  146.7319  143.3878  155.1962 H   0  0  0  0  0  0  0  0  0  0  0  0
  146.6557  142.8724  152.8649 H   0  0  0  0  0  0  0  0  0  0  0  0
  145.2592  141.9713  153.4239 H   0  0  0  0  0  0  0  0  0  0  0  0
  147.2903  136.0909  151.4289 H   0  0  0  0  0  0  0  0  0  0  0  0
  1  2  1  0  0  0  0
  1 20  1  0  0  0  0
  1 21  1  0  0  0  0
  1 22  1  0  0  0  0
  2  3  1  0  0  0  0
  2  4  1  0  0  0  0
  2  5  1  0  0  0  0
  3 23  1  0  0  0  0
  3 24  1  0  0  0  0
  3 25  1  0  0  0  0
  4 26  1  0  0  0  0
  4 27  1  0  0  0  0
  4 28  1  0  0  0  0
  5 19  1  0  0  0  0
  5  6  2  0  0  0  0
  6  7  1  0  0  0  0
  7  8  2  0  0  0  0
  7 29  1  0  0  0  0
  8  9  1  0  0  0  0
  8 18  1  0  0  0  0
  9 10  1  0  0  0  0
  9 30  1  0  0  0  0
 10 11  2  0  0  0  0
 10 12  1  0  0  0  0
 12 13  1  0  0  0  0
 12 31  1  0  0  0  0
 13 17  1  0  0  0  0
 13 14  1  0  0  0  0
 13 32  1  0  0  0  0
 14 15  1  0  0  0  0
 14 33  1  0  0  0  0
 14 34  1  0  0  0  0
 15 16  1  0  0  0  0
 15 35  1  0  0  0  0
 15 36  1  0  0  0  0
 16 17  1  0  0  0  0
 16 37  1  0  0  0  0
 16 38  1  0  0  0  0
 17 39  1  0  0  0  0
 17 40  1  0  0  0  0
 18 19  2  0  0  0  0
 18 41  1  0  0  0  0
M  END
> <s_m_source_file>
AV-unprocessed.smi

> <i_m_source_file_index>
611

> <i_lp_mmshare_version>
43012

> <i_f3d_flags>
0

> <s_epik_input>
W0NIM11DKFtDSDNdKShbQ0gzXSljMW5bY0hdYyhbY0hdbjEpW05IXUMoPU8pW05IXVtDSF0yW0NIMl1bQ0gyXVtDSDJdW0NIMl0y

> <s_epik_cmdline>
J2VwaWtfcHl0aG9uJywgJy1waCcsICc3LjAnLCAnLXRuJywgJzgnLCAnLW1hJywgJzIwMCcsICctbWV0YWxfYmluZGluZycsICctaW1hZScsICc8aW5maWxlLm1hZT4nLCAnLW9tYWUnLCAnPG91dGZpbGUubWFlPic=

> <r_lp_tautomer_probability>
1

> <r_epik_Ionization_Penalty>
2.83035e-05

> <r_epik_Ionization_Penalty_Charging>
0

> <r_epik_Ionization_Penalty_Neutral>
2.83035e-05

> <r_epik_State_Penalty>
-0

> <r_epik_Charging_Adjusted_Penalty>
0

> <i_epik_Tot_Q>
0

> <i_epik_Tot_abs_Q>
0

> <r_epik_Metal_State_Penalty>
-0

> <b_epik_Metal_Only>
0

> <s_lp_Force_Field>
OPLS_2005

> <r_lp_Energy>
27.5905

> <b_lp_Chiralities_Consistent>
1

> <s_lp_Variant>
AV-unprocessed.smi:611-1

> <Gold.Version>
5.8.1

> <Gold.Id.Protein>
6NUR|6NUR_protein|mol2

> <Gold.PLP.Fitness>
39.9723

> <Gold.PLP.PLP>
-35.5099

> <Gold.PLP.part.hbond>
-2.1684

> <Gold.PLP.part.metal>
0.0000

> <Gold.PLP.part.buried>
-1.4906

> <Gold.PLP.part.nonpolar>
-35.7174

> <Gold.PLP.part.repulsive>
4.6572

> <Gold.PLP.ligand.clash>
0.0000

> <Gold.PLP.ligand.torsion>
0.8352

> <Gold.PLP.Chemscore.Hbond>
1.0000

> <Gold.PLP.Chemscore.CHOScore>
1.0000

> <Gold.PLP.Chemscore.Metal>
0.0000

> <Gold.Chemscore.Hbonds>
donor molecule, donor type, donor heavy atom, donor atom, acceptor molecule, acceptor atom, score
      L1  H    12    31       P1 10175  0.15
      P1  H  7954  7966       L1    11  1.00
      L1  C    18    41       P1  7948  0.13

> <Gold.PLP.Chemscore.Internal.Correction>
0.1329

> <Gold.Rescore>
     Score         DG    S(hbond)    S(metal)    S(lipo)     H(rot)  DE(clash)    DE(int)     intcor
     13.70     -17.10       0.98        0.00      96.85       1.16       1.57       1.83       ----

> <Gold.Chemscore.Fitness>
13.7039

> <Gold.Chemscore.DG>
-17.0994

> <Gold.Chemscore.ZeroCoef>
-5.4800

> <Gold.Chemscore.Hbond>
0.9781

> <Gold.Chemscore.Metal>
0.0000

> <Gold.Chemscore.Lipo>
96.8529

> <Gold.Chemscore.Internal_Hbond>
0.0000

> <Gold.Chemscore.DEClash>
1.5665

> <Gold.Chemscore.DEInternal>
1.8291

> <Gold.Chemscore.Rot>
1.1637

> <Gold.Chemscore.Internal.Correction>
   9.000000E+99

> <Gold.Chemscore.Hbonds>
donor molecule, donor type, donor heavy atom, donor atom, acceptor molecule, acceptor atom, score
      L1  H    12    31       P1 10175  0.15
      P1  H  7954  7966       L1    11  0.99

> <Gold.Chemscore.Hbond.Weighted>
-3.2667

> <Gold.Chemscore.Metal.Weighted>
-0.0000

> <Gold.Chemscore.Lipo.Weighted>
-11.3318

> <Gold.Chemscore.Internal_Hbond.Weighted>
0.0000

> <Gold.Chemscore.DEClash.Weighted>
1.5665

> <Gold.Chemscore.DEInternal.Weighted>
1.8291

> <Gold.Chemscore.Rot.Weighted>
2.9790

> <Gold.Chemscore.Internal.Correction.Weighted>
   9.000000E+99

> <Gold.Protein.RotatedTorsions>
[ 6907 6896 6895 6894 ] final   -1.21 input  -60.11 | X-H torsion
[ 7974 7965 7964 7962 ] final -162.05 input  175.53 | X-H torsion
[ 8008 7997 7996 7995 ] final  115.43 input   59.86 | X-H torsion
[ 10167 10162 10161 10158 ] final  -29.57 input  -65.29 | X-H torsion
[ 10718 10713 10712 10709 ] final  -59.83 input   66.30 | X-H torsion
[ 10763 10752 10751 10750 ] final   63.04 input  -60.55 | X-H torsion
[ 11005 11000 10999 10996 ] final   13.07 input  -57.11 | X-H torsion

> <Gold.Protein.ActiveResidues>
 VAL166  LYS551  ARG553  GLY616  TRP617  ASP618  TYR619  PRO620  LYS621  CYS622 
 ASP623  PHE694  ASN695  SER759  ASP760  ASP761  ALA762  ILE779  LEU786  VAL792 
 PHE793  MET794  SER795  GLU796  ALA797  LYS798  CYS799  TRP800  GLU811  SER814 

> <Gold.Protein.RotatedAtoms>
  151.5498  135.1067  159.9946 H   0  0  0  0  0  0  0  0  0  0  0  0  # atno 6907 bound_to 6896
  152.4497  133.7600  159.6752 H   0  0  0  0  0  0  0  0  0  0  0  0  # atno 6908 bound_to 6896
  150.8421  133.7852  159.3081 H   0  0  0  0  0  0  0  0  0  0  0  0  # atno 6909 bound_to 6896
  144.7370  140.3309  143.6153 H   0  0  0  0  0  0  0  0  0  0  0  0  # atno 7974 bound_to 7965
  156.2381  140.2938  156.0367 H   0  0  0  0  0  0  0  0  0  0  0  0  # atno 8008 bound_to 7997
  155.2033  140.0410  157.2938 H   0  0  0  0  0  0  0  0  0  0  0  0  # atno 8009 bound_to 7997
  154.6116  140.2453  155.7669 H   0  0  0  0  0  0  0  0  0  0  0  0  # atno 8010 bound_to 7997
  140.7259  143.3918  151.1417 H   0  0  0  0  0  0  0  0  0  0  0  0  # atno 10167 bound_to 10162
  156.1033  130.4183  150.0770 H   0  0  0  0  0  0  0  0  0  0  0  0  # atno 10718 bound_to 10713
  153.0004  135.5443  154.6289 H   0  0  0  0  0  0  0  0  0  0  0  0  # atno 10763 bound_to 10752
  154.5571  135.2831  155.0956 H   0  0  0  0  0  0  0  0  0  0  0  0  # atno 10764 bound_to 10752
  154.2173  135.6457  153.5186 H   0  0  0  0  0  0  0  0  0  0  0  0  # atno 10765 bound_to 10752
  140.4849  134.0899  155.7758 H   0  0  0  0  0  0  0  0  0  0  0  0  # atno 11005 bound_to 11000
  145.7473  139.1782  143.2342 LP  0  0  0  0  0  0  0  0  0  0  0  0  # atno 17320 bound_to 7965
  146.1088  140.7454  142.9513 LP  0  0  0  0  0  0  0  0  0  0  0  0  # atno 17321 bound_to 7965
  139.7524  143.8759  152.3080 LP  0  0  0  0  0  0  0  0  0  0  0  0  # atno 17342 bound_to 10162
  139.8617  144.7114  150.9092 LP  0  0  0  0  0  0  0  0  0  0  0  0  # atno 17343 bound_to 10162
  156.8751  130.9537  151.3605 LP  0  0  0  0  0  0  0  0  0  0  0  0  # atno 17370 bound_to 10713
  157.6207  130.8653  149.9104 LP  0  0  0  0  0  0  0  0  0  0  0  0  # atno 17371 bound_to 10713
  141.1513  133.8963  157.2090 LP  0  0  0  0  0  0  0  0  0  0  0  0  # atno 17394 bound_to 11000
  139.9804  135.0100  156.9736 LP  0  0  0  0  0  0  0  0  0  0  0  0  # atno 17395 bound_to 11000

$$$$
