AV-unprocessed.smi:2493|AV-procd|sdf|9820|dock7
  -GOLD-   2272013453D 1   1.00000     0.00000
 Structure written by MMmdl.
 41 42  0  0  0  0  0  0  0  0  1 V2000
  152.6129  144.3922  157.5154 C   0  0  0  0  0  0  0  0  0  0  0  0
  152.0965  143.2993  158.4802 C   0  0  0  0  0  0  0  0  0  0  0  0
  151.4056  142.1721  157.6607 C   0  0  0  0  0  0  0  0  0  0  0  0
  150.0318  142.4866  157.2699 N   0  0  0  0  0  0  0  0  0  0  0  0
  148.9683  141.6807  157.4181 C   0  0  0  0  0  0  0  0  0  0  0  0
  149.0320  140.5497  157.9000 O   0  0  0  0  0  0  0  0  0  0  0  0
  147.6247  142.2337  156.9424 C   0  0  0  0  0  0  0  0  0  0  0  0
  147.2977  141.6969  155.5749 C   0  0  0  0  0  0  0  0  0  0  0  0
  148.1297  141.6833  154.4159 C   0  0  0  0  0  0  0  0  0  0  0  0
  147.3576  141.0912  153.4576 C   0  0  0  0  0  0  0  0  0  0  0  0
  146.1549  140.7935  154.0530 N   0  0  0  0  0  0  0  0  0  0  0  0
  146.1050  141.1612  155.3469 N   0  0  0  0  0  0  0  0  0  0  0  0
  153.3314  142.6939  159.2033 C   0  0  0  0  0  0  0  0  0  0  0  0
  153.0579  141.9427  160.5200 C   0  0  0  0  0  0  0  0  0  0  0  0
  153.1024  142.8643  161.7509 C   0  0  0  0  0  0  0  0  0  0  0  0
  151.9007  143.8101  161.8854 C   0  0  0  0  0  0  0  0  0  0  0  0
  151.6479  144.7055  160.6601 C   0  0  0  0  0  0  0  0  0  0  0  0
  151.0685  143.9311  159.4614 C   0  0  0  0  0  0  0  0  0  0  0  0
  145.3714  140.3483  153.5962 H   0  0  0  0  0  0  0  0  0  0  0  0
  153.2967  143.9744  156.7754 H   0  0  0  0  0  0  0  0  0  0  0  0
  153.1501  145.1774  158.0475 H   0  0  0  0  0  0  0  0  0  0  0  0
  151.8022  144.8777  156.9723 H   0  0  0  0  0  0  0  0  0  0  0  0
  152.0008  141.9201  156.7812 H   0  0  0  0  0  0  0  0  0  0  0  0
  151.3618  141.2577  158.2525 H   0  0  0  0  0  0  0  0  0  0  0  0
  149.8754  143.3980  156.8642 H   0  0  0  0  0  0  0  0  0  0  0  0
  146.8459  141.9762  157.6621 H   0  0  0  0  0  0  0  0  0  0  0  0
  147.6738  143.3229  156.9187 H   0  0  0  0  0  0  0  0  0  0  0  0
  149.1396  142.0504  154.3089 H   0  0  0  0  0  0  0  0  0  0  0  0
  147.5597  140.8622  152.4216 H   0  0  0  0  0  0  0  0  0  0  0  0
  153.8387  142.0146  158.5169 H   0  0  0  0  0  0  0  0  0  0  0  0
  154.0690  143.4727  159.4017 H   0  0  0  0  0  0  0  0  0  0  0  0
  152.1205  141.3876  160.4789 H   0  0  0  0  0  0  0  0  0  0  0  0
  153.8394  141.1924  160.6455 H   0  0  0  0  0  0  0  0  0  0  0  0
  153.1521  142.2468  162.6484 H   0  0  0  0  0  0  0  0  0  0  0  0
  154.0262  143.4445  161.7430 H   0  0  0  0  0  0  0  0  0  0  0  0
  151.0034  143.2325  162.1104 H   0  0  0  0  0  0  0  0  0  0  0  0
  152.0649  144.4471  162.7551 H   0  0  0  0  0  0  0  0  0  0  0  0
  150.9181  145.4607  160.9536 H   0  0  0  0  0  0  0  0  0  0  0  0
  152.5468  145.2567  160.3840 H   0  0  0  0  0  0  0  0  0  0  0  0
  150.4205  144.6066  158.9011 H   0  0  0  0  0  0  0  0  0  0  0  0
  150.3956  143.1607  159.8408 H   0  0  0  0  0  0  0  0  0  0  0  0
  1  2  1  0  0  0  0
  1 20  1  0  0  0  0
  1 21  1  0  0  0  0
  1 22  1  0  0  0  0
  2 18  1  0  0  0  0
  2  3  1  0  0  0  0
  2 13  1  0  0  0  0
  3  4  1  0  0  0  0
  3 23  1  0  0  0  0
  3 24  1  0  0  0  0
  4  5  1  0  0  0  0
  4 25  1  0  0  0  0
  5  6  2  0  0  0  0
  5  7  1  0  0  0  0
  7 26  1  0  0  0  0
  7 27  1  0  0  0  0
  7  8  1  0  0  0  0
  8 12  2  0  0  0  0
  8  9  1  0  0  0  0
  9 10  2  0  0  0  0
  9 28  1  0  0  0  0
 10 11  1  0  0  0  0
 10 29  1  0  0  0  0
 11 12  1  0  0  0  0
 11 19  1  0  0  0  0
 13 14  1  0  0  0  0
 13 30  1  0  0  0  0
 13 31  1  0  0  0  0
 14 15  1  0  0  0  0
 14 32  1  0  0  0  0
 14 33  1  0  0  0  0
 15 16  1  0  0  0  0
 15 34  1  0  0  0  0
 15 35  1  0  0  0  0
 16 17  1  0  0  0  0
 16 36  1  0  0  0  0
 16 37  1  0  0  0  0
 17 18  1  0  0  0  0
 17 38  1  0  0  0  0
 17 39  1  0  0  0  0
 18 40  1  0  0  0  0
 18 41  1  0  0  0  0
M  END
> <s_m_source_file>
AV-unprocessed.smi

> <i_m_source_file_index>
2493

> <i_lp_mmshare_version>
43012

> <i_f3d_flags>
0

> <s_epik_input>
W0NIMl0xW0NIMl1bQ0gyXVtDSDJdW0NIMl1bQ0gyXUMxKFtDSDNdKVtDSDJdW05IXUMoPU8pW0NIMl1jMltjSF1bY0hdbltuSF0y

> <s_epik_cmdline>
J2VwaWtfcHl0aG9uJywgJy1waCcsICc3LjAnLCAnLXRuJywgJzgnLCAnLW1hJywgJzIwMCcsICctbWV0YWxfYmluZGluZycsICctaW1hZScsICc8aW5maWxlLm1hZT4nLCAnLW9tYWUnLCAnPG91dGZpbGUubWFlPic=

> <r_lp_tautomer_probability>
0.5

> <r_epik_Ionization_Penalty>
1.58956e-05

> <r_epik_Ionization_Penalty_Charging>
0

> <r_epik_Ionization_Penalty_Neutral>
1.58956e-05

> <r_epik_State_Penalty>
0.41068

> <r_epik_Charging_Adjusted_Penalty>
0.41068

> <i_epik_Tot_Q>
0

> <i_epik_Tot_abs_Q>
0

> <r_epik_Metal_State_Penalty>
0.410685

> <b_epik_Metal_Only>
0

> <s_lp_Force_Field>
OPLS_2005

> <r_lp_Energy>
20.7964

> <b_lp_Chiralities_Consistent>
1

> <s_lp_Variant>
AV-unprocessed.smi:2493-2

> <Gold.Version>
5.8.1

> <Gold.Id.Protein>
6NUR|6NUR_protein|mol2

> <Gold.PLP.Fitness>
46.5922

> <Gold.PLP.PLP>
-39.0922

> <Gold.PLP.part.hbond>
-2.0000

> <Gold.PLP.part.metal>
0.0000

> <Gold.PLP.part.buried>
-3.3812

> <Gold.PLP.part.nonpolar>
-33.3058

> <Gold.PLP.part.repulsive>
0.1176

> <Gold.PLP.ligand.clash>
0.0000

> <Gold.PLP.ligand.torsion>
0.7329

> <Gold.PLP.Chemscore.Hbond>
1.9833

> <Gold.PLP.Chemscore.CHOScore>
1.0000

> <Gold.PLP.Chemscore.Metal>
0.0000

> <Gold.Chemscore.Hbonds>
donor molecule, donor type, donor heavy atom, donor atom, acceptor molecule, acceptor atom, score
      L1  H     4    25       P1  8028  0.99
      L1  H    11    19       P1 10175  0.99
      L1  C    10    29       P1  7957  1.00

> <Gold.PLP.Chemscore.Internal.Correction>
0.0161

> <Gold.Rescore>
     Score         DG    S(hbond)    S(metal)    S(lipo)     H(rot)  DE(clash)    DE(int)     intcor
     21.11     -22.46       1.96        0.00     125.39       1.66       0.37       0.97       ----

> <Gold.Chemscore.Fitness>
21.1093

> <Gold.Chemscore.DG>
-22.4551

> <Gold.Chemscore.ZeroCoef>
-5.4800

> <Gold.Chemscore.Hbond>
1.9617

> <Gold.Chemscore.Metal>
0.0000

> <Gold.Chemscore.Lipo>
125.3896

> <Gold.Chemscore.Internal_Hbond>
0.0000

> <Gold.Chemscore.DEClash>
0.3736

> <Gold.Chemscore.DEInternal>
0.9722

> <Gold.Chemscore.Rot>
1.6592

> <Gold.Chemscore.Internal.Correction>
   9.000000E+99

> <Gold.Chemscore.Hbonds>
donor molecule, donor type, donor heavy atom, donor atom, acceptor molecule, acceptor atom, score
      L1  H     4    25       P1  8028  0.90
      L1  H    11    19       P1 10175  0.88

> <Gold.Chemscore.Hbond.Weighted>
-6.5520

> <Gold.Chemscore.Metal.Weighted>
-0.0000

> <Gold.Chemscore.Lipo.Weighted>
-14.6706

> <Gold.Chemscore.Internal_Hbond.Weighted>
0.0000

> <Gold.Chemscore.DEClash.Weighted>
0.3736

> <Gold.Chemscore.DEInternal.Weighted>
0.9722

> <Gold.Chemscore.Rot.Weighted>
4.2475

> <Gold.Chemscore.Internal.Correction.Weighted>
   9.000000E+99

> <Gold.Protein.RotatedTorsions>
[ 6907 6896 6895 6894 ] final  137.20 input  -60.11 | X-H torsion
[ 7974 7965 7964 7962 ] final  -46.98 input  175.53 | X-H torsion
[ 8008 7997 7996 7995 ] final  -63.21 input   59.86 | X-H torsion
[ 10167 10162 10161 10158 ] final   -7.96 input  -65.29 | X-H torsion
[ 10718 10713 10712 10709 ] final  108.81 input   66.30 | X-H torsion
[ 10763 10752 10751 10750 ] final  157.61 input  -60.55 | X-H torsion
[ 11005 11000 10999 10996 ] final  -54.81 input  -57.11 | X-H torsion

> <Gold.Protein.ActiveResidues>
 VAL166  LYS551  ARG553  GLY616  TRP617  ASP618  TYR619  PRO620  LYS621  CYS622 
 ASP623  PHE694  ASN695  SER759  ASP760  ASP761  ALA762  ILE779  LEU786  VAL792 
 PHE793  MET794  SER795  GLU796  ALA797  LYS798  CYS799  TRP800  GLU811  SER814 

> <Gold.Protein.RotatedAtoms>
  152.2807  133.5468  159.5495 H   0  0  0  0  0  0  0  0  0  0  0  0  # atno 6907 bound_to 6896
  150.7195  134.0568  159.3826 H   0  0  0  0  0  0  0  0  0  0  0  0  # atno 6908 bound_to 6896
  151.8478  135.0568  160.0506 H   0  0  0  0  0  0  0  0  0  0  0  0  # atno 6909 bound_to 6896
  145.9663  140.7428  142.9432 H   0  0  0  0  0  0  0  0  0  0  0  0  # atno 7974 bound_to 7965
  154.4542  140.0979  156.6707 H   0  0  0  0  0  0  0  0  0  0  0  0  # atno 8008 bound_to 7997
  155.5191  140.3478  155.4385 H   0  0  0  0  0  0  0  0  0  0  0  0  # atno 8009 bound_to 7997
  156.0743  140.1357  156.9780 H   0  0  0  0  0  0  0  0  0  0  0  0  # atno 8010 bound_to 7997
  140.7045  143.6022  150.8786 H   0  0  0  0  0  0  0  0  0  0  0  0  # atno 10167 bound_to 10162
  157.6569  131.0901  150.6361 H   0  0  0  0  0  0  0  0  0  0  0  0  # atno 10718 bound_to 10713
  154.2030  135.2789  155.2984 H   0  0  0  0  0  0  0  0  0  0  0  0  # atno 10763 bound_to 10752
  154.5839  135.5581  153.7215 H   0  0  0  0  0  0  0  0  0  0  0  0  # atno 10764 bound_to 10752
  153.0083  135.6351  154.2169 H   0  0  0  0  0  0  0  0  0  0  0  0  # atno 10765 bound_to 10752
  141.1043  133.6615  156.4375 H   0  0  0  0  0  0  0  0  0  0  0  0  # atno 11005 bound_to 11000
  144.6826  140.2675  143.7310 LP  0  0  0  0  0  0  0  0  0  0  0  0  # atno 17320 bound_to 7965
  145.7969  139.1949  143.2071 LP  0  0  0  0  0  0  0  0  0  0  0  0  # atno 17321 bound_to 7965
  139.9746  143.6018  152.2962 LP  0  0  0  0  0  0  0  0  0  0  0  0  # atno 17342 bound_to 10162
  139.6617  144.7662  151.1949 LP  0  0  0  0  0  0  0  0  0  0  0  0  # atno 17343 bound_to 10162
  156.6667  130.4528  149.5670 LP  0  0  0  0  0  0  0  0  0  0  0  0  # atno 17370 bound_to 10713
  156.2027  130.6630  151.1185 LP  0  0  0  0  0  0  0  0  0  0  0  0  # atno 17371 bound_to 10713
  140.4941  134.6547  157.5222 LP  0  0  0  0  0  0  0  0  0  0  0  0  # atno 17394 bound_to 11000
  139.9907  134.6989  155.9694 LP  0  0  0  0  0  0  0  0  0  0  0  0  # atno 17395 bound_to 11000

$$$$
