AV-unprocessed.smi:1282|AV-procd|sdf|5360|dock6
  -GOLD-   22720 4503D 1   1.00000     0.00000
 Structure written by MMmdl.
 36 37  0  0  0  0  0  0  0  0  1 V2000
  152.0315  144.7392  159.2538 C   0  0  0  0  0  0  0  0  0  0  0  0
  151.9530  143.3539  158.9666 O   0  0  0  0  0  0  0  0  0  0  0  0
  151.3128  143.0926  157.7291 C   0  0  0  0  0  0  0  0  0  0  0  0
  151.2263  141.5785  157.5177 C   0  0  0  0  0  0  0  0  0  0  0  0
  151.0529  141.3245  156.1272 O   0  0  0  0  0  0  0  0  0  0  0  0
  150.8369  140.0255  155.7152 C   0  0  0  0  0  0  0  0  0  0  0  0
  151.0766  138.9814  156.6301 C   0  0  0  0  0  0  0  0  0  0  0  0
  150.8616  137.6520  156.2189 C   0  0  0  0  0  0  0  0  0  0  0  0
  150.4207  137.4078  154.8963 C   0  0  0  0  0  0  0  0  0  0  0  0
  150.1506  136.1169  154.3665 N   0  0  0  0  0  0  0  0  0  0  0  0
  150.2712  134.9184  154.9660 C   0  0  0  0  0  0  0  0  0  0  0  0
  150.6822  134.7498  156.1141 O   0  0  0  0  0  0  0  0  0  0  0  0
  149.8804  133.7119  154.1013 C   0  0  0  0  0  0  0  0  0  0  0  0
  148.3696  133.5721  153.8430 C   0  0  0  0  0  0  0  0  0  0  0  0
  148.5055  132.0709  154.1145 C   0  0  0  0  0  0  0  0  0  0  0  0
  149.8111  132.3723  154.8566 C   0  0  0  0  0  0  0  0  0  0  0  0
  150.1961  138.5239  154.0637 C   0  0  0  0  0  0  0  0  0  0  0  0
  150.3996  139.8006  154.4518 N   0  0  0  0  0  0  0  0  0  0  0  0
  152.5364  144.8879  160.2083 H   0  0  0  0  0  0  0  0  0  0  0  0
  151.0379  145.1833  159.3262 H   0  0  0  0  0  0  0  0  0  0  0  0
  152.5974  145.2703  158.4874 H   0  0  0  0  0  0  0  0  0  0  0  0
  150.3112  143.5255  157.7262 H   0  0  0  0  0  0  0  0  0  0  0  0
  151.8742  143.5516  156.9138 H   0  0  0  0  0  0  0  0  0  0  0  0
  152.1401  141.1026  157.8779 H   0  0  0  0  0  0  0  0  0  0  0  0
  150.3870  141.1763  158.0877 H   0  0  0  0  0  0  0  0  0  0  0  0
  151.4157  139.1965  157.6327 H   0  0  0  0  0  0  0  0  0  0  0  0
  151.0252  136.8551  156.9272 H   0  0  0  0  0  0  0  0  0  0  0  0
  149.8831  136.0969  153.3931 H   0  0  0  0  0  0  0  0  0  0  0  0
  150.4599  133.6295  153.1796 H   0  0  0  0  0  0  0  0  0  0  0  0
  147.7390  134.0773  154.5771 H   0  0  0  0  0  0  0  0  0  0  0  0
  148.0633  133.8120  152.8245 H   0  0  0  0  0  0  0  0  0  0  0  0
  147.7159  131.6462  154.7351 H   0  0  0  0  0  0  0  0  0  0  0  0
  148.6623  131.4907  153.2039 H   0  0  0  0  0  0  0  0  0  0  0  0
  150.6225  131.6822  154.6235 H   0  0  0  0  0  0  0  0  0  0  0  0
  149.6693  132.4683  155.9346 H   0  0  0  0  0  0  0  0  0  0  0  0
  149.8459  138.3901  153.0506 H   0  0  0  0  0  0  0  0  0  0  0  0
  1  2  1  0  0  0  0
  1 19  1  0  0  0  0
  1 20  1  0  0  0  0
  1 21  1  0  0  0  0
  2  3  1  0  0  0  0
  3  4  1  0  0  0  0
  3 22  1  0  0  0  0
  3 23  1  0  0  0  0
  4  5  1  0  0  0  0
  4 24  1  0  0  0  0
  4 25  1  0  0  0  0
  5  6  1  0  0  0  0
  6 18  1  0  0  0  0
  6  7  2  0  0  0  0
  7  8  1  0  0  0  0
  7 26  1  0  0  0  0
  8  9  2  0  0  0  0
  8 27  1  0  0  0  0
  9 10  1  0  0  0  0
  9 17  1  0  0  0  0
 10 11  1  0  0  0  0
 10 28  1  0  0  0  0
 11 12  2  0  0  0  0
 11 13  1  0  0  0  0
 13 16  1  0  0  0  0
 13 14  1  0  0  0  0
 13 29  1  0  0  0  0
 14 15  1  0  0  0  0
 14 30  1  0  0  0  0
 14 31  1  0  0  0  0
 15 16  1  0  0  0  0
 15 32  1  0  0  0  0
 15 33  1  0  0  0  0
 16 34  1  0  0  0  0
 16 35  1  0  0  0  0
 17 18  2  0  0  0  0
 17 36  1  0  0  0  0
M  END
> <s_m_source_file>
AV-unprocessed.smi

> <i_m_source_file_index>
1282

> <i_lp_mmshare_version>
43012

> <i_f3d_flags>
0

> <s_epik_input>
W0NIM11PW0NIMl1bQ0gyXU9jMVtjSF1bY0hdYyhbY0hdbjEpW05IXUMoPU8pW0NIXTJbQ0gyXVtDSDJdW0NIMl0y

> <s_epik_cmdline>
J2VwaWtfcHl0aG9uJywgJy1waCcsICc3LjAnLCAnLXRuJywgJzgnLCAnLW1hJywgJzIwMCcsICctbWV0YWxfYmluZGluZycsICctaW1hZScsICc8aW5maWxlLm1hZT4nLCAnLW9tYWUnLCAnPG91dGZpbGUubWFlPic=

> <r_lp_tautomer_probability>
1

> <r_epik_Ionization_Penalty>
2.67646e-05

> <r_epik_Ionization_Penalty_Charging>
0

> <r_epik_Ionization_Penalty_Neutral>
2.67646e-05

> <r_epik_State_Penalty>
-0

> <r_epik_Charging_Adjusted_Penalty>
0

> <i_epik_Tot_Q>
0

> <i_epik_Tot_abs_Q>
0

> <r_epik_Metal_State_Penalty>
-0

> <b_epik_Metal_Only>
0

> <s_lp_Force_Field>
OPLS_2005

> <r_lp_Energy>
17.3297

> <b_lp_Chiralities_Consistent>
1

> <s_lp_Variant>
AV-unprocessed.smi:1282-1

> <Gold.Version>
5.8.1

> <Gold.Id.Protein>
6NUR|6NUR_protein|mol2

> <Gold.PLP.Fitness>
42.6355

> <Gold.PLP.PLP>
-32.3979

> <Gold.PLP.part.hbond>
-2.8671

> <Gold.PLP.part.metal>
0.0000

> <Gold.PLP.part.buried>
-5.5014

> <Gold.PLP.part.nonpolar>
-26.1260

> <Gold.PLP.part.repulsive>
0.2508

> <Gold.PLP.ligand.clash>
0.0481

> <Gold.PLP.ligand.torsion>
0.4678

> <Gold.PLP.Chemscore.Hbond>
1.7000

> <Gold.PLP.Chemscore.CHOScore>
1.9007

> <Gold.PLP.Chemscore.Metal>
0.0000

> <Gold.Chemscore.Hbonds>
donor molecule, donor type, donor heavy atom, donor atom, acceptor molecule, acceptor atom, score
      L1  H    10    28       P1  7948  0.65
      P1  H  7989  7998       L1    18  1.00
      L1  C    17    36       P1  7948  0.89
      L1  C    17    36       P1  7957  1.00

> <Gold.PLP.Chemscore.Internal.Correction>
0.4191

> <Gold.Rescore>
     Score         DG    S(hbond)    S(metal)    S(lipo)     H(rot)  DE(clash)    DE(int)     intcor
     11.00     -12.73       0.99        0.00      72.16       1.76       0.06       1.67       ----

> <Gold.Chemscore.Fitness>
10.9987

> <Gold.Chemscore.DG>
-12.7264

> <Gold.Chemscore.ZeroCoef>
-5.4800

> <Gold.Chemscore.Hbond>
0.9935

> <Gold.Chemscore.Metal>
0.0000

> <Gold.Chemscore.Lipo>
72.1576

> <Gold.Chemscore.Internal_Hbond>
0.0000

> <Gold.Chemscore.DEClash>
0.0580

> <Gold.Chemscore.DEInternal>
1.6697

> <Gold.Chemscore.Rot>
1.7634

> <Gold.Chemscore.Internal.Correction>
   9.000000E+99

> <Gold.Chemscore.Hbonds>
donor molecule, donor type, donor heavy atom, donor atom, acceptor molecule, acceptor atom, score
      L1  H    10    28       P1  7948  0.06
      P1  H  7989  7998       L1    18  0.25

> <Gold.Chemscore.Hbond.Weighted>
-3.3181

> <Gold.Chemscore.Metal.Weighted>
-0.0000

> <Gold.Chemscore.Lipo.Weighted>
-8.4424

> <Gold.Chemscore.Internal_Hbond.Weighted>
0.0000

> <Gold.Chemscore.DEClash.Weighted>
0.0580

> <Gold.Chemscore.DEInternal.Weighted>
1.6697

> <Gold.Chemscore.Rot.Weighted>
4.5142

> <Gold.Chemscore.Internal.Correction.Weighted>
   9.000000E+99

> <Gold.Protein.RotatedTorsions>
[ 6907 6896 6895 6894 ] final   23.35 input  -60.11 | X-H torsion
[ 7974 7965 7964 7962 ] final   74.55 input  175.53 | X-H torsion
[ 8008 7997 7996 7995 ] final  135.99 input   59.86 | X-H torsion
[ 10167 10162 10161 10158 ] final  -36.54 input  -65.29 | X-H torsion
[ 10718 10713 10712 10709 ] final   54.56 input   66.30 | X-H torsion
[ 10763 10752 10751 10750 ] final  148.99 input  -60.55 | X-H torsion
[ 11005 11000 10999 10996 ] final  177.42 input  -57.11 | X-H torsion

> <Gold.Protein.ActiveResidues>
 VAL166  LYS551  ARG553  GLY616  TRP617  ASP618  TYR619  PRO620  LYS621  CYS622 
 ASP623  PHE694  ASN695  SER759  ASP760  ASP761  ALA762  ILE779  LEU786  VAL792 
 PHE793  MET794  SER795  GLU796  ALA797  LYS798  CYS799  TRP800  GLU811  SER814 

> <Gold.Protein.RotatedAtoms>
  151.9411  135.0213  160.0535 H   0  0  0  0  0  0  0  0  0  0  0  0  # atno 6907 bound_to 6896
  152.2036  133.4854  159.5080 H   0  0  0  0  0  0  0  0  0  0  0  0  # atno 6908 bound_to 6896
  150.6960  134.1476  159.4171 H   0  0  0  0  0  0  0  0  0  0  0  0  # atno 6909 bound_to 6896
  145.7268  139.2669  143.1564 H   0  0  0  0  0  0  0  0  0  0  0  0  # atno 7974 bound_to 7965
  156.3004  140.2456  156.3672 H   0  0  0  0  0  0  0  0  0  0  0  0  # atno 8008 bound_to 7997
  154.8822  140.0412  157.1808 H   0  0  0  0  0  0  0  0  0  0  0  0  # atno 8009 bound_to 7997
  154.8684  140.2931  155.5500 H   0  0  0  0  0  0  0  0  0  0  0  0  # atno 8010 bound_to 7997
  140.7140  143.3402  151.2374 H   0  0  0  0  0  0  0  0  0  0  0  0  # atno 10167 bound_to 10162
  157.5268  130.8602  149.8632 H   0  0  0  0  0  0  0  0  0  0  0  0  # atno 10718 bound_to 10713
  154.0639  135.2872  155.3320 H   0  0  0  0  0  0  0  0  0  0  0  0  # atno 10763 bound_to 10752
  154.6790  135.5270  153.8241 H   0  0  0  0  0  0  0  0  0  0  0  0  # atno 10764 bound_to 10752
  153.0512  135.6577  154.0825 H   0  0  0  0  0  0  0  0  0  0  0  0  # atno 10765 bound_to 10752
  140.3839  134.6922  157.4467 H   0  0  0  0  0  0  0  0  0  0  0  0  # atno 11005 bound_to 11000
  146.0574  140.8006  142.9751 LP  0  0  0  0  0  0  0  0  0  0  0  0  # atno 17320 bound_to 7965
  144.6903  140.3145  143.7242 LP  0  0  0  0  0  0  0  0  0  0  0  0  # atno 17321 bound_to 7965
  139.6907  143.9696  152.2858 LP  0  0  0  0  0  0  0  0  0  0  0  0  # atno 17342 bound_to 10162
  139.9357  144.6713  150.8317 LP  0  0  0  0  0  0  0  0  0  0  0  0  # atno 17343 bound_to 10162
  156.0393  130.3743  150.1478 LP  0  0  0  0  0  0  0  0  0  0  0  0  # atno 17370 bound_to 10713
  156.9664  130.9821  151.3468 LP  0  0  0  0  0  0  0  0  0  0  0  0  # atno 17371 bound_to 10713
  140.0458  134.6202  155.8923 LP  0  0  0  0  0  0  0  0  0  0  0  0  # atno 17394 bound_to 11000
  141.1914  133.6571  156.5455 LP  0  0  0  0  0  0  0  0  0  0  0  0  # atno 17395 bound_to 11000

$$$$
