AV-unprocessed.smi:1372|AV-procd|sdf|5582|dock5
  -GOLD-   22720 5183D 1   1.00000     0.00000
 Structure written by MMmdl.
 41 43  0  0  0  0  0  0  0  0  1 V2000
  152.1449  137.7654  158.4276 C   0  0  0  0  0  0  0  0  0  0  0  0
  151.5614  137.0548  156.8350 S   0  0  0  0  0  0  0  0  0  0  0  0
  152.4220  135.9098  156.4998 O   0  0  0  0  0  0  0  0  0  0  0  0
  150.1046  136.8709  156.9175 O   0  0  0  0  0  0  0  0  0  0  0  0
  151.9231  138.4327  155.6566 C   0  0  0  0  0  0  0  0  0  0  0  0
  150.6711  138.9952  155.0415 C   0  0  0  0  0  0  0  0  0  0  0  0
  149.8470  138.2628  154.2890 N   0  0  0  0  0  0  0  0  0  0  0  0
  148.8555  139.1603  153.9489 C   0  0  0  0  0  0  0  0  0  0  0  0
  147.6876  138.9892  153.1718 C   0  0  0  0  0  0  0  0  0  0  0  0
  146.8092  140.0715  152.9560 C   0  0  0  0  0  0  0  0  0  0  0  0
  147.0864  141.3372  153.5120 C   0  0  0  0  0  0  0  0  0  0  0  0
  148.2453  141.5283  154.2887 C   0  0  0  0  0  0  0  0  0  0  0  0
  149.1174  140.4440  154.5023 C   0  0  0  0  0  0  0  0  0  0  0  0
  150.3119  140.2966  155.2006 N   0  0  0  0  0  0  0  0  0  0  0  0
  150.9978  141.3542  155.9328 C   0  0  0  0  0  0  0  0  0  0  0  0
  150.3446  141.6450  157.2996 C   0  0  2  0  0  0  0  0  0  0  0  0
  149.0991  142.2714  157.0692 O   0  0  0  0  0  0  0  0  0  0  0  0
  151.2428  142.4633  158.2175 C   0  0  0  0  0  0  0  0  0  0  0  0
  151.5282  143.8091  157.9024 C   0  0  0  0  0  0  0  0  0  0  0  0
  152.3435  144.5807  158.7526 C   0  0  0  0  0  0  0  0  0  0  0  0
  152.8738  144.0130  159.9269 C   0  0  0  0  0  0  0  0  0  0  0  0
  152.5917  142.6717  160.2483 C   0  0  0  0  0  0  0  0  0  0  0  0
  151.7808  141.8980  159.3955 C   0  0  0  0  0  0  0  0  0  0  0  0
  151.9951  137.0370  159.2243 H   0  0  0  0  0  0  0  0  0  0  0  0
  151.5778  138.6684  158.6530 H   0  0  0  0  0  0  0  0  0  0  0  0
  153.2047  138.0083  158.3539 H   0  0  0  0  0  0  0  0  0  0  0  0
  152.4538  139.1979  156.2173 H   0  0  0  0  0  0  0  0  0  0  0  0
  152.5850  138.0621  154.8745 H   0  0  0  0  0  0  0  0  0  0  0  0
  147.4676  138.0232  152.7419 H   0  0  0  0  0  0  0  0  0  0  0  0
  145.9192  139.9297  152.3606 H   0  0  0  0  0  0  0  0  0  0  0  0
  146.4090  142.1613  153.3419 H   0  0  0  0  0  0  0  0  0  0  0  0
  148.4606  142.4961  154.7163 H   0  0  0  0  0  0  0  0  0  0  0  0
  152.0558  141.1160  156.0399 H   0  0  0  0  0  0  0  0  0  0  0  0
  150.9606  142.2514  155.3133 H   0  0  0  0  0  0  0  0  0  0  0  0
  150.1196  140.6991  157.7941 H   0  0  0  0  0  0  0  0  0  0  0  0
  149.2596  143.1491  156.7574 H   0  0  0  0  0  0  0  0  0  0  0  0
  151.1150  144.2574  157.0105 H   0  0  0  0  0  0  0  0  0  0  0  0
  152.5545  145.6113  158.5080 H   0  0  0  0  0  0  0  0  0  0  0  0
  153.4938  144.6075  160.5816 H   0  0  0  0  0  0  0  0  0  0  0  0
  152.9956  142.2368  161.1506 H   0  0  0  0  0  0  0  0  0  0  0  0
  151.5649  140.8719  159.6554 H   0  0  0  0  0  0  0  0  0  0  0  0
  1  2  1  0  0  0  0
  1 24  1  0  0  0  0
  1 25  1  0  0  0  0
  1 26  1  0  0  0  0
  2  3  2  0  0  0  0
  2  4  2  0  0  0  0
  2  5  1  0  0  0  0
  5  6  1  0  0  0  0
  5 27  1  0  0  0  0
  5 28  1  0  0  0  0
  6 14  1  0  0  0  0
  6  7  2  0  0  0  0
  7  8  1  0  0  0  0
  8 13  2  0  0  0  0
  8  9  1  0  0  0  0
  9 10  2  0  0  0  0
  9 29  1  0  0  0  0
 10 11  1  0  0  0  0
 10 30  1  0  0  0  0
 11 12  2  0  0  0  0
 11 31  1  0  0  0  0
 12 13  1  0  0  0  0
 12 32  1  0  0  0  0
 13 14  1  0  0  0  0
 14 15  1  0  0  0  0
 15 16  1  0  0  0  0
 15 33  1  0  0  0  0
 15 34  1  0  0  0  0
 16 17  1  0  0  0  0
 16 18  1  0  0  0  0
 16 35  1  0  0  0  0
 17 36  1  0  0  0  0
 18 23  1  0  0  0  0
 18 19  2  0  0  0  0
 19 20  1  0  0  0  0
 19 37  1  0  0  0  0
 20 21  2  0  0  0  0
 20 38  1  0  0  0  0
 21 22  1  0  0  0  0
 21 39  1  0  0  0  0
 22 23  2  0  0  0  0
 22 40  1  0  0  0  0
 23 41  1  0  0  0  0
M  END
> <s_m_source_file>
AV-unprocessed.smi

> <i_m_source_file_index>
1372

> <i_lp_mmshare_version>
43012

> <i_f3d_flags>
0

> <s_epik_input>
W2NIXTFbY0hdW2NIXVtjSF1jKGMxMiluKGMobjIpW0NIMl1TKD1PKSg9TylbQ0gzXSlbQ0gyXVtDQEhdKFtPSF0pYzNbY0hdW2NIXVtjSF1bY0hdW2NIXTM=

> <s_epik_cmdline>
J2VwaWtfcHl0aG9uJywgJy1waCcsICc3LjAnLCAnLXRuJywgJzgnLCAnLW1hJywgJzIwMCcsICctbWV0YWxfYmluZGluZycsICctaW1hZScsICc8aW5maWxlLm1hZT4nLCAnLW9tYWUnLCAnPG91dGZpbGUubWFlPic=

> <r_epik_Ionization_Penalty>
0.0151431

> <r_epik_Ionization_Penalty_Charging>
0

> <r_epik_Ionization_Penalty_Neutral>
0.0151431

> <r_epik_State_Penalty>
0.0118835

> <r_epik_Charging_Adjusted_Penalty>
0.0118835

> <i_epik_Tot_Q>
0

> <i_epik_Tot_abs_Q>
0

> <r_epik_Metal_State_Penalty>
1.20034e-05

> <b_epik_Metal_Only>
0

> <s_lp_Force_Field>
OPLS_2005

> <r_lp_Energy>
10.1971

> <b_lp_Chiralities_Consistent>
1

> <s_lp_Variant>
AV-unprocessed.smi:1372-1

> <Gold.Version>
5.8.1

> <Gold.Id.Protein>
6NUR|6NUR_protein|mol2

> <Gold.PLP.Fitness>
51.8723

> <Gold.PLP.PLP>
-46.6950

> <Gold.PLP.part.hbond>
-2.0000

> <Gold.PLP.part.metal>
0.0000

> <Gold.PLP.part.buried>
-1.0263

> <Gold.PLP.part.nonpolar>
-42.8592

> <Gold.PLP.part.repulsive>
0.2279

> <Gold.PLP.ligand.clash>
0.0000

> <Gold.PLP.ligand.torsion>
0.4675

> <Gold.PLP.Chemscore.Hbond>
2.0000

> <Gold.PLP.Chemscore.CHOScore>
0.0000

> <Gold.PLP.Chemscore.Metal>
0.0000

> <Gold.Chemscore.Hbonds>
donor molecule, donor type, donor heavy atom, donor atom, acceptor molecule, acceptor atom, score
      L1  H    17    36       P1  8028  1.00
      P1  H 10752 10763       L1     3  1.00

> <Gold.PLP.Chemscore.Internal.Correction>
0.1123

> <Gold.Rescore>
     Score         DG    S(hbond)    S(metal)    S(lipo)     H(rot)  DE(clash)    DE(int)     intcor
     21.05     -22.15       1.98        0.00     137.02       2.33       0.50       0.60       ----

> <Gold.Chemscore.Fitness>
21.0525

> <Gold.Chemscore.DG>
-22.1505

> <Gold.Chemscore.ZeroCoef>
-5.4800

> <Gold.Chemscore.Hbond>
1.9776

> <Gold.Chemscore.Metal>
0.0000

> <Gold.Chemscore.Lipo>
137.0244

> <Gold.Chemscore.Internal_Hbond>
0.0000

> <Gold.Chemscore.DEClash>
0.4953

> <Gold.Chemscore.DEInternal>
0.6027

> <Gold.Chemscore.Rot>
2.3306

> <Gold.Chemscore.Internal.Correction>
   9.000000E+99

> <Gold.Chemscore.Hbonds>
donor molecule, donor type, donor heavy atom, donor atom, acceptor molecule, acceptor atom, score
      L1  H    17    36       P1  8028  0.95
      P1  H 10752 10763       L1     3  0.98

> <Gold.Chemscore.Hbond.Weighted>
-6.6050

> <Gold.Chemscore.Metal.Weighted>
-0.0000

> <Gold.Chemscore.Lipo.Weighted>
-16.0318

> <Gold.Chemscore.Internal_Hbond.Weighted>
0.0000

> <Gold.Chemscore.DEClash.Weighted>
0.4953

> <Gold.Chemscore.DEInternal.Weighted>
0.6027

> <Gold.Chemscore.Rot.Weighted>
5.9664

> <Gold.Chemscore.Internal.Correction.Weighted>
   9.000000E+99

> <Gold.Protein.RotatedTorsions>
[ 6907 6896 6895 6894 ] final   -5.98 input  -60.11 | X-H torsion
[ 7974 7965 7964 7962 ] final  -58.12 input  175.53 | X-H torsion
[ 8008 7997 7996 7995 ] final -112.35 input   59.86 | X-H torsion
[ 10167 10162 10161 10158 ] final  171.17 input  -65.29 | X-H torsion
[ 10718 10713 10712 10709 ] final   70.85 input   66.30 | X-H torsion
[ 10763 10752 10751 10750 ] final   84.43 input  -60.55 | X-H torsion
[ 11005 11000 10999 10996 ] final   23.94 input  -57.11 | X-H torsion

> <Gold.Protein.ActiveResidues>
 VAL166  LYS551  ARG553  GLY616  TRP617  ASP618  TYR619  PRO620  LYS621  CYS622 
 ASP623  PHE694  ASN695  SER759  ASP760  ASP761  ALA762  ILE779  LEU786  VAL792 
 PHE793  MET794  SER795  GLU796  ALA797  LYS798  CYS799  TRP800  GLU811  SER814 

> <Gold.Protein.RotatedAtoms>
  151.4729  135.1047  159.9756 H   0  0  0  0  0  0  0  0  0  0  0  0  # atno 6907 bound_to 6896
  152.4809  133.8249  159.7083 H   0  0  0  0  0  0  0  0  0  0  0  0  # atno 6908 bound_to 6896
  150.8881  133.7219  159.2939 H   0  0  0  0  0  0  0  0  0  0  0  0  # atno 6909 bound_to 6896
  145.8430  140.8404  143.0025 H   0  0  0  0  0  0  0  0  0  0  0  0  # atno 7974 bound_to 7965
  155.0039  140.0394  157.2371 H   0  0  0  0  0  0  0  0  0  0  0  0  # atno 8008 bound_to 7997
  154.7519  140.2768  155.6262 H   0  0  0  0  0  0  0  0  0  0  0  0  # atno 8009 bound_to 7997
  156.2887  140.2645  156.2275 H   0  0  0  0  0  0  0  0  0  0  0  0  # atno 8010 bound_to 7997
  139.5039  144.3515  151.9917 H   0  0  0  0  0  0  0  0  0  0  0  0  # atno 10167 bound_to 10162
  157.6421  130.9498  150.0708 H   0  0  0  0  0  0  0  0  0  0  0  0  # atno 10718 bound_to 10713
  153.1381  135.4654  154.9454 H   0  0  0  0  0  0  0  0  0  0  0  0  # atno 10763 bound_to 10752
  154.7724  135.3163  154.8165 H   0  0  0  0  0  0  0  0  0  0  0  0  # atno 10764 bound_to 10752
  153.8693  135.6905  153.4830 H   0  0  0  0  0  0  0  0  0  0  0  0  # atno 10765 bound_to 10752
  140.3642  134.2093  155.7670 H   0  0  0  0  0  0  0  0  0  0  0  0  # atno 11005 bound_to 11000
  144.6732  140.0840  143.7468 LP  0  0  0  0  0  0  0  0  0  0  0  0  # atno 17320 bound_to 7965
  145.9444  139.2690  143.1250 LP  0  0  0  0  0  0  0  0  0  0  0  0  # atno 17321 bound_to 7965
  140.2952  144.3709  150.6076 LP  0  0  0  0  0  0  0  0  0  0  0  0  # atno 17342 bound_to 10162
  140.5916  143.2168  151.7242 LP  0  0  0  0  0  0  0  0  0  0  0  0  # atno 17343 bound_to 10162
  156.1712  130.3646  149.9162 LP  0  0  0  0  0  0  0  0  0  0  0  0  # atno 17370 bound_to 10713
  156.7137  130.8980  151.3612 LP  0  0  0  0  0  0  0  0  0  0  0  0  # atno 17371 bound_to 10713
  141.1975  133.8058  157.0626 LP  0  0  0  0  0  0  0  0  0  0  0  0  # atno 17394 bound_to 11000
  140.0603  134.9758  157.1292 LP  0  0  0  0  0  0  0  0  0  0  0  0  # atno 17395 bound_to 11000

$$$$
