AV-unprocessed.smi:2000|AV-procd|sdf|8100|dock2
  -GOLD-   2272010323D 1   1.00000     0.00000
 Structure written by MMmdl.
 43 44  0  0  0  0  0  0  0  0  1 V2000
  150.2662  138.5722  154.8239 C   0  0  0  0  0  0  0  0  0  0  0  0
  150.3278  138.3415  156.3419 C   0  0  2  0  0  0  0  0  0  0  0  0
  151.5581  139.0170  156.9620 C   0  0  0  0  0  0  0  0  0  0  0  0
  152.6875  138.7566  156.5473 O   0  0  0  0  0  0  0  0  0  0  0  0
  151.3240  139.8903  157.9546 N   0  0  0  0  0  0  0  0  0  0  0  0
  152.3527  140.6373  158.6723 C   0  0  0  0  0  0  0  0  0  0  0  0
  152.1271  142.1496  158.6804 C   0  0  0  0  0  0  0  0  0  0  0  0
  151.5977  142.7839  157.5338 C   0  0  0  0  0  0  0  0  0  0  0  0
  151.4147  144.1778  157.5345 C   0  0  0  0  0  0  0  0  0  0  0  0
  151.7824  144.8957  158.6857 C   0  0  0  0  0  0  0  0  0  0  0  0
  152.3020  144.3110  159.7838 N   0  0  0  0  0  0  0  0  0  0  0  0
  152.4768  142.9664  159.7908 C   0  0  0  0  0  0  0  0  0  0  0  0
  153.0025  142.3960  160.9637 N   0  0  0  0  0  0  0  0  0  0  0  0
  153.0858  143.3440  162.0672 C   0  0  0  0  0  0  0  0  0  0  0  0
  153.4465  142.6047  163.3670 C   0  0  0  0  0  0  0  0  0  0  0  0
  154.6566  141.8744  163.1834 O   0  0  0  0  0  0  0  0  0  0  0  0
  154.5452  140.9015  162.1480 C   0  0  0  0  0  0  0  0  0  0  0  0
  154.2166  141.5999  160.8174 C   0  0  0  0  0  0  0  0  0  0  0  0
  150.3413  136.5212  156.6994 S   0  0  0  0  0  0  0  0  0  0  0  0
  148.7996  135.9226  155.8892 C   0  0  0  0  0  0  0  0  0  0  0  0
  151.4885  135.9315  155.9926 O   0  0  0  0  0  0  0  0  0  0  0  0
  150.2062  136.3135  158.1496 O   0  0  0  0  0  0  0  0  0  0  0  0
  150.2658  139.6359  154.5841 H   0  0  0  0  0  0  0  0  0  0  0  0
  149.3580  138.1404  154.4025 H   0  0  0  0  0  0  0  0  0  0  0  0
  151.1144  138.1137  154.3139 H   0  0  0  0  0  0  0  0  0  0  0  0
  149.4233  138.7483  156.7956 H   0  0  0  0  0  0  0  0  0  0  0  0
  150.3667  140.0541  158.2307 H   0  0  0  0  0  0  0  0  0  0  0  0
  152.4530  140.2288  159.6777 H   0  0  0  0  0  0  0  0  0  0  0  0
  153.3062  140.4477  158.1795 H   0  0  0  0  0  0  0  0  0  0  0  0
  151.3348  142.2122  156.6562 H   0  0  0  0  0  0  0  0  0  0  0  0
  151.0068  144.6841  156.6724 H   0  0  0  0  0  0  0  0  0  0  0  0
  151.6596  145.9679  158.7250 H   0  0  0  0  0  0  0  0  0  0  0  0
  153.8445  144.0944  161.8405 H   0  0  0  0  0  0  0  0  0  0  0  0
  152.1407  143.8728  162.1882 H   0  0  0  0  0  0  0  0  0  0  0  0
  153.5810  143.3177  164.1805 H   0  0  0  0  0  0  0  0  0  0  0  0
  152.6429  141.9288  163.6645 H   0  0  0  0  0  0  0  0  0  0  0  0
  155.4876  140.3599  162.0660 H   0  0  0  0  0  0  0  0  0  0  0  0
  153.7773  140.1695  162.4039 H   0  0  0  0  0  0  0  0  0  0  0  0
  154.0814  140.8606  160.0269 H   0  0  0  0  0  0  0  0  0  0  0  0
  155.0497  142.2413  160.5260 H   0  0  0  0  0  0  0  0  0  0  0  0
  148.7746  134.8337  155.9252 H   0  0  0  0  0  0  0  0  0  0  0  0
  148.7776  136.2505  154.8503 H   0  0  0  0  0  0  0  0  0  0  0  0
  147.9314  136.3129  156.4186 H   0  0  0  0  0  0  0  0  0  0  0  0
  1  2  1  0  0  0  0
  1 23  1  0  0  0  0
  1 24  1  0  0  0  0
  1 25  1  0  0  0  0
  2  3  1  0  0  0  0
  2 19  1  0  0  0  0
  2 26  1  0  0  0  0
  3  4  2  0  0  0  0
  3  5  1  0  0  0  0
  5  6  1  0  0  0  0
  5 27  1  0  0  0  0
  6  7  1  0  0  0  0
  6 28  1  0  0  0  0
  6 29  1  0  0  0  0
  7 12  1  0  0  0  0
  7  8  2  0  0  0  0
  8  9  1  0  0  0  0
  8 30  1  0  0  0  0
  9 10  2  0  0  0  0
  9 31  1  0  0  0  0
 10 11  1  0  0  0  0
 10 32  1  0  0  0  0
 11 12  2  0  0  0  0
 12 13  1  0  0  0  0
 13 18  1  0  0  0  0
 13 14  1  0  0  0  0
 14 15  1  0  0  0  0
 14 33  1  0  0  0  0
 14 34  1  0  0  0  0
 15 16  1  0  0  0  0
 15 35  1  0  0  0  0
 15 36  1  0  0  0  0
 16 17  1  0  0  0  0
 17 18  1  0  0  0  0
 17 37  1  0  0  0  0
 17 38  1  0  0  0  0
 18 39  1  0  0  0  0
 18 40  1  0  0  0  0
 19 20  1  0  0  0  0
 19 21  2  0  0  0  0
 19 22  2  0  0  0  0
 20 41  1  0  0  0  0
 20 42  1  0  0  0  0
 20 43  1  0  0  0  0
M  END
> <s_m_source_file>
AV-unprocessed.smi

> <i_m_source_file_index>
2000

> <i_lp_mmshare_version>
43012

> <i_f3d_flags>
0

> <s_epik_input>
W0NIM11TKD1PKSg9TylbQ0BIXShbQ0gzXSlDKD1PKVtOSF1bQ0gyXWMxW2NIXVtjSF1bY0hdbmMxTjJbQ0gyXVtDSDJdT1tDSDJdW0NIMl0y

> <s_epik_cmdline>
J2VwaWtfcHl0aG9uJywgJy1waCcsICc3LjAnLCAnLXRuJywgJzgnLCAnLW1hJywgJzIwMCcsICctbWV0YWxfYmluZGluZycsICctaW1hZScsICc8aW5maWxlLm1hZT4nLCAnLW9tYWUnLCAnPG91dGZpbGUubWFlPic=

> <r_lp_tautomer_probability>
1

> <r_epik_Ionization_Penalty>
0.00349769

> <r_epik_Ionization_Penalty_Charging>
0

> <r_epik_Ionization_Penalty_Neutral>
0.00349769

> <r_epik_State_Penalty>
0.00248024

> <r_epik_Charging_Adjusted_Penalty>
0.00248024

> <i_epik_Tot_Q>
0

> <i_epik_Tot_abs_Q>
0

> <r_epik_Metal_State_Penalty>
-0

> <b_epik_Metal_Only>
0

> <s_lp_Force_Field>
OPLS_2005

> <r_lp_Energy>
16.3383

> <b_lp_Chiralities_Consistent>
1

> <s_lp_Variant>
AV-unprocessed.smi:2000-1

> <Gold.Version>
5.8.1

> <Gold.Id.Protein>
6NUR|6NUR_protein|mol2

> <Gold.PLP.Fitness>
46.5191

> <Gold.PLP.PLP>
-39.7835

> <Gold.PLP.part.hbond>
-4.0000

> <Gold.PLP.part.metal>
0.0000

> <Gold.PLP.part.buried>
-4.0366

> <Gold.PLP.part.nonpolar>
-30.9318

> <Gold.PLP.part.repulsive>
0.1510

> <Gold.PLP.ligand.clash>
0.0000

> <Gold.PLP.ligand.torsion>
0.5747

> <Gold.PLP.Chemscore.Hbond>
2.5117

> <Gold.PLP.Chemscore.CHOScore>
0.0000

> <Gold.PLP.Chemscore.Metal>
0.0000

> <Gold.Chemscore.Hbonds>
donor molecule, donor type, donor heavy atom, donor atom, acceptor molecule, acceptor atom, score
      P1  H  6896  6907       L1    22  0.53
      P1  H  7997  8010       L1     4  0.63
      P1  H 10752 10765       L1    21  1.00

> <Gold.PLP.Chemscore.Internal.Correction>
0.3501

> <Gold.Rescore>
     Score         DG    S(hbond)    S(metal)    S(lipo)     H(rot)  DE(clash)    DE(int)     intcor
     20.20     -22.32       2.85        0.00     107.94       2.08       0.46       1.66       ----

> <Gold.Chemscore.Fitness>
20.1988

> <Gold.Chemscore.DG>
-22.3179

> <Gold.Chemscore.ZeroCoef>
-5.4800

> <Gold.Chemscore.Hbond>
2.8515

> <Gold.Chemscore.Metal>
0.0000

> <Gold.Chemscore.Lipo>
107.9445

> <Gold.Chemscore.Internal_Hbond>
0.0000

> <Gold.Chemscore.DEClash>
0.4575

> <Gold.Chemscore.DEInternal>
1.6615

> <Gold.Chemscore.Rot>
2.0764

> <Gold.Chemscore.Internal.Correction>
   9.000000E+99

> <Gold.Chemscore.Hbonds>
donor molecule, donor type, donor heavy atom, donor atom, acceptor molecule, acceptor atom, score
      P1  H  6896  6907       L1    22  0.50
      P1  H  7997  8010       L1     4  0.61
      P1  H 10752 10765       L1    21  0.99

> <Gold.Chemscore.Hbond.Weighted>
-9.5239

> <Gold.Chemscore.Metal.Weighted>
-0.0000

> <Gold.Chemscore.Lipo.Weighted>
-12.6295

> <Gold.Chemscore.Internal_Hbond.Weighted>
0.0000

> <Gold.Chemscore.DEClash.Weighted>
0.4575

> <Gold.Chemscore.DEInternal.Weighted>
1.6615

> <Gold.Chemscore.Rot.Weighted>
5.3155

> <Gold.Chemscore.Internal.Correction.Weighted>
   9.000000E+99

> <Gold.Protein.RotatedTorsions>
[ 6907 6896 6895 6894 ] final  -48.06 input  -60.11 | X-H torsion
[ 7974 7965 7964 7962 ] final -150.10 input  175.53 | X-H torsion
[ 8008 7997 7996 7995 ] final   84.34 input   59.86 | X-H torsion
[ 10167 10162 10161 10158 ] final  162.00 input  -65.29 | X-H torsion
[ 10718 10713 10712 10709 ] final  166.57 input   66.30 | X-H torsion
[ 10763 10752 10751 10750 ] final -163.07 input  -60.55 | X-H torsion
[ 11005 11000 10999 10996 ] final  119.57 input  -57.11 | X-H torsion

> <Gold.Protein.ActiveResidues>
 VAL166  LYS551  ARG553  GLY616  TRP617  ASP618  TYR619  PRO620  LYS621  CYS622 
 ASP623  PHE694  ASN695  SER759  ASP760  ASP761  ALA762  ILE779  LEU786  VAL792 
 PHE793  MET794  SER795  GLU796  ALA797  LYS798  CYS799  TRP800  GLU811  SER814 

> <Gold.Protein.RotatedAtoms>
  150.8944  134.8351  159.7315 H   0  0  0  0  0  0  0  0  0  0  0  0  # atno 6907 bound_to 6896
  152.4856  134.4598  159.9611 H   0  0  0  0  0  0  0  0  0  0  0  0  # atno 6908 bound_to 6896
  151.4657  133.3542  159.2851 H   0  0  0  0  0  0  0  0  0  0  0  0  # atno 6909 bound_to 6896
  144.7928  140.4977  143.5761 H   0  0  0  0  0  0  0  0  0  0  0  0  # atno 7974 bound_to 7965
  155.9358  140.3411  155.6286 H   0  0  0  0  0  0  0  0  0  0  0  0  # atno 8008 bound_to 7997
  155.7101  140.0770  157.2393 H   0  0  0  0  0  0  0  0  0  0  0  0  # atno 8009 bound_to 7997
  154.4093  140.1624  156.2274 H   0  0  0  0  0  0  0  0  0  0  0  0  # atno 8010 bound_to 7997
  139.4855  144.4481  151.8865 H   0  0  0  0  0  0  0  0  0  0  0  0  # atno 10167 bound_to 10162
  157.0639  131.0347  151.2637 H   0  0  0  0  0  0  0  0  0  0  0  0  # atno 10718 bound_to 10713
  154.7156  135.3015  154.9129 H   0  0  0  0  0  0  0  0  0  0  0  0  # atno 10763 bound_to 10752
  154.0017  135.6706  153.4763 H   0  0  0  0  0  0  0  0  0  0  0  0  # atno 10764 bound_to 10752
  153.0791  135.5019  154.8380 H   0  0  0  0  0  0  0  0  0  0  0  0  # atno 10765 bound_to 10752
  139.9151  134.9629  156.7675 H   0  0  0  0  0  0  0  0  0  0  0  0  # atno 11005 bound_to 11000
  145.5751  139.1485  143.3266 LP  0  0  0  0  0  0  0  0  0  0  0  0  # atno 17320 bound_to 7965
  146.2185  140.5883  142.9027 LP  0  0  0  0  0  0  0  0  0  0  0  0  # atno 17321 bound_to 7965
  140.3936  144.2583  150.5898 LP  0  0  0  0  0  0  0  0  0  0  0  0  # atno 17342 bound_to 10162
  140.5123  143.2287  151.8517 LP  0  0  0  0  0  0  0  0  0  0  0  0  # atno 17343 bound_to 10162
  157.4932  130.7835  149.7529 LP  0  0  0  0  0  0  0  0  0  0  0  0  # atno 17370 bound_to 10713
  155.9970  130.3902  150.2756 LP  0  0  0  0  0  0  0  0  0  0  0  0  # atno 17371 bound_to 10713
  140.6647  133.9613  155.7824 LP  0  0  0  0  0  0  0  0  0  0  0  0  # atno 17394 bound_to 11000
  141.0619  134.0334  157.3647 LP  0  0  0  0  0  0  0  0  0  0  0  0  # atno 17395 bound_to 11000

$$$$
