AV-unprocessed.smi:221|AV-procd|sdf|1696|dock6
  -GOLD-   2262020143D 1   1.00000     0.00000
 Structure written by MMmdl.
 50 53  0  0  0  0  0  0  0  0  1 V2000
  147.2455  135.3627  153.5979 N   0  0  0  0  0  0  0  0  0  0  0  0
  147.7695  135.0192  154.7792 C   0  0  0  0  0  0  0  0  0  0  0  0
  147.0625  134.8414  155.7686 O   0  0  0  0  0  0  0  0  0  0  0  0
  149.2964  134.8387  154.8914 C   0  0  2  0  0  0  0  0  0  0  0  0
  149.6479  133.4275  155.3915 C   0  0  0  0  0  0  0  0  0  0  0  0
  151.0185  133.6127  156.0299 C   0  0  2  0  0  0  0  0  0  0  0  0
  151.3105  132.6538  156.9082 F   0  0  0  0  0  0  0  0  0  0  0  0
  150.9169  134.9921  156.6752 C   0  0  0  0  0  0  0  0  0  0  0  0
  149.9571  135.7278  155.8588 N   0  0  0  0  0  0  0  0  0  0  0  0
  150.1818  137.0458  155.6051 C   0  0  0  0  0  0  0  0  0  0  0  0
  149.7767  137.5783  154.4217 N   0  0  0  0  0  0  0  0  0  0  0  0
  149.9853  138.8693  154.1495 C   0  0  0  0  0  0  0  0  0  0  0  0
  150.5677  139.7976  154.9098 N   0  0  0  0  0  0  0  0  0  0  0  0
  150.9675  139.2766  156.1044 C   0  0  0  0  0  0  0  0  0  0  0  0
  150.8141  137.9262  156.5311 C   0  0  0  0  0  0  0  0  0  0  0  0
  151.3279  137.7798  157.8152 N   0  0  0  0  0  0  0  0  0  0  0  0
  151.7674  138.9687  158.1245 C   0  0  0  0  0  0  0  0  0  0  0  0
  151.5875  139.9288  157.1559 N   0  0  0  0  0  0  0  0  0  0  0  0
  151.9786  141.3252  157.2404 C   0  0  0  0  0  0  0  0  0  0  0  0
  151.4270  142.0248  158.5090 C   0  0  2  0  0  0  0  0  0  0  0  0
  150.4649  143.1788  158.1425 C   0  0  0  0  0  0  0  0  0  0  0  0
  151.0954  144.1262  157.3061 O   0  0  0  0  0  0  0  0  0  0  0  0
  152.5417  142.4906  159.4861 C   0  0  1  0  0  0  0  0  0  0  0  0
  152.0626  143.2213  160.7416 C   0  0  0  0  0  0  0  0  0  0  0  0
  152.8971  142.6138  161.8719 C   0  0  0  0  0  0  0  0  0  0  0  0
  153.9886  141.9887  161.2146 O   0  0  0  0  0  0  0  0  0  0  0  0
  153.4692  141.4002  160.0344 C   0  0  0  0  0  0  0  0  0  0  0  0
  149.7443  134.9791  153.9059 H   0  0  0  0  0  0  0  0  0  0  0  0
  151.7938  133.6089  155.2623 H   0  0  0  0  0  0  0  0  0  0  0  0
  146.2471  135.4838  153.5079 H   0  0  0  0  0  0  0  0  0  0  0  0
  147.8503  135.4985  152.8009 H   0  0  0  0  0  0  0  0  0  0  0  0
  148.9352  133.0933  156.1483 H   0  0  0  0  0  0  0  0  0  0  0  0
  149.6572  132.6869  154.5910 H   0  0  0  0  0  0  0  0  0  0  0  0
  150.5224  134.9186  157.6894 H   0  0  0  0  0  0  0  0  0  0  0  0
  151.8975  135.4678  156.7234 H   0  0  0  0  0  0  0  0  0  0  0  0
  149.6348  139.2063  153.1851 H   0  0  0  0  0  0  0  0  0  0  0  0
  152.2331  139.1817  159.0760 H   0  0  0  0  0  0  0  0  0  0  0  0
  153.0668  141.3596  157.2098 H   0  0  0  0  0  0  0  0  0  0  0  0
  151.6322  141.8315  156.3395 H   0  0  0  0  0  0  0  0  0  0  0  0
  150.8377  141.2814  159.0485 H   0  0  0  0  0  0  0  0  0  0  0  0
  149.5703  142.7979  157.6492 H   0  0  0  0  0  0  0  0  0  0  0  0
  150.1327  143.7124  159.0324 H   0  0  0  0  0  0  0  0  0  0  0  0
  150.4278  144.6249  156.8599 H   0  0  0  0  0  0  0  0  0  0  0  0
  153.1796  143.2029  158.9608 H   0  0  0  0  0  0  0  0  0  0  0  0
  152.2605  144.2900  160.6478 H   0  0  0  0  0  0  0  0  0  0  0  0
  150.9967  143.1097  160.9385 H   0  0  0  0  0  0  0  0  0  0  0  0
  153.2366  143.3587  162.5919 H   0  0  0  0  0  0  0  0  0  0  0  0
  152.3223  141.8572  162.4090 H   0  0  0  0  0  0  0  0  0  0  0  0
  152.9336  140.4905  160.3052 H   0  0  0  0  0  0  0  0  0  0  0  0
  154.2641  141.1347  159.3369 H   0  0  0  0  0  0  0  0  0  0  0  0
  1  2  1  0  0  0  0
  1 30  1  0  0  0  0
  1 31  1  0  0  0  0
  2  3  2  0  0  0  0
  2  4  1  0  0  0  0
  4 28  1  0  0  0  0
  4  9  1  0  0  0  0
  4  5  1  0  0  0  0
  5  6  1  0  0  0  0
  5 32  1  0  0  0  0
  5 33  1  0  0  0  0
  6 29  1  0  0  0  0
  6  7  1  0  0  0  0
  6  8  1  0  0  0  0
  8  9  1  0  0  0  0
  8 34  1  0  0  0  0
  8 35  1  0  0  0  0
  9 10  1  0  0  0  0
 10 15  1  0  0  0  0
 10 11  2  0  0  0  0
 11 12  1  0  0  0  0
 12 13  2  0  0  0  0
 12 36  1  0  0  0  0
 13 14  1  0  0  0  0
 14 18  1  0  0  0  0
 14 15  2  0  0  0  0
 15 16  1  0  0  0  0
 16 17  2  0  0  0  0
 17 18  1  0  0  0  0
 17 37  1  0  0  0  0
 18 19  1  0  0  0  0
 19 20  1  0  0  0  0
 19 38  1  0  0  0  0
 19 39  1  0  0  0  0
 20 21  1  0  0  0  0
 20 23  1  0  0  0  0
 20 40  1  0  0  0  0
 21 22  1  0  0  0  0
 21 41  1  0  0  0  0
 21 42  1  0  0  0  0
 22 43  1  0  0  0  0
 23 27  1  0  0  0  0
 23 24  1  0  0  0  0
 23 44  1  0  0  0  0
 24 25  1  0  0  0  0
 24 45  1  0  0  0  0
 24 46  1  0  0  0  0
 25 26  1  0  0  0  0
 25 47  1  0  0  0  0
 25 48  1  0  0  0  0
 26 27  1  0  0  0  0
 27 49  1  0  0  0  0
 27 50  1  0  0  0  0
M  END
> <s_m_source_file>
AV-unprocessed.smi

> <i_m_source_file_index>
221

> <i_lp_mmshare_version>
43012

> <i_f3d_flags>
0

> <s_epik_input>
W05IMl1DKD1PKVtDQEBIXTFbQ0gyXVtDQEBIXShGKVtDSDJdTjFjKG5bY0hdbjIpYyhjMjMpbltjSF1uM1tDSDJdW0NASF0oW0NIMl1bT0hdKVtDQEBIXTRbQ0gyXVtDSDJdT1tDSDJdNA==

> <s_epik_cmdline>
J2VwaWtfcHl0aG9uJywgJy1waCcsICc3LjAnLCAnLXRuJywgJzgnLCAnLW1hJywgJzIwMCcsICctbWV0YWxfYmluZGluZycsICctaW1hZScsICc8aW5maWxlLm1hZT4nLCAnLW9tYWUnLCAnPG91dGZpbGUubWFlPic=

> <r_lp_tautomer_probability>
1

> <r_epik_Ionization_Penalty>
0.000818822

> <r_epik_Ionization_Penalty_Charging>
0

> <r_epik_Ionization_Penalty_Neutral>
0.000818822

> <r_epik_State_Penalty>
0.000440551

> <r_epik_Charging_Adjusted_Penalty>
0.000440551

> <i_epik_Tot_Q>
0

> <i_epik_Tot_abs_Q>
0

> <r_epik_Metal_State_Penalty>
-0

> <b_epik_Metal_Only>
0

> <s_lp_Force_Field>
OPLS_2005

> <r_lp_Energy>
49.7935

> <b_lp_Chiralities_Consistent>
1

> <s_lp_Variant>
AV-unprocessed.smi:221-11

> <Gold.Version>
5.8.1

> <Gold.Id.Protein>
6NUR|6NUR_protein|mol2

> <Gold.PLP.Fitness>
49.8318

> <Gold.PLP.PLP>
-39.6741

> <Gold.PLP.part.hbond>
-3.9422

> <Gold.PLP.part.metal>
0.0000

> <Gold.PLP.part.buried>
-5.7331

> <Gold.PLP.part.nonpolar>
-30.1841

> <Gold.PLP.part.repulsive>
1.1354

> <Gold.PLP.ligand.clash>
0.0000

> <Gold.PLP.ligand.torsion>
1.0767

> <Gold.PLP.Chemscore.Hbond>
2.9913

> <Gold.PLP.Chemscore.CHOScore>
1.0000

> <Gold.PLP.Chemscore.Metal>
0.0000

> <Gold.Chemscore.Hbonds>
donor molecule, donor type, donor heavy atom, donor atom, acceptor molecule, acceptor atom, score
      L1  H     1    31       P1  7948  1.00
      L1  H    22    43       P1  8028  1.00
      P1  H  7989  7998       L1    13  0.91
      L1  C    12    36       P1  7957  1.00

> <Gold.PLP.Chemscore.Internal.Correction>
0.3373

> <Gold.Rescore>
     Score         DG    S(hbond)    S(metal)    S(lipo)     H(rot)  DE(clash)    DE(int)     intcor
     12.66     -16.01       2.58        0.00      88.70       3.31       2.22       1.13       ----

> <Gold.Chemscore.Fitness>
12.6592

> <Gold.Chemscore.DG>
-16.0054

> <Gold.Chemscore.ZeroCoef>
-5.4800

> <Gold.Chemscore.Hbond>
2.5802

> <Gold.Chemscore.Metal>
0.0000

> <Gold.Chemscore.Lipo>
88.7041

> <Gold.Chemscore.Internal_Hbond>
0.0000

> <Gold.Chemscore.DEClash>
2.2170

> <Gold.Chemscore.DEInternal>
1.1293

> <Gold.Chemscore.Rot>
3.3089

> <Gold.Chemscore.Internal.Correction>
   9.000000E+99

> <Gold.Chemscore.Hbonds>
donor molecule, donor type, donor heavy atom, donor atom, acceptor molecule, acceptor atom, score
      L1  H     1    31       P1  7948  0.98
      L1  H    22    43       P1  8028  0.79
      P1  H  7989  7998       L1    13  0.26

> <Gold.Chemscore.Hbond.Weighted>
-8.6179

> <Gold.Chemscore.Metal.Weighted>
-0.0000

> <Gold.Chemscore.Lipo.Weighted>
-10.3784

> <Gold.Chemscore.Internal_Hbond.Weighted>
0.0000

> <Gold.Chemscore.DEClash.Weighted>
2.2170

> <Gold.Chemscore.DEInternal.Weighted>
1.1293

> <Gold.Chemscore.Rot.Weighted>
8.4709

> <Gold.Chemscore.Internal.Correction.Weighted>
   9.000000E+99

> <Gold.Protein.RotatedTorsions>
[ 6907 6896 6895 6894 ] final  -79.44 input  -60.11 | X-H torsion
[ 7974 7965 7964 7962 ] final   33.93 input  175.53 | X-H torsion
[ 8008 7997 7996 7995 ] final   67.88 input   59.86 | X-H torsion
[ 10167 10162 10161 10158 ] final  -89.30 input  -65.29 | X-H torsion
[ 10718 10713 10712 10709 ] final  -30.38 input   66.30 | X-H torsion
[ 10763 10752 10751 10750 ] final  133.75 input  -60.55 | X-H torsion
[ 11005 11000 10999 10996 ] final   44.69 input  -57.11 | X-H torsion

> <Gold.Protein.ActiveResidues>
 VAL166  LYS551  ARG553  GLY616  TRP617  ASP618  TYR619  PRO620  LYS621  CYS622 
 ASP623  PHE694  ASN695  SER759  ASP760  ASP761  ALA762  ILE779  LEU786  VAL792 
 PHE793  MET794  SER795  GLU796  ALA797  LYS798  CYS799  TRP800  GLU811  SER814 

> <Gold.Protein.RotatedAtoms>
  150.6950  134.4121  159.5166 H   0  0  0  0  0  0  0  0  0  0  0  0  # atno 6907 bound_to 6896
  152.1877  134.8696  160.0529 H   0  0  0  0  0  0  0  0  0  0  0  0  # atno 6908 bound_to 6896
  151.9663  133.3676  159.4091 H   0  0  0  0  0  0  0  0  0  0  0  0  # atno 6909 bound_to 6896
  146.1388  139.6334  142.9177 H   0  0  0  0  0  0  0  0  0  0  0  0  # atno 7974 bound_to 7965
  155.6997  140.3495  155.4928 H   0  0  0  0  0  0  0  0  0  0  0  0  # atno 8008 bound_to 7997
  155.9452  140.1109  157.1045 H   0  0  0  0  0  0  0  0  0  0  0  0  # atno 8009 bound_to 7997
  154.4110  140.1205  156.4965 H   0  0  0  0  0  0  0  0  0  0  0  0  # atno 8010 bound_to 7997
  140.3662  143.2817  151.9555 H   0  0  0  0  0  0  0  0  0  0  0  0  # atno 10167 bound_to 10162
  156.4006  130.4389  149.7326 H   0  0  0  0  0  0  0  0  0  0  0  0  # atno 10718 bound_to 10713
  153.8123  135.3127  155.3402 H   0  0  0  0  0  0  0  0  0  0  0  0  # atno 10763 bound_to 10752
  154.8046  135.4705  154.0364 H   0  0  0  0  0  0  0  0  0  0  0  0  # atno 10764 bound_to 10752
  153.1746  135.6883  153.8650 H   0  0  0  0  0  0  0  0  0  0  0  0  # atno 10765 bound_to 10752
  140.1529  134.4439  155.8369 H   0  0  0  0  0  0  0  0  0  0  0  0  # atno 11005 bound_to 11000
  145.5095  141.0436  143.2495 LP  0  0  0  0  0  0  0  0  0  0  0  0  # atno 17320 bound_to 7965
  144.7769  139.6611  143.7171 LP  0  0  0  0  0  0  0  0  0  0  0  0  # atno 17321 bound_to 7965
  139.4808  144.5948  151.7709 LP  0  0  0  0  0  0  0  0  0  0  0  0  # atno 17342 bound_to 10162
  140.5078  144.1071  150.5987 LP  0  0  0  0  0  0  0  0  0  0  0  0  # atno 17343 bound_to 10162
  156.4343  130.7830  151.2851 LP  0  0  0  0  0  0  0  0  0  0  0  0  # atno 17370 bound_to 10713
  157.7503  131.0144  150.3463 LP  0  0  0  0  0  0  0  0  0  0  0  0  # atno 17371 bound_to 10713
  141.2201  133.6880  156.7454 LP  0  0  0  0  0  0  0  0  0  0  0  0  # atno 17394 bound_to 11000
  140.2583  134.8487  157.3734 LP  0  0  0  0  0  0  0  0  0  0  0  0  # atno 17395 bound_to 11000

$$$$
