AV-unprocessed.smi:798|AV-procd|sdf|3782|dock4
  -GOLD-   22720 1213D 1   1.00000     0.00000
 Structure written by MMmdl.
 33 35  0  0  0  0  0  0  0  0  2 V2000
  149.2184  138.0439  159.7024 O   0  0  0  0  0  0  0  0  0  0  0  0
  149.2514  137.0260  159.0072 C   0  0  0  0  0  0  0  0  0  0  0  0
  148.9385  135.7721  159.4059 N   0  5  0  0  0  0  0  0  0  0  0  0
  148.2317  135.5795  160.5319 C   0  0  0  0  0  0  0  0  0  0  0  0
  147.9515  136.5792  161.3834 N   0  0  0  0  0  0  0  0  0  0  0  0
  147.2216  136.1657  162.4896 N   0  0  0  0  0  0  0  0  0  0  0  0
  146.9750  134.8566  162.4475 C   0  0  0  0  0  0  0  0  0  0  0  0
  147.6131  134.0100  161.0542 S   0  0  0  0  0  0  0  0  0  0  0  0
  149.6217  137.1049  157.7215 N   0  0  0  0  0  0  0  0  0  0  0  0
  150.0002  138.3238  157.0092 C   0  0  1  0  0  0  0  0  0  0  0  0
  151.2372  138.9706  157.6706 C   0  0  2  0  0  0  0  0  0  0  0  0
  151.3710  140.4188  157.1658 C   0  0  0  0  0  0  0  0  0  0  0  0
  151.8515  140.2231  155.7158 C   0  0  0  0  0  0  0  0  0  0  0  0
  151.9079  138.6866  155.5742 C   0  0  1  0  0  0  0  0  0  0  0  0
  152.4010  138.2868  156.9588 C   0  0  0  0  0  0  0  0  0  0  0  0
  150.4960  138.0483  155.5656 C   0  0  2  0  0  0  0  0  0  0  0  0
  149.5348  138.5410  154.4661 C   0  0  0  0  0  0  0  0  0  0  0  0
  150.0571  138.2542  153.1859 O   0  0  0  0  0  0  0  0  0  0  0  0
  146.4172  134.3861  163.2431 H   0  0  0  0  0  0  0  0  0  0  0  0
  149.6349  136.2460  157.1914 H   0  0  0  0  0  0  0  0  0  0  0  0
  149.1606  139.0213  157.0262 H   0  0  0  0  0  0  0  0  0  0  0  0
  151.2503  138.8932  158.7585 H   0  0  0  0  0  0  0  0  0  0  0  0
  150.4320  140.9703  157.2240 H   0  0  0  0  0  0  0  0  0  0  0  0
  152.1157  140.9658  157.7452 H   0  0  0  0  0  0  0  0  0  0  0  0
  151.2024  140.7035  154.9851 H   0  0  0  0  0  0  0  0  0  0  0  0
  152.8468  140.6509  155.5896 H   0  0  0  0  0  0  0  0  0  0  0  0
  152.5423  138.3480  154.7544 H   0  0  0  0  0  0  0  0  0  0  0  0
  153.3739  138.7106  157.2137 H   0  0  0  0  0  0  0  0  0  0  0  0
  152.4316  137.2070  157.1149 H   0  0  0  0  0  0  0  0  0  0  0  0
  150.6245  136.9723  155.4297 H   0  0  0  0  0  0  0  0  0  0  0  0
  148.5728  138.0375  154.5619 H   0  0  0  0  0  0  0  0  0  0  0  0
  149.3341  139.6086  154.5479 H   0  0  0  0  0  0  0  0  0  0  0  0
  149.6755  138.8562  152.5655 H   0  0  0  0  0  0  0  0  0  0  0  0
  1  2  2  0  0  0  0
  2  3  1  0  0  0  0
  2  9  1  0  0  0  0
  3  4  1  0  0  0  0
  4  8  1  0  0  0  0
  4  5  2  0  0  0  0
  5  6  1  0  0  0  0
  6  7  2  0  0  0  0
  7  8  1  0  0  0  0
  7 19  1  0  0  0  0
  9 10  1  0  0  0  0
  9 20  1  0  0  0  0
 10 16  1  0  0  0  0
 10 11  1  0  0  0  0
 10 21  1  0  0  0  0
 11 15  1  0  0  0  0
 11 12  1  0  0  0  0
 11 22  1  0  0  0  0
 12 13  1  0  0  0  0
 12 23  1  0  0  0  0
 12 24  1  0  0  0  0
 13 14  1  0  0  0  0
 13 25  1  0  0  0  0
 13 26  1  0  0  0  0
 14 15  1  0  0  0  0
 14 16  1  0  0  0  0
 14 27  1  0  0  0  0
 15 28  1  0  0  0  0
 15 29  1  0  0  0  0
 16 17  1  0  0  0  0
 16 30  1  0  0  0  0
 17 18  1  0  0  0  0
 17 31  1  0  0  0  0
 17 32  1  0  0  0  0
 18 33  1  0  0  0  0
M  CHG  1   3  -1
M  END
> <s_m_source_file>
AV-unprocessed.smi

> <i_m_source_file_index>
798

> <i_lp_mmshare_version>
43012

> <i_f3d_flags>
0

> <s_epik_input>
W0NIMl0xW0NIMl1bQ0BASF0oW0NIMl0yKVtDQEBIXShbQ0gyXVtPSF0pW0NAQEhdKFtDQEhdMTIpW05IXUMoPU8pW05IXWMzbm5bY0hdczM=

> <s_epik_cmdline>
J2VwaWtfcHl0aG9uJywgJy1waCcsICc3LjAnLCAnLXRuJywgJzgnLCAnLW1hJywgJzIwMCcsICctbWV0YWxfYmluZGluZycsICctaW1hZScsICc8aW5maWxlLm1hZT4nLCAnLW9tYWUnLCAnPG91dGZpbGUubWFlPic=

> <r_lp_tautomer_probability>
1

> <r_epik_Ionization_Penalty>
4.53732

> <r_epik_Ionization_Penalty_Charging>
4.48632

> <r_epik_Ionization_Penalty_Neutral>
0.0510007

> <r_epik_State_Penalty>
4.48602

> <r_epik_Charging_Adjusted_Penalty>
8.97234

> <i_epik_Tot_Q>
-1

> <i_epik_Tot_abs_Q>
1

> <r_epik_Metal_State_Penalty>
0.812492

> <b_epik_Metal_Only>
1

> <s_lp_Force_Field>
OPLS_2005

> <r_lp_Energy>
47.3152

> <b_lp_Chiralities_Consistent>
1

> <s_lp_Variant>
AV-unprocessed.smi:798-14

> <Gold.Version>
5.8.1

> <Gold.Id.Protein>
6NUR|6NUR_protein|mol2

> <Gold.PLP.Fitness>
37.9399

> <Gold.PLP.PLP>
-26.0993

> <Gold.PLP.part.hbond>
-6.9516

> <Gold.PLP.part.metal>
0.0000

> <Gold.PLP.part.buried>
-0.0354

> <Gold.PLP.part.nonpolar>
-19.0141

> <Gold.PLP.part.repulsive>
0.0603

> <Gold.PLP.ligand.clash>
0.0000

> <Gold.PLP.ligand.torsion>
0.0926

> <Gold.PLP.Chemscore.Hbond>
4.0000

> <Gold.PLP.Chemscore.CHOScore>
0.0000

> <Gold.PLP.Chemscore.Metal>
0.0000

> <Gold.Chemscore.Hbonds>
donor molecule, donor type, donor heavy atom, donor atom, acceptor molecule, acceptor atom, score
      L1  H    18    33       P1  7957  1.00
      P1  H  6896  6907       L1     3  1.72
      P1  H  6931  6943       L1     5  0.94

> <Gold.PLP.Chemscore.Internal.Correction>
0.0258

> <Gold.Rescore>
     Score         DG    S(hbond)    S(metal)    S(lipo)     H(rot)  DE(clash)    DE(int)     intcor
     11.04     -14.91       2.31        0.00      56.83       1.92       1.05       2.83       ----

> <Gold.Chemscore.Fitness>
11.0386

> <Gold.Chemscore.DG>
-14.9109

> <Gold.Chemscore.ZeroCoef>
-5.4800

> <Gold.Chemscore.Hbond>
2.3051

> <Gold.Chemscore.Metal>
0.0000

> <Gold.Chemscore.Lipo>
56.8272

> <Gold.Chemscore.Internal_Hbond>
0.0000

> <Gold.Chemscore.DEClash>
1.0467

> <Gold.Chemscore.DEInternal>
2.8256

> <Gold.Chemscore.Rot>
1.9207

> <Gold.Chemscore.Internal.Correction>
   9.000000E+99

> <Gold.Chemscore.Hbonds>
donor molecule, donor type, donor heavy atom, donor atom, acceptor molecule, acceptor atom, score
      L1  H    18    33       P1  7957  0.74
      P1  H  6896  6907       L1     3  0.31
      P1  H  6931  6943       L1     5  0.59

> <Gold.Chemscore.Hbond.Weighted>
-7.6990

> <Gold.Chemscore.Metal.Weighted>
-0.0000

> <Gold.Chemscore.Lipo.Weighted>
-6.6488

> <Gold.Chemscore.Internal_Hbond.Weighted>
0.0000

> <Gold.Chemscore.DEClash.Weighted>
1.0467

> <Gold.Chemscore.DEInternal.Weighted>
2.8256

> <Gold.Chemscore.Rot.Weighted>
4.9169

> <Gold.Chemscore.Internal.Correction.Weighted>
   9.000000E+99

> <Gold.Protein.RotatedTorsions>
[ 6907 6896 6895 6894 ] final  -59.57 input  -60.11 | X-H torsion
[ 7974 7965 7964 7962 ] final   75.78 input  175.53 | X-H torsion
[ 8008 7997 7996 7995 ] final  177.24 input   59.86 | X-H torsion
[ 10167 10162 10161 10158 ] final  -20.64 input  -65.29 | X-H torsion
[ 10718 10713 10712 10709 ] final  128.99 input   66.30 | X-H torsion
[ 10763 10752 10751 10750 ] final   74.48 input  -60.55 | X-H torsion
[ 11005 11000 10999 10996 ] final  167.93 input  -57.11 | X-H torsion

> <Gold.Protein.ActiveResidues>
 VAL166  LYS551  ARG553  GLY616  TRP617  ASP618  TYR619  PRO620  LYS621  CYS622 
 ASP623  PHE694  ASN695  SER759  ASP760  ASP761  ALA762  ILE779  LEU786  VAL792 
 PHE793  MET794  SER795  GLU796  ALA797  LYS798  CYS799  TRP800  GLU811  SER814 

> <Gold.Protein.RotatedAtoms>
  150.7921  134.6952  159.6518 H   0  0  0  0  0  0  0  0  0  0  0  0  # atno 6907 bound_to 6896
  152.4028  134.6255  160.0072 H   0  0  0  0  0  0  0  0  0  0  0  0  # atno 6908 bound_to 6896
  151.6521  133.3283  159.3190 H   0  0  0  0  0  0  0  0  0  0  0  0  # atno 6909 bound_to 6896
  145.7112  139.2615  143.1649 H   0  0  0  0  0  0  0  0  0  0  0  0  # atno 7974 bound_to 7965
  156.0678  140.1363  156.9865 H   0  0  0  0  0  0  0  0  0  0  0  0  # atno 8008 bound_to 7997
  154.4515  140.0978  156.6684 H   0  0  0  0  0  0  0  0  0  0  0  0  # atno 8009 bound_to 7997
  155.5277  140.3458  155.4422 H   0  0  0  0  0  0  0  0  0  0  0  0  # atno 8010 bound_to 7997
  140.7277  143.4703  151.0256 H   0  0  0  0  0  0  0  0  0  0  0  0  # atno 10167 bound_to 10162
  157.5194  131.1098  150.9175 H   0  0  0  0  0  0  0  0  0  0  0  0  # atno 10718 bound_to 10713
  153.0589  135.5024  154.8048 H   0  0  0  0  0  0  0  0  0  0  0  0  # atno 10763 bound_to 10752
  154.6852  135.2975  154.9560 H   0  0  0  0  0  0  0  0  0  0  0  0  # atno 10764 bound_to 10752
  154.0333  135.6726  153.4835 H   0  0  0  0  0  0  0  0  0  0  0  0  # atno 10765 bound_to 10752
  140.2819  134.7743  157.3765 H   0  0  0  0  0  0  0  0  0  0  0  0  # atno 11005 bound_to 11000
  146.0711  140.7868  142.9688 LP  0  0  0  0  0  0  0  0  0  0  0  0  # atno 17320 bound_to 7965
  144.6941  140.3343  143.7210 LP  0  0  0  0  0  0  0  0  0  0  0  0  # atno 17321 bound_to 7965
  139.8395  143.7583  152.3180 LP  0  0  0  0  0  0  0  0  0  0  0  0  # atno 17342 bound_to 10162
  139.7727  144.7471  151.0201 LP  0  0  0  0  0  0  0  0  0  0  0  0  # atno 17343 bound_to 10162
  156.9791  130.5520  149.5295 LP  0  0  0  0  0  0  0  0  0  0  0  0  # atno 17370 bound_to 10713
  156.0343  130.5432  150.8614 LP  0  0  0  0  0  0  0  0  0  0  0  0  # atno 17371 bound_to 10713
  140.1275  134.5138  155.8132 LP  0  0  0  0  0  0  0  0  0  0  0  0  # atno 17394 bound_to 11000
  141.2161  133.6778  156.6979 LP  0  0  0  0  0  0  0  0  0  0  0  0  # atno 17395 bound_to 11000

$$$$
