AV-unprocessed.smi:2847|AV-procd|sdf|10954|dock5
  -GOLD-   2272015413D 1   1.00000     0.00000
 Structure written by MMmdl.
 45 46  0  0  0  0  0  0  0  0  1 V2000
  150.1718  143.6561  158.9096 C   0  0  0  0  0  0  0  0  0  0  0  0
  151.5861  144.2338  159.1530 C   0  0  0  0  0  0  0  0  0  0  0  0
  152.1918  144.6910  157.8133 C   0  0  0  0  0  0  0  0  0  0  0  0
  151.3941  145.4577  160.0793 C   0  0  0  0  0  0  0  0  0  0  0  0
  152.5086  143.1876  159.8029 C   0  0  0  0  0  0  0  0  0  0  0  0
  152.7840  143.3415  161.1048 N   0  0  0  0  0  0  0  0  0  0  0  0
  153.4891  142.3664  161.7154 C   0  0  0  0  0  0  0  0  0  0  0  0
  153.9063  141.2072  161.0320 C   0  0  0  0  0  0  0  0  0  0  0  0
  154.6321  140.2129  161.7406 N   0  0  0  0  0  0  0  0  0  0  0  0
  154.5363  138.8770  161.6351 C   0  0  0  0  0  0  0  0  0  0  0  0
  153.7909  138.2817  160.8581 O   0  0  0  0  0  0  0  0  0  0  0  0
  155.3808  138.2700  162.4848 N   0  0  0  0  0  0  0  0  0  0  0  0
  155.5986  136.8323  162.6966 C   0  0  2  0  0  0  0  0  0  0  0  0
  156.7571  136.6152  163.6994 C   0  0  0  0  0  0  0  0  0  0  0  0
  156.0093  136.2567  161.3117 C   0  0  0  0  0  0  0  0  0  0  0  0
  156.2923  134.8710  161.3664 O   0  0  0  0  0  0  0  0  0  0  0  0
  154.3435  136.1420  163.2607 C   0  0  0  0  0  0  0  0  0  0  0  0
  153.7644  136.4181  164.6297 C   0  0  0  0  0  0  0  0  0  0  0  0
  154.3693  135.0624  164.3181 C   0  0  0  0  0  0  0  0  0  0  0  0
  153.5159  141.1197  159.6745 C   0  0  0  0  0  0  0  0  0  0  0  0
  152.8092  142.1028  159.0766 N   0  0  0  0  0  0  0  0  0  0  0  0
  149.5012  144.4096  158.4949 H   0  0  0  0  0  0  0  0  0  0  0  0
  149.7250  143.2953  159.8369 H   0  0  0  0  0  0  0  0  0  0  0  0
  150.1851  142.8255  158.2030 H   0  0  0  0  0  0  0  0  0  0  0  0
  152.3085  143.8533  157.1249 H   0  0  0  0  0  0  0  0  0  0  0  0
  153.1762  145.1386  157.9558 H   0  0  0  0  0  0  0  0  0  0  0  0
  151.5603  145.4335  157.3244 H   0  0  0  0  0  0  0  0  0  0  0  0
  150.7039  146.1806  159.6429 H   0  0  0  0  0  0  0  0  0  0  0  0
  152.3308  145.9868  160.2583 H   0  0  0  0  0  0  0  0  0  0  0  0
  150.9900  145.1632  161.0487 H   0  0  0  0  0  0  0  0  0  0  0  0
  153.7186  142.5138  162.7607 H   0  0  0  0  0  0  0  0  0  0  0  0
  155.3407  140.5592  162.3708 H   0  0  0  0  0  0  0  0  0  0  0  0
  155.9368  138.8738  163.0725 H   0  0  0  0  0  0  0  0  0  0  0  0
  157.0302  135.5611  163.7588 H   0  0  0  0  0  0  0  0  0  0  0  0
  156.4885  136.9299  164.7079 H   0  0  0  0  0  0  0  0  0  0  0  0
  157.6519  137.1706  163.4167 H   0  0  0  0  0  0  0  0  0  0  0  0
  155.2169  136.3869  160.5762 H   0  0  0  0  0  0  0  0  0  0  0  0
  156.8956  136.7566  160.9216 H   0  0  0  0  0  0  0  0  0  0  0  0
  157.1959  134.7589  161.6200 H   0  0  0  0  0  0  0  0  0  0  0  0
  153.5789  136.0011  162.4998 H   0  0  0  0  0  0  0  0  0  0  0  0
  154.3058  137.0622  165.3174 H   0  0  0  0  0  0  0  0  0  0  0  0
  152.6806  136.4746  164.7084 H   0  0  0  0  0  0  0  0  0  0  0  0
  153.6853  134.2259  164.1895 H   0  0  0  0  0  0  0  0  0  0  0  0
  155.3091  134.8140  164.8040 H   0  0  0  0  0  0  0  0  0  0  0  0
  153.7346  140.2624  159.0572 H   0  0  0  0  0  0  0  0  0  0  0  0
  1  2  1  0  0  0  0
  1 22  1  0  0  0  0
  1 23  1  0  0  0  0
  1 24  1  0  0  0  0
  2  3  1  0  0  0  0
  2  4  1  0  0  0  0
  2  5  1  0  0  0  0
  3 25  1  0  0  0  0
  3 26  1  0  0  0  0
  3 27  1  0  0  0  0
  4 28  1  0  0  0  0
  4 29  1  0  0  0  0
  4 30  1  0  0  0  0
  5 21  1  0  0  0  0
  5  6  2  0  0  0  0
  6  7  1  0  0  0  0
  7  8  2  0  0  0  0
  7 31  1  0  0  0  0
  8  9  1  0  0  0  0
  8 20  1  0  0  0  0
  9 10  1  0  0  0  0
  9 32  1  0  0  0  0
 10 11  2  0  0  0  0
 10 12  1  0  0  0  0
 12 13  1  0  0  0  0
 12 33  1  0  0  0  0
 13 14  1  0  0  0  0
 13 15  1  0  0  0  0
 13 17  1  0  0  0  0
 14 34  1  0  0  0  0
 14 35  1  0  0  0  0
 14 36  1  0  0  0  0
 15 16  1  0  0  0  0
 15 37  1  0  0  0  0
 15 38  1  0  0  0  0
 16 39  1  0  0  0  0
 17 19  1  0  0  0  0
 17 18  1  0  0  0  0
 17 40  1  0  0  0  0
 18 19  1  0  0  0  0
 18 41  1  0  0  0  0
 18 42  1  0  0  0  0
 19 43  1  0  0  0  0
 19 44  1  0  0  0  0
 20 21  2  0  0  0  0
 20 45  1  0  0  0  0
M  END
> <s_m_source_file>
AV-unprocessed.smi

> <i_m_source_file_index>
2847

> <i_lp_mmshare_version>
43012

> <i_f3d_flags>
0

> <s_epik_input>
W0NIM11DKFtDSDNdKShbQ0gzXSljMW5bY0hdYyhbY0hdbjEpW05IXUMoPU8pW05IXVtDQEBdKFtDSDNdKShbQ0gyXVtPSF0pW0NIXTJbQ0gyXVtDSDJdMg==

> <s_epik_cmdline>
J2VwaWtfcHl0aG9uJywgJy1waCcsICc3LjAnLCAnLXRuJywgJzgnLCAnLW1hJywgJzIwMCcsICctbWV0YWxfYmluZGluZycsICctaW1hZScsICc8aW5maWxlLm1hZT4nLCAnLW9tYWUnLCAnPG91dGZpbGUubWFlPic=

> <r_lp_tautomer_probability>
1

> <r_epik_Ionization_Penalty>
2.57177e-05

> <r_epik_Ionization_Penalty_Charging>
0

> <r_epik_Ionization_Penalty_Neutral>
2.57177e-05

> <r_epik_State_Penalty>
-0

> <r_epik_Charging_Adjusted_Penalty>
0

> <i_epik_Tot_Q>
0

> <i_epik_Tot_abs_Q>
0

> <r_epik_Metal_State_Penalty>
-0

> <b_epik_Metal_Only>
0

> <s_lp_Force_Field>
OPLS_2005

> <r_lp_Energy>
20.8954

> <b_lp_Chiralities_Consistent>
1

> <s_lp_Variant>
AV-unprocessed.smi:2847-2

> <Gold.Version>
5.8.1

> <Gold.Id.Protein>
6NUR|6NUR_protein|mol2

> <Gold.PLP.Fitness>
41.3236

> <Gold.PLP.PLP>
-42.6652

> <Gold.PLP.part.hbond>
0.0000

> <Gold.PLP.part.metal>
0.0000

> <Gold.PLP.part.buried>
-5.9944

> <Gold.PLP.part.nonpolar>
-36.8634

> <Gold.PLP.part.repulsive>
0.0689

> <Gold.PLP.ligand.clash>
0.0000

> <Gold.PLP.ligand.torsion>
1.4454

> <Gold.PLP.Chemscore.Hbond>
0.0000

> <Gold.PLP.Chemscore.CHOScore>
0.0000

> <Gold.PLP.Chemscore.Metal>
0.0000

> <Gold.PLP.Chemscore.Internal.Correction>
1.5492

> <Gold.Rescore>
     Score         DG    S(hbond)    S(metal)    S(lipo)     H(rot)  DE(clash)    DE(int)     intcor
     11.25     -13.16       0.00        0.00     113.11       2.17       0.20       1.72       ----

> <Gold.Chemscore.Fitness>
11.2508

> <Gold.Chemscore.DG>
-13.1642

> <Gold.Chemscore.ZeroCoef>
-5.4800

> <Gold.Chemscore.Hbond>
0.0000

> <Gold.Chemscore.Metal>
0.0000

> <Gold.Chemscore.Lipo>
113.1121

> <Gold.Chemscore.Internal_Hbond>
0.0000

> <Gold.Chemscore.DEClash>
0.1970

> <Gold.Chemscore.DEInternal>
1.7164

> <Gold.Chemscore.Rot>
2.1679

> <Gold.Chemscore.Internal.Correction>
   9.000000E+99

> <Gold.Chemscore.Hbond.Weighted>
-0.0000

> <Gold.Chemscore.Metal.Weighted>
-0.0000

> <Gold.Chemscore.Lipo.Weighted>
-13.2341

> <Gold.Chemscore.Internal_Hbond.Weighted>
0.0000

> <Gold.Chemscore.DEClash.Weighted>
0.1970

> <Gold.Chemscore.DEInternal.Weighted>
1.7164

> <Gold.Chemscore.Rot.Weighted>
5.5499

> <Gold.Chemscore.Internal.Correction.Weighted>
   9.000000E+99

> <Gold.Protein.RotatedTorsions>
[ 6907 6896 6895 6894 ] final   33.06 input  -60.11 | X-H torsion
[ 7974 7965 7964 7962 ] final   69.51 input  175.53 | X-H torsion
[ 8008 7997 7996 7995 ] final -120.05 input   59.86 | X-H torsion
[ 10167 10162 10161 10158 ] final -106.66 input  -65.29 | X-H torsion
[ 10718 10713 10712 10709 ] final  -13.50 input   66.30 | X-H torsion
[ 10763 10752 10751 10750 ] final  148.46 input  -60.55 | X-H torsion
[ 11005 11000 10999 10996 ] final   19.73 input  -57.11 | X-H torsion

> <Gold.Protein.ActiveResidues>
 VAL166  LYS551  ARG553  GLY616  TRP617  ASP618  TYR619  PRO620  LYS621  CYS622 
 ASP623  PHE694  ASN695  SER759  ASP760  ASP761  ALA762  ILE779  LEU786  VAL792 
 PHE793  MET794  SER795  GLU796  ALA797  LYS798  CYS799  TRP800  GLU811  SER814 

> <Gold.Protein.RotatedAtoms>
  152.0832  134.9457  160.0572 H   0  0  0  0  0  0  0  0  0  0  0  0  # atno 6907 bound_to 6896
  152.0738  133.4114  159.4479 H   0  0  0  0  0  0  0  0  0  0  0  0  # atno 6908 bound_to 6896
  150.6836  134.2981  159.4738 H   0  0  0  0  0  0  0  0  0  0  0  0  # atno 6909 bound_to 6896
  145.7895  139.2927  143.1218 H   0  0  0  0  0  0  0  0  0  0  0  0  # atno 7974 bound_to 7965
  155.1255  140.0399  157.2761 H   0  0  0  0  0  0  0  0  0  0  0  0  # atno 8008 bound_to 7997
  154.6581  140.2585  155.7113 H   0  0  0  0  0  0  0  0  0  0  0  0  # atno 8009 bound_to 7997
  156.2607  140.2822  156.1043 H   0  0  0  0  0  0  0  0  0  0  0  0  # atno 8010 bound_to 7997
  140.1854  143.3934  152.1248 H   0  0  0  0  0  0  0  0  0  0  0  0  # atno 10167 bound_to 10162
  156.6294  130.4897  149.6135 H   0  0  0  0  0  0  0  0  0  0  0  0  # atno 10718 bound_to 10713
  154.0551  135.2878  155.3334 H   0  0  0  0  0  0  0  0  0  0  0  0  # atno 10763 bound_to 10752
  154.6844  135.5251  153.8310 H   0  0  0  0  0  0  0  0  0  0  0  0  # atno 10764 bound_to 10752
  153.0545  135.6590  154.0744 H   0  0  0  0  0  0  0  0  0  0  0  0  # atno 10765 bound_to 10752
  140.4105  134.1623  155.7667 H   0  0  0  0  0  0  0  0  0  0  0  0  # atno 11005 bound_to 11000
  145.9991  140.8536  143.0027 LP  0  0  0  0  0  0  0  0  0  0  0  0  # atno 17320 bound_to 7965
  144.6784  140.2326  143.7353 LP  0  0  0  0  0  0  0  0  0  0  0  0  # atno 17321 bound_to 7965
  139.5278  144.7124  151.5165 LP  0  0  0  0  0  0  0  0  0  0  0  0  # atno 17342 bound_to 10162
  140.6492  143.8732  150.6768 LP  0  0  0  0  0  0  0  0  0  0  0  0  # atno 17343 bound_to 10162
  156.2247  130.6758  151.1404 LP  0  0  0  0  0  0  0  0  0  0  0  0  # atno 17370 bound_to 10713
  157.7204  131.0685  150.6157 LP  0  0  0  0  0  0  0  0  0  0  0  0  # atno 17371 bound_to 10713
  141.1823  133.8388  157.1214 LP  0  0  0  0  0  0  0  0  0  0  0  0  # atno 17394 bound_to 11000
  140.0271  134.9919  157.0707 LP  0  0  0  0  0  0  0  0  0  0  0  0  # atno 17395 bound_to 11000

$$$$
