AV-unprocessed.smi:1810|AV-procd|sdf|7334|dock10
  -GOLD-   22720 8593D 1   1.00000     0.00000
 Structure written by MMmdl.
 39 40  0  0  0  0  0  0  0  0  2 V2000
  150.7062  143.8519  158.7614 C   0  0  0  0  0  0  0  0  0  0  0  0
  151.6483  142.7640  159.2018 C   0  0  0  0  0  0  0  0  0  0  0  0
  151.7030  141.7068  158.4600 N   0  0  0  0  0  0  0  0  0  0  0  0
  152.5366  140.6511  158.7728 N   0  0  0  0  0  0  0  0  0  0  0  0
  152.4613  139.5302  157.8296 C   0  0  0  0  0  0  0  0  0  0  0  0
  152.4944  140.0155  156.3724 C   0  0  0  0  0  0  0  0  0  0  0  0
  151.3532  140.8290  156.1387 O   0  0  0  0  0  0  0  0  0  0  0  0
  150.3476  140.3277  155.3397 C   0  0  0  0  0  0  0  0  0  0  0  0
  150.3463  139.0219  154.7846 C   0  0  0  0  0  0  0  0  0  0  0  0
  149.2770  138.5904  153.9758 C   0  0  0  0  0  0  0  0  0  0  0  0
  148.1999  139.4599  153.7151 C   0  0  0  0  0  0  0  0  0  0  0  0
  146.8383  138.9059  152.6886 S   0  0  0  0  0  0  0  0  0  0  0  0
  146.3571  140.3606  152.1814 N   0  5  0  0  0  0  0  0  0  0  0  0
  147.4249  138.0922  151.6123 O   0  0  0  0  0  0  0  0  0  0  0  0
  145.8677  138.2660  153.5906 O   0  0  0  0  0  0  0  0  0  0  0  0
  148.1877  140.7584  154.2608 C   0  0  0  0  0  0  0  0  0  0  0  0
  149.2599  141.1844  155.0682 C   0  0  0  0  0  0  0  0  0  0  0  0
  153.3612  140.6071  159.8577 C   0  0  0  0  0  0  0  0  0  0  0  0
  154.0867  139.6416  160.1005 O   0  0  0  0  0  0  0  0  0  0  0  0
  153.2937  141.8072  160.6947 C   0  0  0  0  0  0  0  0  0  0  0  0
  154.1423  141.8027  161.8425 C   0  0  0  0  0  0  0  0  0  0  0  0
  154.8163  141.8101  162.7838 N   0  0  0  0  0  0  0  0  0  0  0  0
  152.4790  142.8509  160.3987 C   0  0  0  0  0  0  0  0  0  0  0  0
  152.3723  144.1192  161.2344 C   0  0  0  0  0  0  0  0  0  0  0  0
  151.2399  144.7913  158.6160 H   0  0  0  0  0  0  0  0  0  0  0  0
  149.9292  144.0159  159.5082 H   0  0  0  0  0  0  0  0  0  0  0  0
  150.2125  143.6064  157.8198 H   0  0  0  0  0  0  0  0  0  0  0  0
  153.2932  138.8445  158.0005 H   0  0  0  0  0  0  0  0  0  0  0  0
  151.5598  138.9414  158.0084 H   0  0  0  0  0  0  0  0  0  0  0  0
  153.4057  140.5868  156.1888 H   0  0  0  0  0  0  0  0  0  0  0  0
  152.4875  139.1569  155.6988 H   0  0  0  0  0  0  0  0  0  0  0  0
  151.1556  138.3304  154.9627 H   0  0  0  0  0  0  0  0  0  0  0  0
  149.2889  137.5955  153.5557 H   0  0  0  0  0  0  0  0  0  0  0  0
  145.4473  140.5626  152.6127 H   0  0  0  0  0  0  0  0  0  0  0  0
  147.3654  141.4295  154.0617 H   0  0  0  0  0  0  0  0  0  0  0  0
  149.2476  142.1813  155.4837 H   0  0  0  0  0  0  0  0  0  0  0  0
  152.9968  144.0798  162.1266 H   0  0  0  0  0  0  0  0  0  0  0  0
  151.3445  144.2776  161.5628 H   0  0  0  0  0  0  0  0  0  0  0  0
  152.6858  144.9868  160.6526 H   0  0  0  0  0  0  0  0  0  0  0  0
  1  2  1  0  0  0  0
  1 25  1  0  0  0  0
  1 26  1  0  0  0  0
  1 27  1  0  0  0  0
  2 23  1  0  0  0  0
  2  3  2  0  0  0  0
  3  4  1  0  0  0  0
  4  5  1  0  0  0  0
  4 18  1  0  0  0  0
  5  6  1  0  0  0  0
  5 28  1  0  0  0  0
  5 29  1  0  0  0  0
  6  7  1  0  0  0  0
  6 30  1  0  0  0  0
  6 31  1  0  0  0  0
  7  8  1  0  0  0  0
  8 17  1  0  0  0  0
  8  9  2  0  0  0  0
  9 10  1  0  0  0  0
  9 32  1  0  0  0  0
 10 11  2  0  0  0  0
 10 33  1  0  0  0  0
 11 12  1  0  0  0  0
 11 16  1  0  0  0  0
 12 13  1  0  0  0  0
 12 14  2  0  0  0  0
 12 15  2  0  0  0  0
 13 34  1  0  0  0  0
 16 17  2  0  0  0  0
 16 35  1  0  0  0  0
 17 36  1  0  0  0  0
 18 19  2  0  0  0  0
 18 20  1  0  0  0  0
 20 21  1  0  0  0  0
 20 23  2  0  0  0  0
 21 22  3  0  0  0  0
 23 24  1  0  0  0  0
 24 37  1  0  0  0  0
 24 38  1  0  0  0  0
 24 39  1  0  0  0  0
M  CHG  1  13  -1
M  END
> <s_m_source_file>
AV-unprocessed.smi

> <i_m_source_file_index>
1810

> <i_lp_mmshare_version>
43012

> <i_f3d_flags>
0

> <s_epik_input>
TiNDYyhjMVtDSDNdKWMoPU8pbihuYzFbQ0gzXSlbQ0gyXVtDSDJdT2MyW2NIXVtjSF1jKFMoPU8pKD1PKVtOSDJdKVtjSF1bY0hdMg==

> <s_epik_cmdline>
J2VwaWtfcHl0aG9uJywgJy1waCcsICc3LjAnLCAnLXRuJywgJzgnLCAnLW1hJywgJzIwMCcsICctbWV0YWxfYmluZGluZycsICctaW1hZScsICc8aW5maWxlLm1hZT4nLCAnLW9tYWUnLCAnPG91dGZpbGUubWFlPic=

> <r_lp_tautomer_probability>
1

> <r_epik_Ionization_Penalty>
4.40921

> <r_epik_Ionization_Penalty_Charging>
4.40921

> <r_epik_Ionization_Penalty_Neutral>
1.83918e-13

> <r_epik_State_Penalty>
4.40908

> <r_epik_Charging_Adjusted_Penalty>
8.81829

> <i_epik_Tot_Q>
-1

> <i_epik_Tot_abs_Q>
1

> <r_epik_Metal_State_Penalty>
0.775711

> <b_epik_Metal_Only>
1

> <s_lp_Force_Field>
OPLS_2005

> <r_lp_Energy>
29.6197

> <b_lp_Chiralities_Consistent>
1

> <s_lp_Variant>
AV-unprocessed.smi:1810-2

> <Gold.Version>
5.8.1

> <Gold.Id.Protein>
6NUR|6NUR_protein|mol2

> <Gold.PLP.Fitness>
42.8145

> <Gold.PLP.PLP>
-38.2235

> <Gold.PLP.part.hbond>
-3.1930

> <Gold.PLP.part.metal>
0.0000

> <Gold.PLP.part.buried>
-1.4585

> <Gold.PLP.part.nonpolar>
-39.3361

> <Gold.PLP.part.repulsive>
6.2967

> <Gold.PLP.ligand.clash>
0.0000

> <Gold.PLP.ligand.torsion>
1.7082

> <Gold.PLP.Chemscore.Hbond>
1.9600

> <Gold.PLP.Chemscore.CHOScore>
0.0000

> <Gold.PLP.Chemscore.Metal>
0.0000

> <Gold.Chemscore.Hbonds>
donor molecule, donor type, donor heavy atom, donor atom, acceptor molecule, acceptor atom, score
      L1  H    13    34       P1 10175  0.93
      P1  H  7954  7966       L1    14  1.00

> <Gold.PLP.Chemscore.Internal.Correction>
2.1274

> <Gold.Rescore>
     Score         DG    S(hbond)    S(metal)    S(lipo)     H(rot)  DE(clash)    DE(int)     intcor
     11.92     -18.08       1.71        0.00     101.12       1.94       2.64       3.52       ----

> <Gold.Chemscore.Fitness>
11.9164

> <Gold.Chemscore.DG>
-18.0762

> <Gold.Chemscore.ZeroCoef>
-5.4800

> <Gold.Chemscore.Hbond>
1.7149

> <Gold.Chemscore.Metal>
0.0000

> <Gold.Chemscore.Lipo>
101.1160

> <Gold.Chemscore.Internal_Hbond>
0.0000

> <Gold.Chemscore.DEClash>
2.6390

> <Gold.Chemscore.DEInternal>
3.5209

> <Gold.Chemscore.Rot>
1.9384

> <Gold.Chemscore.Internal.Correction>
   9.000000E+99

> <Gold.Chemscore.Hbonds>
donor molecule, donor type, donor heavy atom, donor atom, acceptor molecule, acceptor atom, score
      L1  H    13    34       P1 10175  0.45
      P1  H  7954  7966       L1    14  1.00

> <Gold.Chemscore.Hbond.Weighted>
-5.7279

> <Gold.Chemscore.Metal.Weighted>
-0.0000

> <Gold.Chemscore.Lipo.Weighted>
-11.8306

> <Gold.Chemscore.Internal_Hbond.Weighted>
0.0000

> <Gold.Chemscore.DEClash.Weighted>
2.6390

> <Gold.Chemscore.DEInternal.Weighted>
3.5209

> <Gold.Chemscore.Rot.Weighted>
4.9622

> <Gold.Chemscore.Internal.Correction.Weighted>
   9.000000E+99

> <Gold.Protein.RotatedTorsions>
[ 6907 6896 6895 6894 ] final  -36.07 input  -60.11 | X-H torsion
[ 7974 7965 7964 7962 ] final  -27.74 input  175.53 | X-H torsion
[ 8008 7997 7996 7995 ] final  -88.00 input   59.86 | X-H torsion
[ 10167 10162 10161 10158 ] final   57.17 input  -65.29 | X-H torsion
[ 10718 10713 10712 10709 ] final  -23.44 input   66.30 | X-H torsion
[ 10763 10752 10751 10750 ] final -151.06 input  -60.55 | X-H torsion
[ 11005 11000 10999 10996 ] final   -0.68 input  -57.11 | X-H torsion

> <Gold.Protein.ActiveResidues>
 VAL166  LYS551  ARG553  GLY616  TRP617  ASP618  TYR619  PRO620  LYS621  CYS622 
 ASP623  PHE694  ASN695  SER759  ASP760  ASP761  ALA762  ILE779  LEU786  VAL792 
 PHE793  MET794  SER795  GLU796  ALA797  LYS798  CYS799  TRP800  GLU811  SER814 

> <Gold.Protein.RotatedAtoms>
  151.0318  134.9544  159.8114 H   0  0  0  0  0  0  0  0  0  0  0  0  # atno 6907 bound_to 6896
  152.5347  134.2771  159.9003 H   0  0  0  0  0  0  0  0  0  0  0  0  # atno 6908 bound_to 6896
  151.2780  133.4181  159.2659 H   0  0  0  0  0  0  0  0  0  0  0  0  # atno 6909 bound_to 6896
  146.1337  140.5191  142.8682 H   0  0  0  0  0  0  0  0  0  0  0  0  # atno 7974 bound_to 7965
  154.6697  140.0559  157.0152 H   0  0  0  0  0  0  0  0  0  0  0  0  # atno 8008 bound_to 7997
  155.1107  140.3238  155.4504 H   0  0  0  0  0  0  0  0  0  0  0  0  # atno 8009 bound_to 7997
  156.2652  140.2015  156.6231 H   0  0  0  0  0  0  0  0  0  0  0  0  # atno 8010 bound_to 7997
  140.2009  144.3989  150.6529 H   0  0  0  0  0  0  0  0  0  0  0  0  # atno 10167 bound_to 10162
  156.4910  130.4566  149.6756 H   0  0  0  0  0  0  0  0  0  0  0  0  # atno 10718 bound_to 10713
  154.8081  135.3269  154.7378 H   0  0  0  0  0  0  0  0  0  0  0  0  # atno 10763 bound_to 10752
  153.8032  135.6901  153.4856 H   0  0  0  0  0  0  0  0  0  0  0  0  # atno 10764 bound_to 10752
  153.1840  135.4576  155.0010 H   0  0  0  0  0  0  0  0  0  0  0  0  # atno 10765 bound_to 10752
  140.6390  133.9507  155.8315 H   0  0  0  0  0  0  0  0  0  0  0  0  # atno 11005 bound_to 11000
  144.7717  140.5652  143.6665 LP  0  0  0  0  0  0  0  0  0  0  0  0  # atno 17320 bound_to 7965
  145.5204  139.1477  143.3555 LP  0  0  0  0  0  0  0  0  0  0  0  0  # atno 17321 bound_to 7965
  140.6391  143.2200  151.6330 LP  0  0  0  0  0  0  0  0  0  0  0  0  # atno 17342 bound_to 10162
  139.5217  144.3183  152.0933 LP  0  0  0  0  0  0  0  0  0  0  0  0  # atno 17343 bound_to 10162
  156.3427  130.7390  151.2338 LP  0  0  0  0  0  0  0  0  0  0  0  0  # atno 17370 bound_to 10713
  157.7474  131.0399  150.4573 LP  0  0  0  0  0  0  0  0  0  0  0  0  # atno 17371 bound_to 10713
  141.0621  134.0331  157.3644 LP  0  0  0  0  0  0  0  0  0  0  0  0  # atno 17394 bound_to 11000
  139.9087  135.0185  156.7600 LP  0  0  0  0  0  0  0  0  0  0  0  0  # atno 17395 bound_to 11000

$$$$
