AV-unprocessed.smi:2693|AV-procd|sdf|10398|dock2
  -GOLD-   2272014433D 1   1.00000     0.00000
 Structure written by MMmdl.
 45 47  0  0  0  0  0  0  0  0  1 V2000
  151.2906  140.9201  158.5863 C   0  0  0  0  0  0  0  0  0  0  0  0
  150.8646  141.2043  157.2190 N   0  0  0  0  0  0  0  0  0  0  0  0
  151.0577  142.5623  156.7190 C   0  0  0  0  0  0  0  0  0  0  0  0
  150.2919  140.2122  156.4177 C   0  0  0  0  0  0  0  0  0  0  0  0
  149.5222  139.2976  157.0225 N   0  0  0  0  0  0  0  0  0  0  0  0
  148.9639  138.3412  156.2510 C   0  0  0  0  0  0  0  0  0  0  0  0
  149.1775  138.2850  154.8591 C   0  0  0  0  0  0  0  0  0  0  0  0
  148.5393  137.2662  154.1021 N   0  0  0  0  0  0  0  0  0  0  0  0
  147.5302  136.4617  154.4755 C   0  0  0  0  0  0  0  0  0  0  0  0
  146.9078  136.5458  155.5337 O   0  0  0  0  0  0  0  0  0  0  0  0
  147.2641  135.5466  153.5345 N   0  0  0  0  0  0  0  0  0  0  0  0
  146.2447  134.5116  153.6610 C   0  0  1  0  0  0  0  0  0  0  0  0
  145.6270  134.1297  152.3157 C   0  0  2  0  0  0  0  0  0  0  0  0
  144.2767  134.2677  151.7083 C   0  0  0  0  0  0  0  0  0  0  0  0
  144.1435  132.8232  151.1557 C   0  0  0  0  0  0  0  0  0  0  0  0
  145.2376  132.0724  151.7371 O   0  0  0  0  0  0  0  0  0  0  0  0
  145.5079  132.7547  152.9441 C   0  0  1  0  0  0  0  0  0  0  0  0
  146.8296  133.0484  153.6809 C   0  0  0  0  0  0  0  0  0  0  0  0
  148.1475  132.7409  152.9410 C   0  0  0  0  0  0  0  0  0  0  0  0
  146.9582  132.4136  155.0660 C   0  0  0  0  0  0  0  0  0  0  0  0
  150.0008  139.3032  154.3220 C   0  0  0  0  0  0  0  0  0  0  0  0
  150.5512  140.2557  155.1043 N   0  0  0  0  0  0  0  0  0  0  0  0
  150.4339  140.6391  159.1994 H   0  0  0  0  0  0  0  0  0  0  0  0
  151.7666  141.7828  159.0525 H   0  0  0  0  0  0  0  0  0  0  0  0
  152.0082  140.0990  158.5990 H   0  0  0  0  0  0  0  0  0  0  0  0
  150.1116  142.9808  156.3737 H   0  0  0  0  0  0  0  0  0  0  0  0
  151.7590  142.5628  155.8840 H   0  0  0  0  0  0  0  0  0  0  0  0
  151.4516  143.2277  157.4873 H   0  0  0  0  0  0  0  0  0  0  0  0
  148.3410  137.6148  156.7521 H   0  0  0  0  0  0  0  0  0  0  0  0
  148.8894  137.1386  153.1638 H   0  0  0  0  0  0  0  0  0  0  0  0
  147.8144  135.5496  152.6884 H   0  0  0  0  0  0  0  0  0  0  0  0
  145.4980  134.7094  154.4355 H   0  0  0  0  0  0  0  0  0  0  0  0
  146.3801  134.1757  151.5256 H   0  0  0  0  0  0  0  0  0  0  0  0
  143.5139  134.4917  152.4554 H   0  0  0  0  0  0  0  0  0  0  0  0
  144.2393  135.0220  150.9220 H   0  0  0  0  0  0  0  0  0  0  0  0
  143.1862  132.3853  151.4407 H   0  0  0  0  0  0  0  0  0  0  0  0
  144.2191  132.7939  150.0684 H   0  0  0  0  0  0  0  0  0  0  0  0
  144.6660  132.6571  153.6393 H   0  0  0  0  0  0  0  0  0  0  0  0
  148.2909  131.6657  152.8284 H   0  0  0  0  0  0  0  0  0  0  0  0
  149.0083  133.1248  153.4894 H   0  0  0  0  0  0  0  0  0  0  0  0
  148.2007  133.1675  151.9412 H   0  0  0  0  0  0  0  0  0  0  0  0
  147.0793  131.3321  155.0006 H   0  0  0  0  0  0  0  0  0  0  0  0
  146.0755  132.6031  155.6775 H   0  0  0  0  0  0  0  0  0  0  0  0
  147.8154  132.8096  155.6112 H   0  0  0  0  0  0  0  0  0  0  0  0
  150.2137  139.3893  153.2680 H   0  0  0  0  0  0  0  0  0  0  0  0
  1  2  1  0  0  0  0
  1 23  1  0  0  0  0
  1 24  1  0  0  0  0
  1 25  1  0  0  0  0
  2  3  1  0  0  0  0
  2  4  1  0  0  0  0
  3 26  1  0  0  0  0
  3 27  1  0  0  0  0
  3 28  1  0  0  0  0
  4 22  1  0  0  0  0
  4  5  2  0  0  0  0
  5  6  1  0  0  0  0
  6  7  2  0  0  0  0
  6 29  1  0  0  0  0
  7  8  1  0  0  0  0
  7 21  1  0  0  0  0
  8  9  1  0  0  0  0
  8 30  1  0  0  0  0
  9 10  2  0  0  0  0
  9 11  1  0  0  0  0
 11 12  1  0  0  0  0
 11 31  1  0  0  0  0
 12 18  1  0  0  0  0
 12 13  1  0  0  0  0
 12 32  1  0  0  0  0
 13 17  1  0  0  0  0
 13 14  1  0  0  0  0
 13 33  1  0  0  0  0
 14 15  1  0  0  0  0
 14 34  1  0  0  0  0
 14 35  1  0  0  0  0
 15 16  1  0  0  0  0
 15 36  1  0  0  0  0
 15 37  1  0  0  0  0
 16 17  1  0  0  0  0
 17 18  1  0  0  0  0
 17 38  1  0  0  0  0
 18 19  1  0  0  0  0
 18 20  1  0  0  0  0
 19 39  1  0  0  0  0
 19 40  1  0  0  0  0
 19 41  1  0  0  0  0
 20 42  1  0  0  0  0
 20 43  1  0  0  0  0
 20 44  1  0  0  0  0
 21 22  2  0  0  0  0
 21 45  1  0  0  0  0
M  END
> <s_m_source_file>
AV-unprocessed.smi

> <i_m_source_file_index>
2693

> <i_lp_mmshare_version>
43012

> <i_f3d_flags>
0

> <s_epik_input>
W0NIM11OKFtDSDNdKWMxbltjSF1jKFtjSF1uMSlbTkhdQyg9TylbTkhdW0NASF0yQyhbQ0gzXSkoW0NIM10pW0NAQEhdKFtDQEhdMjMpT1tDSDJdW0NIMl0z

> <s_epik_cmdline>
J2VwaWtfcHl0aG9uJywgJy1waCcsICc3LjAnLCAnLXRuJywgJzgnLCAnLW1hJywgJzIwMCcsICctbWV0YWxfYmluZGluZycsICctaW1hZScsICc8aW5maWxlLm1hZT4nLCAnLW9tYWUnLCAnPG91dGZpbGUubWFlPic=

> <r_lp_tautomer_probability>
1

> <r_epik_Ionization_Penalty>
0.00031779

> <r_epik_Ionization_Penalty_Charging>
0

> <r_epik_Ionization_Penalty_Neutral>
0.00031779

> <r_epik_State_Penalty>
-0

> <r_epik_Charging_Adjusted_Penalty>
0

> <i_epik_Tot_Q>
0

> <i_epik_Tot_abs_Q>
0

> <r_epik_Metal_State_Penalty>
-0

> <b_epik_Metal_Only>
0

> <s_lp_Force_Field>
OPLS_2005

> <r_lp_Energy>
52.7678

> <b_lp_Chiralities_Consistent>
1

> <s_lp_Variant>
AV-unprocessed.smi:2693-2

> <Gold.Version>
5.8.1

> <Gold.Id.Protein>
6NUR|6NUR_protein|mol2

> <Gold.PLP.Fitness>
35.0503

> <Gold.PLP.PLP>
-25.9756

> <Gold.PLP.part.hbond>
-2.6242

> <Gold.PLP.part.metal>
0.0000

> <Gold.PLP.part.buried>
-3.4381

> <Gold.PLP.part.nonpolar>
-20.6898

> <Gold.PLP.part.repulsive>
0.2219

> <Gold.PLP.ligand.clash>
0.0000

> <Gold.PLP.ligand.torsion>
0.7234

> <Gold.PLP.Chemscore.Hbond>
2.4180

> <Gold.PLP.Chemscore.CHOScore>
1.0000

> <Gold.PLP.Chemscore.Metal>
0.0000

> <Gold.Chemscore.Hbonds>
donor molecule, donor type, donor heavy atom, donor atom, acceptor molecule, acceptor atom, score
      L1  H     8    30       P1  7948  0.99
      L1  H    11    31       P1  7948  0.98
      P1  H  7989  7998       L1    22  0.45
      L1  C    21    45       P1  7957  1.00

> <Gold.PLP.Chemscore.Internal.Correction>
0.2675

> <Gold.Rescore>
     Score         DG    S(hbond)    S(metal)    S(lipo)     H(rot)  DE(clash)    DE(int)     intcor
     14.23     -16.26       1.91        0.00      59.46       1.00       0.10       1.93       ----

> <Gold.Chemscore.Fitness>
14.2340

> <Gold.Chemscore.DG>
-16.2633

> <Gold.Chemscore.ZeroCoef>
-5.4800

> <Gold.Chemscore.Hbond>
1.9122

> <Gold.Chemscore.Metal>
0.0000

> <Gold.Chemscore.Lipo>
59.4585

> <Gold.Chemscore.Internal_Hbond>
0.0000

> <Gold.Chemscore.DEClash>
0.0962

> <Gold.Chemscore.DEInternal>
1.9331

> <Gold.Chemscore.Rot>
1.0000

> <Gold.Chemscore.Internal.Correction>
   9.000000E+99

> <Gold.Chemscore.Hbonds>
donor molecule, donor type, donor heavy atom, donor atom, acceptor molecule, acceptor atom, score
      L1  H     8    30       P1  7948  0.91
      L1  H    11    31       P1  7948  0.89
      P1  H  7989  7998       L1    22  0.01

> <Gold.Chemscore.Hbond.Weighted>
-6.3866

> <Gold.Chemscore.Metal.Weighted>
-0.0000

> <Gold.Chemscore.Lipo.Weighted>
-6.9566

> <Gold.Chemscore.Internal_Hbond.Weighted>
0.0000

> <Gold.Chemscore.DEClash.Weighted>
0.0962

> <Gold.Chemscore.DEInternal.Weighted>
1.9331

> <Gold.Chemscore.Rot.Weighted>
2.5600

> <Gold.Chemscore.Internal.Correction.Weighted>
   9.000000E+99

> <Gold.Protein.RotatedTorsions>
[ 6907 6896 6895 6894 ] final -138.79 input  -60.11 | X-H torsion
[ 7974 7965 7964 7962 ] final   48.80 input  175.53 | X-H torsion
[ 8008 7997 7996 7995 ] final    5.41 input   59.86 | X-H torsion
[ 10167 10162 10161 10158 ] final  107.41 input  -65.29 | X-H torsion
[ 10718 10713 10712 10709 ] final  -16.84 input   66.30 | X-H torsion
[ 10763 10752 10751 10750 ] final  -14.49 input  -60.55 | X-H torsion
[ 11005 11000 10999 10996 ] final -126.51 input  -57.11 | X-H torsion

> <Gold.Protein.ActiveResidues>
 VAL166  LYS551  ARG553  GLY616  TRP617  ASP618  TYR619  PRO620  LYS621  CYS622 
 ASP623  PHE694  ASN695  SER759  ASP760  ASP761  ALA762  ILE779  LEU786  VAL792 
 PHE793  MET794  SER795  GLU796  ALA797  LYS798  CYS799  TRP800  GLU811  SER814 

> <Gold.Protein.RotatedAtoms>
  151.0395  133.5719  159.2652 H   0  0  0  0  0  0  0  0  0  0  0  0  # atno 6907 bound_to 6896
  151.2770  135.0701  159.9165 H   0  0  0  0  0  0  0  0  0  0  0  0  # atno 6908 bound_to 6896
  152.5361  134.0116  159.7995 H   0  0  0  0  0  0  0  0  0  0  0  0  # atno 6909 bound_to 6896
  146.0170  139.4607  142.9921 H   0  0  0  0  0  0  0  0  0  0  0  0  # atno 7974 bound_to 7965
  154.7280  140.2725  155.6481 H   0  0  0  0  0  0  0  0  0  0  0  0  # atno 8008 bound_to 7997
  156.2842  140.2721  156.1897 H   0  0  0  0  0  0  0  0  0  0  0  0  # atno 8009 bound_to 7997
  155.0419  140.0371  157.2502 H   0  0  0  0  0  0  0  0  0  0  0  0  # atno 8010 bound_to 7997
  139.6929  144.7105  151.1316 H   0  0  0  0  0  0  0  0  0  0  0  0  # atno 10167 bound_to 10162
  156.5820  130.4776  149.6316 H   0  0  0  0  0  0  0  0  0  0  0  0  # atno 10718 bound_to 10713
  153.5291  135.7015  153.5692 H   0  0  0  0  0  0  0  0  0  0  0  0  # atno 10763 bound_to 10752
  153.3708  135.3945  155.1787 H   0  0  0  0  0  0  0  0  0  0  0  0  # atno 10764 bound_to 10752
  154.8686  135.3811  154.4786 H   0  0  0  0  0  0  0  0  0  0  0  0  # atno 10765 bound_to 10752
  140.9675  134.0851  157.3904 H   0  0  0  0  0  0  0  0  0  0  0  0  # atno 11005 bound_to 11000
  145.7253  141.0061  143.1380 LP  0  0  0  0  0  0  0  0  0  0  0  0  # atno 17320 bound_to 7965
  144.6975  139.8919  143.7453 LP  0  0  0  0  0  0  0  0  0  0  0  0  # atno 17321 bound_to 7965
  140.7688  143.5533  150.9180 LP  0  0  0  0  0  0  0  0  0  0  0  0  # atno 17342 bound_to 10162
  139.9211  143.6605  152.3096 LP  0  0  0  0  0  0  0  0  0  0  0  0  # atno 17343 bound_to 10162
  156.2624  130.6970  151.1742 LP  0  0  0  0  0  0  0  0  0  0  0  0  # atno 17370 bound_to 10713
  157.7324  131.0600  150.5628 LP  0  0  0  0  0  0  0  0  0  0  0  0  # atno 17371 bound_to 10713
  139.8900  135.0109  156.6710 LP  0  0  0  0  0  0  0  0  0  0  0  0  # atno 17394 bound_to 11000
  140.7377  133.9004  155.8256 LP  0  0  0  0  0  0  0  0  0  0  0  0  # atno 17395 bound_to 11000

$$$$
