AV-unprocessed.smi:2083|AV-procd|sdf|8500|dock10
  -GOLD-   2272011213D 1   1.00000     0.00000
 Structure written by MMmdl.
 44 45  0  0  0  0  0  0  0  0  3 V2000
  148.8535  140.4578  154.3806 C   0  0  0  0  0  0  0  0  0  0  0  0
  149.7316  139.2613  154.5170 C   0  0  0  0  0  0  0  0  0  0  0  0
  149.4820  137.9614  154.8545 C   0  0  0  0  0  0  0  0  0  0  0  0
  150.7661  137.3553  154.7827 C   0  0  0  0  0  0  0  0  0  0  0  0
  151.0474  136.0682  155.0376 N   0  5  0  0  0  0  0  0  0  0  0  0
  150.0470  135.1848  155.2544 C   0  0  0  0  0  0  0  0  0  0  0  0
  149.8560  134.5322  156.2833 O   0  0  0  0  0  0  0  0  0  0  0  0
  149.2168  135.0434  154.2113 N   0  0  0  0  0  0  0  0  0  0  0  0
  148.0619  134.1518  154.1567 C   0  0  0  0  0  0  0  0  0  0  0  0
  146.7199  134.9130  153.9660 C   0  0  2  0  0  0  0  0  0  0  0  0
  145.8820  134.8527  155.2631 C   0  0  0  0  0  0  0  0  0  0  0  0
  145.8956  134.4326  152.8086 N   0  3  2  0  0  0  0  0  0  0  0  0
  144.5170  134.9943  152.7054 C   0  0  0  0  0  0  0  0  0  0  0  0
  143.8186  134.5494  151.4093 C   0  0  0  0  0  0  0  0  0  0  0  0
  143.7990  133.0226  151.2752 C   0  0  0  0  0  0  0  0  0  0  0  0
  145.2136  132.4401  151.4243 C   0  0  1  0  0  0  0  0  0  0  0  0
  146.1029  132.6955  150.1945 C   0  0  0  0  0  0  0  0  0  0  0  0
  145.8626  132.9428  152.7289 C   0  0  0  0  0  0  0  0  0  0  0  0
  151.7136  138.2154  154.4492 N   0  0  0  0  0  0  0  0  0  0  0  0
  151.0577  139.4393  154.2717 O   0  0  0  0  0  0  0  0  0  0  0  0
  148.4719  140.7672  155.3536 H   0  0  0  0  0  0  0  0  0  0  0  0
  148.0022  140.2392  153.7361 H   0  0  0  0  0  0  0  0  0  0  0  0
  149.3972  141.2978  153.9478 H   0  0  0  0  0  0  0  0  0  0  0  0
  148.5327  137.5138  155.1083 H   0  0  0  0  0  0  0  0  0  0  0  0
  149.4059  135.6003  153.3905 H   0  0  0  0  0  0  0  0  0  0  0  0
  148.2383  133.4408  153.3483 H   0  0  0  0  0  0  0  0  0  0  0  0
  148.0416  133.5784  155.0841 H   0  0  0  0  0  0  0  0  0  0  0  0
  146.9712  135.9567  153.7711 H   0  0  0  0  0  0  0  0  0  0  0  0
  146.4250  135.2627  156.1147 H   0  0  0  0  0  0  0  0  0  0  0  0
  145.6148  133.8244  155.5082 H   0  0  0  0  0  0  0  0  0  0  0  0
  144.9575  135.4231  155.1931 H   0  0  0  0  0  0  0  0  0  0  0  0
  143.9320  134.6938  153.5761 H   0  0  0  0  0  0  0  0  0  0  0  0
  144.5398  136.0832  152.6872 H   0  0  0  0  0  0  0  0  0  0  0  0
  142.7983  134.9337  151.3890 H   0  0  0  0  0  0  0  0  0  0  0  0
  144.3249  134.9909  150.5505 H   0  0  0  0  0  0  0  0  0  0  0  0
  143.1539  132.6048  152.0496 H   0  0  0  0  0  0  0  0  0  0  0  0
  143.3605  132.7293  150.3207 H   0  0  0  0  0  0  0  0  0  0  0  0
  145.1091  131.3576  151.5077 H   0  0  0  0  0  0  0  0  0  0  0  0
  146.2937  133.7578  150.0418 H   0  0  0  0  0  0  0  0  0  0  0  0
  145.6380  132.3082  149.2875 H   0  0  0  0  0  0  0  0  0  0  0  0
  147.0691  132.2018  150.3031 H   0  0  0  0  0  0  0  0  0  0  0  0
  146.8631  132.5209  152.8075 H   0  0  0  0  0  0  0  0  0  0  0  0
  145.3054  132.5580  153.5848 H   0  0  0  0  0  0  0  0  0  0  0  0
  146.3773  134.7562  151.9822 H   0  0  0  0  0  0  0  0  0  0  0  0
  1  2  1  0  0  0  0
  1 21  1  0  0  0  0
  1 22  1  0  0  0  0
  1 23  1  0  0  0  0
  2 20  1  0  0  0  0
  2  3  2  0  0  0  0
  3  4  1  0  0  0  0
  3 24  1  0  0  0  0
  4  5  1  0  0  0  0
  4 19  2  0  0  0  0
  5  6  1  0  0  0  0
  6  7  2  0  0  0  0
  6  8  1  0  0  0  0
  8  9  1  0  0  0  0
  8 25  1  0  0  0  0
  9 10  1  0  0  0  0
  9 26  1  0  0  0  0
  9 27  1  0  0  0  0
 10 11  1  0  0  0  0
 10 12  1  0  0  0  0
 10 28  1  0  0  0  0
 11 29  1  0  0  0  0
 11 30  1  0  0  0  0
 11 31  1  0  0  0  0
 12 18  1  0  0  0  0
 12 13  1  0  0  0  0
 12 44  1  0  0  0  0
 13 14  1  0  0  0  0
 13 32  1  0  0  0  0
 13 33  1  0  0  0  0
 14 15  1  0  0  0  0
 14 34  1  0  0  0  0
 14 35  1  0  0  0  0
 15 16  1  0  0  0  0
 15 36  1  0  0  0  0
 15 37  1  0  0  0  0
 16 17  1  0  0  0  0
 16 18  1  0  0  0  0
 16 38  1  0  0  0  0
 17 39  1  0  0  0  0
 17 40  1  0  0  0  0
 17 41  1  0  0  0  0
 18 42  1  0  0  0  0
 18 43  1  0  0  0  0
 19 20  1  0  0  0  0
M  CHG  1   5  -1
M  CHG  1  12   1
M  END
> <s_m_source_file>
AV-unprocessed.smi

> <i_m_source_file_index>
2083

> <i_lp_mmshare_version>
43012

> <i_f3d_flags>
0

> <s_epik_input>
W0NIM11jMVtjSF1jKG5vMSlbTkhdQyg9TylbTkhdW0NIMl1bQ0BIXShbQ0gzXSlOMltDSDJdW0NIMl1bQ0gyXVtDQEBIXShbQ0gzXSlbQ0gyXTI=

> <s_epik_cmdline>
J2VwaWtfcHl0aG9uJywgJy1waCcsICc3LjAnLCAnLXRuJywgJzgnLCAnLW1hJywgJzIwMCcsICctbWV0YWxfYmluZGluZycsICctaW1hZScsICc8aW5maWxlLm1hZT4nLCAnLW9tYWUnLCAnPG91dGZpbGUubWFlPic=

> <r_epik_Ionization_Penalty>
6.22434

> <r_epik_Ionization_Penalty_Charging>
6.22425

> <r_epik_Ionization_Penalty_Neutral>
9.62407e-05

> <r_epik_State_Penalty>
6.22423

> <r_epik_Charging_Adjusted_Penalty>
12.4485

> <i_epik_Tot_Q>
0

> <i_epik_Tot_abs_Q>
2

> <r_epik_Metal_State_Penalty>
2.16764

> <b_epik_Metal_Only>
1

> <s_lp_Force_Field>
OPLS_2005

> <r_lp_Energy>
12.2094

> <b_lp_Chiralities_Consistent>
1

> <s_lp_Variant>
AV-unprocessed.smi:2083-11

> <Gold.Version>
5.8.1

> <Gold.Id.Protein>
6NUR|6NUR_protein|mol2

> <Gold.PLP.Fitness>
37.2076

> <Gold.PLP.PLP>
-28.1957

> <Gold.PLP.part.hbond>
-3.0000

> <Gold.PLP.part.metal>
0.0000

> <Gold.PLP.part.buried>
-4.5108

> <Gold.PLP.part.nonpolar>
-21.3644

> <Gold.PLP.part.repulsive>
0.4514

> <Gold.PLP.ligand.clash>
0.0068

> <Gold.PLP.ligand.torsion>
1.5359

> <Gold.PLP.Chemscore.Hbond>
4.0000

> <Gold.PLP.Chemscore.CHOScore>
0.0000

> <Gold.PLP.Chemscore.Metal>
0.0000

> <Gold.Chemscore.Hbonds>
donor molecule, donor type, donor heavy atom, donor atom, acceptor molecule, acceptor atom, score
      L1  H     8    25       P1  7948  0.95
      P1  H  7989  7998       L1    20  1.00
      P1  H 10752 10763       L1     5  2.00

> <Gold.PLP.Chemscore.Internal.Correction>
0.0903

> <Gold.Rescore>
     Score         DG    S(hbond)    S(metal)    S(lipo)     H(rot)  DE(clash)    DE(int)     intcor
     13.43     -15.97       2.27        0.00      58.09       1.52       0.03       2.50       ----

> <Gold.Chemscore.Fitness>
13.4320

> <Gold.Chemscore.DG>
-15.9676

> <Gold.Chemscore.ZeroCoef>
-5.4800

> <Gold.Chemscore.Hbond>
2.2694

> <Gold.Chemscore.Metal>
0.0000

> <Gold.Chemscore.Lipo>
58.0906

> <Gold.Chemscore.Internal_Hbond>
0.0000

> <Gold.Chemscore.DEClash>
0.0339

> <Gold.Chemscore.DEInternal>
2.5017

> <Gold.Chemscore.Rot>
1.5190

> <Gold.Chemscore.Internal.Correction>
   9.000000E+99

> <Gold.Chemscore.Hbonds>
donor molecule, donor type, donor heavy atom, donor atom, acceptor molecule, acceptor atom, score
      L1  H     8    25       P1  7948  0.21
      P1  H  7989  7998       L1    20  0.98
      P1  H 10752 10763       L1     5  0.87

> <Gold.Chemscore.Hbond.Weighted>
-7.5796

> <Gold.Chemscore.Metal.Weighted>
-0.0000

> <Gold.Chemscore.Lipo.Weighted>
-6.7966

> <Gold.Chemscore.Internal_Hbond.Weighted>
0.0000

> <Gold.Chemscore.DEClash.Weighted>
0.0339

> <Gold.Chemscore.DEInternal.Weighted>
2.5017

> <Gold.Chemscore.Rot.Weighted>
3.8886

> <Gold.Chemscore.Internal.Correction.Weighted>
   9.000000E+99

> <Gold.Protein.RotatedTorsions>
[ 6907 6896 6895 6894 ] final  161.59 input  -60.11 | X-H torsion
[ 7974 7965 7964 7962 ] final  -81.71 input  175.53 | X-H torsion
[ 8008 7997 7996 7995 ] final   28.53 input   59.86 | X-H torsion
[ 10167 10162 10161 10158 ] final  -71.73 input  -65.29 | X-H torsion
[ 10718 10713 10712 10709 ] final -141.27 input   66.30 | X-H torsion
[ 10763 10752 10751 10750 ] final   66.94 input  -60.55 | X-H torsion
[ 11005 11000 10999 10996 ] final  -40.26 input  -57.11 | X-H torsion

> <Gold.Protein.ActiveResidues>
 VAL166  LYS551  ARG553  GLY616  TRP617  ASP618  TYR619  PRO620  LYS621  CYS622 
 ASP623  PHE694  ASN695  SER759  ASP760  ASP761  ALA762  ILE779  LEU786  VAL792 
 PHE793  MET794  SER795  GLU796  ALA797  LYS798  CYS799  TRP800  GLU811  SER814 

> <Gold.Protein.RotatedAtoms>
  151.9532  133.3672  159.4007 H   0  0  0  0  0  0  0  0  0  0  0  0  # atno 6907 bound_to 6896
  150.6977  134.4318  159.5261 H   0  0  0  0  0  0  0  0  0  0  0  0  # atno 6908 bound_to 6896
  152.1994  134.8601  160.0560 H   0  0  0  0  0  0  0  0  0  0  0  0  # atno 6909 bound_to 6896
  145.5430  140.9507  143.1540 H   0  0  0  0  0  0  0  0  0  0  0  0  # atno 7974 bound_to 7965
  155.0601  140.3189  155.4663 H   0  0  0  0  0  0  0  0  0  0  0  0  # atno 8008 bound_to 7997
  156.2815  140.2130  156.5672 H   0  0  0  0  0  0  0  0  0  0  0  0  # atno 8009 bound_to 7997
  154.7139  140.0495  157.0563 H   0  0  0  0  0  0  0  0  0  0  0  0  # atno 8010 bound_to 7997
  140.5249  143.2327  151.7365 H   0  0  0  0  0  0  0  0  0  0  0  0  # atno 10167 bound_to 10162
  156.3321  130.7592  151.1711 H   0  0  0  0  0  0  0  0  0  0  0  0  # atno 10718 bound_to 10713
  153.0163  135.5302  154.6903 H   0  0  0  0  0  0  0  0  0  0  0  0  # atno 10763 bound_to 10752
  154.6039  135.2871  155.0508 H   0  0  0  0  0  0  0  0  0  0  0  0  # atno 10764 bound_to 10752
  154.1554  135.6556  153.5026 H   0  0  0  0  0  0  0  0  0  0  0  0  # atno 10765 bound_to 10752
  141.0162  133.6884  156.2298 H   0  0  0  0  0  0  0  0  0  0  0  0  # atno 11005 bound_to 11000
  144.7567  139.7057  143.7251 LP  0  0  0  0  0  0  0  0  0  0  0  0  # atno 17320 bound_to 7965
  146.1968  139.5239  142.9769 LP  0  0  0  0  0  0  0  0  0  0  0  0  # atno 17321 bound_to 7965
  139.4935  144.4200  151.9988 LP  0  0  0  0  0  0  0  0  0  0  0  0  # atno 17342 bound_to 10162
  140.3299  144.3329  150.5990 LP  0  0  0  0  0  0  0  0  0  0  0  0  # atno 17343 bound_to 10162
  157.7432  131.0478  150.4964 LP  0  0  0  0  0  0  0  0  0  0  0  0  # atno 17370 bound_to 10713
  156.5131  130.4144  149.6290 LP  0  0  0  0  0  0  0  0  0  0  0  0  # atno 17371 bound_to 10713
  140.6651  134.4927  157.5585 LP  0  0  0  0  0  0  0  0  0  0  0  0  # atno 17394 bound_to 11000
  139.9118  134.8328  156.1501 LP  0  0  0  0  0  0  0  0  0  0  0  0  # atno 17395 bound_to 11000

$$$$
