AV-unprocessed.smi:1897|AV-procd|sdf|7694|dock1
  -GOLD-   22720 9433D 1   1.00000     0.00000
 Structure written by MMmdl.
 38 40  0  0  0  0  0  0  0  0  3 V2000
  150.3738  134.5578  155.6089 C   0  0  0  0  0  0  0  0  0  0  0  0
  151.2126  135.7524  155.9097 C   0  0  0  0  0  0  0  0  0  0  0  0
  152.4237  135.6630  156.4644 N   0  0  0  0  0  0  0  0  0  0  0  0
  153.0110  136.9072  156.6411 N   0  0  0  0  0  0  0  0  0  0  0  0
  152.2330  137.9189  156.2312 C   0  0  0  0  0  0  0  0  0  0  0  0
  152.6156  139.2066  156.3205 N   0  5  0  0  0  0  0  0  0  0  0  0
  151.7760  140.2405  156.0542 C   0  0  0  0  0  0  0  0  0  0  0  0
  151.7846  140.8645  154.9940 O   0  0  0  0  0  0  0  0  0  0  0  0
  150.8928  140.5919  157.0072 N   0  0  0  0  0  0  0  0  0  0  0  0
  149.9124  141.6658  156.9089 C   0  0  2  0  0  0  0  0  0  0  0  0
  149.1708  141.9565  158.2275 C   0  0  0  0  0  0  0  0  0  0  0  0
  147.7111  142.2378  157.8201 C   0  0  0  0  0  0  0  0  0  0  0  0
  147.7102  142.2244  156.3448 N   0  3  2  0  0  0  0  0  0  0  0  0
  146.4256  141.9349  155.6714 C   0  0  0  0  0  0  0  0  0  0  0  0
  146.6164  142.0459  154.1450 C   0  0  0  0  0  0  0  0  0  0  0  0
  147.7835  141.1676  153.6481 C   0  0  0  0  0  0  0  0  0  0  0  0
  149.0699  141.4451  154.4500 C   0  0  0  0  0  0  0  0  0  0  0  0
  148.7810  141.2970  155.9526 C   0  0  1  0  0  0  0  0  0  0  0  0
  150.6859  137.3921  155.5689 S   0  0  0  0  0  0  0  0  0  0  0  0
  149.8566  134.2294  156.5105 H   0  0  0  0  0  0  0  0  0  0  0  0
  150.9964  133.7410  155.2426 H   0  0  0  0  0  0  0  0  0  0  0  0
  149.6327  134.7984  154.8467 H   0  0  0  0  0  0  0  0  0  0  0  0
  150.9105  140.0667  157.8691 H   0  0  0  0  0  0  0  0  0  0  0  0
  150.3925  142.5804  156.5545 H   0  0  0  0  0  0  0  0  0  0  0  0
  149.2085  141.1014  158.9041 H   0  0  0  0  0  0  0  0  0  0  0  0
  149.6183  142.8045  158.7469 H   0  0  0  0  0  0  0  0  0  0  0  0
  147.0588  141.4509  158.2020 H   0  0  0  0  0  0  0  0  0  0  0  0
  147.3489  143.1932  158.2005 H   0  0  0  0  0  0  0  0  0  0  0  0
  146.0806  140.9358  155.9419 H   0  0  0  0  0  0  0  0  0  0  0  0
  145.6675  142.6420  156.0092 H   0  0  0  0  0  0  0  0  0  0  0  0
  145.6951  141.7693  153.6316 H   0  0  0  0  0  0  0  0  0  0  0  0
  146.8135  143.0861  153.8823 H   0  0  0  0  0  0  0  0  0  0  0  0
  147.5132  140.1157  153.7492 H   0  0  0  0  0  0  0  0  0  0  0  0
  147.9583  141.3413  152.5859 H   0  0  0  0  0  0  0  0  0  0  0  0
  149.8587  140.7557  154.1470 H   0  0  0  0  0  0  0  0  0  0  0  0
  149.4320  142.4512  154.2338 H   0  0  0  0  0  0  0  0  0  0  0  0
  148.4508  140.2761  156.1614 H   0  0  0  0  0  0  0  0  0  0  0  0
  148.0076  143.1431  156.0491 H   0  0  0  0  0  0  0  0  0  0  0  0
  1  2  1  0  0  0  0
  1 20  1  0  0  0  0
  1 21  1  0  0  0  0
  1 22  1  0  0  0  0
  2 19  1  0  0  0  0
  2  3  2  0  0  0  0
  3  4  1  0  0  0  0
  4  5  2  0  0  0  0
  5  6  1  0  0  0  0
  5 19  1  0  0  0  0
  6  7  1  0  0  0  0
  7  8  2  0  0  0  0
  7  9  1  0  0  0  0
  9 10  1  0  0  0  0
  9 23  1  0  0  0  0
 10 18  1  0  0  0  0
 10 11  1  0  0  0  0
 10 24  1  0  0  0  0
 11 12  1  0  0  0  0
 11 25  1  0  0  0  0
 11 26  1  0  0  0  0
 12 13  1  0  0  0  0
 12 27  1  0  0  0  0
 12 28  1  0  0  0  0
 13 18  1  0  0  0  0
 13 14  1  0  0  0  0
 13 38  1  0  0  0  0
 14 15  1  0  0  0  0
 14 29  1  0  0  0  0
 14 30  1  0  0  0  0
 15 16  1  0  0  0  0
 15 31  1  0  0  0  0
 15 32  1  0  0  0  0
 16 17  1  0  0  0  0
 16 33  1  0  0  0  0
 16 34  1  0  0  0  0
 17 18  1  0  0  0  0
 17 35  1  0  0  0  0
 17 36  1  0  0  0  0
 18 37  1  0  0  0  0
M  CHG  1   6  -1
M  CHG  1  13   1
M  END
> <s_m_source_file>
AV-unprocessed.smi

> <i_m_source_file_index>
1897

> <i_lp_mmshare_version>
43012

> <i_f3d_flags>
0

> <s_epik_input>
W0NIM11jMW5uYyhzMSlbTkhdQyg9TylbTkhdW0NASF0oW0NIMl1bQ0gyXTIpW0NAQEhdKE4yMylbQ0gyXVtDSDJdW0NIMl1bQ0gyXTM=

> <s_epik_cmdline>
J2VwaWtfcHl0aG9uJywgJy1waCcsICc3LjAnLCAnLXRuJywgJzgnLCAnLW1hJywgJzIwMCcsICctbWV0YWxfYmluZGluZycsICctaW1hZScsICc8aW5maWxlLm1hZT4nLCAnLW9tYWUnLCAnPG91dGZpbGUubWFlPic=

> <r_lp_tautomer_probability>
1

> <r_epik_Ionization_Penalty>
3.77712

> <r_epik_Ionization_Penalty_Charging>
3.67739

> <r_epik_Ionization_Penalty_Neutral>
0.0997294

> <r_epik_State_Penalty>
3.67514

> <r_epik_Charging_Adjusted_Penalty>
7.35254

> <i_epik_Tot_Q>
0

> <i_epik_Tot_abs_Q>
2

> <r_epik_Metal_State_Penalty>
0.540795

> <b_epik_Metal_Only>
1

> <s_lp_Force_Field>
OPLS_2005

> <r_lp_Energy>
28.3617

> <b_lp_Chiralities_Consistent>
1

> <s_lp_Variant>
AV-unprocessed.smi:1897-11

> <Gold.Version>
5.8.1

> <Gold.Id.Protein>
6NUR|6NUR_protein|mol2

> <Gold.PLP.Fitness>
38.8441

> <Gold.PLP.PLP>
-25.4416

> <Gold.PLP.part.hbond>
-4.1823

> <Gold.PLP.part.metal>
0.0000

> <Gold.PLP.part.buried>
0.5157

> <Gold.PLP.part.nonpolar>
-21.4636

> <Gold.PLP.part.repulsive>
0.1191

> <Gold.PLP.ligand.clash>
0.0000

> <Gold.PLP.ligand.torsion>
0.8347

> <Gold.PLP.Chemscore.Hbond>
5.0176

> <Gold.PLP.Chemscore.CHOScore>
0.0000

> <Gold.PLP.Chemscore.Metal>
0.0000

> <Gold.Chemscore.Hbonds>
donor molecule, donor type, donor heavy atom, donor atom, acceptor molecule, acceptor atom, score
      L1  H    13    38       P1  8028  2.00
      P1  H  7989  7998       L1     8  0.49
      P1  H  7997  8009       L1     6  2.00
      P1  H 10752 10764       L1     3  0.50

> <Gold.PLP.Chemscore.Internal.Correction>
0.0191

> <Gold.Rescore>
     Score         DG    S(hbond)    S(metal)    S(lipo)     H(rot)  DE(clash)    DE(int)     intcor
     12.43     -15.47       1.96        0.00      51.45       1.00       0.89       2.15       ----

> <Gold.Chemscore.Fitness>
12.4336

> <Gold.Chemscore.DG>
-15.4723

> <Gold.Chemscore.ZeroCoef>
-5.4800

> <Gold.Chemscore.Hbond>
1.9559

> <Gold.Chemscore.Metal>
0.0000

> <Gold.Chemscore.Lipo>
51.4498

> <Gold.Chemscore.Internal_Hbond>
0.0000

> <Gold.Chemscore.DEClash>
0.8867

> <Gold.Chemscore.DEInternal>
2.1520

> <Gold.Chemscore.Rot>
1.0000

> <Gold.Chemscore.Internal.Correction>
   9.000000E+99

> <Gold.Chemscore.Hbonds>
donor molecule, donor type, donor heavy atom, donor atom, acceptor molecule, acceptor atom, score
      L1  H    13    38       P1  8028  0.50
      P1  H  7989  7998       L1     8  0.48
      P1  H  7997  8009       L1     6  0.47
      P1  H 10752 10764       L1     3  0.01

> <Gold.Chemscore.Hbond.Weighted>
-6.5327

> <Gold.Chemscore.Metal.Weighted>
-0.0000

> <Gold.Chemscore.Lipo.Weighted>
-6.0196

> <Gold.Chemscore.Internal_Hbond.Weighted>
0.0000

> <Gold.Chemscore.DEClash.Weighted>
0.8867

> <Gold.Chemscore.DEInternal.Weighted>
2.1520

> <Gold.Chemscore.Rot.Weighted>
2.5600

> <Gold.Chemscore.Internal.Correction.Weighted>
   9.000000E+99

> <Gold.Protein.RotatedTorsions>
[ 6907 6896 6895 6894 ] final   -9.25 input  -60.11 | X-H torsion
[ 7974 7965 7964 7962 ] final  167.59 input  175.53 | X-H torsion
[ 8008 7997 7996 7995 ] final  176.45 input   59.86 | X-H torsion
[ 10167 10162 10161 10158 ] final -171.74 input  -65.29 | X-H torsion
[ 10718 10713 10712 10709 ] final  -41.42 input   66.30 | X-H torsion
[ 10763 10752 10751 10750 ] final  -16.37 input  -60.55 | X-H torsion
[ 11005 11000 10999 10996 ] final   53.02 input  -57.11 | X-H torsion

> <Gold.Protein.ActiveResidues>
 VAL166  LYS551  ARG553  GLY616  TRP617  ASP618  TYR619  PRO620  LYS621  CYS622 
 ASP623  PHE694  ASN695  SER759  ASP760  ASP761  ALA762  ILE779  LEU786  VAL792 
 PHE793  MET794  SER795  GLU796  ALA797  LYS798  CYS799  TRP800  GLU811  SER814 

> <Gold.Protein.RotatedAtoms>
  151.4207  135.0997  159.9612 H   0  0  0  0  0  0  0  0  0  0  0  0  # atno 6907 bound_to 6896
  152.4989  133.8710  159.7309 H   0  0  0  0  0  0  0  0  0  0  0  0  # atno 6908 bound_to 6896
  150.9225  133.6805  159.2857 H   0  0  0  0  0  0  0  0  0  0  0  0  # atno 6909 bound_to 6896
  144.7419  139.8783  143.6394 H   0  0  0  0  0  0  0  0  0  0  0  0  # atno 7974 bound_to 7965
  156.0763  140.1383  156.9767 H   0  0  0  0  0  0  0  0  0  0  0  0  # atno 8008 bound_to 7997
  154.4560  140.0961  156.6807 H   0  0  0  0  0  0  0  0  0  0  0  0  # atno 8009 bound_to 7997
  155.5147  140.3454  155.4397 H   0  0  0  0  0  0  0  0  0  0  0  0  # atno 8010 bound_to 7997
  139.5785  144.1478  152.1483 H   0  0  0  0  0  0  0  0  0  0  0  0  # atno 10167 bound_to 10162
  156.2706  130.4206  149.8442 H   0  0  0  0  0  0  0  0  0  0  0  0  # atno 10718 bound_to 10713
  153.5575  135.7010  153.5562 H   0  0  0  0  0  0  0  0  0  0  0  0  # atno 10763 bound_to 10752
  153.3459  135.4008  155.1608 H   0  0  0  0  0  0  0  0  0  0  0  0  # atno 10764 bound_to 10752
  154.8652  135.3753  154.5091 H   0  0  0  0  0  0  0  0  0  0  0  0  # atno 10765 bound_to 10752
  140.0801  134.5351  155.8956 H   0  0  0  0  0  0  0  0  0  0  0  0  # atno 11005 bound_to 11000
  146.1230  139.4251  143.0216 LP  0  0  0  0  0  0  0  0  0  0  0  0  # atno 17320 bound_to 7965
  145.7276  141.0053  143.1369 LP  0  0  0  0  0  0  0  0  0  0  0  0  # atno 17321 bound_to 7965
  140.1026  144.5526  150.6979 LP  0  0  0  0  0  0  0  0  0  0  0  0  # atno 17342 bound_to 10162
  140.7065  143.2472  151.4710 LP  0  0  0  0  0  0  0  0  0  0  0  0  # atno 17343 bound_to 10162
  156.5925  130.8512  151.3411 LP  0  0  0  0  0  0  0  0  0  0  0  0  # atno 17370 bound_to 10713
  157.7282  130.9654  150.1734 LP  0  0  0  0  0  0  0  0  0  0  0  0  # atno 17371 bound_to 10713
  141.2043  133.6638  156.6116 LP  0  0  0  0  0  0  0  0  0  0  0  0  # atno 17394 bound_to 11000
  140.3500  134.7776  157.4460 LP  0  0  0  0  0  0  0  0  0  0  0  0  # atno 17395 bound_to 11000

$$$$
