AV-unprocessed.smi:1960|AV-procd|sdf|7916|dock9
  -GOLD-   2272010 83D 1   1.00000     0.00000
 Structure written by MMmdl.
 38 39  0  0  0  0  0  0  0  0  1 V2000
  147.4575  142.2061  157.3965 C   0  0  0  0  0  0  0  0  0  0  0  0
  147.5160  140.4311  156.9169 S   0  0  0  0  0  0  0  0  0  0  0  0
  148.8975  140.1062  156.5301 O   0  0  0  0  0  0  0  0  0  0  0  0
  146.8507  139.6492  157.9704 O   0  0  0  0  0  0  0  0  0  0  0  0
  146.5281  140.3454  155.4864 N   0  0  0  0  0  0  0  0  0  0  0  0
  147.1192  140.6319  154.1638 C   0  0  0  0  0  0  0  0  0  0  0  0
  147.4243  139.3410  153.3838 C   0  0  0  0  0  0  0  0  0  0  0  0
  146.1810  138.4418  153.2771 C   0  0  0  0  0  0  0  0  0  0  0  0
  146.5013  137.1870  152.6020 N   0  0  0  0  0  0  0  0  0  0  0  0
  145.6015  136.3095  152.1344 C   0  0  0  0  0  0  0  0  0  0  0  0
  144.3851  136.4743  152.2251 O   0  0  0  0  0  0  0  0  0  0  0  0
  146.2049  135.2611  151.5468 N   0  0  0  0  0  0  0  0  0  0  0  0
  145.6123  134.1220  150.9369 C   0  0  0  0  0  0  0  0  0  0  0  0
  146.4680  133.0830  150.5161 C   0  0  0  0  0  0  0  0  0  0  0  0
  145.9036  131.9356  149.9236 C   0  0  0  0  0  0  0  0  0  0  0  0
  144.5764  131.7705  149.7434 N   0  0  0  0  0  0  0  0  0  0  0  0
  143.7575  132.7596  150.1595 C   0  0  0  0  0  0  0  0  0  0  0  0
  144.2181  133.9470  150.7632 C   0  0  0  0  0  0  0  0  0  0  0  0
  145.6428  138.1529  154.6861 C   0  0  0  0  0  0  0  0  0  0  0  0
  145.3510  139.4542  155.4544 C   0  0  0  0  0  0  0  0  0  0  0  0
  148.0543  142.3506  158.2966 H   0  0  0  0  0  0  0  0  0  0  0  0
  146.4303  142.5010  157.6035 H   0  0  0  0  0  0  0  0  0  0  0  0
  147.8691  142.8204  156.5977 H   0  0  0  0  0  0  0  0  0  0  0  0
  146.4136  141.2403  153.5968 H   0  0  0  0  0  0  0  0  0  0  0  0
  148.0225  141.2314  154.2727 H   0  0  0  0  0  0  0  0  0  0  0  0
  147.7861  139.6008  152.3884 H   0  0  0  0  0  0  0  0  0  0  0  0
  148.2348  138.7967  153.8677 H   0  0  0  0  0  0  0  0  0  0  0  0
  145.4066  138.9653  152.7129 H   0  0  0  0  0  0  0  0  0  0  0  0
  147.4805  136.9732  152.4820 H   0  0  0  0  0  0  0  0  0  0  0  0
  147.2108  135.3109  151.4788 H   0  0  0  0  0  0  0  0  0  0  0  0
  147.5386  133.1617  150.6371 H   0  0  0  0  0  0  0  0  0  0  0  0
  146.5363  131.1275  149.5870 H   0  0  0  0  0  0  0  0  0  0  0  0
  142.7000  132.5973  150.0130 H   0  0  0  0  0  0  0  0  0  0  0  0
  143.4992  134.6834  151.0871 H   0  0  0  0  0  0  0  0  0  0  0  0
  144.7304  137.5592  154.6204 H   0  0  0  0  0  0  0  0  0  0  0  0
  146.3589  137.5477  155.2411 H   0  0  0  0  0  0  0  0  0  0  0  0
  145.0162  139.2304  156.4668 H   0  0  0  0  0  0  0  0  0  0  0  0
  144.5309  139.9860  154.9705 H   0  0  0  0  0  0  0  0  0  0  0  0
  1  2  1  0  0  0  0
  1 21  1  0  0  0  0
  1 22  1  0  0  0  0
  1 23  1  0  0  0  0
  2  3  2  0  0  0  0
  2  4  2  0  0  0  0
  2  5  1  0  0  0  0
  5 20  1  0  0  0  0
  5  6  1  0  0  0  0
  6  7  1  0  0  0  0
  6 24  1  0  0  0  0
  6 25  1  0  0  0  0
  7  8  1  0  0  0  0
  7 26  1  0  0  0  0
  7 27  1  0  0  0  0
  8  9  1  0  0  0  0
  8 19  1  0  0  0  0
  8 28  1  0  0  0  0
  9 10  1  0  0  0  0
  9 29  1  0  0  0  0
 10 11  2  0  0  0  0
 10 12  1  0  0  0  0
 12 13  1  0  0  0  0
 12 30  1  0  0  0  0
 13 18  1  0  0  0  0
 13 14  2  0  0  0  0
 14 15  1  0  0  0  0
 14 31  1  0  0  0  0
 15 16  2  0  0  0  0
 15 32  1  0  0  0  0
 16 17  1  0  0  0  0
 17 18  2  0  0  0  0
 17 33  1  0  0  0  0
 18 34  1  0  0  0  0
 19 20  1  0  0  0  0
 19 35  1  0  0  0  0
 19 36  1  0  0  0  0
 20 37  1  0  0  0  0
 20 38  1  0  0  0  0
M  END
> <s_m_source_file>
AV-unprocessed.smi

> <i_m_source_file_index>
1960

> <i_lp_mmshare_version>
43012

> <i_f3d_flags>
0

> <s_epik_input>
W0NIM11TKD1PKSg9TylOMVtDSDJdW0NIMl1bQ0hdKFtDSDJdW0NIMl0xKVtOSF1DKD1PKVtOSF1jMltjSF1bY0hdbltjSF1bY0hdMg==

> <s_epik_cmdline>
J2VwaWtfcHl0aG9uJywgJy1waCcsICc3LjAnLCAnLXRuJywgJzgnLCAnLW1hJywgJzIwMCcsICctbWV0YWxfYmluZGluZycsICctaW1hZScsICc8aW5maWxlLm1hZT4nLCAnLW9tYWUnLCAnPG91dGZpbGUubWFlPic=

> <r_epik_Ionization_Penalty>
0.116752

> <r_epik_Ionization_Penalty_Charging>
0

> <r_epik_Ionization_Penalty_Neutral>
0.116752

> <r_epik_State_Penalty>
0.106329

> <r_epik_Charging_Adjusted_Penalty>
0.106329

> <i_epik_Tot_Q>
0

> <i_epik_Tot_abs_Q>
0

> <r_epik_Metal_State_Penalty>
0.0886803

> <b_epik_Metal_Only>
0

> <s_lp_Force_Field>
OPLS_2005

> <r_lp_Energy>
6.48368

> <b_lp_Chiralities_Consistent>
1

> <s_lp_Variant>
AV-unprocessed.smi:1960-1

> <Gold.Version>
5.8.1

> <Gold.Id.Protein>
6NUR|6NUR_protein|mol2

> <Gold.PLP.Fitness>
39.1564

> <Gold.PLP.PLP>
-27.6795

> <Gold.PLP.part.hbond>
-3.6036

> <Gold.PLP.part.metal>
0.0000

> <Gold.PLP.part.buried>
-4.8208

> <Gold.PLP.part.nonpolar>
-20.6594

> <Gold.PLP.part.repulsive>
0.4499

> <Gold.PLP.ligand.clash>
0.0000

> <Gold.PLP.ligand.torsion>
1.1940

> <Gold.PLP.Chemscore.Hbond>
2.1128

> <Gold.PLP.Chemscore.CHOScore>
1.8248

> <Gold.PLP.Chemscore.Metal>
0.0000

> <Gold.Chemscore.Hbonds>
donor molecule, donor type, donor heavy atom, donor atom, acceptor molecule, acceptor atom, score
      L1  H     9    29       P1  7948  1.00
      L1  H    12    30       P1  7948  1.00
      P1  H 10785 10796       L1    16  0.10
      L1  C    15    32       P1 10747  0.90
      L1  C    17    33       P1 10186  0.91

> <Gold.PLP.Chemscore.Internal.Correction>
2.0519

> <Gold.Rescore>
     Score         DG    S(hbond)    S(metal)    S(lipo)     H(rot)  DE(clash)    DE(int)     intcor
     14.51     -16.92       1.96        0.00      63.63       1.00       0.01       2.40       ----

> <Gold.Chemscore.Fitness>
14.5061

> <Gold.Chemscore.DG>
-16.9167

> <Gold.Chemscore.ZeroCoef>
-5.4800

> <Gold.Chemscore.Hbond>
1.9616

> <Gold.Chemscore.Metal>
0.0000

> <Gold.Chemscore.Lipo>
63.6317

> <Gold.Chemscore.Internal_Hbond>
0.0000

> <Gold.Chemscore.DEClash>
0.0060

> <Gold.Chemscore.DEInternal>
2.4046

> <Gold.Chemscore.Rot>
1.0000

> <Gold.Chemscore.Internal.Correction>
   9.000000E+99

> <Gold.Chemscore.Hbonds>
donor molecule, donor type, donor heavy atom, donor atom, acceptor molecule, acceptor atom, score
      L1  H     9    29       P1  7948  1.00
      L1  H    12    30       P1  7948  0.89
      P1  H 10785 10796       L1    16  0.07

> <Gold.Chemscore.Hbond.Weighted>
-6.5517

> <Gold.Chemscore.Metal.Weighted>
-0.0000

> <Gold.Chemscore.Lipo.Weighted>
-7.4449

> <Gold.Chemscore.Internal_Hbond.Weighted>
0.0000

> <Gold.Chemscore.DEClash.Weighted>
0.0060

> <Gold.Chemscore.DEInternal.Weighted>
2.4046

> <Gold.Chemscore.Rot.Weighted>
2.5600

> <Gold.Chemscore.Internal.Correction.Weighted>
   9.000000E+99

> <Gold.Protein.RotatedTorsions>
[ 6907 6896 6895 6894 ] final  -48.79 input  -60.11 | X-H torsion
[ 7974 7965 7964 7962 ] final   38.62 input  175.53 | X-H torsion
[ 8008 7997 7996 7995 ] final -165.53 input   59.86 | X-H torsion
[ 10167 10162 10161 10158 ] final  107.60 input  -65.29 | X-H torsion
[ 10718 10713 10712 10709 ] final   29.82 input   66.30 | X-H torsion
[ 10763 10752 10751 10750 ] final -118.42 input  -60.55 | X-H torsion
[ 11005 11000 10999 10996 ] final  143.64 input  -57.11 | X-H torsion

> <Gold.Protein.ActiveResidues>
 VAL166  LYS551  ARG553  GLY616  TRP617  ASP618  TYR619  PRO620  LYS621  CYS622 
 ASP623  PHE694  ASN695  SER759  ASP760  ASP761  ALA762  ILE779  LEU786  VAL792 
 PHE793  MET794  SER795  GLU796  ALA797  LYS798  CYS799  TRP800  GLU811  SER814 

> <Gold.Protein.RotatedAtoms>
  150.8870  134.8269  159.7265 H   0  0  0  0  0  0  0  0  0  0  0  0  # atno 6907 bound_to 6896
  152.4813  134.4707  159.9644 H   0  0  0  0  0  0  0  0  0  0  0  0  # atno 6908 bound_to 6896
  151.4775  133.3515  159.2868 H   0  0  0  0  0  0  0  0  0  0  0  0  # atno 6909 bound_to 6896
  146.1048  139.5750  142.9391 H   0  0  0  0  0  0  0  0  0  0  0  0  # atno 7974 bound_to 7965
  155.8510  140.0963  157.1674 H   0  0  0  0  0  0  0  0  0  0  0  0  # atno 8008 bound_to 7997
  154.3985  140.1383  156.3906 H   0  0  0  0  0  0  0  0  0  0  0  0  # atno 8009 bound_to 7997
  155.7961  140.3454  155.5379 H   0  0  0  0  0  0  0  0  0  0  0  0  # atno 8010 bound_to 7997
  139.6913  144.7107  151.1343 H   0  0  0  0  0  0  0  0  0  0  0  0  # atno 10167 bound_to 10162
  157.2515  130.7117  149.6408 H   0  0  0  0  0  0  0  0  0  0  0  0  # atno 10718 bound_to 10713
  154.8586  135.4274  154.2135 H   0  0  0  0  0  0  0  0  0  0  0  0  # atno 10763 bound_to 10752
  153.3156  135.6978  153.7082 H   0  0  0  0  0  0  0  0  0  0  0  0  # atno 10764 bound_to 10752
  153.6158  135.3511  155.2968 H   0  0  0  0  0  0  0  0  0  0  0  0  # atno 10765 bound_to 10752
  140.0569  134.9225  157.1117 H   0  0  0  0  0  0  0  0  0  0  0  0  # atno 11005 bound_to 11000
  145.5783  141.0386  143.2136 LP  0  0  0  0  0  0  0  0  0  0  0  0  # atno 17320 bound_to 7965
  144.7462  139.7315  143.7291 LP  0  0  0  0  0  0  0  0  0  0  0  0  # atno 17321 bound_to 7965
  140.7683  143.5555  150.9157 LP  0  0  0  0  0  0  0  0  0  0  0  0  # atno 17342 bound_to 10162
  139.9232  143.6581  152.3092 LP  0  0  0  0  0  0  0  0  0  0  0  0  # atno 17343 bound_to 10162
  155.9666  130.4426  150.5388 LP  0  0  0  0  0  0  0  0  0  0  0  0  # atno 17370 bound_to 10713
  157.3273  131.0693  151.1887 LP  0  0  0  0  0  0  0  0  0  0  0  0  # atno 17371 bound_to 10713
  140.3829  134.2267  155.7170 LP  0  0  0  0  0  0  0  0  0  0  0  0  # atno 17394 bound_to 11000
  141.1956  133.8101  157.0707 LP  0  0  0  0  0  0  0  0  0  0  0  0  # atno 17395 bound_to 11000

$$$$
