AV-unprocessed.smi:91|AV-procd|sdf|835|dock3
  -GOLD-   2262017263D 1   1.00000     0.00000
 Structure written by MMmdl.
 60 63  0  0  0  0  0  0  0  0  1 V2000
  146.4325  132.8687  152.2841 C   0  0  0  0  0  0  0  0  0  0  0  0
  147.5680  133.3919  152.9503 O   0  0  0  0  0  0  0  0  0  0  0  0
  148.4464  132.3759  153.4083 C   0  0  0  0  0  0  0  0  0  0  0  0
  148.9876  132.7341  154.7994 C   0  0  2  0  0  0  0  0  0  0  0  0
  149.2555  134.2399  154.9683 C   0  0  0  0  0  0  0  0  0  0  0  0
  149.8684  134.4953  156.2656 N   0  0  0  0  0  0  0  0  0  0  0  0
  149.8705  135.7980  156.6469 C   0  0  0  0  0  0  0  0  0  0  0  0
  149.1524  136.1908  157.7337 N   0  0  0  0  0  0  0  0  0  0  0  0
  149.1600  137.4688  158.1241 C   0  0  0  0  0  0  0  0  0  0  0  0
  149.8041  138.5032  157.5809 N   0  0  0  0  0  0  0  0  0  0  0  0
  150.5175  138.1184  156.4847 C   0  0  0  0  0  0  0  0  0  0  0  0
  150.6045  136.8011  155.9523 C   0  0  0  0  0  0  0  0  0  0  0  0
  151.4136  136.8021  154.8213 N   0  0  0  0  0  0  0  0  0  0  0  0
  151.7903  138.0457  154.6984 C   0  0  0  0  0  0  0  0  0  0  0  0
  151.3040  138.9018  155.6599 N   0  0  0  0  0  0  0  0  0  0  0  0
  151.5621  140.3261  155.7721 C   0  0  0  0  0  0  0  0  0  0  0  0
  150.2700  141.1801  155.7649 C   0  0  1  0  0  0  0  0  0  0  0  0
  149.1857  140.6130  154.8165 C   0  0  0  0  0  0  0  0  0  0  0  0
  149.3339  141.1135  153.5033 O   0  0  0  0  0  0  0  0  0  0  0  0
  149.7377  141.4144  157.2010 C   0  0  2  0  0  0  0  0  0  0  0  0
  148.3756  142.0810  157.2806 C   0  0  0  0  0  0  0  0  0  0  0  0
  148.3491  142.5923  158.7167 C   0  0  0  0  0  0  0  0  0  0  0  0
  149.6993  142.9058  159.0388 O   0  0  0  0  0  0  0  0  0  0  0  0
  150.5708  142.3924  158.0364 C   0  0  0  0  0  0  0  0  0  0  0  0
  151.0852  133.7156  156.4779 C   0  0  0  0  0  0  0  0  0  0  0  0
  150.8213  132.2044  156.2903 C   0  0  0  0  0  0  0  0  0  0  0  0
  152.1591  131.4533  156.2067 C   0  0  0  0  0  0  0  0  0  0  0  0
  149.9824  131.6175  157.4456 C   0  0  0  0  0  0  0  0  0  0  0  0
  150.1820  131.9854  155.0278 O   0  0  0  0  0  0  0  0  0  0  0  0
  145.7934  133.6866  151.9519 H   0  0  0  0  0  0  0  0  0  0  0  0
  145.8457  132.2310  152.9465 H   0  0  0  0  0  0  0  0  0  0  0  0
  146.7221  132.2897  151.4061 H   0  0  0  0  0  0  0  0  0  0  0  0
  147.9113  131.4261  153.4575 H   0  0  0  0  0  0  0  0  0  0  0  0
  149.2738  132.2466  152.7089 H   0  0  0  0  0  0  0  0  0  0  0  0
  148.2347  132.4253  155.5245 H   0  0  0  0  0  0  0  0  0  0  0  0
  149.9331  134.5953  154.1908 H   0  0  0  0  0  0  0  0  0  0  0  0
  148.3226  134.7897  154.8487 H   0  0  0  0  0  0  0  0  0  0  0  0
  148.5659  137.6942  158.9976 H   0  0  0  0  0  0  0  0  0  0  0  0
  152.4435  138.3741  153.9027 H   0  0  0  0  0  0  0  0  0  0  0  0
  152.1294  140.5041  156.6864 H   0  0  0  0  0  0  0  0  0  0  0  0
  152.2152  140.6083  154.9461 H   0  0  0  0  0  0  0  0  0  0  0  0
  150.5412  142.1576  155.3629 H   0  0  0  0  0  0  0  0  0  0  0  0
  149.2282  139.5247  154.7828 H   0  0  0  0  0  0  0  0  0  0  0  0
  148.1861  140.8593  155.1743 H   0  0  0  0  0  0  0  0  0  0  0  0
  149.5025  140.3871  152.9226 H   0  0  0  0  0  0  0  0  0  0  0  0
  149.6876  140.4627  157.7326 H   0  0  0  0  0  0  0  0  0  0  0  0
  148.3190  142.9189  156.5842 H   0  0  0  0  0  0  0  0  0  0  0  0
  147.5490  141.4025  157.0677 H   0  0  0  0  0  0  0  0  0  0  0  0
  147.6968  143.4572  158.8391 H   0  0  0  0  0  0  0  0  0  0  0  0
  148.0041  141.8090  159.3927 H   0  0  0  0  0  0  0  0  0  0  0  0
  151.4454  141.9198  158.4843 H   0  0  0  0  0  0  0  0  0  0  0  0
  150.9160  143.2278  157.4252 H   0  0  0  0  0  0  0  0  0  0  0  0
  151.8401  134.0510  155.7648 H   0  0  0  0  0  0  0  0  0  0  0  0
  151.4838  133.8996  157.4768 H   0  0  0  0  0  0  0  0  0  0  0  0
  152.7415  131.5765  157.1204 H   0  0  0  0  0  0  0  0  0  0  0  0
  152.7652  131.8184  155.3769 H   0  0  0  0  0  0  0  0  0  0  0  0
  152.0037  130.3850  156.0533 H   0  0  0  0  0  0  0  0  0  0  0  0
  150.5251  131.6753  158.3894 H   0  0  0  0  0  0  0  0  0  0  0  0
  149.7468  130.5681  157.2658 H   0  0  0  0  0  0  0  0  0  0  0  0
  149.0417  132.1477  157.5903 H   0  0  0  0  0  0  0  0  0  0  0  0
  1  2  1  0  0  0  0
  1 30  1  0  0  0  0
  1 31  1  0  0  0  0
  1 32  1  0  0  0  0
  2  3  1  0  0  0  0
  3  4  1  0  0  0  0
  3 33  1  0  0  0  0
  3 34  1  0  0  0  0
  4 29  1  0  0  0  0
  4  5  1  0  0  0  0
  4 35  1  0  0  0  0
  5  6  1  0  0  0  0
  5 36  1  0  0  0  0
  5 37  1  0  0  0  0
  6  7  1  0  0  0  0
  6 25  1  0  0  0  0
  7 12  1  0  0  0  0
  7  8  2  0  0  0  0
  8  9  1  0  0  0  0
  9 10  2  0  0  0  0
  9 38  1  0  0  0  0
 10 11  1  0  0  0  0
 11 15  1  0  0  0  0
 11 12  2  0  0  0  0
 12 13  1  0  0  0  0
 13 14  2  0  0  0  0
 14 15  1  0  0  0  0
 14 39  1  0  0  0  0
 15 16  1  0  0  0  0
 16 17  1  0  0  0  0
 16 40  1  0  0  0  0
 16 41  1  0  0  0  0
 17 18  1  0  0  0  0
 17 20  1  0  0  0  0
 17 42  1  0  0  0  0
 18 19  1  0  0  0  0
 18 43  1  0  0  0  0
 18 44  1  0  0  0  0
 19 45  1  0  0  0  0
 20 24  1  0  0  0  0
 20 21  1  0  0  0  0
 20 46  1  0  0  0  0
 21 22  1  0  0  0  0
 21 47  1  0  0  0  0
 21 48  1  0  0  0  0
 22 23  1  0  0  0  0
 22 49  1  0  0  0  0
 22 50  1  0  0  0  0
 23 24  1  0  0  0  0
 24 51  1  0  0  0  0
 24 52  1  0  0  0  0
 25 26  1  0  0  0  0
 25 53  1  0  0  0  0
 25 54  1  0  0  0  0
 26 27  1  0  0  0  0
 26 28  1  0  0  0  0
 26 29  1  0  0  0  0
 27 55  1  0  0  0  0
 27 56  1  0  0  0  0
 27 57  1  0  0  0  0
 28 58  1  0  0  0  0
 28 59  1  0  0  0  0
 28 60  1  0  0  0  0
M  END
> <s_m_source_file>
AV-unprocessed.smi

> <i_m_source_file_index>
91

> <i_lp_mmshare_version>
43012

> <i_f3d_flags>
0

> <s_epik_input>
W0NIM11PW0NIMl1bQ0BASF0oTzEpW0NIMl1OKFtDSDJdQzEoW0NIM10pW0NIM10pYyhuW2NIXW4yKWMoYzIzKW5bY0hdbjNbQ0gyXVtDQEhdKFtDSDJdW09IXSlbQ0BASF00W0NIMl1bQ0gyXU9bQ0gyXTQ=

> <s_epik_cmdline>
J2VwaWtfcHl0aG9uJywgJy1waCcsICc3LjAnLCAnLXRuJywgJzgnLCAnLW1hJywgJzIwMCcsICctbWV0YWxfYmluZGluZycsICctaW1hZScsICc8aW5maWxlLm1hZT4nLCAnLW9tYWUnLCAnPG91dGZpbGUubWFlPic=

> <r_lp_tautomer_probability>
1

> <r_epik_Ionization_Penalty>
8.63591e-05

> <r_epik_Ionization_Penalty_Charging>
0

> <r_epik_Ionization_Penalty_Neutral>
8.63591e-05

> <r_epik_State_Penalty>
-0

> <r_epik_Charging_Adjusted_Penalty>
0

> <i_epik_Tot_Q>
0

> <i_epik_Tot_abs_Q>
0

> <r_epik_Metal_State_Penalty>
-0

> <b_epik_Metal_Only>
0

> <s_lp_Force_Field>
OPLS_2005

> <r_lp_Energy>
46.4326

> <b_lp_Chiralities_Consistent>
1

> <s_lp_Variant>
AV-unprocessed.smi:91-3

> <Gold.Version>
5.8.1

> <Gold.Id.Protein>
6NUR|6NUR_protein|mol2

> <Gold.PLP.Fitness>
48.2444

> <Gold.PLP.PLP>
-42.6684

> <Gold.PLP.part.hbond>
-4.4961

> <Gold.PLP.part.metal>
0.0000

> <Gold.PLP.part.buried>
-5.1069

> <Gold.PLP.part.nonpolar>
-32.6766

> <Gold.PLP.part.repulsive>
0.4753

> <Gold.PLP.ligand.clash>
0.0000

> <Gold.PLP.ligand.torsion>
1.5897

> <Gold.PLP.Chemscore.Hbond>
2.7360

> <Gold.PLP.Chemscore.CHOScore>
0.0000

> <Gold.PLP.Chemscore.Metal>
0.0000

> <Gold.Chemscore.Hbonds>
donor molecule, donor type, donor heavy atom, donor atom, acceptor molecule, acceptor atom, score
      L1  H    19    45       P1  7957  0.78
      P1  H  8011  8017       L1    19  0.80
      P1  H 10752 10765       L1    13  1.00

> <Gold.PLP.Chemscore.Internal.Correction>
0.5474

> <Gold.Rescore>
     Score         DG    S(hbond)    S(metal)    S(lipo)     H(rot)  DE(clash)    DE(int)     intcor
     12.07     -14.59       2.22        0.00      80.76       3.03       0.06       2.47       ----

> <Gold.Chemscore.Fitness>
12.0701

> <Gold.Chemscore.DG>
-14.5943

> <Gold.Chemscore.ZeroCoef>
-5.4800

> <Gold.Chemscore.Hbond>
2.2211

> <Gold.Chemscore.Metal>
0.0000

> <Gold.Chemscore.Lipo>
80.7568

> <Gold.Chemscore.Internal_Hbond>
0.0000

> <Gold.Chemscore.DEClash>
0.0554

> <Gold.Chemscore.DEInternal>
2.4688

> <Gold.Chemscore.Rot>
3.0284

> <Gold.Chemscore.Internal.Correction>
   9.000000E+99

> <Gold.Chemscore.Hbonds>
donor molecule, donor type, donor heavy atom, donor atom, acceptor molecule, acceptor atom, score
      L1  H    19    45       P1  7957  0.78
      P1  H  8011  8017       L1    19  0.11
      P1  H 10752 10765       L1    13  0.69

> <Gold.Chemscore.Hbond.Weighted>
-7.4186

> <Gold.Chemscore.Metal.Weighted>
-0.0000

> <Gold.Chemscore.Lipo.Weighted>
-9.4485

> <Gold.Chemscore.Internal_Hbond.Weighted>
0.0000

> <Gold.Chemscore.DEClash.Weighted>
0.0554

> <Gold.Chemscore.DEInternal.Weighted>
2.4688

> <Gold.Chemscore.Rot.Weighted>
7.7528

> <Gold.Chemscore.Internal.Correction.Weighted>
   9.000000E+99

> <Gold.Protein.RotatedTorsions>
[ 6907 6896 6895 6894 ] final   72.85 input  -60.11 | X-H torsion
[ 7974 7965 7964 7962 ] final  -35.47 input  175.53 | X-H torsion
[ 8008 7997 7996 7995 ] final  113.56 input   59.86 | X-H torsion
[ 10167 10162 10161 10158 ] final   40.42 input  -65.29 | X-H torsion
[ 10718 10713 10712 10709 ] final -145.64 input   66.30 | X-H torsion
[ 10763 10752 10751 10750 ] final  173.12 input  -60.55 | X-H torsion
[ 11005 11000 10999 10996 ] final -165.38 input  -57.11 | X-H torsion

> <Gold.Protein.ActiveResidues>
 VAL166  LYS551  ARG553  GLY616  TRP617  ASP618  TYR619  PRO620  LYS621  CYS622 
 ASP623  PHE694  ASN695  SER759  ASP760  ASP761  ALA762  ILE779  LEU786  VAL792 
 PHE793  MET794  SER795  GLU796  ALA797  LYS798  CYS799  TRP800  GLU811  SER814 

> <Gold.Protein.RotatedAtoms>
  152.4891  134.4509  159.9573 H   0  0  0  0  0  0  0  0  0  0  0  0  # atno 6907 bound_to 6896
  151.4499  133.3614  159.2801 H   0  0  0  0  0  0  0  0  0  0  0  0  # atno 6908 bound_to 6896
  150.9028  134.8466  159.7432 H   0  0  0  0  0  0  0  0  0  0  0  0  # atno 6909 bound_to 6896
  146.0744  140.6162  142.8937 H   0  0  0  0  0  0  0  0  0  0  0  0  # atno 7974 bound_to 7965
  156.2266  140.2977  156.0082 H   0  0  0  0  0  0  0  0  0  0  0  0  # atno 8008 bound_to 7997
  155.2340  140.0420  157.2983 H   0  0  0  0  0  0  0  0  0  0  0  0  # atno 8009 bound_to 7997
  154.5925  140.2405  155.7909 H   0  0  0  0  0  0  0  0  0  0  0  0  # atno 8010 bound_to 7997
  140.3744  144.2063  150.6132 H   0  0  0  0  0  0  0  0  0  0  0  0  # atno 10167 bound_to 10162
  156.3850  130.7856  151.2052 H   0  0  0  0  0  0  0  0  0  0  0  0  # atno 10718 bound_to 10713
  154.4357  135.2761  155.1882 H   0  0  0  0  0  0  0  0  0  0  0  0  # atno 10763 bound_to 10752
  154.3770  135.6096  153.5774 H   0  0  0  0  0  0  0  0  0  0  0  0  # atno 10764 bound_to 10752
  152.9838  135.5871  154.4675 H   0  0  0  0  0  0  0  0  0  0  0  0  # atno 10765 bound_to 10752
  140.5764  134.5186  157.5171 H   0  0  0  0  0  0  0  0  0  0  0  0  # atno 11005 bound_to 11000
  144.7252  140.4502  143.6978 LP  0  0  0  0  0  0  0  0  0  0  0  0  # atno 17320 bound_to 7965
  145.6333  139.1539  143.2957 LP  0  0  0  0  0  0  0  0  0  0  0  0  # atno 17321 bound_to 7965
  140.5001  143.2320  151.8691 LP  0  0  0  0  0  0  0  0  0  0  0  0  # atno 17342 bound_to 10162
  139.4801  144.5069  151.8985 LP  0  0  0  0  0  0  0  0  0  0  0  0  # atno 17343 bound_to 10162
  157.7495  131.0333  150.4264 LP  0  0  0  0  0  0  0  0  0  0  0  0  # atno 17370 bound_to 10713
  156.4515  130.4012  149.6633 LP  0  0  0  0  0  0  0  0  0  0  0  0  # atno 17371 bound_to 10713
  139.9338  134.7914  156.0859 LP  0  0  0  0  0  0  0  0  0  0  0  0  # atno 17394 bound_to 11000
  141.1024  133.6672  156.2785 LP  0  0  0  0  0  0  0  0  0  0  0  0  # atno 17395 bound_to 11000

$$$$
