AV-unprocessed.smi:1033|AV-procd|sdf|4499|dock1
  -GOLD-   22720 2493D 1   1.00000     0.00000
 Structure written by MMmdl.
 57 59  0  0  0  0  0  0  0  0  3 V2000
  151.7393  145.0013  160.0376 C   0  0  0  0  0  0  0  0  0  0  0  0
  151.6969  143.7571  159.1667 C   0  0  0  0  0  0  0  0  0  0  0  0
  151.1304  143.8562  157.8762 C   0  0  0  0  0  0  0  0  0  0  0  0
  151.0947  142.6986  157.1086 C   0  0  0  0  0  0  0  0  0  0  0  0
  150.5996  142.4708  155.8235 N   0  3  0  0  0  0  0  0  0  0  0  0
  150.7758  141.1618  155.4935 C   0  0  0  0  0  0  0  0  0  0  0  0
  151.3684  140.5464  156.5534 N   0  0  0  0  0  0  0  0  0  0  0  0
  151.7618  139.1378  156.7105 C   0  0  0  0  0  0  0  0  0  0  0  0
  150.6038  138.1486  156.4492 C   0  0  1  0  0  0  0  0  0  0  0  0
  149.4857  138.6045  157.1802 O   0  0  0  0  0  0  0  0  0  0  0  0
  150.1717  138.0134  154.9701 C   0  0  0  0  0  0  0  0  0  0  0  0
  149.4090  136.7724  154.6864 N   0  3  0  0  0  0  0  0  0  0  0  0
  147.9619  136.9008  154.9880 C   0  0  0  0  0  0  0  0  0  0  0  0
  147.2198  135.6315  154.5267 C   0  0  0  0  0  0  0  0  0  0  0  0
  147.7204  134.4091  155.1566 N   0  0  0  0  0  0  0  0  0  0  0  0
  147.3576  134.3207  156.5799 C   0  0  0  0  0  0  0  0  0  0  0  0
  147.8094  133.0515  157.3373 C   0  0  2  0  0  0  0  0  0  0  0  0
  146.8936  132.5505  158.4621 C   0  0  0  0  0  0  0  0  0  0  0  0
  149.1196  133.2360  157.8305 O   0  0  0  0  0  0  0  0  0  0  0  0
  149.1590  134.3104  154.8799 C   0  0  0  0  0  0  0  0  0  0  0  0
  149.9659  135.5503  155.3210 C   0  0  0  0  0  0  0  0  0  0  0  0
  151.6037  141.4718  157.5790 C   0  0  0  0  0  0  0  0  0  0  0  0
  152.1766  141.3606  158.8443 C   0  0  0  0  0  0  0  0  0  0  0  0
  152.2136  142.5251  159.6440 C   0  0  0  0  0  0  0  0  0  0  0  0
  152.8151  142.4285  161.0357 C   0  0  0  0  0  0  0  0  0  0  0  0
  151.2823  145.8551  159.5365 H   0  0  0  0  0  0  0  0  0  0  0  0
  152.7694  145.2673  160.2758 H   0  0  0  0  0  0  0  0  0  0  0  0
  151.1993  144.8350  160.9700 H   0  0  0  0  0  0  0  0  0  0  0  0
  150.7368  144.7920  157.5058 H   0  0  0  0  0  0  0  0  0  0  0  0
  150.4906  140.6947  154.5613 H   0  0  0  0  0  0  0  0  0  0  0  0
  152.5623  138.9627  155.9899 H   0  0  0  0  0  0  0  0  0  0  0  0
  152.2051  138.9813  157.6934 H   0  0  0  0  0  0  0  0  0  0  0  0
  150.8566  137.1740  156.8652 H   0  0  0  0  0  0  0  0  0  0  0  0
  148.8430  138.9469  156.5775 H   0  0  0  0  0  0  0  0  0  0  0  0
  149.5663  138.8697  154.6685 H   0  0  0  0  0  0  0  0  0  0  0  0
  151.0672  138.0383  154.3472 H   0  0  0  0  0  0  0  0  0  0  0  0
  147.8147  137.0768  156.0547 H   0  0  0  0  0  0  0  0  0  0  0  0
  147.5516  137.7648  154.4639 H   0  0  0  0  0  0  0  0  0  0  0  0
  146.1507  135.7367  154.7152 H   0  0  0  0  0  0  0  0  0  0  0  0
  147.3174  135.5390  153.4444 H   0  0  0  0  0  0  0  0  0  0  0  0
  147.7006  135.2040  157.1172 H   0  0  0  0  0  0  0  0  0  0  0  0
  146.2701  134.3491  156.6654 H   0  0  0  0  0  0  0  0  0  0  0  0
  147.8727  132.2517  156.5987 H   0  0  0  0  0  0  0  0  0  0  0  0
  145.8578  132.4836  158.1288 H   0  0  0  0  0  0  0  0  0  0  0  0
  146.9357  133.1959  159.3389 H   0  0  0  0  0  0  0  0  0  0  0  0
  147.1977  131.5554  158.7882 H   0  0  0  0  0  0  0  0  0  0  0  0
  149.6834  132.5881  157.4362 H   0  0  0  0  0  0  0  0  0  0  0  0
  149.5877  133.4245  155.3390 H   0  0  0  0  0  0  0  0  0  0  0  0
  149.2983  134.1727  153.8067 H   0  0  0  0  0  0  0  0  0  0  0  0
  151.0041  135.4113  155.0230 H   0  0  0  0  0  0  0  0  0  0  0  0
  149.9666  135.6578  156.4059 H   0  0  0  0  0  0  0  0  0  0  0  0
  152.5683  140.4256  159.2161 H   0  0  0  0  0  0  0  0  0  0  0  0
  153.1916  141.4259  161.2401 H   0  0  0  0  0  0  0  0  0  0  0  0
  152.0664  142.6639  161.7925 H   0  0  0  0  0  0  0  0  0  0  0  0
  153.6478  143.1239  161.1434 H   0  0  0  0  0  0  0  0  0  0  0  0
  149.4701  136.6313  153.6885 H   0  0  0  0  0  0  0  0  0  0  0  0
  150.1768  143.1579  155.2117 H   0  0  0  0  0  0  0  0  0  0  0  0
  1  2  1  0  0  0  0
  1 26  1  0  0  0  0
  1 27  1  0  0  0  0
  1 28  1  0  0  0  0
  2 24  1  0  0  0  0
  2  3  2  0  0  0  0
  3  4  1  0  0  0  0
  3 29  1  0  0  0  0
  4 22  2  0  0  0  0
  4  5  1  0  0  0  0
  5  6  2  0  0  0  0
  5 57  1  0  0  0  0
  6  7  1  0  0  0  0
  6 30  1  0  0  0  0
  7  8  1  0  0  0  0
  7 22  1  0  0  0  0
  8  9  1  0  0  0  0
  8 31  1  0  0  0  0
  8 32  1  0  0  0  0
  9 10  1  0  0  0  0
  9 11  1  0  0  0  0
  9 33  1  0  0  0  0
 10 34  1  0  0  0  0
 11 12  1  0  0  0  0
 11 35  1  0  0  0  0
 11 36  1  0  0  0  0
 12 21  1  0  0  0  0
 12 13  1  0  0  0  0
 12 56  1  0  0  0  0
 13 14  1  0  0  0  0
 13 37  1  0  0  0  0
 13 38  1  0  0  0  0
 14 15  1  0  0  0  0
 14 39  1  0  0  0  0
 14 40  1  0  0  0  0
 15 16  1  0  0  0  0
 15 20  1  0  0  0  0
 16 17  1  0  0  0  0
 16 41  1  0  0  0  0
 16 42  1  0  0  0  0
 17 18  1  0  0  0  0
 17 19  1  0  0  0  0
 17 43  1  0  0  0  0
 18 44  1  0  0  0  0
 18 45  1  0  0  0  0
 18 46  1  0  0  0  0
 19 47  1  0  0  0  0
 20 21  1  0  0  0  0
 20 48  1  0  0  0  0
 20 49  1  0  0  0  0
 21 50  1  0  0  0  0
 21 51  1  0  0  0  0
 22 23  1  0  0  0  0
 23 24  2  0  0  0  0
 23 52  1  0  0  0  0
 24 25  1  0  0  0  0
 25 53  1  0  0  0  0
 25 54  1  0  0  0  0
 25 55  1  0  0  0  0
M  CHG  1   5   1
M  CHG  1  12   1
M  END
> <s_m_source_file>
AV-unprocessed.smi

> <i_m_source_file_index>
1033

> <i_lp_mmshare_version>
43012

> <i_f3d_flags>
0

> <s_epik_input>
W0NIM11jKFtjSF0xKWMoW0NIM10pW2NIXWMoYzEyKW4oW2NIXW4yKVtDSDJdW0NASF0oW09IXSlbQ0gyXU4zW0NIMl1bQ0gyXU4oW0NIMl1bQ0gyXTMpW0NIMl1bQ0BIXShbQ0gzXSlbT0hd

> <s_epik_cmdline>
J2VwaWtfcHl0aG9uJywgJy1waCcsICc3LjAnLCAnLXRuJywgJzgnLCAnLW1hJywgJzIwMCcsICctbWV0YWxfYmluZGluZycsICctaW1hZScsICc8aW5maWxlLm1hZT4nLCAnLW9tYWUnLCAnPG91dGZpbGUubWFlPic=

> <r_epik_Ionization_Penalty>
1.22049

> <r_epik_Ionization_Penalty_Charging>
1.17952

> <r_epik_Ionization_Penalty_Neutral>
0.0409743

> <r_epik_State_Penalty>
1.61468

> <r_epik_Charging_Adjusted_Penalty>
2.7942

> <i_epik_Tot_Q>
2

> <i_epik_Tot_abs_Q>
2

> <r_epik_Metal_State_Penalty>
5.63169

> <b_epik_Metal_Only>
0

> <s_lp_Force_Field>
OPLS_2005

> <r_lp_Energy>
50.4079

> <b_lp_Chiralities_Consistent>
1

> <s_lp_Variant>
AV-unprocessed.smi:1033-10

> <Gold.Version>
5.8.1

> <Gold.Id.Protein>
6NUR|6NUR_protein|mol2

> <Gold.PLP.Fitness>
56.3124

> <Gold.PLP.PLP>
-42.7619

> <Gold.PLP.part.hbond>
-3.0000

> <Gold.PLP.part.metal>
0.0000

> <Gold.PLP.part.buried>
-5.7323

> <Gold.PLP.part.nonpolar>
-34.1868

> <Gold.PLP.part.repulsive>
0.1904

> <Gold.PLP.ligand.clash>
0.0000

> <Gold.PLP.ligand.torsion>
0.8519

> <Gold.PLP.Chemscore.Hbond>
4.9920

> <Gold.PLP.Chemscore.CHOScore>
0.0000

> <Gold.PLP.Chemscore.Metal>
0.0000

> <Gold.Chemscore.Hbonds>
donor molecule, donor type, donor heavy atom, donor atom, acceptor molecule, acceptor atom, score
      L1  H     5    57       P1  8028  1.11
      L1  H    12    56       P1  7948  2.00

> <Gold.PLP.Chemscore.Internal.Correction>
0.2785

> <Gold.Rescore>
     Score         DG    S(hbond)    S(metal)    S(lipo)     H(rot)  DE(clash)    DE(int)     intcor
     19.94     -21.14       2.91        0.00     119.78       3.15       0.03       1.17       ----

> <Gold.Chemscore.Fitness>
19.9380

> <Gold.Chemscore.DG>
-21.1381

> <Gold.Chemscore.ZeroCoef>
-5.4800

> <Gold.Chemscore.Hbond>
2.9052

> <Gold.Chemscore.Metal>
0.0000

> <Gold.Chemscore.Lipo>
119.7823

> <Gold.Chemscore.Internal_Hbond>
0.0000

> <Gold.Chemscore.DEClash>
0.0318

> <Gold.Chemscore.DEInternal>
1.1683

> <Gold.Chemscore.Rot>
3.1483

> <Gold.Chemscore.Internal.Correction>
   9.000000E+99

> <Gold.Chemscore.Hbonds>
donor molecule, donor type, donor heavy atom, donor atom, acceptor molecule, acceptor atom, score
      L1  H     5    57       P1  8028  0.55
      L1  H    12    56       P1  7948  0.85

> <Gold.Chemscore.Hbond.Weighted>
-9.7032

> <Gold.Chemscore.Metal.Weighted>
-0.0000

> <Gold.Chemscore.Lipo.Weighted>
-14.0145

> <Gold.Chemscore.Internal_Hbond.Weighted>
0.0000

> <Gold.Chemscore.DEClash.Weighted>
0.0318

> <Gold.Chemscore.DEInternal.Weighted>
1.1683

> <Gold.Chemscore.Rot.Weighted>
8.0597

> <Gold.Chemscore.Internal.Correction.Weighted>
   9.000000E+99

> <Gold.Protein.RotatedTorsions>
[ 6907 6896 6895 6894 ] final   83.24 input  -60.11 | X-H torsion
[ 7974 7965 7964 7962 ] final  -63.65 input  175.53 | X-H torsion
[ 8008 7997 7996 7995 ] final  -14.13 input   59.86 | X-H torsion
[ 10167 10162 10161 10158 ] final   56.87 input  -65.29 | X-H torsion
[ 10718 10713 10712 10709 ] final  154.17 input   66.30 | X-H torsion
[ 10763 10752 10751 10750 ] final   67.15 input  -60.55 | X-H torsion
[ 11005 11000 10999 10996 ] final   35.47 input  -57.11 | X-H torsion

> <Gold.Protein.ActiveResidues>
 VAL166  LYS551  ARG553  GLY616  TRP617  ASP618  TYR619  PRO620  LYS621  CYS622 
 ASP623  PHE694  ASN695  SER759  ASP760  ASP761  ALA762  ILE779  LEU786  VAL792 
 PHE793  MET794  SER795  GLU796  ALA797  LYS798  CYS799  TRP800  GLU811  SER814 

> <Gold.Protein.RotatedAtoms>
  152.5321  134.2926  159.9048 H   0  0  0  0  0  0  0  0  0  0  0  0  # atno 6907 bound_to 6896
  151.2878  133.4173  159.2638 H   0  0  0  0  0  0  0  0  0  0  0  0  # atno 6908 bound_to 6896
  151.0227  134.9497  159.8125 H   0  0  0  0  0  0  0  0  0  0  0  0  # atno 6909 bound_to 6896
  145.7764  140.8786  143.0353 H   0  0  0  0  0  0  0  0  0  0  0  0  # atno 7974 bound_to 7965
  154.5235  140.2231  155.8932 H   0  0  0  0  0  0  0  0  0  0  0  0  # atno 8008 bound_to 7997
  156.1688  140.3126  155.8901 H   0  0  0  0  0  0  0  0  0  0  0  0  # atno 8009 bound_to 7997
  155.3601  140.0460  157.3037 H   0  0  0  0  0  0  0  0  0  0  0  0  # atno 8010 bound_to 7997
  140.2041  144.3957  150.6516 H   0  0  0  0  0  0  0  0  0  0  0  0  # atno 10167 bound_to 10162
  157.2351  131.0747  151.1828 H   0  0  0  0  0  0  0  0  0  0  0  0  # atno 10718 bound_to 10713
  153.0173  135.5294  154.6935 H   0  0  0  0  0  0  0  0  0  0  0  0  # atno 10763 bound_to 10752
  154.6063  135.2873  155.0483 H   0  0  0  0  0  0  0  0  0  0  0  0  # atno 10764 bound_to 10752
  154.1521  135.6561  153.5018 H   0  0  0  0  0  0  0  0  0  0  0  0  # atno 10765 bound_to 10752
  140.2423  134.3400  155.7921 H   0  0  0  0  0  0  0  0  0  0  0  0  # atno 11005 bound_to 11000
  144.6804  139.9927  143.7484 LP  0  0  0  0  0  0  0  0  0  0  0  0  # atno 17320 bound_to 7965
  146.0118  139.3176  143.0865 LP  0  0  0  0  0  0  0  0  0  0  0  0  # atno 17321 bound_to 7965
  140.6369  143.2196  151.6374 LP  0  0  0  0  0  0  0  0  0  0  0  0  # atno 17342 bound_to 10162
  139.5205  144.3220  152.0902 LP  0  0  0  0  0  0  0  0  0  0  0  0  # atno 17343 bound_to 10162
  157.3438  130.7047  149.6398 LP  0  0  0  0  0  0  0  0  0  0  0  0  # atno 17370 bound_to 10713
  155.9673  130.4272  150.4734 LP  0  0  0  0  0  0  0  0  0  0  0  0  # atno 17371 bound_to 10713
  141.2209  133.7306  156.8906 LP  0  0  0  0  0  0  0  0  0  0  0  0  # atno 17394 bound_to 11000
  140.1640  134.9146  157.2751 LP  0  0  0  0  0  0  0  0  0  0  0  0  # atno 17395 bound_to 11000

$$$$
