AV-unprocessed.smi:2284|AV-procd|sdf|9202|dock4
  -GOLD-   2272012413D 1   1.00000     0.00000
 Structure written by MMmdl.
 44 45  0  0  0  0  0  0  0  0  1 V2000
  151.8038  145.5173  160.3153 C   0  0  0  0  0  0  0  0  0  0  0  0
  152.0564  144.0398  160.0955 C   0  0  0  0  0  0  0  0  0  0  0  0
  152.8160  143.3003  161.0228 C   0  0  0  0  0  0  0  0  0  0  0  0
  153.0429  141.9285  160.8103 C   0  0  0  0  0  0  0  0  0  0  0  0
  152.5134  141.2881  159.6709 C   0  0  0  0  0  0  0  0  0  0  0  0
  152.7690  139.8081  159.4537 C   0  0  0  0  0  0  0  0  0  0  0  0
  151.7511  142.0196  158.7313 C   0  0  0  0  0  0  0  0  0  0  0  0
  151.2634  141.3323  157.6401 O   0  0  0  0  0  0  0  0  0  0  0  0
  150.7713  142.0733  156.5317 C   0  0  0  0  0  0  0  0  0  0  0  0
  150.3730  141.0802  155.4300 C   0  0  1  0  0  0  0  0  0  0  0  0
  151.4735  140.2179  155.2241 O   0  0  0  0  0  0  0  0  0  0  0  0
  149.1365  140.2375  155.8212 C   0  0  0  0  0  0  0  0  0  0  0  0
  147.9006  141.0363  155.8023 N   0  0  0  0  0  0  0  0  0  0  0  0
  147.1613  141.0679  156.9971 C   0  0  0  0  0  0  0  0  0  0  0  0
  146.0650  141.7452  157.0996 N   0  0  0  0  0  0  0  0  0  0  0  0
  145.5905  142.4722  156.0041 C   0  0  0  0  0  0  0  0  0  0  0  0
  144.2951  143.2306  156.2320 C   0  0  0  0  0  0  0  0  0  0  0  0
  146.2624  142.4870  154.8203 C   0  0  0  0  0  0  0  0  0  0  0  0
  145.7930  143.2604  153.5942 C   0  0  0  0  0  0  0  0  0  0  0  0
  147.5148  141.7245  154.6899 C   0  0  0  0  0  0  0  0  0  0  0  0
  148.1774  141.7015  153.6510 O   0  0  0  0  0  0  0  0  0  0  0  0
  151.5269  143.4016  158.9560 C   0  0  0  0  0  0  0  0  0  0  0  0
  152.2946  145.8759  161.2207 H   0  0  0  0  0  0  0  0  0  0  0  0
  150.7344  145.7076  160.4093 H   0  0  0  0  0  0  0  0  0  0  0  0
  152.1825  146.0947  159.4716 H   0  0  0  0  0  0  0  0  0  0  0  0
  153.2268  143.7802  161.8992 H   0  0  0  0  0  0  0  0  0  0  0  0
  153.6269  141.3697  161.5270 H   0  0  0  0  0  0  0  0  0  0  0  0
  153.2970  139.6488  158.5130 H   0  0  0  0  0  0  0  0  0  0  0  0
  151.8256  139.2628  159.4144 H   0  0  0  0  0  0  0  0  0  0  0  0
  153.3722  139.3844  160.2570 H   0  0  0  0  0  0  0  0  0  0  0  0
  149.8995  142.6525  156.8414 H   0  0  0  0  0  0  0  0  0  0  0  0
  151.5279  142.7664  156.1593 H   0  0  0  0  0  0  0  0  0  0  0  0
  150.1940  141.6360  154.5084 H   0  0  0  0  0  0  0  0  0  0  0  0
  151.2410  139.3538  155.5280 H   0  0  0  0  0  0  0  0  0  0  0  0
  149.0573  139.3477  155.1936 H   0  0  0  0  0  0  0  0  0  0  0  0
  149.2699  139.8312  156.8260 H   0  0  0  0  0  0  0  0  0  0  0  0
  147.5797  140.4897  157.8232 H   0  0  0  0  0  0  0  0  0  0  0  0
  143.5196  142.8741  155.5537 H   0  0  0  0  0  0  0  0  0  0  0  0
  144.4425  144.2980  156.0644 H   0  0  0  0  0  0  0  0  0  0  0  0
  143.9323  143.1001  157.2524 H   0  0  0  0  0  0  0  0  0  0  0  0
  146.5395  144.0033  153.3113 H   0  0  0  0  0  0  0  0  0  0  0  0
  144.8512  143.7838  153.7502 H   0  0  0  0  0  0  0  0  0  0  0  0
  145.6544  142.5817  152.7519 H   0  0  0  0  0  0  0  0  0  0  0  0
  150.9463  143.9948  158.2658 H   0  0  0  0  0  0  0  0  0  0  0  0
  1  2  1  0  0  0  0
  1 23  1  0  0  0  0
  1 24  1  0  0  0  0
  1 25  1  0  0  0  0
  2 22  1  0  0  0  0
  2  3  2  0  0  0  0
  3  4  1  0  0  0  0
  3 26  1  0  0  0  0
  4  5  2  0  0  0  0
  4 27  1  0  0  0  0
  5  6  1  0  0  0  0
  5  7  1  0  0  0  0
  6 28  1  0  0  0  0
  6 29  1  0  0  0  0
  6 30  1  0  0  0  0
  7  8  1  0  0  0  0
  7 22  2  0  0  0  0
  8  9  1  0  0  0  0
  9 10  1  0  0  0  0
  9 31  1  0  0  0  0
  9 32  1  0  0  0  0
 10 11  1  0  0  0  0
 10 12  1  0  0  0  0
 10 33  1  0  0  0  0
 11 34  1  0  0  0  0
 12 13  1  0  0  0  0
 12 35  1  0  0  0  0
 12 36  1  0  0  0  0
 13 20  1  0  0  0  0
 13 14  1  0  0  0  0
 14 15  2  0  0  0  0
 14 37  1  0  0  0  0
 15 16  1  0  0  0  0
 16 17  1  0  0  0  0
 16 18  2  0  0  0  0
 17 38  1  0  0  0  0
 17 39  1  0  0  0  0
 17 40  1  0  0  0  0
 18 19  1  0  0  0  0
 18 20  1  0  0  0  0
 19 41  1  0  0  0  0
 19 42  1  0  0  0  0
 19 43  1  0  0  0  0
 20 21  2  0  0  0  0
 22 44  1  0  0  0  0
M  END
> <s_m_source_file>
AV-unprocessed.smi

> <i_m_source_file_index>
2284

> <i_lp_mmshare_version>
43012

> <i_f3d_flags>
0

> <s_epik_input>
W0NIM11jMVtjSF1bY0hdYyhbQ0gzXSljKFtjSF0xKU9bQ0gyXVtDQEhdKFtPSF0pW0NIMl1uMltjSF1uYyhbQ0gzXSljKFtDSDNdKWMyPU8=

> <s_epik_cmdline>
J2VwaWtfcHl0aG9uJywgJy1waCcsICc3LjAnLCAnLXRuJywgJzgnLCAnLW1hJywgJzIwMCcsICctbWV0YWxfYmluZGluZycsICctaW1hZScsICc8aW5maWxlLm1hZT4nLCAnLW9tYWUnLCAnPG91dGZpbGUubWFlPic=

> <r_lp_tautomer_probability>
1

> <r_epik_Ionization_Penalty>
3.7476e-05

> <r_epik_Ionization_Penalty_Charging>
8.44705e-08

> <r_epik_Ionization_Penalty_Neutral>
3.73915e-05

> <r_epik_State_Penalty>
-0

> <r_epik_Charging_Adjusted_Penalty>
8.44705e-08

> <i_epik_Tot_Q>
0

> <i_epik_Tot_abs_Q>
0

> <r_epik_Metal_State_Penalty>
-0

> <b_epik_Metal_Only>
0

> <s_lp_Force_Field>
OPLS_2005

> <r_lp_Energy>
21.7941

> <b_lp_Chiralities_Consistent>
1

> <s_lp_Variant>
AV-unprocessed.smi:2284-2

> <Gold.Version>
5.8.1

> <Gold.Id.Protein>
6NUR|6NUR_protein|mol2

> <Gold.PLP.Fitness>
47.6579

> <Gold.PLP.PLP>
-45.6420

> <Gold.PLP.part.hbond>
-2.0000

> <Gold.PLP.part.metal>
0.0000

> <Gold.PLP.part.buried>
-5.9022

> <Gold.PLP.part.nonpolar>
-37.6923

> <Gold.PLP.part.repulsive>
0.2644

> <Gold.PLP.ligand.clash>
0.0000

> <Gold.PLP.ligand.torsion>
0.3037

> <Gold.PLP.Chemscore.Hbond>
0.8550

> <Gold.PLP.Chemscore.CHOScore>
0.0000

> <Gold.PLP.Chemscore.Metal>
0.0000

> <Gold.Chemscore.Hbonds>
donor molecule, donor type, donor heavy atom, donor atom, acceptor molecule, acceptor atom, score
      P1  H  7989  7998       L1    11  0.50
      P1  H  8011  8017       L1    21  0.33

> <Gold.PLP.Chemscore.Internal.Correction>
0.0585

> <Gold.Rescore>
     Score         DG    S(hbond)    S(metal)    S(lipo)     H(rot)  DE(clash)    DE(int)     intcor
     13.14     -15.42       0.56        0.00     119.94       2.32       0.84       1.44       ----

> <Gold.Chemscore.Fitness>
13.1406

> <Gold.Chemscore.DG>
-15.4204

> <Gold.Chemscore.ZeroCoef>
-5.4800

> <Gold.Chemscore.Hbond>
0.5555

> <Gold.Chemscore.Metal>
0.0000

> <Gold.Chemscore.Lipo>
119.9441

> <Gold.Chemscore.Internal_Hbond>
0.0000

> <Gold.Chemscore.DEClash>
0.8367

> <Gold.Chemscore.DEInternal>
1.4432

> <Gold.Chemscore.Rot>
2.3236

> <Gold.Chemscore.Internal.Correction>
   9.000000E+99

> <Gold.Chemscore.Hbonds>
donor molecule, donor type, donor heavy atom, donor atom, acceptor molecule, acceptor atom, score
      P1  H  7989  7998       L1    11  0.02
      P1  H  8011  8017       L1    21  0.33

> <Gold.Chemscore.Hbond.Weighted>
-1.8554

> <Gold.Chemscore.Metal.Weighted>
-0.0000

> <Gold.Chemscore.Lipo.Weighted>
-14.0335

> <Gold.Chemscore.Internal_Hbond.Weighted>
0.0000

> <Gold.Chemscore.DEClash.Weighted>
0.8367

> <Gold.Chemscore.DEInternal.Weighted>
1.4432

> <Gold.Chemscore.Rot.Weighted>
5.9484

> <Gold.Chemscore.Internal.Correction.Weighted>
   9.000000E+99

> <Gold.Protein.RotatedTorsions>
[ 6907 6896 6895 6894 ] final  -26.81 input  -60.11 | X-H torsion
[ 7974 7965 7964 7962 ] final  146.53 input  175.53 | X-H torsion
[ 8008 7997 7996 7995 ] final -116.60 input   59.86 | X-H torsion
[ 10167 10162 10161 10158 ] final    5.39 input  -65.29 | X-H torsion
[ 10718 10713 10712 10709 ] final  116.48 input   66.30 | X-H torsion
[ 10763 10752 10751 10750 ] final  161.58 input  -60.55 | X-H torsion
[ 11005 11000 10999 10996 ] final  -96.88 input  -57.11 | X-H torsion

> <Gold.Protein.ActiveResidues>
 VAL166  LYS551  ARG553  GLY616  TRP617  ASP618  TYR619  PRO620  LYS621  CYS622 
 ASP623  PHE694  ASN695  SER759  ASP760  ASP761  ALA762  ILE779  LEU786  VAL792 
 PHE793  MET794  SER795  GLU796  ALA797  LYS798  CYS799  TRP800  GLU811  SER814 

> <Gold.Protein.RotatedAtoms>
  151.1558  135.0249  159.8688 H   0  0  0  0  0  0  0  0  0  0  0  0  # atno 6907 bound_to 6896
  152.5452  134.1336  159.8459 H   0  0  0  0  0  0  0  0  0  0  0  0  # atno 6908 bound_to 6896
  151.1426  133.4915  159.2629 H   0  0  0  0  0  0  0  0  0  0  0  0  # atno 6909 bound_to 6896
  144.8664  139.5916  143.5907 H   0  0  0  0  0  0  0  0  0  0  0  0  # atno 7974 bound_to 7965
  155.0704  140.0393  157.2606 H   0  0  0  0  0  0  0  0  0  0  0  0  # atno 8008 bound_to 7997
  154.6987  140.2669  155.6716 H   0  0  0  0  0  0  0  0  0  0  0  0  # atno 8009 bound_to 7997
  156.2753  140.2745  156.1591 H   0  0  0  0  0  0  0  0  0  0  0  0  # atno 8010 bound_to 7997
  140.6484  143.7605  150.7536 H   0  0  0  0  0  0  0  0  0  0  0  0  # atno 10167 bound_to 10162
  157.6157  131.1026  150.7479 H   0  0  0  0  0  0  0  0  0  0  0  0  # atno 10718 bound_to 10713
  154.2651  135.2767  155.2762 H   0  0  0  0  0  0  0  0  0  0  0  0  # atno 10763 bound_to 10752
  154.5350  135.5719  153.6794 H   0  0  0  0  0  0  0  0  0  0  0  0  # atno 10764 bound_to 10752
  152.9955  135.6237  154.2803 H   0  0  0  0  0  0  0  0  0  0  0  0  # atno 10765 bound_to 10752
  141.1397  133.8129  157.0630 H   0  0  0  0  0  0  0  0  0  0  0  0  # atno 11005 bound_to 11000
  146.2899  139.7108  142.9169 LP  0  0  0  0  0  0  0  0  0  0  0  0  # atno 17320 bound_to 7965
  145.4214  141.0407  143.2962 LP  0  0  0  0  0  0  0  0  0  0  0  0  # atno 17321 bound_to 7965
  140.1251  143.4577  152.2289 LP  0  0  0  0  0  0  0  0  0  0  0  0  # atno 17342 bound_to 10162
  139.5697  144.7455  151.3925 LP  0  0  0  0  0  0  0  0  0  0  0  0  # atno 17343 bound_to 10162
  156.7847  130.4870  149.5395 LP  0  0  0  0  0  0  0  0  0  0  0  0  # atno 17370 bound_to 10713
  156.1279  130.6157  151.0290 LP  0  0  0  0  0  0  0  0  0  0  0  0  # atno 17371 bound_to 10713
  140.0559  134.9781  157.1219 LP  0  0  0  0  0  0  0  0  0  0  0  0  # atno 17394 bound_to 11000
  140.3920  134.2174  155.7166 LP  0  0  0  0  0  0  0  0  0  0  0  0  # atno 17395 bound_to 11000

$$$$
