AV-unprocessed.smi:148|AV-procd|sdf|1215|dock8
  -GOLD-   2262018393D 1   1.00000     0.00000
 Structure written by MMmdl.
 63 67  0  0  0  0  0  0  0  0  1 V2000
  150.3563  132.4818  158.1787 O   0  0  0  0  0  0  0  0  0  0  0  0
  150.0771  132.2302  156.8171 C   0  0  0  0  0  0  0  0  0  0  0  0
  149.3641  133.4425  156.1735 C   0  0  1  0  0  0  0  0  0  0  0  0
  150.3986  134.3850  155.5086 C   0  0  0  0  0  0  0  0  0  0  0  0
  150.2964  135.7629  155.9563 N   0  0  0  0  0  0  0  0  0  0  0  0
  149.5372  136.2380  157.0015 C   0  0  0  0  0  0  0  0  0  0  0  0
  149.6225  137.5234  157.2099 N   0  0  0  0  0  0  0  0  0  0  0  0
  150.4966  137.9704  156.2261 C   0  0  0  0  0  0  0  0  0  0  0  0
  151.0325  139.2409  155.8691 C   0  0  0  0  0  0  0  0  0  0  0  0
  150.7653  140.4045  156.5061 N   0  0  0  0  0  0  0  0  0  0  0  0
  151.7907  140.6445  157.5227 C   0  0  0  0  0  0  0  0  0  0  0  0
  151.6767  142.0519  158.1221 C   0  0  0  0  0  0  0  0  0  0  0  0
  150.2654  142.2843  158.6701 C   0  0  0  0  0  0  0  0  0  0  0  0
  149.2340  142.0481  157.5597 C   0  0  0  0  0  0  0  0  0  0  0  0
  149.3741  140.6305  156.9407 C   0  0  1  0  0  0  0  0  0  0  0  0
  148.3179  140.3429  155.8259 C   0  0  1  0  0  0  0  0  0  0  0  0
  146.9235  140.9306  156.1327 C   0  0  0  0  0  0  0  0  0  0  0  0
  146.6553  141.9801  155.0532 C   0  0  0  0  0  0  0  0  0  0  0  0
  147.3917  141.4424  153.8314 C   0  0  0  0  0  0  0  0  0  0  0  0
  148.6822  140.8556  154.4094 C   0  0  2  0  0  0  0  0  0  0  0  0
  149.1742  139.8271  153.5755 O   0  0  0  0  0  0  0  0  0  0  0  0
  151.9057  139.2934  154.8330 N   0  0  0  0  0  0  0  0  0  0  0  0
  152.2200  138.1790  154.1656 C   0  0  0  0  0  0  0  0  0  0  0  0
  151.7920  136.9320  154.3741 N   0  0  0  0  0  0  0  0  0  0  0  0
  150.9282  136.8741  155.4279 C   0  0  0  0  0  0  0  0  0  0  0  0
  148.2128  133.0430  155.2083 C   0  0  2  0  0  0  0  0  0  0  0  0
  148.6307  132.2487  153.9697 C   0  0  0  0  0  0  0  0  0  0  0  0
  147.9106  132.9475  152.8152 C   0  0  0  0  0  0  0  0  0  0  0  0
  146.8547  133.6604  153.4398 O   0  0  0  0  0  0  0  0  0  0  0  0
  147.3851  134.2008  154.6377 C   0  0  0  0  0  0  0  0  0  0  0  0
  149.7525  131.9828  158.7075 H   0  0  0  0  0  0  0  0  0  0  0  0
  151.0120  132.0051  156.3035 H   0  0  0  0  0  0  0  0  0  0  0  0
  149.4658  131.3302  156.7693 H   0  0  0  0  0  0  0  0  0  0  0  0
  148.8917  134.0016  156.9829 H   0  0  0  0  0  0  0  0  0  0  0  0
  151.4141  134.0454  155.7153 H   0  0  0  0  0  0  0  0  0  0  0  0
  150.2824  134.3655  154.4243 H   0  0  0  0  0  0  0  0  0  0  0  0
  148.9218  135.5962  157.6152 H   0  0  0  0  0  0  0  0  0  0  0  0
  151.6934  139.8996  158.3143 H   0  0  0  0  0  0  0  0  0  0  0  0
  152.7844  140.5176  157.0899 H   0  0  0  0  0  0  0  0  0  0  0  0
  152.4140  142.1810  158.9149 H   0  0  0  0  0  0  0  0  0  0  0  0
  151.9047  142.7966  157.3583 H   0  0  0  0  0  0  0  0  0  0  0  0
  150.0741  141.6082  159.5044 H   0  0  0  0  0  0  0  0  0  0  0  0
  150.1747  143.2985  159.0598 H   0  0  0  0  0  0  0  0  0  0  0  0
  148.2368  142.1978  157.9713 H   0  0  0  0  0  0  0  0  0  0  0  0
  149.3677  142.8188  156.8021 H   0  0  0  0  0  0  0  0  0  0  0  0
  149.1803  139.9265  157.7501 H   0  0  0  0  0  0  0  0  0  0  0  0
  148.1598  139.2652  155.7695 H   0  0  0  0  0  0  0  0  0  0  0  0
  146.1763  140.1401  156.0492 H   0  0  0  0  0  0  0  0  0  0  0  0
  146.8285  141.3372  157.1395 H   0  0  0  0  0  0  0  0  0  0  0  0
  145.5910  142.1317  154.8702 H   0  0  0  0  0  0  0  0  0  0  0  0
  147.0841  142.9378  155.3514 H   0  0  0  0  0  0  0  0  0  0  0  0
  146.7903  140.6590  153.3666 H   0  0  0  0  0  0  0  0  0  0  0  0
  147.5789  142.2090  153.0791 H   0  0  0  0  0  0  0  0  0  0  0  0
  149.4353  141.6398  154.4527 H   0  0  0  0  0  0  0  0  0  0  0  0
  149.1466  140.1286  152.6795 H   0  0  0  0  0  0  0  0  0  0  0  0
  152.9158  138.3037  153.3490 H   0  0  0  0  0  0  0  0  0  0  0  0
  147.5191  132.3924  155.7415 H   0  0  0  0  0  0  0  0  0  0  0  0
  149.7074  132.2156  153.8054 H   0  0  0  0  0  0  0  0  0  0  0  0
  148.2904  131.2162  154.0608 H   0  0  0  0  0  0  0  0  0  0  0  0
  148.5769  133.6546  152.3184 H   0  0  0  0  0  0  0  0  0  0  0  0
  147.5358  132.2481  152.0676 H   0  0  0  0  0  0  0  0  0  0  0  0
  146.5943  134.5246  155.3146 H   0  0  0  0  0  0  0  0  0  0  0  0
  147.9973  135.0680  154.3894 H   0  0  0  0  0  0  0  0  0  0  0  0
  1  2  1  0  0  0  0
  1 31  1  0  0  0  0
  2  3  1  0  0  0  0
  2 32  1  0  0  0  0
  2 33  1  0  0  0  0
  3  4  1  0  0  0  0
  3 26  1  0  0  0  0
  3 34  1  0  0  0  0
  4  5  1  0  0  0  0
  4 35  1  0  0  0  0
  4 36  1  0  0  0  0
  5 25  1  0  0  0  0
  5  6  1  0  0  0  0
  6  7  2  0  0  0  0
  6 37  1  0  0  0  0
  7  8  1  0  0  0  0
  8 25  2  0  0  0  0
  8  9  1  0  0  0  0
  9 10  1  0  0  0  0
  9 22  2  0  0  0  0
 10 15  1  0  0  0  0
 10 11  1  0  0  0  0
 11 12  1  0  0  0  0
 11 38  1  0  0  0  0
 11 39  1  0  0  0  0
 12 13  1  0  0  0  0
 12 40  1  0  0  0  0
 12 41  1  0  0  0  0
 13 14  1  0  0  0  0
 13 42  1  0  0  0  0
 13 43  1  0  0  0  0
 14 15  1  0  0  0  0
 14 44  1  0  0  0  0
 14 45  1  0  0  0  0
 15 16  1  0  0  0  0
 15 46  1  0  0  0  0
 16 20  1  0  0  0  0
 16 17  1  0  0  0  0
 16 47  1  0  0  0  0
 17 18  1  0  0  0  0
 17 48  1  0  0  0  0
 17 49  1  0  0  0  0
 18 19  1  0  0  0  0
 18 50  1  0  0  0  0
 18 51  1  0  0  0  0
 19 20  1  0  0  0  0
 19 52  1  0  0  0  0
 19 53  1  0  0  0  0
 20 21  1  0  0  0  0
 20 54  1  0  0  0  0
 21 55  1  0  0  0  0
 22 23  1  0  0  0  0
 23 24  2  0  0  0  0
 23 56  1  0  0  0  0
 24 25  1  0  0  0  0
 26 30  1  0  0  0  0
 26 27  1  0  0  0  0
 26 57  1  0  0  0  0
 27 28  1  0  0  0  0
 27 58  1  0  0  0  0
 27 59  1  0  0  0  0
 28 29  1  0  0  0  0
 28 60  1  0  0  0  0
 28 61  1  0  0  0  0
 29 30  1  0  0  0  0
 30 62  1  0  0  0  0
 30 63  1  0  0  0  0
M  END
> <s_m_source_file>
AV-unprocessed.smi

> <i_m_source_file_index>
148

> <i_lp_mmshare_version>
43012

> <i_f3d_flags>
0

> <s_epik_input>
W0NIMl0xT1tDSDJdW0NIMl1bQ0BIXTFbQ0BIXShbQ0gyXVtPSF0pW0NIMl1uKFtjSF1uMiljKGMyMyluW2NIXW5jM040W0NIMl1bQ0gyXVtDSDJdW0NIMl1bQ0BIXTRbQ0BASF01W0NIMl1bQ0gyXVtDSDJdW0NASF01W09IXQ==

> <s_epik_cmdline>
J2VwaWtfcHl0aG9uJywgJy1waCcsICc3LjAnLCAnLXRuJywgJzgnLCAnLW1hJywgJzIwMCcsICctbWV0YWxfYmluZGluZycsICctaW1hZScsICc8aW5maWxlLm1hZT4nLCAnLW9tYWUnLCAnPG91dGZpbGUubWFlPic=

> <r_lp_tautomer_probability>
1

> <r_epik_Ionization_Penalty>
0.00556303

> <r_epik_Ionization_Penalty_Charging>
0

> <r_epik_Ionization_Penalty_Neutral>
0.00556303

> <r_epik_State_Penalty>
0.00401767

> <r_epik_Charging_Adjusted_Penalty>
0.00401767

> <i_epik_Tot_Q>
0

> <i_epik_Tot_abs_Q>
0

> <r_epik_Metal_State_Penalty>
-0

> <b_epik_Metal_Only>
0

> <s_lp_Force_Field>
OPLS_2005

> <r_lp_Energy>
68.8828

> <b_lp_Chiralities_Consistent>
1

> <s_lp_Variant>
AV-unprocessed.smi:148-14

> <Gold.Version>
5.8.1

> <Gold.Id.Protein>
6NUR|6NUR_protein|mol2

> <Gold.PLP.Fitness>
47.7220

> <Gold.PLP.PLP>
-40.1659

> <Gold.PLP.part.hbond>
-3.5854

> <Gold.PLP.part.metal>
0.0000

> <Gold.PLP.part.buried>
-10.0236

> <Gold.PLP.part.nonpolar>
-29.6825

> <Gold.PLP.part.repulsive>
0.8619

> <Gold.PLP.ligand.clash>
0.0000

> <Gold.PLP.ligand.torsion>
2.3230

> <Gold.PLP.Chemscore.Hbond>
3.9513

> <Gold.PLP.Chemscore.CHOScore>
0.0000

> <Gold.PLP.Chemscore.Metal>
0.0000

> <Gold.Chemscore.Hbonds>
donor molecule, donor type, donor heavy atom, donor atom, acceptor molecule, acceptor atom, score
      L1  H    21    55       P1  7957  1.00
      P1  H  6896  6909       L1     1  1.00
      P1  H  7989  7998       L1    22  0.90
      P1  H 10752 10763       L1    24  1.00

> <Gold.PLP.Chemscore.Internal.Correction>
0.3483

> <Gold.Rescore>
     Score         DG    S(hbond)    S(metal)    S(lipo)     H(rot)  DE(clash)    DE(int)     intcor
     14.26     -17.31       3.04        0.00      86.82       3.32       0.01       3.04       ----

> <Gold.Chemscore.Fitness>
14.2569

> <Gold.Chemscore.DG>
-17.3057

> <Gold.Chemscore.ZeroCoef>
-5.4800

> <Gold.Chemscore.Hbond>
3.0441

> <Gold.Chemscore.Metal>
0.0000

> <Gold.Chemscore.Lipo>
86.8230

> <Gold.Chemscore.Internal_Hbond>
0.0000

> <Gold.Chemscore.DEClash>
0.0103

> <Gold.Chemscore.DEInternal>
3.0385

> <Gold.Chemscore.Rot>
3.3203

> <Gold.Chemscore.Internal.Correction>
   9.000000E+99

> <Gold.Chemscore.Hbonds>
donor molecule, donor type, donor heavy atom, donor atom, acceptor molecule, acceptor atom, score
      L1  H    21    55       P1  7957  0.95
      P1  H  6896  6909       L1     1  0.55
      P1  H  7989  7998       L1    22  0.54
      P1  H 10752 10763       L1    24  0.87

> <Gold.Chemscore.Hbond.Weighted>
-10.1675

> <Gold.Chemscore.Metal.Weighted>
-0.0000

> <Gold.Chemscore.Lipo.Weighted>
-10.1583

> <Gold.Chemscore.Internal_Hbond.Weighted>
0.0000

> <Gold.Chemscore.DEClash.Weighted>
0.0103

> <Gold.Chemscore.DEInternal.Weighted>
3.0385

> <Gold.Chemscore.Rot.Weighted>
8.5000

> <Gold.Chemscore.Internal.Correction.Weighted>
   9.000000E+99

> <Gold.Protein.RotatedTorsions>
[ 6907 6896 6895 6894 ] final  -33.87 input  -60.11 | X-H torsion
[ 7974 7965 7964 7962 ] final   52.68 input  175.53 | X-H torsion
[ 8008 7997 7996 7995 ] final -145.61 input   59.86 | X-H torsion
[ 10167 10162 10161 10158 ] final  -48.47 input  -65.29 | X-H torsion
[ 10718 10713 10712 10709 ] final -141.09 input   66.30 | X-H torsion
[ 10763 10752 10751 10750 ] final   40.27 input  -60.55 | X-H torsion
[ 11005 11000 10999 10996 ] final   31.82 input  -57.11 | X-H torsion

> <Gold.Protein.ActiveResidues>
 VAL166  LYS551  ARG553  GLY616  TRP617  ASP618  TYR619  PRO620  LYS621  CYS622 
 ASP623  PHE694  ASN695  SER759  ASP760  ASP761  ALA762  ILE779  LEU786  VAL792 
 PHE793  MET794  SER795  GLU796  ALA797  LYS798  CYS799  TRP800  GLU811  SER814 

> <Gold.Protein.RotatedAtoms>
  151.0599  134.9730  159.8254 H   0  0  0  0  0  0  0  0  0  0  0  0  # atno 6907 bound_to 6896
  152.5394  134.2430  159.8879 H   0  0  0  0  0  0  0  0  0  0  0  0  # atno 6908 bound_to 6896
  151.2450  133.4337  159.2642 H   0  0  0  0  0  0  0  0  0  0  0  0  # atno 6909 bound_to 6896
  145.9788  139.4222  143.0144 H   0  0  0  0  0  0  0  0  0  0  0  0  # atno 7974 bound_to 7965
  155.5460  140.0612  157.2860 H   0  0  0  0  0  0  0  0  0  0  0  0  # atno 8008 bound_to 7997
  154.4436  140.1911  156.0682 H   0  0  0  0  0  0  0  0  0  0  0  0  # atno 8009 bound_to 7997
  156.0551  140.3279  155.7399 H   0  0  0  0  0  0  0  0  0  0  0  0  # atno 8010 bound_to 7997
  140.6729  143.2738  151.4076 H   0  0  0  0  0  0  0  0  0  0  0  0  # atno 10167 bound_to 10162
  156.3299  130.7580  151.1696 H   0  0  0  0  0  0  0  0  0  0  0  0  # atno 10718 bound_to 10713
  152.9941  135.6196  154.2598 H   0  0  0  0  0  0  0  0  0  0  0  0  # atno 10763 bound_to 10752
  154.2335  135.2791  155.2883 H   0  0  0  0  0  0  0  0  0  0  0  0  # atno 10764 bound_to 10752
  154.5430  135.5755  153.6913 H   0  0  0  0  0  0  0  0  0  0  0  0  # atno 10765 bound_to 10752
  140.2799  134.2985  155.7803 H   0  0  0  0  0  0  0  0  0  0  0  0  # atno 11005 bound_to 11000
  145.7799  140.9860  143.1104 LP  0  0  0  0  0  0  0  0  0  0  0  0  # atno 17320 bound_to 7965
  144.6856  139.9552  143.7479 LP  0  0  0  0  0  0  0  0  0  0  0  0  # atno 17321 bound_to 7965
  139.6006  144.1303  152.2194 LP  0  0  0  0  0  0  0  0  0  0  0  0  # atno 17342 bound_to 10162
  140.0686  144.5798  150.7209 LP  0  0  0  0  0  0  0  0  0  0  0  0  # atno 17343 bound_to 10162
  157.7428  131.0484  150.4994 LP  0  0  0  0  0  0  0  0  0  0  0  0  # atno 17370 bound_to 10713
  156.5158  130.4150  149.6277 LP  0  0  0  0  0  0  0  0  0  0  0  0  # atno 17371 bound_to 10713
  141.2164  133.7519  156.9464 LP  0  0  0  0  0  0  0  0  0  0  0  0  # atno 17394 bound_to 11000
  140.1293  134.9366  157.2315 LP  0  0  0  0  0  0  0  0  0  0  0  0  # atno 17395 bound_to 11000

$$$$
