AV-unprocessed.smi:2489|AV-procd|sdf|9795|dock3
  -GOLD-   2272013433D 1   1.00000     0.00000
 Structure written by MMmdl.
 33 34  0  0  0  0  0  0  0  0  1 V2000
  153.1232  136.8182  157.5854 C   0  0  0  0  0  0  0  0  0  0  0  0
  152.5795  136.6520  156.2842 O   0  0  0  0  0  0  0  0  0  0  0  0
  151.8617  137.6983  155.7465 C   0  0  0  0  0  0  0  0  0  0  0  0
  151.3254  137.5273  154.4565 C   0  0  0  0  0  0  0  0  0  0  0  0
  150.5869  138.5785  153.8845 C   0  0  0  0  0  0  0  0  0  0  0  0
  150.3638  139.7504  154.5125 N   0  0  0  0  0  0  0  0  0  0  0  0
  150.8711  139.9383  155.7552 C   0  0  0  0  0  0  0  0  0  0  0  0
  150.6940  141.1312  156.5055 N   0  0  0  0  0  0  0  0  0  0  0  0
  151.4557  141.6109  157.5065 C   0  0  0  0  0  0  0  0  0  0  0  0
  152.4550  141.0463  157.9539 O   0  0  0  0  0  0  0  0  0  0  0  0
  150.9852  142.9470  158.1061 C   0  0  2  0  0  0  0  0  0  0  0  0
  151.8458  144.1642  157.7083 C   0  0  0  0  0  0  0  0  0  0  0  0
  152.4198  144.6672  159.0231 C   0  0  0  0  0  0  0  0  0  0  0  0
  152.3064  143.4547  159.9414 C   0  0  1  0  0  0  0  0  0  0  0  0
  152.2641  143.7977  161.4341 C   0  0  0  0  0  0  0  0  0  0  0  0
  151.0798  142.8703  159.5271 O   0  0  0  0  0  0  0  0  0  0  0  0
  151.6253  138.9328  156.4019 C   0  0  0  0  0  0  0  0  0  0  0  0
  153.6551  135.9110  157.8719 H   0  0  0  0  0  0  0  0  0  0  0  0
  152.3405  136.9888  158.3258 H   0  0  0  0  0  0  0  0  0  0  0  0
  153.8365  137.6427  157.6168 H   0  0  0  0  0  0  0  0  0  0  0  0
  151.4770  136.6057  153.9141 H   0  0  0  0  0  0  0  0  0  0  0  0
  150.1631  138.4754  152.8965 H   0  0  0  0  0  0  0  0  0  0  0  0
  149.8925  141.6898  156.2512 H   0  0  0  0  0  0  0  0  0  0  0  0
  149.9414  143.1202  157.8389 H   0  0  0  0  0  0  0  0  0  0  0  0
  152.6491  143.9035  157.0179 H   0  0  0  0  0  0  0  0  0  0  0  0
  151.2484  144.9362  157.2225 H   0  0  0  0  0  0  0  0  0  0  0  0
  153.4428  145.0325  158.9294 H   0  0  0  0  0  0  0  0  0  0  0  0
  151.8029  145.4842  159.4004 H   0  0  0  0  0  0  0  0  0  0  0  0
  153.1216  142.7570  159.7420 H   0  0  0  0  0  0  0  0  0  0  0  0
  153.1893  144.2797  161.7504 H   0  0  0  0  0  0  0  0  0  0  0  0
  152.1346  142.8978  162.0355 H   0  0  0  0  0  0  0  0  0  0  0  0
  151.4385  144.4722  161.6624 H   0  0  0  0  0  0  0  0  0  0  0  0
  152.0109  139.1245  157.3921 H   0  0  0  0  0  0  0  0  0  0  0  0
  1  2  1  0  0  0  0
  1 18  1  0  0  0  0
  1 19  1  0  0  0  0
  1 20  1  0  0  0  0
  2  3  1  0  0  0  0
  3 17  1  0  0  0  0
  3  4  2  0  0  0  0
  4  5  1  0  0  0  0
  4 21  1  0  0  0  0
  5  6  2  0  0  0  0
  5 22  1  0  0  0  0
  6  7  1  0  0  0  0
  7  8  1  0  0  0  0
  7 17  2  0  0  0  0
  8  9  1  0  0  0  0
  8 23  1  0  0  0  0
  9 10  2  0  0  0  0
  9 11  1  0  0  0  0
 11 16  1  0  0  0  0
 11 12  1  0  0  0  0
 11 24  1  0  0  0  0
 12 13  1  0  0  0  0
 12 25  1  0  0  0  0
 12 26  1  0  0  0  0
 13 14  1  0  0  0  0
 13 27  1  0  0  0  0
 13 28  1  0  0  0  0
 14 15  1  0  0  0  0
 14 16  1  0  0  0  0
 14 29  1  0  0  0  0
 15 30  1  0  0  0  0
 15 31  1  0  0  0  0
 15 32  1  0  0  0  0
 17 33  1  0  0  0  0
M  END
> <s_m_source_file>
AV-unprocessed.smi

> <i_m_source_file_index>
2489

> <i_lp_mmshare_version>
43012

> <i_f3d_flags>
0

> <s_epik_input>
W0NIM11PYzFbY0hdW2NIXW5jKFtjSF0xKVtOSF1DKD1PKVtDQEBIXTJbQ0gyXVtDSDJdW0NASF0oTzIpW0NIM10=

> <s_epik_cmdline>
J2VwaWtfcHl0aG9uJywgJy1waCcsICc3LjAnLCAnLXRuJywgJzgnLCAnLW1hJywgJzIwMCcsICctbWV0YWxfYmluZGluZycsICctaW1hZScsICc8aW5maWxlLm1hZT4nLCAnLW9tYWUnLCAnPG91dGZpbGUubWFlPic=

> <r_epik_Ionization_Penalty>
0.0871917

> <r_epik_Ionization_Penalty_Charging>
0

> <r_epik_Ionization_Penalty_Neutral>
0.0871917

> <r_epik_State_Penalty>
0.146479

> <r_epik_Charging_Adjusted_Penalty>
0.146479

> <i_epik_Tot_Q>
0

> <i_epik_Tot_abs_Q>
0

> <r_epik_Metal_State_Penalty>
0.067489

> <b_epik_Metal_Only>
0

> <s_lp_Force_Field>
OPLS_2005

> <r_lp_Energy>
22.5644

> <b_lp_Chiralities_Consistent>
1

> <s_lp_Variant>
AV-unprocessed.smi:2489-1

> <Gold.Version>
5.8.1

> <Gold.Id.Protein>
6NUR|6NUR_protein|mol2

> <Gold.PLP.Fitness>
45.4894

> <Gold.PLP.PLP>
-35.3970

> <Gold.PLP.part.hbond>
-2.5324

> <Gold.PLP.part.metal>
0.0000

> <Gold.PLP.part.buried>
-4.5084

> <Gold.PLP.part.nonpolar>
-29.1816

> <Gold.PLP.part.repulsive>
0.1913

> <Gold.PLP.ligand.clash>
0.0000

> <Gold.PLP.ligand.torsion>
0.5179

> <Gold.PLP.Chemscore.Hbond>
2.0000

> <Gold.PLP.Chemscore.CHOScore>
1.7051

> <Gold.PLP.Chemscore.Metal>
0.0000

> <Gold.Chemscore.Hbonds>
donor molecule, donor type, donor heavy atom, donor atom, acceptor molecule, acceptor atom, score
      P1  H  7989  7998       L1     6  0.86
      P1  H 10752 10765       L1     2  1.00
      L1  C     5    22       P1  7948  0.55
      L1  C     5    22       P1  7957  1.00

> <Gold.PLP.Chemscore.Internal.Correction>
0.0128

> <Gold.Rescore>
     Score         DG    S(hbond)    S(metal)    S(lipo)     H(rot)  DE(clash)    DE(int)     intcor
     14.25     -16.61       1.00        0.00      93.36       1.23       0.41       1.96       ----

> <Gold.Chemscore.Fitness>
14.2522

> <Gold.Chemscore.DG>
-16.6149

> <Gold.Chemscore.ZeroCoef>
-5.4800

> <Gold.Chemscore.Hbond>
1.0032

> <Gold.Chemscore.Metal>
0.0000

> <Gold.Chemscore.Lipo>
93.3645

> <Gold.Chemscore.Internal_Hbond>
0.0000

> <Gold.Chemscore.DEClash>
0.4068

> <Gold.Chemscore.DEInternal>
1.9559

> <Gold.Chemscore.Rot>
1.2264

> <Gold.Chemscore.Internal.Correction>
   9.000000E+99

> <Gold.Chemscore.Hbonds>
donor molecule, donor type, donor heavy atom, donor atom, acceptor molecule, acceptor atom, score
      P1  H  7989  7998       L1     6  0.04
      P1  H 10752 10765       L1     2  0.89

> <Gold.Chemscore.Hbond.Weighted>
-3.3508

> <Gold.Chemscore.Metal.Weighted>
-0.0000

> <Gold.Chemscore.Lipo.Weighted>
-10.9236

> <Gold.Chemscore.Internal_Hbond.Weighted>
0.0000

> <Gold.Chemscore.DEClash.Weighted>
0.4068

> <Gold.Chemscore.DEInternal.Weighted>
1.9559

> <Gold.Chemscore.Rot.Weighted>
3.1396

> <Gold.Chemscore.Internal.Correction.Weighted>
   9.000000E+99

> <Gold.Protein.RotatedTorsions>
[ 6907 6896 6895 6894 ] final  142.74 input  -60.11 | X-H torsion
[ 7974 7965 7964 7962 ] final  117.05 input  175.53 | X-H torsion
[ 8008 7997 7996 7995 ] final   86.36 input   59.86 | X-H torsion
[ 10167 10162 10161 10158 ] final  -94.31 input  -65.29 | X-H torsion
[ 10718 10713 10712 10709 ] final  154.35 input   66.30 | X-H torsion
[ 10763 10752 10751 10750 ] final -135.51 input  -60.55 | X-H torsion
[ 11005 11000 10999 10996 ] final -135.34 input  -57.11 | X-H torsion

> <Gold.Protein.ActiveResidues>
 VAL166  LYS551  ARG553  GLY616  TRP617  ASP618  TYR619  PRO620  LYS621  CYS622 
 ASP623  PHE694  ASN695  SER759  ASP760  ASP761  ALA762  ILE779  LEU786  VAL792 
 PHE793  MET794  SER795  GLU796  ALA797  LYS798  CYS799  TRP800  GLU811  SER814 

> <Gold.Protein.RotatedAtoms>
  152.2150  133.4940  159.5130 H   0  0  0  0  0  0  0  0  0  0  0  0  # atno 6907 bound_to 6896
  150.6999  134.1417  159.4116 H   0  0  0  0  0  0  0  0  0  0  0  0  # atno 6908 bound_to 6896
  151.9337  135.0245  160.0581 H   0  0  0  0  0  0  0  0  0  0  0  0  # atno 6909 bound_to 6896
  145.1721  139.3096  143.4462 H   0  0  0  0  0  0  0  0  0  0  0  0  # atno 7974 bound_to 7965
  155.9618  140.3393  155.6497 H   0  0  0  0  0  0  0  0  0  0  0  0  # atno 8008 bound_to 7997
  155.6788  140.0735  157.2511 H   0  0  0  0  0  0  0  0  0  0  0  0  # atno 8009 bound_to 7997
  154.4145  140.1678  156.1947 H   0  0  0  0  0  0  0  0  0  0  0  0  # atno 8010 bound_to 7997
  140.3157  143.3078  152.0100 H   0  0  0  0  0  0  0  0  0  0  0  0  # atno 10167 bound_to 10162
  157.2328  131.0742  151.1842 H   0  0  0  0  0  0  0  0  0  0  0  0  # atno 10718 bound_to 10713
  154.8701  135.3701  154.4910 H   0  0  0  0  0  0  0  0  0  0  0  0  # atno 10763 bound_to 10752
  153.5557  135.7024  153.5575 H   0  0  0  0  0  0  0  0  0  0  0  0  # atno 10764 bound_to 10752
  153.3674  135.4030  155.1727 H   0  0  0  0  0  0  0  0  0  0  0  0  # atno 10765 bound_to 10752
  140.8907  134.1815  157.4529 H   0  0  0  0  0  0  0  0  0  0  0  0  # atno 11005 bound_to 11000
  146.3467  140.1870  142.8589 LP  0  0  0  0  0  0  0  0  0  0  0  0  # atno 17320 bound_to 7965
  145.0222  140.8803  143.5160 LP  0  0  0  0  0  0  0  0  0  0  0  0  # atno 17321 bound_to 7965
  139.4884  144.6350  151.6994 LP  0  0  0  0  0  0  0  0  0  0  0  0  # atno 17342 bound_to 10162
  140.5528  144.0397  150.6134 LP  0  0  0  0  0  0  0  0  0  0  0  0  # atno 17343 bound_to 10162
  157.3460  130.7058  149.6411 LP  0  0  0  0  0  0  0  0  0  0  0  0  # atno 17370 bound_to 10713
  155.9674  130.4266  150.4706 LP  0  0  0  0  0  0  0  0  0  0  0  0  # atno 17371 bound_to 10713
  139.8729  134.9857  156.5294 LP  0  0  0  0  0  0  0  0  0  0  0  0  # atno 17394 bound_to 11000
  140.8350  133.8249  155.9020 LP  0  0  0  0  0  0  0  0  0  0  0  0  # atno 17395 bound_to 11000

$$$$
