AV-unprocessed.smi:3129|AV-procd|sdf|11922|dock10
  -GOLD-   2272017303D 1   1.00000     0.00000
 Structure written by MMmdl.
 40 40  0  0  0  0  0  0  0  0  2 V2000
  144.2019  134.0728  150.6331 C   0  0  0  0  0  0  0  0  0  0  0  0
  144.6516  134.9947  151.7752 C   0  0  0  0  0  0  0  0  0  0  0  0
  143.4656  135.3475  152.6897 C   0  0  0  0  0  0  0  0  0  0  0  0
  145.3670  136.2459  151.2180 C   0  0  0  0  0  0  0  0  0  0  0  0
  145.9353  137.0916  152.2636 N   0  0  0  0  0  0  0  0  0  0  0  0
  146.6135  138.2293  152.0512 C   0  0  0  0  0  0  0  0  0  0  0  0
  146.8083  138.7016  150.9306 O   0  0  0  0  0  0  0  0  0  0  0  0
  147.1665  138.9449  153.2902 C   0  0  2  0  0  0  0  0  0  0  0  0
  146.8531  140.4470  153.2188 C   0  0  0  0  0  0  0  0  0  0  0  0
  148.6272  138.7381  153.3871 N   0  3  0  0  0  0  0  0  0  0  0  0
  149.2030  138.9836  154.7280 C   0  0  0  0  0  0  0  0  0  0  0  0
  149.4283  140.4840  154.9705 C   0  0  0  0  0  0  0  0  0  0  0  0
  150.0637  140.7346  156.2524 N   0  0  0  0  0  0  0  0  0  0  0  0
  150.3634  141.9450  156.8414 C   0  0  0  0  0  0  0  0  0  0  0  0
  150.9632  141.6767  158.0381 C   0  0  0  0  0  0  0  0  0  0  0  0
  150.9783  140.2554  158.0983 C   0  0  0  0  0  0  0  0  0  0  0  0
  150.4359  139.6948  157.0298 N   0  0  0  0  0  0  0  0  0  0  0  0
  143.4708  134.5642  149.9905 H   0  0  0  0  0  0  0  0  0  0  0  0
  143.7456  133.1613  151.0204 H   0  0  0  0  0  0  0  0  0  0  0  0
  145.0470  133.7772  150.0107 H   0  0  0  0  0  0  0  0  0  0  0  0
  145.3684  134.4307  152.3724 H   0  0  0  0  0  0  0  0  0  0  0  0
  142.7159  135.9335  152.1574 H   0  0  0  0  0  0  0  0  0  0  0  0
  143.7846  135.9228  153.5588 H   0  0  0  0  0  0  0  0  0  0  0  0
  142.9793  134.4462  153.0636 H   0  0  0  0  0  0  0  0  0  0  0  0
  146.1558  135.9535  150.5227 H   0  0  0  0  0  0  0  0  0  0  0  0
  144.6631  136.8505  150.6452 H   0  0  0  0  0  0  0  0  0  0  0  0
  145.8159  136.7767  153.2158 H   0  0  0  0  0  0  0  0  0  0  0  0
  146.6970  138.5439  154.1906 H   0  0  0  0  0  0  0  0  0  0  0  0
  145.7786  140.6241  153.1554 H   0  0  0  0  0  0  0  0  0  0  0  0
  147.3192  140.9160  152.3509 H   0  0  0  0  0  0  0  0  0  0  0  0
  147.2157  140.9638  154.1079 H   0  0  0  0  0  0  0  0  0  0  0  0
  148.8105  137.7791  153.1270 H   0  0  0  0  0  0  0  0  0  0  0  0
  148.5234  138.5743  155.4759 H   0  0  0  0  0  0  0  0  0  0  0  0
  150.1478  138.4514  154.8480 H   0  0  0  0  0  0  0  0  0  0  0  0
  150.0422  140.9149  154.1785 H   0  0  0  0  0  0  0  0  0  0  0  0
  148.4748  141.0132  154.9541 H   0  0  0  0  0  0  0  0  0  0  0  0
  150.1327  142.8861  156.3643 H   0  0  0  0  0  0  0  0  0  0  0  0
  151.3337  142.3874  158.7619 H   0  0  0  0  0  0  0  0  0  0  0  0
  151.3650  139.6184  158.8800 H   0  0  0  0  0  0  0  0  0  0  0  0
  149.0933  139.3461  152.7291 H   0  0  0  0  0  0  0  0  0  0  0  0
  1  2  1  0  0  0  0
  1 18  1  0  0  0  0
  1 19  1  0  0  0  0
  1 20  1  0  0  0  0
  2  3  1  0  0  0  0
  2  4  1  0  0  0  0
  2 21  1  0  0  0  0
  3 22  1  0  0  0  0
  3 23  1  0  0  0  0
  3 24  1  0  0  0  0
  4  5  1  0  0  0  0
  4 25  1  0  0  0  0
  4 26  1  0  0  0  0
  5  6  1  0  0  0  0
  5 27  1  0  0  0  0
  6  7  2  0  0  0  0
  6  8  1  0  0  0  0
  8  9  1  0  0  0  0
  8 10  1  0  0  0  0
  8 28  1  0  0  0  0
  9 29  1  0  0  0  0
  9 30  1  0  0  0  0
  9 31  1  0  0  0  0
 10 11  1  0  0  0  0
 10 32  1  0  0  0  0
 10 40  1  0  0  0  0
 11 12  1  0  0  0  0
 11 33  1  0  0  0  0
 11 34  1  0  0  0  0
 12 13  1  0  0  0  0
 12 35  1  0  0  0  0
 12 36  1  0  0  0  0
 13 17  1  0  0  0  0
 13 14  1  0  0  0  0
 14 15  2  0  0  0  0
 14 37  1  0  0  0  0
 15 16  1  0  0  0  0
 15 38  1  0  0  0  0
 16 17  2  0  0  0  0
 16 39  1  0  0  0  0
M  CHG  1  10   1
M  END
> <s_m_source_file>
AV-unprocessed.smi

> <i_m_source_file_index>
3129

> <i_lp_mmshare_version>
43012

> <i_f3d_flags>
0

> <s_epik_input>
W0NIM11bQ0hdKFtDSDNdKVtDSDJdW05IXUMoPU8pW0NASF0oW0NIM10pW05IXVtDSDJdW0NIMl1uMVtjSF1bY0hdW2NIXW4x

> <s_epik_cmdline>
J2VwaWtfcHl0aG9uJywgJy1waCcsICc3LjAnLCAnLXRuJywgJzgnLCAnLW1hJywgJzIwMCcsICctbWV0YWxfYmluZGluZycsICctaW1hZScsICc8aW5maWxlLm1hZT4nLCAnLW9tYWUnLCAnPG91dGZpbGUubWFlPic=

> <r_lp_tautomer_probability>
1

> <r_epik_Ionization_Penalty>
0.20724

> <r_epik_Ionization_Penalty_Charging>
0.207237

> <r_epik_Ionization_Penalty_Neutral>
3.32432e-06

> <r_epik_State_Penalty>
0.197234

> <r_epik_Charging_Adjusted_Penalty>
0.404471

> <i_epik_Tot_Q>
1

> <i_epik_Tot_abs_Q>
1

> <r_epik_Metal_State_Penalty>
0.197522

> <b_epik_Metal_Only>
0

> <s_lp_Force_Field>
OPLS_2005

> <r_lp_Energy>
5.48994

> <b_lp_Chiralities_Consistent>
1

> <s_lp_Variant>
AV-unprocessed.smi:3129-1

> <Gold.Version>
5.8.1

> <Gold.Id.Protein>
6NUR|6NUR_protein|mol2

> <Gold.PLP.Fitness>
46.8306

> <Gold.PLP.PLP>
-33.2068

> <Gold.PLP.part.hbond>
-3.9243

> <Gold.PLP.part.metal>
0.0000

> <Gold.PLP.part.buried>
-2.2175

> <Gold.PLP.part.nonpolar>
-29.0268

> <Gold.PLP.part.repulsive>
1.0686

> <Gold.PLP.ligand.clash>
0.0000

> <Gold.PLP.ligand.torsion>
0.6267

> <Gold.PLP.Chemscore.Hbond>
3.9033

> <Gold.PLP.Chemscore.CHOScore>
1.0000

> <Gold.PLP.Chemscore.Metal>
0.0000

> <Gold.Chemscore.Hbonds>
donor molecule, donor type, donor heavy atom, donor atom, acceptor molecule, acceptor atom, score
      L1  H    10    32       P1  7948  2.00
      L1  H    10    40       P1  7957  1.00
      P1  H  7954  7966       L1     7  0.91
      L1  C    14    37       P1  8028  1.00

> <Gold.PLP.Chemscore.Internal.Correction>
0.1675

> <Gold.Rescore>
     Score         DG    S(hbond)    S(metal)    S(lipo)     H(rot)  DE(clash)    DE(int)     intcor
     16.31     -17.12       2.93        0.00      64.57       2.22       0.42       0.39       ----

> <Gold.Chemscore.Fitness>
16.3104

> <Gold.Chemscore.DG>
-17.1224

> <Gold.Chemscore.ZeroCoef>
-5.4800

> <Gold.Chemscore.Hbond>
2.9292

> <Gold.Chemscore.Metal>
0.0000

> <Gold.Chemscore.Lipo>
64.5699

> <Gold.Chemscore.Internal_Hbond>
0.0000

> <Gold.Chemscore.DEClash>
0.4209

> <Gold.Chemscore.DEInternal>
0.3911

> <Gold.Chemscore.Rot>
2.2249

> <Gold.Chemscore.Internal.Correction>
   9.000000E+99

> <Gold.Chemscore.Hbonds>
donor molecule, donor type, donor heavy atom, donor atom, acceptor molecule, acceptor atom, score
      L1  H    10    32       P1  7948  0.95
      L1  H    10    40       P1  7957  0.99
      P1  H  7954  7966       L1     7  0.84

> <Gold.Chemscore.Hbond.Weighted>
-9.7835

> <Gold.Chemscore.Metal.Weighted>
-0.0000

> <Gold.Chemscore.Lipo.Weighted>
-7.5547

> <Gold.Chemscore.Internal_Hbond.Weighted>
0.0000

> <Gold.Chemscore.DEClash.Weighted>
0.4209

> <Gold.Chemscore.DEInternal.Weighted>
0.3911

> <Gold.Chemscore.Rot.Weighted>
5.6957

> <Gold.Chemscore.Internal.Correction.Weighted>
   9.000000E+99

> <Gold.Protein.RotatedTorsions>
[ 6907 6896 6895 6894 ] final  139.75 input  -60.11 | X-H torsion
[ 7974 7965 7964 7962 ] final  178.71 input  175.53 | X-H torsion
[ 8008 7997 7996 7995 ] final -154.76 input   59.86 | X-H torsion
[ 10167 10162 10161 10158 ] final  -23.39 input  -65.29 | X-H torsion
[ 10718 10713 10712 10709 ] final  -47.14 input   66.30 | X-H torsion
[ 10763 10752 10751 10750 ] final   84.33 input  -60.55 | X-H torsion
[ 11005 11000 10999 10996 ] final   67.91 input  -57.11 | X-H torsion

> <Gold.Protein.ActiveResidues>
 VAL166  LYS551  ARG553  GLY616  TRP617  ASP618  TYR619  PRO620  LYS621  CYS622 
 ASP623  PHE694  ASN695  SER759  ASP760  ASP761  ALA762  ILE779  LEU786  VAL792 
 PHE793  MET794  SER795  GLU796  ALA797  LYS798  CYS799  TRP800  GLU811  SER814 

> <Gold.Protein.RotatedAtoms>
  152.2513  133.5217  159.5326 H   0  0  0  0  0  0  0  0  0  0  0  0  # atno 6907 bound_to 6896
  150.7094  134.0957  159.3956 H   0  0  0  0  0  0  0  0  0  0  0  0  # atno 6908 bound_to 6896
  151.8876  135.0429  160.0545 H   0  0  0  0  0  0  0  0  0  0  0  0  # atno 6909 bound_to 6896
  144.7153  140.0439  143.6437 H   0  0  0  0  0  0  0  0  0  0  0  0  # atno 7974 bound_to 7965
  155.6914  140.0756  157.2447 H   0  0  0  0  0  0  0  0  0  0  0  0  # atno 8008 bound_to 7997
  154.4088  140.1664  156.2143 H   0  0  0  0  0  0  0  0  0  0  0  0  # atno 8009 bound_to 7997
  155.9449  140.3382  155.6361 H   0  0  0  0  0  0  0  0  0  0  0  0  # atno 8010 bound_to 7997
  140.7288  143.4447  151.0604 H   0  0  0  0  0  0  0  0  0  0  0  0  # atno 10167 bound_to 10162
  156.2113  130.4161  149.9111 H   0  0  0  0  0  0  0  0  0  0  0  0  # atno 10718 bound_to 10713
  153.1372  135.4658  154.9440 H   0  0  0  0  0  0  0  0  0  0  0  0  # atno 10763 bound_to 10752
  154.7716  135.3160  154.8180 H   0  0  0  0  0  0  0  0  0  0  0  0  # atno 10764 bound_to 10752
  153.8710  135.6903  153.4828 H   0  0  0  0  0  0  0  0  0  0  0  0  # atno 10765 bound_to 10752
  139.9742  134.6849  156.0386 H   0  0  0  0  0  0  0  0  0  0  0  0  # atno 11005 bound_to 11000
  146.0001  139.3084  143.0933 LP  0  0  0  0  0  0  0  0  0  0  0  0  # atno 17320 bound_to 7965
  145.8803  140.9366  143.0604 LP  0  0  0  0  0  0  0  0  0  0  0  0  # atno 17321 bound_to 7965
  139.8118  143.7941  152.3171 LP  0  0  0  0  0  0  0  0  0  0  0  0  # atno 17342 bound_to 10162
  139.7993  144.7380  150.9847 LP  0  0  0  0  0  0  0  0  0  0  0  0  # atno 17343 bound_to 10162
  156.6788  130.8850  151.3573 LP  0  0  0  0  0  0  0  0  0  0  0  0  # atno 17370 bound_to 10713
  157.7040  130.9364  150.0873 LP  0  0  0  0  0  0  0  0  0  0  0  0  # atno 17371 bound_to 10713
  141.1420  133.6563  156.3758 LP  0  0  0  0  0  0  0  0  0  0  0  0  # atno 17394 bound_to 11000
  140.5229  134.6287  157.5324 LP  0  0  0  0  0  0  0  0  0  0  0  0  # atno 17395 bound_to 11000

$$$$
