AV-unprocessed.smi:912|AV-procd|sdf|4146|dock6
  -GOLD-   22720 2 53D 1   1.00000     0.00000
 Structure written by MMmdl.
 26 26  0  0  0  0  0  0  0  0  3 V2000
  147.7407  139.0942  153.4416 C   0  0  0  0  0  0  0  0  0  0  0  0
  149.1450  138.6236  153.4092 N   0  3  0  0  0  0  0  0  0  0  0  0
  149.8712  138.4896  154.7074 C   0  0  1  0  0  0  0  0  0  0  0  0
  149.3280  137.2601  155.4826 C   0  0  0  0  0  0  0  0  0  0  0  0
  151.3926  138.3492  154.4098 C   0  0  0  0  0  0  0  0  0  0  0  0
  151.7308  137.1478  153.8894 N   0  5  0  0  0  0  0  0  0  0  0  0
  152.1574  139.2810  154.6548 O   0  0  0  0  0  0  0  0  0  0  0  0
  149.6527  139.7489  155.5756 C   0  0  0  0  0  0  0  0  0  0  0  0
  150.0854  141.0393  155.1749 C   0  0  0  0  0  0  0  0  0  0  0  0
  149.8405  142.1379  156.0231 C   0  0  0  0  0  0  0  0  0  0  0  0
  149.2036  142.0370  157.2074 N   0  0  0  0  0  0  0  0  0  0  0  0
  148.7879  140.8134  157.5921 C   0  0  0  0  0  0  0  0  0  0  0  0
  148.9836  139.6517  156.8202 C   0  0  0  0  0  0  0  0  0  0  0  0
  147.3160  139.0235  152.4405 H   0  0  0  0  0  0  0  0  0  0  0  0
  147.6744  140.1369  153.7511 H   0  0  0  0  0  0  0  0  0  0  0  0
  147.1235  138.4897  154.1062 H   0  0  0  0  0  0  0  0  0  0  0  0
  149.1536  137.7076  152.9827 H   0  0  0  0  0  0  0  0  0  0  0  0
  149.7928  137.1556  156.4634 H   0  0  0  0  0  0  0  0  0  0  0  0
  149.5101  136.3225  154.9569 H   0  0  0  0  0  0  0  0  0  0  0  0
  148.2528  137.3431  155.6444 H   0  0  0  0  0  0  0  0  0  0  0  0
  151.4891  136.9399  152.9134 H   0  0  0  0  0  0  0  0  0  0  0  0
  150.6020  141.2143  154.2438 H   0  0  0  0  0  0  0  0  0  0  0  0
  150.1652  143.1280  155.7390 H   0  0  0  0  0  0  0  0  0  0  0  0
  148.2820  140.7573  158.5446 H   0  0  0  0  0  0  0  0  0  0  0  0
  148.6288  138.7001  157.1886 H   0  0  0  0  0  0  0  0  0  0  0  0
  149.6716  139.2536  152.8227 H   0  0  0  0  0  0  0  0  0  0  0  0
  1  2  1  0  0  0  0
  1 14  1  0  0  0  0
  1 15  1  0  0  0  0
  1 16  1  0  0  0  0
  2  3  1  0  0  0  0
  2 17  1  0  0  0  0
  2 26  1  0  0  0  0
  3  4  1  0  0  0  0
  3  5  1  0  0  0  0
  3  8  1  0  0  0  0
  4 18  1  0  0  0  0
  4 19  1  0  0  0  0
  4 20  1  0  0  0  0
  5  6  1  0  0  0  0
  5  7  2  0  0  0  0
  6 21  1  0  0  0  0
  8 13  1  0  0  0  0
  8  9  2  0  0  0  0
  9 10  1  0  0  0  0
  9 22  1  0  0  0  0
 10 11  2  0  0  0  0
 10 23  1  0  0  0  0
 11 12  1  0  0  0  0
 12 13  2  0  0  0  0
 12 24  1  0  0  0  0
 13 25  1  0  0  0  0
M  CHG  1   2   1
M  CHG  1   6  -1
M  END
> <s_m_source_file>
AV-unprocessed.smi

> <i_m_source_file_index>
912

> <i_lp_mmshare_version>
43012

> <i_f3d_flags>
0

> <s_epik_input>
W0NIM11bTkhdW0NAQF0oW0NIM10pKEMoPU8pW05IMl0pYzFbY0hdW2NIXW5bY0hdW2NIXTE=

> <s_epik_cmdline>
J2VwaWtfcHl0aG9uJywgJy1waCcsICc3LjAnLCAnLXRuJywgJzgnLCAnLW1hJywgJzIwMCcsICctbWV0YWxfYmluZGluZycsICctaW1hZScsICc8aW5maWxlLm1hZT4nLCAnLW9tYWUnLCAnPG91dGZpbGUubWFlPic=

> <r_epik_Ionization_Penalty>
6.88213

> <r_epik_Ionization_Penalty_Charging>
6.88153

> <r_epik_Ionization_Penalty_Neutral>
0.000601258

> <r_epik_State_Penalty>
7.02604

> <r_epik_Charging_Adjusted_Penalty>
13.9076

> <i_epik_Tot_Q>
0

> <i_epik_Tot_abs_Q>
2

> <r_epik_Metal_State_Penalty>
3.10652

> <b_epik_Metal_Only>
1

> <s_lp_Force_Field>
OPLS_2005

> <r_lp_Energy>
7.69215

> <b_lp_Chiralities_Consistent>
1

> <s_lp_Variant>
AV-unprocessed.smi:912-7

> <Gold.Version>
5.8.1

> <Gold.Id.Protein>
6NUR|6NUR_protein|mol2

> <Gold.PLP.Fitness>
41.2003

> <Gold.PLP.PLP>
-19.4427

> <Gold.PLP.part.hbond>
-5.0000

> <Gold.PLP.part.metal>
0.0000

> <Gold.PLP.part.buried>
-1.0450

> <Gold.PLP.part.nonpolar>
-12.6774

> <Gold.PLP.part.repulsive>
0.2512

> <Gold.PLP.ligand.clash>
0.0000

> <Gold.PLP.ligand.torsion>
0.5737

> <Gold.PLP.Chemscore.Hbond>
6.6320

> <Gold.PLP.Chemscore.CHOScore>
1.0000

> <Gold.PLP.Chemscore.Metal>
0.0000

> <Gold.Chemscore.Hbonds>
donor molecule, donor type, donor heavy atom, donor atom, acceptor molecule, acceptor atom, score
      L1  H     2    17       P1  7948  2.00
      L1  H     2    26       P1  7957  0.82
      L1  H     6    21       P1  7949  1.00
      P1  H  7989  7998       L1     7  0.83
      P1  H 10752 10764       L1     6  2.00
      L1  C    10    23       P1  8028  0.86

> <Gold.PLP.Chemscore.Internal.Correction>
0.0089

> <Gold.Rescore>
     Score         DG    S(hbond)    S(metal)    S(lipo)     H(rot)  DE(clash)    DE(int)     intcor
     16.19     -18.35       4.09        0.00      32.60       1.80       0.21       1.94       ----

> <Gold.Chemscore.Fitness>
16.1950

> <Gold.Chemscore.DG>
-18.3495

> <Gold.Chemscore.ZeroCoef>
-5.4800

> <Gold.Chemscore.Hbond>
4.0936

> <Gold.Chemscore.Metal>
0.0000

> <Gold.Chemscore.Lipo>
32.6015

> <Gold.Chemscore.Internal_Hbond>
0.0000

> <Gold.Chemscore.DEClash>
0.2097

> <Gold.Chemscore.DEInternal>
1.9449

> <Gold.Chemscore.Rot>
1.8037

> <Gold.Chemscore.Internal.Correction>
   9.000000E+99

> <Gold.Chemscore.Hbonds>
donor molecule, donor type, donor heavy atom, donor atom, acceptor molecule, acceptor atom, score
      L1  H     2    17       P1  7948  0.99
      L1  H     2    26       P1  7957  0.80
      L1  H     6    21       P1  7949  0.92
      P1  H  7989  7998       L1     7  0.55
      P1  H 10752 10764       L1     6  0.29

> <Gold.Chemscore.Hbond.Weighted>
-13.6726

> <Gold.Chemscore.Metal.Weighted>
-0.0000

> <Gold.Chemscore.Lipo.Weighted>
-3.8144

> <Gold.Chemscore.Internal_Hbond.Weighted>
0.0000

> <Gold.Chemscore.DEClash.Weighted>
0.2097

> <Gold.Chemscore.DEInternal.Weighted>
1.9449

> <Gold.Chemscore.Rot.Weighted>
4.6174

> <Gold.Chemscore.Internal.Correction.Weighted>
   9.000000E+99

> <Gold.Protein.RotatedTorsions>
[ 6907 6896 6895 6894 ] final  -56.92 input  -60.11 | X-H torsion
[ 7974 7965 7964 7962 ] final   28.20 input  175.53 | X-H torsion
[ 8008 7997 7996 7995 ] final  -31.10 input   59.86 | X-H torsion
[ 10167 10162 10161 10158 ] final  120.02 input  -65.29 | X-H torsion
[ 10718 10713 10712 10709 ] final  168.96 input   66.30 | X-H torsion
[ 10763 10752 10751 10750 ] final  -76.70 input  -60.55 | X-H torsion
[ 11005 11000 10999 10996 ] final  168.78 input  -57.11 | X-H torsion

> <Gold.Protein.ActiveResidues>
 VAL166  LYS551  ARG553  GLY616  TRP617  ASP618  TYR619  PRO620  LYS621  CYS622 
 ASP623  PHE694  ASN695  SER759  ASP760  ASP761  ALA762  ILE779  LEU786  VAL792 
 PHE793  MET794  SER795  GLU796  ALA797  LYS798  CYS799  TRP800  GLU811  SER814 

> <Gold.Protein.RotatedAtoms>
  150.8128  134.7292  159.6702 H   0  0  0  0  0  0  0  0  0  0  0  0  # atno 6907 bound_to 6896
  152.4247  134.5887  159.9978 H   0  0  0  0  0  0  0  0  0  0  0  0  # atno 6908 bound_to 6896
  151.6092  133.3311  159.3100 H   0  0  0  0  0  0  0  0  0  0  0  0  # atno 6909 bound_to 6896
  146.1742  139.7088  142.8946 H   0  0  0  0  0  0  0  0  0  0  0  0  # atno 7974 bound_to 7965
  154.4226  140.1773  156.1512 H   0  0  0  0  0  0  0  0  0  0  0  0  # atno 8008 bound_to 7997
  155.9914  140.3368  155.6732 H   0  0  0  0  0  0  0  0  0  0  0  0  # atno 8009 bound_to 7997
  155.6368  140.0675  157.2622 H   0  0  0  0  0  0  0  0  0  0  0  0  # atno 8010 bound_to 7997
  139.6008  144.7056  151.3066 H   0  0  0  0  0  0  0  0  0  0  0  0  # atno 10167 bound_to 10162
  157.0295  131.0255  151.2749 H   0  0  0  0  0  0  0  0  0  0  0  0  # atno 10718 bound_to 10713
  154.5033  135.5789  153.6547 H   0  0  0  0  0  0  0  0  0  0  0  0  # atno 10763 bound_to 10752
  152.9883  135.6141  154.2974 H   0  0  0  0  0  0  0  0  0  0  0  0  # atno 10764 bound_to 10752
  154.2884  135.2849  155.2645 H   0  0  0  0  0  0  0  0  0  0  0  0  # atno 10765 bound_to 10752
  140.2908  134.7674  157.3837 H   0  0  0  0  0  0  0  0  0  0  0  0  # atno 11005 bound_to 11000
  145.4257  141.0410  143.2939 LP  0  0  0  0  0  0  0  0  0  0  0  0  # atno 17320 bound_to 7965
  144.8210  139.5792  143.6987 LP  0  0  0  0  0  0  0  0  0  0  0  0  # atno 17321 bound_to 7965
  140.7248  143.7034  150.7827 LP  0  0  0  0  0  0  0  0  0  0  0  0  # atno 17342 bound_to 10162
  140.0610  143.5155  152.2628 LP  0  0  0  0  0  0  0  0  0  0  0  0  # atno 17343 bound_to 10162
  157.5188  130.7985  149.7786 LP  0  0  0  0  0  0  0  0  0  0  0  0  # atno 17370 bound_to 10713
  156.0074  130.3849  150.2382 LP  0  0  0  0  0  0  0  0  0  0  0  0  # atno 17371 bound_to 10713
  140.1197  134.5236  155.8194 LP  0  0  0  0  0  0  0  0  0  0  0  0  # atno 17394 bound_to 11000
  141.2146  133.6752  156.6843 LP  0  0  0  0  0  0  0  0  0  0  0  0  # atno 17395 bound_to 11000

$$$$
