AV-unprocessed.smi:885|AV-procd|sdf|4046|dock2
  -GOLD-   22720 1533D 1   1.00000     0.00000
 Structure written by MMmdl.
 39 41  0  0  0  0  0  0  0  0  1 V2000
  151.3498  144.8974  160.2640 C   0  0  0  0  0  0  0  0  0  0  0  0
  152.2088  144.1020  161.2635 C   0  0  0  0  0  0  0  0  0  0  0  0
  152.9369  142.8632  160.7127 C   0  0  0  0  0  0  0  0  0  0  0  0
  152.1257  142.0059  159.7264 C   0  0  0  0  0  0  0  0  0  0  0  0
  152.2385  142.4845  158.2626 C   0  0  0  0  0  0  0  0  0  0  0  0
  151.8092  141.4097  157.3096 C   0  0  0  0  0  0  0  0  0  0  0  0
  150.9260  141.6517  156.3476 N   0  0  0  0  0  0  0  0  0  0  0  0
  150.7950  140.4118  155.7065 O   0  0  0  0  0  0  0  0  0  0  0  0
  151.6361  139.5685  156.3523 C   0  0  0  0  0  0  0  0  0  0  0  0
  151.6811  138.1361  155.9263 C   0  0  2  0  0  0  0  0  0  0  0  0
  151.0156  137.9141  154.5543 C   0  0  0  0  0  0  0  0  0  0  0  0
  151.0092  136.4913  154.2189 N   0  0  0  0  0  0  0  0  0  0  0  0
  150.3705  135.7038  155.2722 C   0  0  0  0  0  0  0  0  0  0  0  0
  151.0396  135.9823  156.6304 C   0  0  0  0  0  0  0  0  0  0  0  0
  150.9869  137.3765  156.9130 O   0  0  0  0  0  0  0  0  0  0  0  0
  152.2796  140.1327  157.3725 N   0  0  0  0  0  0  0  0  0  0  0  0
  151.5184  143.8113  157.9493 C   0  0  0  0  0  0  0  0  0  0  0  0
  151.9189  145.0007  158.8395 C   0  0  0  0  0  0  0  0  0  0  0  0
  151.2143  145.9024  160.6653 H   0  0  0  0  0  0  0  0  0  0  0  0
  150.3471  144.4697  160.2231 H   0  0  0  0  0  0  0  0  0  0  0  0
  152.9564  144.7667  161.6978 H   0  0  0  0  0  0  0  0  0  0  0  0
  151.5704  143.8004  162.0946 H   0  0  0  0  0  0  0  0  0  0  0  0
  153.8759  143.1662  160.2481 H   0  0  0  0  0  0  0  0  0  0  0  0
  153.2277  142.2440  161.5620 H   0  0  0  0  0  0  0  0  0  0  0  0
  152.5316  140.9945  159.7772 H   0  0  0  0  0  0  0  0  0  0  0  0
  151.0836  141.9234  160.0380 H   0  0  0  0  0  0  0  0  0  0  0  0
  153.2991  142.6571  158.0710 H   0  0  0  0  0  0  0  0  0  0  0  0
  152.7269  137.8241  155.8950 H   0  0  0  0  0  0  0  0  0  0  0  0
  149.9927  138.2928  154.5755 H   0  0  0  0  0  0  0  0  0  0  0  0
  151.5423  138.4776  153.7839 H   0  0  0  0  0  0  0  0  0  0  0  0
  150.5161  136.3506  153.3430 H   0  0  0  0  0  0  0  0  0  0  0  0
  149.3101  135.9521  155.3296 H   0  0  0  0  0  0  0  0  0  0  0  0
  150.4317  134.6417  155.0347 H   0  0  0  0  0  0  0  0  0  0  0  0
  150.5187  135.4432  157.4218 H   0  0  0  0  0  0  0  0  0  0  0  0
  152.0741  135.6351  156.6360 H   0  0  0  0  0  0  0  0  0  0  0  0
  151.7294  144.0765  156.9123 H   0  0  0  0  0  0  0  0  0  0  0  0
  150.4381  143.6698  158.0020 H   0  0  0  0  0  0  0  0  0  0  0  0
  151.5121  145.9029  158.3815 H   0  0  0  0  0  0  0  0  0  0  0  0
  153.0007  145.1378  158.8554 H   0  0  0  0  0  0  0  0  0  0  0  0
  1 18  1  0  0  0  0
  1  2  1  0  0  0  0
  1 19  1  0  0  0  0
  1 20  1  0  0  0  0
  2  3  1  0  0  0  0
  2 21  1  0  0  0  0
  2 22  1  0  0  0  0
  3  4  1  0  0  0  0
  3 23  1  0  0  0  0
  3 24  1  0  0  0  0
  4  5  1  0  0  0  0
  4 25  1  0  0  0  0
  4 26  1  0  0  0  0
  5  6  1  0  0  0  0
  5 17  1  0  0  0  0
  5 27  1  0  0  0  0
  6 16  1  0  0  0  0
  6  7  2  0  0  0  0
  7  8  1  0  0  0  0
  8  9  1  0  0  0  0
  9 10  1  0  0  0  0
  9 16  2  0  0  0  0
 10 15  1  0  0  0  0
 10 11  1  0  0  0  0
 10 28  1  0  0  0  0
 11 12  1  0  0  0  0
 11 29  1  0  0  0  0
 11 30  1  0  0  0  0
 12 13  1  0  0  0  0
 12 31  1  0  0  0  0
 13 14  1  0  0  0  0
 13 32  1  0  0  0  0
 13 33  1  0  0  0  0
 14 15  1  0  0  0  0
 14 34  1  0  0  0  0
 14 35  1  0  0  0  0
 17 18  1  0  0  0  0
 17 36  1  0  0  0  0
 17 37  1  0  0  0  0
 18 38  1  0  0  0  0
 18 39  1  0  0  0  0
M  END
> <s_m_source_file>
AV-unprocessed.smi

> <i_m_source_file_index>
885

> <i_lp_mmshare_version>
43012

> <i_f3d_flags>
0

> <s_epik_input>
W0NIMl0xW0NIMl1bQ0gyXVtDSDJdW0NIMl1bQ0gyXVtDSF0xYzJub2MobjIpW0NAQEhdM1tDSDJdW05IXVtDSDJdW0NIMl1PMw==

> <s_epik_cmdline>
J2VwaWtfcHl0aG9uJywgJy1waCcsICc3LjAnLCAnLXRuJywgJzgnLCAnLW1hJywgJzIwMCcsICctbWV0YWxfYmluZGluZycsICctaW1hZScsICc8aW5maWxlLm1hZT4nLCAnLW9tYWUnLCAnPG91dGZpbGUubWFlPic=

> <r_lp_tautomer_probability>
1

> <r_epik_Ionization_Penalty>
0.861744

> <r_epik_Ionization_Penalty_Charging>
0

> <r_epik_Ionization_Penalty_Neutral>
0.861744

> <r_epik_State_Penalty>
0.898282

> <r_epik_Charging_Adjusted_Penalty>
0.898282

> <i_epik_Tot_Q>
0

> <i_epik_Tot_abs_Q>
0

> <r_epik_Metal_State_Penalty>
0.898282

> <b_epik_Metal_Only>
0

> <s_lp_Force_Field>
OPLS_2005

> <r_lp_Energy>
20.6019

> <b_lp_Chiralities_Consistent>
1

> <s_lp_Variant>
AV-unprocessed.smi:885-3

> <Gold.Version>
5.8.1

> <Gold.Id.Protein>
6NUR|6NUR_protein|mol2

> <Gold.PLP.Fitness>
46.9481

> <Gold.PLP.PLP>
-37.4056

> <Gold.PLP.part.hbond>
-4.3508

> <Gold.PLP.part.metal>
0.0000

> <Gold.PLP.part.buried>
-4.0274

> <Gold.PLP.part.nonpolar>
-27.9902

> <Gold.PLP.part.repulsive>
0.0862

> <Gold.PLP.ligand.clash>
0.0000

> <Gold.PLP.ligand.torsion>
0.3825

> <Gold.PLP.Chemscore.Hbond>
3.4000

> <Gold.PLP.Chemscore.CHOScore>
0.0000

> <Gold.PLP.Chemscore.Metal>
0.0000

> <Gold.Chemscore.Hbonds>
donor molecule, donor type, donor heavy atom, donor atom, acceptor molecule, acceptor atom, score
      L1  H    12    31       P1  7949  0.19
      P1  H  7989  7998       L1     8  0.08
      P1  H  7997  8009       L1    16  0.54
      P1  H 10752 10764       L1    12  0.75

> <Gold.PLP.Chemscore.Internal.Correction>
0.1074

> <Gold.Rescore>
     Score         DG    S(hbond)    S(metal)    S(lipo)     H(rot)  DE(clash)    DE(int)     intcor
     17.85     -18.90       1.40        0.00     101.12       1.21       0.71       0.35       ----

> <Gold.Chemscore.Fitness>
17.8477

> <Gold.Chemscore.DG>
-18.9001

> <Gold.Chemscore.ZeroCoef>
-5.4800

> <Gold.Chemscore.Hbond>
1.4023

> <Gold.Chemscore.Metal>
0.0000

> <Gold.Chemscore.Lipo>
101.1212

> <Gold.Chemscore.Internal_Hbond>
0.0000

> <Gold.Chemscore.DEClash>
0.7055

> <Gold.Chemscore.DEInternal>
0.3469

> <Gold.Chemscore.Rot>
1.2088

> <Gold.Chemscore.Internal.Correction>
   9.000000E+99

> <Gold.Chemscore.Hbonds>
donor molecule, donor type, donor heavy atom, donor atom, acceptor molecule, acceptor atom, score
      P1  H  7989  7998       L1     8  0.03
      P1  H  7997  8009       L1    16  0.11
      P1  H 10752 10764       L1    12  0.20

> <Gold.Chemscore.Hbond.Weighted>
-4.6836

> <Gold.Chemscore.Metal.Weighted>
-0.0000

> <Gold.Chemscore.Lipo.Weighted>
-11.8312

> <Gold.Chemscore.Internal_Hbond.Weighted>
0.0000

> <Gold.Chemscore.DEClash.Weighted>
0.7055

> <Gold.Chemscore.DEInternal.Weighted>
0.3469

> <Gold.Chemscore.Rot.Weighted>
3.0946

> <Gold.Chemscore.Internal.Correction.Weighted>
   9.000000E+99

> <Gold.Protein.RotatedTorsions>
[ 6907 6896 6895 6894 ] final -171.27 input  -60.11 | X-H torsion
[ 7974 7965 7964 7962 ] final  109.06 input  175.53 | X-H torsion
[ 8008 7997 7996 7995 ] final -178.69 input   59.86 | X-H torsion
[ 10167 10162 10161 10158 ] final  -84.49 input  -65.29 | X-H torsion
[ 10718 10713 10712 10709 ] final   41.24 input   66.30 | X-H torsion
[ 10763 10752 10751 10750 ] final  -89.07 input  -60.55 | X-H torsion
[ 11005 11000 10999 10996 ] final  -38.55 input  -57.11 | X-H torsion

> <Gold.Protein.ActiveResidues>
 VAL166  LYS551  ARG553  GLY616  TRP617  ASP618  TYR619  PRO620  LYS621  CYS622 
 ASP623  PHE694  ASN695  SER759  ASP760  ASP761  ALA762  ILE779  LEU786  VAL792 
 PHE793  MET794  SER795  GLU796  ALA797  LYS798  CYS799  TRP800  GLU811  SER814 

> <Gold.Protein.RotatedAtoms>
  151.5212  133.3466  159.2901 H   0  0  0  0  0  0  0  0  0  0  0  0  # atno 6907 bound_to 6896
  150.8651  134.8015  159.7124 H   0  0  0  0  0  0  0  0  0  0  0  0  # atno 6908 bound_to 6896
  152.4658  134.5087  159.9799 H   0  0  0  0  0  0  0  0  0  0  0  0  # atno 6909 bound_to 6896
  145.2726  139.2661  143.3958 H   0  0  0  0  0  0  0  0  0  0  0  0  # atno 7974 bound_to 7965
  156.0218  140.1263  157.0349 H   0  0  0  0  0  0  0  0  0  0  0  0  # atno 8008 bound_to 7997
  154.4314  140.1067  156.6045 H   0  0  0  0  0  0  0  0  0  0  0  0  # atno 8009 bound_to 7997
  155.5933  140.3469  155.4575 H   0  0  0  0  0  0  0  0  0  0  0  0  # atno 8010 bound_to 7997
  140.4127  143.2616  151.8996 H   0  0  0  0  0  0  0  0  0  0  0  0  # atno 10167 bound_to 10162
  157.3913  130.7808  149.7272 H   0  0  0  0  0  0  0  0  0  0  0  0  # atno 10718 bound_to 10713
  154.6513  135.5354  153.7905 H   0  0  0  0  0  0  0  0  0  0  0  0  # atno 10763 bound_to 10752
  153.0388  135.6483  154.1012 H   0  0  0  0  0  0  0  0  0  0  0  0  # atno 10764 bound_to 10752
  154.0929  135.2939  155.3248 H   0  0  0  0  0  0  0  0  0  0  0  0  # atno 10765 bound_to 10752
  141.0036  133.6943  156.2069 H   0  0  0  0  0  0  0  0  0  0  0  0  # atno 11005 bound_to 11000
  146.3241  140.3173  142.8631 LP  0  0  0  0  0  0  0  0  0  0  0  0  # atno 17320 bound_to 7965
  144.9322  140.7987  143.5682 LP  0  0  0  0  0  0  0  0  0  0  0  0  # atno 17321 bound_to 7965
  139.4782  144.5520  151.8371 LP  0  0  0  0  0  0  0  0  0  0  0  0  # atno 17342 bound_to 10162
  140.4620  144.1708  150.5907 LP  0  0  0  0  0  0  0  0  0  0  0  0  # atno 17343 bound_to 10162
  155.9799  130.4035  150.3560 LP  0  0  0  0  0  0  0  0  0  0  0  0  # atno 17370 bound_to 10713
  157.1676  131.0361  151.2811 LP  0  0  0  0  0  0  0  0  0  0  0  0  # atno 17371 bound_to 10713
  140.6849  134.4728  157.5589 LP  0  0  0  0  0  0  0  0  0  0  0  0  # atno 17394 bound_to 11000
  139.9051  134.8466  156.1736 LP  0  0  0  0  0  0  0  0  0  0  0  0  # atno 17395 bound_to 11000

$$$$
