AV-unprocessed.smi:3232|AV-procd|sdf|12344|dock10
  -GOLD-   2272018203D 1   1.00000     0.00000
 Structure written by MMmdl.
 40 41  0  0  0  0  0  0  0  0  2 V2000
  152.2082  145.3916  158.7643 C   0  0  0  0  0  0  0  0  0  0  0  0
  152.4916  143.8898  158.6304 C   0  0  0  0  0  0  0  0  0  0  0  0
  153.1088  143.3315  159.8587 N   0  3  1  0  0  0  0  0  0  0  0  0
  152.4662  143.7275  161.1342 C   0  0  0  0  0  0  0  0  0  0  0  0
  152.7020  142.5748  162.1202 C   0  0  0  0  0  0  0  0  0  0  0  0
  153.6295  141.6115  161.3817 C   0  0  0  0  0  0  0  0  0  0  0  0
  153.3165  141.8629  159.9013 C   0  0  1  0  0  0  0  0  0  0  0  0
  152.0950  141.0608  159.3802 C   0  0  0  0  0  0  0  0  0  0  0  0
  152.2066  140.7367  157.9612 N   0  0  0  0  0  0  0  0  0  0  0  0
  152.2216  139.4965  157.4446 C   0  0  0  0  0  0  0  0  0  0  0  0
  152.1795  138.4815  158.1410 O   0  0  0  0  0  0  0  0  0  0  0  0
  152.3123  139.3973  155.9118 C   0  0  1  0  0  0  0  0  0  0  0  0
  152.6838  137.9838  155.4190 C   0  0  0  0  0  0  0  0  0  0  0  0
  151.0847  139.8813  155.2910 N   0  0  0  0  0  0  0  0  0  0  0  0
  150.2436  139.2658  154.4571 C   0  0  0  0  0  0  0  0  0  0  0  0
  149.2364  140.0250  154.0503 N   0  0  0  0  0  0  0  0  0  0  0  0
  149.5390  141.1801  154.7136 C   0  0  0  0  0  0  0  0  0  0  0  0
  150.6408  141.1514  155.4632 N   0  0  0  0  0  0  0  0  0  0  0  0
  151.8006  145.7913  157.8354 H   0  0  0  0  0  0  0  0  0  0  0  0
  153.1189  145.9465  158.9918 H   0  0  0  0  0  0  0  0  0  0  0  0
  151.4838  145.5953  159.5534 H   0  0  0  0  0  0  0  0  0  0  0  0
  151.5704  143.3571  158.3905 H   0  0  0  0  0  0  0  0  0  0  0  0
  153.1751  143.7390  157.7938 H   0  0  0  0  0  0  0  0  0  0  0  0
  152.9023  144.6604  161.4927 H   0  0  0  0  0  0  0  0  0  0  0  0
  151.3953  143.8887  161.0006 H   0  0  0  0  0  0  0  0  0  0  0  0
  153.1291  142.9137  163.0646 H   0  0  0  0  0  0  0  0  0  0  0  0
  151.7561  142.0797  162.3440 H   0  0  0  0  0  0  0  0  0  0  0  0
  154.6658  141.8879  161.5819 H   0  0  0  0  0  0  0  0  0  0  0  0
  153.5095  140.5773  161.7019 H   0  0  0  0  0  0  0  0  0  0  0  0
  154.1838  141.6109  159.2893 H   0  0  0  0  0  0  0  0  0  0  0  0
  151.9385  140.1615  159.9783 H   0  0  0  0  0  0  0  0  0  0  0  0
  151.1846  141.6512  159.4828 H   0  0  0  0  0  0  0  0  0  0  0  0
  152.2490  141.5147  157.3188 H   0  0  0  0  0  0  0  0  0  0  0  0
  153.1147  140.0683  155.6009 H   0  0  0  0  0  0  0  0  0  0  0  0
  153.6318  137.6533  155.8449 H   0  0  0  0  0  0  0  0  0  0  0  0
  152.7920  137.9672  154.3342 H   0  0  0  0  0  0  0  0  0  0  0  0
  151.9263  137.2455  155.6855 H   0  0  0  0  0  0  0  0  0  0  0  0
  150.3733  138.2425  154.1370 H   0  0  0  0  0  0  0  0  0  0  0  0
  148.9327  142.0707  154.6368 H   0  0  0  0  0  0  0  0  0  0  0  0
  154.0413  143.7171  159.9021 H   0  0  0  0  0  0  0  0  0  0  0  0
  1  2  1  0  0  0  0
  1 19  1  0  0  0  0
  1 20  1  0  0  0  0
  1 21  1  0  0  0  0
  2  3  1  0  0  0  0
  2 22  1  0  0  0  0
  2 23  1  0  0  0  0
  3  7  1  0  0  0  0
  3  4  1  0  0  0  0
  3 40  1  0  0  0  0
  4  5  1  0  0  0  0
  4 24  1  0  0  0  0
  4 25  1  0  0  0  0
  5  6  1  0  0  0  0
  5 26  1  0  0  0  0
  5 27  1  0  0  0  0
  6  7  1  0  0  0  0
  6 28  1  0  0  0  0
  6 29  1  0  0  0  0
  7  8  1  0  0  0  0
  7 30  1  0  0  0  0
  8  9  1  0  0  0  0
  8 31  1  0  0  0  0
  8 32  1  0  0  0  0
  9 10  1  0  0  0  0
  9 33  1  0  0  0  0
 10 11  2  0  0  0  0
 10 12  1  0  0  0  0
 12 13  1  0  0  0  0
 12 14  1  0  0  0  0
 12 34  1  0  0  0  0
 13 35  1  0  0  0  0
 13 36  1  0  0  0  0
 13 37  1  0  0  0  0
 14 18  1  0  0  0  0
 14 15  1  0  0  0  0
 15 16  2  0  0  0  0
 15 38  1  0  0  0  0
 16 17  1  0  0  0  0
 17 18  2  0  0  0  0
 17 39  1  0  0  0  0
M  CHG  1   3   1
M  END
> <s_m_source_file>
AV-unprocessed.smi

> <i_m_source_file_index>
3232

> <i_lp_mmshare_version>
43012

> <i_f3d_flags>
0

> <s_epik_input>
W0NIM11bQ0gyXU4xW0NIMl1bQ0gyXVtDSDJdW0NASF0xW0NIMl1bTkhdQyg9TylbQ0BIXShbQ0gzXSluMltjSF1uW2NIXW4y

> <s_epik_cmdline>
J2VwaWtfcHl0aG9uJywgJy1waCcsICc3LjAnLCAnLXRuJywgJzgnLCAnLW1hJywgJzIwMCcsICctbWV0YWxfYmluZGluZycsICctaW1hZScsICc8aW5maWxlLm1hZT4nLCAnLW9tYWUnLCAnPG91dGZpbGUubWFlPic=

> <r_lp_tautomer_probability>
1

> <r_epik_Ionization_Penalty>
0.00177695

> <r_epik_Ionization_Penalty_Charging>
0.00176881

> <r_epik_Ionization_Penalty_Neutral>
8.13528e-06

> <r_epik_State_Penalty>
0.00119827

> <r_epik_Charging_Adjusted_Penalty>
0.00296709

> <i_epik_Tot_Q>
1

> <i_epik_Tot_abs_Q>
1

> <r_epik_Metal_State_Penalty>
-0

> <b_epik_Metal_Only>
0

> <s_lp_Force_Field>
OPLS_2005

> <r_lp_Energy>
36.9304

> <b_lp_Chiralities_Consistent>
1

> <s_lp_Variant>
AV-unprocessed.smi:3232-6

> <Gold.Version>
5.8.1

> <Gold.Id.Protein>
6NUR|6NUR_protein|mol2

> <Gold.PLP.Fitness>
45.9655

> <Gold.PLP.PLP>
-44.3249

> <Gold.PLP.part.hbond>
-0.2394

> <Gold.PLP.part.metal>
0.0000

> <Gold.PLP.part.buried>
-4.3851

> <Gold.PLP.part.nonpolar>
-40.5130

> <Gold.PLP.part.repulsive>
0.3157

> <Gold.PLP.ligand.clash>
0.0000

> <Gold.PLP.ligand.torsion>
0.7425

> <Gold.PLP.Chemscore.Hbond>
0.0000

> <Gold.PLP.Chemscore.CHOScore>
0.9977

> <Gold.PLP.Chemscore.Metal>
0.0000

> <Gold.Chemscore.Hbonds>
donor molecule, donor type, donor heavy atom, donor atom, acceptor molecule, acceptor atom, score
      L1  C    17    39       P1  8028  0.26

> <Gold.PLP.Chemscore.Internal.Correction>
0.1326

> <Gold.Rescore>
     Score         DG    S(hbond)    S(metal)    S(lipo)     H(rot)  DE(clash)    DE(int)     intcor
      8.69     -10.37       0.00        0.00      96.20       2.49       0.01       1.67       ----

> <Gold.Chemscore.Fitness>
8.6896

> <Gold.Chemscore.DG>
-10.3658

> <Gold.Chemscore.ZeroCoef>
-5.4800

> <Gold.Chemscore.Hbond>
0.0000

> <Gold.Chemscore.Metal>
0.0000

> <Gold.Chemscore.Lipo>
96.2015

> <Gold.Chemscore.Internal_Hbond>
0.0000

> <Gold.Chemscore.DEClash>
0.0073

> <Gold.Chemscore.DEInternal>
1.6689

> <Gold.Chemscore.Rot>
2.4882

> <Gold.Chemscore.Internal.Correction>
   9.000000E+99

> <Gold.Chemscore.Hbond.Weighted>
-0.0000

> <Gold.Chemscore.Metal.Weighted>
-0.0000

> <Gold.Chemscore.Lipo.Weighted>
-11.2556

> <Gold.Chemscore.Internal_Hbond.Weighted>
0.0000

> <Gold.Chemscore.DEClash.Weighted>
0.0073

> <Gold.Chemscore.DEInternal.Weighted>
1.6689

> <Gold.Chemscore.Rot.Weighted>
6.3697

> <Gold.Chemscore.Internal.Correction.Weighted>
   9.000000E+99

> <Gold.Protein.RotatedTorsions>
[ 6907 6896 6895 6894 ] final   -5.57 input  -60.11 | X-H torsion
[ 7974 7965 7964 7962 ] final  150.17 input  175.53 | X-H torsion
[ 8008 7997 7996 7995 ] final  -30.83 input   59.86 | X-H torsion
[ 10167 10162 10161 10158 ] final -158.62 input  -65.29 | X-H torsion
[ 10718 10713 10712 10709 ] final  -50.26 input   66.30 | X-H torsion
[ 10763 10752 10751 10750 ] final  -65.67 input  -60.55 | X-H torsion
[ 11005 11000 10999 10996 ] final  -77.25 input  -57.11 | X-H torsion

> <Gold.Protein.ActiveResidues>
 VAL166  LYS551  ARG553  GLY616  TRP617  ASP618  TYR619  PRO620  LYS621  CYS622 
 ASP623  PHE694  ASN695  SER759  ASP760  ASP761  ALA762  ILE779  LEU786  VAL792 
 PHE793  MET794  SER795  GLU796  ALA797  LYS798  CYS799  TRP800  GLU811  SER814 

> <Gold.Protein.RotatedAtoms>
  151.4794  135.1051  159.9773 H   0  0  0  0  0  0  0  0  0  0  0  0  # atno 6907 bound_to 6896
  152.4785  133.8192  159.7055 H   0  0  0  0  0  0  0  0  0  0  0  0  # atno 6908 bound_to 6896
  150.8840  133.7272  159.2950 H   0  0  0  0  0  0  0  0  0  0  0  0  # atno 6909 bound_to 6896
  144.8383  139.6374  143.6028 H   0  0  0  0  0  0  0  0  0  0  0  0  # atno 7974 bound_to 7965
  154.4236  140.1780  156.1470 H   0  0  0  0  0  0  0  0  0  0  0  0  # atno 8008 bound_to 7997
  155.9946  140.3366  155.6761 H   0  0  0  0  0  0  0  0  0  0  0  0  # atno 8009 bound_to 7997
  155.6326  140.0671  157.2635 H   0  0  0  0  0  0  0  0  0  0  0  0  # atno 8010 bound_to 7997
  139.6678  143.9799  152.2265 H   0  0  0  0  0  0  0  0  0  0  0  0  # atno 10167 bound_to 10162
  156.1817  130.4150  149.9498 H   0  0  0  0  0  0  0  0  0  0  0  0  # atno 10718 bound_to 10713
  154.3485  135.6141  153.5631 H   0  0  0  0  0  0  0  0  0  0  0  0  # atno 10763 bound_to 10752
  152.9799  135.5786  154.4771 H   0  0  0  0  0  0  0  0  0  0  0  0  # atno 10764 bound_to 10752
  154.4488  135.2852  155.1773 H   0  0  0  0  0  0  0  0  0  0  0  0  # atno 10765 bound_to 10752
  141.1659  133.7015  156.7792 H   0  0  0  0  0  0  0  0  0  0  0  0  # atno 11005 bound_to 11000
  146.2679  139.6565  142.9316 LP  0  0  0  0  0  0  0  0  0  0  0  0  # atno 17320 bound_to 7965
  145.4747  141.0437  143.2679 LP  0  0  0  0  0  0  0  0  0  0  0  0  # atno 17321 bound_to 7965
  139.9555  144.6592  150.8130 LP  0  0  0  0  0  0  0  0  0  0  0  0  # atno 17342 bound_to 10162
  140.7606  143.3155  151.2744 LP  0  0  0  0  0  0  0  0  0  0  0  0  # atno 17343 bound_to 10162
  156.7266  130.9027  151.3622 LP  0  0  0  0  0  0  0  0  0  0  0  0  # atno 17370 bound_to 10713
  157.6872  130.9197  150.0418 LP  0  0  0  0  0  0  0  0  0  0  0  0  # atno 17371 bound_to 10713
  140.2407  134.8616  157.3570 LP  0  0  0  0  0  0  0  0  0  0  0  0  # atno 17394 bound_to 11000
  140.1799  134.4503  155.7778 LP  0  0  0  0  0  0  0  0  0  0  0  0  # atno 17395 bound_to 11000

$$$$
