AV-unprocessed.smi:2881|AV-procd|sdf|11057|dock9
  -GOLD-   2272015523D 1   1.00000     0.00000
 Structure written by MMmdl.
 40 42  0  0  0  0  0  0  0  0  1 V2000
  147.0170  139.6217  153.3910 C   0  0  0  0  0  0  0  0  0  0  0  0
  148.2936  139.7319  154.1530 C   0  0  0  0  0  0  0  0  0  0  0  0
  148.5928  139.4627  155.4584 C   0  0  0  0  0  0  0  0  0  0  0  0
  149.9821  139.7650  155.5725 C   0  0  0  0  0  0  0  0  0  0  0  0
  150.8577  139.6485  156.7915 C   0  0  0  0  0  0  0  0  0  0  0  0
  150.4595  140.6993  157.8286 C   0  0  0  0  0  0  0  0  0  0  0  0
  149.2747  140.8611  158.1205 O   0  0  0  0  0  0  0  0  0  0  0  0
  151.4594  141.4068  158.3756 N   0  0  0  0  0  0  0  0  0  0  0  0
  151.2983  142.4269  159.4080 C   0  0  2  0  0  0  0  0  0  0  0  0
  150.6734  143.7473  158.8897 C   0  0  2  0  0  0  0  0  0  0  0  0
  151.4183  144.2758  157.6451 C   0  0  0  0  0  0  0  0  0  0  0  0
  152.7699  144.7274  158.2288 C   0  0  0  0  0  0  0  0  0  0  0  0
  152.6117  144.4230  159.7316 C   0  0  1  0  0  0  0  0  0  0  0  0
  151.1362  144.7383  159.9501 C   0  0  0  0  0  0  0  0  0  0  0  0
  152.6728  142.8939  159.9560 C   0  0  1  0  0  0  0  0  0  0  0  0
  152.9053  142.5125  161.4307 C   0  0  0  0  0  0  0  0  0  0  0  0
  151.7699  142.8427  162.2030 O   0  0  0  0  0  0  0  0  0  0  0  0
  150.4999  140.1955  154.4299 N   0  0  0  0  0  0  0  0  0  0  0  0
  149.4621  140.1691  153.5733 N   0  0  0  0  0  0  0  0  0  0  0  0
  149.5644  140.4486  152.6080 H   0  0  0  0  0  0  0  0  0  0  0  0
  146.2674  139.0752  153.9638 H   0  0  0  0  0  0  0  0  0  0  0  0
  147.1706  139.0943  152.4493 H   0  0  0  0  0  0  0  0  0  0  0  0
  146.6148  140.6094  153.1657 H   0  0  0  0  0  0  0  0  0  0  0  0
  147.9211  139.0978  156.2215 H   0  0  0  0  0  0  0  0  0  0  0  0
  150.7836  138.6550  157.2367 H   0  0  0  0  0  0  0  0  0  0  0  0
  151.9045  139.7879  156.5183 H   0  0  0  0  0  0  0  0  0  0  0  0
  152.4029  141.2019  158.0792 H   0  0  0  0  0  0  0  0  0  0  0  0
  150.6842  142.0268  160.2173 H   0  0  0  0  0  0  0  0  0  0  0  0
  149.5921  143.6946  158.7584 H   0  0  0  0  0  0  0  0  0  0  0  0
  151.5280  143.5333  156.8548 H   0  0  0  0  0  0  0  0  0  0  0  0
  150.8879  145.1276  157.2177 H   0  0  0  0  0  0  0  0  0  0  0  0
  153.6137  144.1998  157.7829 H   0  0  0  0  0  0  0  0  0  0  0  0
  152.9197  145.7949  158.0620 H   0  0  0  0  0  0  0  0  0  0  0  0
  153.3012  144.9894  160.3584 H   0  0  0  0  0  0  0  0  0  0  0  0
  150.8757  145.7730  159.7202 H   0  0  0  0  0  0  0  0  0  0  0  0
  150.7794  144.4980  160.9525 H   0  0  0  0  0  0  0  0  0  0  0  0
  153.4960  142.4823  159.3686 H   0  0  0  0  0  0  0  0  0  0  0  0
  153.0801  141.4400  161.5212 H   0  0  0  0  0  0  0  0  0  0  0  0
  153.7795  143.0171  161.8421 H   0  0  0  0  0  0  0  0  0  0  0  0
  151.8430  143.7446  162.4757 H   0  0  0  0  0  0  0  0  0  0  0  0
  1  2  1  0  0  0  0
  1 21  1  0  0  0  0
  1 22  1  0  0  0  0
  1 23  1  0  0  0  0
  2 19  1  0  0  0  0
  2  3  2  0  0  0  0
  3  4  1  0  0  0  0
  3 24  1  0  0  0  0
  4  5  1  0  0  0  0
  4 18  2  0  0  0  0
  5  6  1  0  0  0  0
  5 25  1  0  0  0  0
  5 26  1  0  0  0  0
  6  7  2  0  0  0  0
  6  8  1  0  0  0  0
  8  9  1  0  0  0  0
  8 27  1  0  0  0  0
  9 15  1  0  0  0  0
  9 10  1  0  0  0  0
  9 28  1  0  0  0  0
 10 14  1  0  0  0  0
 10 11  1  0  0  0  0
 10 29  1  0  0  0  0
 11 12  1  0  0  0  0
 11 30  1  0  0  0  0
 11 31  1  0  0  0  0
 12 13  1  0  0  0  0
 12 32  1  0  0  0  0
 12 33  1  0  0  0  0
 13 14  1  0  0  0  0
 13 15  1  0  0  0  0
 13 34  1  0  0  0  0
 14 35  1  0  0  0  0
 14 36  1  0  0  0  0
 15 16  1  0  0  0  0
 15 37  1  0  0  0  0
 16 17  1  0  0  0  0
 16 38  1  0  0  0  0
 16 39  1  0  0  0  0
 17 40  1  0  0  0  0
 18 19  1  0  0  0  0
 19 20  1  0  0  0  0
M  END
> <s_m_source_file>
AV-unprocessed.smi

> <i_m_source_file_index>
2881

> <i_lp_mmshare_version>
43012

> <i_f3d_flags>
0

> <s_epik_input>
W0NIM11jMVtjSF1jKG5bbkhdMSlbQ0gyXUMoPU8pW05IXVtDQEhdKFtDQEBIXTIzKVtDQEhdKFtDSDJdW09IXSlbQ0BASF0oW0NIMl0zKVtDSDJdW0NIMl0y

> <s_epik_cmdline>
J2VwaWtfcHl0aG9uJywgJy1waCcsICc3LjAnLCAnLXRuJywgJzgnLCAnLW1hJywgJzIwMCcsICctbWV0YWxfYmluZGluZycsICctaW1hZScsICc8aW5maWxlLm1hZT4nLCAnLW9tYWUnLCAnPG91dGZpbGUubWFlPic=

> <r_lp_tautomer_probability>
0.5

> <r_epik_Ionization_Penalty>
9.4349e-05

> <r_epik_Ionization_Penalty_Charging>
0

> <r_epik_Ionization_Penalty_Neutral>
9.4349e-05

> <r_epik_State_Penalty>
0.41068

> <r_epik_Charging_Adjusted_Penalty>
0.41068

> <i_epik_Tot_Q>
0

> <i_epik_Tot_abs_Q>
0

> <r_epik_Metal_State_Penalty>
0.4107

> <b_epik_Metal_Only>
0

> <s_lp_Force_Field>
OPLS_2005

> <r_lp_Energy>
47.2373

> <b_lp_Chiralities_Consistent>
1

> <s_lp_Variant>
AV-unprocessed.smi:2881-3

> <Gold.Version>
5.8.1

> <Gold.Id.Protein>
6NUR|6NUR_protein|mol2

> <Gold.PLP.Fitness>
46.9760

> <Gold.PLP.PLP>
-39.2228

> <Gold.PLP.part.hbond>
-3.6181

> <Gold.PLP.part.metal>
0.0000

> <Gold.PLP.part.buried>
-7.3490

> <Gold.PLP.part.nonpolar>
-30.8407

> <Gold.PLP.part.repulsive>
1.2970

> <Gold.PLP.ligand.clash>
0.0000

> <Gold.PLP.ligand.torsion>
0.3833

> <Gold.PLP.Chemscore.Hbond>
2.8320

> <Gold.PLP.Chemscore.CHOScore>
0.0000

> <Gold.PLP.Chemscore.Metal>
0.0000

> <Gold.Chemscore.Hbonds>
donor molecule, donor type, donor heavy atom, donor atom, acceptor molecule, acceptor atom, score
      L1  H    19    20       P1  7957  0.90
      P1  H  6933  6945       L1    17  0.93
      P1  H  7989  7998       L1    18  1.00

> <Gold.PLP.Chemscore.Internal.Correction>
0.0238

> <Gold.Rescore>
     Score         DG    S(hbond)    S(metal)    S(lipo)     H(rot)  DE(clash)    DE(int)     intcor
     19.35     -20.79       2.46        0.00     110.47       2.28       0.06       1.38       ----

> <Gold.Chemscore.Fitness>
19.3527

> <Gold.Chemscore.DG>
-20.7860

> <Gold.Chemscore.ZeroCoef>
-5.4800

> <Gold.Chemscore.Hbond>
2.4570

> <Gold.Chemscore.Metal>
0.0000

> <Gold.Chemscore.Lipo>
110.4687

> <Gold.Chemscore.Internal_Hbond>
0.0000

> <Gold.Chemscore.DEClash>
0.0571

> <Gold.Chemscore.DEInternal>
1.3762

> <Gold.Chemscore.Rot>
2.2755

> <Gold.Chemscore.Internal.Correction>
   9.000000E+99

> <Gold.Chemscore.Hbonds>
donor molecule, donor type, donor heavy atom, donor atom, acceptor molecule, acceptor atom, score
      L1  H    19    20       P1  7957  0.83
      P1  H  6933  6945       L1    17  0.83
      P1  H  7989  7998       L1    18  0.25

> <Gold.Chemscore.Hbond.Weighted>
-8.2064

> <Gold.Chemscore.Metal.Weighted>
-0.0000

> <Gold.Chemscore.Lipo.Weighted>
-12.9248

> <Gold.Chemscore.Internal_Hbond.Weighted>
0.0000

> <Gold.Chemscore.DEClash.Weighted>
0.0571

> <Gold.Chemscore.DEInternal.Weighted>
1.3762

> <Gold.Chemscore.Rot.Weighted>
5.8252

> <Gold.Chemscore.Internal.Correction.Weighted>
   9.000000E+99

> <Gold.Protein.RotatedTorsions>
[ 6907 6896 6895 6894 ] final  -83.35 input  -60.11 | X-H torsion
[ 7974 7965 7964 7962 ] final  165.97 input  175.53 | X-H torsion
[ 8008 7997 7996 7995 ] final -108.44 input   59.86 | X-H torsion
[ 10167 10162 10161 10158 ] final  143.13 input  -65.29 | X-H torsion
[ 10718 10713 10712 10709 ] final  -89.78 input   66.30 | X-H torsion
[ 10763 10752 10751 10750 ] final  -69.00 input  -60.55 | X-H torsion
[ 11005 11000 10999 10996 ] final   14.60 input  -57.11 | X-H torsion

> <Gold.Protein.ActiveResidues>
 VAL166  LYS551  ARG553  GLY616  TRP617  ASP618  TYR619  PRO620  LYS621  CYS622 
 ASP623  PHE694  ASN695  SER759  ASP760  ASP761  ALA762  ILE779  LEU786  VAL792 
 PHE793  MET794  SER795  GLU796  ALA797  LYS798  CYS799  TRP800  GLU811  SER814 

> <Gold.Protein.RotatedAtoms>
  150.6886  134.3526  159.4915 H   0  0  0  0  0  0  0  0  0  0  0  0  # atno 6907 bound_to 6896
  152.1365  134.9092  160.0565 H   0  0  0  0  0  0  0  0  0  0  0  0  # atno 6908 bound_to 6896
  152.0242  133.3876  159.4307 H   0  0  0  0  0  0  0  0  0  0  0  0  # atno 6909 bound_to 6896
  144.7481  139.8548  143.6375 H   0  0  0  0  0  0  0  0  0  0  0  0  # atno 7974 bound_to 7965
  154.9443  140.0402  157.2112 H   0  0  0  0  0  0  0  0  0  0  0  0  # atno 8008 bound_to 7997
  154.8039  140.2856  155.5880 H   0  0  0  0  0  0  0  0  0  0  0  0  # atno 8009 bound_to 7997
  156.2964  140.2550  156.2912 H   0  0  0  0  0  0  0  0  0  0  0  0  # atno 8010 bound_to 7997
  139.4977  144.6061  151.6376 H   0  0  0  0  0  0  0  0  0  0  0  0  # atno 10167 bound_to 10162
  155.9985  130.4885  150.5222 H   0  0  0  0  0  0  0  0  0  0  0  0  # atno 10718 bound_to 10713
  154.3971  135.6039  153.5876 H   0  0  0  0  0  0  0  0  0  0  0  0  # atno 10763 bound_to 10752
  152.9788  135.5897  154.4228 H   0  0  0  0  0  0  0  0  0  0  0  0  # atno 10764 bound_to 10752
  154.4021  135.2843  155.2068 H   0  0  0  0  0  0  0  0  0  0  0  0  # atno 10765 bound_to 10752
  140.4677  134.1062  155.7727 H   0  0  0  0  0  0  0  0  0  0  0  0  # atno 11005 bound_to 11000
  146.1390  139.4443  143.0120 LP  0  0  0  0  0  0  0  0  0  0  0  0  # atno 17320 bound_to 7965
  145.7047  141.0125  143.1485 LP  0  0  0  0  0  0  0  0  0  0  0  0  # atno 17321 bound_to 7965
  140.5723  144.0088  150.6223 LP  0  0  0  0  0  0  0  0  0  0  0  0  # atno 17342 bound_to 10162
  140.3209  143.3137  152.0784 LP  0  0  0  0  0  0  0  0  0  0  0  0  # atno 17343 bound_to 10162
  157.3182  131.0677  151.1951 LP  0  0  0  0  0  0  0  0  0  0  0  0  # atno 17370 bound_to 10713
  157.2873  130.6779  149.6096 LP  0  0  0  0  0  0  0  0  0  0  0  0  # atno 17371 bound_to 10713
  141.1591  133.8826  157.1896 LP  0  0  0  0  0  0  0  0  0  0  0  0  # atno 17394 bound_to 11000
  139.9905  135.0066  156.9963 LP  0  0  0  0  0  0  0  0  0  0  0  0  # atno 17395 bound_to 11000

$$$$
