AV-unprocessed.smi:2164|AV-procd|sdf|8808|dock7
  -GOLD-   2272011593D 1   1.00000     0.00000
 Structure written by MMmdl.
 39 41  0  0  0  0  0  0  0  0  1 V2000
  145.3978  131.0332  152.0258 O   0  0  0  0  0  0  0  0  0  0  0  0
  146.3780  131.7551  151.8349 C   0  0  0  0  0  0  0  0  0  0  0  0
  146.6475  132.2833  150.6274 N   0  0  0  0  0  0  0  0  0  0  0  0
  145.8342  132.1264  149.4234 C   0  0  0  0  0  0  0  0  0  0  0  0
  144.3356  132.3596  149.6970 C   0  0  0  0  0  0  0  0  0  0  0  0
  144.0624  133.5284  150.6278 C   0  0  0  0  0  0  0  0  0  0  0  0
  143.2054  133.3820  151.7379 C   0  0  0  0  0  0  0  0  0  0  0  0
  143.0084  134.4840  152.5922 C   0  0  0  0  0  0  0  0  0  0  0  0
  143.6787  135.6884  152.2985 C   0  0  0  0  0  0  0  0  0  0  0  0
  144.4987  135.8414  151.2366 N   0  0  0  0  0  0  0  0  0  0  0  0
  144.6801  134.7807  150.4212 C   0  0  0  0  0  0  0  0  0  0  0  0
  147.3379  132.1371  152.8727 C   0  0  0  0  0  0  0  0  0  0  0  0
  147.1525  131.7186  154.1391 C   0  0  0  0  0  0  0  0  0  0  0  0
  148.0145  132.0350  155.1911 N   0  0  0  0  0  0  0  0  0  0  0  0
  147.6427  131.6080  156.5346 C   0  0  0  0  0  0  0  0  0  0  0  0
  148.8632  131.0906  157.2784 C   0  0  0  0  0  0  0  0  0  0  0  0
  150.0136  132.5100  157.4322 S   0  0  0  0  0  0  0  0  0  0  0  0
  149.3348  133.5643  158.2018 O   0  0  0  0  0  0  0  0  0  0  0  0
  151.3104  131.9976  157.8997 O   0  0  0  0  0  0  0  0  0  0  0  0
  150.1349  132.9904  155.8303 N   0  0  0  0  0  0  0  0  0  0  0  0
  149.2061  132.7653  154.9513 C   0  0  0  0  0  0  0  0  0  0  0  0
  149.3850  133.2588  153.5951 C   0  0  0  0  0  0  0  0  0  0  0  0
  148.5086  132.9644  152.6127 C   0  0  0  0  0  0  0  0  0  0  0  0
  147.4686  132.8647  150.5439 H   0  0  0  0  0  0  0  0  0  0  0  0
  146.1843  132.8451  148.6822 H   0  0  0  0  0  0  0  0  0  0  0  0
  145.9854  131.1403  148.9810 H   0  0  0  0  0  0  0  0  0  0  0  0
  143.8129  132.5264  148.7544 H   0  0  0  0  0  0  0  0  0  0  0  0
  143.8979  131.4593  150.1295 H   0  0  0  0  0  0  0  0  0  0  0  0
  142.7159  132.4401  151.9381 H   0  0  0  0  0  0  0  0  0  0  0  0
  142.3628  134.4072  153.4544 H   0  0  0  0  0  0  0  0  0  0  0  0
  143.5533  136.5522  152.9345 H   0  0  0  0  0  0  0  0  0  0  0  0
  145.3507  134.9324  149.5882 H   0  0  0  0  0  0  0  0  0  0  0  0
  146.3106  131.1037  154.4257 H   0  0  0  0  0  0  0  0  0  0  0  0
  147.1899  132.4453  157.0666 H   0  0  0  0  0  0  0  0  0  0  0  0
  146.8904  130.8196  156.4935 H   0  0  0  0  0  0  0  0  0  0  0  0
  148.6074  130.7376  158.2772 H   0  0  0  0  0  0  0  0  0  0  0  0
  149.3564  130.2803  156.7405 H   0  0  0  0  0  0  0  0  0  0  0  0
  150.2366  133.8700  153.3333 H   0  0  0  0  0  0  0  0  0  0  0  0
  148.7047  133.3610  151.6275 H   0  0  0  0  0  0  0  0  0  0  0  0
  1  2  2  0  0  0  0
  2  3  1  0  0  0  0
  2 12  1  0  0  0  0
  3  4  1  0  0  0  0
  3 24  1  0  0  0  0
  4  5  1  0  0  0  0
  4 25  1  0  0  0  0
  4 26  1  0  0  0  0
  5  6  1  0  0  0  0
  5 27  1  0  0  0  0
  5 28  1  0  0  0  0
  6 11  1  0  0  0  0
  6  7  2  0  0  0  0
  7  8  1  0  0  0  0
  7 29  1  0  0  0  0
  8  9  2  0  0  0  0
  8 30  1  0  0  0  0
  9 10  1  0  0  0  0
  9 31  1  0  0  0  0
 10 11  2  0  0  0  0
 11 32  1  0  0  0  0
 12 23  1  0  0  0  0
 12 13  2  0  0  0  0
 13 14  1  0  0  0  0
 13 33  1  0  0  0  0
 14 21  1  0  0  0  0
 14 15  1  0  0  0  0
 15 16  1  0  0  0  0
 15 34  1  0  0  0  0
 15 35  1  0  0  0  0
 16 17  1  0  0  0  0
 16 36  1  0  0  0  0
 16 37  1  0  0  0  0
 17 18  2  0  0  0  0
 17 19  2  0  0  0  0
 17 20  1  0  0  0  0
 20 21  2  0  0  0  0
 21 22  1  0  0  0  0
 22 23  2  0  0  0  0
 22 38  1  0  0  0  0
 23 39  1  0  0  0  0
M  END
> <s_m_source_file>
AV-unprocessed.smi

> <i_m_source_file_index>
2164

> <i_lp_mmshare_version>
43012

> <i_f3d_flags>
0

> <s_epik_input>
W0NIMl0xW0NIMl1TKD1PKSg9TylOPUMoTjEyKVtDSF09W0NIXUMoPVtDSF0yKUMoPU8pW05IXVtDSDJdW0NIMl1jM1tjSF1bY0hdW2NIXW5bY0hdMw==

> <s_epik_cmdline>
J2VwaWtfcHl0aG9uJywgJy1waCcsICc3LjAnLCAnLXRuJywgJzgnLCAnLW1hJywgJzIwMCcsICctbWV0YWxfYmluZGluZycsICctaW1hZScsICc8aW5maWxlLm1hZT4nLCAnLW9tYWUnLCAnPG91dGZpbGUubWFlPic=

> <r_epik_Ionization_Penalty>
0.0095026

> <r_epik_Ionization_Penalty_Charging>
4.80604e-09

> <r_epik_Ionization_Penalty_Neutral>
0.00950259

> <r_epik_State_Penalty>
0.0071398

> <r_epik_Charging_Adjusted_Penalty>
0.0071398

> <i_epik_Tot_Q>
0

> <i_epik_Tot_abs_Q>
0

> <r_epik_Metal_State_Penalty>
0.0838865

> <b_epik_Metal_Only>
0

> <s_lp_Force_Field>
OPLS_2005

> <r_lp_Energy>
19.9083

> <b_lp_Chiralities_Consistent>
1

> <s_lp_Variant>
AV-unprocessed.smi:2164-1

> <Gold.Version>
5.8.1

> <Gold.Id.Protein>
6NUR|6NUR_protein|mol2

> <Gold.PLP.Fitness>
40.8740

> <Gold.PLP.PLP>
-35.5816

> <Gold.PLP.part.hbond>
-2.9825

> <Gold.PLP.part.metal>
0.0000

> <Gold.PLP.part.buried>
-2.9550

> <Gold.PLP.part.nonpolar>
-29.3514

> <Gold.PLP.part.repulsive>
0.4715

> <Gold.PLP.ligand.clash>
0.0000

> <Gold.PLP.ligand.torsion>
0.2807

> <Gold.PLP.Chemscore.Hbond>
0.9500

> <Gold.PLP.Chemscore.CHOScore>
1.0000

> <Gold.PLP.Chemscore.Metal>
0.0000

> <Gold.Chemscore.Hbonds>
donor molecule, donor type, donor heavy atom, donor atom, acceptor molecule, acceptor atom, score
      P1  H  6896  6907       L1    18  0.70
      L1  C    11    32       P1  7921  1.00

> <Gold.PLP.Chemscore.Internal.Correction>
0.0038

> <Gold.Rescore>
     Score         DG    S(hbond)    S(metal)    S(lipo)     H(rot)  DE(clash)    DE(int)     intcor
     11.41     -13.01       0.99        0.00      68.34       1.47       0.09       1.50       ----

> <Gold.Chemscore.Fitness>
11.4120

> <Gold.Chemscore.DG>
-13.0081

> <Gold.Chemscore.ZeroCoef>
-5.4800

> <Gold.Chemscore.Hbond>
0.9851

> <Gold.Chemscore.Metal>
0.0000

> <Gold.Chemscore.Lipo>
68.3388

> <Gold.Chemscore.Internal_Hbond>
0.0000

> <Gold.Chemscore.DEClash>
0.0935

> <Gold.Chemscore.DEInternal>
1.5025

> <Gold.Chemscore.Rot>
1.4679

> <Gold.Chemscore.Internal.Correction>
   9.000000E+99

> <Gold.Chemscore.Hbonds>
donor molecule, donor type, donor heavy atom, donor atom, acceptor molecule, acceptor atom, score
      P1  H  6896  6907       L1    18  0.07

> <Gold.Chemscore.Hbond.Weighted>
-3.2902

> <Gold.Chemscore.Metal.Weighted>
-0.0000

> <Gold.Chemscore.Lipo.Weighted>
-7.9956

> <Gold.Chemscore.Internal_Hbond.Weighted>
0.0000

> <Gold.Chemscore.DEClash.Weighted>
0.0935

> <Gold.Chemscore.DEInternal.Weighted>
1.5025

> <Gold.Chemscore.Rot.Weighted>
3.7578

> <Gold.Chemscore.Internal.Correction.Weighted>
   9.000000E+99

> <Gold.Protein.RotatedTorsions>
[ 6907 6896 6895 6894 ] final -115.25 input  -60.11 | X-H torsion
[ 7974 7965 7964 7962 ] final -130.21 input  175.53 | X-H torsion
[ 8008 7997 7996 7995 ] final  -21.89 input   59.86 | X-H torsion
[ 10167 10162 10161 10158 ] final  114.86 input  -65.29 | X-H torsion
[ 10718 10713 10712 10709 ] final  -92.44 input   66.30 | X-H torsion
[ 10763 10752 10751 10750 ] final  127.90 input  -60.55 | X-H torsion
[ 11005 11000 10999 10996 ] final   31.85 input  -57.11 | X-H torsion

> <Gold.Protein.ActiveResidues>
 VAL166  LYS551  ARG553  GLY616  TRP617  ASP618  TYR619  PRO620  LYS621  CYS622 
 ASP623  PHE694  ASN695  SER759  ASP760  ASP761  ALA762  ILE779  LEU786  VAL792 
 PHE793  MET794  SER795  GLU796  ALA797  LYS798  CYS799  TRP800  GLU811  SER814 

> <Gold.Protein.RotatedAtoms>
  150.7964  133.8684  159.3251 H   0  0  0  0  0  0  0  0  0  0  0  0  # atno 6907 bound_to 6896
  151.6508  135.1000  160.0170 H   0  0  0  0  0  0  0  0  0  0  0  0  # atno 6908 bound_to 6896
  152.4046  133.6830  159.6380 H   0  0  0  0  0  0  0  0  0  0  0  0  # atno 6909 bound_to 6896
  144.9497  140.7331  143.4795 H   0  0  0  0  0  0  0  0  0  0  0  0  # atno 7974 bound_to 7965
  154.4677  140.2022  156.0075 H   0  0  0  0  0  0  0  0  0  0  0  0  # atno 8008 bound_to 7997
  156.0956  140.3251  155.7844 H   0  0  0  0  0  0  0  0  0  0  0  0  # atno 8009 bound_to 7997
  155.4883  140.0544  157.2948 H   0  0  0  0  0  0  0  0  0  0  0  0  # atno 8010 bound_to 7997
  139.6358  144.7119  151.2337 H   0  0  0  0  0  0  0  0  0  0  0  0  # atno 10167 bound_to 10162
  156.0002  130.4987  150.5625 H   0  0  0  0  0  0  0  0  0  0  0  0  # atno 10718 bound_to 10713
  153.7169  135.3259  155.3258 H   0  0  0  0  0  0  0  0  0  0  0  0  # atno 10763 bound_to 10752
  154.8368  135.4490  154.1257 H   0  0  0  0  0  0  0  0  0  0  0  0  # atno 10764 bound_to 10752
  153.2366  135.6966  153.7909 H   0  0  0  0  0  0  0  0  0  0  0  0  # atno 10765 bound_to 10752
  140.2796  134.2989  155.7804 H   0  0  0  0  0  0  0  0  0  0  0  0  # atno 11005 bound_to 11000
  145.2863  139.1900  143.4764 LP  0  0  0  0  0  0  0  0  0  0  0  0  # atno 17320 bound_to 7965
  146.3316  140.2833  142.8611 LP  0  0  0  0  0  0  0  0  0  0  0  0  # atno 17321 bound_to 7965
  140.7465  143.6398  150.8345 LP  0  0  0  0  0  0  0  0  0  0  0  0  # atno 17342 bound_to 10162
  140.0029  143.5725  152.2868 LP  0  0  0  0  0  0  0  0  0  0  0  0  # atno 17343 bound_to 10162
  157.3532  131.0737  151.1696 LP  0  0  0  0  0  0  0  0  0  0  0  0  # atno 17370 bound_to 10713
  157.2506  130.6612  149.5929 LP  0  0  0  0  0  0  0  0  0  0  0  0  # atno 17371 bound_to 10713
  141.2165  133.7517  156.9459 LP  0  0  0  0  0  0  0  0  0  0  0  0  # atno 17394 bound_to 11000
  140.1296  134.9364  157.2319 LP  0  0  0  0  0  0  0  0  0  0  0  0  # atno 17395 bound_to 11000

$$$$
