AV-unprocessed.smi:869|AV-procd|sdf|4005|dock9
  -GOLD-   22720 1493D 1   1.00000     0.00000
 Structure written by MMmdl.
 47 49  0  0  0  0  0  0  0  0  2 V2000
  150.8130  138.7624  154.6683 C   0  0  0  0  0  0  0  0  0  0  0  0
  150.3571  140.0863  154.4518 O   0  0  0  0  0  0  0  0  0  0  0  0
  149.5014  140.5418  155.4871 C   0  0  0  0  0  0  0  0  0  0  0  0
  150.2690  141.1116  156.6346 C   0  0  0  0  0  0  0  0  0  0  0  0
  150.3518  142.4299  156.9715 N   0  3  0  0  0  0  0  0  0  0  0  0
  151.1577  142.5798  158.1003 C   0  0  0  0  0  0  0  0  0  0  0  0
  151.5313  143.7186  158.8073 C   0  0  0  0  0  0  0  0  0  0  0  0
  152.3681  143.5228  159.9256 C   0  0  0  0  0  0  0  0  0  0  0  0
  152.7996  142.2346  160.3028 C   0  0  0  0  0  0  0  0  0  0  0  0
  152.4149  141.0879  159.5773 C   0  0  0  0  0  0  0  0  0  0  0  0
  151.5887  141.2896  158.4716 C   0  0  0  0  0  0  0  0  0  0  0  0
  151.0166  140.4162  157.5383 N   0  0  0  0  0  0  0  0  0  0  0  0
  151.2698  138.9699  157.6394 C   0  0  0  0  0  0  0  0  0  0  0  0
  150.7478  138.3603  158.9564 C   0  0  2  0  0  0  0  0  0  0  0  0
  151.5650  137.2757  159.3495 O   0  0  0  0  0  0  0  0  0  0  0  0
  149.3018  137.8580  158.8362 C   0  0  0  0  0  0  0  0  0  0  0  0
  148.7425  137.7432  160.1378 O   0  0  0  0  0  0  0  0  0  0  0  0
  148.1911  136.5349  160.5067 C   0  0  0  0  0  0  0  0  0  0  0  0
  147.7259  136.4220  161.8330 C   0  0  0  0  0  0  0  0  0  0  0  0
  147.1505  135.2235  162.2967 C   0  0  0  0  0  0  0  0  0  0  0  0
  147.0341  134.1157  161.4347 C   0  0  0  0  0  0  0  0  0  0  0  0
  146.4141  132.8260  161.9312 C   0  0  0  0  0  0  0  0  0  0  0  0
  147.4935  134.2172  160.1067 C   0  0  0  0  0  0  0  0  0  0  0  0
  148.0685  135.4168  159.6434 C   0  0  0  0  0  0  0  0  0  0  0  0
  151.4727  138.4640  153.8535 H   0  0  0  0  0  0  0  0  0  0  0  0
  149.9796  138.0593  154.7012 H   0  0  0  0  0  0  0  0  0  0  0  0
  151.3737  138.6850  155.6007 H   0  0  0  0  0  0  0  0  0  0  0  0
  148.8262  141.3074  155.1020 H   0  0  0  0  0  0  0  0  0  0  0  0
  148.8891  139.7167  155.8532 H   0  0  0  0  0  0  0  0  0  0  0  0
  151.2000  144.7059  158.5211 H   0  0  0  0  0  0  0  0  0  0  0  0
  152.6835  144.3772  160.5067 H   0  0  0  0  0  0  0  0  0  0  0  0
  153.4371  142.1229  161.1678 H   0  0  0  0  0  0  0  0  0  0  0  0
  152.7461  140.1057  159.8803 H   0  0  0  0  0  0  0  0  0  0  0  0
  150.7755  138.4975  156.7898 H   0  0  0  0  0  0  0  0  0  0  0  0
  152.3351  138.7796  157.5094 H   0  0  0  0  0  0  0  0  0  0  0  0
  150.7984  139.1080  159.7485 H   0  0  0  0  0  0  0  0  0  0  0  0
  152.2192  137.1366  158.6815 H   0  0  0  0  0  0  0  0  0  0  0  0
  148.7164  138.5452  158.2227 H   0  0  0  0  0  0  0  0  0  0  0  0
  149.2931  136.8798  158.3520 H   0  0  0  0  0  0  0  0  0  0  0  0
  147.8107  137.2645  162.5034 H   0  0  0  0  0  0  0  0  0  0  0  0
  146.7999  135.1578  163.3164 H   0  0  0  0  0  0  0  0  0  0  0  0
  146.8086  131.9682  161.3856 H   0  0  0  0  0  0  0  0  0  0  0  0
  145.3327  132.8526  161.7956 H   0  0  0  0  0  0  0  0  0  0  0  0
  146.6250  132.6775  162.9907 H   0  0  0  0  0  0  0  0  0  0  0  0
  147.4067  133.3741  159.4370 H   0  0  0  0  0  0  0  0  0  0  0  0
  148.4093  135.4518  158.6201 H   0  0  0  0  0  0  0  0  0  0  0  0
  149.8857  143.1694  156.4619 H   0  0  0  0  0  0  0  0  0  0  0  0
  1  2  1  0  0  0  0
  1 25  1  0  0  0  0
  1 26  1  0  0  0  0
  1 27  1  0  0  0  0
  2  3  1  0  0  0  0
  3  4  1  0  0  0  0
  3 28  1  0  0  0  0
  3 29  1  0  0  0  0
  4 12  1  0  0  0  0
  4  5  2  0  0  0  0
  5  6  1  0  0  0  0
  5 47  1  0  0  0  0
  6 11  2  0  0  0  0
  6  7  1  0  0  0  0
  7  8  2  0  0  0  0
  7 30  1  0  0  0  0
  8  9  1  0  0  0  0
  8 31  1  0  0  0  0
  9 10  2  0  0  0  0
  9 32  1  0  0  0  0
 10 11  1  0  0  0  0
 10 33  1  0  0  0  0
 11 12  1  0  0  0  0
 12 13  1  0  0  0  0
 13 14  1  0  0  0  0
 13 34  1  0  0  0  0
 13 35  1  0  0  0  0
 14 15  1  0  0  0  0
 14 16  1  0  0  0  0
 14 36  1  0  0  0  0
 15 37  1  0  0  0  0
 16 17  1  0  0  0  0
 16 38  1  0  0  0  0
 16 39  1  0  0  0  0
 17 18  1  0  0  0  0
 18 24  1  0  0  0  0
 18 19  2  0  0  0  0
 19 20  1  0  0  0  0
 19 40  1  0  0  0  0
 20 21  2  0  0  0  0
 20 41  1  0  0  0  0
 21 22  1  0  0  0  0
 21 23  1  0  0  0  0
 22 42  1  0  0  0  0
 22 43  1  0  0  0  0
 22 44  1  0  0  0  0
 23 24  2  0  0  0  0
 23 45  1  0  0  0  0
 24 46  1  0  0  0  0
M  CHG  1   5   1
M  END
> <s_m_source_file>
AV-unprocessed.smi

> <i_m_source_file_index>
869

> <i_lp_mmshare_version>
43012

> <i_f3d_flags>
0

> <s_epik_input>
W2NIXTFbY0hdW2NIXVtjSF1jKGMxMiluKGMobjIpW0NIMl1PW0NIM10pW0NIMl1bQ0BIXShbT0hdKVtDSDJdT2MzW2NIXVtjSF1jKFtDSDNdKVtjSF1bY0hdMw==

> <s_epik_cmdline>
J2VwaWtfcHl0aG9uJywgJy1waCcsICc3LjAnLCAnLXRuJywgJzgnLCAnLW1hJywgJzIwMCcsICctbWV0YWxfYmluZGluZycsICctaW1hZScsICc8aW5maWxlLm1hZT4nLCAnLW9tYWUnLCAnPG91dGZpbGUubWFlPic=

> <r_lp_tautomer_probability>
1

> <r_epik_Ionization_Penalty>
1.5538

> <r_epik_Ionization_Penalty_Charging>
1.5538

> <r_epik_Ionization_Penalty_Neutral>
2.3993e-06

> <r_epik_State_Penalty>
1.64824

> <r_epik_Charging_Adjusted_Penalty>
3.20204

> <i_epik_Tot_Q>
1

> <i_epik_Tot_abs_Q>
1

> <r_epik_Metal_State_Penalty>
5.70315

> <b_epik_Metal_Only>
0

> <s_lp_Force_Field>
OPLS_2005

> <r_lp_Energy>
18.5065

> <b_lp_Chiralities_Consistent>
1

> <s_lp_Variant>
AV-unprocessed.smi:869-3

> <Gold.Version>
5.8.1

> <Gold.Id.Protein>
6NUR|6NUR_protein|mol2

> <Gold.PLP.Fitness>
59.1552

> <Gold.PLP.PLP>
-49.8156

> <Gold.PLP.part.hbond>
-4.5983

> <Gold.PLP.part.metal>
0.0000

> <Gold.PLP.part.buried>
-6.9595

> <Gold.PLP.part.nonpolar>
-39.7071

> <Gold.PLP.part.repulsive>
0.1335

> <Gold.PLP.ligand.clash>
0.0000

> <Gold.PLP.ligand.torsion>
1.2111

> <Gold.PLP.Chemscore.Hbond>
3.9024

> <Gold.PLP.Chemscore.CHOScore>
0.0000

> <Gold.PLP.Chemscore.Metal>
0.0000

> <Gold.Chemscore.Hbonds>
donor molecule, donor type, donor heavy atom, donor atom, acceptor molecule, acceptor atom, score
      L1  H     5    47       P1  8028  2.00
      P1  H  6896  6907       L1    15  0.42
      P1  H  6931  6943       L1    17  0.21
      P1  H  6934  6947       L1    17  0.18
      P1  H  7989  7998       L1     2  1.00

> <Gold.PLP.Chemscore.Internal.Correction>
0.0546

> <Gold.Rescore>
     Score         DG    S(hbond)    S(metal)    S(lipo)     H(rot)  DE(clash)    DE(int)     intcor
     20.57     -22.04       2.31        0.00     129.29       2.45       0.07       1.40       ----

> <Gold.Chemscore.Fitness>
20.5660

> <Gold.Chemscore.DG>
-22.0402

> <Gold.Chemscore.ZeroCoef>
-5.4800

> <Gold.Chemscore.Hbond>
2.3064

> <Gold.Chemscore.Metal>
0.0000

> <Gold.Chemscore.Lipo>
129.2937

> <Gold.Chemscore.Internal_Hbond>
0.0000

> <Gold.Chemscore.DEClash>
0.0718

> <Gold.Chemscore.DEInternal>
1.4024

> <Gold.Chemscore.Rot>
2.4494

> <Gold.Chemscore.Internal.Correction>
   9.000000E+99

> <Gold.Chemscore.Hbonds>
donor molecule, donor type, donor heavy atom, donor atom, acceptor molecule, acceptor atom, score
      L1  H     5    47       P1  8028  0.95
      P1  H  6896  6907       L1    15  0.04
      P1  H  6931  6943       L1    17  0.02
      P1  H  6934  6947       L1    17  0.04
      P1  H  7989  7998       L1     2  0.55

> <Gold.Chemscore.Hbond.Weighted>
-7.7033

> <Gold.Chemscore.Metal.Weighted>
-0.0000

> <Gold.Chemscore.Lipo.Weighted>
-15.1274

> <Gold.Chemscore.Internal_Hbond.Weighted>
0.0000

> <Gold.Chemscore.DEClash.Weighted>
0.0718

> <Gold.Chemscore.DEInternal.Weighted>
1.4024

> <Gold.Chemscore.Rot.Weighted>
6.2704

> <Gold.Chemscore.Internal.Correction.Weighted>
   9.000000E+99

> <Gold.Protein.RotatedTorsions>
[ 6907 6896 6895 6894 ] final   -3.93 input  -60.11 | X-H torsion
[ 7974 7965 7964 7962 ] final   81.38 input  175.53 | X-H torsion
[ 8008 7997 7996 7995 ] final  -97.39 input   59.86 | X-H torsion
[ 10167 10162 10161 10158 ] final   64.83 input  -65.29 | X-H torsion
[ 10718 10713 10712 10709 ] final   -1.54 input   66.30 | X-H torsion
[ 10763 10752 10751 10750 ] final  151.11 input  -60.55 | X-H torsion
[ 11005 11000 10999 10996 ] final -171.76 input  -57.11 | X-H torsion

> <Gold.Protein.ActiveResidues>
 VAL166  LYS551  ARG553  GLY616  TRP617  ASP618  TYR619  PRO620  LYS621  CYS622 
 ASP623  PHE694  ASN695  SER759  ASP760  ASP761  ALA762  ILE779  LEU786  VAL792 
 PHE793  MET794  SER795  GLU796  ALA797  LYS798  CYS799  TRP800  GLU811  SER814 

> <Gold.Protein.RotatedAtoms>
  151.5058  135.1063  159.9840 H   0  0  0  0  0  0  0  0  0  0  0  0  # atno 6907 bound_to 6896
  152.4682  133.7967  159.6941 H   0  0  0  0  0  0  0  0  0  0  0  0  # atno 6908 bound_to 6896
  150.8677  133.7487  159.2997 H   0  0  0  0  0  0  0  0  0  0  0  0  # atno 6909 bound_to 6896
  145.6389  139.2421  143.2042 H   0  0  0  0  0  0  0  0  0  0  0  0  # atno 7974 bound_to 7965
  154.7871  140.0463  157.1172 H   0  0  0  0  0  0  0  0  0  0  0  0  # atno 8008 bound_to 7997
  154.9635  140.3080  155.5000 H   0  0  0  0  0  0  0  0  0  0  0  0  # atno 8009 bound_to 7997
  156.2945  140.2266  156.4722 H   0  0  0  0  0  0  0  0  0  0  0  0  # atno 8010 bound_to 7997
  140.1179  144.4758  150.6938 H   0  0  0  0  0  0  0  0  0  0  0  0  # atno 10167 bound_to 10162
  156.8042  130.5403  149.5717 H   0  0  0  0  0  0  0  0  0  0  0  0  # atno 10718 bound_to 10713
  154.0985  135.2847  155.3256 H   0  0  0  0  0  0  0  0  0  0  0  0  # atno 10763 bound_to 10752
  154.6571  135.5348  153.7976 H   0  0  0  0  0  0  0  0  0  0  0  0  # atno 10764 bound_to 10752
  153.0387  135.6524  154.1150 H   0  0  0  0  0  0  0  0  0  0  0  0  # atno 10765 bound_to 10752
  140.5046  134.5860  157.4999 H   0  0  0  0  0  0  0  0  0  0  0  0  # atno 11005 bound_to 11000
  146.1297  140.7202  142.9418 LP  0  0  0  0  0  0  0  0  0  0  0  0  # atno 17320 bound_to 7965
  144.7165  140.4227  143.7040 LP  0  0  0  0  0  0  0  0  0  0  0  0  # atno 17321 bound_to 7965
  140.6889  143.2365  151.5186 LP  0  0  0  0  0  0  0  0  0  0  0  0  # atno 17342 bound_to 10162
  139.5584  144.2217  152.1651 LP  0  0  0  0  0  0  0  0  0  0  0  0  # atno 17343 bound_to 10162
  156.1083  130.6021  151.0006 LP  0  0  0  0  0  0  0  0  0  0  0  0  # atno 17370 bound_to 10713
  157.6538  131.0892  150.7991 LP  0  0  0  0  0  0  0  0  0  0  0  0  # atno 17371 bound_to 10713
  139.9693  134.7319  156.0073 LP  0  0  0  0  0  0  0  0  0  0  0  0  # atno 17394 bound_to 11000
  141.1417  133.6563  156.3750 LP  0  0  0  0  0  0  0  0  0  0  0  0  # atno 17395 bound_to 11000

$$$$
