AV-unprocessed.smi:203|AV-procd|sdf|1586|dock3
  -GOLD-   2262019483D 1   1.00000     0.00000
 Structure written by MMmdl.
 57 61  0  0  0  0  0  0  0  0  1 V2000
  143.5754  132.9846  147.7548 O   0  0  0  0  0  0  0  0  0  0  0  0
  143.8117  132.6711  148.9193 C   0  0  0  0  0  0  0  0  0  0  0  0
  145.1565  132.8897  149.5906 C   0  0  0  0  0  0  0  0  0  0  0  0
  144.8789  132.5690  151.0739 C   0  0  1  0  0  0  0  0  0  0  0  0
  144.9270  133.8077  152.0241 C   0  0  2  0  0  0  0  0  0  0  0  0
  144.4629  135.1161  151.3299 C   0  0  0  0  0  0  0  0  0  0  0  0
  144.5174  136.3169  152.2832 C   0  0  0  0  0  0  0  0  0  0  0  0
  145.9284  136.4581  152.8639 C   0  0  0  0  0  0  0  0  0  0  0  0
  146.3560  135.1533  153.5487 C   0  0  0  0  0  0  0  0  0  0  0  0
  146.2514  134.0137  152.6376 N   0  0  0  0  0  0  0  0  0  0  0  0
  146.8349  132.9216  153.1804 C   0  0  0  0  0  0  0  0  0  0  0  0
  146.0486  131.8361  153.3813 N   0  0  0  0  0  0  0  0  0  0  0  0
  146.5654  130.7302  153.9253 C   0  0  0  0  0  0  0  0  0  0  0  0
  147.8187  130.5029  154.3260 N   0  0  0  0  0  0  0  0  0  0  0  0
  148.6119  131.5928  154.1175 C   0  0  0  0  0  0  0  0  0  0  0  0
  148.2057  132.8348  153.5546 C   0  0  0  0  0  0  0  0  0  0  0  0
  149.2858  133.7081  153.5009 N   0  0  0  0  0  0  0  0  0  0  0  0
  150.2750  133.0203  154.0032 C   0  0  0  0  0  0  0  0  0  0  0  0
  149.9585  131.7406  154.3983 N   0  0  0  0  0  0  0  0  0  0  0  0
  150.8614  130.7654  154.9831 C   0  0  0  0  0  0  0  0  0  0  0  0
  152.2889  131.3232  155.1660 C   0  0  1  0  0  0  0  0  0  0  0  0
  152.3866  132.0545  156.3718 O   0  0  0  0  0  0  0  0  0  0  0  0
  153.3975  130.2506  155.1477 C   0  0  2  0  0  0  0  0  0  0  0  0
  154.7976  130.7926  154.8333 C   0  0  0  0  0  0  0  0  0  0  0  0
  155.4734  129.6702  154.0563 C   0  0  0  0  0  0  0  0  0  0  0  0
  154.4035  128.5845  153.9590 C   0  0  0  0  0  0  0  0  0  0  0  0
  153.1851  129.2908  154.1221 O   0  0  0  0  0  0  0  0  0  0  0  0
  143.5128  131.8497  151.0748 C   0  0  0  0  0  0  0  0  0  0  0  0
  142.9519  132.1023  149.7618 N   0  0  0  0  0  0  0  0  0  0  0  0
  145.8844  132.1953  149.1697 H   0  0  0  0  0  0  0  0  0  0  0  0
  145.5238  133.9031  149.4277 H   0  0  0  0  0  0  0  0  0  0  0  0
  145.6116  131.8355  151.4121 H   0  0  0  0  0  0  0  0  0  0  0  0
  144.2282  133.6168  152.8395 H   0  0  0  0  0  0  0  0  0  0  0  0
  145.0916  135.3296  150.4653 H   0  0  0  0  0  0  0  0  0  0  0  0
  143.4472  135.0155  150.9494 H   0  0  0  0  0  0  0  0  0  0  0  0
  144.2339  137.2289  151.7571 H   0  0  0  0  0  0  0  0  0  0  0  0
  143.7961  136.1817  153.0899 H   0  0  0  0  0  0  0  0  0  0  0  0
  146.6328  136.7042  152.0680 H   0  0  0  0  0  0  0  0  0  0  0  0
  145.9608  137.2826  153.5763 H   0  0  0  0  0  0  0  0  0  0  0  0
  147.3822  135.2511  153.9068 H   0  0  0  0  0  0  0  0  0  0  0  0
  145.7293  134.9770  154.4241 H   0  0  0  0  0  0  0  0  0  0  0  0
  145.8758  129.9100  154.0604 H   0  0  0  0  0  0  0  0  0  0  0  0
  151.2699  133.4298  154.1017 H   0  0  0  0  0  0  0  0  0  0  0  0
  150.4491  130.4413  155.9393 H   0  0  0  0  0  0  0  0  0  0  0  0
  150.8717  129.8870  154.3380 H   0  0  0  0  0  0  0  0  0  0  0  0
  152.4947  132.0364  154.3667 H   0  0  0  0  0  0  0  0  0  0  0  0
  153.2940  132.2808  156.5094 H   0  0  0  0  0  0  0  0  0  0  0  0
  153.4382  129.7327  156.1085 H   0  0  0  0  0  0  0  0  0  0  0  0
  154.7504  131.6880  154.2133 H   0  0  0  0  0  0  0  0  0  0  0  0
  155.3398  131.0525  155.7429 H   0  0  0  0  0  0  0  0  0  0  0  0
  155.7511  130.0215  153.0619 H   0  0  0  0  0  0  0  0  0  0  0  0
  156.3760  129.3047  154.5470 H   0  0  0  0  0  0  0  0  0  0  0  0
  154.4331  128.0473  153.0108 H   0  0  0  0  0  0  0  0  0  0  0  0
  154.5121  127.8596  154.7674 H   0  0  0  0  0  0  0  0  0  0  0  0
  143.6422  130.7734  151.1971 H   0  0  0  0  0  0  0  0  0  0  0  0
  142.8448  132.1909  151.8657 H   0  0  0  0  0  0  0  0  0  0  0  0
  141.9995  131.8667  149.5233 H   0  0  0  0  0  0  0  0  0  0  0  0
  1  2  2  0  0  0  0
  2 29  1  0  0  0  0
  2  3  1  0  0  0  0
  3  4  1  0  0  0  0
  3 30  1  0  0  0  0
  3 31  1  0  0  0  0
  4  5  1  0  0  0  0
  4 28  1  0  0  0  0
  4 32  1  0  0  0  0
  5 10  1  0  0  0  0
  5  6  1  0  0  0  0
  5 33  1  0  0  0  0
  6  7  1  0  0  0  0
  6 34  1  0  0  0  0
  6 35  1  0  0  0  0
  7  8  1  0  0  0  0
  7 36  1  0  0  0  0
  7 37  1  0  0  0  0
  8  9  1  0  0  0  0
  8 38  1  0  0  0  0
  8 39  1  0  0  0  0
  9 10  1  0  0  0  0
  9 40  1  0  0  0  0
  9 41  1  0  0  0  0
 10 11  1  0  0  0  0
 11 16  1  0  0  0  0
 11 12  2  0  0  0  0
 12 13  1  0  0  0  0
 13 14  2  0  0  0  0
 13 42  1  0  0  0  0
 14 15  1  0  0  0  0
 15 19  1  0  0  0  0
 15 16  2  0  0  0  0
 16 17  1  0  0  0  0
 17 18  2  0  0  0  0
 18 19  1  0  0  0  0
 18 43  1  0  0  0  0
 19 20  1  0  0  0  0
 20 21  1  0  0  0  0
 20 44  1  0  0  0  0
 20 45  1  0  0  0  0
 21 22  1  0  0  0  0
 21 23  1  0  0  0  0
 21 46  1  0  0  0  0
 22 47  1  0  0  0  0
 23 27  1  0  0  0  0
 23 24  1  0  0  0  0
 23 48  1  0  0  0  0
 24 25  1  0  0  0  0
 24 49  1  0  0  0  0
 24 50  1  0  0  0  0
 25 26  1  0  0  0  0
 25 51  1  0  0  0  0
 25 52  1  0  0  0  0
 26 27  1  0  0  0  0
 26 53  1  0  0  0  0
 26 54  1  0  0  0  0
 28 29  1  0  0  0  0
 28 55  1  0  0  0  0
 28 56  1  0  0  0  0
 29 57  1  0  0  0  0
M  END
> <s_m_source_file>
AV-unprocessed.smi

> <i_m_source_file_index>
203

> <i_lp_mmshare_version>
43012

> <i_f3d_flags>
0

> <s_epik_input>
Tz1DMVtDSDJdW0NASF0oW0NIMl1bTkhdMSlbQ0BASF0yW0NIMl1bQ0gyXVtDSDJdW0NIMl1OMmMobltjSF1uMyljKGMzNCluW2NIXW40W0NIMl1bQ0BIXShbT0hdKVtDQEBIXTVbQ0gyXVtDSDJdW0NIMl1PNQ==

> <s_epik_cmdline>
J2VwaWtfcHl0aG9uJywgJy1waCcsICc3LjAnLCAnLXRuJywgJzgnLCAnLW1hJywgJzIwMCcsICctbWV0YWxfYmluZGluZycsICctaW1hZScsICc8aW5maWxlLm1hZT4nLCAnLW9tYWUnLCAnPG91dGZpbGUubWFlPic=

> <r_lp_tautomer_probability>
1

> <r_epik_Ionization_Penalty>
0.00175146

> <r_epik_Ionization_Penalty_Charging>
0

> <r_epik_Ionization_Penalty_Neutral>
0.00175146

> <r_epik_State_Penalty>
0.00109045

> <r_epik_Charging_Adjusted_Penalty>
0.00109045

> <i_epik_Tot_Q>
0

> <i_epik_Tot_abs_Q>
0

> <r_epik_Metal_State_Penalty>
-0

> <b_epik_Metal_Only>
0

> <s_lp_Force_Field>
OPLS_2005

> <r_lp_Energy>
58.3664

> <b_lp_Chiralities_Consistent>
1

> <s_lp_Variant>
AV-unprocessed.smi:203-5

> <Gold.Version>
5.8.1

> <Gold.Id.Protein>
6NUR|6NUR_protein|mol2

> <Gold.PLP.Fitness>
40.3098

> <Gold.PLP.PLP>
-38.4577

> <Gold.PLP.part.hbond>
-2.9156

> <Gold.PLP.part.metal>
0.0000

> <Gold.PLP.part.buried>
-6.7457

> <Gold.PLP.part.nonpolar>
-31.7003

> <Gold.PLP.part.repulsive>
3.7480

> <Gold.PLP.ligand.clash>
2.2035

> <Gold.PLP.ligand.torsion>
1.5105

> <Gold.PLP.Chemscore.Hbond>
1.2412

> <Gold.PLP.Chemscore.CHOScore>
1.0000

> <Gold.PLP.Chemscore.Metal>
0.0000

> <Gold.Chemscore.Hbonds>
donor molecule, donor type, donor heavy atom, donor atom, acceptor molecule, acceptor atom, score
      L1  H    29    57       P1 10952  0.80
      P1  H  7918  7932       L1     1  0.17
      L1  C    13    42       P1 10956  0.54

> <Gold.PLP.Chemscore.Internal.Correction>
0.3529

> <Gold.Rescore>
     Score         DG    S(hbond)    S(metal)    S(lipo)     H(rot)  DE(clash)    DE(int)     intcor
      6.32     -13.08       1.33        0.00      86.45       2.72       3.64       3.12       ----

> <Gold.Chemscore.Fitness>
6.3225

> <Gold.Chemscore.DG>
-13.0768

> <Gold.Chemscore.ZeroCoef>
-5.4800

> <Gold.Chemscore.Hbond>
1.3286

> <Gold.Chemscore.Metal>
0.0000

> <Gold.Chemscore.Lipo>
86.4537

> <Gold.Chemscore.Internal_Hbond>
0.0000

> <Gold.Chemscore.DEClash>
3.6365

> <Gold.Chemscore.DEInternal>
3.1178

> <Gold.Chemscore.Rot>
2.7171

> <Gold.Chemscore.Internal.Correction>
   9.000000E+99

> <Gold.Chemscore.Hbonds>
donor molecule, donor type, donor heavy atom, donor atom, acceptor molecule, acceptor atom, score
      L1  H    29    57       P1 10952  0.79
      P1  H  7918  7932       L1     1  0.17

> <Gold.Chemscore.Hbond.Weighted>
-4.4374

> <Gold.Chemscore.Metal.Weighted>
-0.0000

> <Gold.Chemscore.Lipo.Weighted>
-10.1151

> <Gold.Chemscore.Internal_Hbond.Weighted>
0.0000

> <Gold.Chemscore.DEClash.Weighted>
3.6365

> <Gold.Chemscore.DEInternal.Weighted>
3.1178

> <Gold.Chemscore.Rot.Weighted>
6.9557

> <Gold.Chemscore.Internal.Correction.Weighted>
   9.000000E+99

> <Gold.Protein.RotatedTorsions>
[ 6907 6896 6895 6894 ] final  -83.88 input  -60.11 | X-H torsion
[ 7974 7965 7964 7962 ] final -157.02 input  175.53 | X-H torsion
[ 8008 7997 7996 7995 ] final  -67.45 input   59.86 | X-H torsion
[ 10167 10162 10161 10158 ] final  172.59 input  -65.29 | X-H torsion
[ 10718 10713 10712 10709 ] final -132.40 input   66.30 | X-H torsion
[ 10763 10752 10751 10750 ] final -121.34 input  -60.55 | X-H torsion
[ 11005 11000 10999 10996 ] final  -84.17 input  -57.11 | X-H torsion

> <Gold.Protein.ActiveResidues>
 VAL166  LYS551  ARG553  GLY616  TRP617  ASP618  TYR619  PRO620  LYS621  CYS622 
 ASP623  PHE694  ASN695  SER759  ASP760  ASP761  ALA762  ILE779  LEU786  VAL792 
 PHE793  MET794  SER795  GLU796  ALA797  LYS798  CYS799  TRP800  GLU811  SER814 

> <Gold.Protein.RotatedAtoms>
  150.6881  134.3443  159.4881 H   0  0  0  0  0  0  0  0  0  0  0  0  # atno 6907 bound_to 6896
  152.1293  134.9144  160.0568 H   0  0  0  0  0  0  0  0  0  0  0  0  # atno 6908 bound_to 6896
  152.0321  133.3907  159.4338 H   0  0  0  0  0  0  0  0  0  0  0  0  # atno 6909 bound_to 6896
  144.7566  140.4027  143.6007 H   0  0  0  0  0  0  0  0  0  0  0  0  # atno 7974 bound_to 7965
  154.4801  140.0892  156.7356 H   0  0  0  0  0  0  0  0  0  0  0  0  # atno 8008 bound_to 7997
  155.4494  140.3457  155.4281 H   0  0  0  0  0  0  0  0  0  0  0  0  # atno 8009 bound_to 7997
  156.1177  140.1465  156.9237 H   0  0  0  0  0  0  0  0  0  0  0  0  # atno 8010 bound_to 7997
  139.5081  144.3357  152.0068 H   0  0  0  0  0  0  0  0  0  0  0  0  # atno 10167 bound_to 10162
  156.2342  130.7056  151.0890 H   0  0  0  0  0  0  0  0  0  0  0  0  # atno 10718 bound_to 10713
  154.8666  135.4171  154.2604 H   0  0  0  0  0  0  0  0  0  0  0  0  # atno 10763 bound_to 10752
  153.3533  135.7000  153.6776 H   0  0  0  0  0  0  0  0  0  0  0  0  # atno 10764 bound_to 10752
  153.5707  135.3592  155.2809 H   0  0  0  0  0  0  0  0  0  0  0  0  # atno 10765 bound_to 10752
  141.1652  133.7332  156.8828 H   0  0  0  0  0  0  0  0  0  0  0  0  # atno 11005 bound_to 11000
  145.6757  139.1608  143.2729 LP  0  0  0  0  0  0  0  0  0  0  0  0  # atno 17320 bound_to 7965
  146.1584  140.6824  142.9289 LP  0  0  0  0  0  0  0  0  0  0  0  0  # atno 17321 bound_to 7965
  140.2795  144.3875  150.6123 LP  0  0  0  0  0  0  0  0  0  0  0  0  # atno 17342 bound_to 10162
  140.6028  143.2167  151.7038 LP  0  0  0  0  0  0  0  0  0  0  0  0  # atno 17343 bound_to 10162
  157.7147  131.0716  150.6372 LP  0  0  0  0  0  0  0  0  0  0  0  0  # atno 17370 bound_to 10713
  156.6442  130.4467  149.5742 LP  0  0  0  0  0  0  0  0  0  0  0  0  # atno 17371 bound_to 10713
  140.1703  134.9105  157.2824 LP  0  0  0  0  0  0  0  0  0  0  0  0  # atno 17394 bound_to 11000
  140.2510  134.3683  155.7442 LP  0  0  0  0  0  0  0  0  0  0  0  0  # atno 17395 bound_to 11000

$$$$
