AV-unprocessed.smi:1744|AV-procd|sdf|7026|dock8
  -GOLD-   22720 8243D 1   1.00000     0.00000
 Structure written by MMmdl.
 44 45  0  0  0  0  0  0  0  0  2 V2000
  153.2400  139.8898  159.9379 C   0  0  0  0  0  0  0  0  0  0  0  0
  153.5088  141.3942  160.0689 C   0  0  0  0  0  0  0  0  0  0  0  0
  152.6732  142.1705  159.1735 N   0  0  0  0  0  0  0  0  0  0  0  0
  151.8142  141.7121  158.1944 C   0  0  0  0  0  0  0  0  0  0  0  0
  151.2622  142.8242  157.6335 C   0  0  0  0  0  0  0  0  0  0  0  0
  150.3176  142.8134  156.5771 N   0  0  0  0  0  0  0  0  0  0  0  0
  149.7387  141.7396  156.0165 C   0  0  0  0  0  0  0  0  0  0  0  0
  149.9545  140.5707  156.3354 O   0  0  0  0  0  0  0  0  0  0  0  0
  148.8856  142.0974  155.0457 N   0  0  0  0  0  0  0  0  0  0  0  0
  148.0850  141.1747  154.2413 C   0  0  2  0  0  0  0  0  0  0  0  0
  147.2788  141.9122  153.1537 C   0  0  0  0  0  0  0  0  0  0  0  0
  146.1333  142.7468  153.7526 C   0  0  0  0  0  0  0  0  0  0  0  0
  145.2362  141.9040  154.5877 N   0  3  2  0  0  0  0  0  0  0  0  0
  144.0386  142.6350  155.0769 C   0  0  0  0  0  0  0  0  0  0  0  0
  143.0024  141.7178  155.7350 C   0  0  0  0  0  0  0  0  0  0  0  0
  142.4696  140.7639  154.9680 N   0  0  0  0  0  0  0  0  0  0  0  0
  142.6739  141.8737  156.9097 O   0  0  0  0  0  0  0  0  0  0  0  0
  145.9799  141.2365  155.6864 C   0  0  0  0  0  0  0  0  0  0  0  0
  147.1287  140.3697  155.1382 C   0  0  0  0  0  0  0  0  0  0  0  0
  151.8356  143.9316  158.3206 C   0  0  0  0  0  0  0  0  0  0  0  0
  152.6874  143.5243  159.2497 N   0  0  0  0  0  0  0  0  0  0  0  0
  153.8847  139.3214  160.6081 H   0  0  0  0  0  0  0  0  0  0  0  0
  153.4278  139.5433  158.9211 H   0  0  0  0  0  0  0  0  0  0  0  0
  152.2063  139.6493  160.1892 H   0  0  0  0  0  0  0  0  0  0  0  0
  153.3287  141.7255  161.0926 H   0  0  0  0  0  0  0  0  0  0  0  0
  154.5545  141.6097  159.8453 H   0  0  0  0  0  0  0  0  0  0  0  0
  151.6743  140.6606  157.9903 H   0  0  0  0  0  0  0  0  0  0  0  0
  150.0571  143.7173  156.2108 H   0  0  0  0  0  0  0  0  0  0  0  0
  148.7700  143.0829  154.8602 H   0  0  0  0  0  0  0  0  0  0  0  0
  148.7668  140.4720  153.7586 H   0  0  0  0  0  0  0  0  0  0  0  0
  147.9313  142.5478  152.5540 H   0  0  0  0  0  0  0  0  0  0  0  0
  146.8588  141.1795  152.4631 H   0  0  0  0  0  0  0  0  0  0  0  0
  146.5359  143.5628  154.3547 H   0  0  0  0  0  0  0  0  0  0  0  0
  145.5684  143.2071  152.9415 H   0  0  0  0  0  0  0  0  0  0  0  0
  144.3355  143.3612  155.8348 H   0  0  0  0  0  0  0  0  0  0  0  0
  143.5857  143.2016  154.2612 H   0  0  0  0  0  0  0  0  0  0  0  0
  141.7858  140.1265  155.3499 H   0  0  0  0  0  0  0  0  0  0  0  0
  142.7577  140.6780  154.0033 H   0  0  0  0  0  0  0  0  0  0  0  0
  146.3649  141.9887  156.3767 H   0  0  0  0  0  0  0  0  0  0  0  0
  145.3004  140.6030  156.2579 H   0  0  0  0  0  0  0  0  0  0  0  0
  146.7064  139.5465  154.5602 H   0  0  0  0  0  0  0  0  0  0  0  0
  147.6779  139.9096  155.9607 H   0  0  0  0  0  0  0  0  0  0  0  0
  151.6753  144.9911  158.1876 H   0  0  0  0  0  0  0  0  0  0  0  0
  144.8872  141.1661  153.9921 H   0  0  0  0  0  0  0  0  0  0  0  0
  1  2  1  0  0  0  0
  1 22  1  0  0  0  0
  1 23  1  0  0  0  0
  1 24  1  0  0  0  0
  2  3  1  0  0  0  0
  2 25  1  0  0  0  0
  2 26  1  0  0  0  0
  3 21  1  0  0  0  0
  3  4  1  0  0  0  0
  4  5  2  0  0  0  0
  4 27  1  0  0  0  0
  5  6  1  0  0  0  0
  5 20  1  0  0  0  0
  6  7  1  0  0  0  0
  6 28  1  0  0  0  0
  7  8  2  0  0  0  0
  7  9  1  0  0  0  0
  9 10  1  0  0  0  0
  9 29  1  0  0  0  0
 10 19  1  0  0  0  0
 10 11  1  0  0  0  0
 10 30  1  0  0  0  0
 11 12  1  0  0  0  0
 11 31  1  0  0  0  0
 11 32  1  0  0  0  0
 12 13  1  0  0  0  0
 12 33  1  0  0  0  0
 12 34  1  0  0  0  0
 13 14  1  0  0  0  0
 13 18  1  0  0  0  0
 13 44  1  0  0  0  0
 14 15  1  0  0  0  0
 14 35  1  0  0  0  0
 14 36  1  0  0  0  0
 15 16  1  0  0  0  0
 15 17  2  0  0  0  0
 16 37  1  0  0  0  0
 16 38  1  0  0  0  0
 18 19  1  0  0  0  0
 18 39  1  0  0  0  0
 18 40  1  0  0  0  0
 19 41  1  0  0  0  0
 19 42  1  0  0  0  0
 20 21  2  0  0  0  0
 20 43  1  0  0  0  0
M  CHG  1  13   1
M  END
> <s_m_source_file>
AV-unprocessed.smi

> <i_m_source_file_index>
1744

> <i_lp_mmshare_version>
43012

> <i_f3d_flags>
0

> <s_epik_input>
W0NIM11bQ0gyXW4xW2NIXWMoW2NIXW4xKVtOSF1DKD1PKVtOSF1bQ0hdMltDSDJdW0NIMl1OKFtDSDJdW0NIMl0yKVtDSDJdQyg9TylbTkgyXQ==

> <s_epik_cmdline>
J2VwaWtfcHl0aG9uJywgJy1waCcsICc3LjAnLCAnLXRuJywgJzgnLCAnLW1hJywgJzIwMCcsICctbWV0YWxfYmluZGluZycsICctaW1hZScsICc8aW5maWxlLm1hZT4nLCAnLW9tYWUnLCAnPG91dGZpbGUubWFlPic=

> <r_lp_tautomer_probability>
1

> <r_epik_Ionization_Penalty>
0.839033

> <r_epik_Ionization_Penalty_Charging>
0.838844

> <r_epik_Ionization_Penalty_Neutral>
0.000189439

> <r_epik_State_Penalty>
0.8734

> <r_epik_Charging_Adjusted_Penalty>
1.71224

> <i_epik_Tot_Q>
1

> <i_epik_Tot_abs_Q>
1

> <r_epik_Metal_State_Penalty>
0.89072

> <b_epik_Metal_Only>
0

> <s_lp_Force_Field>
OPLS_2005

> <r_lp_Energy>
17.546

> <b_lp_Chiralities_Consistent>
1

> <s_lp_Variant>
AV-unprocessed.smi:1744-3

> <Gold.Version>
5.8.1

> <Gold.Id.Protein>
6NUR|6NUR_protein|mol2

> <Gold.PLP.Fitness>
48.0610

> <Gold.PLP.PLP>
-33.8905

> <Gold.PLP.part.hbond>
-4.0000

> <Gold.PLP.part.metal>
0.0000

> <Gold.PLP.part.buried>
-6.1834

> <Gold.PLP.part.nonpolar>
-24.6395

> <Gold.PLP.part.repulsive>
0.3108

> <Gold.PLP.ligand.clash>
0.0000

> <Gold.PLP.ligand.torsion>
0.0781

> <Gold.PLP.Chemscore.Hbond>
4.7650

> <Gold.PLP.Chemscore.CHOScore>
0.0000

> <Gold.PLP.Chemscore.Metal>
0.0000

> <Gold.Chemscore.Hbonds>
donor molecule, donor type, donor heavy atom, donor atom, acceptor molecule, acceptor atom, score
      L1  H     6    28       P1  8028  0.99
      L1  H     9    29       P1  8028  0.86
      L1  H    13    44       P1 10175  1.98
      L1  H    16    38       P1 10175  1.00

> <Gold.PLP.Chemscore.Internal.Correction>
0.0317

> <Gold.Rescore>
     Score         DG    S(hbond)    S(metal)    S(lipo)     H(rot)  DE(clash)    DE(int)     intcor
     17.83     -20.86       3.49        0.00      80.34       2.22       1.49       1.54       ----

> <Gold.Chemscore.Fitness>
17.8252

> <Gold.Chemscore.DG>
-20.8618

> <Gold.Chemscore.ZeroCoef>
-5.4800

> <Gold.Chemscore.Hbond>
3.4936

> <Gold.Chemscore.Metal>
0.0000

> <Gold.Chemscore.Lipo>
80.3367

> <Gold.Chemscore.Internal_Hbond>
0.0000

> <Gold.Chemscore.DEClash>
1.4921

> <Gold.Chemscore.DEInternal>
1.5445

> <Gold.Chemscore.Rot>
2.2211

> <Gold.Chemscore.Internal.Correction>
   9.000000E+99

> <Gold.Chemscore.Hbonds>
donor molecule, donor type, donor heavy atom, donor atom, acceptor molecule, acceptor atom, score
      L1  H     6    28       P1  8028  0.94
      L1  H     9    29       P1  8028  0.85
      L1  H    13    44       P1 10175  0.62
      L1  H    16    38       P1 10175  0.65

> <Gold.Chemscore.Hbond.Weighted>
-11.6685

> <Gold.Chemscore.Metal.Weighted>
-0.0000

> <Gold.Chemscore.Lipo.Weighted>
-9.3994

> <Gold.Chemscore.Internal_Hbond.Weighted>
0.0000

> <Gold.Chemscore.DEClash.Weighted>
1.4921

> <Gold.Chemscore.DEInternal.Weighted>
1.5445

> <Gold.Chemscore.Rot.Weighted>
5.6860

> <Gold.Chemscore.Internal.Correction.Weighted>
   9.000000E+99

> <Gold.Protein.RotatedTorsions>
[ 6907 6896 6895 6894 ] final  104.41 input  -60.11 | X-H torsion
[ 7974 7965 7964 7962 ] final   -0.45 input  175.53 | X-H torsion
[ 8008 7997 7996 7995 ] final -126.72 input   59.86 | X-H torsion
[ 10167 10162 10161 10158 ] final   54.44 input  -65.29 | X-H torsion
[ 10718 10713 10712 10709 ] final  -16.14 input   66.30 | X-H torsion
[ 10763 10752 10751 10750 ] final  164.98 input  -60.55 | X-H torsion
[ 11005 11000 10999 10996 ] final   10.75 input  -57.11 | X-H torsion

> <Gold.Protein.ActiveResidues>
 VAL166  LYS551  ARG553  GLY616  TRP617  ASP618  TYR619  PRO620  LYS621  CYS622 
 ASP623  PHE694  ASN695  SER759  ASP760  ASP761  ALA762  ILE779  LEU786  VAL792 
 PHE793  MET794  SER795  GLU796  ALA797  LYS798  CYS799  TRP800  GLU811  SER814 

> <Gold.Protein.RotatedAtoms>
  152.5265  133.9680  159.7748 H   0  0  0  0  0  0  0  0  0  0  0  0  # atno 6907 bound_to 6896
  150.9958  133.6097  159.2709 H   0  0  0  0  0  0  0  0  0  0  0  0  # atno 6908 bound_to 6896
  151.3224  135.0828  159.9363 H   0  0  0  0  0  0  0  0  0  0  0  0  # atno 6909 bound_to 6896
  146.2427  140.1272  142.8339 H   0  0  0  0  0  0  0  0  0  0  0  0  # atno 7974 bound_to 7965
  155.2343  140.0426  157.2966 H   0  0  0  0  0  0  0  0  0  0  0  0  # atno 8008 bound_to 7997
  154.5868  140.2416  155.7946 H   0  0  0  0  0  0  0  0  0  0  0  0  # atno 8009 bound_to 7997
  156.2232  140.2963  156.0011 H   0  0  0  0  0  0  0  0  0  0  0  0  # atno 8010 bound_to 7997
  140.2301  144.3695  150.6417 H   0  0  0  0  0  0  0  0  0  0  0  0  # atno 10167 bound_to 10162
  156.5918  130.4801  149.6276 H   0  0  0  0  0  0  0  0  0  0  0  0  # atno 10718 bound_to 10713
  154.3171  135.2756  155.2537 H   0  0  0  0  0  0  0  0  0  0  0  0  # atno 10763 bound_to 10752
  154.4907  135.5834  153.6460 H   0  0  0  0  0  0  0  0  0  0  0  0  # atno 10764 bound_to 10752
  152.9881  135.6134  154.3353 H   0  0  0  0  0  0  0  0  0  0  0  0  # atno 10765 bound_to 10752
  140.5109  134.0653  155.7818 H   0  0  0  0  0  0  0  0  0  0  0  0  # atno 11005 bound_to 11000
  145.0356  140.8905  143.5083 LP  0  0  0  0  0  0  0  0  0  0  0  0  # atno 17320 bound_to 7965
  145.1344  139.2611  143.5523 LP  0  0  0  0  0  0  0  0  0  0  0  0  # atno 17321 bound_to 7965
  140.6191  143.2175  151.6731 LP  0  0  0  0  0  0  0  0  0  0  0  0  # atno 17342 bound_to 10162
  139.5113  144.3514  152.0648 LP  0  0  0  0  0  0  0  0  0  0  0  0  # atno 17343 bound_to 10162
  156.2543  130.6925  151.1674 LP  0  0  0  0  0  0  0  0  0  0  0  0  # atno 17370 bound_to 10713
  157.7302  131.0618  150.5739 LP  0  0  0  0  0  0  0  0  0  0  0  0  # atno 17371 bound_to 10713
  141.1386  133.9178  157.2378 LP  0  0  0  0  0  0  0  0  0  0  0  0  # atno 17394 bound_to 11000
  139.9659  135.0142  156.9386 LP  0  0  0  0  0  0  0  0  0  0  0  0  # atno 17395 bound_to 11000

$$$$
