AV-unprocessed.smi:1552|AV-procd|sdf|6236|dock8
  -GOLD-   22720 6413D 1   1.00000     0.00000
 Structure written by MMmdl.
 49 50  0  0  0  0  0  0  0  0  3 V2000
  146.6755  140.0790  154.0293 C   0  0  0  0  0  0  0  0  0  0  0  0
  146.0121  139.1711  153.0644 N   0  3  0  0  0  0  0  0  0  0  0  0
  146.8132  138.9948  151.8294 C   0  0  0  0  0  0  0  0  0  0  0  0
  145.4732  137.9184  153.6832 C   0  0  2  0  0  0  0  0  0  0  0  0
  146.4422  137.2909  154.7236 C   0  0  0  0  0  0  0  0  0  0  0  0
  147.8308  137.2794  154.2693 N   0  0  0  0  0  0  0  0  0  0  0  0
  148.9469  137.4495  154.9972 C   0  0  0  0  0  0  0  0  0  0  0  0
  148.8718  137.6735  156.2036 O   0  0  0  0  0  0  0  0  0  0  0  0
  150.3346  137.4034  154.3320 C   0  0  0  0  0  0  0  0  0  0  0  0
  151.4089  137.6697  155.3014 N   0  0  0  0  0  0  0  0  0  0  0  0
  151.7590  136.6402  156.1934 C   0  0  0  0  0  0  0  0  0  0  0  0
  152.7384  136.7920  157.1053 C   0  0  0  0  0  0  0  0  0  0  0  0
  153.4451  138.0659  157.1536 C   0  0  0  0  0  0  0  0  0  0  0  0
  154.3418  138.2234  157.9797 O   0  0  0  0  0  0  0  0  0  0  0  0
  153.0706  139.0332  156.2659 N   0  5  0  0  0  0  0  0  0  0  0  0
  152.0727  138.8645  155.3445 C   0  0  0  0  0  0  0  0  0  0  0  0
  151.7538  139.7523  154.5530 O   0  0  0  0  0  0  0  0  0  0  0  0
  144.9360  136.9253  152.6083 C   0  0  0  0  0  0  0  0  0  0  0  0
  143.8676  135.9675  153.1923 C   0  0  0  0  0  0  0  0  0  0  0  0
  143.3365  134.9783  152.1422 C   0  0  0  0  0  0  0  0  0  0  0  0
  144.4772  134.1670  151.5146 C   0  0  0  0  0  0  0  0  0  0  0  0
  145.5410  135.0977  150.9182 C   0  0  0  0  0  0  0  0  0  0  0  0
  146.0704  136.0870  151.9688 C   0  0  0  0  0  0  0  0  0  0  0  0
  147.6150  139.6655  154.3952 H   0  0  0  0  0  0  0  0  0  0  0  0
  146.0320  140.2803  154.8861 H   0  0  0  0  0  0  0  0  0  0  0  0
  146.8965  141.0362  153.5563 H   0  0  0  0  0  0  0  0  0  0  0  0
  147.7848  138.5497  152.0407 H   0  0  0  0  0  0  0  0  0  0  0  0
  146.9921  139.9614  151.3579 H   0  0  0  0  0  0  0  0  0  0  0  0
  146.2976  138.3706  151.1007 H   0  0  0  0  0  0  0  0  0  0  0  0
  144.5943  138.2308  154.2495 H   0  0  0  0  0  0  0  0  0  0  0  0
  146.3355  137.8116  155.6719 H   0  0  0  0  0  0  0  0  0  0  0  0
  146.1527  136.2586  154.9216 H   0  0  0  0  0  0  0  0  0  0  0  0
  147.9636  137.1620  153.2752 H   0  0  0  0  0  0  0  0  0  0  0  0
  150.5280  136.4756  153.7966 H   0  0  0  0  0  0  0  0  0  0  0  0
  150.3432  138.1642  153.5505 H   0  0  0  0  0  0  0  0  0  0  0  0
  151.1931  135.7261  156.0878 H   0  0  0  0  0  0  0  0  0  0  0  0
  152.9967  135.9902  157.7811 H   0  0  0  0  0  0  0  0  0  0  0  0
  144.4632  137.4940  151.8072 H   0  0  0  0  0  0  0  0  0  0  0  0
  144.2894  135.4121  154.0312 H   0  0  0  0  0  0  0  0  0  0  0  0
  143.0226  136.5291  153.5906 H   0  0  0  0  0  0  0  0  0  0  0  0
  142.6113  134.3047  152.5998 H   0  0  0  0  0  0  0  0  0  0  0  0
  142.8030  135.5232  151.3624 H   0  0  0  0  0  0  0  0  0  0  0  0
  144.9320  133.5258  152.2710 H   0  0  0  0  0  0  0  0  0  0  0  0
  144.0840  133.5054  150.7422 H   0  0  0  0  0  0  0  0  0  0  0  0
  146.3649  134.5082  150.5150 H   0  0  0  0  0  0  0  0  0  0  0  0
  145.1162  135.6490  150.0783 H   0  0  0  0  0  0  0  0  0  0  0  0
  146.8037  136.7326  151.4866 H   0  0  0  0  0  0  0  0  0  0  0  0
  146.6066  135.5395  152.7451 H   0  0  0  0  0  0  0  0  0  0  0  0
  145.1882  139.6761  152.7712 H   0  0  0  0  0  0  0  0  0  0  0  0
  1  2  1  0  0  0  0
  1 24  1  0  0  0  0
  1 25  1  0  0  0  0
  1 26  1  0  0  0  0
  2  3  1  0  0  0  0
  2  4  1  0  0  0  0
  2 49  1  0  0  0  0
  3 27  1  0  0  0  0
  3 28  1  0  0  0  0
  3 29  1  0  0  0  0
  4  5  1  0  0  0  0
  4 18  1  0  0  0  0
  4 30  1  0  0  0  0
  5  6  1  0  0  0  0
  5 31  1  0  0  0  0
  5 32  1  0  0  0  0
  6  7  1  0  0  0  0
  6 33  1  0  0  0  0
  7  8  2  0  0  0  0
  7  9  1  0  0  0  0
  9 10  1  0  0  0  0
  9 34  1  0  0  0  0
  9 35  1  0  0  0  0
 10 16  1  0  0  0  0
 10 11  1  0  0  0  0
 11 12  2  0  0  0  0
 11 36  1  0  0  0  0
 12 13  1  0  0  0  0
 12 37  1  0  0  0  0
 13 14  2  0  0  0  0
 13 15  1  0  0  0  0
 15 16  1  0  0  0  0
 16 17  2  0  0  0  0
 18 23  1  0  0  0  0
 18 19  1  0  0  0  0
 18 38  1  0  0  0  0
 19 20  1  0  0  0  0
 19 39  1  0  0  0  0
 19 40  1  0  0  0  0
 20 21  1  0  0  0  0
 20 41  1  0  0  0  0
 20 42  1  0  0  0  0
 21 22  1  0  0  0  0
 21 43  1  0  0  0  0
 21 44  1  0  0  0  0
 22 23  1  0  0  0  0
 22 45  1  0  0  0  0
 22 46  1  0  0  0  0
 23 47  1  0  0  0  0
 23 48  1  0  0  0  0
M  CHG  1   2   1
M  CHG  1  15  -1
M  END
> <s_m_source_file>
AV-unprocessed.smi

> <i_m_source_file_index>
1552

> <i_lp_mmshare_version>
43012

> <i_f3d_flags>
0

> <s_epik_input>
W0NIMl0xW0NIMl1bQ0gyXVtDSDJdW0NIMl1bQ0hdMVtDQEhdKE4oW0NIM10pW0NIM10pW0NIMl1bTkhdQyg9TylbQ0gyXW4yW2NIXVtjSF1jKD1PKVtuSF1jMj1P

> <s_epik_cmdline>
J2VwaWtfcHl0aG9uJywgJy1waCcsICc3LjAnLCAnLXRuJywgJzgnLCAnLW1hJywgJzIwMCcsICctbWV0YWxfYmluZGluZycsICctaW1hZScsICc8aW5maWxlLm1hZT4nLCAnLW9tYWUnLCAnPG91dGZpbGUubWFlPic=

> <r_lp_tautomer_probability>
1

> <r_epik_Ionization_Penalty>
2.93575

> <r_epik_Ionization_Penalty_Charging>
0.00331645

> <r_epik_Ionization_Penalty_Neutral>
2.93244

> <r_epik_State_Penalty>
2.92822

> <r_epik_Charging_Adjusted_Penalty>
2.93154

> <i_epik_Tot_Q>
0

> <i_epik_Tot_abs_Q>
2

> <r_epik_Metal_State_Penalty>
0.448509

> <b_epik_Metal_Only>
1

> <s_lp_Force_Field>
OPLS_2005

> <r_lp_Energy>
39.5493

> <b_lp_Chiralities_Consistent>
1

> <s_lp_Variant>
AV-unprocessed.smi:1552-3

> <Gold.Version>
5.8.1

> <Gold.Id.Protein>
6NUR|6NUR_protein|mol2

> <Gold.PLP.Fitness>
44.6507

> <Gold.PLP.PLP>
-28.7432

> <Gold.PLP.part.hbond>
-4.8493

> <Gold.PLP.part.metal>
0.0000

> <Gold.PLP.part.buried>
1.3910

> <Gold.PLP.part.nonpolar>
-24.9983

> <Gold.PLP.part.repulsive>
0.0878

> <Gold.PLP.ligand.clash>
0.0000

> <Gold.PLP.ligand.torsion>
1.2781

> <Gold.PLP.Chemscore.Hbond>
6.0455

> <Gold.PLP.Chemscore.CHOScore>
0.0000

> <Gold.PLP.Chemscore.Metal>
0.0000

> <Gold.Chemscore.Hbonds>
donor molecule, donor type, donor heavy atom, donor atom, acceptor molecule, acceptor atom, score
      L1  H     2    49       P1 10175  2.00
      L1  H     6    33       P1  7948  0.93
      P1  H  7989  7998       L1    17  0.99
      P1  H  7997  8008       L1    14  0.15
      P1  H  7997  8009       L1    15  2.00

> <Gold.PLP.Chemscore.Internal.Correction>
0.3272

> <Gold.Rescore>
     Score         DG    S(hbond)    S(metal)    S(lipo)     H(rot)  DE(clash)    DE(int)     intcor
     14.23     -19.03       3.77        0.00      61.35       2.43       1.59       3.20       ----

> <Gold.Chemscore.Fitness>
14.2326

> <Gold.Chemscore.DG>
-19.0255

> <Gold.Chemscore.ZeroCoef>
-5.4800

> <Gold.Chemscore.Hbond>
3.7694

> <Gold.Chemscore.Metal>
0.0000

> <Gold.Chemscore.Lipo>
61.3475

> <Gold.Chemscore.Internal_Hbond>
0.0000

> <Gold.Chemscore.DEClash>
1.5929

> <Gold.Chemscore.DEInternal>
3.2000

> <Gold.Chemscore.Rot>
2.4305

> <Gold.Chemscore.Internal.Correction>
   9.000000E+99

> <Gold.Chemscore.Hbonds>
donor molecule, donor type, donor heavy atom, donor atom, acceptor molecule, acceptor atom, score
      L1  H     2    49       P1 10175  1.00
      L1  H     6    33       P1  7948  0.88
      P1  H  7989  7998       L1    17  0.91
      P1  H  7997  8008       L1    14  0.09
      P1  H  7997  8009       L1    15  0.62

> <Gold.Chemscore.Hbond.Weighted>
-12.5898

> <Gold.Chemscore.Metal.Weighted>
-0.0000

> <Gold.Chemscore.Lipo.Weighted>
-7.1777

> <Gold.Chemscore.Internal_Hbond.Weighted>
0.0000

> <Gold.Chemscore.DEClash.Weighted>
1.5929

> <Gold.Chemscore.DEInternal.Weighted>
3.2000

> <Gold.Chemscore.Rot.Weighted>
6.2220

> <Gold.Chemscore.Internal.Correction.Weighted>
   9.000000E+99

> <Gold.Protein.RotatedTorsions>
[ 6907 6896 6895 6894 ] final  158.78 input  -60.11 | X-H torsion
[ 7974 7965 7964 7962 ] final   47.59 input  175.53 | X-H torsion
[ 8008 7997 7996 7995 ] final -148.49 input   59.86 | X-H torsion
[ 10167 10162 10161 10158 ] final   95.62 input  -65.29 | X-H torsion
[ 10718 10713 10712 10709 ] final  -35.36 input   66.30 | X-H torsion
[ 10763 10752 10751 10750 ] final  152.97 input  -60.55 | X-H torsion
[ 11005 11000 10999 10996 ] final -126.21 input  -57.11 | X-H torsion

> <Gold.Protein.ActiveResidues>
 VAL166  LYS551  ARG553  GLY616  TRP617  ASP618  TYR619  PRO620  LYS621  CYS622 
 ASP623  PHE694  ASN695  SER759  ASP760  ASP761  ALA762  ILE779  LEU786  VAL792 
 PHE793  MET794  SER795  GLU796  ALA797  LYS798  CYS799  TRP800  GLU811  SER814 

> <Gold.Protein.RotatedAtoms>
  151.9953  133.3805  159.4160 H   0  0  0  0  0  0  0  0  0  0  0  0  # atno 6907 bound_to 6896
  150.6916  134.3893  159.5078 H   0  0  0  0  0  0  0  0  0  0  0  0  # atno 6908 bound_to 6896
  152.1632  134.8895  160.0591 H   0  0  0  0  0  0  0  0  0  0  0  0  # atno 6909 bound_to 6896
  146.0284  139.4734  142.9853 H   0  0  0  0  0  0  0  0  0  0  0  0  # atno 7974 bound_to 7965
  155.5924  140.0654  157.2755 H   0  0  0  0  0  0  0  0  0  0  0  0  # atno 8008 bound_to 7997
  154.4301  140.1833  156.1135 H   0  0  0  0  0  0  0  0  0  0  0  0  # atno 8009 bound_to 7997
  156.0222  140.3315  155.7054 H   0  0  0  0  0  0  0  0  0  0  0  0  # atno 8010 bound_to 7997
  139.7971  144.6829  150.9815 H   0  0  0  0  0  0  0  0  0  0  0  0  # atno 10167 bound_to 10162
  156.3396  130.4291  149.7799 H   0  0  0  0  0  0  0  0  0  0  0  0  # atno 10718 bound_to 10713
  154.1286  135.2828  155.3191 H   0  0  0  0  0  0  0  0  0  0  0  0  # atno 10763 bound_to 10752
  154.6372  135.5415  153.7751 H   0  0  0  0  0  0  0  0  0  0  0  0  # atno 10764 bound_to 10752
  153.0289  135.6477  154.1437 H   0  0  0  0  0  0  0  0  0  0  0  0  # atno 10765 bound_to 10752
  140.9699  134.0819  157.3880 H   0  0  0  0  0  0  0  0  0  0  0  0  # atno 11005 bound_to 11000
  145.7081  141.0115  143.1468 LP  0  0  0  0  0  0  0  0  0  0  0  0  # atno 17320 bound_to 7965
  144.7019  139.8724  143.7441 LP  0  0  0  0  0  0  0  0  0  0  0  0  # atno 17321 bound_to 7965
  140.7820  143.4320  151.0680 LP  0  0  0  0  0  0  0  0  0  0  0  0  # atno 17342 bound_to 10162
  139.7994  143.8105  152.3161 LP  0  0  0  0  0  0  0  0  0  0  0  0  # atno 17343 bound_to 10162
  156.5041  130.8142  151.3144 LP  0  0  0  0  0  0  0  0  0  0  0  0  # atno 17370 bound_to 10713
  157.7444  130.9935  150.2675 LP  0  0  0  0  0  0  0  0  0  0  0  0  # atno 17371 bound_to 10713
  139.8908  135.0114  156.6758 LP  0  0  0  0  0  0  0  0  0  0  0  0  # atno 17394 bound_to 11000
  140.7344  133.9031  155.8233 LP  0  0  0  0  0  0  0  0  0  0  0  0  # atno 17395 bound_to 11000

$$$$
