AV-unprocessed.smi:2764|AV-procd|sdf|10641|dock8
  -GOLD-   2272015 93D 1   1.00000     0.00000
 Structure written by MMmdl.
 47 49  0  0  0  0  0  0  0  0  2 V2000
  148.2502  140.7332  155.6847 O   0  0  0  0  0  0  0  0  0  0  0  0
  148.8499  139.7503  156.1211 C   0  0  0  0  0  0  0  0  0  0  0  0
  149.9084  139.7884  156.9499 N   0  0  0  0  0  0  0  0  0  0  0  0
  150.5745  140.9307  157.4692 C   0  0  0  0  0  0  0  0  0  0  0  0
  151.6651  140.6511  158.3239 C   0  0  0  0  0  0  0  0  0  0  0  0
  152.3952  141.7159  158.8870 C   0  0  0  0  0  0  0  0  0  0  0  0
  152.0126  143.0339  158.5809 C   0  0  0  0  0  0  0  0  0  0  0  0
  152.6840  144.0897  159.0988 F   0  0  0  0  0  0  0  0  0  0  0  0
  150.9144  143.2269  157.7227 C   0  0  0  0  0  0  0  0  0  0  0  0
  150.2146  142.2071  157.1814 N   0  0  0  0  0  0  0  0  0  0  0  0
  148.5142  138.4880  155.8154 N   0  0  0  0  0  0  0  0  0  0  0  0
  147.4307  138.1067  154.9139 C   0  0  2  0  0  0  0  0  0  0  0  0
  147.3600  136.5785  154.7455 C   0  0  0  0  0  0  0  0  0  0  0  0
  146.2733  136.1832  153.7311 C   0  0  0  0  0  0  0  0  0  0  0  0
  146.4918  136.8453  152.4182 N   0  3  1  0  0  0  0  0  0  0  0  0
  145.5353  136.3855  151.3773 C   0  0  0  0  0  0  0  0  0  0  0  0
  145.2979  134.8640  151.4346 C   0  0  1  0  0  0  0  0  0  0  0  0
  144.3829  134.3582  150.3368 C   0  0  0  0  0  0  0  0  0  0  0  0
  144.6792  132.8619  150.3352 C   0  0  0  0  0  0  0  0  0  0  0  0
  146.0412  132.7379  150.7317 O   0  0  0  0  0  0  0  0  0  0  0  0
  146.5319  133.9924  151.1929 C   0  0  0  0  0  0  0  0  0  0  0  0
  146.5347  138.3254  152.5558 C   0  0  0  0  0  0  0  0  0  0  0  0
  147.6331  138.7621  153.5392 C   0  0  0  0  0  0  0  0  0  0  0  0
  150.2938  138.8983  157.2289 H   0  0  0  0  0  0  0  0  0  0  0  0
  151.9453  139.6319  158.5478 H   0  0  0  0  0  0  0  0  0  0  0  0
  153.2329  141.5236  159.5411 H   0  0  0  0  0  0  0  0  0  0  0  0
  150.5888  144.2235  157.4634 H   0  0  0  0  0  0  0  0  0  0  0  0
  149.0578  137.7397  156.2202 H   0  0  0  0  0  0  0  0  0  0  0  0
  146.4845  138.4639  155.3255 H   0  0  0  0  0  0  0  0  0  0  0  0
  148.3257  136.1959  154.4114 H   0  0  0  0  0  0  0  0  0  0  0  0
  147.1541  136.1010  155.7043 H   0  0  0  0  0  0  0  0  0  0  0  0
  146.2859  135.1000  153.6035 H   0  0  0  0  0  0  0  0  0  0  0  0
  145.2862  136.4478  154.1140 H   0  0  0  0  0  0  0  0  0  0  0  0
  144.5706  136.8700  151.5359 H   0  0  0  0  0  0  0  0  0  0  0  0
  145.8602  136.6999  150.3844 H   0  0  0  0  0  0  0  0  0  0  0  0
  144.8554  134.5982  152.3963 H   0  0  0  0  0  0  0  0  0  0  0  0
  143.3308  134.5802  150.5173 H   0  0  0  0  0  0  0  0  0  0  0  0
  144.6629  134.7930  149.3760 H   0  0  0  0  0  0  0  0  0  0  0  0
  144.0564  132.3491  151.0689 H   0  0  0  0  0  0  0  0  0  0  0  0
  144.5035  132.4041  149.3615 H   0  0  0  0  0  0  0  0  0  0  0  0
  147.1618  134.4202  150.4115 H   0  0  0  0  0  0  0  0  0  0  0  0
  147.1388  133.8686  152.0900 H   0  0  0  0  0  0  0  0  0  0  0  0
  146.7180  138.7903  151.5883 H   0  0  0  0  0  0  0  0  0  0  0  0
  145.5637  138.6876  152.8980 H   0  0  0  0  0  0  0  0  0  0  0  0
  147.6274  139.8481  153.6380 H   0  0  0  0  0  0  0  0  0  0  0  0
  148.6106  138.4927  153.1357 H   0  0  0  0  0  0  0  0  0  0  0  0
  147.4077  136.5508  152.1105 H   0  0  0  0  0  0  0  0  0  0  0  0
  1  2  2  0  0  0  0
  2  3  1  0  0  0  0
  2 11  1  0  0  0  0
  3  4  1  0  0  0  0
  3 24  1  0  0  0  0
  4 10  1  0  0  0  0
  4  5  2  0  0  0  0
  5  6  1  0  0  0  0
  5 25  1  0  0  0  0
  6  7  2  0  0  0  0
  6 26  1  0  0  0  0
  7  8  1  0  0  0  0
  7  9  1  0  0  0  0
  9 10  2  0  0  0  0
  9 27  1  0  0  0  0
 11 12  1  0  0  0  0
 11 28  1  0  0  0  0
 12 23  1  0  0  0  0
 12 13  1  0  0  0  0
 12 29  1  0  0  0  0
 13 14  1  0  0  0  0
 13 30  1  0  0  0  0
 13 31  1  0  0  0  0
 14 15  1  0  0  0  0
 14 32  1  0  0  0  0
 14 33  1  0  0  0  0
 15 16  1  0  0  0  0
 15 22  1  0  0  0  0
 15 47  1  0  0  0  0
 16 17  1  0  0  0  0
 16 34  1  0  0  0  0
 16 35  1  0  0  0  0
 17 21  1  0  0  0  0
 17 18  1  0  0  0  0
 17 36  1  0  0  0  0
 18 19  1  0  0  0  0
 18 37  1  0  0  0  0
 18 38  1  0  0  0  0
 19 20  1  0  0  0  0
 19 39  1  0  0  0  0
 19 40  1  0  0  0  0
 20 21  1  0  0  0  0
 21 41  1  0  0  0  0
 21 42  1  0  0  0  0
 22 23  1  0  0  0  0
 22 43  1  0  0  0  0
 22 44  1  0  0  0  0
 23 45  1  0  0  0  0
 23 46  1  0  0  0  0
M  CHG  1  15   1
M  END
> <s_m_source_file>
AV-unprocessed.smi

> <i_m_source_file_index>
2764

> <i_lp_mmshare_version>
43012

> <i_f3d_flags>
0

> <s_epik_input>
bjFbY0hdYyhGKVtjSF1bY0hdYzFbTkhdQyg9TylbTkhdW0NIXTJbQ0gyXVtDSDJdTihbQ0gyXVtDSDJdMilbQ0gyXVtDQEBIXTNbQ0gyXVtDSDJdT1tDSDJdMw==

> <s_epik_cmdline>
J2VwaWtfcHl0aG9uJywgJy1waCcsICc3LjAnLCAnLXRuJywgJzgnLCAnLW1hJywgJzIwMCcsICctbWV0YWxfYmluZGluZycsICctaW1hZScsICc8aW5maWxlLm1hZT4nLCAnLW9tYWUnLCAnPG91dGZpbGUubWFlPic=

> <r_epik_Ionization_Penalty>
0.0075076

> <r_epik_Ionization_Penalty_Charging>
0.00747775

> <r_epik_Ionization_Penalty_Neutral>
2.98483e-05

> <r_epik_State_Penalty>
0.00558817

> <r_epik_Charging_Adjusted_Penalty>
0.0130659

> <i_epik_Tot_Q>
1

> <i_epik_Tot_abs_Q>
1

> <r_epik_Metal_State_Penalty>
-0

> <b_epik_Metal_Only>
0

> <s_lp_Force_Field>
OPLS_2005

> <r_lp_Energy>
37.3143

> <b_lp_Chiralities_Consistent>
1

> <s_lp_Variant>
AV-unprocessed.smi:2764-2

> <Gold.Version>
5.8.1

> <Gold.Id.Protein>
6NUR|6NUR_protein|mol2

> <Gold.PLP.Fitness>
42.1829

> <Gold.PLP.PLP>
-33.7217

> <Gold.PLP.part.hbond>
-1.0000

> <Gold.PLP.part.metal>
0.0000

> <Gold.PLP.part.buried>
-3.3303

> <Gold.PLP.part.nonpolar>
-29.9076

> <Gold.PLP.part.repulsive>
0.4034

> <Gold.PLP.ligand.clash>
0.0000

> <Gold.PLP.ligand.torsion>
0.1265

> <Gold.PLP.Chemscore.Hbond>
2.0000

> <Gold.PLP.Chemscore.CHOScore>
0.8956

> <Gold.PLP.Chemscore.Metal>
0.0000

> <Gold.Chemscore.Hbonds>
donor molecule, donor type, donor heavy atom, donor atom, acceptor molecule, acceptor atom, score
      L1  H    15    47       P1  7948  2.00
      L1  C     9    27       P1  8028  0.90

> <Gold.PLP.Chemscore.Internal.Correction>
0.0275

> <Gold.Rescore>
     Score         DG    S(hbond)    S(metal)    S(lipo)     H(rot)  DE(clash)    DE(int)     intcor
     13.49     -14.88       0.99        0.00      84.69       1.49       0.01       1.38       ----

> <Gold.Chemscore.Fitness>
13.4943

> <Gold.Chemscore.DG>
-14.8810

> <Gold.Chemscore.ZeroCoef>
-5.4800

> <Gold.Chemscore.Hbond>
0.9893

> <Gold.Chemscore.Metal>
0.0000

> <Gold.Chemscore.Lipo>
84.6904

> <Gold.Chemscore.Internal_Hbond>
0.0000

> <Gold.Chemscore.DEClash>
0.0052

> <Gold.Chemscore.DEInternal>
1.3815

> <Gold.Chemscore.Rot>
1.4891

> <Gold.Chemscore.Internal.Correction>
   9.000000E+99

> <Gold.Chemscore.Hbonds>
donor molecule, donor type, donor heavy atom, donor atom, acceptor molecule, acceptor atom, score
      L1  H    15    47       P1  7948  0.98

> <Gold.Chemscore.Hbond.Weighted>
-3.3044

> <Gold.Chemscore.Metal.Weighted>
-0.0000

> <Gold.Chemscore.Lipo.Weighted>
-9.9088

> <Gold.Chemscore.Internal_Hbond.Weighted>
0.0000

> <Gold.Chemscore.DEClash.Weighted>
0.0052

> <Gold.Chemscore.DEInternal.Weighted>
1.3815

> <Gold.Chemscore.Rot.Weighted>
3.8121

> <Gold.Chemscore.Internal.Correction.Weighted>
   9.000000E+99

> <Gold.Protein.RotatedTorsions>
[ 6907 6896 6895 6894 ] final -174.93 input  -60.11 | X-H torsion
[ 7974 7965 7964 7962 ] final   28.84 input  175.53 | X-H torsion
[ 8008 7997 7996 7995 ] final  -30.68 input   59.86 | X-H torsion
[ 10167 10162 10161 10158 ] final    4.35 input  -65.29 | X-H torsion
[ 10718 10713 10712 10709 ] final -160.84 input   66.30 | X-H torsion
[ 10763 10752 10751 10750 ] final  -34.64 input  -60.55 | X-H torsion
[ 11005 11000 10999 10996 ] final -146.09 input  -57.11 | X-H torsion

> <Gold.Protein.ActiveResidues>
 VAL166  LYS551  ARG553  GLY616  TRP617  ASP618  TYR619  PRO620  LYS621  CYS622 
 ASP623  PHE694  ASN695  SER759  ASP760  ASP761  ALA762  ILE779  LEU786  VAL792 
 PHE793  MET794  SER795  GLU796  ALA797  LYS798  CYS799  TRP800  GLU811  SER814 

> <Gold.Protein.RotatedAtoms>
  151.5803  133.3378  159.3006 H   0  0  0  0  0  0  0  0  0  0  0  0  # atno 6907 bound_to 6896
  150.8317  134.7576  159.6870 H   0  0  0  0  0  0  0  0  0  0  0  0  # atno 6908 bound_to 6896
  152.4400  134.5617  159.9947 H   0  0  0  0  0  0  0  0  0  0  0  0  # atno 6909 bound_to 6896
  146.1706  139.7002  142.8970 H   0  0  0  0  0  0  0  0  0  0  0  0  # atno 7974 bound_to 7965
  154.4241  140.1785  156.1445 H   0  0  0  0  0  0  0  0  0  0  0  0  # atno 8008 bound_to 7997
  155.9965  140.3364  155.6778 H   0  0  0  0  0  0  0  0  0  0  0  0  # atno 8009 bound_to 7997
  155.6302  140.0669  157.2642 H   0  0  0  0  0  0  0  0  0  0  0  0  # atno 8010 bound_to 7997
  140.6539  143.7476  150.7621 H   0  0  0  0  0  0  0  0  0  0  0  0  # atno 10167 bound_to 10162
  156.5878  130.8757  151.2882 H   0  0  0  0  0  0  0  0  0  0  0  0  # atno 10718 bound_to 10713
  153.8501  135.6849  153.4793 H   0  0  0  0  0  0  0  0  0  0  0  0  # atno 10763 bound_to 10752
  153.1402  135.4660  154.9482 H   0  0  0  0  0  0  0  0  0  0  0  0  # atno 10764 bound_to 10752
  154.7806  135.3267  154.7945 H   0  0  0  0  0  0  0  0  0  0  0  0  # atno 10765 bound_to 10752
  140.7855  134.3029  157.5031 H   0  0  0  0  0  0  0  0  0  0  0  0  # atno 11005 bound_to 11000
  145.4351  141.0418  143.2889 LP  0  0  0  0  0  0  0  0  0  0  0  0  # atno 17320 bound_to 7965
  144.8157  139.5881  143.7009 LP  0  0  0  0  0  0  0  0  0  0  0  0  # atno 17321 bound_to 7965
  140.1132  143.4680  152.2358 LP  0  0  0  0  0  0  0  0  0  0  0  0  # atno 17342 bound_to 10162
  139.5758  144.7487  151.3768 LP  0  0  0  0  0  0  0  0  0  0  0  0  # atno 17343 bound_to 10162
  157.7311  130.9695  150.1864 LP  0  0  0  0  0  0  0  0  0  0  0  0  # atno 17370 bound_to 10713
  156.2576  130.3707  149.8165 LP  0  0  0  0  0  0  0  0  0  0  0  0  # atno 17371 bound_to 10713
  139.8737  134.9344  156.3605 LP  0  0  0  0  0  0  0  0  0  0  0  0  # atno 17394 bound_to 11000
  140.9441  133.7495  156.0184 LP  0  0  0  0  0  0  0  0  0  0  0  0  # atno 17395 bound_to 11000

$$$$
