AV-unprocessed.smi:2298|AV-procd|sdf|9227|dock1
  -GOLD-   2272012443D 1   1.00000     0.00000
 Structure written by MMmdl.
 38 39  0  0  0  0  0  0  0  0  2 V2000
  150.6619  141.3649  156.0338 C   0  0  0  0  0  0  0  0  0  0  0  0
  149.4114  141.0927  155.2197 C   0  0  0  0  0  0  0  0  0  0  0  0
  148.5302  142.1052  155.0648 N   0  3  0  0  0  0  0  0  0  0  0  0
  147.3805  141.9794  154.3703 C   0  0  0  0  0  0  0  0  0  0  0  0
  147.0576  140.7507  153.7625 C   0  0  0  0  0  0  0  0  0  0  0  0
  147.9546  139.6582  153.8782 C   0  0  0  0  0  0  0  0  0  0  0  0
  147.6982  138.3780  153.3113 N   0  0  0  0  0  0  0  0  0  0  0  0
  146.5219  137.7442  153.1662 C   0  0  0  0  0  0  0  0  0  0  0  0
  145.4275  138.1894  153.5111 O   0  0  0  0  0  0  0  0  0  0  0  0
  146.6835  136.5521  152.5743 N   0  0  0  0  0  0  0  0  0  0  0  0
  145.6105  135.6126  152.2617 C   0  0  1  0  0  0  0  0  0  0  0  0
  145.1731  135.7990  150.7974 C   0  0  0  0  0  0  0  0  0  0  0  0
  144.0776  134.7934  150.4012 C   0  0  0  0  0  0  0  0  0  0  0  0
  144.4968  133.3366  150.6737 C   0  0  1  0  0  0  0  0  0  0  0  0
  145.5131  132.9469  149.7711 O   0  0  0  0  0  0  0  0  0  0  0  0
  144.9789  133.1487  152.1244 C   0  0  0  0  0  0  0  0  0  0  0  0
  146.0693  134.1623  152.5138 C   0  0  0  0  0  0  0  0  0  0  0  0
  149.1425  139.8344  154.6312 C   0  0  0  0  0  0  0  0  0  0  0  0
  150.2617  138.5277  154.8287 Cl  0  0  0  0  0  0  0  0  0  0  0  0
  144.7512  135.8274  152.9003 H   0  0  0  0  0  0  0  0  0  0  0  0
  143.6445  132.6802  150.4943 H   0  0  0  0  0  0  0  0  0  0  0  0
  151.5530  141.2018  155.4272 H   0  0  0  0  0  0  0  0  0  0  0  0
  150.7053  140.6997  156.8968 H   0  0  0  0  0  0  0  0  0  0  0  0
  150.6843  142.3925  156.3983 H   0  0  0  0  0  0  0  0  0  0  0  0
  146.7534  142.8580  154.3274 H   0  0  0  0  0  0  0  0  0  0  0  0
  146.1221  140.6674  153.2308 H   0  0  0  0  0  0  0  0  0  0  0  0
  148.4995  137.9203  152.9013 H   0  0  0  0  0  0  0  0  0  0  0  0
  147.6188  136.2682  152.3214 H   0  0  0  0  0  0  0  0  0  0  0  0
  144.8070  136.8149  150.6442 H   0  0  0  0  0  0  0  0  0  0  0  0
  146.0324  135.6796  150.1358 H   0  0  0  0  0  0  0  0  0  0  0  0
  143.1738  135.0143  150.9706 H   0  0  0  0  0  0  0  0  0  0  0  0
  143.8125  134.9216  149.3512 H   0  0  0  0  0  0  0  0  0  0  0  0
  145.6239  133.6317  149.1294 H   0  0  0  0  0  0  0  0  0  0  0  0
  144.1303  133.2688  152.7992 H   0  0  0  0  0  0  0  0  0  0  0  0
  145.3422  132.1313  152.2735 H   0  0  0  0  0  0  0  0  0  0  0  0
  146.9765  133.9571  151.9438 H   0  0  0  0  0  0  0  0  0  0  0  0
  146.3304  134.0268  153.5641 H   0  0  0  0  0  0  0  0  0  0  0  0
  148.7413  143.0048  155.4974 H   0  0  0  0  0  0  0  0  0  0  0  0
  1  2  1  0  0  0  0
  1 22  1  0  0  0  0
  1 23  1  0  0  0  0
  1 24  1  0  0  0  0
  2 18  1  0  0  0  0
  2  3  2  0  0  0  0
  3  4  1  0  0  0  0
  3 38  1  0  0  0  0
  4  5  2  0  0  0  0
  4 25  1  0  0  0  0
  5  6  1  0  0  0  0
  5 26  1  0  0  0  0
  6  7  1  0  0  0  0
  6 18  2  0  0  0  0
  7  8  1  0  0  0  0
  7 27  1  0  0  0  0
  8  9  2  0  0  0  0
  8 10  1  0  0  0  0
 10 11  1  0  0  0  0
 10 28  1  0  0  0  0
 11 20  1  0  0  0  0
 11 17  1  0  0  0  0
 11 12  1  0  0  0  0
 12 13  1  0  0  0  0
 12 29  1  0  0  0  0
 12 30  1  0  0  0  0
 13 14  1  0  0  0  0
 13 31  1  0  0  0  0
 13 32  1  0  0  0  0
 14 21  1  0  0  0  0
 14 15  1  0  0  0  0
 14 16  1  0  0  0  0
 15 33  1  0  0  0  0
 16 17  1  0  0  0  0
 16 34  1  0  0  0  0
 16 35  1  0  0  0  0
 17 36  1  0  0  0  0
 17 37  1  0  0  0  0
 18 19  1  0  0  0  0
M  CHG  1   3   1
M  END
> <s_m_source_file>
AV-unprocessed.smi

> <i_m_source_file_index>
2298

> <i_lp_mmshare_version>
43012

> <i_f3d_flags>
0

> <s_epik_input>
W0NIM11jMW5bY0hdW2NIXWMoYzFDbClbTkhdQyg9TylbTkhdW0NASF0yW0NIMl1bQ0gyXVtDQEhdKFtPSF0pW0NIMl1bQ0gyXTI=

> <s_epik_cmdline>
J2VwaWtfcHl0aG9uJywgJy1waCcsICc3LjAnLCAnLXRuJywgJzgnLCAnLW1hJywgJzIwMCcsICctbWV0YWxfYmluZGluZycsICctaW1hZScsICc8aW5maWxlLm1hZT4nLCAnLW9tYWUnLCAnPG91dGZpbGUubWFlPic=

> <r_epik_Ionization_Penalty>
2.42586

> <r_epik_Ionization_Penalty_Charging>
2.42584

> <r_epik_Ionization_Penalty_Neutral>
2.16148e-05

> <r_epik_State_Penalty>
2.58553

> <r_epik_Charging_Adjusted_Penalty>
5.01136

> <i_epik_Tot_Q>
1

> <i_epik_Tot_abs_Q>
1

> <r_epik_Metal_State_Penalty>
2.59536

> <b_epik_Metal_Only>
0

> <s_lp_Force_Field>
OPLS_2005

> <r_lp_Energy>
20.6895

> <b_lp_Chiralities_Consistent>
1

> <s_lp_Variant>
AV-unprocessed.smi:2298-4

> <Gold.Version>
5.8.1

> <Gold.Id.Protein>
6NUR|6NUR_protein|mol2

> <Gold.PLP.Fitness>
45.8957

> <Gold.PLP.PLP>
-33.6835

> <Gold.PLP.part.hbond>
-3.7548

> <Gold.PLP.part.metal>
0.0000

> <Gold.PLP.part.buried>
-4.2474

> <Gold.PLP.part.nonpolar>
-28.7625

> <Gold.PLP.part.repulsive>
1.1470

> <Gold.PLP.ligand.clash>
0.0000

> <Gold.PLP.ligand.torsion>
0.5702

> <Gold.PLP.Chemscore.Hbond>
4.4497

> <Gold.PLP.Chemscore.CHOScore>
0.0000

> <Gold.PLP.Chemscore.Metal>
0.0000

> <Gold.Chemscore.Hbonds>
donor molecule, donor type, donor heavy atom, donor atom, acceptor molecule, acceptor atom, score
      L1  H     3    38       P1  8028  2.00
      L1  H     7    27       P1  7948  0.82
      L1  H    10    28       P1  7948  0.68
      L1  H    15    33       P1  7921  1.00

> <Gold.PLP.Chemscore.Internal.Correction>
0.0034

> <Gold.Rescore>
     Score         DG    S(hbond)    S(metal)    S(lipo)     H(rot)  DE(clash)    DE(int)     intcor
     19.98     -22.48       3.47        0.00      77.52       1.43       0.92       1.57       ----

> <Gold.Chemscore.Fitness>
19.9840

> <Gold.Chemscore.DG>
-22.4803

> <Gold.Chemscore.ZeroCoef>
-5.4800

> <Gold.Chemscore.Hbond>
3.4730

> <Gold.Chemscore.Metal>
0.0000

> <Gold.Chemscore.Lipo>
77.5196

> <Gold.Chemscore.Internal_Hbond>
0.0000

> <Gold.Chemscore.DEClash>
0.9236

> <Gold.Chemscore.DEInternal>
1.5727

> <Gold.Chemscore.Rot>
1.4333

> <Gold.Chemscore.Internal.Correction>
   9.000000E+99

> <Gold.Chemscore.Hbonds>
donor molecule, donor type, donor heavy atom, donor atom, acceptor molecule, acceptor atom, score
      L1  H     3    38       P1  8028  0.99
      L1  H     7    27       P1  7948  0.77
      L1  H    10    28       P1  7948  0.67
      L1  H    15    33       P1  7921  0.29

> <Gold.Chemscore.Hbond.Weighted>
-11.5998

> <Gold.Chemscore.Metal.Weighted>
-0.0000

> <Gold.Chemscore.Lipo.Weighted>
-9.0698

> <Gold.Chemscore.Internal_Hbond.Weighted>
0.0000

> <Gold.Chemscore.DEClash.Weighted>
0.9236

> <Gold.Chemscore.DEInternal.Weighted>
1.5727

> <Gold.Chemscore.Rot.Weighted>
3.6693

> <Gold.Chemscore.Internal.Correction.Weighted>
   9.000000E+99

> <Gold.Protein.RotatedTorsions>
[ 6907 6896 6895 6894 ] final  131.88 input  -60.11 | X-H torsion
[ 7974 7965 7964 7962 ] final   29.79 input  175.53 | X-H torsion
[ 8008 7997 7996 7995 ] final -108.21 input   59.86 | X-H torsion
[ 10167 10162 10161 10158 ] final  113.85 input  -65.29 | X-H torsion
[ 10718 10713 10712 10709 ] final  142.62 input   66.30 | X-H torsion
[ 10763 10752 10751 10750 ] final   74.70 input  -60.55 | X-H torsion
[ 11005 11000 10999 10996 ] final -129.84 input  -57.11 | X-H torsion

> <Gold.Protein.ActiveResidues>
 VAL166  LYS551  ARG553  GLY616  TRP617  ASP618  TYR619  PRO620  LYS621  CYS622 
 ASP623  PHE694  ASN695  SER759  ASP760  ASP761  ALA762  ILE779  LEU786  VAL792 
 PHE793  MET794  SER795  GLU796  ALA797  LYS798  CYS799  TRP800  GLU811  SER814 

> <Gold.Protein.RotatedAtoms>
  152.3381  133.6035  159.5856 H   0  0  0  0  0  0  0  0  0  0  0  0  # atno 6907 bound_to 6896
  150.7462  133.9765  159.3571 H   0  0  0  0  0  0  0  0  0  0  0  0  # atno 6908 bound_to 6896
  151.7632  135.0805  160.0400 H   0  0  0  0  0  0  0  0  0  0  0  0  # atno 6909 bound_to 6896
  146.1650  139.6874  142.9007 H   0  0  0  0  0  0  0  0  0  0  0  0  # atno 7974 bound_to 7965
  154.9409  140.0403  157.2096 H   0  0  0  0  0  0  0  0  0  0  0  0  # atno 8008 bound_to 7997
  154.8070  140.2861  155.5858 H   0  0  0  0  0  0  0  0  0  0  0  0  # atno 8009 bound_to 7997
  156.2967  140.2544  156.2950 H   0  0  0  0  0  0  0  0  0  0  0  0  # atno 8010 bound_to 7997
  139.6431  144.7125  151.2197 H   0  0  0  0  0  0  0  0  0  0  0  0  # atno 10167 bound_to 10162
  157.3785  131.0989  151.0761 H   0  0  0  0  0  0  0  0  0  0  0  0  # atno 10718 bound_to 10713
  153.0605  135.5016  154.8081 H   0  0  0  0  0  0  0  0  0  0  0  0  # atno 10763 bound_to 10752
  154.6874  135.2978  154.9530 H   0  0  0  0  0  0  0  0  0  0  0  0  # atno 10764 bound_to 10752
  154.0296  135.6731  153.4832 H   0  0  0  0  0  0  0  0  0  0  0  0  # atno 10765 bound_to 10752
  140.9397  134.1209  157.4161 H   0  0  0  0  0  0  0  0  0  0  0  0  # atno 11005 bound_to 11000
  145.4490  141.0427  143.2815 LP  0  0  0  0  0  0  0  0  0  0  0  0  # atno 17320 bound_to 7965
  144.8080  139.6015  143.7042 LP  0  0  0  0  0  0  0  0  0  0  0  0  # atno 17321 bound_to 7965
  140.7501  143.6277  150.8452 LP  0  0  0  0  0  0  0  0  0  0  0  0  # atno 17342 bound_to 10162
  139.9917  143.5840  152.2908 LP  0  0  0  0  0  0  0  0  0  0  0  0  # atno 17343 bound_to 10162
  157.1839  130.6322  149.5681 LP  0  0  0  0  0  0  0  0  0  0  0  0  # atno 17370 bound_to 10713
  155.9770  130.4744  150.6568 LP  0  0  0  0  0  0  0  0  0  0  0  0  # atno 17371 bound_to 10713
  139.8817  135.0032  156.6176 LP  0  0  0  0  0  0  0  0  0  0  0  0  # atno 17394 bound_to 11000
  140.7750  133.8706  155.8522 LP  0  0  0  0  0  0  0  0  0  0  0  0  # atno 17395 bound_to 11000

$$$$
