AV-unprocessed.smi:196|AV-procd|sdf|1528|dock9
  -GOLD-   2262019373D 1   1.00000     0.00000
 Structure written by MMmdl.
 47 50  0  0  0  0  0  0  0  0  1 V2000
  152.2466  139.8214  157.9500 C   0  0  0  0  0  0  0  0  0  0  0  0
  151.4498  140.5043  156.8275 C   0  0  2  0  0  0  0  0  0  0  0  0
  150.5321  141.4114  157.4317 O   0  0  0  0  0  0  0  0  0  0  0  0
  149.4055  141.5466  156.5844 C   0  0  0  0  0  0  0  0  0  0  0  0
  149.1739  140.1159  156.1239 C   0  0  0  0  0  0  0  0  0  0  0  0
  150.5905  139.5853  155.9131 C   0  0  1  0  0  0  0  0  0  0  0  0
  150.9532  139.8523  154.5688 O   0  0  0  0  0  0  0  0  0  0  0  0
  150.7187  138.0582  156.1559 C   0  0  0  0  0  0  0  0  0  0  0  0
  150.1272  137.6214  157.4112 N   0  0  0  0  0  0  0  0  0  0  0  0
  150.7971  137.2012  158.5373 C   0  0  0  0  0  0  0  0  0  0  0  0
  150.0371  136.8683  159.5440 N   0  0  0  0  0  0  0  0  0  0  0  0
  148.7420  137.0597  159.0750 C   0  0  0  0  0  0  0  0  0  0  0  0
  147.4434  136.8993  159.6409 C   0  0  0  0  0  0  0  0  0  0  0  0
  147.2282  136.4639  160.9115 N   0  0  0  0  0  0  0  0  0  0  0  0
  148.3020  135.7879  161.6301 C   0  0  0  0  0  0  0  0  0  0  0  0
  147.6143  134.7503  162.5173 C   0  0  2  0  0  0  0  0  0  0  0  0
  147.5204  133.5944  161.8577 F   0  0  0  0  0  0  0  0  0  0  0  0
  146.2196  135.3330  162.7230 C   0  0  0  0  0  0  0  0  0  0  0  0
  145.9108  136.0293  161.3871 C   0  0  1  0  0  0  0  0  0  0  0  0
  144.9337  137.1997  161.5816 C   0  0  0  0  0  0  0  0  0  0  0  0
  143.7236  136.9000  162.0588 N   0  0  0  0  0  0  0  0  0  0  0  0
  145.2662  138.3547  161.3198 O   0  0  0  0  0  0  0  0  0  0  0  0
  146.3804  137.2130  158.8531 N   0  0  0  0  0  0  0  0  0  0  0  0
  146.5649  137.6427  157.6020 C   0  0  0  0  0  0  0  0  0  0  0  0
  147.7107  137.8342  156.9468 N   0  0  0  0  0  0  0  0  0  0  0  0
  148.7839  137.5325  157.7320 C   0  0  0  0  0  0  0  0  0  0  0  0
  148.1475  134.5563  163.4484 H   0  0  0  0  0  0  0  0  0  0  0  0
  145.4975  135.2993  160.6885 H   0  0  0  0  0  0  0  0  0  0  0  0
  152.9795  139.1206  157.5502 H   0  0  0  0  0  0  0  0  0  0  0  0
  151.5930  139.2805  158.6345 H   0  0  0  0  0  0  0  0  0  0  0  0
  152.7915  140.5610  158.5371 H   0  0  0  0  0  0  0  0  0  0  0  0
  152.1430  141.0960  156.2263 H   0  0  0  0  0  0  0  0  0  0  0  0
  148.5494  141.9643  157.1144 H   0  0  0  0  0  0  0  0  0  0  0  0
  149.6478  142.1982  155.7435 H   0  0  0  0  0  0  0  0  0  0  0  0
  148.6830  139.5673  156.9286 H   0  0  0  0  0  0  0  0  0  0  0  0
  148.5388  140.0464  155.2396 H   0  0  0  0  0  0  0  0  0  0  0  0
  150.7044  139.1115  154.0373 H   0  0  0  0  0  0  0  0  0  0  0  0
  150.2464  137.5015  155.3458 H   0  0  0  0  0  0  0  0  0  0  0  0
  151.7674  137.7599  156.1657 H   0  0  0  0  0  0  0  0  0  0  0  0
  151.8749  137.1557  158.5926 H   0  0  0  0  0  0  0  0  0  0  0  0
  149.0315  135.3201  160.9671 H   0  0  0  0  0  0  0  0  0  0  0  0
  148.8228  136.5258  162.2416 H   0  0  0  0  0  0  0  0  0  0  0  0
  145.4816  134.5729  162.9815 H   0  0  0  0  0  0  0  0  0  0  0  0
  146.2520  136.0546  163.5416 H   0  0  0  0  0  0  0  0  0  0  0  0
  143.0463  137.6327  162.2128 H   0  0  0  0  0  0  0  0  0  0  0  0
  143.4937  135.9402  162.2715 H   0  0  0  0  0  0  0  0  0  0  0  0
  145.6654  137.8646  157.0471 H   0  0  0  0  0  0  0  0  0  0  0  0
  1  2  1  0  0  0  0
  1 29  1  0  0  0  0
  1 30  1  0  0  0  0
  1 31  1  0  0  0  0
  2  6  1  0  0  0  0
  2  3  1  0  0  0  0
  2 32  1  0  0  0  0
  3  4  1  0  0  0  0
  4  5  1  0  0  0  0
  4 33  1  0  0  0  0
  4 34  1  0  0  0  0
  5  6  1  0  0  0  0
  5 35  1  0  0  0  0
  5 36  1  0  0  0  0
  6  7  1  0  0  0  0
  6  8  1  0  0  0  0
  7 37  1  0  0  0  0
  8  9  1  0  0  0  0
  8 38  1  0  0  0  0
  8 39  1  0  0  0  0
  9 26  1  0  0  0  0
  9 10  1  0  0  0  0
 10 11  2  0  0  0  0
 10 40  1  0  0  0  0
 11 12  1  0  0  0  0
 12 26  2  0  0  0  0
 12 13  1  0  0  0  0
 13 14  1  0  0  0  0
 13 23  2  0  0  0  0
 14 19  1  0  0  0  0
 14 15  1  0  0  0  0
 15 16  1  0  0  0  0
 15 41  1  0  0  0  0
 15 42  1  0  0  0  0
 16 27  1  0  0  0  0
 16 17  1  0  0  0  0
 16 18  1  0  0  0  0
 18 19  1  0  0  0  0
 18 43  1  0  0  0  0
 18 44  1  0  0  0  0
 19 28  1  0  0  0  0
 19 20  1  0  0  0  0
 20 21  1  0  0  0  0
 20 22  2  0  0  0  0
 21 45  1  0  0  0  0
 21 46  1  0  0  0  0
 23 24  1  0  0  0  0
 24 25  2  0  0  0  0
 24 47  1  0  0  0  0
 25 26  1  0  0  0  0
M  END
> <s_m_source_file>
AV-unprocessed.smi

> <i_m_source_file_index>
196

> <i_lp_mmshare_version>
43012

> <i_f3d_flags>
0

> <s_epik_input>
W0NIMl0xW0NIMl1PW0NAQEhdKFtDSDNdKVtDQEBdMShbT0hdKVtDSDJdbihbY0hdbjIpYyhjMjMpbltjSF1uYzNONFtDSDJdW0NASF0oRilbQ0gyXVtDQEhdNEMoPU8pW05IMl0=

> <s_epik_cmdline>
J2VwaWtfcHl0aG9uJywgJy1waCcsICc3LjAnLCAnLXRuJywgJzgnLCAnLW1hJywgJzIwMCcsICctbWV0YWxfYmluZGluZycsICctaW1hZScsICc8aW5maWxlLm1hZT4nLCAnLW9tYWUnLCAnPG91dGZpbGUubWFlPic=

> <r_lp_tautomer_probability>
1

> <r_epik_Ionization_Penalty>
0.000857933

> <r_epik_Ionization_Penalty_Charging>
0

> <r_epik_Ionization_Penalty_Neutral>
0.000857933

> <r_epik_State_Penalty>
0.000462053

> <r_epik_Charging_Adjusted_Penalty>
0.000462053

> <i_epik_Tot_Q>
0

> <i_epik_Tot_abs_Q>
0

> <r_epik_Metal_State_Penalty>
-0

> <b_epik_Metal_Only>
0

> <s_lp_Force_Field>
OPLS_2005

> <r_lp_Energy>
42.3005

> <b_lp_Chiralities_Consistent>
1

> <s_lp_Variant>
AV-unprocessed.smi:196-1

> <Gold.Version>
5.8.1

> <Gold.Id.Protein>
6NUR|6NUR_protein|mol2

> <Gold.PLP.Fitness>
38.3200

> <Gold.PLP.PLP>
-32.3524

> <Gold.PLP.part.hbond>
-2.8110

> <Gold.PLP.part.metal>
0.0000

> <Gold.PLP.part.buried>
-7.4825

> <Gold.PLP.part.nonpolar>
-23.0673

> <Gold.PLP.part.repulsive>
0.1890

> <Gold.PLP.ligand.clash>
0.0000

> <Gold.PLP.ligand.torsion>
0.3292

> <Gold.PLP.Chemscore.Hbond>
2.1241

> <Gold.PLP.Chemscore.CHOScore>
0.0000

> <Gold.PLP.Chemscore.Metal>
0.0000

> <Gold.Chemscore.Hbonds>
donor molecule, donor type, donor heavy atom, donor atom, acceptor molecule, acceptor atom, score
      P1  H  6896  6909       L1    11  0.53
      P1  H  6934  6947       L1    22  0.54
      P1  H  7989  7998       L1     7  1.00

> <Gold.PLP.Chemscore.Internal.Correction>
0.2537

> <Gold.Rescore>
     Score         DG    S(hbond)    S(metal)    S(lipo)     H(rot)  DE(clash)    DE(int)     intcor
      8.42     -14.42       2.46        0.00      62.92       2.60       0.92       5.08       ----

> <Gold.Chemscore.Fitness>
8.4158

> <Gold.Chemscore.DG>
-14.4151

> <Gold.Chemscore.ZeroCoef>
-5.4800

> <Gold.Chemscore.Hbond>
2.4613

> <Gold.Chemscore.Metal>
0.0000

> <Gold.Chemscore.Lipo>
62.9238

> <Gold.Chemscore.Internal_Hbond>
0.0000

> <Gold.Chemscore.DEClash>
0.9210

> <Gold.Chemscore.DEInternal>
5.0782

> <Gold.Chemscore.Rot>
2.5968

> <Gold.Chemscore.Internal.Correction>
   9.000000E+99

> <Gold.Chemscore.Hbonds>
donor molecule, donor type, donor heavy atom, donor atom, acceptor molecule, acceptor atom, score
      P1  H  6896  6909       L1    11  0.06
      P1  H  6934  6947       L1    22  0.51
      P1  H  7989  7998       L1     7  0.39

> <Gold.Chemscore.Hbond.Weighted>
-8.2207

> <Gold.Chemscore.Metal.Weighted>
-0.0000

> <Gold.Chemscore.Lipo.Weighted>
-7.3621

> <Gold.Chemscore.Internal_Hbond.Weighted>
0.0000

> <Gold.Chemscore.DEClash.Weighted>
0.9210

> <Gold.Chemscore.DEInternal.Weighted>
5.0782

> <Gold.Chemscore.Rot.Weighted>
6.6477

> <Gold.Chemscore.Internal.Correction.Weighted>
   9.000000E+99

> <Gold.Protein.RotatedTorsions>
[ 6907 6896 6895 6894 ] final   76.16 input  -60.11 | X-H torsion
[ 7974 7965 7964 7962 ] final  -72.86 input  175.53 | X-H torsion
[ 8008 7997 7996 7995 ] final   76.66 input   59.86 | X-H torsion
[ 10167 10162 10161 10158 ] final   86.51 input  -65.29 | X-H torsion
[ 10718 10713 10712 10709 ] final -112.83 input   66.30 | X-H torsion
[ 10763 10752 10751 10750 ] final -123.53 input  -60.55 | X-H torsion
[ 11005 11000 10999 10996 ] final   17.73 input  -57.11 | X-H torsion

> <Gold.Protein.ActiveResidues>
 VAL166  LYS551  ARG553  GLY616  TRP617  ASP618  TYR619  PRO620  LYS621  CYS622 
 ASP623  PHE694  ASN695  SER759  ASP760  ASP761  ALA762  ILE779  LEU786  VAL792 
 PHE793  MET794  SER795  GLU796  ALA797  LYS798  CYS799  TRP800  GLU811  SER814 

> <Gold.Protein.RotatedAtoms>
  152.5060  134.4010  159.9416 H   0  0  0  0  0  0  0  0  0  0  0  0  # atno 6907 bound_to 6896
  151.3974  133.3762  159.2736 H   0  0  0  0  0  0  0  0  0  0  0  0  # atno 6908 bound_to 6896
  150.9387  134.8819  159.7657 H   0  0  0  0  0  0  0  0  0  0  0  0  # atno 6909 bound_to 6896
  145.6596  140.9257  143.0941 H   0  0  0  0  0  0  0  0  0  0  0  0  # atno 7974 bound_to 7965
  155.8305  140.3466  155.5569 H   0  0  0  0  0  0  0  0  0  0  0  0  # atno 8008 bound_to 7997
  155.8247  140.0918  157.1848 H   0  0  0  0  0  0  0  0  0  0  0  0  # atno 8009 bound_to 7997
  154.4004  140.1423  156.3529 H   0  0  0  0  0  0  0  0  0  0  0  0  # atno 8010 bound_to 7997
  139.8868  144.6408  150.8782 H   0  0  0  0  0  0  0  0  0  0  0  0  # atno 10167 bound_to 10162
  156.0729  130.5940  150.8561 H   0  0  0  0  0  0  0  0  0  0  0  0  # atno 10718 bound_to 10713
  154.8709  135.4095  154.2958 H   0  0  0  0  0  0  0  0  0  0  0  0  # atno 10763 bound_to 10752
  153.3826  135.7012  153.6559 H   0  0  0  0  0  0  0  0  0  0  0  0  # atno 10764 bound_to 10752
  153.5375  135.3655  155.2675 H   0  0  0  0  0  0  0  0  0  0  0  0  # atno 10765 bound_to 10752
  140.4327  134.1404  155.7682 H   0  0  0  0  0  0  0  0  0  0  0  0  # atno 11005 bound_to 11000
  144.7093  139.8432  143.7419 LP  0  0  0  0  0  0  0  0  0  0  0  0  # atno 17320 bound_to 7965
  146.1136  139.4144  143.0272 LP  0  0  0  0  0  0  0  0  0  0  0  0  # atno 17321 bound_to 7965
  140.7734  143.3542  151.1955 LP  0  0  0  0  0  0  0  0  0  0  0  0  # atno 17342 bound_to 10162
  139.7146  143.9322  152.2961 LP  0  0  0  0  0  0  0  0  0  0  0  0  # atno 17343 bound_to 10162
  157.5810  131.0946  150.9271 LP  0  0  0  0  0  0  0  0  0  0  0  0  # atno 17370 bound_to 10713
  156.9467  130.5404  149.5281 LP  0  0  0  0  0  0  0  0  0  0  0  0  # atno 17371 bound_to 10713
  141.1739  133.8554  157.1484 LP  0  0  0  0  0  0  0  0  0  0  0  0  # atno 17394 bound_to 11000
  140.0123  134.9982  157.0422 LP  0  0  0  0  0  0  0  0  0  0  0  0  # atno 17395 bound_to 11000

$$$$
