AV-unprocessed.smi:695|AV-procd|sdf|3384|dock7
  -GOLD-   22720 0363D 1   1.00000     0.00000
 Structure written by MMmdl.
 38 39  0  0  0  0  0  0  0  0  1 V2000
  146.7013  139.1506  151.5368 C   0  0  0  0  0  0  0  0  0  0  0  0
  147.1724  139.2688  152.9926 C   0  0  0  0  0  0  0  0  0  0  0  0
  148.3432  138.4360  153.2394 N   0  0  0  0  0  0  0  0  0  0  0  0
  148.9565  138.3102  154.4242 C   0  0  0  0  0  0  0  0  0  0  0  0
  148.5699  138.8507  155.4607 O   0  0  0  0  0  0  0  0  0  0  0  0
  150.0565  137.5481  154.3359 N   0  0  0  0  0  0  0  0  0  0  0  0
  150.9857  137.2715  155.4292 C   0  0  0  0  0  0  0  0  0  0  0  0
  152.1321  138.2999  155.5020 C   0  0  0  0  0  0  0  0  0  0  0  0
  151.7276  139.6046  156.1241 C   0  0  0  0  0  0  0  0  0  0  0  0
  150.7949  140.4926  155.6468 C   0  0  0  0  0  0  0  0  0  0  0  0
  150.5829  141.8512  156.7161 S   0  0  0  0  0  0  0  0  0  0  0  0
  151.8059  141.1612  157.7787 C   0  0  0  0  0  0  0  0  0  0  0  0
  152.1938  141.7822  158.9624 N   0  0  0  0  0  0  0  0  0  0  0  0
  152.8792  141.1482  160.0845 C   0  0  0  0  0  0  0  0  0  0  0  0
  153.3722  142.2547  161.0131 C   0  0  0  0  0  0  0  0  0  0  0  0
  152.3277  143.3343  160.8062 C   0  0  0  0  0  0  0  0  0  0  0  0
  151.9912  143.1818  159.3244 C   0  0  0  0  0  0  0  0  0  0  0  0
  152.3048  140.0058  157.3327 N   0  0  0  0  0  0  0  0  0  0  0  0
  145.8077  139.7520  151.3689 H   0  0  0  0  0  0  0  0  0  0  0  0
  146.4592  138.1181  151.2837 H   0  0  0  0  0  0  0  0  0  0  0  0
  147.4676  139.4950  150.8414 H   0  0  0  0  0  0  0  0  0  0  0  0
  147.3862  140.3099  153.2395 H   0  0  0  0  0  0  0  0  0  0  0  0
  146.3769  138.9473  153.6649 H   0  0  0  0  0  0  0  0  0  0  0  0
  148.7333  137.9503  152.4452 H   0  0  0  0  0  0  0  0  0  0  0  0
  150.2849  137.1504  153.4367 H   0  0  0  0  0  0  0  0  0  0  0  0
  150.4556  137.2285  156.3823 H   0  0  0  0  0  0  0  0  0  0  0  0
  151.4016  136.2766  155.2695 H   0  0  0  0  0  0  0  0  0  0  0  0
  152.9603  137.8666  156.0639 H   0  0  0  0  0  0  0  0  0  0  0  0
  152.5197  138.4738  154.4976 H   0  0  0  0  0  0  0  0  0  0  0  0
  150.2060  140.4186  154.7447 H   0  0  0  0  0  0  0  0  0  0  0  0
  152.1687  140.5029  160.6026 H   0  0  0  0  0  0  0  0  0  0  0  0
  153.7047  140.5249  159.7398 H   0  0  0  0  0  0  0  0  0  0  0  0
  153.4587  141.9323  162.0509 H   0  0  0  0  0  0  0  0  0  0  0  0
  154.3485  142.6128  160.6835 H   0  0  0  0  0  0  0  0  0  0  0  0
  151.4469  143.1200  161.4131 H   0  0  0  0  0  0  0  0  0  0  0  0
  152.6842  144.3323  161.0619 H   0  0  0  0  0  0  0  0  0  0  0  0
  152.6580  143.7953  158.7176 H   0  0  0  0  0  0  0  0  0  0  0  0
  150.9681  143.4983  159.1196 H   0  0  0  0  0  0  0  0  0  0  0  0
  1  2  1  0  0  0  0
  1 19  1  0  0  0  0
  1 20  1  0  0  0  0
  1 21  1  0  0  0  0
  2  3  1  0  0  0  0
  2 22  1  0  0  0  0
  2 23  1  0  0  0  0
  3  4  1  0  0  0  0
  3 24  1  0  0  0  0
  4  5  2  0  0  0  0
  4  6  1  0  0  0  0
  6  7  1  0  0  0  0
  6 25  1  0  0  0  0
  7  8  1  0  0  0  0
  7 26  1  0  0  0  0
  7 27  1  0  0  0  0
  8  9  1  0  0  0  0
  8 28  1  0  0  0  0
  8 29  1  0  0  0  0
  9 18  1  0  0  0  0
  9 10  2  0  0  0  0
 10 11  1  0  0  0  0
 10 30  1  0  0  0  0
 11 12  1  0  0  0  0
 12 13  1  0  0  0  0
 12 18  2  0  0  0  0
 13 17  1  0  0  0  0
 13 14  1  0  0  0  0
 14 15  1  0  0  0  0
 14 31  1  0  0  0  0
 14 32  1  0  0  0  0
 15 16  1  0  0  0  0
 15 33  1  0  0  0  0
 15 34  1  0  0  0  0
 16 17  1  0  0  0  0
 16 35  1  0  0  0  0
 16 36  1  0  0  0  0
 17 37  1  0  0  0  0
 17 38  1  0  0  0  0
M  END
> <s_m_source_file>
AV-unprocessed.smi

> <i_m_source_file_index>
695

> <i_lp_mmshare_version>
43012

> <i_f3d_flags>
0

> <s_epik_input>
W0NIM11bQ0gyXVtOSF1DKD1PKVtOSF1bQ0gyXVtDSDJdYzFbY0hdc2MobjEpTjJbQ0gyXVtDSDJdW0NIMl1bQ0gyXTI=

> <s_epik_cmdline>
J2VwaWtfcHl0aG9uJywgJy1waCcsICc3LjAnLCAnLXRuJywgJzgnLCAnLW1hJywgJzIwMCcsICctbWV0YWxfYmluZGluZycsICctaW1hZScsICc8aW5maWxlLm1hZT4nLCAnLW9tYWUnLCAnPG91dGZpbGUubWFlPic=

> <r_epik_Ionization_Penalty>
0.166233

> <r_epik_Ionization_Penalty_Charging>
0

> <r_epik_Ionization_Penalty_Neutral>
0.166233

> <r_epik_State_Penalty>
0.155475

> <r_epik_Charging_Adjusted_Penalty>
0.155475

> <i_epik_Tot_Q>
0

> <i_epik_Tot_abs_Q>
0

> <r_epik_Metal_State_Penalty>
0.121092

> <b_epik_Metal_Only>
0

> <s_lp_Force_Field>
OPLS_2005

> <r_lp_Energy>
13.2485

> <b_lp_Chiralities_Consistent>
1

> <s_lp_Variant>
AV-unprocessed.smi:695-1

> <Gold.Version>
5.8.1

> <Gold.Id.Protein>
6NUR|6NUR_protein|mol2

> <Gold.PLP.Fitness>
46.4576

> <Gold.PLP.PLP>
-41.8338

> <Gold.PLP.part.hbond>
-4.0000

> <Gold.PLP.part.metal>
0.0000

> <Gold.PLP.part.buried>
-1.1051

> <Gold.PLP.part.nonpolar>
-36.9446

> <Gold.PLP.part.repulsive>
0.1622

> <Gold.PLP.ligand.clash>
0.0000

> <Gold.PLP.ligand.torsion>
0.4399

> <Gold.PLP.Chemscore.Hbond>
1.8241

> <Gold.PLP.Chemscore.CHOScore>
0.0000

> <Gold.PLP.Chemscore.Metal>
0.0000

> <Gold.Chemscore.Hbonds>
donor molecule, donor type, donor heavy atom, donor atom, acceptor molecule, acceptor atom, score
      L1  H     3    24       P1  7948  0.80
      L1  H     6    25       P1  7948  0.27
      P1  H  7997  8010       L1    18  0.56

> <Gold.PLP.Chemscore.Internal.Correction>
0.0313

> <Gold.Rescore>
     Score         DG    S(hbond)    S(metal)    S(lipo)     H(rot)  DE(clash)    DE(int)     intcor
     16.08     -16.88       1.35        0.00      95.95       1.70       0.40       0.41       ----

> <Gold.Chemscore.Fitness>
16.0753

> <Gold.Chemscore.DG>
-16.8821

> <Gold.Chemscore.ZeroCoef>
-5.4800

> <Gold.Chemscore.Hbond>
1.3528

> <Gold.Chemscore.Metal>
0.0000

> <Gold.Chemscore.Lipo>
95.9521

> <Gold.Chemscore.Internal_Hbond>
0.0000

> <Gold.Chemscore.DEClash>
0.3992

> <Gold.Chemscore.DEInternal>
0.4076

> <Gold.Chemscore.Rot>
1.6963

> <Gold.Chemscore.Internal.Correction>
   9.000000E+99

> <Gold.Chemscore.Hbonds>
donor molecule, donor type, donor heavy atom, donor atom, acceptor molecule, acceptor atom, score
      L1  H     3    24       P1  7948  0.80
      L1  H     6    25       P1  7948  0.03
      P1  H  7997  8010       L1    18  0.10

> <Gold.Chemscore.Hbond.Weighted>
-4.5184

> <Gold.Chemscore.Metal.Weighted>
-0.0000

> <Gold.Chemscore.Lipo.Weighted>
-11.2264

> <Gold.Chemscore.Internal_Hbond.Weighted>
0.0000

> <Gold.Chemscore.DEClash.Weighted>
0.3992

> <Gold.Chemscore.DEInternal.Weighted>
0.4076

> <Gold.Chemscore.Rot.Weighted>
4.3426

> <Gold.Chemscore.Internal.Correction.Weighted>
   9.000000E+99

> <Gold.Protein.RotatedTorsions>
[ 6907 6896 6895 6894 ] final -167.22 input  -60.11 | X-H torsion
[ 7974 7965 7964 7962 ] final  -76.34 input  175.53 | X-H torsion
[ 8008 7997 7996 7995 ] final   58.32 input   59.86 | X-H torsion
[ 10167 10162 10161 10158 ] final  -77.60 input  -65.29 | X-H torsion
[ 10718 10713 10712 10709 ] final   78.51 input   66.30 | X-H torsion
[ 10763 10752 10751 10750 ] final   28.50 input  -60.55 | X-H torsion
[ 11005 11000 10999 10996 ] final   10.18 input  -57.11 | X-H torsion

> <Gold.Protein.ActiveResidues>
 VAL166  LYS551  ARG553  GLY616  TRP617  ASP618  TYR619  PRO620  LYS621  CYS622 
 ASP623  PHE694  ASN695  SER759  ASP760  ASP761  ALA762  ILE779  LEU786  VAL792 
 PHE793  MET794  SER795  GLU796  ALA797  LYS798  CYS799  TRP800  GLU811  SER814 

> <Gold.Protein.RotatedAtoms>
  151.4561  133.3605  159.2801 H   0  0  0  0  0  0  0  0  0  0  0  0  # atno 6907 bound_to 6896
  150.9058  134.8474  159.7402 H   0  0  0  0  0  0  0  0  0  0  0  0  # atno 6908 bound_to 6896
  152.4905  134.4485  159.9619 H   0  0  0  0  0  0  0  0  0  0  0  0  # atno 6909 bound_to 6896
  145.6142  140.9379  143.1173 H   0  0  0  0  0  0  0  0  0  0  0  0  # atno 7974 bound_to 7965
  155.5481  140.3486  155.4462 H   0  0  0  0  0  0  0  0  0  0  0  0  # atno 8008 bound_to 7997
  156.0603  140.1338  156.9975 H   0  0  0  0  0  0  0  0  0  0  0  0  # atno 8009 bound_to 7997
  154.4476  140.0986  156.6492 H   0  0  0  0  0  0  0  0  0  0  0  0  # atno 8010 bound_to 7997
  140.4756  143.2415  151.8138 H   0  0  0  0  0  0  0  0  0  0  0  0  # atno 10167 bound_to 10162
  157.6747  130.9871  150.1796 H   0  0  0  0  0  0  0  0  0  0  0  0  # atno 10718 bound_to 10713
  153.0487  135.6511  154.0748 H   0  0  0  0  0  0  0  0  0  0  0  0  # atno 10763 bound_to 10752
  154.0441  135.2901  155.3352 H   0  0  0  0  0  0  0  0  0  0  0  0  # atno 10764 bound_to 10752
  154.6763  135.5337  153.8269 H   0  0  0  0  0  0  0  0  0  0  0  0  # atno 10765 bound_to 10752
  140.5174  134.0593  155.7835 H   0  0  0  0  0  0  0  0  0  0  0  0  # atno 11005 bound_to 11000
  144.7257  139.7882  143.7365 LP  0  0  0  0  0  0  0  0  0  0  0  0  # atno 17320 bound_to 7965
  146.1481  139.4556  143.0066 LP  0  0  0  0  0  0  0  0  0  0  0  0  # atno 17321 bound_to 7965
  139.4825  144.4838  151.9273 LP  0  0  0  0  0  0  0  0  0  0  0  0  # atno 17342 bound_to 10162
  140.3923  144.2600  150.5899 LP  0  0  0  0  0  0  0  0  0  0  0  0  # atno 17343 bound_to 10162
  156.2532  130.3703  149.8210 LP  0  0  0  0  0  0  0  0  0  0  0  0  # atno 17370 bound_to 10713
  156.5977  130.8533  151.3424 LP  0  0  0  0  0  0  0  0  0  0  0  0  # atno 17371 bound_to 10713
  141.1353  133.9232  157.2447 LP  0  0  0  0  0  0  0  0  0  0  0  0  # atno 17394 bound_to 11000
  139.9625  135.0150  156.9299 LP  0  0  0  0  0  0  0  0  0  0  0  0  # atno 17395 bound_to 11000

$$$$
