AV-unprocessed.smi:1064|AV-procd|sdf|4665|dock5
  -GOLD-   22720 3173D 1   1.00000     0.00000
 Structure written by MMmdl.
 36 37  0  0  0  0  0  0  0  0  2 V2000
  149.7844  140.1765  154.1825 O   0  0  0  0  0  0  0  0  0  0  0  0
  149.0211  141.0453  154.6073 C   0  0  0  0  0  0  0  0  0  0  0  0
  149.3962  141.9180  155.5586 N   0  0  0  0  0  0  0  0  0  0  0  0
  150.7110  141.9649  156.1868 C   0  0  0  0  0  0  0  0  0  0  0  0
  150.6029  142.0094  157.7219 C   0  0  0  0  0  0  0  0  0  0  0  0
  151.1541  143.2597  158.3410 C   0  0  0  0  0  0  0  0  0  0  0  0
  150.8499  144.5159  157.9898 N   0  3  0  0  0  0  0  0  0  0  0  0
  151.5504  145.4099  158.7519 C   0  0  0  0  0  0  0  0  0  0  0  0
  152.3287  144.6675  159.6001 C   0  0  0  0  0  0  0  0  0  0  0  0
  152.0739  143.3497  159.3177 N   0  0  0  0  0  0  0  0  0  0  0  0
  152.6810  142.1899  159.9789 C   0  0  0  0  0  0  0  0  0  0  0  0
  153.4205  141.4985  159.1121 F   0  0  0  0  0  0  0  0  0  0  0  0
  153.4227  142.5772  161.0168 F   0  0  0  0  0  0  0  0  0  0  0  0
  147.7413  141.1864  154.1773 N   0  0  0  0  0  0  0  0  0  0  0  0
  146.8689  140.1059  153.6878 C   0  0  0  0  0  0  0  0  0  0  0  0
  145.9648  139.6289  154.8366 C   0  0  0  0  0  0  0  0  0  0  0  0
  144.8740  140.9700  155.4062 S   0  0  0  0  0  0  0  0  0  0  0  0
  146.1035  142.2944  155.6251 C   0  0  0  0  0  0  0  0  0  0  0  0
  146.9949  142.4340  154.3794 C   0  0  0  0  0  0  0  0  0  0  0  0
  148.7182  142.6008  155.8646 H   0  0  0  0  0  0  0  0  0  0  0  0
  151.3037  141.1073  155.8635 H   0  0  0  0  0  0  0  0  0  0  0  0
  151.2241  142.8558  155.8236 H   0  0  0  0  0  0  0  0  0  0  0  0
  149.5593  141.9319  158.0266 H   0  0  0  0  0  0  0  0  0  0  0  0
  151.1432  141.1784  158.1763 H   0  0  0  0  0  0  0  0  0  0  0  0
  151.4466  146.4788  158.6350 H   0  0  0  0  0  0  0  0  0  0  0  0
  153.0312  144.9725  160.3622 H   0  0  0  0  0  0  0  0  0  0  0  0
  151.8962  141.5320  160.3536 H   0  0  0  0  0  0  0  0  0  0  0  0
  146.2566  140.4695  152.8613 H   0  0  0  0  0  0  0  0  0  0  0  0
  147.4216  139.2624  153.2740 H   0  0  0  0  0  0  0  0  0  0  0  0
  145.3470  138.7913  154.5121 H   0  0  0  0  0  0  0  0  0  0  0  0
  146.5665  139.2771  155.6755 H   0  0  0  0  0  0  0  0  0  0  0  0
  145.5790  143.2290  155.8245 H   0  0  0  0  0  0  0  0  0  0  0  0
  146.7105  142.0750  156.5043 H   0  0  0  0  0  0  0  0  0  0  0  0
  147.6585  143.2927  154.4917 H   0  0  0  0  0  0  0  0  0  0  0  0
  146.3854  142.6546  153.5018 H   0  0  0  0  0  0  0  0  0  0  0  0
  150.1916  144.7656  157.2625 H   0  0  0  0  0  0  0  0  0  0  0  0
  1  2  2  0  0  0  0
  2  3  1  0  0  0  0
  2 14  1  0  0  0  0
  3  4  1  0  0  0  0
  3 20  1  0  0  0  0
  4  5  1  0  0  0  0
  4 21  1  0  0  0  0
  4 22  1  0  0  0  0
  5  6  1  0  0  0  0
  5 23  1  0  0  0  0
  5 24  1  0  0  0  0
  6 10  1  0  0  0  0
  6  7  2  0  0  0  0
  7  8  1  0  0  0  0
  7 36  1  0  0  0  0
  8  9  2  0  0  0  0
  8 25  1  0  0  0  0
  9 10  1  0  0  0  0
  9 26  1  0  0  0  0
 10 11  1  0  0  0  0
 11 12  1  0  0  0  0
 11 13  1  0  0  0  0
 11 27  1  0  0  0  0
 14 19  1  0  0  0  0
 14 15  1  0  0  0  0
 15 16  1  0  0  0  0
 15 28  1  0  0  0  0
 15 29  1  0  0  0  0
 16 17  1  0  0  0  0
 16 30  1  0  0  0  0
 16 31  1  0  0  0  0
 17 18  1  0  0  0  0
 18 19  1  0  0  0  0
 18 32  1  0  0  0  0
 18 33  1  0  0  0  0
 19 34  1  0  0  0  0
 19 35  1  0  0  0  0
M  CHG  1   7   1
M  END
> <s_m_source_file>
AV-unprocessed.smi

> <i_m_source_file_index>
1064

> <i_lp_mmshare_version>
43012

> <i_f3d_flags>
0

> <s_epik_input>
W0NIMl0xW0NIMl1TW0NIMl1bQ0gyXU4xQyg9TylbTkhdW0NIMl1bQ0gyXWMybltjSF1bY0hdbjJbQ0hdKEYpRg==

> <s_epik_cmdline>
J2VwaWtfcHl0aG9uJywgJy1waCcsICc3LjAnLCAnLXRuJywgJzgnLCAnLW1hJywgJzIwMCcsICctbWV0YWxfYmluZGluZycsICctaW1hZScsICc8aW5maWxlLm1hZT4nLCAnLW9tYWUnLCAnPG91dGZpbGUubWFlPic=

> <r_lp_tautomer_probability>
1

> <r_epik_Ionization_Penalty>
1.10071

> <r_epik_Ionization_Penalty_Charging>
0

> <r_epik_Ionization_Penalty_Neutral>
1.10071

> <r_epik_State_Penalty>
1.15778

> <r_epik_Charging_Adjusted_Penalty>
1.15778

> <i_epik_Tot_Q>
1

> <i_epik_Tot_abs_Q>
1

> <r_epik_Metal_State_Penalty>
1.24497

> <b_epik_Metal_Only>
0

> <s_lp_Force_Field>
OPLS_2005

> <r_lp_Energy>
29.6346

> <b_lp_Chiralities_Consistent>
1

> <s_lp_Variant>
AV-unprocessed.smi:1064-2

> <Gold.Version>
5.8.1

> <Gold.Id.Protein>
6NUR|6NUR_protein|mol2

> <Gold.PLP.Fitness>
52.1224

> <Gold.PLP.PLP>
-44.8633

> <Gold.PLP.part.hbond>
-3.0139

> <Gold.PLP.part.metal>
0.0000

> <Gold.PLP.part.buried>
-3.4965

> <Gold.PLP.part.nonpolar>
-39.5018

> <Gold.PLP.part.repulsive>
1.3041

> <Gold.PLP.ligand.clash>
0.9234

> <Gold.PLP.ligand.torsion>
0.8339

> <Gold.PLP.Chemscore.Hbond>
3.2615

> <Gold.PLP.Chemscore.CHOScore>
0.0000

> <Gold.PLP.Chemscore.Metal>
0.0000

> <Gold.Chemscore.Hbonds>
donor molecule, donor type, donor heavy atom, donor atom, acceptor molecule, acceptor atom, score
      L1  H     3    20       P1  8028  0.39
      L1  H     7    36       P1  8028  2.00
      P1  H  7989  7998       L1     1  0.77

> <Gold.PLP.Chemscore.Internal.Correction>
0.0661

> <Gold.Rescore>
     Score         DG    S(hbond)    S(metal)    S(lipo)     H(rot)  DE(clash)    DE(int)     intcor
     12.38     -14.76       1.50        0.00      72.52       1.65       1.55       0.83       ----

> <Gold.Chemscore.Fitness>
12.3830

> <Gold.Chemscore.DG>
-14.7569

> <Gold.Chemscore.ZeroCoef>
-5.4800

> <Gold.Chemscore.Hbond>
1.5038

> <Gold.Chemscore.Metal>
0.0000

> <Gold.Chemscore.Lipo>
72.5177

> <Gold.Chemscore.Internal_Hbond>
0.0000

> <Gold.Chemscore.DEClash>
1.5458

> <Gold.Chemscore.DEInternal>
0.8280

> <Gold.Chemscore.Rot>
1.6525

> <Gold.Chemscore.Internal.Correction>
   9.000000E+99

> <Gold.Chemscore.Hbonds>
donor molecule, donor type, donor heavy atom, donor atom, acceptor molecule, acceptor atom, score
      L1  H     3    20       P1  8028  0.40
      L1  H     7    36       P1  8028  0.24
      P1  H  7989  7998       L1     1  0.66

> <Gold.Chemscore.Hbond.Weighted>
-5.0227

> <Gold.Chemscore.Metal.Weighted>
-0.0000

> <Gold.Chemscore.Lipo.Weighted>
-8.4846

> <Gold.Chemscore.Internal_Hbond.Weighted>
0.0000

> <Gold.Chemscore.DEClash.Weighted>
1.5458

> <Gold.Chemscore.DEInternal.Weighted>
0.8280

> <Gold.Chemscore.Rot.Weighted>
4.2304

> <Gold.Chemscore.Internal.Correction.Weighted>
   9.000000E+99

> <Gold.Protein.RotatedTorsions>
[ 6907 6896 6895 6894 ] final   -5.55 input  -60.11 | X-H torsion
[ 7974 7965 7964 7962 ] final  -72.30 input  175.53 | X-H torsion
[ 8008 7997 7996 7995 ] final   88.85 input   59.86 | X-H torsion
[ 10167 10162 10161 10158 ] final   40.74 input  -65.29 | X-H torsion
[ 10718 10713 10712 10709 ] final  -20.09 input   66.30 | X-H torsion
[ 10763 10752 10751 10750 ] final -101.03 input  -60.55 | X-H torsion
[ 11005 11000 10999 10996 ] final   -9.08 input  -57.11 | X-H torsion

> <Gold.Protein.ActiveResidues>
 VAL166  LYS551  ARG553  GLY616  TRP617  ASP618  TYR619  PRO620  LYS621  CYS622 
 ASP623  PHE694  ASN695  SER759  ASP760  ASP761  ALA762  ILE779  LEU786  VAL792 
 PHE793  MET794  SER795  GLU796  ALA797  LYS798  CYS799  TRP800  GLU811  SER814 

> <Gold.Protein.RotatedAtoms>
  151.4798  135.1051  159.9774 H   0  0  0  0  0  0  0  0  0  0  0  0  # atno 6907 bound_to 6896
  152.4784  133.8189  159.7054 H   0  0  0  0  0  0  0  0  0  0  0  0  # atno 6908 bound_to 6896
  150.8837  133.7275  159.2951 H   0  0  0  0  0  0  0  0  0  0  0  0  # atno 6909 bound_to 6896
  145.6669  140.9234  143.0904 H   0  0  0  0  0  0  0  0  0  0  0  0  # atno 7974 bound_to 7965
  155.9928  140.3367  155.6769 H   0  0  0  0  0  0  0  0  0  0  0  0  # atno 8008 bound_to 7997
  155.6397  140.0694  157.2640 H   0  0  0  0  0  0  0  0  0  0  0  0  # atno 8009 bound_to 7997
  154.4224  140.1745  156.1547 H   0  0  0  0  0  0  0  0  0  0  0  0  # atno 8010 bound_to 7997
  140.3712  144.2103  150.6133 H   0  0  0  0  0  0  0  0  0  0  0  0  # atno 10167 bound_to 10162
  156.5366  130.4668  149.6520 H   0  0  0  0  0  0  0  0  0  0  0  0  # atno 10718 bound_to 10713
  154.7626  135.4913  153.9493 H   0  0  0  0  0  0  0  0  0  0  0  0  # atno 10763 bound_to 10752
  153.1269  135.6744  153.9250 H   0  0  0  0  0  0  0  0  0  0  0  0  # atno 10764 bound_to 10752
  153.8965  135.3115  155.3427 H   0  0  0  0  0  0  0  0  0  0  0  0  # atno 10765 bound_to 10752
  140.7303  133.8755  155.8888 H   0  0  0  0  0  0  0  0  0  0  0  0  # atno 11005 bound_to 11000
  144.7070  139.8521  143.7427 LP  0  0  0  0  0  0  0  0  0  0  0  0  # atno 17320 bound_to 7965
  146.1078  139.4080  143.0306 LP  0  0  0  0  0  0  0  0  0  0  0  0  # atno 17321 bound_to 7965
  140.5032  143.2312  151.8648 LP  0  0  0  0  0  0  0  0  0  0  0  0  # atno 17342 bound_to 10162
  139.4803  144.5036  151.9027 LP  0  0  0  0  0  0  0  0  0  0  0  0  # atno 17343 bound_to 10162
  156.3010  130.7177  151.2048 LP  0  0  0  0  0  0  0  0  0  0  0  0  # atno 17370 bound_to 10713
  157.7412  131.0506  150.5110 LP  0  0  0  0  0  0  0  0  0  0  0  0  # atno 17371 bound_to 10713
  140.9927  134.1257  157.4393 LP  0  0  0  0  0  0  0  0  0  0  0  0  # atno 17394 bound_to 11000
  139.8828  135.0045  156.6254 LP  0  0  0  0  0  0  0  0  0  0  0  0  # atno 17395 bound_to 11000

$$$$
