AV-unprocessed.smi:3237|AV-procd|sdf|12371|dock3
  -GOLD-   2272018233D 1   1.00000     0.00000
 Structure written by MMmdl.
 36 38  0  0  0  0  0  0  0  0  3 V2000
  149.1610  124.6521  150.0617 C   0  0  0  0  0  0  0  0  0  0  0  0
  148.8986  125.8819  150.8612 C   0  0  0  0  0  0  0  0  0  0  0  0
  148.2827  127.0663  150.5699 C   0  0  0  0  0  0  0  0  0  0  0  0
  148.3847  127.7897  151.7880 C   0  0  0  0  0  0  0  0  0  0  0  0
  147.8502  129.1006  151.8973 N   0  0  0  0  0  0  0  0  0  0  0  0
  146.6278  129.4809  152.3113 C   0  0  0  0  0  0  0  0  0  0  0  0
  145.7980  128.6369  152.6698 O   0  0  0  0  0  0  0  0  0  0  0  0
  146.4688  130.8327  152.2724 N   0  5  0  0  0  0  0  0  0  0  0  0
  145.1775  131.5214  152.2801 C   0  0  2  0  0  0  0  0  0  0  0  0
  144.4872  131.4733  150.9147 C   0  0  0  0  0  0  0  0  0  0  0  0
  143.6135  132.7355  150.8849 C   0  0  0  0  0  0  0  0  0  0  0  0
  144.1048  133.6195  151.9684 N   0  3  2  0  0  0  0  0  0  0  0  0
  144.2337  135.0420  151.5851 C   0  0  0  0  0  0  0  0  0  0  0  0
  144.3795  135.2562  150.0975 C   0  0  0  0  0  0  0  0  0  0  0  0
  145.5834  135.3910  151.0052 C   0  0  0  0  0  0  0  0  0  0  0  0
  145.3456  133.0230  152.5012 C   0  0  0  0  0  0  0  0  0  0  0  0
  149.0050  127.1057  152.7382 N   0  0  0  0  0  0  0  0  0  0  0  0
  149.3375  125.8799  152.1491 O   0  0  0  0  0  0  0  0  0  0  0  0
  149.0007  124.8370  148.9995 H   0  0  0  0  0  0  0  0  0  0  0  0
  148.4968  123.8444  150.3687 H   0  0  0  0  0  0  0  0  0  0  0  0
  150.1892  124.3152  150.1943 H   0  0  0  0  0  0  0  0  0  0  0  0
  147.8328  127.3658  149.6350 H   0  0  0  0  0  0  0  0  0  0  0  0
  148.4730  129.8479  151.6291 H   0  0  0  0  0  0  0  0  0  0  0  0
  144.4947  131.1348  153.0387 H   0  0  0  0  0  0  0  0  0  0  0  0
  145.2234  131.5277  150.1103 H   0  0  0  0  0  0  0  0  0  0  0  0
  143.9087  130.5597  150.7713 H   0  0  0  0  0  0  0  0  0  0  0  0
  143.6720  133.2176  149.9076 H   0  0  0  0  0  0  0  0  0  0  0  0
  142.5644  132.4993  151.0710 H   0  0  0  0  0  0  0  0  0  0  0  0
  143.6915  135.7607  152.1972 H   0  0  0  0  0  0  0  0  0  0  0  0
  144.3360  134.3858  149.4450 H   0  0  0  0  0  0  0  0  0  0  0  0
  143.9648  136.1712  149.6792 H   0  0  0  0  0  0  0  0  0  0  0  0
  145.9622  136.3951  151.1841 H   0  0  0  0  0  0  0  0  0  0  0  0
  146.3400  134.6098  150.9569 H   0  0  0  0  0  0  0  0  0  0  0  0
  145.4935  133.2786  153.5507 H   0  0  0  0  0  0  0  0  0  0  0  0
  146.2010  133.4002  151.9366 H   0  0  0  0  0  0  0  0  0  0  0  0
  143.4236  133.5594  152.7113 H   0  0  0  0  0  0  0  0  0  0  0  0
  1  2  1  0  0  0  0
  1 19  1  0  0  0  0
  1 20  1  0  0  0  0
  1 21  1  0  0  0  0
  2 18  1  0  0  0  0
  2  3  2  0  0  0  0
  3  4  1  0  0  0  0
  3 22  1  0  0  0  0
  4  5  1  0  0  0  0
  4 17  2  0  0  0  0
  5  6  1  0  0  0  0
  5 23  1  0  0  0  0
  6  7  2  0  0  0  0
  6  8  1  0  0  0  0
  8  9  1  0  0  0  0
  9 16  1  0  0  0  0
  9 10  1  0  0  0  0
  9 24  1  0  0  0  0
 10 11  1  0  0  0  0
 10 25  1  0  0  0  0
 10 26  1  0  0  0  0
 11 12  1  0  0  0  0
 11 27  1  0  0  0  0
 11 28  1  0  0  0  0
 12 13  1  0  0  0  0
 12 16  1  0  0  0  0
 12 36  1  0  0  0  0
 13 15  1  0  0  0  0
 13 14  1  0  0  0  0
 13 29  1  0  0  0  0
 14 15  1  0  0  0  0
 14 30  1  0  0  0  0
 14 31  1  0  0  0  0
 15 32  1  0  0  0  0
 15 33  1  0  0  0  0
 16 34  1  0  0  0  0
 16 35  1  0  0  0  0
 17 18  1  0  0  0  0
M  CHG  1   8  -1
M  CHG  1  12   1
M  END
> <s_m_source_file>
AV-unprocessed.smi

> <i_m_source_file_index>
3237

> <i_lp_mmshare_version>
43012

> <i_f3d_flags>
0

> <s_epik_input>
W0NIM11jMVtjSF1jKG5vMSlbTkhdQyg9TylbTkhdW0NAQEhdMltDSDJdW0NIMl1OKFtDSDJdMilbQ0hdM1tDSDJdW0NIMl0z

> <s_epik_cmdline>
J2VwaWtfcHl0aG9uJywgJy1waCcsICc3LjAnLCAnLXRuJywgJzgnLCAnLW1hJywgJzIwMCcsICctbWV0YWxfYmluZGluZycsICctaW1hZScsICc8aW5maWxlLm1hZT4nLCAnLW9tYWUnLCAnPG91dGZpbGUubWFlPic=

> <r_epik_Ionization_Penalty>
6.76456

> <r_epik_Ionization_Penalty_Charging>
6.76456

> <r_epik_Ionization_Penalty_Neutral>
5.76722e-06

> <r_epik_State_Penalty>
6.78919

> <r_epik_Charging_Adjusted_Penalty>
13.5538

> <i_epik_Tot_Q>
0

> <i_epik_Tot_abs_Q>
2

> <r_epik_Metal_State_Penalty>
2.728

> <b_epik_Metal_Only>
1

> <s_lp_Force_Field>
OPLS_2005

> <r_lp_Energy>
30.701

> <b_lp_Chiralities_Consistent>
1

> <s_lp_Variant>
AV-unprocessed.smi:3237-9

> <Gold.Version>
5.8.1

> <Gold.Id.Protein>
6NUR|6NUR_protein|mol2

> <Gold.PLP.Fitness>
34.9473

> <Gold.PLP.PLP>
-34.8942

> <Gold.PLP.part.hbond>
-1.0000

> <Gold.PLP.part.metal>
0.0000

> <Gold.PLP.part.buried>
-6.1840

> <Gold.PLP.part.nonpolar>
-28.4177

> <Gold.PLP.part.repulsive>
0.5548

> <Gold.PLP.ligand.clash>
0.0125

> <Gold.PLP.ligand.torsion>
1.8622

> <Gold.PLP.Chemscore.Hbond>
0.8320

> <Gold.PLP.Chemscore.CHOScore>
0.0000

> <Gold.PLP.Chemscore.Metal>
0.0000

> <Gold.Chemscore.Hbonds>
donor molecule, donor type, donor heavy atom, donor atom, acceptor molecule, acceptor atom, score
      L1  H     5    23       P1 10747  0.88

> <Gold.PLP.Chemscore.Internal.Correction>
1.2939

> <Gold.Rescore>
     Score         DG    S(hbond)    S(metal)    S(lipo)     H(rot)  DE(clash)    DE(int)     intcor
     11.67     -13.70       0.83        0.00      73.83       1.25       0.25       1.78       ----

> <Gold.Chemscore.Fitness>
11.6681

> <Gold.Chemscore.DG>
-13.6974

> <Gold.Chemscore.ZeroCoef>
-5.4800

> <Gold.Chemscore.Hbond>
0.8293

> <Gold.Chemscore.Metal>
0.0000

> <Gold.Chemscore.Lipo>
73.8333

> <Gold.Chemscore.Internal_Hbond>
0.0000

> <Gold.Chemscore.DEClash>
0.2485

> <Gold.Chemscore.DEInternal>
1.7809

> <Gold.Chemscore.Rot>
1.2464

> <Gold.Chemscore.Internal.Correction>
   9.000000E+99

> <Gold.Chemscore.Hbonds>
donor molecule, donor type, donor heavy atom, donor atom, acceptor molecule, acceptor atom, score
      L1  H     5    23       P1 10747  0.39

> <Gold.Chemscore.Hbond.Weighted>
-2.7698

> <Gold.Chemscore.Metal.Weighted>
-0.0000

> <Gold.Chemscore.Lipo.Weighted>
-8.6385

> <Gold.Chemscore.Internal_Hbond.Weighted>
0.0000

> <Gold.Chemscore.DEClash.Weighted>
0.2485

> <Gold.Chemscore.DEInternal.Weighted>
1.7809

> <Gold.Chemscore.Rot.Weighted>
3.1909

> <Gold.Chemscore.Internal.Correction.Weighted>
   9.000000E+99

> <Gold.Protein.RotatedTorsions>
[ 6907 6896 6895 6894 ] final   24.47 input  -60.11 | X-H torsion
[ 7974 7965 7964 7962 ] final   33.66 input  175.53 | X-H torsion
[ 8008 7997 7996 7995 ] final  -90.08 input   59.86 | X-H torsion
[ 10167 10162 10161 10158 ] final   -9.24 input  -65.29 | X-H torsion
[ 10718 10713 10712 10709 ] final   44.38 input   66.30 | X-H torsion
[ 10763 10752 10751 10750 ] final -145.06 input  -60.55 | X-H torsion
[ 11005 11000 10999 10996 ] final  -16.86 input  -57.11 | X-H torsion

> <Gold.Protein.ActiveResidues>
 VAL166  LYS551  ARG553  GLY616  TRP617  ASP618  TYR619  PRO620  LYS621  CYS622 
 ASP623  PHE694  ASN695  SER759  ASP760  ASP761  ALA762  ILE779  LEU786  VAL792 
 PHE793  MET794  SER795  GLU796  ALA797  LYS798  CYS799  TRP800  GLU811  SER814 

> <Gold.Protein.RotatedAtoms>
  151.9579  135.0138  160.0545 H   0  0  0  0  0  0  0  0  0  0  0  0  # atno 6907 bound_to 6896
  152.1895  133.4758  159.5008 H   0  0  0  0  0  0  0  0  0  0  0  0  # atno 6908 bound_to 6896
  150.6932  134.1648  159.4233 H   0  0  0  0  0  0  0  0  0  0  0  0  # atno 6909 bound_to 6896
  146.1405  139.6368  142.9166 H   0  0  0  0  0  0  0  0  0  0  0  0  # atno 7974 bound_to 7965
  154.6943  140.0534  157.0394 H   0  0  0  0  0  0  0  0  0  0  0  0  # atno 8008 bound_to 7997
  155.0774  140.3206  155.4593 H   0  0  0  0  0  0  0  0  0  0  0  0  # atno 8009 bound_to 7997
  156.2739  140.2071  156.5901 H   0  0  0  0  0  0  0  0  0  0  0  0  # atno 8010 bound_to 7997
  140.7082  143.5879  150.8924 H   0  0  0  0  0  0  0  0  0  0  0  0  # atno 10167 bound_to 10162
  157.4262  130.7998  149.7560 H   0  0  0  0  0  0  0  0  0  0  0  0  # atno 10718 bound_to 10713
  154.8400  135.3423  154.6445 H   0  0  0  0  0  0  0  0  0  0  0  0  # atno 10763 bound_to 10752
  153.7056  135.6967  153.5055 H   0  0  0  0  0  0  0  0  0  0  0  0  # atno 10764 bound_to 10752
  153.2490  135.4360  155.0731 H   0  0  0  0  0  0  0  0  0  0  0  0  # atno 10765 bound_to 10752
  140.8110  133.8140  155.9564 H   0  0  0  0  0  0  0  0  0  0  0  0  # atno 11005 bound_to 11000
  145.5056  141.0436  143.2516 LP  0  0  0  0  0  0  0  0  0  0  0  0  # atno 17320 bound_to 7965
  144.7788  139.6572  143.7163 LP  0  0  0  0  0  0  0  0  0  0  0  0  # atno 17321 bound_to 7965
  139.9605  143.6169  152.3003 LP  0  0  0  0  0  0  0  0  0  0  0  0  # atno 17342 bound_to 10162
  139.6720  144.7660  151.1765 LP  0  0  0  0  0  0  0  0  0  0  0  0  # atno 17343 bound_to 10162
  155.9897  130.3950  150.3060 LP  0  0  0  0  0  0  0  0  0  0  0  0  # atno 17370 bound_to 10713
  157.1213  131.0247  151.3008 LP  0  0  0  0  0  0  0  0  0  0  0  0  # atno 17371 bound_to 10713
  140.9197  134.2157  157.4934 LP  0  0  0  0  0  0  0  0  0  0  0  0  # atno 17394 bound_to 11000
  139.8714  134.9787  156.5007 LP  0  0  0  0  0  0  0  0  0  0  0  0  # atno 17395 bound_to 11000

$$$$
