AV-unprocessed.smi:743|AV-procd|sdf|3561|dock5
  -GOLD-   22720 0563D 1   1.00000     0.00000
 Structure written by MMmdl.
 29 30  0  0  0  0  0  0  0  0  2 V2000
  153.4118  142.7148  163.0870 C   0  0  0  0  0  0  0  0  0  0  0  0
  152.7897  142.9637  161.8043 N   0  0  0  0  0  0  0  0  0  0  0  0
  152.8161  142.1818  160.6702 C   0  0  0  0  0  0  0  0  0  0  0  0
  152.0901  142.8271  159.7064 C   0  0  0  0  0  0  0  0  0  0  0  0
  151.7958  142.4047  158.2868 C   0  0  1  0  0  0  0  0  0  0  0  0
  152.4906  141.1554  157.9648 N   0  0  0  0  0  0  0  0  0  0  0  0
  152.0522  140.1728  157.1575 C   0  0  0  0  0  0  0  0  0  0  0  0
  152.7487  139.1932  156.9051 O   0  0  0  0  0  0  0  0  0  0  0  0
  150.6352  140.2619  156.5700 C   0  0  0  0  0  0  0  0  0  0  0  0
  150.0121  141.6645  156.6657 C   0  0  0  0  0  0  0  0  0  0  0  0
  150.2732  142.2877  158.0419 C   0  0  2  0  0  0  0  0  0  0  0  0
  149.5968  143.5911  158.1732 N   0  3  0  0  0  0  0  0  0  0  0  0
  151.6604  144.0155  160.3650 C   0  0  0  0  0  0  0  0  0  0  0  0
  152.0766  144.0926  161.6175 N   0  0  0  0  0  0  0  0  0  0  0  0
  149.8413  141.6316  158.7998 H   0  0  0  0  0  0  0  0  0  0  0  0
  153.6784  141.6611  163.1742 H   0  0  0  0  0  0  0  0  0  0  0  0
  152.7236  142.9724  163.8930 H   0  0  0  0  0  0  0  0  0  0  0  0
  154.3145  143.3195  163.1798 H   0  0  0  0  0  0  0  0  0  0  0  0
  153.3429  141.2388  160.6432 H   0  0  0  0  0  0  0  0  0  0  0  0
  152.1961  143.1476  157.5949 H   0  0  0  0  0  0  0  0  0  0  0  0
  153.4172  141.0486  158.3529 H   0  0  0  0  0  0  0  0  0  0  0  0
  150.6502  139.9293  155.5314 H   0  0  0  0  0  0  0  0  0  0  0  0
  150.0119  139.5517  157.1142 H   0  0  0  0  0  0  0  0  0  0  0  0
  150.4223  142.3032  155.8818 H   0  0  0  0  0  0  0  0  0  0  0  0
  148.9397  141.5968  156.4789 H   0  0  0  0  0  0  0  0  0  0  0  0
  150.2060  144.2425  158.6474 H   0  0  0  0  0  0  0  0  0  0  0  0
  148.7466  143.4751  158.7061 H   0  0  0  0  0  0  0  0  0  0  0  0
  151.0570  144.8200  159.9712 H   0  0  0  0  0  0  0  0  0  0  0  0
  149.3717  143.9479  157.2554 H   0  0  0  0  0  0  0  0  0  0  0  0
  1  2  1  0  0  0  0
  1 16  1  0  0  0  0
  1 17  1  0  0  0  0
  1 18  1  0  0  0  0
  2 14  1  0  0  0  0
  2  3  1  0  0  0  0
  3  4  2  0  0  0  0
  3 19  1  0  0  0  0
  4  5  1  0  0  0  0
  4 13  1  0  0  0  0
  5 11  1  0  0  0  0
  5  6  1  0  0  0  0
  5 20  1  0  0  0  0
  6  7  1  0  0  0  0
  6 21  1  0  0  0  0
  7  8  2  0  0  0  0
  7  9  1  0  0  0  0
  9 10  1  0  0  0  0
  9 22  1  0  0  0  0
  9 23  1  0  0  0  0
 10 11  1  0  0  0  0
 10 24  1  0  0  0  0
 10 25  1  0  0  0  0
 11 15  1  0  0  0  0
 11 12  1  0  0  0  0
 12 26  1  0  0  0  0
 12 27  1  0  0  0  0
 12 29  1  0  0  0  0
 13 14  2  0  0  0  0
 13 28  1  0  0  0  0
M  CHG  1  12   1
M  END
> <s_m_source_file>
AV-unprocessed.smi

> <i_m_source_file_index>
743

> <i_lp_mmshare_version>
43012

> <i_f3d_flags>
0

> <s_epik_input>
W0NIM11uMVtjSF1jKFtjSF1uMSlbQ0BASF0yW05IXUMoPU8pW0NIMl1bQ0gyXVtDQEBIXTJbTkgyXQ==

> <s_epik_cmdline>
J2VwaWtfcHl0aG9uJywgJy1waCcsICc3LjAnLCAnLXRuJywgJzgnLCAnLW1hJywgJzIwMCcsICctbWV0YWxfYmluZGluZycsICctaW1hZScsICc8aW5maWxlLm1hZT4nLCAnLW9tYWUnLCAnPG91dGZpbGUubWFlPic=

> <r_lp_tautomer_probability>
1

> <r_epik_Ionization_Penalty>
0.00878543

> <r_epik_Ionization_Penalty_Charging>
0.00874185

> <r_epik_Ionization_Penalty_Neutral>
4.35793e-05

> <r_epik_State_Penalty>
0.00660351

> <r_epik_Charging_Adjusted_Penalty>
0.0153454

> <i_epik_Tot_Q>
1

> <i_epik_Tot_abs_Q>
1

> <r_epik_Metal_State_Penalty>
0.00660727

> <b_epik_Metal_Only>
0

> <s_lp_Force_Field>
OPLS_2005

> <r_lp_Energy>
10.7235

> <b_lp_Chiralities_Consistent>
1

> <s_lp_Variant>
AV-unprocessed.smi:743-2

> <Gold.Version>
5.8.1

> <Gold.Id.Protein>
6NUR|6NUR_protein|mol2

> <Gold.PLP.Fitness>
39.6522

> <Gold.PLP.PLP>
-30.6595

> <Gold.PLP.part.hbond>
-2.9267

> <Gold.PLP.part.metal>
0.0000

> <Gold.PLP.part.buried>
-2.1990

> <Gold.PLP.part.nonpolar>
-25.1834

> <Gold.PLP.part.repulsive>
0.3178

> <Gold.PLP.ligand.clash>
0.0000

> <Gold.PLP.ligand.torsion>
0.0144

> <Gold.PLP.Chemscore.Hbond>
3.0000

> <Gold.PLP.Chemscore.CHOScore>
0.0000

> <Gold.PLP.Chemscore.Metal>
0.0000

> <Gold.Chemscore.Hbonds>
donor molecule, donor type, donor heavy atom, donor atom, acceptor molecule, acceptor atom, score
      L1  H    12    29       P1  8028  2.00
      P1  H  7997  8010       L1     8  1.00

> <Gold.PLP.Chemscore.Internal.Correction>
0.0215

> <Gold.Rescore>
     Score         DG    S(hbond)    S(metal)    S(lipo)     H(rot)  DE(clash)    DE(int)     intcor
     14.13     -14.32       0.92        0.00      71.28       1.00       0.03       0.16       ----

> <Gold.Chemscore.Fitness>
14.1314

> <Gold.Chemscore.DG>
-14.3187

> <Gold.Chemscore.ZeroCoef>
-5.4800

> <Gold.Chemscore.Hbond>
0.9159

> <Gold.Chemscore.Metal>
0.0000

> <Gold.Chemscore.Lipo>
71.2773

> <Gold.Chemscore.Internal_Hbond>
0.0000

> <Gold.Chemscore.DEClash>
0.0310

> <Gold.Chemscore.DEInternal>
0.1563

> <Gold.Chemscore.Rot>
1.0000

> <Gold.Chemscore.Internal.Correction>
   9.000000E+99

> <Gold.Chemscore.Hbonds>
donor molecule, donor type, donor heavy atom, donor atom, acceptor molecule, acceptor atom, score
      L1  H    12    29       P1  8028  0.40
      P1  H  7997  8010       L1     8  0.25

> <Gold.Chemscore.Hbond.Weighted>
-3.0592

> <Gold.Chemscore.Metal.Weighted>
-0.0000

> <Gold.Chemscore.Lipo.Weighted>
-8.3394

> <Gold.Chemscore.Internal_Hbond.Weighted>
0.0000

> <Gold.Chemscore.DEClash.Weighted>
0.0310

> <Gold.Chemscore.DEInternal.Weighted>
0.1563

> <Gold.Chemscore.Rot.Weighted>
2.5600

> <Gold.Chemscore.Internal.Correction.Weighted>
   9.000000E+99

> <Gold.Protein.RotatedTorsions>
[ 6907 6896 6895 6894 ] final -163.44 input  -60.11 | X-H torsion
[ 7974 7965 7964 7962 ] final  -35.33 input  175.53 | X-H torsion
[ 8008 7997 7996 7995 ] final   42.55 input   59.86 | X-H torsion
[ 10167 10162 10161 10158 ] final -121.41 input  -65.29 | X-H torsion
[ 10718 10713 10712 10709 ] final   62.59 input   66.30 | X-H torsion
[ 10763 10752 10751 10750 ] final  117.18 input  -60.55 | X-H torsion
[ 11005 11000 10999 10996 ] final   64.01 input  -57.11 | X-H torsion

> <Gold.Protein.ActiveResidues>
 VAL166  LYS551  ARG553  GLY616  TRP617  ASP618  TYR619  PRO620  LYS621  CYS622 
 ASP623  PHE694  ASN695  SER759  ASP760  ASP761  ALA762  ILE779  LEU786  VAL792 
 PHE793  MET794  SER795  GLU796  ALA797  LYS798  CYS799  TRP800  GLU811  SER814 

> <Gold.Protein.RotatedAtoms>
  151.3960  133.3773  159.2726 H   0  0  0  0  0  0  0  0  0  0  0  0  # atno 6907 bound_to 6896
  150.9469  134.8874  159.7658 H   0  0  0  0  0  0  0  0  0  0  0  0  # atno 6908 bound_to 6896
  152.5095  134.3914  159.9437 H   0  0  0  0  0  0  0  0  0  0  0  0  # atno 6909 bound_to 6896
  146.0755  140.6146  142.8932 H   0  0  0  0  0  0  0  0  0  0  0  0  # atno 7974 bound_to 7965
  155.2880  140.3377  155.4254 H   0  0  0  0  0  0  0  0  0  0  0  0  # atno 8008 bound_to 7997
  156.2059  140.1751  156.7840 H   0  0  0  0  0  0  0  0  0  0  0  0  # atno 8009 bound_to 7997
  154.5620  140.0685  156.8818 H   0  0  0  0  0  0  0  0  0  0  0  0  # atno 8010 bound_to 7997
  140.0253  143.5303  152.2202 H   0  0  0  0  0  0  0  0  0  0  0  0  # atno 10167 bound_to 10162
  157.5911  130.9058  149.9607 H   0  0  0  0  0  0  0  0  0  0  0  0  # atno 10718 bound_to 10713
  153.5485  135.3544  155.2749 H   0  0  0  0  0  0  0  0  0  0  0  0  # atno 10763 bound_to 10752
  154.8709  135.4108  154.2964 H   0  0  0  0  0  0  0  0  0  0  0  0  # atno 10764 bound_to 10752
  153.3685  135.7063  153.6724 H   0  0  0  0  0  0  0  0  0  0  0  0  # atno 10765 bound_to 10752
  139.9986  134.6477  155.9968 H   0  0  0  0  0  0  0  0  0  0  0  0  # atno 11005 bound_to 11000
  144.7259  140.4522  143.6974 LP  0  0  0  0  0  0  0  0  0  0  0  0  # atno 17320 bound_to 7965
  145.6314  139.1537  143.2967 LP  0  0  0  0  0  0  0  0  0  0  0  0  # atno 17321 bound_to 7965
  139.6112  144.7609  151.2947 LP  0  0  0  0  0  0  0  0  0  0  0  0  # atno 17342 bound_to 10162
  140.7325  143.6821  150.7992 LP  0  0  0  0  0  0  0  0  0  0  0  0  # atno 17343 bound_to 10162
  156.0966  130.3659  150.0295 LP  0  0  0  0  0  0  0  0  0  0  0  0  # atno 17370 bound_to 10713
  156.8417  130.9428  151.3631 LP  0  0  0  0  0  0  0  0  0  0  0  0  # atno 17371 bound_to 10713
  141.1624  133.6538  156.4365 LP  0  0  0  0  0  0  0  0  0  0  0  0  # atno 17394 bound_to 11000
  140.4770  134.6700  157.5154 LP  0  0  0  0  0  0  0  0  0  0  0  0  # atno 17395 bound_to 11000

$$$$
