AV-unprocessed.smi:767|AV-procd|sdf|3672|dock7
  -GOLD-   22720 1 83D 1   1.00000     0.00000
 Structure written by MMmdl.
 48 50  0  0  0  0  0  0  0  0  2 V2000
  143.5903  144.8135  155.1358 C   0  0  0  0  0  0  0  0  0  0  0  0
  144.6277  143.7325  154.9213 C   0  0  0  0  0  0  0  0  0  0  0  0
  145.4517  143.6994  153.7768 C   0  0  0  0  0  0  0  0  0  0  0  0
  146.4153  142.6778  153.6517 C   0  0  0  0  0  0  0  0  0  0  0  0
  146.5321  141.7060  154.6700 C   0  0  0  0  0  0  0  0  0  0  0  0
  147.5922  140.6201  154.5888 C   0  0  0  0  0  0  0  0  0  0  0  0
  149.0205  141.1565  154.3619 C   0  0  0  0  0  0  0  0  0  0  0  0
  149.4345  142.1069  155.3929 N   0  0  0  0  0  0  0  0  0  0  0  0
  149.9859  141.7799  156.5712 C   0  0  0  0  0  0  0  0  0  0  0  0
  150.2271  140.6251  156.9243 O   0  0  0  0  0  0  0  0  0  0  0  0
  150.2171  142.8561  157.3333 N   0  0  0  0  0  0  0  0  0  0  0  0
  150.7307  142.7891  158.6962 C   0  0  1  0  0  0  0  0  0  0  0  0
  152.0371  142.0039  158.8000 C   0  0  2  0  0  0  0  0  0  0  0  0
  152.4385  140.7229  159.4399 C   0  0  0  0  0  0  0  0  0  0  0  0
  153.7378  141.2252  160.1246 C   0  0  0  0  0  0  0  0  0  0  0  0
  153.7186  142.6687  160.0036 O   0  0  0  0  0  0  0  0  0  0  0  0
  152.3435  142.9807  159.9206 C   0  0  1  0  0  0  0  0  0  0  0  0
  151.5847  144.0482  159.1077 C   0  0  0  0  0  0  0  0  0  0  0  0
  152.3765  144.8222  158.0342 C   0  0  0  0  0  0  0  0  0  0  0  0
  150.8340  145.0988  159.9269 C   0  0  0  0  0  0  0  0  0  0  0  0
  145.6645  141.7771  155.7814 C   0  0  0  0  0  0  0  0  0  0  0  0
  144.7607  142.7772  155.8684 N   0  3  0  0  0  0  0  0  0  0  0  0
  143.8122  145.6912  154.5276 H   0  0  0  0  0  0  0  0  0  0  0  0
  143.5683  145.1244  156.1808 H   0  0  0  0  0  0  0  0  0  0  0  0
  142.6006  144.4472  154.8623 H   0  0  0  0  0  0  0  0  0  0  0  0
  145.3586  144.4543  153.0098 H   0  0  0  0  0  0  0  0  0  0  0  0
  147.0654  142.6528  152.7893 H   0  0  0  0  0  0  0  0  0  0  0  0
  147.5628  140.0379  155.5103 H   0  0  0  0  0  0  0  0  0  0  0  0
  147.3340  139.9276  153.7865 H   0  0  0  0  0  0  0  0  0  0  0  0
  149.7277  140.3273  154.3037 H   0  0  0  0  0  0  0  0  0  0  0  0
  149.0700  141.6599  153.3964 H   0  0  0  0  0  0  0  0  0  0  0  0
  149.2783  143.0851  155.1980 H   0  0  0  0  0  0  0  0  0  0  0  0
  149.9960  143.7700  156.9658 H   0  0  0  0  0  0  0  0  0  0  0  0
  149.9891  142.4845  159.4407 H   0  0  0  0  0  0  0  0  0  0  0  0
  152.6463  142.1645  157.9075 H   0  0  0  0  0  0  0  0  0  0  0  0
  151.7000  140.3799  160.1661 H   0  0  0  0  0  0  0  0  0  0  0  0
  152.6256  139.9275  158.7179 H   0  0  0  0  0  0  0  0  0  0  0  0
  153.7624  140.9307  161.1745 H   0  0  0  0  0  0  0  0  0  0  0  0
  154.6321  140.8311  159.6411 H   0  0  0  0  0  0  0  0  0  0  0  0
  151.8367  142.7469  160.8641 H   0  0  0  0  0  0  0  0  0  0  0  0
  152.9925  145.6012  158.4845 H   0  0  0  0  0  0  0  0  0  0  0  0
  151.7084  145.3096  157.3257 H   0  0  0  0  0  0  0  0  0  0  0  0
  153.0530  144.1983  157.4533 H   0  0  0  0  0  0  0  0  0  0  0  0
  151.5194  145.7831  160.4277 H   0  0  0  0  0  0  0  0  0  0  0  0
  150.2171  144.6384  160.6991 H   0  0  0  0  0  0  0  0  0  0  0  0
  150.1701  145.6943  159.2998 H   0  0  0  0  0  0  0  0  0  0  0  0
  145.6847  141.0849  156.6106 H   0  0  0  0  0  0  0  0  0  0  0  0
  144.1569  142.8175  156.6897 H   0  0  0  0  0  0  0  0  0  0  0  0
  1  2  1  0  0  0  0
  1 23  1  0  0  0  0
  1 24  1  0  0  0  0
  1 25  1  0  0  0  0
  2 22  1  0  0  0  0
  2  3  2  0  0  0  0
  3  4  1  0  0  0  0
  3 26  1  0  0  0  0
  4  5  2  0  0  0  0
  4 27  1  0  0  0  0
  5  6  1  0  0  0  0
  5 21  1  0  0  0  0
  6  7  1  0  0  0  0
  6 28  1  0  0  0  0
  6 29  1  0  0  0  0
  7  8  1  0  0  0  0
  7 30  1  0  0  0  0
  7 31  1  0  0  0  0
  8  9  1  0  0  0  0
  8 32  1  0  0  0  0
  9 10  2  0  0  0  0
  9 11  1  0  0  0  0
 11 12  1  0  0  0  0
 11 33  1  0  0  0  0
 12 18  1  0  0  0  0
 12 13  1  0  0  0  0
 12 34  1  0  0  0  0
 13 17  1  0  0  0  0
 13 14  1  0  0  0  0
 13 35  1  0  0  0  0
 14 15  1  0  0  0  0
 14 36  1  0  0  0  0
 14 37  1  0  0  0  0
 15 16  1  0  0  0  0
 15 38  1  0  0  0  0
 15 39  1  0  0  0  0
 16 17  1  0  0  0  0
 17 18  1  0  0  0  0
 17 40  1  0  0  0  0
 18 19  1  0  0  0  0
 18 20  1  0  0  0  0
 19 41  1  0  0  0  0
 19 42  1  0  0  0  0
 19 43  1  0  0  0  0
 20 44  1  0  0  0  0
 20 45  1  0  0  0  0
 20 46  1  0  0  0  0
 21 22  2  0  0  0  0
 21 47  1  0  0  0  0
 22 48  1  0  0  0  0
M  CHG  1  22   1
M  END
> <s_m_source_file>
AV-unprocessed.smi

> <i_m_source_file_index>
767

> <i_lp_mmshare_version>
43012

> <i_f3d_flags>
0

> <s_epik_input>
W0NIM11jMVtjSF1bY0hdYyhbY0hdbjEpW0NIMl1bQ0gyXVtOSF1DKD1PKVtOSF1bQ0BIXTJDKFtDSDNdKShbQ0gzXSlbQ0BIXShbQ0BASF0yMylPW0NIMl1bQ0gyXTM=

> <s_epik_cmdline>
J2VwaWtfcHl0aG9uJywgJy1waCcsICc3LjAnLCAnLXRuJywgJzgnLCAnLW1hJywgJzIwMCcsICctbWV0YWxfYmluZGluZycsICctaW1hZScsICc8aW5maWxlLm1hZT4nLCAnLW9tYWUnLCAnPG91dGZpbGUubWFlPic=

> <r_epik_Ionization_Penalty>
1.41853

> <r_epik_Ionization_Penalty_Charging>
1.41848

> <r_epik_Ionization_Penalty_Neutral>
5.17407e-05

> <r_epik_State_Penalty>
1.50205

> <r_epik_Charging_Adjusted_Penalty>
2.92053

> <i_epik_Tot_Q>
1

> <i_epik_Tot_abs_Q>
1

> <r_epik_Metal_State_Penalty>
1.5544

> <b_epik_Metal_Only>
0

> <s_lp_Force_Field>
OPLS_2005

> <r_lp_Energy>
61.237

> <b_lp_Chiralities_Consistent>
1

> <s_lp_Variant>
AV-unprocessed.smi:767-16

> <Gold.Version>
5.8.1

> <Gold.Id.Protein>
6NUR|6NUR_protein|mol2

> <Gold.PLP.Fitness>
54.9887

> <Gold.PLP.PLP>
-49.9227

> <Gold.PLP.part.hbond>
-2.0000

> <Gold.PLP.part.metal>
0.0000

> <Gold.PLP.part.buried>
-9.6677

> <Gold.PLP.part.nonpolar>
-39.5354

> <Gold.PLP.part.repulsive>
0.2131

> <Gold.PLP.ligand.clash>
0.0000

> <Gold.PLP.ligand.torsion>
0.4242

> <Gold.PLP.Chemscore.Hbond>
1.8800

> <Gold.PLP.Chemscore.CHOScore>
0.0000

> <Gold.PLP.Chemscore.Metal>
0.0000

> <Gold.Chemscore.Hbonds>
donor molecule, donor type, donor heavy atom, donor atom, acceptor molecule, acceptor atom, score
      L1  H     8    32       P1  8028  1.00
      L1  H    11    33       P1  8028  0.90

> <Gold.PLP.Chemscore.Internal.Correction>
0.2744

> <Gold.Rescore>
     Score         DG    S(hbond)    S(metal)    S(lipo)     H(rot)  DE(clash)    DE(int)     intcor
     21.13     -22.46       1.78        0.00     127.58       1.52       0.02       1.32       ----

> <Gold.Chemscore.Fitness>
21.1313

> <Gold.Chemscore.DG>
-22.4629

> <Gold.Chemscore.ZeroCoef>
-5.4800

> <Gold.Chemscore.Hbond>
1.7831

> <Gold.Chemscore.Metal>
0.0000

> <Gold.Chemscore.Lipo>
127.5793

> <Gold.Chemscore.Internal_Hbond>
0.0000

> <Gold.Chemscore.DEClash>
0.0164

> <Gold.Chemscore.DEInternal>
1.3153

> <Gold.Chemscore.Rot>
1.5233

> <Gold.Chemscore.Internal.Correction>
   9.000000E+99

> <Gold.Chemscore.Hbonds>
donor molecule, donor type, donor heavy atom, donor atom, acceptor molecule, acceptor atom, score
      L1  H     8    32       P1  8028  0.98
      L1  H    11    33       P1  8028  0.86

> <Gold.Chemscore.Hbond.Weighted>
-5.9557

> <Gold.Chemscore.Metal.Weighted>
-0.0000

> <Gold.Chemscore.Lipo.Weighted>
-14.9268

> <Gold.Chemscore.Internal_Hbond.Weighted>
0.0000

> <Gold.Chemscore.DEClash.Weighted>
0.0164

> <Gold.Chemscore.DEInternal.Weighted>
1.3153

> <Gold.Chemscore.Rot.Weighted>
3.8995

> <Gold.Chemscore.Internal.Correction.Weighted>
   9.000000E+99

> <Gold.Protein.RotatedTorsions>
[ 6907 6896 6895 6894 ] final   52.93 input  -60.11 | X-H torsion
[ 7974 7965 7964 7962 ] final  118.32 input  175.53 | X-H torsion
[ 8008 7997 7996 7995 ] final  141.76 input   59.86 | X-H torsion
[ 10167 10162 10161 10158 ] final -116.02 input  -65.29 | X-H torsion
[ 10718 10713 10712 10709 ] final -101.38 input   66.30 | X-H torsion
[ 10763 10752 10751 10750 ] final   33.61 input  -60.55 | X-H torsion
[ 11005 11000 10999 10996 ] final -164.01 input  -57.11 | X-H torsion

> <Gold.Protein.ActiveResidues>
 VAL166  LYS551  ARG553  GLY616  TRP617  ASP618  TYR619  PRO620  LYS621  CYS622 
 ASP623  PHE694  ASN695  SER759  ASP760  ASP761  ALA762  ILE779  LEU786  VAL792 
 PHE793  MET794  SER795  GLU796  ALA797  LYS798  CYS799  TRP800  GLU811  SER814 

> <Gold.Protein.RotatedAtoms>
  152.3284  134.7291  160.0295 H   0  0  0  0  0  0  0  0  0  0  0  0  # atno 6907 bound_to 6896
  151.7716  133.3336  159.3454 H   0  0  0  0  0  0  0  0  0  0  0  0  # atno 6908 bound_to 6896
  150.7409  134.5945  159.6049 H   0  0  0  0  0  0  0  0  0  0  0  0  # atno 6909 bound_to 6896
  145.1566  139.3179  143.4539 H   0  0  0  0  0  0  0  0  0  0  0  0  # atno 7974 bound_to 7965
  156.2960  140.2306  156.4618 H   0  0  0  0  0  0  0  0  0  0  0  0  # atno 8008 bound_to 7997
  154.8012  140.0448  157.1295 H   0  0  0  0  0  0  0  0  0  0  0  0  # atno 8009 bound_to 7997
  154.9531  140.3044  155.5069 H   0  0  0  0  0  0  0  0  0  0  0  0  # atno 8010 bound_to 7997
  140.0838  143.4763  152.1910 H   0  0  0  0  0  0  0  0  0  0  0  0  # atno 10167 bound_to 10162
  156.0193  130.5371  150.6954 H   0  0  0  0  0  0  0  0  0  0  0  0  # atno 10718 bound_to 10713
  153.0204  135.6382  154.1538 H   0  0  0  0  0  0  0  0  0  0  0  0  # atno 10763 bound_to 10752
  154.1273  135.2843  155.3195 H   0  0  0  0  0  0  0  0  0  0  0  0  # atno 10764 bound_to 10752
  154.6220  135.5521  153.7647 H   0  0  0  0  0  0  0  0  0  0  0  0  # atno 10765 bound_to 10752
  140.5917  134.5037  157.5194 H   0  0  0  0  0  0  0  0  0  0  0  0  # atno 11005 bound_to 11000
  146.3488  140.1660  142.8590 LP  0  0  0  0  0  0  0  0  0  0  0  0  # atno 17320 bound_to 7965
  145.0375  140.8919  143.5072 LP  0  0  0  0  0  0  0  0  0  0  0  0  # atno 17321 bound_to 7965
  139.5764  144.7489  151.3753 LP  0  0  0  0  0  0  0  0  0  0  0  0  # atno 17342 bound_to 10162
  140.7064  143.7502  150.7490 LP  0  0  0  0  0  0  0  0  0  0  0  0  # atno 17343 bound_to 10162
  157.4626  131.0885  151.0729 LP  0  0  0  0  0  0  0  0  0  0  0  0  # atno 17370 bound_to 10713
  157.1212  130.6063  149.5505 LP  0  0  0  0  0  0  0  0  0  0  0  0  # atno 17371 bound_to 10713
  139.9271  134.8035  156.1037 LP  0  0  0  0  0  0  0  0  0  0  0  0  # atno 17394 bound_to 11000
  141.0930  133.6706  156.2583 LP  0  0  0  0  0  0  0  0  0  0  0  0  # atno 17395 bound_to 11000

$$$$
