AV-unprocessed.smi:837|AV-procd|sdf|3902|dock5
  -GOLD-   22720 1363D 1   1.00000     0.00000
 Structure written by MMmdl.
 48 50  0  0  0  0  0  0  0  0  2 V2000
  152.4173  138.5453  158.7797 C   0  0  0  0  0  0  0  0  0  0  0  0
  152.4261  139.9954  158.2465 C   0  0  2  0  0  0  0  0  0  0  0  0
  151.7756  140.9395  159.2824 C   0  0  0  0  0  0  0  0  0  0  0  0
  151.8252  142.4071  158.8338 C   0  0  0  0  0  0  0  0  0  0  0  0
  151.1626  142.5917  157.4631 C   0  0  0  0  0  0  0  0  0  0  0  0
  151.8058  141.6708  156.4120 C   0  0  0  0  0  0  0  0  0  0  0  0
  151.8062  140.1725  156.8193 C   0  0  1  0  0  0  0  0  0  0  0  0
  152.5784  139.4295  155.8383 N   0  5  0  0  0  0  0  0  0  0  0  0
  151.7737  138.5275  155.2302 C   0  0  0  0  0  0  0  0  0  0  0  0
  152.0983  137.7234  154.3569 O   0  0  0  0  0  0  0  0  0  0  0  0
  150.5174  138.6010  155.7082 N   0  0  0  0  0  0  0  0  0  0  0  0
  149.4049  137.7397  155.2844 C   0  0  0  0  0  0  0  0  0  0  0  0
  148.2298  138.5180  154.6748 C   0  0  0  0  0  0  0  0  0  0  0  0
  147.7198  139.4699  155.2683 O   0  0  0  0  0  0  0  0  0  0  0  0
  147.8193  138.1036  153.4666 N   0  0  0  0  0  0  0  0  0  0  0  0
  146.7281  138.6969  152.7032 C   0  0  0  0  0  0  0  0  0  0  0  0
  146.3944  137.8673  151.4527 C   0  0  0  0  0  0  0  0  0  0  0  0
  145.3268  136.8264  151.7282 C   0  0  0  0  0  0  0  0  0  0  0  0
  144.4399  136.9714  152.8148 C   0  0  0  0  0  0  0  0  0  0  0  0
  143.4615  135.9811  153.0282 C   0  0  0  0  0  0  0  0  0  0  0  0
  143.4117  134.8858  152.1427 C   0  0  0  0  0  0  0  0  0  0  0  0
  144.2557  134.7370  151.0988 N   0  0  0  0  0  0  0  0  0  0  0  0
  145.1913  135.6906  150.9017 C   0  0  0  0  0  0  0  0  0  0  0  0
  150.4251  139.5402  156.6560 C   0  0  0  0  0  0  0  0  0  0  0  0
  149.4222  139.8483  157.3014 O   0  0  0  0  0  0  0  0  0  0  0  0
  151.4036  138.1749  158.9345 H   0  0  0  0  0  0  0  0  0  0  0  0
  152.9357  138.4812  159.7365 H   0  0  0  0  0  0  0  0  0  0  0  0
  152.9207  137.8612  158.0962 H   0  0  0  0  0  0  0  0  0  0  0  0
  153.4754  140.2879  158.1755 H   0  0  0  0  0  0  0  0  0  0  0  0
  150.7413  140.6474  159.4641 H   0  0  0  0  0  0  0  0  0  0  0  0
  152.2872  140.8431  160.2405 H   0  0  0  0  0  0  0  0  0  0  0  0
  151.3316  143.0388  159.5729 H   0  0  0  0  0  0  0  0  0  0  0  0
  152.8630  142.7393  158.7860 H   0  0  0  0  0  0  0  0  0  0  0  0
  150.0936  142.3935  157.5391 H   0  0  0  0  0  0  0  0  0  0  0  0
  151.2557  143.6308  157.1464 H   0  0  0  0  0  0  0  0  0  0  0  0
  151.2946  141.8069  155.4573 H   0  0  0  0  0  0  0  0  0  0  0  0
  152.8326  142.0013  156.2464 H   0  0  0  0  0  0  0  0  0  0  0  0
  149.7514  137.0097  154.5511 H   0  0  0  0  0  0  0  0  0  0  0  0
  149.0486  137.1561  156.1350 H   0  0  0  0  0  0  0  0  0  0  0  0
  148.2963  137.3179  153.0484 H   0  0  0  0  0  0  0  0  0  0  0  0
  145.8464  138.8077  153.3366 H   0  0  0  0  0  0  0  0  0  0  0  0
  147.0299  139.7031  152.4117 H   0  0  0  0  0  0  0  0  0  0  0  0
  146.0546  138.5212  150.6484 H   0  0  0  0  0  0  0  0  0  0  0  0
  147.2884  137.3641  151.0819 H   0  0  0  0  0  0  0  0  0  0  0  0
  144.5063  137.8259  153.4728 H   0  0  0  0  0  0  0  0  0  0  0  0
  142.7655  136.0593  153.8505 H   0  0  0  0  0  0  0  0  0  0  0  0
  142.6741  134.1085  152.2766 H   0  0  0  0  0  0  0  0  0  0  0  0
  145.8488  135.5439  150.0573 H   0  0  0  0  0  0  0  0  0  0  0  0
  1  2  1  0  0  0  0
  1 26  1  0  0  0  0
  1 27  1  0  0  0  0
  1 28  1  0  0  0  0
  2  7  1  0  0  0  0
  2  3  1  0  0  0  0
  2 29  1  0  0  0  0
  3  4  1  0  0  0  0
  3 30  1  0  0  0  0
  3 31  1  0  0  0  0
  4  5  1  0  0  0  0
  4 32  1  0  0  0  0
  4 33  1  0  0  0  0
  5  6  1  0  0  0  0
  5 34  1  0  0  0  0
  5 35  1  0  0  0  0
  6  7  1  0  0  0  0
  6 36  1  0  0  0  0
  6 37  1  0  0  0  0
  7 24  1  0  0  0  0
  7  8  1  0  0  0  0
  8  9  1  0  0  0  0
  9 10  2  0  0  0  0
  9 11  1  0  0  0  0
 11 12  1  0  0  0  0
 11 24  1  0  0  0  0
 12 13  1  0  0  0  0
 12 38  1  0  0  0  0
 12 39  1  0  0  0  0
 13 14  2  0  0  0  0
 13 15  1  0  0  0  0
 15 16  1  0  0  0  0
 15 40  1  0  0  0  0
 16 17  1  0  0  0  0
 16 41  1  0  0  0  0
 16 42  1  0  0  0  0
 17 18  1  0  0  0  0
 17 43  1  0  0  0  0
 17 44  1  0  0  0  0
 18 23  1  0  0  0  0
 18 19  2  0  0  0  0
 19 20  1  0  0  0  0
 19 45  1  0  0  0  0
 20 21  2  0  0  0  0
 20 46  1  0  0  0  0
 21 22  1  0  0  0  0
 21 47  1  0  0  0  0
 22 23  2  0  0  0  0
 23 48  1  0  0  0  0
 24 25  2  0  0  0  0
M  CHG  1   8  -1
M  END
> <s_m_source_file>
AV-unprocessed.smi

> <i_m_source_file_index>
837

> <i_lp_mmshare_version>
43012

> <i_f3d_flags>
0

> <s_epik_input>
W0NIMl0xW0NIMl1bQ0gyXVtDSDJdW0NAQEhdKFtDSDNdKVtDQEBdMTJbTkhdQyg9TylOKEMyPU8pW0NIMl1DKD1PKVtOSF1bQ0gyXVtDSDJdYzNbY0hdW2NIXVtjSF1uW2NIXTM=

> <s_epik_cmdline>
J2VwaWtfcHl0aG9uJywgJy1waCcsICc3LjAnLCAnLXRuJywgJzgnLCAnLW1hJywgJzIwMCcsICctbWV0YWxfYmluZGluZycsICctaW1hZScsICc8aW5maWxlLm1hZT4nLCAnLW9tYWUnLCAnPG91dGZpbGUubWFlPic=

> <r_lp_tautomer_probability>
1

> <r_epik_Ionization_Penalty>
6.03002

> <r_epik_Ionization_Penalty_Charging>
6.01728

> <r_epik_Ionization_Penalty_Neutral>
0.0127382

> <r_epik_State_Penalty>
6.02713

> <r_epik_Charging_Adjusted_Penalty>
12.0444

> <i_epik_Tot_Q>
-1

> <i_epik_Tot_abs_Q>
1

> <r_epik_Metal_State_Penalty>
1.99078

> <b_epik_Metal_Only>
1

> <s_lp_Force_Field>
OPLS_2005

> <r_lp_Energy>
14.9732

> <b_lp_Chiralities_Consistent>
1

> <s_lp_Variant>
AV-unprocessed.smi:837-11

> <Gold.Version>
5.8.1

> <Gold.Id.Protein>
6NUR|6NUR_protein|mol2

> <Gold.PLP.Fitness>
46.2219

> <Gold.PLP.PLP>
-34.3446

> <Gold.PLP.part.hbond>
-2.8690

> <Gold.PLP.part.metal>
0.0000

> <Gold.PLP.part.buried>
-3.1127

> <Gold.PLP.part.nonpolar>
-29.1147

> <Gold.PLP.part.repulsive>
0.3839

> <Gold.PLP.ligand.clash>
0.0000

> <Gold.PLP.ligand.torsion>
0.5935

> <Gold.PLP.Chemscore.Hbond>
3.3422

> <Gold.PLP.Chemscore.CHOScore>
1.0000

> <Gold.PLP.Chemscore.Metal>
0.0000

> <Gold.Chemscore.Hbonds>
donor molecule, donor type, donor heavy atom, donor atom, acceptor molecule, acceptor atom, score
      L1  H    15    40       P1  7948  1.00
      P1  H  7997  8009       L1     8  1.90
      P1  H 10752 10763       L1    10  0.42
      L1  C    23    48       P1  7921  0.99

> <Gold.PLP.Chemscore.Internal.Correction>
0.0377

> <Gold.Rescore>
     Score         DG    S(hbond)    S(metal)    S(lipo)     H(rot)  DE(clash)    DE(int)     intcor
     13.13     -17.80       1.87        0.00      91.35       1.81       1.68       2.98       ----

> <Gold.Chemscore.Fitness>
13.1320

> <Gold.Chemscore.DG>
-17.7976

> <Gold.Chemscore.ZeroCoef>
-5.4800

> <Gold.Chemscore.Hbond>
1.8745

> <Gold.Chemscore.Metal>
0.0000

> <Gold.Chemscore.Lipo>
91.3486

> <Gold.Chemscore.Internal_Hbond>
0.0000

> <Gold.Chemscore.DEClash>
1.6838

> <Gold.Chemscore.DEInternal>
2.9817

> <Gold.Chemscore.Rot>
1.8090

> <Gold.Chemscore.Internal.Correction>
   9.000000E+99

> <Gold.Chemscore.Hbonds>
donor molecule, donor type, donor heavy atom, donor atom, acceptor molecule, acceptor atom, score
      L1  H    15    40       P1  7948  1.00
      P1  H  7997  8009       L1     8  0.21
      P1  H 10752 10763       L1    10  0.43

> <Gold.Chemscore.Hbond.Weighted>
-6.2608

> <Gold.Chemscore.Metal.Weighted>
-0.0000

> <Gold.Chemscore.Lipo.Weighted>
-10.6878

> <Gold.Chemscore.Internal_Hbond.Weighted>
0.0000

> <Gold.Chemscore.DEClash.Weighted>
1.6838

> <Gold.Chemscore.DEInternal.Weighted>
2.9817

> <Gold.Chemscore.Rot.Weighted>
4.6310

> <Gold.Chemscore.Internal.Correction.Weighted>
   9.000000E+99

> <Gold.Protein.RotatedTorsions>
[ 6907 6896 6895 6894 ] final   90.53 input  -60.11 | X-H torsion
[ 7974 7965 7964 7962 ] final  124.65 input  175.53 | X-H torsion
[ 8008 7997 7996 7995 ] final -155.99 input   59.86 | X-H torsion
[ 10167 10162 10161 10158 ] final    9.37 input  -65.29 | X-H torsion
[ 10718 10713 10712 10709 ] final  -85.18 input   66.30 | X-H torsion
[ 10763 10752 10751 10750 ] final   36.68 input  -60.55 | X-H torsion
[ 11005 11000 10999 10996 ] final -124.90 input  -57.11 | X-H torsion

> <Gold.Protein.ActiveResidues>
 VAL166  LYS551  ARG553  GLY616  TRP617  ASP618  TYR619  PRO620  LYS621  CYS622 
 ASP623  PHE694  ASN695  SER759  ASP760  ASP761  ALA762  ILE779  LEU786  VAL792 
 PHE793  MET794  SER795  GLU796  ALA797  LYS798  CYS799  TRP800  GLU811  SER814 

> <Gold.Protein.RotatedAtoms>
  152.5445  134.1797  159.8629 H   0  0  0  0  0  0  0  0  0  0  0  0  # atno 6907 bound_to 6896
  151.1800  133.4724  159.2601 H   0  0  0  0  0  0  0  0  0  0  0  0  # atno 6908 bound_to 6896
  151.1188  135.0079  159.8584 H   0  0  0  0  0  0  0  0  0  0  0  0  # atno 6909 bound_to 6896
  145.0820  139.3650  143.4904 H   0  0  0  0  0  0  0  0  0  0  0  0  # atno 7974 bound_to 7965
  155.7103  140.0777  157.2374 H   0  0  0  0  0  0  0  0  0  0  0  0  # atno 8008 bound_to 7997
  154.4059  140.1631  156.2343 H   0  0  0  0  0  0  0  0  0  0  0  0  # atno 8009 bound_to 7997
  155.9288  140.3392  155.6235 H   0  0  0  0  0  0  0  0  0  0  0  0  # atno 8010 bound_to 7997
  140.6259  143.8102  150.7232 H   0  0  0  0  0  0  0  0  0  0  0  0  # atno 10167 bound_to 10162
  155.9999  130.4722  150.4523 H   0  0  0  0  0  0  0  0  0  0  0  0  # atno 10718 bound_to 10713
  153.0067  135.6299  154.2024 H   0  0  0  0  0  0  0  0  0  0  0  0  # atno 10763 bound_to 10752
  154.1767  135.2815  155.3066 H   0  0  0  0  0  0  0  0  0  0  0  0  # atno 10764 bound_to 10752
  154.5867  135.5630  153.7297 H   0  0  0  0  0  0  0  0  0  0  0  0  # atno 10765 bound_to 10752
  140.9805  134.0680  157.3770 H   0  0  0  0  0  0  0  0  0  0  0  0  # atno 11005 bound_to 11000
  146.3531  140.0614  142.8629 LP  0  0  0  0  0  0  0  0  0  0  0  0  # atno 17320 bound_to 7965
  145.1167  140.9438  143.4624 LP  0  0  0  0  0  0  0  0  0  0  0  0  # atno 17321 bound_to 7965
  140.1703  143.4200  152.2006 LP  0  0  0  0  0  0  0  0  0  0  0  0  # atno 17342 bound_to 10162
  139.5479  144.7314  151.4525 LP  0  0  0  0  0  0  0  0  0  0  0  0  # atno 17343 bound_to 10162
  157.2555  131.0555  151.2353 LP  0  0  0  0  0  0  0  0  0  0  0  0  # atno 17370 bound_to 10713
  157.3487  130.7070  149.6427 LP  0  0  0  0  0  0  0  0  0  0  0  0  # atno 17371 bound_to 10713
  139.8948  135.0138  156.6970 LP  0  0  0  0  0  0  0  0  0  0  0  0  # atno 17394 bound_to 11000
  140.7194  133.9154  155.8136 LP  0  0  0  0  0  0  0  0  0  0  0  0  # atno 17395 bound_to 11000

$$$$
