AV-unprocessed.smi:3054|AV-procd|sdf|11640|dock2
  -GOLD-   2272017 33D 1   1.00000     0.00000
 Structure written by MMmdl.
 40 41  0  0  0  0  0  0  0  0  2 V2000
  146.9148  138.3048  155.9428 C   0  0  0  0  0  0  0  0  0  0  0  0
  146.1143  138.2813  154.6331 C   0  0  0  0  0  0  0  0  0  0  0  0
  147.0028  138.3033  153.3620 C   0  0  1  0  0  0  0  0  0  0  0  0
  146.2092  137.9366  152.0861 C   0  0  0  0  0  0  0  0  0  0  0  0
  146.3614  136.5305  151.7168 N   0  0  0  0  0  0  0  0  0  0  0  0
  145.3592  135.6701  151.4884 C   0  0  0  0  0  0  0  0  0  0  0  0
  144.1706  135.9840  151.5375 O   0  0  0  0  0  0  0  0  0  0  0  0
  145.8234  134.4456  151.1924 N   0  0  0  0  0  0  0  0  0  0  0  0
  145.0597  133.2896  150.8941 C   0  0  0  0  0  0  0  0  0  0  0  0
  145.5023  131.9644  150.6087 C   0  0  0  0  0  0  0  0  0  0  0  0
  144.4775  131.1564  150.3774 N   0  0  0  0  0  0  0  0  0  0  0  0
  143.3903  131.9490  150.5088 N   0  0  0  0  0  0  0  0  0  0  0  0
  143.6991  133.2541  150.8227 C   0  0  0  0  0  0  0  0  0  0  0  0
  147.7439  139.5865  153.1853 N   0  3  0  0  0  0  0  0  0  0  0  0
  146.9322  140.8232  153.0532 C   0  0  0  0  0  0  0  0  0  0  0  0
  147.4054  141.7682  154.1589 C   0  0  0  0  0  0  0  0  0  0  0  0
  148.8554  141.3540  154.3754 C   0  0  0  0  0  0  0  0  0  0  0  0
  148.8104  139.8387  154.1840 C   0  0  0  0  0  0  0  0  0  0  0  0
  142.4552  131.5884  150.3816 H   0  0  0  0  0  0  0  0  0  0  0  0
  146.2457  138.3578  156.8019 H   0  0  0  0  0  0  0  0  0  0  0  0
  147.5757  139.1707  155.9864 H   0  0  0  0  0  0  0  0  0  0  0  0
  147.5242  137.4092  156.0615 H   0  0  0  0  0  0  0  0  0  0  0  0
  145.4700  137.4022  154.6357 H   0  0  0  0  0  0  0  0  0  0  0  0
  145.4445  139.1407  154.6409 H   0  0  0  0  0  0  0  0  0  0  0  0
  147.7686  137.5349  153.4832 H   0  0  0  0  0  0  0  0  0  0  0  0
  145.1448  138.1050  152.2447 H   0  0  0  0  0  0  0  0  0  0  0  0
  146.4933  138.5885  151.2582 H   0  0  0  0  0  0  0  0  0  0  0  0
  147.3064  136.1798  151.6550 H   0  0  0  0  0  0  0  0  0  0  0  0
  146.8257  134.3254  151.1812 H   0  0  0  0  0  0  0  0  0  0  0  0
  146.5033  131.5624  150.5601 H   0  0  0  0  0  0  0  0  0  0  0  0
  142.9466  134.0165  150.9625 H   0  0  0  0  0  0  0  0  0  0  0  0
  147.1610  141.2633  152.0824 H   0  0  0  0  0  0  0  0  0  0  0  0
  145.8554  140.6621  153.0778 H   0  0  0  0  0  0  0  0  0  0  0  0
  147.2987  142.8200  153.8917 H   0  0  0  0  0  0  0  0  0  0  0  0
  146.8306  141.5917  155.0693 H   0  0  0  0  0  0  0  0  0  0  0  0
  149.4881  141.8087  153.6117 H   0  0  0  0  0  0  0  0  0  0  0  0
  149.2408  141.6473  155.3524 H   0  0  0  0  0  0  0  0  0  0  0  0
  148.5723  139.3626  155.1354 H   0  0  0  0  0  0  0  0  0  0  0  0
  149.7660  139.4358  153.8473 H   0  0  0  0  0  0  0  0  0  0  0  0
  148.2257  139.4965  152.3019 H   0  0  0  0  0  0  0  0  0  0  0  0
  1  2  1  0  0  0  0
  1 20  1  0  0  0  0
  1 21  1  0  0  0  0
  1 22  1  0  0  0  0
  2  3  1  0  0  0  0
  2 23  1  0  0  0  0
  2 24  1  0  0  0  0
  3  4  1  0  0  0  0
  3 14  1  0  0  0  0
  3 25  1  0  0  0  0
  4  5  1  0  0  0  0
  4 26  1  0  0  0  0
  4 27  1  0  0  0  0
  5  6  1  0  0  0  0
  5 28  1  0  0  0  0
  6  7  2  0  0  0  0
  6  8  1  0  0  0  0
  8  9  1  0  0  0  0
  8 29  1  0  0  0  0
  9 13  2  0  0  0  0
  9 10  1  0  0  0  0
 10 11  2  0  0  0  0
 10 30  1  0  0  0  0
 11 12  1  0  0  0  0
 12 19  1  0  0  0  0
 12 13  1  0  0  0  0
 13 31  1  0  0  0  0
 14 18  1  0  0  0  0
 14 15  1  0  0  0  0
 14 40  1  0  0  0  0
 15 16  1  0  0  0  0
 15 32  1  0  0  0  0
 15 33  1  0  0  0  0
 16 17  1  0  0  0  0
 16 34  1  0  0  0  0
 16 35  1  0  0  0  0
 17 18  1  0  0  0  0
 17 36  1  0  0  0  0
 17 37  1  0  0  0  0
 18 38  1  0  0  0  0
 18 39  1  0  0  0  0
M  CHG  1  14   1
M  END
> <s_m_source_file>
AV-unprocessed.smi

> <i_m_source_file_index>
3054

> <i_lp_mmshare_version>
43012

> <i_f3d_flags>
0

> <s_epik_input>
W0NIMl0xW0NIMl1bQ0gyXVtDSDJdTjFbQ0BIXShbQ0gyXVtDSDNdKVtDSDJdW05IXUMoPU8pW05IXWMyW2NIXW5bbkhdW2NIXTI=

> <s_epik_cmdline>
J2VwaWtfcHl0aG9uJywgJy1waCcsICc3LjAnLCAnLXRuJywgJzgnLCAnLW1hJywgJzIwMCcsICctbWV0YWxfYmluZGluZycsICctaW1hZScsICc8aW5maWxlLm1hZT4nLCAnLW9tYWUnLCAnPG91dGZpbGUubWFlPic=

> <r_lp_tautomer_probability>
0.5

> <r_epik_Ionization_Penalty>
0.00108132

> <r_epik_Ionization_Penalty_Charging>
0.00104139

> <r_epik_Ionization_Penalty_Neutral>
3.99244e-05

> <r_epik_State_Penalty>
0.00068071

> <r_epik_Charging_Adjusted_Penalty>
0.0017221

> <i_epik_Tot_Q>
1

> <i_epik_Tot_abs_Q>
1

> <r_epik_Metal_State_Penalty>
-0

> <b_epik_Metal_Only>
0

> <s_lp_Force_Field>
OPLS_2005

> <r_lp_Energy>
40.663

> <b_lp_Chiralities_Consistent>
1

> <s_lp_Variant>
AV-unprocessed.smi:3054-2

> <Gold.Version>
5.8.1

> <Gold.Id.Protein>
6NUR|6NUR_protein|mol2

> <Gold.PLP.Fitness>
41.2528

> <Gold.PLP.PLP>
-28.8231

> <Gold.PLP.part.hbond>
-3.4772

> <Gold.PLP.part.metal>
0.0000

> <Gold.PLP.part.buried>
-2.3285

> <Gold.PLP.part.nonpolar>
-24.3844

> <Gold.PLP.part.repulsive>
0.9873

> <Gold.PLP.ligand.clash>
0.0000

> <Gold.PLP.ligand.torsion>
0.7572

> <Gold.PLP.Chemscore.Hbond>
2.5819

> <Gold.PLP.Chemscore.CHOScore>
1.9996

> <Gold.PLP.Chemscore.Metal>
0.0000

> <Gold.Chemscore.Hbonds>
donor molecule, donor type, donor heavy atom, donor atom, acceptor molecule, acceptor atom, score
      L1  H     5    28       P1  7948  1.00
      L1  H    12    19       P1 10952  0.57
      L1  H    14    40       P1  7957  1.00
      P1  H 10785 10796       L1    11  0.03
      L1  C    10    30       P1 10747  0.87
      L1  C    13    31       P1 10186  0.95

> <Gold.PLP.Chemscore.Internal.Correction>
0.1996

> <Gold.Rescore>
     Score         DG    S(hbond)    S(metal)    S(lipo)     H(rot)  DE(clash)    DE(int)     intcor
     14.18     -17.67       2.70        0.00      66.86       1.81       1.31       2.19       ----

> <Gold.Chemscore.Fitness>
14.1763

> <Gold.Chemscore.DG>
-17.6745

> <Gold.Chemscore.ZeroCoef>
-5.4800

> <Gold.Chemscore.Hbond>
2.6958

> <Gold.Chemscore.Metal>
0.0000

> <Gold.Chemscore.Lipo>
66.8612

> <Gold.Chemscore.Internal_Hbond>
0.0000

> <Gold.Chemscore.DEClash>
1.3092

> <Gold.Chemscore.DEInternal>
2.1890

> <Gold.Chemscore.Rot>
1.8094

> <Gold.Chemscore.Internal.Correction>
   9.000000E+99

> <Gold.Chemscore.Hbonds>
donor molecule, donor type, donor heavy atom, donor atom, acceptor molecule, acceptor atom, score
      L1  H     5    28       P1  7948  0.98
      L1  H    12    19       P1 10952  0.34
      L1  H    14    40       P1  7957  0.94

> <Gold.Chemscore.Hbond.Weighted>
-9.0039

> <Gold.Chemscore.Metal.Weighted>
-0.0000

> <Gold.Chemscore.Lipo.Weighted>
-7.8228

> <Gold.Chemscore.Internal_Hbond.Weighted>
0.0000

> <Gold.Chemscore.DEClash.Weighted>
1.3092

> <Gold.Chemscore.DEInternal.Weighted>
2.1890

> <Gold.Chemscore.Rot.Weighted>
4.6322

> <Gold.Chemscore.Internal.Correction.Weighted>
   9.000000E+99

> <Gold.Protein.RotatedTorsions>
[ 6907 6896 6895 6894 ] final  -90.08 input  -60.11 | X-H torsion
[ 7974 7965 7964 7962 ] final -166.53 input  175.53 | X-H torsion
[ 8008 7997 7996 7995 ] final   24.69 input   59.86 | X-H torsion
[ 10167 10162 10161 10158 ] final   90.34 input  -65.29 | X-H torsion
[ 10718 10713 10712 10709 ] final  134.82 input   66.30 | X-H torsion
[ 10763 10752 10751 10750 ] final  -25.32 input  -60.55 | X-H torsion
[ 11005 11000 10999 10996 ] final   41.72 input  -57.11 | X-H torsion

> <Gold.Protein.ActiveResidues>
 VAL166  LYS551  ARG553  GLY616  TRP617  ASP618  TYR619  PRO620  LYS621  CYS622 
 ASP623  PHE694  ASN695  SER759  ASP760  ASP761  ALA762  ILE779  LEU786  VAL792 
 PHE793  MET794  SER795  GLU796  ALA797  LYS798  CYS799  TRP800  GLU811  SER814 

> <Gold.Protein.RotatedAtoms>
  150.6879  134.2487  159.4501 H   0  0  0  0  0  0  0  0  0  0  0  0  # atno 6907 bound_to 6896
  152.0426  134.9700  160.0583 H   0  0  0  0  0  0  0  0  0  0  0  0  # atno 6908 bound_to 6896
  152.1195  133.4311  159.4706 H   0  0  0  0  0  0  0  0  0  0  0  0  # atno 6909 bound_to 6896
  144.7243  140.2653  143.6259 H   0  0  0  0  0  0  0  0  0  0  0  0  # atno 7974 bound_to 7965
  155.0002  140.3124  155.4870 H   0  0  0  0  0  0  0  0  0  0  0  0  # atno 8008 bound_to 7997
  156.2926  140.2233  156.5052 H   0  0  0  0  0  0  0  0  0  0  0  0  # atno 8009 bound_to 7997
  154.7626  140.0458  157.0974 H   0  0  0  0  0  0  0  0  0  0  0  0  # atno 8010 bound_to 7997
  139.8483  144.6606  150.9200 H   0  0  0  0  0  0  0  0  0  0  0  0  # atno 10167 bound_to 10162
  157.4634  131.1075  150.9892 H   0  0  0  0  0  0  0  0  0  0  0  0  # atno 10718 bound_to 10713
  153.6979  135.6958  153.5071 H   0  0  0  0  0  0  0  0  0  0  0  0  # atno 10763 bound_to 10752
  153.2364  135.4320  155.0650 H   0  0  0  0  0  0  0  0  0  0  0  0  # atno 10764 bound_to 10752
  154.8353  135.3497  154.6519 H   0  0  0  0  0  0  0  0  0  0  0  0  # atno 10765 bound_to 10752
  140.1808  134.4107  155.8201 H   0  0  0  0  0  0  0  0  0  0  0  0  # atno 11005 bound_to 11000
  145.8096  139.1997  143.2001 LP  0  0  0  0  0  0  0  0  0  0  0  0  # atno 17320 bound_to 7965
  146.0607  140.7973  142.9736 LP  0  0  0  0  0  0  0  0  0  0  0  0  # atno 17321 bound_to 7965
  140.7790  143.3850  151.1409 LP  0  0  0  0  0  0  0  0  0  0  0  0  # atno 17342 bound_to 10162
  139.7491  143.8807  152.3072 LP  0  0  0  0  0  0  0  0  0  0  0  0  # atno 17343 bound_to 10162
  157.0682  130.5853  149.5398 LP  0  0  0  0  0  0  0  0  0  0  0  0  # atno 17370 bound_to 10713
  156.0039  130.5122  150.7761 LP  0  0  0  0  0  0  0  0  0  0  0  0  # atno 17371 bound_to 10713
  141.2223  133.6999  156.7926 LP  0  0  0  0  0  0  0  0  0  0  0  0  # atno 17394 bound_to 11000
  140.2270  134.8714  157.3437 LP  0  0  0  0  0  0  0  0  0  0  0  0  # atno 17395 bound_to 11000

$$$$
