AV-unprocessed.smi:3085|AV-procd|sdf|11752|dock8
  -GOLD-   2272017143D 1   1.00000     0.00000
 Structure written by MMmdl.
 28 29  0  0  0  0  0  0  0  0  2 V2000
  152.0483  143.7949  160.7633 C   0  0  0  0  0  0  0  0  0  0  0  0
  152.3765  142.4670  160.0716 C   0  0  0  0  0  0  0  0  0  0  0  0
  151.7988  142.3886  158.6972 C   0  0  0  0  0  0  0  0  0  0  0  0
  151.9519  141.2945  157.8916 N   0  0  0  0  0  0  0  0  0  0  0  0
  151.2439  141.6789  156.8336 C   0  0  0  0  0  0  0  0  0  0  0  0
  151.0285  140.8704  155.5932 C   0  0  2  0  0  0  0  0  0  0  0  0
  149.5345  140.6493  155.2872 C   0  0  0  0  0  0  0  0  0  0  0  0
  149.3851  139.7658  154.1145 N   0  3  0  0  0  0  0  0  0  0  0  0
  150.1136  138.4951  154.2998 C   0  0  0  0  0  0  0  0  0  0  0  0
  151.5873  138.7754  154.6433 C   0  0  0  0  0  0  0  0  0  0  0  0
  151.6623  139.6095  155.7951 O   0  0  0  0  0  0  0  0  0  0  0  0
  150.7016  142.8878  156.9969 N   0  0  0  0  0  0  0  0  0  0  0  0
  151.0423  143.3709  158.2099 N   0  0  0  0  0  0  0  0  0  0  0  0
  150.1185  143.3953  156.3469 H   0  0  0  0  0  0  0  0  0  0  0  0
  152.4853  143.8319  161.7613 H   0  0  0  0  0  0  0  0  0  0  0  0
  150.9711  143.9291  160.8654 H   0  0  0  0  0  0  0  0  0  0  0  0
  152.4394  144.6406  160.1969 H   0  0  0  0  0  0  0  0  0  0  0  0
  153.4579  142.3363  160.0150 H   0  0  0  0  0  0  0  0  0  0  0  0
  151.9957  141.6359  160.6661 H   0  0  0  0  0  0  0  0  0  0  0  0
  151.5101  141.3839  154.7582 H   0  0  0  0  0  0  0  0  0  0  0  0
  149.0329  140.1917  156.1413 H   0  0  0  0  0  0  0  0  0  0  0  0
  149.0353  141.5987  155.0913 H   0  0  0  0  0  0  0  0  0  0  0  0
  148.4054  139.5724  153.9610 H   0  0  0  0  0  0  0  0  0  0  0  0
  149.6421  137.9253  155.1016 H   0  0  0  0  0  0  0  0  0  0  0  0
  150.0367  137.8968  153.3917 H   0  0  0  0  0  0  0  0  0  0  0  0
  152.1105  137.8411  154.8483 H   0  0  0  0  0  0  0  0  0  0  0  0
  152.0990  139.2495  153.8043 H   0  0  0  0  0  0  0  0  0  0  0  0
  149.7588  140.2376  153.3033 H   0  0  0  0  0  0  0  0  0  0  0  0
  1  2  1  0  0  0  0
  1 15  1  0  0  0  0
  1 16  1  0  0  0  0
  1 17  1  0  0  0  0
  2 18  1  0  0  0  0
  2 19  1  0  0  0  0
  2  3  1  0  0  0  0
  3  4  1  0  0  0  0
  3 13  2  0  0  0  0
  4  5  2  0  0  0  0
  5  6  1  0  0  0  0
  5 12  1  0  0  0  0
  6 11  1  0  0  0  0
  6  7  1  0  0  0  0
  6 20  1  0  0  0  0
  7  8  1  0  0  0  0
  7 21  1  0  0  0  0
  7 22  1  0  0  0  0
  8  9  1  0  0  0  0
  8 23  1  0  0  0  0
  8 28  1  0  0  0  0
  9 10  1  0  0  0  0
  9 24  1  0  0  0  0
  9 25  1  0  0  0  0
 10 11  1  0  0  0  0
 10 26  1  0  0  0  0
 10 27  1  0  0  0  0
 12 13  1  0  0  0  0
 12 14  1  0  0  0  0
M  CHG  1   8   1
M  END
> <s_m_source_file>
AV-unprocessed.smi

> <i_m_source_file_index>
3085

> <i_lp_mmshare_version>
43012

> <i_f3d_flags>
0

> <s_epik_input>
W0NIM11bQ0gyXWMxbmMobltuSF0xKVtDQEBIXTJbQ0gyXVtOSF1bQ0gyXVtDSDJdTzI=

> <s_epik_cmdline>
J2VwaWtfcHl0aG9uJywgJy1waCcsICc3LjAnLCAnLXRuJywgJzgnLCAnLW1hJywgJzIwMCcsICctbWV0YWxfYmluZGluZycsICctaW1hZScsICc8aW5maWxlLm1hZT4nLCAnLW9tYWUnLCAnPG91dGZpbGUubWFlPic=

> <r_epik_Ionization_Penalty>
0.162344

> <r_epik_Ionization_Penalty_Charging>
0.125708

> <r_epik_Ionization_Penalty_Neutral>
0.0366364

> <r_epik_State_Penalty>
0.637958

> <r_epik_Charging_Adjusted_Penalty>
0.763666

> <i_epik_Tot_Q>
1

> <i_epik_Tot_abs_Q>
1

> <r_epik_Metal_State_Penalty>
0.860091

> <b_epik_Metal_Only>
0

> <s_lp_Force_Field>
OPLS_2005

> <r_lp_Energy>
9.17309

> <b_lp_Chiralities_Consistent>
1

> <s_lp_Variant>
AV-unprocessed.smi:3085-3

> <Gold.Version>
5.8.1

> <Gold.Id.Protein>
6NUR|6NUR_protein|mol2

> <Gold.PLP.Fitness>
29.6901

> <Gold.PLP.PLP>
-25.1694

> <Gold.PLP.part.hbond>
-2.0000

> <Gold.PLP.part.metal>
0.0000

> <Gold.PLP.part.buried>
-4.0749

> <Gold.PLP.part.nonpolar>
-19.1060

> <Gold.PLP.part.repulsive>
0.2687

> <Gold.PLP.ligand.clash>
0.0000

> <Gold.PLP.ligand.torsion>
0.0328

> <Gold.PLP.Chemscore.Hbond>
1.5262

> <Gold.PLP.Chemscore.CHOScore>
0.0000

> <Gold.PLP.Chemscore.Metal>
0.0000

> <Gold.Chemscore.Hbonds>
donor molecule, donor type, donor heavy atom, donor atom, acceptor molecule, acceptor atom, score
      L1  H     8    28       P1  7957  0.51
      L1  H    12    14       P1  8028  1.00

> <Gold.PLP.Chemscore.Internal.Correction>
0.0075

> <Gold.Rescore>
     Score         DG    S(hbond)    S(metal)    S(lipo)     H(rot)  DE(clash)    DE(int)     intcor
     13.19     -13.80       1.65        0.00      52.35       1.30       0.57       0.04       ----

> <Gold.Chemscore.Fitness>
13.1864

> <Gold.Chemscore.DG>
-13.7993

> <Gold.Chemscore.ZeroCoef>
-5.4800

> <Gold.Chemscore.Hbond>
1.6543

> <Gold.Chemscore.Metal>
0.0000

> <Gold.Chemscore.Lipo>
52.3489

> <Gold.Chemscore.Internal_Hbond>
0.0000

> <Gold.Chemscore.DEClash>
0.5702

> <Gold.Chemscore.DEInternal>
0.0427

> <Gold.Chemscore.Rot>
1.3011

> <Gold.Chemscore.Internal.Correction>
   9.000000E+99

> <Gold.Chemscore.Hbonds>
donor molecule, donor type, donor heavy atom, donor atom, acceptor molecule, acceptor atom, score
      L1  H     8    28       P1  7957  0.51
      L1  H    12    14       P1  8028  0.99

> <Gold.Chemscore.Hbond.Weighted>
-5.5253

> <Gold.Chemscore.Metal.Weighted>
-0.0000

> <Gold.Chemscore.Lipo.Weighted>
-6.1248

> <Gold.Chemscore.Internal_Hbond.Weighted>
0.0000

> <Gold.Chemscore.DEClash.Weighted>
0.5702

> <Gold.Chemscore.DEInternal.Weighted>
0.0427

> <Gold.Chemscore.Rot.Weighted>
3.3308

> <Gold.Chemscore.Internal.Correction.Weighted>
   9.000000E+99

> <Gold.Protein.RotatedTorsions>
[ 6907 6896 6895 6894 ] final  142.45 input  -60.11 | X-H torsion
[ 7974 7965 7964 7962 ] final  123.40 input  175.53 | X-H torsion
[ 8008 7997 7996 7995 ] final -171.29 input   59.86 | X-H torsion
[ 10167 10162 10161 10158 ] final   -2.23 input  -65.29 | X-H torsion
[ 10718 10713 10712 10709 ] final   76.49 input   66.30 | X-H torsion
[ 10763 10752 10751 10750 ] final   54.72 input  -60.55 | X-H torsion
[ 11005 11000 10999 10996 ] final   28.52 input  -57.11 | X-H torsion

> <Gold.Protein.ActiveResidues>
 VAL166  LYS551  ARG553  GLY616  TRP617  ASP618  TYR619  PRO620  LYS621  CYS622 
 ASP623  PHE694  ASN695  SER759  ASP760  ASP761  ALA762  ILE779  LEU786  VAL792 
 PHE793  MET794  SER795  GLU796  ALA797  LYS798  CYS799  TRP800  GLU811  SER814 

> <Gold.Protein.RotatedAtoms>
  152.2185  133.4965  159.5149 H   0  0  0  0  0  0  0  0  0  0  0  0  # atno 6907 bound_to 6896
  150.7007  134.1373  159.4101 H   0  0  0  0  0  0  0  0  0  0  0  0  # atno 6908 bound_to 6896
  151.9294  135.0263  160.0579 H   0  0  0  0  0  0  0  0  0  0  0  0  # atno 6909 bound_to 6896
  145.0963  139.3550  143.4835 H   0  0  0  0  0  0  0  0  0  0  0  0  # atno 7974 bound_to 7965
  155.9296  140.1089  157.1143 H   0  0  0  0  0  0  0  0  0  0  0  0  # atno 8008 bound_to 7997
  154.4068  140.1240  156.4851 H   0  0  0  0  0  0  0  0  0  0  0  0  # atno 8009 bound_to 7997
  155.7096  140.3471  155.4970 H   0  0  0  0  0  0  0  0  0  0  0  0  # atno 8010 bound_to 7997
  140.6842  143.6682  150.8208 H   0  0  0  0  0  0  0  0  0  0  0  0  # atno 10167 bound_to 10162
  157.6675  130.9777  150.1504 H   0  0  0  0  0  0  0  0  0  0  0  0  # atno 10718 bound_to 10713
  152.9808  135.5735  154.4950 H   0  0  0  0  0  0  0  0  0  0  0  0  # atno 10763 bound_to 10752
  154.4478  135.2777  155.1804 H   0  0  0  0  0  0  0  0  0  0  0  0  # atno 10764 bound_to 10752
  154.3445  135.6222  153.5666 H   0  0  0  0  0  0  0  0  0  0  0  0  # atno 10765 bound_to 10752
  140.3147  134.2610  155.7727 H   0  0  0  0  0  0  0  0  0  0  0  0  # atno 11005 bound_to 11000
  146.3530  140.0820  142.8617 LP  0  0  0  0  0  0  0  0  0  0  0  0  # atno 17320 bound_to 7965
  145.1007  140.9344  143.4714 LP  0  0  0  0  0  0  0  0  0  0  0  0  # atno 17321 bound_to 7965
  140.0387  143.5369  152.2728 LP  0  0  0  0  0  0  0  0  0  0  0  0  # atno 17342 bound_to 10162
  139.6188  144.7625  151.2787 LP  0  0  0  0  0  0  0  0  0  0  0  0  # atno 17343 bound_to 10162
  156.2305  130.3681  149.8451 LP  0  0  0  0  0  0  0  0  0  0  0  0  # atno 17370 bound_to 10713
  156.6279  130.8653  151.3489 LP  0  0  0  0  0  0  0  0  0  0  0  0  # atno 17371 bound_to 10713
  141.2100  133.7732  156.9959 LP  0  0  0  0  0  0  0  0  0  0  0  0  # atno 17394 bound_to 11000
  140.0993  134.9545  157.1899 LP  0  0  0  0  0  0  0  0  0  0  0  0  # atno 17395 bound_to 11000

$$$$
