AV-unprocessed.smi:1626|AV-procd|sdf|6512|dock5
  -GOLD-   22720 7183D 1   1.00000     0.00000
 Structure written by MMmdl.
 49 51  0  0  0  0  0  0  0  0  3 V2000
  153.0664  142.7830  161.6842 C   0  0  0  0  0  0  0  0  0  0  0  0
  152.5040  142.3805  160.3315 C   0  0  0  0  0  0  0  0  0  0  0  0
  152.5969  141.0260  159.9387 C   0  0  0  0  0  0  0  0  0  0  0  0
  152.0699  140.6879  158.6979 C   0  0  0  0  0  0  0  0  0  0  0  0
  151.9980  139.4596  158.0372 N   0  3  0  0  0  0  0  0  0  0  0  0
  151.3824  139.6257  156.8338 C   0  0  0  0  0  0  0  0  0  0  0  0
  151.0718  140.9455  156.7110 N   0  0  0  0  0  0  0  0  0  0  0  0
  150.3980  141.6617  155.6201 C   0  0  0  0  0  0  0  0  0  0  0  0
  149.3906  140.7878  154.8440 C   0  0  2  0  0  0  0  0  0  0  0  0
  150.1314  140.0196  153.9176 O   0  0  0  0  0  0  0  0  0  0  0  0
  148.3247  141.6097  154.0847 C   0  0  0  0  0  0  0  0  0  0  0  0
  147.4084  142.3463  154.9933 N   0  3  2  0  0  0  0  0  0  0  0  0
  147.1343  141.5931  156.2443 C   0  0  0  0  0  0  0  0  0  0  0  0
  146.3081  142.4344  157.2338 C   0  0  0  0  0  0  0  0  0  0  0  0
  145.0031  142.9481  156.6039 C   0  0  2  0  0  0  0  0  0  0  0  0
  144.1063  141.8743  156.4019 O   0  0  0  0  0  0  0  0  0  0  0  0
  145.2966  143.6539  155.2698 C   0  0  0  0  0  0  0  0  0  0  0  0
  146.1480  142.7786  154.3317 C   0  0  0  0  0  0  0  0  0  0  0  0
  151.4710  141.6443  157.8553 C   0  0  0  0  0  0  0  0  0  0  0  0
  151.3697  142.9825  158.2269 C   0  0  0  0  0  0  0  0  0  0  0  0
  151.8978  143.3459  159.4863 C   0  0  0  0  0  0  0  0  0  0  0  0
  151.8012  144.7987  159.9205 C   0  0  0  0  0  0  0  0  0  0  0  0
  153.4642  141.9226  162.2237 H   0  0  0  0  0  0  0  0  0  0  0  0
  152.2908  143.2331  162.3039 H   0  0  0  0  0  0  0  0  0  0  0  0
  153.8756  143.5036  161.5631 H   0  0  0  0  0  0  0  0  0  0  0  0
  153.0545  140.2853  160.5783 H   0  0  0  0  0  0  0  0  0  0  0  0
  151.1798  138.8507  156.1084 H   0  0  0  0  0  0  0  0  0  0  0  0
  149.8912  142.5212  156.0618 H   0  0  0  0  0  0  0  0  0  0  0  0
  151.1633  142.0624  154.9535 H   0  0  0  0  0  0  0  0  0  0  0  0
  148.9177  140.0998  155.5429 H   0  0  0  0  0  0  0  0  0  0  0  0
  149.6688  139.9958  153.0941 H   0  0  0  0  0  0  0  0  0  0  0  0
  148.7898  142.3275  153.4081 H   0  0  0  0  0  0  0  0  0  0  0  0
  147.7536  140.9277  153.4525 H   0  0  0  0  0  0  0  0  0  0  0  0
  146.6131  140.6647  156.0050 H   0  0  0  0  0  0  0  0  0  0  0  0
  148.0752  141.3128  156.7196 H   0  0  0  0  0  0  0  0  0  0  0  0
  146.0923  141.8542  158.1319 H   0  0  0  0  0  0  0  0  0  0  0  0
  146.9061  143.2864  157.5594 H   0  0  0  0  0  0  0  0  0  0  0  0
  144.5208  143.6469  157.2881 H   0  0  0  0  0  0  0  0  0  0  0  0
  143.4812  141.8642  157.1114 H   0  0  0  0  0  0  0  0  0  0  0  0
  144.3655  143.9379  154.7777 H   0  0  0  0  0  0  0  0  0  0  0  0
  145.8305  144.5842  155.4685 H   0  0  0  0  0  0  0  0  0  0  0  0
  146.3658  143.3450  153.4273 H   0  0  0  0  0  0  0  0  0  0  0  0
  145.5804  141.9006  154.0191 H   0  0  0  0  0  0  0  0  0  0  0  0
  150.9042  143.7166  157.5858 H   0  0  0  0  0  0  0  0  0  0  0  0
  151.3249  145.4129  159.1559 H   0  0  0  0  0  0  0  0  0  0  0  0
  152.7932  145.2101  160.1080 H   0  0  0  0  0  0  0  0  0  0  0  0
  151.2109  144.8869  160.8328 H   0  0  0  0  0  0  0  0  0  0  0  0
  147.8990  143.1827  155.2750 H   0  0  0  0  0  0  0  0  0  0  0  0
  152.3359  138.5704  158.3836 H   0  0  0  0  0  0  0  0  0  0  0  0
  1  2  1  0  0  0  0
  1 23  1  0  0  0  0
  1 24  1  0  0  0  0
  1 25  1  0  0  0  0
  2 21  1  0  0  0  0
  2  3  2  0  0  0  0
  3  4  1  0  0  0  0
  3 26  1  0  0  0  0
  4 19  2  0  0  0  0
  4  5  1  0  0  0  0
  5  6  2  0  0  0  0
  5 49  1  0  0  0  0
  6  7  1  0  0  0  0
  6 27  1  0  0  0  0
  7  8  1  0  0  0  0
  7 19  1  0  0  0  0
  8  9  1  0  0  0  0
  8 28  1  0  0  0  0
  8 29  1  0  0  0  0
  9 10  1  0  0  0  0
  9 11  1  0  0  0  0
  9 30  1  0  0  0  0
 10 31  1  0  0  0  0
 11 12  1  0  0  0  0
 11 32  1  0  0  0  0
 11 33  1  0  0  0  0
 12 18  1  0  0  0  0
 12 13  1  0  0  0  0
 12 48  1  0  0  0  0
 13 14  1  0  0  0  0
 13 34  1  0  0  0  0
 13 35  1  0  0  0  0
 14 15  1  0  0  0  0
 14 36  1  0  0  0  0
 14 37  1  0  0  0  0
 15 16  1  0  0  0  0
 15 17  1  0  0  0  0
 15 38  1  0  0  0  0
 16 39  1  0  0  0  0
 17 18  1  0  0  0  0
 17 40  1  0  0  0  0
 17 41  1  0  0  0  0
 18 42  1  0  0  0  0
 18 43  1  0  0  0  0
 19 20  1  0  0  0  0
 20 21  2  0  0  0  0
 20 44  1  0  0  0  0
 21 22  1  0  0  0  0
 22 45  1  0  0  0  0
 22 46  1  0  0  0  0
 22 47  1  0  0  0  0
M  CHG  1   5   1
M  CHG  1  12   1
M  END
> <s_m_source_file>
AV-unprocessed.smi

> <i_m_source_file_index>
1626

> <i_lp_mmshare_version>
43012

> <i_f3d_flags>
0

> <s_epik_input>
W0NIM11jKFtjSF0xKWMoW0NIM10pW2NIXWMoYzEyKW4oW2NIXW4yKVtDSDJdW0NASF0oW09IXSlbQ0gyXU4zW0NIMl1bQ0gyXVtDSF0oW09IXSlbQ0gyXVtDSDJdMw==

> <s_epik_cmdline>
J2VwaWtfcHl0aG9uJywgJy1waCcsICc3LjAnLCAnLXRuJywgJzgnLCAnLW1hJywgJzIwMCcsICctbWV0YWxfYmluZGluZycsICctaW1hZScsICc8aW5maWxlLm1hZT4nLCAnLW9tYWUnLCAnPG91dGZpbGUubWFlPic=

> <r_epik_Ionization_Penalty>
1.19369

> <r_epik_Ionization_Penalty_Charging>
1.19369

> <r_epik_Ionization_Penalty_Neutral>
1.68219e-06

> <r_epik_State_Penalty>
1.27429

> <r_epik_Charging_Adjusted_Penalty>
2.46798

> <i_epik_Tot_Q>
2

> <i_epik_Tot_abs_Q>
2

> <r_epik_Metal_State_Penalty>
5.29157

> <b_epik_Metal_Only>
0

> <s_lp_Force_Field>
OPLS_2005

> <r_lp_Energy>
35.0493

> <b_lp_Chiralities_Consistent>
1

> <s_lp_Variant>
AV-unprocessed.smi:1626-7

> <Gold.Version>
5.8.1

> <Gold.Id.Protein>
6NUR|6NUR_protein|mol2

> <Gold.PLP.Fitness>
58.8346

> <Gold.PLP.PLP>
-48.7252

> <Gold.PLP.part.hbond>
-3.0000

> <Gold.PLP.part.metal>
0.0000

> <Gold.PLP.part.buried>
-6.7456

> <Gold.PLP.part.nonpolar>
-38.2775

> <Gold.PLP.part.repulsive>
0.1850

> <Gold.PLP.ligand.clash>
0.0000

> <Gold.PLP.ligand.torsion>
0.8242

> <Gold.PLP.Chemscore.Hbond>
3.9120

> <Gold.PLP.Chemscore.CHOScore>
0.0000

> <Gold.PLP.Chemscore.Metal>
0.0000

> <Gold.Chemscore.Hbonds>
donor molecule, donor type, donor heavy atom, donor atom, acceptor molecule, acceptor atom, score
      L1  H    10    31       P1  7957  1.00
      L1  H    12    48       P1  8028  2.00
      P1  H  7989  7998       L1    10  0.91

> <Gold.PLP.Chemscore.Internal.Correction>
0.0218

> <Gold.Rescore>
     Score         DG    S(hbond)    S(metal)    S(lipo)     H(rot)  DE(clash)    DE(int)     intcor
     18.65     -19.50       2.16        0.00     117.99       2.74       0.13       0.71       ----

> <Gold.Chemscore.Fitness>
18.6482

> <Gold.Chemscore.DG>
-19.4953

> <Gold.Chemscore.ZeroCoef>
-5.4800

> <Gold.Chemscore.Hbond>
2.1618

> <Gold.Chemscore.Metal>
0.0000

> <Gold.Chemscore.Lipo>
117.9932

> <Gold.Chemscore.Internal_Hbond>
0.0000

> <Gold.Chemscore.DEClash>
0.1330

> <Gold.Chemscore.DEInternal>
0.7141

> <Gold.Chemscore.Rot>
2.7384

> <Gold.Chemscore.Internal.Correction>
   9.000000E+99

> <Gold.Chemscore.Hbonds>
donor molecule, donor type, donor heavy atom, donor atom, acceptor molecule, acceptor atom, score
      L1  H    10    31       P1  7957  0.96
      L1  H    12    48       P1  8028  0.70
      P1  H  7989  7998       L1    10  0.20

> <Gold.Chemscore.Hbond.Weighted>
-7.2205

> <Gold.Chemscore.Metal.Weighted>
-0.0000

> <Gold.Chemscore.Lipo.Weighted>
-13.8052

> <Gold.Chemscore.Internal_Hbond.Weighted>
0.0000

> <Gold.Chemscore.DEClash.Weighted>
0.1330

> <Gold.Chemscore.DEInternal.Weighted>
0.7141

> <Gold.Chemscore.Rot.Weighted>
7.0103

> <Gold.Chemscore.Internal.Correction.Weighted>
   9.000000E+99

> <Gold.Protein.RotatedTorsions>
[ 6907 6896 6895 6894 ] final   97.68 input  -60.11 | X-H torsion
[ 7974 7965 7964 7962 ] final  -16.51 input  175.53 | X-H torsion
[ 8008 7997 7996 7995 ] final   74.22 input   59.86 | X-H torsion
[ 10167 10162 10161 10158 ] final  113.91 input  -65.29 | X-H torsion
[ 10718 10713 10712 10709 ] final -156.07 input   66.30 | X-H torsion
[ 10763 10752 10751 10750 ] final -163.84 input  -60.55 | X-H torsion
[ 11005 11000 10999 10996 ] final -178.97 input  -57.11 | X-H torsion

> <Gold.Protein.ActiveResidues>
 VAL166  LYS551  ARG553  GLY616  TRP617  ASP618  TYR619  PRO620  LYS621  CYS622 
 ASP623  PHE694  ASN695  SER759  ASP760  ASP761  ALA762  ILE779  LEU786  VAL792 
 PHE793  MET794  SER795  GLU796  ALA797  LYS798  CYS799  TRP800  GLU811  SER814 

> <Gold.Protein.RotatedAtoms>
  152.5420  134.0696  159.8187 H   0  0  0  0  0  0  0  0  0  0  0  0  # atno 6907 bound_to 6896
  151.0813  133.5381  159.2628 H   0  0  0  0  0  0  0  0  0  0  0  0  # atno 6908 bound_to 6896
  151.2207  135.0526  159.9002 H   0  0  0  0  0  0  0  0  0  0  0  0  # atno 6909 bound_to 6896
  146.1984  140.3647  142.8432 H   0  0  0  0  0  0  0  0  0  0  0  0  # atno 7974 bound_to 7965
  155.7952  140.3478  155.5371 H   0  0  0  0  0  0  0  0  0  0  0  0  # atno 8008 bound_to 7997
  155.8594  140.0969  157.1644 H   0  0  0  0  0  0  0  0  0  0  0  0  # atno 8009 bound_to 7997
  154.4011  140.1361  156.3929 H   0  0  0  0  0  0  0  0  0  0  0  0  # atno 8010 bound_to 7997
  139.6427  144.7125  151.2205 H   0  0  0  0  0  0  0  0  0  0  0  0  # atno 10167 bound_to 10162
  156.5216  130.8480  151.2684 H   0  0  0  0  0  0  0  0  0  0  0  0  # atno 10718 bound_to 10713
  154.7084  135.3001  154.9234 H   0  0  0  0  0  0  0  0  0  0  0  0  # atno 10763 bound_to 10752
  154.0144  135.6690  153.4771 H   0  0  0  0  0  0  0  0  0  0  0  0  # atno 10764 bound_to 10752
  153.0736  135.5047  154.8269 H   0  0  0  0  0  0  0  0  0  0  0  0  # atno 10765 bound_to 10752
  140.4238  134.6581  157.4678 H   0  0  0  0  0  0  0  0  0  0  0  0  # atno 11005 bound_to 11000
  144.8630  140.7166  143.6095 LP  0  0  0  0  0  0  0  0  0  0  0  0  # atno 17320 bound_to 7965
  145.3566  139.1692  143.4406 LP  0  0  0  0  0  0  0  0  0  0  0  0  # atno 17321 bound_to 7965
  140.7499  143.6284  150.8446 LP  0  0  0  0  0  0  0  0  0  0  0  0  # atno 17342 bound_to 10162
  139.9924  143.5833  152.2905 LP  0  0  0  0  0  0  0  0  0  0  0  0  # atno 17343 bound_to 10162
  157.7436  130.9915  150.2605 LP  0  0  0  0  0  0  0  0  0  0  0  0  # atno 17370 bound_to 10713
  156.3144  130.3776  149.7632 LP  0  0  0  0  0  0  0  0  0  0  0  0  # atno 17371 bound_to 10713
  140.0181  134.6588  155.9279 LP  0  0  0  0  0  0  0  0  0  0  0  0  # atno 17394 bound_to 11000
  141.1773  133.6542  156.4880 LP  0  0  0  0  0  0  0  0  0  0  0  0  # atno 17395 bound_to 11000

$$$$
