AV-unprocessed.smi:1056|AV-procd|sdf|4648|dock8
  -GOLD-   22720 3153D 1   1.00000     0.00000
 Structure written by MMmdl.
 45 47  0  0  0  0  0  0  0  0  4 V2000
  152.2333  144.1499  161.5480 C   0  0  0  0  0  0  0  0  0  0  0  0
  152.1029  143.2773  160.3111 C   0  0  0  0  0  0  0  0  0  0  0  0
  151.3066  143.7406  159.2397 C   0  0  0  0  0  0  0  0  0  0  0  0
  151.2063  142.9199  158.1225 C   0  0  0  0  0  0  0  0  0  0  0  0
  150.5088  143.0882  156.9247 N   0  3  0  0  0  0  0  0  0  0  0  0
  150.7137  142.0065  156.1232 C   0  0  0  0  0  0  0  0  0  0  0  0
  151.5326  141.1489  156.7910 N   0  0  0  0  0  0  0  0  0  0  0  0
  152.0660  139.8434  156.3732 C   0  0  0  0  0  0  0  0  0  0  0  0
  151.0048  138.9379  155.7160 C   0  0  2  0  0  0  0  0  0  0  0  0
  150.8695  139.2849  154.3507 O   0  0  0  0  0  0  0  0  0  0  0  0
  149.6339  139.0855  156.4078 C   0  0  0  0  0  0  0  0  0  0  0  0
  149.2539  137.8863  157.1963 N   0  3  1  0  0  0  0  0  0  0  0  0
  149.9122  136.6353  156.7359 C   0  0  0  0  0  0  0  0  0  0  0  0
  149.2406  135.4102  157.3854 C   0  0  0  0  0  0  0  0  0  0  0  0
  149.0790  135.6223  158.8289 N   0  5  0  0  0  0  0  0  0  0  0  0
  149.0469  136.8288  159.4767 C   0  0  0  0  0  0  0  0  0  0  0  0
  148.7789  136.9933  160.6648 O   0  0  0  0  0  0  0  0  0  0  0  0
  149.4290  138.0933  158.6607 C   0  0  0  0  0  0  0  0  0  0  0  0
  151.8659  141.6776  158.0447 C   0  0  0  0  0  0  0  0  0  0  0  0
  152.6543  141.2069  159.0924 C   0  0  0  0  0  0  0  0  0  0  0  0
  152.7680  142.0262  160.2383 C   0  0  0  0  0  0  0  0  0  0  0  0
  153.6207  141.5372  161.3967 C   0  0  0  0  0  0  0  0  0  0  0  0
  151.6370  145.0586  161.4602 H   0  0  0  0  0  0  0  0  0  0  0  0
  153.2717  144.4459  161.6987 H   0  0  0  0  0  0  0  0  0  0  0  0
  151.8933  143.6139  162.4344 H   0  0  0  0  0  0  0  0  0  0  0  0
  150.7974  144.6921  159.2883 H   0  0  0  0  0  0  0  0  0  0  0  0
  150.3024  141.8584  155.1350 H   0  0  0  0  0  0  0  0  0  0  0  0
  152.8705  140.0423  155.6639 H   0  0  0  0  0  0  0  0  0  0  0  0
  152.5317  139.3541  157.2292 H   0  0  0  0  0  0  0  0  0  0  0  0
  151.3533  137.9069  155.7699 H   0  0  0  0  0  0  0  0  0  0  0  0
  151.0915  138.5353  153.8196 H   0  0  0  0  0  0  0  0  0  0  0  0
  149.6266  139.9562  157.0653 H   0  0  0  0  0  0  0  0  0  0  0  0
  148.8797  139.2786  155.6430 H   0  0  0  0  0  0  0  0  0  0  0  0
  149.8556  136.5364  155.6527 H   0  0  0  0  0  0  0  0  0  0  0  0
  150.9727  136.6682  156.9913 H   0  0  0  0  0  0  0  0  0  0  0  0
  148.2730  135.2536  156.9082 H   0  0  0  0  0  0  0  0  0  0  0  0
  149.8280  134.5188  157.1669 H   0  0  0  0  0  0  0  0  0  0  0  0
  150.4664  138.3512  158.8787 H   0  0  0  0  0  0  0  0  0  0  0  0
  148.8091  138.9287  158.9887 H   0  0  0  0  0  0  0  0  0  0  0  0
  153.1567  140.2524  159.0414 H   0  0  0  0  0  0  0  0  0  0  0  0
  154.0781  140.5723  161.1765 H   0  0  0  0  0  0  0  0  0  0  0  0
  153.0147  141.4212  162.2955 H   0  0  0  0  0  0  0  0  0  0  0  0
  154.4227  142.2450  161.6074 H   0  0  0  0  0  0  0  0  0  0  0  0
  148.2630  137.7489  157.0613 H   0  0  0  0  0  0  0  0  0  0  0  0
  149.9363  143.8831  156.6700 H   0  0  0  0  0  0  0  0  0  0  0  0
  1  2  1  0  0  0  0
  1 23  1  0  0  0  0
  1 24  1  0  0  0  0
  1 25  1  0  0  0  0
  2 21  1  0  0  0  0
  2  3  2  0  0  0  0
  3  4  1  0  0  0  0
  3 26  1  0  0  0  0
  4 19  2  0  0  0  0
  4  5  1  0  0  0  0
  5  6  2  0  0  0  0
  5 45  1  0  0  0  0
  6  7  1  0  0  0  0
  6 27  1  0  0  0  0
  7  8  1  0  0  0  0
  7 19  1  0  0  0  0
  8  9  1  0  0  0  0
  8 28  1  0  0  0  0
  8 29  1  0  0  0  0
  9 10  1  0  0  0  0
  9 11  1  0  0  0  0
  9 30  1  0  0  0  0
 10 31  1  0  0  0  0
 11 12  1  0  0  0  0
 11 32  1  0  0  0  0
 11 33  1  0  0  0  0
 12 18  1  0  0  0  0
 12 13  1  0  0  0  0
 12 44  1  0  0  0  0
 13 14  1  0  0  0  0
 13 34  1  0  0  0  0
 13 35  1  0  0  0  0
 14 15  1  0  0  0  0
 14 36  1  0  0  0  0
 14 37  1  0  0  0  0
 15 16  1  0  0  0  0
 16 17  2  0  0  0  0
 16 18  1  0  0  0  0
 18 38  1  0  0  0  0
 18 39  1  0  0  0  0
 19 20  1  0  0  0  0
 20 21  2  0  0  0  0
 20 40  1  0  0  0  0
 21 22  1  0  0  0  0
 22 41  1  0  0  0  0
 22 42  1  0  0  0  0
 22 43  1  0  0  0  0
M  CHG  1   5   1
M  CHG  1  12   1
M  CHG  1  15  -1
M  END
> <s_m_source_file>
AV-unprocessed.smi

> <i_m_source_file_index>
1056

> <i_lp_mmshare_version>
43012

> <i_f3d_flags>
0

> <s_epik_input>
W0NIM11jKFtjSF0xKWMoW0NIM10pW2NIXWMoYzEyKW4oW2NIXW4yKVtDSDJdW0NASF0oW09IXSlbQ0gyXU4zW0NIMl1bQ0gyXVtOSF1DKD1PKVtDSDJdMw==

> <s_epik_cmdline>
J2VwaWtfcHl0aG9uJywgJy1waCcsICc3LjAnLCAnLXRuJywgJzgnLCAnLW1hJywgJzIwMCcsICctbWV0YWxfYmluZGluZycsICctaW1hZScsICc8aW5maWxlLm1hZT4nLCAnLW9tYWUnLCAnPG91dGZpbGUubWFlPic=

> <r_epik_Ionization_Penalty>
6.22415

> <r_epik_Ionization_Penalty_Charging>
6.22415

> <r_epik_Ionization_Penalty_Neutral>
4.02797e-07

> <r_epik_State_Penalty>
6.37716

> <r_epik_Charging_Adjusted_Penalty>
12.6013

> <i_epik_Tot_Q>
1

> <i_epik_Tot_abs_Q>
3

> <r_epik_Metal_State_Penalty>
2.53509

> <b_epik_Metal_Only>
1

> <s_lp_Force_Field>
OPLS_2005

> <r_lp_Energy>
27.8537

> <b_lp_Chiralities_Consistent>
1

> <s_lp_Variant>
AV-unprocessed.smi:1056-19

> <Gold.Version>
5.8.1

> <Gold.Id.Protein>
6NUR|6NUR_protein|mol2

> <Gold.PLP.Fitness>
55.4867

> <Gold.PLP.PLP>
-41.5048

> <Gold.PLP.part.hbond>
-4.0000

> <Gold.PLP.part.metal>
0.0000

> <Gold.PLP.part.buried>
-6.1693

> <Gold.PLP.part.nonpolar>
-30.9436

> <Gold.PLP.part.repulsive>
0.0293

> <Gold.PLP.ligand.clash>
0.1759

> <Gold.PLP.ligand.torsion>
1.6809

> <Gold.PLP.Chemscore.Hbond>
5.8320

> <Gold.PLP.Chemscore.CHOScore>
0.0000

> <Gold.PLP.Chemscore.Metal>
0.0000

> <Gold.Chemscore.Hbonds>
donor molecule, donor type, donor heavy atom, donor atom, acceptor molecule, acceptor atom, score
      L1  H     5    45       P1  8028  2.00
      P1  H  6896  6909       L1    15  1.98
      P1  H  6931  6943       L1    17  0.83
      P1  H  7989  7998       L1    10  1.00

> <Gold.PLP.Chemscore.Internal.Correction>
0.0234

> <Gold.Rescore>
     Score         DG    S(hbond)    S(metal)    S(lipo)     H(rot)  DE(clash)    DE(int)     intcor
     19.84     -21.86       2.99        0.00     106.55       2.37       0.41       1.61       ----

> <Gold.Chemscore.Fitness>
19.8405

> <Gold.Chemscore.DG>
-21.8607

> <Gold.Chemscore.ZeroCoef>
-5.4800

> <Gold.Chemscore.Hbond>
2.9903

> <Gold.Chemscore.Metal>
0.0000

> <Gold.Chemscore.Lipo>
106.5505

> <Gold.Chemscore.Internal_Hbond>
0.0000

> <Gold.Chemscore.DEClash>
0.4071

> <Gold.Chemscore.DEInternal>
1.6131

> <Gold.Chemscore.Rot>
2.3724

> <Gold.Chemscore.Internal.Correction>
   9.000000E+99

> <Gold.Chemscore.Hbonds>
donor molecule, donor type, donor heavy atom, donor atom, acceptor molecule, acceptor atom, score
      L1  H     5    45       P1  8028  0.98
      P1  H  6896  6909       L1    15  0.17
      P1  H  6931  6943       L1    17  0.81
      P1  H  7989  7998       L1    10  0.60

> <Gold.Chemscore.Hbond.Weighted>
-9.9877

> <Gold.Chemscore.Metal.Weighted>
-0.0000

> <Gold.Chemscore.Lipo.Weighted>
-12.4664

> <Gold.Chemscore.Internal_Hbond.Weighted>
0.0000

> <Gold.Chemscore.DEClash.Weighted>
0.4071

> <Gold.Chemscore.DEInternal.Weighted>
1.6131

> <Gold.Chemscore.Rot.Weighted>
6.0734

> <Gold.Chemscore.Internal.Correction.Weighted>
   9.000000E+99

> <Gold.Protein.RotatedTorsions>
[ 6907 6896 6895 6894 ] final   49.49 input  -60.11 | X-H torsion
[ 7974 7965 7964 7962 ] final   26.67 input  175.53 | X-H torsion
[ 8008 7997 7996 7995 ] final  118.29 input   59.86 | X-H torsion
[ 10167 10162 10161 10158 ] final -157.40 input  -65.29 | X-H torsion
[ 10718 10713 10712 10709 ] final   37.32 input   66.30 | X-H torsion
[ 10763 10752 10751 10750 ] final   78.69 input  -60.55 | X-H torsion
[ 11005 11000 10999 10996 ] final  157.18 input  -57.11 | X-H torsion

> <Gold.Protein.ActiveResidues>
 VAL166  LYS551  ARG553  GLY616  TRP617  ASP618  TYR619  PRO620  LYS621  CYS622 
 ASP623  PHE694  ASN695  SER759  ASP760  ASP761  ALA762  ILE779  LEU786  VAL792 
 PHE793  MET794  SER795  GLU796  ALA797  LYS798  CYS799  TRP800  GLU811  SER814 

> <Gold.Protein.RotatedAtoms>
  152.2913  134.7718  160.0376 H   0  0  0  0  0  0  0  0  0  0  0  0  # atno 6907 bound_to 6896
  151.8263  133.3396  159.3608 H   0  0  0  0  0  0  0  0  0  0  0  0  # atno 6908 bound_to 6896
  150.7231  134.5454  159.5812 H   0  0  0  0  0  0  0  0  0  0  0  0  # atno 6909 bound_to 6896
  146.1825  139.7296  142.8890 H   0  0  0  0  0  0  0  0  0  0  0  0  # atno 7974 bound_to 7965
  156.2539  140.2878  156.0811 H   0  0  0  0  0  0  0  0  0  0  0  0  # atno 8008 bound_to 7997
  155.1565  140.0398  157.2850 H   0  0  0  0  0  0  0  0  0  0  0  0  # atno 8009 bound_to 7997
  154.6423  140.2525  155.7314 H   0  0  0  0  0  0  0  0  0  0  0  0  # atno 8010 bound_to 7997
  139.6773  143.9641  152.2318 H   0  0  0  0  0  0  0  0  0  0  0  0  # atno 10167 bound_to 10162
  157.3455  130.7570  149.6941 H   0  0  0  0  0  0  0  0  0  0  0  0  # atno 10718 bound_to 10713
  153.0894  135.4867  154.8660 H   0  0  0  0  0  0  0  0  0  0  0  0  # atno 10763 bound_to 10752
  154.7250  135.3047  154.8987 H   0  0  0  0  0  0  0  0  0  0  0  0  # atno 10764 bound_to 10752
  153.9640  135.6809  153.4799 H   0  0  0  0  0  0  0  0  0  0  0  0  # atno 10765 bound_to 10752
  140.1745  134.8519  157.2730 H   0  0  0  0  0  0  0  0  0  0  0  0  # atno 11005 bound_to 11000
  145.4035  141.0388  143.3057 LP  0  0  0  0  0  0  0  0  0  0  0  0  # atno 17320 bound_to 7965
  144.8339  139.5582  143.6931 LP  0  0  0  0  0  0  0  0  0  0  0  0  # atno 17321 bound_to 7965
  139.9421  144.6675  150.8255 LP  0  0  0  0  0  0  0  0  0  0  0  0  # atno 17342 bound_to 10162
  140.7640  143.3237  151.2563 LP  0  0  0  0  0  0  0  0  0  0  0  0  # atno 17343 bound_to 10162
  155.9713  130.4155  150.4187 LP  0  0  0  0  0  0  0  0  0  0  0  0  # atno 17370 bound_to 10713
  157.2241  131.0489  151.2529 LP  0  0  0  0  0  0  0  0  0  0  0  0  # atno 17371 bound_to 10713
  140.2338  134.3877  155.7510 LP  0  0  0  0  0  0  0  0  0  0  0  0  # atno 17394 bound_to 11000
  141.2219  133.7229  156.8683 LP  0  0  0  0  0  0  0  0  0  0  0  0  # atno 17395 bound_to 11000

$$$$
