AV-unprocessed.smi:1978|AV-procd|sdf|7992|dock7
  -GOLD-   2272010173D 1   1.00000     0.00000
 Structure written by MMmdl.
 45 46  0  0  0  0  0  0  0  0  2 V2000
  137.8079  137.4771  154.5973 C   0  0  0  0  0  0  0  0  0  0  0  0
  139.2901  137.4189  154.4543 C   0  0  0  0  0  0  0  0  0  0  0  0
  140.1907  138.1952  153.7803 C   0  0  0  0  0  0  0  0  0  0  0  0
  141.4327  137.5722  154.0745 C   0  0  0  0  0  0  0  0  0  0  0  0
  142.6471  138.0831  153.5486 N   0  0  0  0  0  0  0  0  0  0  0  0
  143.8525  137.4887  153.5502 C   0  0  0  0  0  0  0  0  0  0  0  0
  144.0959  136.3802  154.0276 O   0  0  0  0  0  0  0  0  0  0  0  0
  144.7759  138.2543  152.9489 N   0  0  0  0  0  0  0  0  0  0  0  0
  146.1869  137.9079  152.7872 C   0  0  0  0  0  0  0  0  0  0  0  0
  147.1517  138.9247  153.4647 C   0  0  2  0  0  0  0  0  0  0  0  0
  147.3677  140.1477  152.5378 C   0  0  0  0  0  0  0  0  0  0  0  0
  148.4672  138.3070  153.8598 N   0  3  1  0  0  0  0  0  0  0  0  0
  149.5753  139.2967  154.0298 C   0  0  0  0  0  0  0  0  0  0  0  0
  150.9402  138.6072  154.1887 C   0  0  0  0  0  0  0  0  0  0  0  0
  150.9355  137.6176  155.3550 C   0  0  0  0  0  0  0  0  0  0  0  0
  149.7820  136.6248  155.1777 C   0  0  0  0  0  0  0  0  0  0  0  0
  148.4219  137.3334  155.0028 C   0  0  1  0  0  0  0  0  0  0  0  0
  147.9230  137.9594  156.3250 C   0  0  0  0  0  0  0  0  0  0  0  0
  141.3023  136.5129  154.8583 N   0  0  0  0  0  0  0  0  0  0  0  0
  139.9287  136.4099  155.1065 O   0  0  0  0  0  0  0  0  0  0  0  0
  137.3702  138.1364  153.8476 H   0  0  0  0  0  0  0  0  0  0  0  0
  137.5304  137.8523  155.5823 H   0  0  0  0  0  0  0  0  0  0  0  0
  137.3670  136.4875  154.4746 H   0  0  0  0  0  0  0  0  0  0  0  0
  139.9891  139.0662  153.1747 H   0  0  0  0  0  0  0  0  0  0  0  0
  142.5882  138.9943  153.1189 H   0  0  0  0  0  0  0  0  0  0  0  0
  144.4836  139.1494  152.5838 H   0  0  0  0  0  0  0  0  0  0  0  0
  146.2759  136.9198  153.2350 H   0  0  0  0  0  0  0  0  0  0  0  0
  146.4461  137.7900  151.7337 H   0  0  0  0  0  0  0  0  0  0  0  0
  146.6680  139.2821  154.3750 H   0  0  0  0  0  0  0  0  0  0  0  0
  146.4267  140.5823  152.2037 H   0  0  0  0  0  0  0  0  0  0  0  0
  147.9337  139.8721  151.6472 H   0  0  0  0  0  0  0  0  0  0  0  0
  147.8864  140.9687  153.0286 H   0  0  0  0  0  0  0  0  0  0  0  0
  149.6645  139.9501  153.1663 H   0  0  0  0  0  0  0  0  0  0  0  0
  149.3720  139.9447  154.8826 H   0  0  0  0  0  0  0  0  0  0  0  0
  151.1914  138.0826  153.2660 H   0  0  0  0  0  0  0  0  0  0  0  0
  151.7196  139.3548  154.3402 H   0  0  0  0  0  0  0  0  0  0  0  0
  151.8862  137.0852  155.3993 H   0  0  0  0  0  0  0  0  0  0  0  0
  150.8359  138.1522  156.3000 H   0  0  0  0  0  0  0  0  0  0  0  0
  149.9787  136.0063  154.3007 H   0  0  0  0  0  0  0  0  0  0  0  0
  149.7468  135.9401  156.0259 H   0  0  0  0  0  0  0  0  0  0  0  0
  147.7361  136.5287  154.7428 H   0  0  0  0  0  0  0  0  0  0  0  0
  147.8704  137.2037  157.1093 H   0  0  0  0  0  0  0  0  0  0  0  0
  146.9245  138.3837  156.2284 H   0  0  0  0  0  0  0  0  0  0  0  0
  148.5798  138.7502  156.6857 H   0  0  0  0  0  0  0  0  0  0  0  0
  148.7342  137.7477  153.0622 H   0  0  0  0  0  0  0  0  0  0  0  0
  1  2  1  0  0  0  0
  1 21  1  0  0  0  0
  1 22  1  0  0  0  0
  1 23  1  0  0  0  0
  2 20  1  0  0  0  0
  2  3  2  0  0  0  0
  3  4  1  0  0  0  0
  3 24  1  0  0  0  0
  4  5  1  0  0  0  0
  4 19  2  0  0  0  0
  5  6  1  0  0  0  0
  5 25  1  0  0  0  0
  6  7  2  0  0  0  0
  6  8  1  0  0  0  0
  8  9  1  0  0  0  0
  8 26  1  0  0  0  0
  9 10  1  0  0  0  0
  9 27  1  0  0  0  0
  9 28  1  0  0  0  0
 10 11  1  0  0  0  0
 10 12  1  0  0  0  0
 10 29  1  0  0  0  0
 11 30  1  0  0  0  0
 11 31  1  0  0  0  0
 11 32  1  0  0  0  0
 12 17  1  0  0  0  0
 12 13  1  0  0  0  0
 12 45  1  0  0  0  0
 13 14  1  0  0  0  0
 13 33  1  0  0  0  0
 13 34  1  0  0  0  0
 14 15  1  0  0  0  0
 14 35  1  0  0  0  0
 14 36  1  0  0  0  0
 15 16  1  0  0  0  0
 15 37  1  0  0  0  0
 15 38  1  0  0  0  0
 16 17  1  0  0  0  0
 16 39  1  0  0  0  0
 16 40  1  0  0  0  0
 17 18  1  0  0  0  0
 17 41  1  0  0  0  0
 18 42  1  0  0  0  0
 18 43  1  0  0  0  0
 18 44  1  0  0  0  0
 19 20  1  0  0  0  0
M  CHG  1  12   1
M  END
> <s_m_source_file>
AV-unprocessed.smi

> <i_m_source_file_index>
1978

> <i_lp_mmshare_version>
43012

> <i_f3d_flags>
0

> <s_epik_input>
W0NIM11jMVtjSF1jKG5vMSlbTkhdQyg9TylbTkhdW0NIMl1bQ0BIXShbQ0gzXSlOMltDSDJdW0NIMl1bQ0gyXVtDSDJdW0NASF0yW0NIM10=

> <s_epik_cmdline>
J2VwaWtfcHl0aG9uJywgJy1waCcsICc3LjAnLCAnLXRuJywgJzgnLCAnLW1hJywgJzIwMCcsICctbWV0YWxfYmluZGluZycsICctaW1hZScsICc8aW5maWxlLm1hZT4nLCAnLW9tYWUnLCAnPG91dGZpbGUubWFlPic=

> <r_epik_Ionization_Penalty>
0.00265971

> <r_epik_Ionization_Penalty_Charging>
0.00262393

> <r_epik_Ionization_Penalty_Neutral>
3.57846e-05

> <r_epik_State_Penalty>
0.00182566

> <r_epik_Charging_Adjusted_Penalty>
0.00444959

> <i_epik_Tot_Q>
1

> <i_epik_Tot_abs_Q>
1

> <r_epik_Metal_State_Penalty>
0.0216344

> <b_epik_Metal_Only>
0

> <s_lp_Force_Field>
OPLS_2005

> <r_lp_Energy>
24.7796

> <b_lp_Chiralities_Consistent>
1

> <s_lp_Variant>
AV-unprocessed.smi:1978-1

> <Gold.Version>
5.8.1

> <Gold.Id.Protein>
6NUR|6NUR_protein|mol2

> <Gold.PLP.Fitness>
43.7420

> <Gold.PLP.PLP>
-30.1082

> <Gold.PLP.part.hbond>
-4.7730

> <Gold.PLP.part.metal>
0.0000

> <Gold.PLP.part.buried>
-1.6248

> <Gold.PLP.part.nonpolar>
-24.1084

> <Gold.PLP.part.repulsive>
0.2149

> <Gold.PLP.ligand.clash>
0.0000

> <Gold.PLP.ligand.torsion>
0.6215

> <Gold.PLP.Chemscore.Hbond>
4.9280

> <Gold.PLP.Chemscore.CHOScore>
0.0000

> <Gold.PLP.Chemscore.Metal>
0.0000

> <Gold.Chemscore.Hbonds>
donor molecule, donor type, donor heavy atom, donor atom, acceptor molecule, acceptor atom, score
      L1  H     5    25       P1 10175  0.90
      L1  H     8    26       P1 10175  1.00
      L1  H    12    45       P1  7948  2.00
      P1  H 11000 11005       L1    20  1.00

> <Gold.PLP.Chemscore.Internal.Correction>
0.0929

> <Gold.Rescore>
     Score         DG    S(hbond)    S(metal)    S(lipo)     H(rot)  DE(clash)    DE(int)     intcor
     18.32     -21.86       3.57        0.00      71.87       1.55       1.69       1.86       ----

> <Gold.Chemscore.Fitness>
18.3154

> <Gold.Chemscore.DG>
-21.8612

> <Gold.Chemscore.ZeroCoef>
-5.4800

> <Gold.Chemscore.Hbond>
3.5729

> <Gold.Chemscore.Metal>
0.0000

> <Gold.Chemscore.Lipo>
71.8710

> <Gold.Chemscore.Internal_Hbond>
0.0000

> <Gold.Chemscore.DEClash>
1.6898

> <Gold.Chemscore.DEInternal>
1.8560

> <Gold.Chemscore.Rot>
1.5474

> <Gold.Chemscore.Internal.Correction>
   9.000000E+99

> <Gold.Chemscore.Hbonds>
donor molecule, donor type, donor heavy atom, donor atom, acceptor molecule, acceptor atom, score
      L1  H     5    25       P1 10175  0.88
      L1  H     8    26       P1 10175  0.93
      L1  H    12    45       P1  7948  0.99
      P1  H 11000 11005       L1    20  0.25

> <Gold.Chemscore.Hbond.Weighted>
-11.9335

> <Gold.Chemscore.Metal.Weighted>
-0.0000

> <Gold.Chemscore.Lipo.Weighted>
-8.4089

> <Gold.Chemscore.Internal_Hbond.Weighted>
0.0000

> <Gold.Chemscore.DEClash.Weighted>
1.6898

> <Gold.Chemscore.DEInternal.Weighted>
1.8560

> <Gold.Chemscore.Rot.Weighted>
3.9612

> <Gold.Chemscore.Internal.Correction.Weighted>
   9.000000E+99

> <Gold.Protein.RotatedTorsions>
[ 6907 6896 6895 6894 ] final   52.78 input  -60.11 | X-H torsion
[ 7974 7965 7964 7962 ] final -143.98 input  175.53 | X-H torsion
[ 8008 7997 7996 7995 ] final   -4.63 input   59.86 | X-H torsion
[ 10167 10162 10161 10158 ] final  -33.23 input  -65.29 | X-H torsion
[ 10718 10713 10712 10709 ] final  -83.87 input   66.30 | X-H torsion
[ 10763 10752 10751 10750 ] final  114.42 input  -60.55 | X-H torsion
[ 11005 11000 10999 10996 ] final   81.79 input  -57.11 | X-H torsion

> <Gold.Protein.ActiveResidues>
 VAL166  LYS551  ARG553  GLY616  TRP617  ASP618  TYR619  PRO620  LYS621  CYS622 
 ASP623  PHE694  ASN695  SER759  ASP760  ASP761  ALA762  ILE779  LEU786  VAL792 
 PHE793  MET794  SER795  GLU796  ALA797  LYS798  CYS799  TRP800  GLU811  SER814 

> <Gold.Protein.RotatedAtoms>
  152.3268  134.7310  160.0299 H   0  0  0  0  0  0  0  0  0  0  0  0  # atno 6907 bound_to 6896
  151.7740  133.3338  159.3460 H   0  0  0  0  0  0  0  0  0  0  0  0  # atno 6908 bound_to 6896
  150.7400  134.5924  159.6038 H   0  0  0  0  0  0  0  0  0  0  0  0  # atno 6909 bound_to 6896
  144.8330  140.5767  143.5502 H   0  0  0  0  0  0  0  0  0  0  0  0  # atno 7974 bound_to 7965
  154.6122  140.2479  155.7654 H   0  0  0  0  0  0  0  0  0  0  0  0  # atno 8008 bound_to 7997
  156.2378  140.2944  156.0309 H   0  0  0  0  0  0  0  0  0  0  0  0  # atno 8009 bound_to 7997
  155.2033  140.0395  157.2911 H   0  0  0  0  0  0  0  0  0  0  0  0  # atno 8010 bound_to 7997
  140.7208  143.3635  151.1915 H   0  0  0  0  0  0  0  0  0  0  0  0  # atno 10167 bound_to 10162
  156.0013  130.4679  150.4324 H   0  0  0  0  0  0  0  0  0  0  0  0  # atno 10718 bound_to 10713
  153.5071  135.3626  155.2568 H   0  0  0  0  0  0  0  0  0  0  0  0  # atno 10763 bound_to 10752
  154.8744  135.4014  154.3411 H   0  0  0  0  0  0  0  0  0  0  0  0  # atno 10764 bound_to 10752
  153.4058  135.7076  153.6460 H   0  0  0  0  0  0  0  0  0  0  0  0  # atno 10765 bound_to 10752
  139.9086  134.8023  156.2088 H   0  0  0  0  0  0  0  0  0  0  0  0  # atno 11005 bound_to 11000
  145.4855  139.1492  143.3738 LP  0  0  0  0  0  0  0  0  0  0  0  0  # atno 17320 bound_to 7965
  146.2631  140.4992  142.8845 LP  0  0  0  0  0  0  0  0  0  0  0  0  # atno 17321 bound_to 7965
  139.7192  143.9250  152.2979 LP  0  0  0  0  0  0  0  0  0  0  0  0  # atno 17342 bound_to 10162
  139.9001  144.6916  150.8674 LP  0  0  0  0  0  0  0  0  0  0  0  0  # atno 17343 bound_to 10162
  157.2372  131.0517  151.2458 LP  0  0  0  0  0  0  0  0  0  0  0  0  # atno 17370 bound_to 10713
  157.3655  130.7153  149.6530 LP  0  0  0  0  0  0  0  0  0  0  0  0  # atno 17371 bound_to 10713
  141.0478  133.6904  156.1716 LP  0  0  0  0  0  0  0  0  0  0  0  0  # atno 17394 bound_to 11000
  140.6856  134.4720  157.5589 LP  0  0  0  0  0  0  0  0  0  0  0  0  # atno 17395 bound_to 11000

$$$$
