AV-unprocessed.smi:2224|AV-procd|sdf|8996|dock1
  -GOLD-   2272012203D 1   1.00000     0.00000
 Structure written by MMmdl.
 44 46  0  0  0  0  0  0  0  0  1 V2000
  146.3242  142.6237  153.8804 C   0  0  0  0  0  0  0  0  0  0  0  0
  147.2743  141.4481  153.9717 C   0  0  0  0  0  0  0  0  0  0  0  0
  148.5219  141.5741  154.6124 C   0  0  0  0  0  0  0  0  0  0  0  0
  149.3601  140.4429  154.6624 C   0  0  0  0  0  0  0  0  0  0  0  0
  150.7150  140.5070  155.3355 C   0  0  0  0  0  0  0  0  0  0  0  0
  149.0230  139.2512  154.1244 N   0  0  0  0  0  0  0  0  0  0  0  0
  147.8241  139.1187  153.5046 C   0  0  0  0  0  0  0  0  0  0  0  0
  147.3728  137.9103  152.9112 N   0  0  0  0  0  0  0  0  0  0  0  0
  146.1086  137.4760  152.7664 C   0  0  0  0  0  0  0  0  0  0  0  0
  145.1010  138.0679  153.1544 O   0  0  0  0  0  0  0  0  0  0  0  0
  146.0756  136.2886  152.1472 N   0  0  0  0  0  0  0  0  0  0  0  0
  144.8609  135.5193  151.8718 C   0  0  1  0  0  0  0  0  0  0  0  0
  145.1569  134.0990  151.3399 C   0  0  1  0  0  0  0  0  0  0  0  0
  146.5316  133.6580  150.8998 C   0  0  0  0  0  0  0  0  0  0  0  0
  147.0700  132.9383  152.1398 C   0  0  0  0  0  0  0  0  0  0  0  0
  146.2860  133.4380  153.2212 O   0  0  0  0  0  0  0  0  0  0  0  0
  144.9463  133.5904  152.7565 C   0  0  1  0  0  0  0  0  0  0  0  0
  144.2278  134.8995  153.1468 C   0  0  0  0  0  0  0  0  0  0  0  0
  144.5873  135.4910  154.5168 C   0  0  0  0  0  0  0  0  0  0  0  0
  142.6993  134.8117  153.1054 C   0  0  0  0  0  0  0  0  0  0  0  0
  146.9231  140.2032  153.4121 C   0  0  0  0  0  0  0  0  0  0  0  0
  146.6968  143.4801  154.4435 H   0  0  0  0  0  0  0  0  0  0  0  0
  145.3470  142.3528  154.2805 H   0  0  0  0  0  0  0  0  0  0  0  0
  146.1987  142.9267  152.8408 H   0  0  0  0  0  0  0  0  0  0  0  0
  148.8286  142.5115  155.0530 H   0  0  0  0  0  0  0  0  0  0  0  0
  150.8478  141.4494  155.8674 H   0  0  0  0  0  0  0  0  0  0  0  0
  151.5088  140.4188  154.5935 H   0  0  0  0  0  0  0  0  0  0  0  0
  150.8236  139.6941  156.0542 H   0  0  0  0  0  0  0  0  0  0  0  0
  148.0976  137.3033  152.5588 H   0  0  0  0  0  0  0  0  0  0  0  0
  146.9504  135.8687  151.8693 H   0  0  0  0  0  0  0  0  0  0  0  0
  144.1383  136.0465  151.2460 H   0  0  0  0  0  0  0  0  0  0  0  0
  144.3565  133.7591  150.6809 H   0  0  0  0  0  0  0  0  0  0  0  0
  146.4939  132.9856  150.0423 H   0  0  0  0  0  0  0  0  0  0  0  0
  147.1651  134.5002  150.6225 H   0  0  0  0  0  0  0  0  0  0  0  0
  146.9118  131.8622  152.0559 H   0  0  0  0  0  0  0  0  0  0  0  0
  148.1336  133.1160  152.3002 H   0  0  0  0  0  0  0  0  0  0  0  0
  144.3541  132.6761  152.8196 H   0  0  0  0  0  0  0  0  0  0  0  0
  144.1580  134.9062  155.3308 H   0  0  0  0  0  0  0  0  0  0  0  0
  144.2205  136.5129  154.6171 H   0  0  0  0  0  0  0  0  0  0  0  0
  145.6640  135.5176  154.6850 H   0  0  0  0  0  0  0  0  0  0  0  0
  142.3118  134.1745  153.9009 H   0  0  0  0  0  0  0  0  0  0  0  0
  142.3454  134.3965  152.1613 H   0  0  0  0  0  0  0  0  0  0  0  0
  142.2398  135.7944  153.2156 H   0  0  0  0  0  0  0  0  0  0  0  0
  145.9709  140.0852  152.9151 H   0  0  0  0  0  0  0  0  0  0  0  0
  1  2  1  0  0  0  0
  1 22  1  0  0  0  0
  1 23  1  0  0  0  0
  1 24  1  0  0  0  0
  2 21  1  0  0  0  0
  2  3  2  0  0  0  0
  3  4  1  0  0  0  0
  3 25  1  0  0  0  0
  4  5  1  0  0  0  0
  4  6  2  0  0  0  0
  5 26  1  0  0  0  0
  5 27  1  0  0  0  0
  5 28  1  0  0  0  0
  6  7  1  0  0  0  0
  7  8  1  0  0  0  0
  7 21  2  0  0  0  0
  8  9  1  0  0  0  0
  8 29  1  0  0  0  0
  9 10  2  0  0  0  0
  9 11  1  0  0  0  0
 11 12  1  0  0  0  0
 11 30  1  0  0  0  0
 12 18  1  0  0  0  0
 12 13  1  0  0  0  0
 12 31  1  0  0  0  0
 13 17  1  0  0  0  0
 13 14  1  0  0  0  0
 13 32  1  0  0  0  0
 14 15  1  0  0  0  0
 14 33  1  0  0  0  0
 14 34  1  0  0  0  0
 15 16  1  0  0  0  0
 15 35  1  0  0  0  0
 15 36  1  0  0  0  0
 16 17  1  0  0  0  0
 17 18  1  0  0  0  0
 17 37  1  0  0  0  0
 18 19  1  0  0  0  0
 18 20  1  0  0  0  0
 19 38  1  0  0  0  0
 19 39  1  0  0  0  0
 19 40  1  0  0  0  0
 20 41  1  0  0  0  0
 20 42  1  0  0  0  0
 20 43  1  0  0  0  0
 21 44  1  0  0  0  0
M  END
> <s_m_source_file>
AV-unprocessed.smi

> <i_m_source_file_index>
2224

> <i_lp_mmshare_version>
43012

> <i_f3d_flags>
0

> <s_epik_input>
W0NIM11jMVtjSF1jKFtDSDNdKW5jKFtjSF0xKVtOSF1DKD1PKVtOSF1bQ0BIXTJDKFtDSDNdKShbQ0gzXSlbQ0BIXShbQ0BASF0yMylPW0NIMl1bQ0gyXTM=

> <s_epik_cmdline>
J2VwaWtfcHl0aG9uJywgJy1waCcsICc3LjAnLCAnLXRuJywgJzgnLCAnLW1hJywgJzIwMCcsICctbWV0YWxfYmluZGluZycsICctaW1hZScsICc8aW5maWxlLm1hZT4nLCAnLW9tYWUnLCAnPG91dGZpbGUubWFlPic=

> <r_lp_tautomer_probability>
1

> <r_epik_Ionization_Penalty>
0.000276544

> <r_epik_Ionization_Penalty_Charging>
0

> <r_epik_Ionization_Penalty_Neutral>
0.000276544

> <r_epik_State_Penalty>
-0

> <r_epik_Charging_Adjusted_Penalty>
0

> <i_epik_Tot_Q>
0

> <i_epik_Tot_abs_Q>
0

> <r_epik_Metal_State_Penalty>
-0

> <b_epik_Metal_Only>
0

> <s_lp_Force_Field>
OPLS_2005

> <r_lp_Energy>
39.8946

> <b_lp_Chiralities_Consistent>
1

> <s_lp_Variant>
AV-unprocessed.smi:2224-6

> <Gold.Version>
5.8.1

> <Gold.Id.Protein>
6NUR|6NUR_protein|mol2

> <Gold.PLP.Fitness>
39.2852

> <Gold.PLP.PLP>
-34.1310

> <Gold.PLP.part.hbond>
-1.9679

> <Gold.PLP.part.metal>
0.0000

> <Gold.PLP.part.buried>
-5.5596

> <Gold.PLP.part.nonpolar>
-29.6274

> <Gold.PLP.part.repulsive>
2.7124

> <Gold.PLP.ligand.clash>
0.0000

> <Gold.PLP.ligand.torsion>
0.2755

> <Gold.PLP.Chemscore.Hbond>
1.8393

> <Gold.PLP.Chemscore.CHOScore>
0.0000

> <Gold.PLP.Chemscore.Metal>
0.0000

> <Gold.Chemscore.Hbonds>
donor molecule, donor type, donor heavy atom, donor atom, acceptor molecule, acceptor atom, score
      L1  H     8    29       P1  7948  0.99
      L1  H    11    30       P1  7948  0.85

> <Gold.PLP.Chemscore.Internal.Correction>
0.1876

> <Gold.Rescore>
     Score         DG    S(hbond)    S(metal)    S(lipo)     H(rot)  DE(clash)    DE(int)     intcor
     13.39     -18.13       1.90        0.00      75.84       1.00       0.89       3.85       ----

> <Gold.Chemscore.Fitness>
13.3879

> <Gold.Chemscore.DG>
-18.1308

> <Gold.Chemscore.ZeroCoef>
-5.4800

> <Gold.Chemscore.Hbond>
1.8976

> <Gold.Chemscore.Metal>
0.0000

> <Gold.Chemscore.Lipo>
75.8354

> <Gold.Chemscore.Internal_Hbond>
0.0000

> <Gold.Chemscore.DEClash>
0.8896

> <Gold.Chemscore.DEInternal>
3.8533

> <Gold.Chemscore.Rot>
1.0000

> <Gold.Chemscore.Internal.Correction>
   9.000000E+99

> <Gold.Chemscore.Hbonds>
donor molecule, donor type, donor heavy atom, donor atom, acceptor molecule, acceptor atom, score
      L1  H     8    29       P1  7948  0.92
      L1  H    11    30       P1  7948  0.79

> <Gold.Chemscore.Hbond.Weighted>
-6.3381

> <Gold.Chemscore.Metal.Weighted>
-0.0000

> <Gold.Chemscore.Lipo.Weighted>
-8.8727

> <Gold.Chemscore.Internal_Hbond.Weighted>
0.0000

> <Gold.Chemscore.DEClash.Weighted>
0.8896

> <Gold.Chemscore.DEInternal.Weighted>
3.8533

> <Gold.Chemscore.Rot.Weighted>
2.5600

> <Gold.Chemscore.Internal.Correction.Weighted>
   9.000000E+99

> <Gold.Protein.RotatedTorsions>
[ 6907 6896 6895 6894 ] final  116.69 input  -60.11 | X-H torsion
[ 7974 7965 7964 7962 ] final   63.91 input  175.53 | X-H torsion
[ 8008 7997 7996 7995 ] final -166.10 input   59.86 | X-H torsion
[ 10167 10162 10161 10158 ] final   79.90 input  -65.29 | X-H torsion
[ 10718 10713 10712 10709 ] final  174.38 input   66.30 | X-H torsion
[ 10763 10752 10751 10750 ] final  -94.46 input  -60.55 | X-H torsion
[ 11005 11000 10999 10996 ] final  -30.15 input  -57.11 | X-H torsion

> <Gold.Protein.ActiveResidues>
 VAL166  LYS551  ARG553  GLY616  TRP617  ASP618  TYR619  PRO620  LYS621  CYS622 
 ASP623  PHE694  ASN695  SER759  ASP760  ASP761  ALA762  ILE779  LEU786  VAL792 
 PHE793  MET794  SER795  GLU796  ALA797  LYS798  CYS799  TRP800  GLU811  SER814 

> <Gold.Protein.RotatedAtoms>
  152.4661  133.7926  159.6910 H   0  0  0  0  0  0  0  0  0  0  0  0  # atno 6907 bound_to 6896
  150.8627  133.7611  159.2993 H   0  0  0  0  0  0  0  0  0  0  0  0  # atno 6908 bound_to 6896
  151.5171  135.1069  159.9921 H   0  0  0  0  0  0  0  0  0  0  0  0  # atno 6909 bound_to 6896
  145.8563  139.3286  143.0845 H   0  0  0  0  0  0  0  0  0  0  0  0  # atno 7974 bound_to 7965
  155.8591  140.0975  157.1625 H   0  0  0  0  0  0  0  0  0  0  0  0  # atno 8008 bound_to 7997
  154.3989  140.1368  156.4000 H   0  0  0  0  0  0  0  0  0  0  0  0  # atno 8009 bound_to 7997
  155.7877  140.3456  155.5334 H   0  0  0  0  0  0  0  0  0  0  0  0  # atno 8010 bound_to 7997
  139.9555  144.5997  150.8121 H   0  0  0  0  0  0  0  0  0  0  0  0  # atno 10167 bound_to 10162
  156.9504  131.0029  151.2950 H   0  0  0  0  0  0  0  0  0  0  0  0  # atno 10718 bound_to 10713
  154.7057  135.5156  153.8592 H   0  0  0  0  0  0  0  0  0  0  0  0  # atno 10763 bound_to 10752
  153.0739  135.6610  154.0196 H   0  0  0  0  0  0  0  0  0  0  0  0  # atno 10764 bound_to 10752
  154.0047  135.3007  155.3378 H   0  0  0  0  0  0  0  0  0  0  0  0  # atno 10765 bound_to 10752
  140.9358  133.7309  156.1003 H   0  0  0  0  0  0  0  0  0  0  0  0  # atno 11005 bound_to 11000
  145.9299  140.9056  143.0361 LP  0  0  0  0  0  0  0  0  0  0  0  0  # atno 17320 bound_to 7965
  144.6727  140.1404  143.7437 LP  0  0  0  0  0  0  0  0  0  0  0  0  # atno 17321 bound_to 7965
  140.7570  143.3077  151.2922 LP  0  0  0  0  0  0  0  0  0  0  0  0  # atno 17342 bound_to 10162
  139.6595  144.0215  152.2682 LP  0  0  0  0  0  0  0  0  0  0  0  0  # atno 17343 bound_to 10162
  157.5726  130.8321  149.8412 LP  0  0  0  0  0  0  0  0  0  0  0  0  # atno 17370 bound_to 10713
  156.0365  130.3750  150.1546 LP  0  0  0  0  0  0  0  0  0  0  0  0  # atno 17371 bound_to 10713
  140.7801  134.3735  157.5489 LP  0  0  0  0  0  0  0  0  0  0  0  0  # atno 17394 bound_to 11000
  139.8807  134.9076  156.2949 LP  0  0  0  0  0  0  0  0  0  0  0  0  # atno 17395 bound_to 11000

$$$$
