AV-unprocessed.smi:432|AV-procd|sdf|2549|dock10
  -GOLD-   2262022513D 1   1.00000     0.00000
 Structure written by MMmdl.
 31 32  0  0  0  0  0  0  0  0  1 V2000
  151.7309  141.4767  157.6330 O   0  0  0  0  0  0  0  0  0  0  0  0
  151.0099  142.1418  156.8875 C   0  0  0  0  0  0  0  0  0  0  0  0
  150.3478  141.5074  155.6550 C   0  0  0  0  0  0  0  0  0  0  0  0
  150.4134  140.0380  155.6398 N   0  0  0  0  0  0  0  0  0  0  0  0
  150.8012  139.5039  154.4234 N   0  0  0  0  0  0  0  0  0  0  0  0
  150.9053  138.2261  154.2960 C   0  0  0  0  0  0  0  0  0  0  0  0
  150.6278  137.3177  155.3865 C   0  0  0  0  0  0  0  0  0  0  0  0
  150.7875  135.6121  155.1563 Cl  0  0  0  0  0  0  0  0  0  0  0  0
  150.2422  137.8511  156.5730 C   0  0  0  0  0  0  0  0  0  0  0  0
  149.8924  136.8281  157.9242 Cl  0  0  0  0  0  0  0  0  0  0  0  0
  150.1085  139.3032  156.7539 C   0  0  0  0  0  0  0  0  0  0  0  0
  149.7548  139.8257  157.8120 O   0  0  0  0  0  0  0  0  0  0  0  0
  150.7579  143.4452  157.0803 N   0  0  0  0  0  0  0  0  0  0  0  0
  151.2652  144.2452  158.1921 C   0  0  0  0  0  0  0  0  0  0  0  0
  152.8018  144.3592  158.1428 C   0  0  0  0  0  0  0  0  0  0  0  0
  153.3246  143.4917  159.2881 C   0  0  0  0  0  0  0  0  0  0  0  0
  152.2291  143.5726  160.3462 C   0  0  0  0  0  0  0  0  0  0  0  0
  150.9273  143.5848  159.5428 C   0  0  0  0  0  0  0  0  0  0  0  0
  149.3067  141.8311  155.5972 H   0  0  0  0  0  0  0  0  0  0  0  0
  150.8302  141.9167  154.7655 H   0  0  0  0  0  0  0  0  0  0  0  0
  151.2082  137.7607  153.3579 H   0  0  0  0  0  0  0  0  0  0  0  0
  150.1590  143.9156  156.4173 H   0  0  0  0  0  0  0  0  0  0  0  0
  150.8264  145.2443  158.1596 H   0  0  0  0  0  0  0  0  0  0  0  0
  153.2296  144.0682  157.1821 H   0  0  0  0  0  0  0  0  0  0  0  0
  153.0898  145.3966  158.3182 H   0  0  0  0  0  0  0  0  0  0  0  0
  153.4324  142.4604  158.9492 H   0  0  0  0  0  0  0  0  0  0  0  0
  154.2943  143.8250  159.6590 H   0  0  0  0  0  0  0  0  0  0  0  0
  152.2732  142.7511  161.0617 H   0  0  0  0  0  0  0  0  0  0  0  0
  152.3261  144.5056  160.9029 H   0  0  0  0  0  0  0  0  0  0  0  0
  150.1302  144.1107  160.0694 H   0  0  0  0  0  0  0  0  0  0  0  0
  150.5914  142.5569  159.3966 H   0  0  0  0  0  0  0  0  0  0  0  0
  1  2  2  0  0  0  0
  2  3  1  0  0  0  0
  2 13  1  0  0  0  0
  3  4  1  0  0  0  0
  3 19  1  0  0  0  0
  3 20  1  0  0  0  0
  4 11  1  0  0  0  0
  4  5  1  0  0  0  0
  5  6  2  0  0  0  0
  6  7  1  0  0  0  0
  6 21  1  0  0  0  0
  7  8  1  0  0  0  0
  7  9  2  0  0  0  0
  9 10  1  0  0  0  0
  9 11  1  0  0  0  0
 11 12  2  0  0  0  0
 13 14  1  0  0  0  0
 13 22  1  0  0  0  0
 14 18  1  0  0  0  0
 14 15  1  0  0  0  0
 14 23  1  0  0  0  0
 15 16  1  0  0  0  0
 15 24  1  0  0  0  0
 15 25  1  0  0  0  0
 16 17  1  0  0  0  0
 16 26  1  0  0  0  0
 16 27  1  0  0  0  0
 17 18  1  0  0  0  0
 17 28  1  0  0  0  0
 17 29  1  0  0  0  0
 18 30  1  0  0  0  0
 18 31  1  0  0  0  0
M  END
> <s_m_source_file>
AV-unprocessed.smi

> <i_m_source_file_index>
432

> <i_lp_mmshare_version>
43012

> <i_f3d_flags>
0

> <s_epik_input>
W0NIMl0xW0NIMl1bQ0gyXVtDSDJdW0NIXTFbTkhdQyg9TylbQ0gyXW4ybltjSF1jKENsKWMoQ2wpYzI9Tw==

> <s_epik_cmdline>
J2VwaWtfcHl0aG9uJywgJy1waCcsICc3LjAnLCAnLXRuJywgJzgnLCAnLW1hJywgJzIwMCcsICctbWV0YWxfYmluZGluZycsICctaW1hZScsICc8aW5maWxlLm1hZT4nLCAnLW9tYWUnLCAnPG91dGZpbGUubWFlPic=

> <r_lp_tautomer_probability>
1

> <r_epik_Ionization_Penalty>
1.93318e-08

> <r_epik_Ionization_Penalty_Charging>
3.01013e-11

> <r_epik_Ionization_Penalty_Neutral>
1.93017e-08

> <r_epik_State_Penalty>
-0

> <r_epik_Charging_Adjusted_Penalty>
3.01013e-11

> <i_epik_Tot_Q>
0

> <i_epik_Tot_abs_Q>
0

> <r_epik_Metal_State_Penalty>
-0

> <b_epik_Metal_Only>
0

> <s_lp_Force_Field>
OPLS_2005

> <r_lp_Energy>
31.6968

> <b_lp_Chiralities_Consistent>
1

> <s_lp_Variant>
AV-unprocessed.smi:432-1

> <Gold.Version>
5.8.1

> <Gold.Id.Protein>
6NUR|6NUR_protein|mol2

> <Gold.PLP.Fitness>
43.4546

> <Gold.PLP.PLP>
-35.3177

> <Gold.PLP.part.hbond>
-2.0000

> <Gold.PLP.part.metal>
0.0000

> <Gold.PLP.part.buried>
-4.7770

> <Gold.PLP.part.nonpolar>
-27.6804

> <Gold.PLP.part.repulsive>
0.1597

> <Gold.PLP.ligand.clash>
0.0000

> <Gold.PLP.ligand.torsion>
0.3352

> <Gold.PLP.Chemscore.Hbond>
2.0000

> <Gold.PLP.Chemscore.CHOScore>
0.9346

> <Gold.PLP.Chemscore.Metal>
0.0000

> <Gold.Chemscore.Hbonds>
donor molecule, donor type, donor heavy atom, donor atom, acceptor molecule, acceptor atom, score
      L1  H    13    22       P1  8028  1.00
      P1  H  7989  7998       L1     5  1.00
      L1  C     6    21       P1  7949  0.90

> <Gold.PLP.Chemscore.Internal.Correction>
0.0033

> <Gold.Rescore>
     Score         DG    S(hbond)    S(metal)    S(lipo)     H(rot)  DE(clash)    DE(int)     intcor
     17.10     -18.81       1.94        0.00      92.08       1.53       0.08       1.63       ----

> <Gold.Chemscore.Fitness>
17.1002

> <Gold.Chemscore.DG>
-18.8106

> <Gold.Chemscore.ZeroCoef>
-5.4800

> <Gold.Chemscore.Hbond>
1.9387

> <Gold.Chemscore.Metal>
0.0000

> <Gold.Chemscore.Lipo>
92.0765

> <Gold.Chemscore.Internal_Hbond>
0.0000

> <Gold.Chemscore.DEClash>
0.0775

> <Gold.Chemscore.DEInternal>
1.6328

> <Gold.Chemscore.Rot>
1.5303

> <Gold.Chemscore.Internal.Correction>
   9.000000E+99

> <Gold.Chemscore.Hbonds>
donor molecule, donor type, donor heavy atom, donor atom, acceptor molecule, acceptor atom, score
      L1  H    13    22       P1  8028  1.00
      P1  H  7989  7998       L1     5  0.60

> <Gold.Chemscore.Hbond.Weighted>
-6.4752

> <Gold.Chemscore.Metal.Weighted>
-0.0000

> <Gold.Chemscore.Lipo.Weighted>
-10.7729

> <Gold.Chemscore.Internal_Hbond.Weighted>
0.0000

> <Gold.Chemscore.DEClash.Weighted>
0.0775

> <Gold.Chemscore.DEInternal.Weighted>
1.6328

> <Gold.Chemscore.Rot.Weighted>
3.9176

> <Gold.Chemscore.Internal.Correction.Weighted>
   9.000000E+99

> <Gold.Protein.RotatedTorsions>
[ 6907 6896 6895 6894 ] final    8.18 input  -60.11 | X-H torsion
[ 7974 7965 7964 7962 ] final   17.98 input  175.53 | X-H torsion
[ 8008 7997 7996 7995 ] final  169.82 input   59.86 | X-H torsion
[ 10167 10162 10161 10158 ] final   11.37 input  -65.29 | X-H torsion
[ 10718 10713 10712 10709 ] final  124.95 input   66.30 | X-H torsion
[ 10763 10752 10751 10750 ] final -113.64 input  -60.55 | X-H torsion
[ 11005 11000 10999 10996 ] final    9.73 input  -57.11 | X-H torsion

> <Gold.Protein.ActiveResidues>
 VAL166  LYS551  ARG553  GLY616  TRP617  ASP618  TYR619  PRO620  LYS621  CYS622 
 ASP623  PHE694  ASN695  SER759  ASP760  ASP761  ALA762  ILE779  LEU786  VAL792 
 PHE793  MET794  SER795  GLU796  ALA797  LYS798  CYS799  TRP800  GLU811  SER814 

> <Gold.Protein.RotatedAtoms>
  151.7019  135.0928  160.0252 H   0  0  0  0  0  0  0  0  0  0  0  0  # atno 6907 bound_to 6896
  152.3715  133.6421  159.6099 H   0  0  0  0  0  0  0  0  0  0  0  0  # atno 6908 bound_to 6896
  150.7677  133.9178  159.3430 H   0  0  0  0  0  0  0  0  0  0  0  0  # atno 6909 bound_to 6896
  146.2200  139.8523  142.8620 H   0  0  0  0  0  0  0  0  0  0  0  0  # atno 7974 bound_to 7965
  156.1422  140.1554  156.8902 H   0  0  0  0  0  0  0  0  0  0  0  0  # atno 8008 bound_to 7997
  154.4997  140.0828  156.7810 H   0  0  0  0  0  0  0  0  0  0  0  0  # atno 8009 bound_to 7997
  155.4057  140.3416  155.4262 H   0  0  0  0  0  0  0  0  0  0  0  0  # atno 8010 bound_to 7997
  140.6136  143.8356  150.7093 H   0  0  0  0  0  0  0  0  0  0  0  0  # atno 10167 bound_to 10162
  157.5543  131.1092  150.8649 H   0  0  0  0  0  0  0  0  0  0  0  0  # atno 10718 bound_to 10713
  154.8405  135.4447  154.1381 H   0  0  0  0  0  0  0  0  0  0  0  0  # atno 10763 bound_to 10752
  153.2574  135.6932  153.7621 H   0  0  0  0  0  0  0  0  0  0  0  0  # atno 10764 bound_to 10752
  153.6911  135.3387  155.3178 H   0  0  0  0  0  0  0  0  0  0  0  0  # atno 10765 bound_to 10752
  140.5224  134.0546  155.7849 H   0  0  0  0  0  0  0  0  0  0  0  0  # atno 11005 bound_to 11000
  145.2789  141.0132  143.3729 LP  0  0  0  0  0  0  0  0  0  0  0  0  # atno 17320 bound_to 7965
  144.9166  139.4463  143.6561 LP  0  0  0  0  0  0  0  0  0  0  0  0  # atno 17321 bound_to 7965
  140.1930  143.4021  152.1849 LP  0  0  0  0  0  0  0  0  0  0  0  0  # atno 17342 bound_to 10162
  139.5380  144.7229  151.4827 LP  0  0  0  0  0  0  0  0  0  0  0  0  # atno 17343 bound_to 10162
  156.9165  130.5299  149.5279 LP  0  0  0  0  0  0  0  0  0  0  0  0  # atno 17370 bound_to 10713
  156.0604  130.5658  150.9181 LP  0  0  0  0  0  0  0  0  0  0  0  0  # atno 17371 bound_to 10713
  141.1327  133.9275  157.2501 LP  0  0  0  0  0  0  0  0  0  0  0  0  # atno 17394 bound_to 11000
  139.9598  135.0157  156.9230 LP  0  0  0  0  0  0  0  0  0  0  0  0  # atno 17395 bound_to 11000

$$$$
