AV-unprocessed.smi:276|AV-procd|sdf|2071|dock2
  -GOLD-   2262021323D 1   1.00000     0.00000
 Structure written by MMmdl.
 57 61  0  0  0  0  0  0  0  0  1 V2000
  155.7624  130.0647  157.0621 C   0  0  0  0  0  0  0  0  0  0  0  0
  154.4191  129.7320  157.3651 O   0  0  0  0  0  0  0  0  0  0  0  0
  153.8832  128.7465  156.4928 C   0  0  1  0  0  0  0  0  0  0  0  0
  152.5393  128.1866  156.9835 C   0  0  0  0  0  0  0  0  0  0  0  0
  151.8153  129.2797  156.1724 C   0  0  1  0  0  0  0  0  0  0  0  0
  151.4970  130.4482  157.0055 N   0  0  0  0  0  0  0  0  0  0  0  0
  150.8774  130.1680  158.2968 C   0  0  0  0  0  0  0  0  0  0  0  0
  150.8374  131.4528  156.3878 C   0  0  0  0  0  0  0  0  0  0  0  0
  150.6818  132.6068  157.0831 N   0  0  0  0  0  0  0  0  0  0  0  0
  150.0549  133.6453  156.5226 C   0  0  0  0  0  0  0  0  0  0  0  0
  149.5144  133.7371  155.3055 N   0  0  0  0  0  0  0  0  0  0  0  0
  149.6545  132.5709  154.6117 C   0  0  0  0  0  0  0  0  0  0  0  0
  150.2905  131.3850  155.0744 C   0  0  0  0  0  0  0  0  0  0  0  0
  150.2315  130.4024  154.0929 N   0  0  0  0  0  0  0  0  0  0  0  0
  149.6111  130.9796  153.1008 C   0  0  0  0  0  0  0  0  0  0  0  0
  149.2325  132.2830  153.3260 N   0  0  0  0  0  0  0  0  0  0  0  0
  148.5413  133.1572  152.3938 C   0  0  0  0  0  0  0  0  0  0  0  0
  147.1108  132.6662  152.0727 C   0  0  2  0  0  0  0  0  0  0  0  0
  147.2238  131.4548  151.3479 O   0  0  0  0  0  0  0  0  0  0  0  0
  146.2854  133.6438  151.2035 C   0  0  2  0  0  0  0  0  0  0  0  0
  145.9423  134.9902  151.8671 C   0  0  0  0  0  0  0  0  0  0  0  0
  144.5708  134.7546  152.4568 C   0  0  0  0  0  0  0  0  0  0  0  0
  143.9486  133.8662  151.3931 C   0  0  0  0  0  0  0  0  0  0  0  0
  145.0148  133.0281  150.9680 O   0  0  0  0  0  0  0  0  0  0  0  0
  153.1118  129.3842  155.3245 C   0  0  0  0  0  0  0  0  0  0  0  0
  153.1720  128.6886  153.9532 C   0  0  0  0  0  0  0  0  0  0  0  0
  154.2113  129.7276  153.5262 C   0  0  0  0  0  0  0  0  0  0  0  0
  153.6338  130.6453  154.6045 C   0  0  0  0  0  0  0  0  0  0  0  0
  156.1147  130.8275  157.7562 H   0  0  0  0  0  0  0  0  0  0  0  0
  155.8490  130.4652  156.0514 H   0  0  0  0  0  0  0  0  0  0  0  0
  156.4199  129.1998  157.1526 H   0  0  0  0  0  0  0  0  0  0  0  0
  154.6087  127.9929  156.1822 H   0  0  0  0  0  0  0  0  0  0  0  0
  152.3431  127.1876  156.5910 H   0  0  0  0  0  0  0  0  0  0  0  0
  152.3984  128.2107  158.0633 H   0  0  0  0  0  0  0  0  0  0  0  0
  150.9636  128.8826  155.6201 H   0  0  0  0  0  0  0  0  0  0  0  0
  150.4275  131.0584  158.7397 H   0  0  0  0  0  0  0  0  0  0  0  0
  151.6193  129.7978  159.0036 H   0  0  0  0  0  0  0  0  0  0  0  0
  150.0979  129.4125  158.1930 H   0  0  0  0  0  0  0  0  0  0  0  0
  149.9784  134.5306  157.1364 H   0  0  0  0  0  0  0  0  0  0  0  0
  149.4155  130.4685  152.1694 H   0  0  0  0  0  0  0  0  0  0  0  0
  148.5254  134.1510  152.8387 H   0  0  0  0  0  0  0  0  0  0  0  0
  149.1323  133.2331  151.4801 H   0  0  0  0  0  0  0  0  0  0  0  0
  146.5824  132.4633  153.0052 H   0  0  0  0  0  0  0  0  0  0  0  0
  147.9878  131.5059  150.7941 H   0  0  0  0  0  0  0  0  0  0  0  0
  146.7945  133.8250  150.2554 H   0  0  0  0  0  0  0  0  0  0  0  0
  146.6612  135.3419  152.6038 H   0  0  0  0  0  0  0  0  0  0  0  0
  145.8718  135.7618  151.0989 H   0  0  0  0  0  0  0  0  0  0  0  0
  144.6507  134.2176  153.4029 H   0  0  0  0  0  0  0  0  0  0  0  0
  144.0111  135.6749  152.6261 H   0  0  0  0  0  0  0  0  0  0  0  0
  143.1059  133.2846  151.7674 H   0  0  0  0  0  0  0  0  0  0  0  0
  143.6058  134.4624  150.5463 H   0  0  0  0  0  0  0  0  0  0  0  0
  153.5340  127.6600  153.9696 H   0  0  0  0  0  0  0  0  0  0  0  0
  152.2377  128.7755  153.3958 H   0  0  0  0  0  0  0  0  0  0  0  0
  155.2352  129.4163  153.7394 H   0  0  0  0  0  0  0  0  0  0  0  0
  154.1001  130.0940  152.5053 H   0  0  0  0  0  0  0  0  0  0  0  0
  152.8500  131.2831  154.1967 H   0  0  0  0  0  0  0  0  0  0  0  0
  154.3741  131.2243  155.1569 H   0  0  0  0  0  0  0  0  0  0  0  0
  1  2  1  0  0  0  0
  1 29  1  0  0  0  0
  1 30  1  0  0  0  0
  1 31  1  0  0  0  0
  2  3  1  0  0  0  0
  3 25  1  0  0  0  0
  3  4  1  0  0  0  0
  3 32  1  0  0  0  0
  4  5  1  0  0  0  0
  4 33  1  0  0  0  0
  4 34  1  0  0  0  0
  5  6  1  0  0  0  0
  5 25  1  0  0  0  0
  5 35  1  0  0  0  0
  6  7  1  0  0  0  0
  6  8  1  0  0  0  0
  7 36  1  0  0  0  0
  7 37  1  0  0  0  0
  7 38  1  0  0  0  0
  8 13  1  0  0  0  0
  8  9  2  0  0  0  0
  9 10  1  0  0  0  0
 10 11  2  0  0  0  0
 10 39  1  0  0  0  0
 11 12  1  0  0  0  0
 12 16  1  0  0  0  0
 12 13  2  0  0  0  0
 13 14  1  0  0  0  0
 14 15  2  0  0  0  0
 15 16  1  0  0  0  0
 15 40  1  0  0  0  0
 16 17  1  0  0  0  0
 17 18  1  0  0  0  0
 17 41  1  0  0  0  0
 17 42  1  0  0  0  0
 18 19  1  0  0  0  0
 18 20  1  0  0  0  0
 18 43  1  0  0  0  0
 19 44  1  0  0  0  0
 20 24  1  0  0  0  0
 20 21  1  0  0  0  0
 20 45  1  0  0  0  0
 21 22  1  0  0  0  0
 21 46  1  0  0  0  0
 21 47  1  0  0  0  0
 22 23  1  0  0  0  0
 22 48  1  0  0  0  0
 22 49  1  0  0  0  0
 23 24  1  0  0  0  0
 23 50  1  0  0  0  0
 23 51  1  0  0  0  0
 25 28  1  0  0  0  0
 25 26  1  0  0  0  0
 26 27  1  0  0  0  0
 26 52  1  0  0  0  0
 26 53  1  0  0  0  0
 27 28  1  0  0  0  0
 27 54  1  0  0  0  0
 27 55  1  0  0  0  0
 28 56  1  0  0  0  0
 28 57  1  0  0  0  0
M  END
> <s_m_source_file>
AV-unprocessed.smi

> <i_m_source_file_index>
276

> <i_lp_mmshare_version>
43012

> <i_f3d_flags>
0

> <s_epik_input>
W0NIMl0xW0NIMl1bQ0gyXUMxMltDQEhdKE9bQ0gzXSlbQ0gyXVtDQEhdMk4oW0NIM10pYyhuW2NIXW4zKWMoYzM0KW5bY0hdbjRbQ0gyXVtDQEhdKFtPSF0pW0NAQEhdNVtDSDJdW0NIMl1bQ0gyXU81

> <s_epik_cmdline>
J2VwaWtfcHl0aG9uJywgJy1waCcsICc3LjAnLCAnLXRuJywgJzgnLCAnLW1hJywgJzIwMCcsICctbWV0YWxfYmluZGluZycsICctaW1hZScsICc8aW5maWxlLm1hZT4nLCAnLW9tYWUnLCAnPG91dGZpbGUubWFlPic=

> <r_lp_tautomer_probability>
1

> <r_epik_Ionization_Penalty>
0.00204117

> <r_epik_Ionization_Penalty_Charging>
0

> <r_epik_Ionization_Penalty_Neutral>
0.00204117

> <r_epik_State_Penalty>
0.00127401

> <r_epik_Charging_Adjusted_Penalty>
0.00127401

> <i_epik_Tot_Q>
0

> <i_epik_Tot_abs_Q>
0

> <r_epik_Metal_State_Penalty>
-0

> <b_epik_Metal_Only>
0

> <s_lp_Force_Field>
OPLS_2005

> <r_lp_Energy>
58.0583

> <b_lp_Chiralities_Consistent>
1

> <s_lp_Variant>
AV-unprocessed.smi:276-2

> <Gold.Version>
5.8.1

> <Gold.Id.Protein>
6NUR|6NUR_protein|mol2

> <Gold.PLP.Fitness>
42.2086

> <Gold.PLP.PLP>
-34.3918

> <Gold.PLP.part.hbond>
-2.0000

> <Gold.PLP.part.metal>
0.0000

> <Gold.PLP.part.buried>
-4.6306

> <Gold.PLP.part.nonpolar>
-28.0542

> <Gold.PLP.part.repulsive>
0.2040

> <Gold.PLP.ligand.clash>
0.0114

> <Gold.PLP.ligand.torsion>
0.8457

> <Gold.PLP.Chemscore.Hbond>
2.0000

> <Gold.PLP.Chemscore.CHOScore>
0.8755

> <Gold.PLP.Chemscore.Metal>
0.0000

> <Gold.Chemscore.Hbonds>
donor molecule, donor type, donor heavy atom, donor atom, acceptor molecule, acceptor atom, score
      L1  H    19    44       P1 10747  0.38
      P1  H  6896  6909       L1     9  0.26
      L1  C    15    40       P1 10747  0.28

> <Gold.PLP.Chemscore.Internal.Correction>
0.8931

> <Gold.Rescore>
     Score         DG    S(hbond)    S(metal)    S(lipo)     H(rot)  DE(clash)    DE(int)     intcor
     10.40     -12.95       1.90        0.00      69.17       2.72       0.06       2.49       ----

> <Gold.Chemscore.Fitness>
10.3953

> <Gold.Chemscore.DG>
-12.9488

> <Gold.Chemscore.ZeroCoef>
-5.4800

> <Gold.Chemscore.Hbond>
1.8956

> <Gold.Chemscore.Metal>
0.0000

> <Gold.Chemscore.Lipo>
69.1746

> <Gold.Chemscore.Internal_Hbond>
0.0000

> <Gold.Chemscore.DEClash>
0.0643

> <Gold.Chemscore.DEInternal>
2.4892

> <Gold.Chemscore.Rot>
2.7172

> <Gold.Chemscore.Internal.Correction>
   9.000000E+99

> <Gold.Chemscore.Hbonds>
donor molecule, donor type, donor heavy atom, donor atom, acceptor molecule, acceptor atom, score
      L1  H    19    44       P1 10747  0.35
      P1  H  6896  6909       L1     9  0.08

> <Gold.Chemscore.Hbond.Weighted>
-6.3313

> <Gold.Chemscore.Metal.Weighted>
-0.0000

> <Gold.Chemscore.Lipo.Weighted>
-8.0934

> <Gold.Chemscore.Internal_Hbond.Weighted>
0.0000

> <Gold.Chemscore.DEClash.Weighted>
0.0643

> <Gold.Chemscore.DEInternal.Weighted>
2.4892

> <Gold.Chemscore.Rot.Weighted>
6.9560

> <Gold.Chemscore.Internal.Correction.Weighted>
   9.000000E+99

> <Gold.Protein.RotatedTorsions>
[ 6907 6896 6895 6894 ] final  -28.83 input  -60.11 | X-H torsion
[ 7974 7965 7964 7962 ] final  103.58 input  175.53 | X-H torsion
[ 8008 7997 7996 7995 ] final   11.51 input   59.86 | X-H torsion
[ 10167 10162 10161 10158 ] final -146.24 input  -65.29 | X-H torsion
[ 10718 10713 10712 10709 ] final -121.11 input   66.30 | X-H torsion
[ 10763 10752 10751 10750 ] final -169.80 input  -60.55 | X-H torsion
[ 11005 11000 10999 10996 ] final -124.90 input  -57.11 | X-H torsion

> <Gold.Protein.ActiveResidues>
 VAL166  LYS551  ARG553  GLY616  TRP617  ASP618  TYR619  PRO620  LYS621  CYS622 
 ASP623  PHE694  ASN695  SER759  ASP760  ASP761  ALA762  ILE779  LEU786  VAL792 
 PHE793  MET794  SER795  GLU796  ALA797  LYS798  CYS799  TRP800  GLU811  SER814 

> <Gold.Protein.RotatedAtoms>
  151.1276  135.0113  159.8567 H   0  0  0  0  0  0  0  0  0  0  0  0  # atno 6907 bound_to 6896
  152.5450  134.1648  159.8583 H   0  0  0  0  0  0  0  0  0  0  0  0  # atno 6908 bound_to 6896
  151.1712  133.4738  159.2627 H   0  0  0  0  0  0  0  0  0  0  0  0  # atno 6909 bound_to 6896
  145.3441  139.2455  143.3594 H   0  0  0  0  0  0  0  0  0  0  0  0  # atno 7974 bound_to 7965
  154.8079  140.2863  155.5874 H   0  0  0  0  0  0  0  0  0  0  0  0  # atno 8008 bound_to 7997
  156.2985  140.2574  156.2890 H   0  0  0  0  0  0  0  0  0  0  0  0  # atno 8009 bound_to 7997
  154.9482  140.0380  157.2120 H   0  0  0  0  0  0  0  0  0  0  0  0  # atno 8010 bound_to 7997
  139.7732  143.8208  152.2628 H   0  0  0  0  0  0  0  0  0  0  0  0  # atno 10167 bound_to 10162
  156.1311  130.6396  150.9623 H   0  0  0  0  0  0  0  0  0  0  0  0  # atno 10718 bound_to 10713
  154.6484  135.2908  155.0017 H   0  0  0  0  0  0  0  0  0  0  0  0  # atno 10763 bound_to 10752
  154.1118  135.6561  153.4890 H   0  0  0  0  0  0  0  0  0  0  0  0  # atno 10764 bound_to 10752
  153.0363  135.5267  154.7382 H   0  0  0  0  0  0  0  0  0  0  0  0  # atno 10765 bound_to 10752
  140.9805  134.0680  157.3770 H   0  0  0  0  0  0  0  0  0  0  0  0  # atno 11005 bound_to 11000
  146.2995  140.4044  142.8709 LP  0  0  0  0  0  0  0  0  0  0  0  0  # atno 17320 bound_to 7965
  144.8768  140.7347  143.6012 LP  0  0  0  0  0  0  0  0  0  0  0  0  # atno 17321 bound_to 7965
  139.8248  144.7280  150.9525 LP  0  0  0  0  0  0  0  0  0  0  0  0  # atno 17342 bound_to 10162
  140.7815  143.4124  151.0971 LP  0  0  0  0  0  0  0  0  0  0  0  0  # atno 17343 bound_to 10162
  157.6489  131.0900  150.8094 LP  0  0  0  0  0  0  0  0  0  0  0  0  # atno 17370 bound_to 10713
  156.8178  130.4974  149.5347 LP  0  0  0  0  0  0  0  0  0  0  0  0  # atno 17371 bound_to 10713
  139.8948  135.0138  156.6970 LP  0  0  0  0  0  0  0  0  0  0  0  0  # atno 17394 bound_to 11000
  140.7194  133.9154  155.8136 LP  0  0  0  0  0  0  0  0  0  0  0  0  # atno 17395 bound_to 11000

$$$$
