AV-unprocessed.smi:1507|AV-procd|sdf|6082|dock3
  -GOLD-   22720 6203D 1   1.00000     0.00000
 Structure written by MMmdl.
 34 35  0  0  0  0  0  0  0  0  3 V2000
  148.8412  136.8624  154.5418 N   0  0  0  0  0  0  0  0  0  0  0  0
  150.3515  136.8261  155.3589 S   0  0  0  0  0  0  0  0  0  0  0  0
  150.0596  137.1474  156.7652 O   0  0  0  0  0  0  0  0  0  0  0  0
  150.9501  135.5190  155.0444 O   0  0  0  0  0  0  0  0  0  0  0  0
  151.0188  138.0535  154.5416 N   0  5  0  0  0  0  0  0  0  0  0  0
  150.2766  139.2927  154.4077 C   0  0  0  0  0  0  0  0  0  0  0  0
  150.6515  140.2794  155.5023 C   0  0  0  0  0  0  0  0  0  0  0  0
  151.5713  139.9249  156.5173 C   0  0  0  0  0  0  0  0  0  0  0  0
  151.8865  140.8602  157.5254 C   0  0  0  0  0  0  0  0  0  0  0  0
  151.2779  142.1326  157.5070 C   0  0  0  0  0  0  0  0  0  0  0  0
  151.5586  143.0832  158.4983 N   0  0  0  0  0  0  0  0  0  0  0  0
  150.4184  143.9294  158.8267 C   0  0  0  0  0  0  0  0  0  0  0  0
  150.8420  145.0144  159.8318 C   0  0  0  0  0  0  0  0  0  0  0  0
  151.4113  144.3996  160.9842 O   0  0  0  0  0  0  0  0  0  0  0  0
  152.5705  143.6346  160.6659 C   0  0  0  0  0  0  0  0  0  0  0  0
  152.1920  142.5145  159.6817 C   0  0  0  0  0  0  0  0  0  0  0  0
  150.4050  142.4354  156.5166 N   0  3  0  0  0  0  0  0  0  0  0  0
  150.0752  141.5698  155.5323 C   0  0  0  0  0  0  0  0  0  0  0  0
  148.8777  136.3845  153.6422 H   0  0  0  0  0  0  0  0  0  0  0  0
  148.4528  137.8034  154.4916 H   0  0  0  0  0  0  0  0  0  0  0  0
  150.4537  139.7673  153.4420 H   0  0  0  0  0  0  0  0  0  0  0  0
  149.1999  139.1279  154.4608 H   0  0  0  0  0  0  0  0  0  0  0  0
  152.0344  138.9476  156.5407 H   0  0  0  0  0  0  0  0  0  0  0  0
  152.5845  140.5975  158.3068 H   0  0  0  0  0  0  0  0  0  0  0  0
  150.0267  144.3912  157.9195 H   0  0  0  0  0  0  0  0  0  0  0  0
  149.6179  143.3226  159.2526 H   0  0  0  0  0  0  0  0  0  0  0  0
  151.5594  145.7032  159.3824 H   0  0  0  0  0  0  0  0  0  0  0  0
  149.9778  145.6059  160.1343 H   0  0  0  0  0  0  0  0  0  0  0  0
  153.3417  144.2812  160.2441 H   0  0  0  0  0  0  0  0  0  0  0  0
  152.9783  143.2083  161.5823 H   0  0  0  0  0  0  0  0  0  0  0  0
  151.5106  141.8135  160.1659 H   0  0  0  0  0  0  0  0  0  0  0  0
  153.0812  141.9532  159.3915 H   0  0  0  0  0  0  0  0  0  0  0  0
  149.3575  141.9382  154.8119 H   0  0  0  0  0  0  0  0  0  0  0  0
  149.9690  143.3574  156.5148 H   0  0  0  0  0  0  0  0  0  0  0  0
  1  2  1  0  0  0  0
  1 19  1  0  0  0  0
  1 20  1  0  0  0  0
  2  3  2  0  0  0  0
  2  4  2  0  0  0  0
  2  5  1  0  0  0  0
  5  6  1  0  0  0  0
  6  7  1  0  0  0  0
  6 21  1  0  0  0  0
  6 22  1  0  0  0  0
  7 18  1  0  0  0  0
  7  8  2  0  0  0  0
  8  9  1  0  0  0  0
  8 23  1  0  0  0  0
  9 10  2  0  0  0  0
  9 24  1  0  0  0  0
 10 11  1  0  0  0  0
 10 17  1  0  0  0  0
 11 16  1  0  0  0  0
 11 12  1  0  0  0  0
 12 13  1  0  0  0  0
 12 25  1  0  0  0  0
 12 26  1  0  0  0  0
 13 14  1  0  0  0  0
 13 27  1  0  0  0  0
 13 28  1  0  0  0  0
 14 15  1  0  0  0  0
 15 16  1  0  0  0  0
 15 29  1  0  0  0  0
 15 30  1  0  0  0  0
 16 31  1  0  0  0  0
 16 32  1  0  0  0  0
 17 18  2  0  0  0  0
 17 34  1  0  0  0  0
 18 33  1  0  0  0  0
M  CHG  1   5  -1
M  CHG  1  17   1
M  END
> <s_m_source_file>
AV-unprocessed.smi

> <i_m_source_file_index>
1507

> <i_lp_mmshare_version>
43012

> <i_f3d_flags>
0

> <s_epik_input>
W05IMl1TKD1PKSg9TylbTkhdW0NIMl1jMVtjSF1bY0hdYyhuW2NIXTEpTjJbQ0gyXVtDSDJdT1tDSDJdW0NIMl0y

> <s_epik_cmdline>
J2VwaWtfcHl0aG9uJywgJy1waCcsICc3LjAnLCAnLXRuJywgJzgnLCAnLW1hJywgJzIwMCcsICctbWV0YWxfYmluZGluZycsICctaW1hZScsICc8aW5maWxlLm1hZT4nLCAnLW9tYWUnLCAnPG91dGZpbGUubWFlPic=

> <r_epik_Ionization_Penalty>
1.53449

> <r_epik_Ionization_Penalty_Charging>
1.53276

> <r_epik_Ionization_Penalty_Neutral>
0.00173209

> <r_epik_State_Penalty>
2.14469

> <r_epik_Charging_Adjusted_Penalty>
3.67745

> <i_epik_Tot_Q>
0

> <i_epik_Tot_abs_Q>
2

> <r_epik_Metal_State_Penalty>
2.50812

> <b_epik_Metal_Only>
0

> <s_lp_Force_Field>
OPLS_2005

> <r_lp_Energy>
19.2824

> <b_lp_Chiralities_Consistent>
1

> <s_lp_Variant>
AV-unprocessed.smi:1507-3

> <Gold.Version>
5.8.1

> <Gold.Id.Protein>
6NUR|6NUR_protein|mol2

> <Gold.PLP.Fitness>
42.7748

> <Gold.PLP.PLP>
-32.9097

> <Gold.PLP.part.hbond>
-3.0000

> <Gold.PLP.part.metal>
0.0000

> <Gold.PLP.part.buried>
-5.6186

> <Gold.PLP.part.nonpolar>
-24.7680

> <Gold.PLP.part.repulsive>
0.6014

> <Gold.PLP.ligand.clash>
0.5480

> <Gold.PLP.ligand.torsion>
1.3113

> <Gold.PLP.Chemscore.Hbond>
4.0000

> <Gold.PLP.Chemscore.CHOScore>
0.0000

> <Gold.PLP.Chemscore.Metal>
0.0000

> <Gold.Chemscore.Hbonds>
donor molecule, donor type, donor heavy atom, donor atom, acceptor molecule, acceptor atom, score
      L1  H     1    19       P1  7948  1.00
      L1  H    17    34       P1  8028  2.00
      P1  H 10752 10765       L1     4  0.96

> <Gold.PLP.Chemscore.Internal.Correction>
1.0358

> <Gold.Rescore>
     Score         DG    S(hbond)    S(metal)    S(lipo)     H(rot)  DE(clash)    DE(int)     intcor
     18.02     -19.28       2.92        0.00      76.35       1.91       0.15       1.11       ----

> <Gold.Chemscore.Fitness>
18.0199

> <Gold.Chemscore.DG>
-19.2817

> <Gold.Chemscore.ZeroCoef>
-5.4800

> <Gold.Chemscore.Hbond>
2.9231

> <Gold.Chemscore.Metal>
0.0000

> <Gold.Chemscore.Lipo>
76.3546

> <Gold.Chemscore.Internal_Hbond>
0.0000

> <Gold.Chemscore.DEClash>
0.1522

> <Gold.Chemscore.DEInternal>
1.1096

> <Gold.Chemscore.Rot>
1.9121

> <Gold.Chemscore.Internal.Correction>
   9.000000E+99

> <Gold.Chemscore.Hbonds>
donor molecule, donor type, donor heavy atom, donor atom, acceptor molecule, acceptor atom, score
      L1  H     1    19       P1  7948  0.99
      L1  H    17    34       P1  8028  0.96
      P1  H 10752 10765       L1     4  0.81

> <Gold.Chemscore.Hbond.Weighted>
-9.7632

> <Gold.Chemscore.Metal.Weighted>
-0.0000

> <Gold.Chemscore.Lipo.Weighted>
-8.9335

> <Gold.Chemscore.Internal_Hbond.Weighted>
0.0000

> <Gold.Chemscore.DEClash.Weighted>
0.1522

> <Gold.Chemscore.DEInternal.Weighted>
1.1096

> <Gold.Chemscore.Rot.Weighted>
4.8950

> <Gold.Chemscore.Internal.Correction.Weighted>
   9.000000E+99

> <Gold.Protein.RotatedTorsions>
[ 6907 6896 6895 6894 ] final  -53.81 input  -60.11 | X-H torsion
[ 7974 7965 7964 7962 ] final  -59.41 input  175.53 | X-H torsion
[ 8008 7997 7996 7995 ] final  -54.86 input   59.86 | X-H torsion
[ 10167 10162 10161 10158 ] final -158.32 input  -65.29 | X-H torsion
[ 10718 10713 10712 10709 ] final -174.46 input   66.30 | X-H torsion
[ 10763 10752 10751 10750 ] final -167.90 input  -60.55 | X-H torsion
[ 11005 11000 10999 10996 ] final -171.94 input  -57.11 | X-H torsion

> <Gold.Protein.ActiveResidues>
 VAL166  LYS551  ARG553  GLY616  TRP617  ASP618  TYR619  PRO620  LYS621  CYS622 
 ASP623  PHE694  ASN695  SER759  ASP760  ASP761  ALA762  ILE779  LEU786  VAL792 
 PHE793  MET794  SER795  GLU796  ALA797  LYS798  CYS799  TRP800  GLU811  SER814 

> <Gold.Protein.RotatedAtoms>
  150.8393  134.7679  159.6919 H   0  0  0  0  0  0  0  0  0  0  0  0  # atno 6907 bound_to 6896
  152.4484  134.5443  159.9858 H   0  0  0  0  0  0  0  0  0  0  0  0  # atno 6908 bound_to 6896
  151.5586  133.3369  159.3002 H   0  0  0  0  0  0  0  0  0  0  0  0  # atno 6909 bound_to 6896
  145.8278  140.8499  143.0099 H   0  0  0  0  0  0  0  0  0  0  0  0  # atno 7974 bound_to 7965
  154.4176  140.1166  156.5383 H   0  0  0  0  0  0  0  0  0  0  0  0  # atno 8008 bound_to 7997
  155.6534  140.3496  155.4737 H   0  0  0  0  0  0  0  0  0  0  0  0  # atno 8009 bound_to 7997
  155.9773  140.1153  157.0748 H   0  0  0  0  0  0  0  0  0  0  0  0  # atno 8010 bound_to 7997
  139.6701  143.9760  152.2278 H   0  0  0  0  0  0  0  0  0  0  0  0  # atno 10167 bound_to 10162
  156.7854  130.9498  151.3120 H   0  0  0  0  0  0  0  0  0  0  0  0  # atno 10718 bound_to 10713
  154.6684  135.2935  154.9774 H   0  0  0  0  0  0  0  0  0  0  0  0  # atno 10763 bound_to 10752
  154.0810  135.6604  153.4842 H   0  0  0  0  0  0  0  0  0  0  0  0  # atno 10764 bound_to 10752
  153.0472  135.5197  154.7669 H   0  0  0  0  0  0  0  0  0  0  0  0  # atno 10765 bound_to 10752
  140.5025  134.5879  157.4992 H   0  0  0  0  0  0  0  0  0  0  0  0  # atno 11005 bound_to 11000
  144.6742  140.0627  143.7475 LP  0  0  0  0  0  0  0  0  0  0  0  0  # atno 17320 bound_to 7965
  145.9605  139.2797  143.1158 LP  0  0  0  0  0  0  0  0  0  0  0  0  # atno 17321 bound_to 7965
  139.9522  144.6613  150.8161 LP  0  0  0  0  0  0  0  0  0  0  0  0  # atno 17342 bound_to 10162
  140.7615  143.3175  151.2699 LP  0  0  0  0  0  0  0  0  0  0  0  0  # atno 17343 bound_to 10162
  157.6626  130.8979  149.9863 LP  0  0  0  0  0  0  0  0  0  0  0  0  # atno 17370 bound_to 10713
  156.1192  130.3646  149.9916 LP  0  0  0  0  0  0  0  0  0  0  0  0  # atno 17371 bound_to 10713
  139.9705  134.7301  156.0051 LP  0  0  0  0  0  0  0  0  0  0  0  0  # atno 17394 bound_to 11000
  141.1428  133.6561  156.3779 LP  0  0  0  0  0  0  0  0  0  0  0  0  # atno 17395 bound_to 11000

$$$$
