AV-unprocessed.smi:283|AV-procd|sdf|2128|dock3
  -GOLD-   2262021433D 1   1.00000     0.00000
 Structure written by MMmdl.
 48 51  0  0  0  0  0  0  0  0  1 V2000
  149.5324  142.4237  157.2198 C   0  0  0  0  0  0  0  0  0  0  0  0
  150.6101  141.4252  157.6626 C   0  0  1  0  0  0  0  0  0  0  0  0
  151.4273  141.0427  156.5132 N   0  0  0  0  0  0  0  0  0  0  0  0
  151.5008  139.7596  156.0947 C   0  0  0  0  0  0  0  0  0  0  0  0
  152.4069  139.5196  155.1184 N   0  0  0  0  0  0  0  0  0  0  0  0
  152.5702  138.2818  154.6475 C   0  0  0  0  0  0  0  0  0  0  0  0
  151.9403  137.1645  155.0096 N   0  0  0  0  0  0  0  0  0  0  0  0
  151.0182  137.3901  155.9902 C   0  0  0  0  0  0  0  0  0  0  0  0
  150.7303  138.6589  156.5747 C   0  0  0  0  0  0  0  0  0  0  0  0
  149.7143  138.5135  157.5100 N   0  0  0  0  0  0  0  0  0  0  0  0
  149.4395  137.2401  157.4933 C   0  0  0  0  0  0  0  0  0  0  0  0
  150.1875  136.4798  156.6226 N   0  0  0  0  0  0  0  0  0  0  0  0
  150.0733  134.9911  156.4220 C   0  0  1  0  0  0  0  0  0  0  0  0
  149.2289  134.4424  157.3896 O   0  0  0  0  0  0  0  0  0  0  0  0
  147.9655  134.0821  156.8238 C   0  0  2  0  0  0  0  0  0  0  0  0
  147.7156  132.5845  157.0857 C   0  0  0  0  0  0  0  0  0  0  0  0
  148.7252  131.7656  156.5312 O   0  0  0  0  0  0  0  0  0  0  0  0
  147.9873  134.5011  155.3435 C   0  0  1  0  0  0  0  0  0  0  0  0
  147.2947  135.7267  155.1843 O   0  0  0  0  0  0  0  0  0  0  0  0
  149.4768  134.6312  155.0497 C   0  0  1  0  0  0  0  0  0  0  0  0
  149.7668  135.5322  153.9939 O   0  0  0  0  0  0  0  0  0  0  0  0
  151.3940  141.9824  158.8549 C   0  0  0  0  0  0  0  0  0  0  0  0
  151.2418  143.3377  159.2314 C   0  0  0  0  0  0  0  0  0  0  0  0
  151.9597  143.8661  160.3205 C   0  0  0  0  0  0  0  0  0  0  0  0
  152.8329  143.0419  161.0524 C   0  0  0  0  0  0  0  0  0  0  0  0
  152.9810  141.6886  160.6974 C   0  0  0  0  0  0  0  0  0  0  0  0
  152.2644  141.1542  159.6079 C   0  0  0  0  0  0  0  0  0  0  0  0
  152.4761  139.4807  159.2270 Cl  0  0  0  0  0  0  0  0  0  0  0  0
  151.0955  134.6350  156.5548 H   0  0  0  0  0  0  0  0  0  0  0  0
  147.1892  134.6281  157.3616 H   0  0  0  0  0  0  0  0  0  0  0  0
  147.5114  133.7671  154.6922 H   0  0  0  0  0  0  0  0  0  0  0  0
  149.8703  133.6506  154.7801 H   0  0  0  0  0  0  0  0  0  0  0  0
  148.8518  142.6562  158.0394 H   0  0  0  0  0  0  0  0  0  0  0  0
  148.9345  142.0199  156.4022 H   0  0  0  0  0  0  0  0  0  0  0  0
  149.9747  143.3605  156.8788 H   0  0  0  0  0  0  0  0  0  0  0  0
  150.0908  140.5201  157.9732 H   0  0  0  0  0  0  0  0  0  0  0  0
  152.1120  141.7310  156.2359 H   0  0  0  0  0  0  0  0  0  0  0  0
  153.3148  138.1685  153.8735 H   0  0  0  0  0  0  0  0  0  0  0  0
  148.6806  136.8125  158.1322 H   0  0  0  0  0  0  0  0  0  0  0  0
  147.6346  132.3907  158.1556 H   0  0  0  0  0  0  0  0  0  0  0  0
  146.7668  132.2888  156.6372 H   0  0  0  0  0  0  0  0  0  0  0  0
  148.4849  130.8614  156.6663 H   0  0  0  0  0  0  0  0  0  0  0  0
  147.3907  136.0069  154.2868 H   0  0  0  0  0  0  0  0  0  0  0  0
  148.9696  135.7014  153.5162 H   0  0  0  0  0  0  0  0  0  0  0  0
  150.5742  143.9852  158.6823 H   0  0  0  0  0  0  0  0  0  0  0  0
  151.8393  144.9038  160.5946 H   0  0  0  0  0  0  0  0  0  0  0  0
  153.3850  143.4454  161.8885 H   0  0  0  0  0  0  0  0  0  0  0  0
  153.6473  141.0568  161.2661 H   0  0  0  0  0  0  0  0  0  0  0  0
  1  2  1  0  0  0  0
  1 33  1  0  0  0  0
  1 34  1  0  0  0  0
  1 35  1  0  0  0  0
  2  3  1  0  0  0  0
  2 22  1  0  0  0  0
  2 36  1  0  0  0  0
  3  4  1  0  0  0  0
  3 37  1  0  0  0  0
  4  9  1  0  0  0  0
  4  5  2  0  0  0  0
  5  6  1  0  0  0  0
  6  7  2  0  0  0  0
  6 38  1  0  0  0  0
  7  8  1  0  0  0  0
  8 12  1  0  0  0  0
  8  9  2  0  0  0  0
  9 10  1  0  0  0  0
 10 11  2  0  0  0  0
 11 12  1  0  0  0  0
 11 39  1  0  0  0  0
 12 13  1  0  0  0  0
 13 29  1  0  0  0  0
 13 20  1  0  0  0  0
 13 14  1  0  0  0  0
 14 15  1  0  0  0  0
 15 30  1  0  0  0  0
 15 16  1  0  0  0  0
 15 18  1  0  0  0  0
 16 17  1  0  0  0  0
 16 40  1  0  0  0  0
 16 41  1  0  0  0  0
 17 42  1  0  0  0  0
 18 31  1  0  0  0  0
 18 19  1  0  0  0  0
 18 20  1  0  0  0  0
 19 43  1  0  0  0  0
 20 32  1  0  0  0  0
 20 21  1  0  0  0  0
 21 44  1  0  0  0  0
 22 27  1  0  0  0  0
 22 23  2  0  0  0  0
 23 24  1  0  0  0  0
 23 45  1  0  0  0  0
 24 25  2  0  0  0  0
 24 46  1  0  0  0  0
 25 26  1  0  0  0  0
 25 47  1  0  0  0  0
 26 27  2  0  0  0  0
 26 48  1  0  0  0  0
 27 28  1  0  0  0  0
M  END
> <s_m_source_file>
AV-unprocessed.smi

> <i_m_source_file_index>
283

> <i_lp_mmshare_version>
43012

> <i_f3d_flags>
0

> <s_epik_input>
Q2xjMVtjSF1bY0hdW2NIXVtjSF1jMVtDQEhdKFtDSDNdKVtOSF1jKG5bY0hdbjIpYyhjMjMpbltjSF1uM1tDQEBIXTRPW0NASF0oW0NIMl1bT0hdKVtDQEBIXShbT0hdKVtDQEhdNFtPSF0=

> <s_epik_cmdline>
J2VwaWtfcHl0aG9uJywgJy1waCcsICc3LjAnLCAnLXRuJywgJzgnLCAnLW1hJywgJzIwMCcsICctbWV0YWxfYmluZGluZycsICctaW1hZScsICc8aW5maWxlLm1hZT4nLCAnLW9tYWUnLCAnPG91dGZpbGUubWFlPic=

> <r_lp_tautomer_probability>
1

> <r_epik_Ionization_Penalty>
0.000266407

> <r_epik_Ionization_Penalty_Charging>
0

> <r_epik_Ionization_Penalty_Neutral>
0.000266407

> <r_epik_State_Penalty>
-0

> <r_epik_Charging_Adjusted_Penalty>
0

> <i_epik_Tot_Q>
0

> <i_epik_Tot_abs_Q>
0

> <r_epik_Metal_State_Penalty>
-0

> <b_epik_Metal_Only>
0

> <s_epik_Chemistry_Notes>
This compound contains an acetal/aminal-like group ( X-CH(R)-Y where X, Y are N, S, or O) that may be acid/base labile, releasing an aldehyde.

> <s_lp_Force_Field>
OPLS_2005

> <r_lp_Energy>
53.7739

> <b_lp_Chiralities_Consistent>
1

> <s_lp_Variant>
AV-unprocessed.smi:283-4

> <Gold.Version>
5.8.1

> <Gold.Id.Protein>
6NUR|6NUR_protein|mol2

> <Gold.PLP.Fitness>
48.7204

> <Gold.PLP.PLP>
-38.9472

> <Gold.PLP.part.hbond>
-5.4864

> <Gold.PLP.part.metal>
0.0000

> <Gold.PLP.part.buried>
-3.2388

> <Gold.PLP.part.nonpolar>
-30.2885

> <Gold.PLP.part.repulsive>
0.2137

> <Gold.PLP.ligand.clash>
0.0000

> <Gold.PLP.ligand.torsion>
0.3441

> <Gold.PLP.Chemscore.Hbond>
3.3588

> <Gold.PLP.Chemscore.CHOScore>
0.0000

> <Gold.PLP.Chemscore.Metal>
0.0000

> <Gold.Chemscore.Hbonds>
donor molecule, donor type, donor heavy atom, donor atom, acceptor molecule, acceptor atom, score
      L1  H    21    44       P1  7948  0.43
      P1  H  7989  7998       L1     5  0.38
      P1  H  7997  8010       L1     5  0.39
      P1  H 10752 10763       L1     7  0.94

> <Gold.PLP.Chemscore.Internal.Correction>
0.3851

> <Gold.Rescore>
     Score         DG    S(hbond)    S(metal)    S(lipo)     H(rot)  DE(clash)    DE(int)     intcor
     10.72     -13.72       2.28        0.00      94.95       4.10       0.80       2.21       ----

> <Gold.Chemscore.Fitness>
10.7166

> <Gold.Chemscore.DG>
-13.7187

> <Gold.Chemscore.ZeroCoef>
-5.4800

> <Gold.Chemscore.Hbond>
2.2808

> <Gold.Chemscore.Metal>
0.0000

> <Gold.Chemscore.Lipo>
94.9460

> <Gold.Chemscore.Internal_Hbond>
0.0000

> <Gold.Chemscore.DEClash>
0.7958

> <Gold.Chemscore.DEInternal>
2.2063

> <Gold.Chemscore.Rot>
4.0968

> <Gold.Chemscore.Internal.Correction>
   9.000000E+99

> <Gold.Chemscore.Hbonds>
donor molecule, donor type, donor heavy atom, donor atom, acceptor molecule, acceptor atom, score
      L1  H    21    44       P1  7948  0.39
      P1  H  6896  6908       L1    14  0.02
      P1  H  7989  7998       L1     5  0.10
      P1  H  7997  8010       L1     5  0.12
      P1  H 10752 10763       L1     7  0.68

> <Gold.Chemscore.Hbond.Weighted>
-7.6179

> <Gold.Chemscore.Metal.Weighted>
-0.0000

> <Gold.Chemscore.Lipo.Weighted>
-11.1087

> <Gold.Chemscore.Internal_Hbond.Weighted>
0.0000

> <Gold.Chemscore.DEClash.Weighted>
0.7958

> <Gold.Chemscore.DEInternal.Weighted>
2.2063

> <Gold.Chemscore.Rot.Weighted>
10.4879

> <Gold.Chemscore.Internal.Correction.Weighted>
   9.000000E+99

> <Gold.Protein.RotatedTorsions>
[ 6907 6896 6895 6894 ] final  131.79 input  -60.11 | X-H torsion
[ 7974 7965 7964 7962 ] final -131.09 input  175.53 | X-H torsion
[ 8008 7997 7996 7995 ] final   96.58 input   59.86 | X-H torsion
[ 10167 10162 10161 10158 ] final -105.24 input  -65.29 | X-H torsion
[ 10718 10713 10712 10709 ] final   50.22 input   66.30 | X-H torsion
[ 10763 10752 10751 10750 ] final   52.62 input  -60.55 | X-H torsion
[ 11005 11000 10999 10996 ] final  -54.58 input  -57.11 | X-H torsion

> <Gold.Protein.ActiveResidues>
 VAL166  LYS551  ARG553  GLY616  TRP617  ASP618  TYR619  PRO620  LYS621  CYS622 
 ASP623  PHE694  ASN695  SER759  ASP760  ASP761  ALA762  ILE779  LEU786  VAL792 
 PHE793  MET794  SER795  GLU796  ALA797  LYS798  CYS799  TRP800  GLU811  SER814 

> <Gold.Protein.RotatedAtoms>
  152.3390  133.6045  159.5862 H   0  0  0  0  0  0  0  0  0  0  0  0  # atno 6907 bound_to 6896
  150.7467  133.9751  159.3567 H   0  0  0  0  0  0  0  0  0  0  0  0  # atno 6908 bound_to 6896
  151.7617  135.0809  160.0397 H   0  0  0  0  0  0  0  0  0  0  0  0  # atno 6909 bound_to 6896
  144.9413  140.7241  143.4845 H   0  0  0  0  0  0  0  0  0  0  0  0  # atno 7974 bound_to 7965
  156.0811  140.3270  155.7695 H   0  0  0  0  0  0  0  0  0  0  0  0  # atno 8008 bound_to 7997
  155.5150  140.0580  157.2934 H   0  0  0  0  0  0  0  0  0  0  0  0  # atno 8009 bound_to 7997
  154.4583  140.1954  156.0334 H   0  0  0  0  0  0  0  0  0  0  0  0  # atno 8010 bound_to 7997
  140.2007  143.3821  152.1132 H   0  0  0  0  0  0  0  0  0  0  0  0  # atno 10167 bound_to 10162
  157.4864  130.8348  149.8151 H   0  0  0  0  0  0  0  0  0  0  0  0  # atno 10718 bound_to 10713
  152.9790  135.5806  154.4608 H   0  0  0  0  0  0  0  0  0  0  0  0  # atno 10763 bound_to 10752
  154.4184  135.2771  155.1993 H   0  0  0  0  0  0  0  0  0  0  0  0  # atno 10764 bound_to 10752
  154.3753  135.6159  153.5815 H   0  0  0  0  0  0  0  0  0  0  0  0  # atno 10765 bound_to 10752
  141.1033  133.6616  156.4342 H   0  0  0  0  0  0  0  0  0  0  0  0  # atno 11005 bound_to 11000
  145.2987  139.1858  143.4701 LP  0  0  0  0  0  0  0  0  0  0  0  0  # atno 17320 bound_to 7965
  146.3286  140.2975  142.8619 LP  0  0  0  0  0  0  0  0  0  0  0  0  # atno 17321 bound_to 7965
  139.5218  144.7051  151.5378 LP  0  0  0  0  0  0  0  0  0  0  0  0  # atno 17342 bound_to 10162
  140.6392  143.8923  150.6676 LP  0  0  0  0  0  0  0  0  0  0  0  0  # atno 17343 bound_to 10162
  156.0149  130.3818  150.2143 LP  0  0  0  0  0  0  0  0  0  0  0  0  # atno 17370 bound_to 10713
  157.0331  131.0013  151.3306 LP  0  0  0  0  0  0  0  0  0  0  0  0  # atno 17371 bound_to 10713
  140.4968  134.6524  157.5233 LP  0  0  0  0  0  0  0  0  0  0  0  0  # atno 17394 bound_to 11000
  139.9892  134.7012  155.9719 LP  0  0  0  0  0  0  0  0  0  0  0  0  # atno 17395 bound_to 11000

$$$$
