AV-unprocessed.smi:957|AV-procd|sdf|4266|dock10
  -GOLD-   22720 2173D 1   1.00000     0.00000
 Structure written by MMmdl.
 30 31  0  0  0  0  0  0  0  0  2 V2000
  152.7967  142.9457  160.8926 C   0  0  0  0  0  0  0  0  0  0  0  0
  152.0972  142.8014  159.5354 C   0  0  0  0  0  0  0  0  0  0  0  0
  152.4738  141.5706  158.8620 N   0  0  0  0  0  0  0  0  0  0  0  0
  153.4282  140.6968  159.2179 C   0  0  0  0  0  0  0  0  0  0  0  0
  153.5619  139.6457  158.4114 N   0  0  0  0  0  0  0  0  0  0  0  0
  152.6117  139.8388  157.4308 N   0  0  0  0  0  0  0  0  0  0  0  0
  151.9929  140.9854  157.7425 C   0  0  0  0  0  0  0  0  0  0  0  0
  150.8809  141.5680  156.9146 C   0  0  1  0  0  0  0  0  0  0  0  0
  150.6510  140.7707  155.6163 C   0  0  0  0  0  0  0  0  0  0  0  0
  149.4993  141.3835  154.8050 C   0  0  0  0  0  0  0  0  0  0  0  0
  148.2265  141.4983  155.6598 C   0  0  0  0  0  0  0  0  0  0  0  0
  148.4914  142.2746  156.8906 N   0  3  0  0  0  0  0  0  0  0  0  0
  149.5708  141.6938  157.7196 C   0  0  0  0  0  0  0  0  0  0  0  0
  152.4923  143.8677  161.3882 H   0  0  0  0  0  0  0  0  0  0  0  0
  153.8809  142.9702  160.7844 H   0  0  0  0  0  0  0  0  0  0  0  0
  152.5456  142.1156  161.5536 H   0  0  0  0  0  0  0  0  0  0  0  0
  151.0156  142.8033  159.6754 H   0  0  0  0  0  0  0  0  0  0  0  0
  152.3254  143.6480  158.8877 H   0  0  0  0  0  0  0  0  0  0  0  0
  154.0457  140.8332  160.0937 H   0  0  0  0  0  0  0  0  0  0  0  0
  151.1662  142.5769  156.6192 H   0  0  0  0  0  0  0  0  0  0  0  0
  151.5611  140.7548  155.0156 H   0  0  0  0  0  0  0  0  0  0  0  0
  150.4150  139.7320  155.8517 H   0  0  0  0  0  0  0  0  0  0  0  0
  149.7896  142.3712  154.4437 H   0  0  0  0  0  0  0  0  0  0  0  0
  149.3019  140.7769  153.9206 H   0  0  0  0  0  0  0  0  0  0  0  0
  147.4328  141.9869  155.0941 H   0  0  0  0  0  0  0  0  0  0  0  0
  147.8612  140.5071  155.9321 H   0  0  0  0  0  0  0  0  0  0  0  0
  148.7569  143.2128  156.6276 H   0  0  0  0  0  0  0  0  0  0  0  0
  149.2476  140.7182  158.0855 H   0  0  0  0  0  0  0  0  0  0  0  0
  149.7221  142.3276  158.5939 H   0  0  0  0  0  0  0  0  0  0  0  0
  147.6446  142.3175  157.4398 H   0  0  0  0  0  0  0  0  0  0  0  0
  1  2  1  0  0  0  0
  1 14  1  0  0  0  0
  1 15  1  0  0  0  0
  1 16  1  0  0  0  0
  2  3  1  0  0  0  0
  2 17  1  0  0  0  0
  2 18  1  0  0  0  0
  3  7  1  0  0  0  0
  3  4  1  0  0  0  0
  4  5  2  0  0  0  0
  4 19  1  0  0  0  0
  5  6  1  0  0  0  0
  6  7  2  0  0  0  0
  7  8  1  0  0  0  0
  8 13  1  0  0  0  0
  8  9  1  0  0  0  0
  8 20  1  0  0  0  0
  9 10  1  0  0  0  0
  9 21  1  0  0  0  0
  9 22  1  0  0  0  0
 10 11  1  0  0  0  0
 10 23  1  0  0  0  0
 10 24  1  0  0  0  0
 11 12  1  0  0  0  0
 11 25  1  0  0  0  0
 11 26  1  0  0  0  0
 12 13  1  0  0  0  0
 12 27  1  0  0  0  0
 12 30  1  0  0  0  0
 13 28  1  0  0  0  0
 13 29  1  0  0  0  0
M  CHG  1  12   1
M  END
> <s_m_source_file>
AV-unprocessed.smi

> <i_m_source_file_index>
957

> <i_lp_mmshare_version>
43012

> <i_f3d_flags>
0

> <s_epik_input>
W0NIM11bQ0gyXW4xW2NIXW5uYzFbQ0BASF0yW0NIMl1bQ0gyXVtDSDJdW05IXVtDSDJdMg==

> <s_epik_cmdline>
J2VwaWtfcHl0aG9uJywgJy1waCcsICc3LjAnLCAnLXRuJywgJzgnLCAnLW1hJywgJzIwMCcsICctbWV0YWxfYmluZGluZycsICctaW1hZScsICc8aW5maWxlLm1hZT4nLCAnLW9tYWUnLCAnPG91dGZpbGUubWFlPic=

> <r_lp_tautomer_probability>
1

> <r_epik_Ionization_Penalty>
0.000442722

> <r_epik_Ionization_Penalty_Charging>
0.000426856

> <r_epik_Ionization_Penalty_Neutral>
1.58656e-05

> <r_epik_State_Penalty>
-0

> <r_epik_Charging_Adjusted_Penalty>
0.000426856

> <i_epik_Tot_Q>
1

> <i_epik_Tot_abs_Q>
1

> <r_epik_Metal_State_Penalty>
-0

> <b_epik_Metal_Only>
0

> <s_lp_Force_Field>
OPLS_2005

> <r_lp_Energy>
16.0383

> <b_lp_Chiralities_Consistent>
1

> <s_lp_Variant>
AV-unprocessed.smi:957-2

> <Gold.Version>
5.8.1

> <Gold.Id.Protein>
6NUR|6NUR_protein|mol2

> <Gold.PLP.Fitness>
34.8742

> <Gold.PLP.PLP>
-26.9310

> <Gold.PLP.part.hbond>
-3.0000

> <Gold.PLP.part.metal>
0.0000

> <Gold.PLP.part.buried>
-1.8019

> <Gold.PLP.part.nonpolar>
-21.8704

> <Gold.PLP.part.repulsive>
0.0082

> <Gold.PLP.ligand.clash>
0.0000

> <Gold.PLP.ligand.torsion>
0.1038

> <Gold.PLP.Chemscore.Hbond>
2.7080

> <Gold.PLP.Chemscore.CHOScore>
0.0000

> <Gold.PLP.Chemscore.Metal>
0.0000

> <Gold.Chemscore.Hbonds>
donor molecule, donor type, donor heavy atom, donor atom, acceptor molecule, acceptor atom, score
      L1  H    12    27       P1  8028  2.00
      P1  H  7997  8009       L1     5  0.62

> <Gold.PLP.Chemscore.Internal.Correction>
0.0267

> <Gold.Rescore>
     Score         DG    S(hbond)    S(metal)    S(lipo)     H(rot)  DE(clash)    DE(int)     intcor
     11.83     -12.06       1.04        0.00      54.10       1.26       0.03       0.19       ----

> <Gold.Chemscore.Fitness>
11.8310

> <Gold.Chemscore.DG>
-12.0573

> <Gold.Chemscore.ZeroCoef>
-5.4800

> <Gold.Chemscore.Hbond>
1.0380

> <Gold.Chemscore.Metal>
0.0000

> <Gold.Chemscore.Lipo>
54.0954

> <Gold.Chemscore.Internal_Hbond>
0.0000

> <Gold.Chemscore.DEClash>
0.0320

> <Gold.Chemscore.DEInternal>
0.1943

> <Gold.Chemscore.Rot>
1.2573

> <Gold.Chemscore.Internal.Correction>
   9.000000E+99

> <Gold.Chemscore.Hbonds>
donor molecule, donor type, donor heavy atom, donor atom, acceptor molecule, acceptor atom, score
      L1  H    12    27       P1  8028  0.85
      P1  H  7997  8009       L1     5  0.03

> <Gold.Chemscore.Hbond.Weighted>
-3.4669

> <Gold.Chemscore.Metal.Weighted>
-0.0000

> <Gold.Chemscore.Lipo.Weighted>
-6.3292

> <Gold.Chemscore.Internal_Hbond.Weighted>
0.0000

> <Gold.Chemscore.DEClash.Weighted>
0.0320

> <Gold.Chemscore.DEInternal.Weighted>
0.1943

> <Gold.Chemscore.Rot.Weighted>
3.2188

> <Gold.Chemscore.Internal.Correction.Weighted>
   9.000000E+99

> <Gold.Protein.RotatedTorsions>
[ 6907 6896 6895 6894 ] final -117.18 input  -60.11 | X-H torsion
[ 7974 7965 7964 7962 ] final  170.78 input  175.53 | X-H torsion
[ 8008 7997 7996 7995 ] final  127.81 input   59.86 | X-H torsion
[ 10167 10162 10161 10158 ] final  170.56 input  -65.29 | X-H torsion
[ 10718 10713 10712 10709 ] final  -22.58 input   66.30 | X-H torsion
[ 10763 10752 10751 10750 ] final   -2.17 input  -60.55 | X-H torsion
[ 11005 11000 10999 10996 ] final   37.61 input  -57.11 | X-H torsion

> <Gold.Protein.ActiveResidues>
 VAL166  LYS551  ARG553  GLY616  TRP617  ASP618  TYR619  PRO620  LYS621  CYS622 
 ASP623  PHE694  ASN695  SER759  ASP760  ASP761  ALA762  ILE779  LEU786  VAL792 
 PHE793  MET794  SER795  GLU796  ALA797  LYS798  CYS799  TRP800  GLU811  SER814 

> <Gold.Protein.RotatedAtoms>
  150.8116  133.8412  159.3179 H   0  0  0  0  0  0  0  0  0  0  0  0  # atno 6907 bound_to 6896
  151.6196  135.1031  160.0108 H   0  0  0  0  0  0  0  0  0  0  0  0  # atno 6908 bound_to 6896
  152.4208  133.7072  159.6515 H   0  0  0  0  0  0  0  0  0  0  0  0  # atno 6909 bound_to 6896
  144.7313  139.9253  143.6422 H   0  0  0  0  0  0  0  0  0  0  0  0  # atno 7974 bound_to 7965
  156.2900  140.2660  156.2334 H   0  0  0  0  0  0  0  0  0  0  0  0  # atno 8008 bound_to 7997
  155.0049  140.0387  157.2394 H   0  0  0  0  0  0  0  0  0  0  0  0  # atno 8009 bound_to 7997
  154.7568  140.2753  155.6251 H   0  0  0  0  0  0  0  0  0  0  0  0  # atno 8010 bound_to 7997
  139.5022  144.3583  151.9851 H   0  0  0  0  0  0  0  0  0  0  0  0  # atno 10167 bound_to 10162
  156.5026  130.4591  149.6693 H   0  0  0  0  0  0  0  0  0  0  0  0  # atno 10718 bound_to 10713
  153.3544  135.6987  153.6762 H   0  0  0  0  0  0  0  0  0  0  0  0  # atno 10763 bound_to 10752
  153.5476  135.3560  155.2746 H   0  0  0  0  0  0  0  0  0  0  0  0  # atno 10764 bound_to 10752
  154.8658  135.4218  154.2787 H   0  0  0  0  0  0  0  0  0  0  0  0  # atno 10765 bound_to 10752
  140.2208  134.3643  155.8006 H   0  0  0  0  0  0  0  0  0  0  0  0  # atno 11005 bound_to 11000
  146.0898  139.3888  143.0412 LP  0  0  0  0  0  0  0  0  0  0  0  0  # atno 17320 bound_to 7965
  145.7726  140.9890  143.1141 LP  0  0  0  0  0  0  0  0  0  0  0  0  # atno 17321 bound_to 7965
  140.3020  144.3636  150.6057 LP  0  0  0  0  0  0  0  0  0  0  0  0  # atno 17342 bound_to 10162
  140.5866  143.2170  151.7330 LP  0  0  0  0  0  0  0  0  0  0  0  0  # atno 17343 bound_to 10162
  156.3318  130.7335  151.2266 LP  0  0  0  0  0  0  0  0  0  0  0  0  # atno 17370 bound_to 10713
  157.7461  131.0427  150.4710 LP  0  0  0  0  0  0  0  0  0  0  0  0  # atno 17371 bound_to 10713
  141.2223  133.7192  156.8572 LP  0  0  0  0  0  0  0  0  0  0  0  0  # atno 17394 bound_to 11000
  140.1852  134.9005  157.2995 LP  0  0  0  0  0  0  0  0  0  0  0  0  # atno 17395 bound_to 11000

$$$$
