AV-unprocessed.smi:3154|AV-procd|sdf|12021|dock8
  -GOLD-   2272017433D 1   1.00000     0.00000
 Structure written by MMmdl.
 35 36  0  0  0  0  0  0  0  0  2 V2000
  144.1540  136.1232  152.0258 C   0  0  0  0  0  0  0  0  0  0  0  0
  145.6114  135.9335  151.5729 C   0  0  2  0  0  0  0  0  0  0  0  0
  146.0811  134.4652  151.6982 C   0  0  0  0  0  0  0  0  0  0  0  0
  145.3745  133.5646  150.8053 N   0  0  0  0  0  0  0  0  0  0  0  0
  145.8943  132.5955  149.9729 C   0  0  0  0  0  0  0  0  0  0  0  0
  144.8444  132.0181  149.3180 C   0  0  0  0  0  0  0  0  0  0  0  0
  143.7089  132.7145  149.8181 C   0  0  0  0  0  0  0  0  0  0  0  0
  144.0302  133.6426  150.7050 N   0  0  0  0  0  0  0  0  0  0  0  0
  146.4875  136.8395  152.3481 N   0  3  0  0  0  0  0  0  0  0  0  0
  146.0853  138.2634  152.3480 C   0  0  0  0  0  0  0  0  0  0  0  0
  147.1748  139.1734  152.9180 C   0  0  0  0  0  0  0  0  0  0  0  0
  146.9329  140.3510  153.1862 O   0  0  0  0  0  0  0  0  0  0  0  0
  148.3740  138.6033  153.1052 N   0  0  0  0  0  0  0  0  0  0  0  0
  149.5280  139.2541  153.6365 C   0  0  0  0  0  0  0  0  0  0  0  0
  150.2300  138.5999  154.8067 C   0  0  0  0  0  0  0  0  0  0  0  0
  149.4204  139.8481  155.0245 C   0  0  0  0  0  0  0  0  0  0  0  0
  143.4643  135.5407  151.4143 H   0  0  0  0  0  0  0  0  0  0  0  0
  143.8511  137.1676  151.9439 H   0  0  0  0  0  0  0  0  0  0  0  0
  144.0178  135.8177  153.0637 H   0  0  0  0  0  0  0  0  0  0  0  0
  145.6661  136.2360  150.5259 H   0  0  0  0  0  0  0  0  0  0  0  0
  147.1454  134.3735  151.4812 H   0  0  0  0  0  0  0  0  0  0  0  0
  145.9415  134.1132  152.7213 H   0  0  0  0  0  0  0  0  0  0  0  0
  146.9547  132.3980  149.9162 H   0  0  0  0  0  0  0  0  0  0  0  0
  144.8812  131.2212  148.5901 H   0  0  0  0  0  0  0  0  0  0  0  0
  142.6686  132.5752  149.5632 H   0  0  0  0  0  0  0  0  0  0  0  0
  146.4781  136.5303  153.3096 H   0  0  0  0  0  0  0  0  0  0  0  0
  145.8621  138.5923  151.3334 H   0  0  0  0  0  0  0  0  0  0  0  0
  145.1761  138.3826  152.9387 H   0  0  0  0  0  0  0  0  0  0  0  0
  148.4789  137.6298  152.8580 H   0  0  0  0  0  0  0  0  0  0  0  0
  150.1654  139.7934  152.9370 H   0  0  0  0  0  0  0  0  0  0  0  0
  149.8234  137.6652  155.1880 H   0  0  0  0  0  0  0  0  0  0  0  0
  151.3135  138.6893  154.8550 H   0  0  0  0  0  0  0  0  0  0  0  0
  149.9635  140.7707  155.2198 H   0  0  0  0  0  0  0  0  0  0  0  0
  148.4738  139.7456  155.5516 H   0  0  0  0  0  0  0  0  0  0  0  0
  147.4330  136.7626  152.0016 H   0  0  0  0  0  0  0  0  0  0  0  0
  1  2  1  0  0  0  0
  1 17  1  0  0  0  0
  1 18  1  0  0  0  0
  1 19  1  0  0  0  0
  2  3  1  0  0  0  0
  2  9  1  0  0  0  0
  2 20  1  0  0  0  0
  3  4  1  0  0  0  0
  3 21  1  0  0  0  0
  3 22  1  0  0  0  0
  4  8  1  0  0  0  0
  4  5  1  0  0  0  0
  5  6  2  0  0  0  0
  5 23  1  0  0  0  0
  6  7  1  0  0  0  0
  6 24  1  0  0  0  0
  7  8  2  0  0  0  0
  7 25  1  0  0  0  0
  9 10  1  0  0  0  0
  9 26  1  0  0  0  0
  9 35  1  0  0  0  0
 10 11  1  0  0  0  0
 10 27  1  0  0  0  0
 10 28  1  0  0  0  0
 11 12  2  0  0  0  0
 11 13  1  0  0  0  0
 13 14  1  0  0  0  0
 13 29  1  0  0  0  0
 14 16  1  0  0  0  0
 14 15  1  0  0  0  0
 14 30  1  0  0  0  0
 15 16  1  0  0  0  0
 15 31  1  0  0  0  0
 15 32  1  0  0  0  0
 16 33  1  0  0  0  0
 16 34  1  0  0  0  0
M  CHG  1   9   1
M  END
> <s_m_source_file>
AV-unprocessed.smi

> <i_m_source_file_index>
3154

> <i_lp_mmshare_version>
43012

> <i_f3d_flags>
0

> <s_epik_input>
bjFbY0hdW2NIXVtjSF1uMVtDSDJdW0NAQEhdKFtDSDNdKVtOSF1bQ0gyXUMoPU8pW05IXVtDSF0yW0NIMl1bQ0gyXTI=

> <s_epik_cmdline>
J2VwaWtfcHl0aG9uJywgJy1waCcsICc3LjAnLCAnLXRuJywgJzgnLCAnLW1hJywgJzIwMCcsICctbWV0YWxfYmluZGluZycsICctaW1hZScsICc8aW5maWxlLm1hZT4nLCAnLW9tYWUnLCAnPG91dGZpbGUubWFlPic=

> <r_lp_tautomer_probability>
1

> <r_epik_Ionization_Penalty>
0.12065

> <r_epik_Ionization_Penalty_Charging>
0.120646

> <r_epik_Ionization_Penalty_Neutral>
4.1343e-06

> <r_epik_State_Penalty>
0.110186

> <r_epik_Charging_Adjusted_Penalty>
0.230832

> <i_epik_Tot_Q>
1

> <i_epik_Tot_abs_Q>
1

> <r_epik_Metal_State_Penalty>
0.110197

> <b_epik_Metal_Only>
0

> <s_lp_Force_Field>
OPLS_2005

> <r_lp_Energy>
15.3848

> <b_lp_Chiralities_Consistent>
1

> <s_lp_Variant>
AV-unprocessed.smi:3154-1

> <Gold.Version>
5.8.1

> <Gold.Id.Protein>
6NUR|6NUR_protein|mol2

> <Gold.PLP.Fitness>
43.6752

> <Gold.PLP.PLP>
-28.9576

> <Gold.PLP.part.hbond>
-3.0000

> <Gold.PLP.part.metal>
0.0000

> <Gold.PLP.part.buried>
0.5838

> <Gold.PLP.part.nonpolar>
-28.7853

> <Gold.PLP.part.repulsive>
0.4803

> <Gold.PLP.ligand.clash>
0.0000

> <Gold.PLP.ligand.torsion>
0.3707

> <Gold.PLP.Chemscore.Hbond>
3.0000

> <Gold.PLP.Chemscore.CHOScore>
2.1369

> <Gold.PLP.Chemscore.Metal>
0.0000

> <Gold.Chemscore.Hbonds>
donor molecule, donor type, donor heavy atom, donor atom, acceptor molecule, acceptor atom, score
      L1  H     9    35       P1  7948  2.00
      L1  H    13    29       P1  7948  1.00
      L1  C     5    23       P1 10747  0.94
      L1  C     7    25       P1 10186  0.88
      L1  C     7    25       P1 10952  0.11

> <Gold.PLP.Chemscore.Internal.Correction>
0.0484

> <Gold.Rescore>
     Score         DG    S(hbond)    S(metal)    S(lipo)     H(rot)  DE(clash)    DE(int)     intcor
     11.99     -14.66       1.95        0.00      70.95       2.20       0.89       1.77       ----

> <Gold.Chemscore.Fitness>
11.9940

> <Gold.Chemscore.DG>
-14.6626

> <Gold.Chemscore.ZeroCoef>
-5.4800

> <Gold.Chemscore.Hbond>
1.9534

> <Gold.Chemscore.Metal>
0.0000

> <Gold.Chemscore.Lipo>
70.9485

> <Gold.Chemscore.Internal_Hbond>
0.0000

> <Gold.Chemscore.DEClash>
0.8949

> <Gold.Chemscore.DEInternal>
1.7738

> <Gold.Chemscore.Rot>
2.2042

> <Gold.Chemscore.Internal.Correction>
   9.000000E+99

> <Gold.Chemscore.Hbonds>
donor molecule, donor type, donor heavy atom, donor atom, acceptor molecule, acceptor atom, score
      L1  H     9    35       P1  7948  0.98
      L1  H    13    29       P1  7948  0.99

> <Gold.Chemscore.Hbond.Weighted>
-6.5243

> <Gold.Chemscore.Metal.Weighted>
-0.0000

> <Gold.Chemscore.Lipo.Weighted>
-8.3010

> <Gold.Chemscore.Internal_Hbond.Weighted>
0.0000

> <Gold.Chemscore.DEClash.Weighted>
0.8949

> <Gold.Chemscore.DEInternal.Weighted>
1.7738

> <Gold.Chemscore.Rot.Weighted>
5.6427

> <Gold.Chemscore.Internal.Correction.Weighted>
   9.000000E+99

> <Gold.Protein.RotatedTorsions>
[ 6907 6896 6895 6894 ] final   83.23 input  -60.11 | X-H torsion
[ 7974 7965 7964 7962 ] final  -23.92 input  175.53 | X-H torsion
[ 8008 7997 7996 7995 ] final   78.68 input   59.86 | X-H torsion
[ 10167 10162 10161 10158 ] final  -43.01 input  -65.29 | X-H torsion
[ 10718 10713 10712 10709 ] final -138.14 input   66.30 | X-H torsion
[ 10763 10752 10751 10750 ] final -176.81 input  -60.55 | X-H torsion
[ 11005 11000 10999 10996 ] final   -3.53 input  -57.11 | X-H torsion

> <Gold.Protein.ActiveResidues>
 VAL166  LYS551  ARG553  GLY616  TRP617  ASP618  TYR619  PRO620  LYS621  CYS622 
 ASP623  PHE694  ASN695  SER759  ASP760  ASP761  ALA762  ILE779  LEU786  VAL792 
 PHE793  MET794  SER795  GLU796  ALA797  LYS798  CYS799  TRP800  GLU811  SER814 

> <Gold.Protein.RotatedAtoms>
  152.5321  134.2927  159.9048 H   0  0  0  0  0  0  0  0  0  0  0  0  # atno 6907 bound_to 6896
  151.2879  133.4172  159.2639 H   0  0  0  0  0  0  0  0  0  0  0  0  # atno 6908 bound_to 6896
  151.0226  134.9496  159.8125 H   0  0  0  0  0  0  0  0  0  0  0  0  # atno 6909 bound_to 6896
  146.1587  140.4681  142.8580 H   0  0  0  0  0  0  0  0  0  0  0  0  # atno 7974 bound_to 7965
  155.8590  140.3454  155.5744 H   0  0  0  0  0  0  0  0  0  0  0  0  # atno 8008 bound_to 7997
  155.7954  140.0877  157.2006 H   0  0  0  0  0  0  0  0  0  0  0  0  # atno 8009 bound_to 7997
  154.4011  140.1475  156.3199 H   0  0  0  0  0  0  0  0  0  0  0  0  # atno 8010 bound_to 7997
  140.6949  143.3006  151.3291 H   0  0  0  0  0  0  0  0  0  0  0  0  # atno 10167 bound_to 10162
  156.2960  130.7402  151.1441 H   0  0  0  0  0  0  0  0  0  0  0  0  # atno 10718 bound_to 10713
  154.5678  135.2825  155.0856 H   0  0  0  0  0  0  0  0  0  0  0  0  # atno 10763 bound_to 10752
  154.2240  135.6386  153.5157 H   0  0  0  0  0  0  0  0  0  0  0  0  # atno 10764 bound_to 10752
  153.0048  135.5521  154.6293 H   0  0  0  0  0  0  0  0  0  0  0  0  # atno 10765 bound_to 10752
  140.6704  133.9242  155.8491 H   0  0  0  0  0  0  0  0  0  0  0  0  # atno 11005 bound_to 11000
  144.7997  140.6190  143.6486 LP  0  0  0  0  0  0  0  0  0  0  0  0  # atno 17320 bound_to 7965
  145.4644  139.1509  143.3849 LP  0  0  0  0  0  0  0  0  0  0  0  0  # atno 17321 bound_to 7965
  139.6393  144.0571  152.2541 LP  0  0  0  0  0  0  0  0  0  0  0  0  # atno 17342 bound_to 10162
  140.0071  144.6251  150.7679 LP  0  0  0  0  0  0  0  0  0  0  0  0  # atno 17343 bound_to 10162
  157.7355  131.0571  150.5464 LP  0  0  0  0  0  0  0  0  0  0  0  0  # atno 17370 bound_to 10713
  156.5586  130.4249  149.6074 LP  0  0  0  0  0  0  0  0  0  0  0  0  # atno 17371 bound_to 10713
  141.0397  134.0639  157.3917 LP  0  0  0  0  0  0  0  0  0  0  0  0  # atno 17394 bound_to 11000
  139.8983  135.0154  156.7144 LP  0  0  0  0  0  0  0  0  0  0  0  0  # atno 17395 bound_to 11000

$$$$
