AV-unprocessed.smi:3188|AV-procd|sdf|12183|dock10
  -GOLD-   2272018 23D 1   1.00000     0.00000
 Structure written by MMmdl.
 40 41  0  0  0  0  0  0  0  0  2 V2000
  151.4811  143.4794  157.0325 C   0  0  0  0  0  0  0  0  0  0  0  0
  151.8569  143.4490  158.5050 C   0  0  0  0  0  0  0  0  0  0  0  0
  151.6164  144.5111  159.2991 C   0  0  0  0  0  0  0  0  0  0  0  0
  152.0055  144.6042  160.7641 C   0  0  0  0  0  0  0  0  0  0  0  0
  152.5467  143.2813  161.3306 C   0  0  0  0  0  0  0  0  0  0  0  0
  153.3990  142.5313  160.2923 C   0  0  1  0  0  0  0  0  0  0  0  0
  154.1396  141.3322  160.9094 C   0  0  0  0  0  0  0  0  0  0  0  0
  152.5624  142.1894  159.0265 C   0  0  1  0  0  0  0  0  0  0  0  0
  151.5763  141.0131  159.2535 C   0  0  0  0  0  0  0  0  0  0  0  0
  151.4010  140.1667  158.0569 N   0  3  0  0  0  0  0  0  0  0  0  0
  152.5837  139.3526  157.7169 C   0  0  0  0  0  0  0  0  0  0  0  0
  152.1912  138.1445  156.8547 C   0  0  0  0  0  0  0  0  0  0  0  0
  151.4437  138.5443  155.6783 N   0  0  0  0  0  0  0  0  0  0  0  0
  150.8847  137.7466  154.7013 C   0  0  0  0  0  0  0  0  0  0  0  0
  150.3100  138.6458  153.8487 C   0  0  0  0  0  0  0  0  0  0  0  0
  150.5396  139.9318  154.3348 N   0  0  0  0  0  0  0  0  0  0  0  0
  151.2240  139.8580  155.4327 N   0  0  0  0  0  0  0  0  0  0  0  0
  152.3213  143.1595  156.4157 H   0  0  0  0  0  0  0  0  0  0  0  0
  151.2079  144.4879  156.7197 H   0  0  0  0  0  0  0  0  0  0  0  0
  150.6283  142.8359  156.8234 H   0  0  0  0  0  0  0  0  0  0  0  0
  151.1411  145.3895  158.8869 H   0  0  0  0  0  0  0  0  0  0  0  0
  152.7693  145.3779  160.8491 H   0  0  0  0  0  0  0  0  0  0  0  0
  151.1495  144.9415  161.3488 H   0  0  0  0  0  0  0  0  0  0  0  0
  153.1311  143.4868  162.2282 H   0  0  0  0  0  0  0  0  0  0  0  0
  151.7160  142.6517  161.6505 H   0  0  0  0  0  0  0  0  0  0  0  0
  154.1804  143.2224  159.9708 H   0  0  0  0  0  0  0  0  0  0  0  0
  153.4577  140.6365  161.3984 H   0  0  0  0  0  0  0  0  0  0  0  0
  154.8501  141.6668  161.6658 H   0  0  0  0  0  0  0  0  0  0  0  0
  154.7021  140.7839  160.1533 H   0  0  0  0  0  0  0  0  0  0  0  0
  153.2753  141.8818  158.2598 H   0  0  0  0  0  0  0  0  0  0  0  0
  151.9338  140.3598  160.0482 H   0  0  0  0  0  0  0  0  0  0  0  0
  150.6024  141.3915  159.5658 H   0  0  0  0  0  0  0  0  0  0  0  0
  150.6205  139.5462  158.2184 H   0  0  0  0  0  0  0  0  0  0  0  0
  153.3062  139.9719  157.1834 H   0  0  0  0  0  0  0  0  0  0  0  0
  153.0631  139.0181  158.6383 H   0  0  0  0  0  0  0  0  0  0  0  0
  153.0787  137.5968  156.5333 H   0  0  0  0  0  0  0  0  0  0  0  0
  151.5808  137.4485  157.4319 H   0  0  0  0  0  0  0  0  0  0  0  0
  150.9413  136.6680  154.6970 H   0  0  0  0  0  0  0  0  0  0  0  0
  149.7568  138.4774  152.9363 H   0  0  0  0  0  0  0  0  0  0  0  0
  151.1828  140.7630  157.2713 H   0  0  0  0  0  0  0  0  0  0  0  0
  1  2  1  0  0  0  0
  1 18  1  0  0  0  0
  1 19  1  0  0  0  0
  1 20  1  0  0  0  0
  2  8  1  0  0  0  0
  2  3  2  0  0  0  0
  3  4  1  0  0  0  0
  3 21  1  0  0  0  0
  4  5  1  0  0  0  0
  4 22  1  0  0  0  0
  4 23  1  0  0  0  0
  5  6  1  0  0  0  0
  5 24  1  0  0  0  0
  5 25  1  0  0  0  0
  6  7  1  0  0  0  0
  6  8  1  0  0  0  0
  6 26  1  0  0  0  0
  7 27  1  0  0  0  0
  7 28  1  0  0  0  0
  7 29  1  0  0  0  0
  8  9  1  0  0  0  0
  8 30  1  0  0  0  0
  9 10  1  0  0  0  0
  9 31  1  0  0  0  0
  9 32  1  0  0  0  0
 10 11  1  0  0  0  0
 10 33  1  0  0  0  0
 10 40  1  0  0  0  0
 11 12  1  0  0  0  0
 11 34  1  0  0  0  0
 11 35  1  0  0  0  0
 12 13  1  0  0  0  0
 12 36  1  0  0  0  0
 12 37  1  0  0  0  0
 13 17  1  0  0  0  0
 13 14  1  0  0  0  0
 14 15  2  0  0  0  0
 14 38  1  0  0  0  0
 15 16  1  0  0  0  0
 15 39  1  0  0  0  0
 16 17  2  0  0  0  0
M  CHG  1  10   1
M  END
> <s_m_source_file>
AV-unprocessed.smi

> <i_m_source_file_index>
3188

> <i_lp_mmshare_version>
43012

> <i_f3d_flags>
0

> <s_epik_input>
W0NIM11DMT1bQ0hdW0NIMl1bQ0gyXVtDQEBIXShbQ0gzXSlbQ0BIXTFbQ0gyXVtOSF1bQ0gyXVtDSDJdbjJbY0hdW2NIXW5uMg==

> <s_epik_cmdline>
J2VwaWtfcHl0aG9uJywgJy1waCcsICc3LjAnLCAnLXRuJywgJzgnLCAnLW1hJywgJzIwMCcsICctbWV0YWxfYmluZGluZycsICctaW1hZScsICc8aW5maWxlLm1hZT4nLCAnLW9tYWUnLCAnPG91dGZpbGUubWFlPic=

> <r_lp_tautomer_probability>
1

> <r_epik_Ionization_Penalty>
0.007268

> <r_epik_Ionization_Penalty_Charging>
0.00726786

> <r_epik_Ionization_Penalty_Neutral>
1.34882e-07

> <r_epik_State_Penalty>
0.00542069

> <r_epik_Charging_Adjusted_Penalty>
0.0126886

> <i_epik_Tot_Q>
1

> <i_epik_Tot_abs_Q>
1

> <r_epik_Metal_State_Penalty>
-0

> <b_epik_Metal_Only>
0

> <s_lp_Force_Field>
OPLS_2005

> <r_lp_Energy>
14.7496

> <b_lp_Chiralities_Consistent>
1

> <s_lp_Variant>
AV-unprocessed.smi:3188-1

> <Gold.Version>
5.8.1

> <Gold.Id.Protein>
6NUR|6NUR_protein|mol2

> <Gold.PLP.Fitness>
46.0714

> <Gold.PLP.PLP>
-38.4627

> <Gold.PLP.part.hbond>
-1.3406

> <Gold.PLP.part.metal>
0.0000

> <Gold.PLP.part.buried>
-4.5349

> <Gold.PLP.part.nonpolar>
-33.1020

> <Gold.PLP.part.repulsive>
0.2325

> <Gold.PLP.ligand.clash>
0.0000

> <Gold.PLP.ligand.torsion>
0.5672

> <Gold.PLP.Chemscore.Hbond>
1.0000

> <Gold.PLP.Chemscore.CHOScore>
1.8967

> <Gold.PLP.Chemscore.Metal>
0.0000

> <Gold.Chemscore.Hbonds>
donor molecule, donor type, donor heavy atom, donor atom, acceptor molecule, acceptor atom, score
      P1  H  7989  7998       L1    16  0.85
      L1  C    15    39       P1  7948  0.90
      L1  C    15    39       P1  7957  0.90

> <Gold.PLP.Chemscore.Internal.Correction>
0.0529

> <Gold.Rescore>
     Score         DG    S(hbond)    S(metal)    S(lipo)     H(rot)  DE(clash)    DE(int)     intcor
     16.47     -18.55       0.98        0.00     122.86       1.78       0.03       2.05       ----

> <Gold.Chemscore.Fitness>
16.4686

> <Gold.Chemscore.DG>
-18.5527

> <Gold.Chemscore.ZeroCoef>
-5.4800

> <Gold.Chemscore.Hbond>
0.9750

> <Gold.Chemscore.Metal>
0.0000

> <Gold.Chemscore.Lipo>
122.8641

> <Gold.Chemscore.Internal_Hbond>
0.0000

> <Gold.Chemscore.DEClash>
0.0316

> <Gold.Chemscore.DEInternal>
2.0525

> <Gold.Chemscore.Rot>
1.7809

> <Gold.Chemscore.Internal.Correction>
   9.000000E+99

> <Gold.Chemscore.Hbonds>
donor molecule, donor type, donor heavy atom, donor atom, acceptor molecule, acceptor atom, score
      P1  H  7989  7998       L1    16  0.14

> <Gold.Chemscore.Hbond.Weighted>
-3.2566

> <Gold.Chemscore.Metal.Weighted>
-0.0000

> <Gold.Chemscore.Lipo.Weighted>
-14.3751

> <Gold.Chemscore.Internal_Hbond.Weighted>
0.0000

> <Gold.Chemscore.DEClash.Weighted>
0.0316

> <Gold.Chemscore.DEInternal.Weighted>
2.0525

> <Gold.Chemscore.Rot.Weighted>
4.5590

> <Gold.Chemscore.Internal.Correction.Weighted>
   9.000000E+99

> <Gold.Protein.RotatedTorsions>
[ 6907 6896 6895 6894 ] final -138.94 input  -60.11 | X-H torsion
[ 7974 7965 7964 7962 ] final   15.28 input  175.53 | X-H torsion
[ 8008 7997 7996 7995 ] final  159.69 input   59.86 | X-H torsion
[ 10167 10162 10161 10158 ] final -110.19 input  -65.29 | X-H torsion
[ 10718 10713 10712 10709 ] final   41.81 input   66.30 | X-H torsion
[ 10763 10752 10751 10750 ] final -161.83 input  -60.55 | X-H torsion
[ 11005 11000 10999 10996 ] final   93.21 input  -57.11 | X-H torsion

> <Gold.Protein.ActiveResidues>
 VAL166  LYS551  ARG553  GLY616  TRP617  ASP618  TYR619  PRO620  LYS621  CYS622 
 ASP623  PHE694  ASN695  SER759  ASP760  ASP761  ALA762  ILE779  LEU786  VAL792 
 PHE793  MET794  SER795  GLU796  ALA797  LYS798  CYS799  TRP800  GLU811  SER814 

> <Gold.Protein.RotatedAtoms>
  151.0414  133.5703  159.2650 H   0  0  0  0  0  0  0  0  0  0  0  0  # atno 6907 bound_to 6896
  151.2747  135.0695  159.9157 H   0  0  0  0  0  0  0  0  0  0  0  0  # atno 6908 bound_to 6896
  152.5365  134.0139  159.8005 H   0  0  0  0  0  0  0  0  0  0  0  0  # atno 6909 bound_to 6896
  146.2283  139.8918  142.8553 H   0  0  0  0  0  0  0  0  0  0  0  0  # atno 7974 bound_to 7965
  156.2222  140.1824  156.7449 H   0  0  0  0  0  0  0  0  0  0  0  0  # atno 8008 bound_to 7997
  154.5884  140.0655  156.9232 H   0  0  0  0  0  0  0  0  0  0  0  0  # atno 8009 bound_to 7997
  155.2380  140.3320  155.4298 H   0  0  0  0  0  0  0  0  0  0  0  0  # atno 8010 bound_to 7997
  140.1471  143.4230  152.1521 H   0  0  0  0  0  0  0  0  0  0  0  0  # atno 10167 bound_to 10162
  157.3977  130.7842  149.7322 H   0  0  0  0  0  0  0  0  0  0  0  0  # atno 10718 bound_to 10713
  154.7269  135.3038  154.8956 H   0  0  0  0  0  0  0  0  0  0  0  0  # atno 10763 bound_to 10752
  153.9811  135.6730  153.4754 H   0  0  0  0  0  0  0  0  0  0  0  0  # atno 10764 bound_to 10752
  153.0883  135.4973  154.8559 H   0  0  0  0  0  0  0  0  0  0  0  0  # atno 10765 bound_to 10752
  139.8813  134.8777  156.3685 H   0  0  0  0  0  0  0  0  0  0  0  0  # atno 11005 bound_to 11000
  145.2410  141.0009  143.3936 LP  0  0  0  0  0  0  0  0  0  0  0  0  # atno 17320 bound_to 7965
  144.9452  139.4144  143.6429 LP  0  0  0  0  0  0  0  0  0  0  0  0  # atno 17321 bound_to 7965
  139.5443  144.7285  151.4632 LP  0  0  0  0  0  0  0  0  0  0  0  0  # atno 17342 bound_to 10162
  140.6725  143.8262  150.7017 LP  0  0  0  0  0  0  0  0  0  0  0  0  # atno 17343 bound_to 10162
  155.9815  130.4019  150.3469 LP  0  0  0  0  0  0  0  0  0  0  0  0  # atno 17370 bound_to 10713
  157.1593  131.0341  151.2848 LP  0  0  0  0  0  0  0  0  0  0  0  0  # atno 17371 bound_to 10713
  140.9481  133.7469  156.0235 LP  0  0  0  0  0  0  0  0  0  0  0  0  # atno 17394 bound_to 11000
  140.8139  134.3367  157.5403 LP  0  0  0  0  0  0  0  0  0  0  0  0  # atno 17395 bound_to 11000

$$$$
