AV-unprocessed.smi:39|AV-procd|sdf|351|dock10
  -GOLD-   2262016193D 1   1.00000     0.00000
 Structure written by MMmdl.
 32 33  0  0  0  0  0  0  0  0  3 V2000
  152.4407  141.8492  159.5881 C   0  0  0  0  0  0  0  0  0  0  0  0
  151.7012  141.8082  158.2611 C   0  0  0  0  0  0  0  0  0  0  0  0
  151.7886  140.7524  157.4121 C   0  0  0  0  0  0  0  0  0  0  0  0
  151.1261  140.6859  156.1934 N   0  0  0  0  0  0  0  0  0  0  0  0
  151.2659  139.4868  155.2815 C   0  0  1  0  0  0  0  0  0  0  0  0
  152.7328  139.2766  154.8950 C   0  0  0  0  0  0  0  0  0  0  0  0
  153.1466  138.1515  155.8261 C   0  0  2  0  0  0  0  0  0  0  0  0
  154.2661  137.3645  155.3046 N   0  0  0  0  0  0  0  0  0  0  0  0
  155.2955  137.9915  155.0213 N   0  3  0  0  0  0  0  0  0  0  0  0
  156.1772  138.6721  154.7878 N   0  5  0  0  0  0  0  0  0  0  0  0
  151.8504  137.3416  155.9134 C   0  0  1  0  0  0  0  0  0  0  0  0
  151.7664  136.4493  157.1616 C   0  0  0  0  0  0  0  0  0  0  0  0
  152.7922  135.4802  157.1350 O   0  0  0  0  0  0  0  0  0  0  0  0
  150.8391  138.3448  155.9641 O   0  0  0  0  0  0  0  0  0  0  0  0
  150.3325  141.7761  155.7794 C   0  0  0  0  0  0  0  0  0  0  0  0
  149.7443  141.8048  154.6991 O   0  0  0  0  0  0  0  0  0  0  0  0
  150.2373  142.8574  156.6535 N   0  0  0  0  0  0  0  0  0  0  0  0
  150.8706  142.9585  157.8944 C   0  0  0  0  0  0  0  0  0  0  0  0
  150.7057  143.9661  158.5803 O   0  0  0  0  0  0  0  0  0  0  0  0
  150.6081  139.6542  154.4271 H   0  0  0  0  0  0  0  0  0  0  0  0
  153.3797  138.5621  156.8107 H   0  0  0  0  0  0  0  0  0  0  0  0
  151.7247  136.7555  155.0004 H   0  0  0  0  0  0  0  0  0  0  0  0
  149.6643  143.6363  156.3634 H   0  0  0  0  0  0  0  0  0  0  0  0
  153.0332  140.9482  159.7495 H   0  0  0  0  0  0  0  0  0  0  0  0
  151.7346  141.9373  160.4146 H   0  0  0  0  0  0  0  0  0  0  0  0
  153.1169  142.7040  159.6216 H   0  0  0  0  0  0  0  0  0  0  0  0
  152.4144  139.9233  157.7068 H   0  0  0  0  0  0  0  0  0  0  0  0
  152.7719  138.9575  153.8524 H   0  0  0  0  0  0  0  0  0  0  0  0
  153.3262  140.1848  155.0078 H   0  0  0  0  0  0  0  0  0  0  0  0
  151.9081  137.0482  158.0618 H   0  0  0  0  0  0  0  0  0  0  0  0
  150.7908  135.9693  157.2428 H   0  0  0  0  0  0  0  0  0  0  0  0
  152.4041  134.6276  157.2595 H   0  0  0  0  0  0  0  0  0  0  0  0
  1  2  1  0  0  0  0
  1 24  1  0  0  0  0
  1 25  1  0  0  0  0
  1 26  1  0  0  0  0
  2 18  1  0  0  0  0
  2  3  2  0  0  0  0
  3  4  1  0  0  0  0
  3 27  1  0  0  0  0
  4  5  1  0  0  0  0
  4 15  1  0  0  0  0
  5 20  1  0  0  0  0
  5 14  1  0  0  0  0
  5  6  1  0  0  0  0
  6  7  1  0  0  0  0
  6 28  1  0  0  0  0
  6 29  1  0  0  0  0
  7 21  1  0  0  0  0
  7  8  1  0  0  0  0
  7 11  1  0  0  0  0
  8  9  2  0  0  0  0
  9 10  2  0  0  0  0
 11 22  1  0  0  0  0
 11 12  1  0  0  0  0
 11 14  1  0  0  0  0
 12 13  1  0  0  0  0
 12 30  1  0  0  0  0
 12 31  1  0  0  0  0
 13 32  1  0  0  0  0
 15 16  2  0  0  0  0
 15 17  1  0  0  0  0
 17 23  1  0  0  0  0
 17 18  1  0  0  0  0
 18 19  2  0  0  0  0
M  CHG  1   9   1
M  CHG  1  10  -1
M  END
> <s_m_source_file>
AV-unprocessed.smi

> <i_m_source_file_index>
39

> <i_lp_mmshare_version>
43012

> <i_f3d_flags>
0

> <s_epik_input>
Tz1jMVtuSF1jKD1PKW4oW2NIXWMxW0NIM10pW0NASF0yW0NIMl1bQ0BIXShOPVtOK109W04tXSlbQ0BIXShPMilbQ0gyXVtPSF0=

> <s_epik_cmdline>
J2VwaWtfcHl0aG9uJywgJy1waCcsICc3LjAnLCAnLXRuJywgJzgnLCAnLW1hJywgJzIwMCcsICctbWV0YWxfYmluZGluZycsICctaW1hZScsICc8aW5maWxlLm1hZT4nLCAnLW9tYWUnLCAnPG91dGZpbGUubWFlPic=

> <r_lp_tautomer_probability>
0.999537

> <r_epik_Ionization_Penalty>
0.00127512

> <r_epik_Ionization_Penalty_Charging>
0.00127507

> <r_epik_Ionization_Penalty_Neutral>
5.43433e-08

> <r_epik_State_Penalty>
0.000844892

> <r_epik_Charging_Adjusted_Penalty>
0.00211996

> <i_epik_Tot_Q>
0

> <i_epik_Tot_abs_Q>
2

> <r_epik_Metal_State_Penalty>
0.680636

> <b_epik_Metal_Only>
0

> <s_epik_Chemistry_Notes>
This compound contains an acetal/aminal-like group ( X-CH(R)-Y where X, Y are N, S, or O) that may be acid/base labile, releasing an aldehyde.

> <s_lp_Force_Field>
OPLS_2005

> <r_lp_Energy>
24.0553

> <b_lp_Chiralities_Consistent>
1

> <s_lp_Variant>
AV-unprocessed.smi:39-1

> <Gold.Version>
5.8.1

> <Gold.Id.Protein>
6NUR|6NUR_protein|mol2

> <Gold.PLP.Fitness>
39.2889

> <Gold.PLP.PLP>
-31.1285

> <Gold.PLP.part.hbond>
-5.4091

> <Gold.PLP.part.metal>
0.0000

> <Gold.PLP.part.buried>
-4.0523

> <Gold.PLP.part.nonpolar>
-22.8837

> <Gold.PLP.part.repulsive>
0.3561

> <Gold.PLP.ligand.clash>
0.0000

> <Gold.PLP.ligand.torsion>
0.0638

> <Gold.PLP.Chemscore.Hbond>
2.7520

> <Gold.PLP.Chemscore.CHOScore>
0.0000

> <Gold.PLP.Chemscore.Metal>
0.0000

> <Gold.Chemscore.Hbonds>
donor molecule, donor type, donor heavy atom, donor atom, acceptor molecule, acceptor atom, score
      L1  H    17    23       P1  8028  0.94
      P1  H  7989  7998       L1    16  0.02
      P1  H  7997  8010       L1    10  0.50
      P1  H 10752 10765       L1    13  1.00

> <Gold.PLP.Chemscore.Internal.Correction>
0.0321

> <Gold.Rescore>
     Score         DG    S(hbond)    S(metal)    S(lipo)     H(rot)  DE(clash)    DE(int)     intcor
      9.84     -10.94       2.00        0.00      49.73       2.75       1.05       0.04       ----

> <Gold.Chemscore.Fitness>
9.8449

> <Gold.Chemscore.DG>
-10.9379

> <Gold.Chemscore.ZeroCoef>
-5.4800

> <Gold.Chemscore.Hbond>
2.0017

> <Gold.Chemscore.Metal>
0.0000

> <Gold.Chemscore.Lipo>
49.7301

> <Gold.Chemscore.Internal_Hbond>
0.0000

> <Gold.Chemscore.DEClash>
1.0502

> <Gold.Chemscore.DEInternal>
0.0428

> <Gold.Chemscore.Rot>
2.7524

> <Gold.Chemscore.Internal.Correction>
   9.000000E+99

> <Gold.Chemscore.Hbonds>
donor molecule, donor type, donor heavy atom, donor atom, acceptor molecule, acceptor atom, score
      L1  H    17    23       P1  8028  0.90
      P1  H  7997  8010       L1    10  0.17
      P1  H  8011  8017       L1    16  0.02
      P1  H 10752 10765       L1    13  0.32

> <Gold.Chemscore.Hbond.Weighted>
-6.6856

> <Gold.Chemscore.Metal.Weighted>
-0.0000

> <Gold.Chemscore.Lipo.Weighted>
-5.8184

> <Gold.Chemscore.Internal_Hbond.Weighted>
0.0000

> <Gold.Chemscore.DEClash.Weighted>
1.0502

> <Gold.Chemscore.DEInternal.Weighted>
0.0428

> <Gold.Chemscore.Rot.Weighted>
7.0461

> <Gold.Chemscore.Internal.Correction.Weighted>
   9.000000E+99

> <Gold.Protein.RotatedTorsions>
[ 6907 6896 6895 6894 ] final  -86.33 input  -60.11 | X-H torsion
[ 7974 7965 7964 7962 ] final  -95.43 input  175.53 | X-H torsion
[ 8008 7997 7996 7995 ] final  179.89 input   59.86 | X-H torsion
[ 10167 10162 10161 10158 ] final  -13.59 input  -65.29 | X-H torsion
[ 10718 10713 10712 10709 ] final   55.91 input   66.30 | X-H torsion
[ 10763 10752 10751 10750 ] final -116.26 input  -60.55 | X-H torsion
[ 11005 11000 10999 10996 ] final    9.76 input  -57.11 | X-H torsion

> <Gold.Protein.ActiveResidues>
 VAL166  LYS551  ARG553  GLY616  TRP617  ASP618  TYR619  PRO620  LYS621  CYS622 
 ASP623  PHE694  ASN695  SER759  ASP760  ASP761  ALA762  ILE779  LEU786  VAL792 
 PHE793  MET794  SER795  GLU796  ALA797  LYS798  CYS799  TRP800  GLU811  SER814 

> <Gold.Protein.RotatedAtoms>
  150.6867  134.3067  159.4728 H   0  0  0  0  0  0  0  0  0  0  0  0  # atno 6907 bound_to 6896
  152.0957  134.9374  160.0580 H   0  0  0  0  0  0  0  0  0  0  0  0  # atno 6908 bound_to 6896
  152.0672  133.4055  159.4480 H   0  0  0  0  0  0  0  0  0  0  0  0  # atno 6909 bound_to 6896
  145.3601  140.9490  143.2505 H   0  0  0  0  0  0  0  0  0  0  0  0  # atno 7974 bound_to 7965
  156.0383  140.1297  157.0184 H   0  0  0  0  0  0  0  0  0  0  0  0  # atno 8008 bound_to 7997
  154.4379  140.1035  156.6270 H   0  0  0  0  0  0  0  0  0  0  0  0  # atno 8009 bound_to 7997
  155.5705  140.3466  155.4516 H   0  0  0  0  0  0  0  0  0  0  0  0  # atno 8010 bound_to 7997
  140.7185  143.5410  150.9409 H   0  0  0  0  0  0  0  0  0  0  0  0  # atno 10167 bound_to 10162
  157.5386  130.8681  149.8789 H   0  0  0  0  0  0  0  0  0  0  0  0  # atno 10718 bound_to 10713
  154.8512  135.4352  154.1792 H   0  0  0  0  0  0  0  0  0  0  0  0  # atno 10763 bound_to 10752
  153.2887  135.6959  153.7320 H   0  0  0  0  0  0  0  0  0  0  0  0  # atno 10764 bound_to 10752
  153.6496  135.3453  155.3070 H   0  0  0  0  0  0  0  0  0  0  0  0  # atno 10765 bound_to 10752
  140.5222  134.0548  155.7848 H   0  0  0  0  0  0  0  0  0  0  0  0  # atno 11005 bound_to 11000
  144.8652  139.5118  143.6793 LP  0  0  0  0  0  0  0  0  0  0  0  0  # atno 17320 bound_to 7965
  146.2931  139.7196  142.9147 LP  0  0  0  0  0  0  0  0  0  0  0  0  # atno 17321 bound_to 7965
  139.9132  143.6694  152.3111 LP  0  0  0  0  0  0  0  0  0  0  0  0  # atno 17342 bound_to 10162
  139.7085  144.7624  151.1152 LP  0  0  0  0  0  0  0  0  0  0  0  0  # atno 17343 bound_to 10162
  156.0478  130.3724  150.1274 LP  0  0  0  0  0  0  0  0  0  0  0  0  # atno 17370 bound_to 10713
  156.9455  130.9758  151.3508 LP  0  0  0  0  0  0  0  0  0  0  0  0  # atno 17371 bound_to 10713
  141.1328  133.9273  157.2499 LP  0  0  0  0  0  0  0  0  0  0  0  0  # atno 17394 bound_to 11000
  139.9600  135.0156  156.9234 LP  0  0  0  0  0  0  0  0  0  0  0  0  # atno 17395 bound_to 11000

$$$$
