AV-unprocessed.smi:1815|AV-procd|sdf|7356|dock10
  -GOLD-   22720 9 13D 1   1.00000     0.00000
 Structure written by MMmdl.
 40 41  0  0  0  0  0  0  0  0  2 V2000
  146.8372  134.3747  153.7323 C   0  0  0  0  0  0  0  0  0  0  0  0
  145.4205  134.7800  153.2878 C   0  0  1  0  0  0  0  0  0  0  0  0
  145.3313  136.2250  152.7590 C   0  0  0  0  0  0  0  0  0  0  0  0
  145.9370  136.3432  151.4111 N   0  3  2  0  0  0  0  0  0  0  0  0
  145.9242  137.7399  150.9100 C   0  0  0  0  0  0  0  0  0  0  0  0
  146.4496  138.7471  151.9510 C   0  0  0  0  0  0  0  0  0  0  0  0
  147.7741  138.3734  152.4334 N   0  0  0  0  0  0  0  0  0  0  0  0
  148.4428  139.0182  153.4005 C   0  0  0  0  0  0  0  0  0  0  0  0
  147.9989  140.0088  153.9824 O   0  0  0  0  0  0  0  0  0  0  0  0
  149.6372  138.4473  153.6353 N   0  0  0  0  0  0  0  0  0  0  0  0
  150.6250  138.8377  154.5775 C   0  0  0  0  0  0  0  0  0  0  0  0
  150.8484  140.1016  154.9564 N   0  0  0  0  0  0  0  0  0  0  0  0
  151.8782  140.1931  155.8962 C   0  0  0  0  0  0  0  0  0  0  0  0
  152.4329  138.9805  156.2225 C   0  0  0  0  0  0  0  0  0  0  0  0
  151.6779  137.6674  155.3589 S   0  0  0  0  0  0  0  0  0  0  0  0
  145.3171  135.3673  150.4828 C   0  0  0  0  0  0  0  0  0  0  0  0
  145.4574  133.9381  151.0368 C   0  0  2  0  0  0  0  0  0  0  0  0
  144.7554  132.9053  150.1479 C   0  0  0  0  0  0  0  0  0  0  0  0
  144.8711  133.8711  152.3340 O   0  0  0  0  0  0  0  0  0  0  0  0
  147.1762  135.0010  154.5580 H   0  0  0  0  0  0  0  0  0  0  0  0
  147.5684  134.4740  152.9304 H   0  0  0  0  0  0  0  0  0  0  0  0
  146.8553  133.3404  154.0762 H   0  0  0  0  0  0  0  0  0  0  0  0
  144.7836  134.7111  154.1703 H   0  0  0  0  0  0  0  0  0  0  0  0
  144.2855  136.5319  152.7052 H   0  0  0  0  0  0  0  0  0  0  0  0
  145.8232  136.9049  153.4560 H   0  0  0  0  0  0  0  0  0  0  0  0
  146.4967  137.8071  149.9835 H   0  0  0  0  0  0  0  0  0  0  0  0
  144.8971  138.0075  150.6575 H   0  0  0  0  0  0  0  0  0  0  0  0
  146.4755  139.7544  151.5315 H   0  0  0  0  0  0  0  0  0  0  0  0
  145.7915  138.7880  152.8181 H   0  0  0  0  0  0  0  0  0  0  0  0
  148.2077  137.5676  152.0065 H   0  0  0  0  0  0  0  0  0  0  0  0
  149.8679  137.6390  153.0767 H   0  0  0  0  0  0  0  0  0  0  0  0
  152.1525  141.1641  156.2814 H   0  0  0  0  0  0  0  0  0  0  0  0
  153.2361  138.7814  156.9163 H   0  0  0  0  0  0  0  0  0  0  0  0
  144.2644  135.6173  150.3393 H   0  0  0  0  0  0  0  0  0  0  0  0
  145.7932  135.4173  149.5043 H   0  0  0  0  0  0  0  0  0  0  0  0
  146.5127  133.6703  151.0946 H   0  0  0  0  0  0  0  0  0  0  0  0
  145.1691  132.9090  149.1391 H   0  0  0  0  0  0  0  0  0  0  0  0
  143.6868  133.1093  150.0724 H   0  0  0  0  0  0  0  0  0  0  0  0
  144.8744  131.8995  150.5514 H   0  0  0  0  0  0  0  0  0  0  0  0
  146.9079  136.0831  151.5125 H   0  0  0  0  0  0  0  0  0  0  0  0
  1  2  1  0  0  0  0
  1 20  1  0  0  0  0
  1 21  1  0  0  0  0
  1 22  1  0  0  0  0
  2 19  1  0  0  0  0
  2  3  1  0  0  0  0
  2 23  1  0  0  0  0
  3  4  1  0  0  0  0
  3 24  1  0  0  0  0
  3 25  1  0  0  0  0
  4  5  1  0  0  0  0
  4 16  1  0  0  0  0
  4 40  1  0  0  0  0
  5  6  1  0  0  0  0
  5 26  1  0  0  0  0
  5 27  1  0  0  0  0
  6  7  1  0  0  0  0
  6 28  1  0  0  0  0
  6 29  1  0  0  0  0
  7  8  1  0  0  0  0
  7 30  1  0  0  0  0
  8  9  2  0  0  0  0
  8 10  1  0  0  0  0
 10 11  1  0  0  0  0
 10 31  1  0  0  0  0
 11 15  1  0  0  0  0
 11 12  2  0  0  0  0
 12 13  1  0  0  0  0
 13 14  2  0  0  0  0
 13 32  1  0  0  0  0
 14 15  1  0  0  0  0
 14 33  1  0  0  0  0
 16 17  1  0  0  0  0
 16 34  1  0  0  0  0
 16 35  1  0  0  0  0
 17 18  1  0  0  0  0
 17 19  1  0  0  0  0
 17 36  1  0  0  0  0
 18 37  1  0  0  0  0
 18 38  1  0  0  0  0
 18 39  1  0  0  0  0
M  CHG  1   4   1
M  END
> <s_m_source_file>
AV-unprocessed.smi

> <i_m_source_file_index>
1815

> <i_lp_mmshare_version>
43012

> <i_f3d_flags>
0

> <s_epik_input>
W0NIM11bQ0BASF0xW0NIMl1OKFtDSDJdW0NASF0oTzEpW0NIM10pW0NIMl1bQ0gyXVtOSF1DKD1PKVtOSF1jMm5bY0hdW2NIXXMy

> <s_epik_cmdline>
J2VwaWtfcHl0aG9uJywgJy1waCcsICc3LjAnLCAnLXRuJywgJzgnLCAnLW1hJywgJzIwMCcsICctbWV0YWxfYmluZGluZycsICctaW1hZScsICc8aW5maWxlLm1hZT4nLCAnLW9tYWUnLCAnPG91dGZpbGUubWFlPic=

> <r_lp_tautomer_probability>
0.999

> <r_epik_Ionization_Penalty>
0.695838

> <r_epik_Ionization_Penalty_Charging>
0.695697

> <r_epik_Ionization_Penalty_Neutral>
0.000141198

> <r_epik_State_Penalty>
0.717972

> <r_epik_Charging_Adjusted_Penalty>
1.41367

> <i_epik_Tot_Q>
1

> <i_epik_Tot_abs_Q>
1

> <r_epik_Metal_State_Penalty>
0.756405

> <b_epik_Metal_Only>
0

> <s_lp_Force_Field>
OPLS_2005

> <r_lp_Energy>
15.0285

> <b_lp_Chiralities_Consistent>
1

> <s_lp_Variant>
AV-unprocessed.smi:1815-7

> <Gold.Version>
5.8.1

> <Gold.Id.Protein>
6NUR|6NUR_protein|mol2

> <Gold.PLP.Fitness>
43.5408

> <Gold.PLP.PLP>
-29.6358

> <Gold.PLP.part.hbond>
-5.9576

> <Gold.PLP.part.metal>
0.0000

> <Gold.PLP.part.buried>
5.1377

> <Gold.PLP.part.nonpolar>
-30.0278

> <Gold.PLP.part.repulsive>
0.4903

> <Gold.PLP.ligand.clash>
0.0000

> <Gold.PLP.ligand.torsion>
0.2710

> <Gold.PLP.Chemscore.Hbond>
4.8112

> <Gold.PLP.Chemscore.CHOScore>
0.0000

> <Gold.PLP.Chemscore.Metal>
0.0000

> <Gold.Chemscore.Hbonds>
donor molecule, donor type, donor heavy atom, donor atom, acceptor molecule, acceptor atom, score
      L1  H     4    40       P1  7948  1.95
      L1  H     7    30       P1  7948  0.94
      L1  H    10    31       P1  7948  0.83
      P1  H  7989  7998       L1    12  1.00

> <Gold.PLP.Chemscore.Internal.Correction>
0.0133

> <Gold.Rescore>
     Score         DG    S(hbond)    S(metal)    S(lipo)     H(rot)  DE(clash)    DE(int)     intcor
     16.11     -18.87       2.91        0.00      67.12       1.64       1.76       0.99       ----

> <Gold.Chemscore.Fitness>
16.1145

> <Gold.Chemscore.DG>
-18.8660

> <Gold.Chemscore.ZeroCoef>
-5.4800

> <Gold.Chemscore.Hbond>
2.9124

> <Gold.Chemscore.Metal>
0.0000

> <Gold.Chemscore.Lipo>
67.1201

> <Gold.Chemscore.Internal_Hbond>
0.0000

> <Gold.Chemscore.DEClash>
1.7583

> <Gold.Chemscore.DEInternal>
0.9933

> <Gold.Chemscore.Rot>
1.6385

> <Gold.Chemscore.Internal.Correction>
   9.000000E+99

> <Gold.Chemscore.Hbonds>
donor molecule, donor type, donor heavy atom, donor atom, acceptor molecule, acceptor atom, score
      L1  H     4    40       P1  7948  0.91
      L1  H     7    30       P1  7948  0.90
      L1  H    10    31       P1  7948  0.35
      P1  H  7989  7998       L1    12  0.13

> <Gold.Chemscore.Hbond.Weighted>
-9.7275

> <Gold.Chemscore.Metal.Weighted>
-0.0000

> <Gold.Chemscore.Lipo.Weighted>
-7.8530

> <Gold.Chemscore.Internal_Hbond.Weighted>
0.0000

> <Gold.Chemscore.DEClash.Weighted>
1.7583

> <Gold.Chemscore.DEInternal.Weighted>
0.9933

> <Gold.Chemscore.Rot.Weighted>
4.1945

> <Gold.Chemscore.Internal.Correction.Weighted>
   9.000000E+99

> <Gold.Protein.RotatedTorsions>
[ 6907 6896 6895 6894 ] final  -78.20 input  -60.11 | X-H torsion
[ 7974 7965 7964 7962 ] final  143.01 input  175.53 | X-H torsion
[ 8008 7997 7996 7995 ] final  127.77 input   59.86 | X-H torsion
[ 10167 10162 10161 10158 ] final    0.39 input  -65.29 | X-H torsion
[ 10718 10713 10712 10709 ] final  114.73 input   66.30 | X-H torsion
[ 10763 10752 10751 10750 ] final   85.96 input  -60.55 | X-H torsion
[ 11005 11000 10999 10996 ] final  -91.01 input  -57.11 | X-H torsion

> <Gold.Protein.ActiveResidues>
 VAL166  LYS551  ARG553  GLY616  TRP617  ASP618  TYR619  PRO620  LYS621  CYS622 
 ASP623  PHE694  ASN695  SER759  ASP760  ASP761  ALA762  ILE779  LEU786  VAL792 
 PHE793  MET794  SER795  GLU796  ALA797  LYS798  CYS799  TRP800  GLU811  SER814 

> <Gold.Protein.RotatedAtoms>
  150.6979  134.4308  159.5247 H   0  0  0  0  0  0  0  0  0  0  0  0  # atno 6907 bound_to 6896
  152.2035  134.8564  160.0514 H   0  0  0  0  0  0  0  0  0  0  0  0  # atno 6908 bound_to 6896
  151.9475  133.3621  159.4024 H   0  0  0  0  0  0  0  0  0  0  0  0  # atno 6909 bound_to 6896
  144.8958  139.5493  143.5777 H   0  0  0  0  0  0  0  0  0  0  0  0  # atno 7974 bound_to 7965
  156.2899  140.2661  156.2328 H   0  0  0  0  0  0  0  0  0  0  0  0  # atno 8008 bound_to 7997
  155.0055  140.0387  157.2396 H   0  0  0  0  0  0  0  0  0  0  0  0  # atno 8009 bound_to 7997
  154.7563  140.2752  155.6255 H   0  0  0  0  0  0  0  0  0  0  0  0  # atno 8010 bound_to 7997
  140.6731  143.6993  150.7964 H   0  0  0  0  0  0  0  0  0  0  0  0  # atno 10167 bound_to 10162
  157.6264  131.1003  150.7228 H   0  0  0  0  0  0  0  0  0  0  0  0  # atno 10718 bound_to 10713
  153.1525  135.4598  154.9657 H   0  0  0  0  0  0  0  0  0  0  0  0  # atno 10763 bound_to 10752
  154.7836  135.3196  154.7939 H   0  0  0  0  0  0  0  0  0  0  0  0  # atno 10764 bound_to 10752
  153.8442  135.6927  153.4854 H   0  0  0  0  0  0  0  0  0  0  0  0  # atno 10765 bound_to 10752
  141.1554  133.7728  156.9819 H   0  0  0  0  0  0  0  0  0  0  0  0  # atno 11005 bound_to 11000
  146.3080  139.7647  142.9041 LP  0  0  0  0  0  0  0  0  0  0  0  0  # atno 17320 bound_to 7965
  145.3703  141.0341  143.3235 LP  0  0  0  0  0  0  0  0  0  0  0  0  # atno 17321 bound_to 7965
  140.0682  143.5087  152.2593 LP  0  0  0  0  0  0  0  0  0  0  0  0  # atno 17342 bound_to 10162
  139.6009  144.7582  151.3175 LP  0  0  0  0  0  0  0  0  0  0  0  0  # atno 17343 bound_to 10162
  156.7575  130.4788  149.5443 LP  0  0  0  0  0  0  0  0  0  0  0  0  # atno 17370 bound_to 10713
  156.1439  130.6263  151.0504 LP  0  0  0  0  0  0  0  0  0  0  0  0  # atno 17371 bound_to 10713
  140.1060  134.9506  157.1994 LP  0  0  0  0  0  0  0  0  0  0  0  0  # atno 17394 bound_to 11000
  140.3256  134.2867  155.7237 LP  0  0  0  0  0  0  0  0  0  0  0  0  # atno 17395 bound_to 11000

$$$$
