AV-unprocessed.smi:610|AV-procd|sdf|3058|dock8
  -GOLD-   2262023583D 1   1.00000     0.00000
 Structure written by MMmdl.
 38 39  0  0  0  0  0  0  0  0  2 V2000
  153.9497  140.6353  161.0105 C   0  0  0  0  0  0  0  0  0  0  0  0
  152.8774  141.4436  160.2658 C   0  0  1  0  0  0  0  0  0  0  0  0
  153.4832  142.6554  159.5336 C   0  0  0  0  0  0  0  0  0  0  0  0
  152.4551  143.5788  159.0416 N   0  0  0  0  0  0  0  0  0  0  0  0
  152.1076  144.7931  159.5754 C   0  0  0  0  0  0  0  0  0  0  0  0
  151.1002  145.2914  158.7901 C   0  0  0  0  0  0  0  0  0  0  0  0
  150.8774  144.3621  157.8094 N   0  3  0  0  0  0  0  0  0  0  0  0
  151.7033  143.3220  157.9632 C   0  0  0  0  0  0  0  0  0  0  0  0
  152.1836  140.5818  159.3116 N   0  0  0  0  0  0  0  0  0  0  0  0
  152.7609  139.6877  158.4904 C   0  0  0  0  0  0  0  0  0  0  0  0
  153.9812  139.5271  158.4451 O   0  0  0  0  0  0  0  0  0  0  0  0
  151.8355  138.8483  157.5735 C   0  0  0  0  0  0  0  0  0  0  0  0
  150.9189  138.0211  158.3487 N   0  0  0  0  0  0  0  0  0  0  0  0
  151.0236  139.7653  156.6209 C   0  0  0  0  0  0  0  0  0  0  0  0
  151.3819  139.3540  155.1877 C   0  0  0  0  0  0  0  0  0  0  0  0
  152.7330  138.6567  155.2997 C   0  0  0  0  0  0  0  0  0  0  0  0
  152.6507  137.9225  156.6372 C   0  0  0  0  0  0  0  0  0  0  0  0
  154.4755  141.2570  161.7356 H   0  0  0  0  0  0  0  0  0  0  0  0
  154.6908  140.2277  160.3220 H   0  0  0  0  0  0  0  0  0  0  0  0
  153.5064  139.8010  161.5554 H   0  0  0  0  0  0  0  0  0  0  0  0
  152.1677  141.8198  161.0052 H   0  0  0  0  0  0  0  0  0  0  0  0
  154.1298  143.2215  160.2055 H   0  0  0  0  0  0  0  0  0  0  0  0
  154.1012  142.3373  158.6920 H   0  0  0  0  0  0  0  0  0  0  0  0
  152.5884  145.1999  160.4535 H   0  0  0  0  0  0  0  0  0  0  0  0
  150.5403  146.2131  158.8540 H   0  0  0  0  0  0  0  0  0  0  0  0
  151.7497  142.4457  157.3412 H   0  0  0  0  0  0  0  0  0  0  0  0
  151.1778  140.6643  159.2678 H   0  0  0  0  0  0  0  0  0  0  0  0
  150.5210  137.3164  157.7443 H   0  0  0  0  0  0  0  0  0  0  0  0
  151.4425  137.5227  159.0537 H   0  0  0  0  0  0  0  0  0  0  0  0
  149.9462  139.6978  156.7806 H   0  0  0  0  0  0  0  0  0  0  0  0
  151.2833  140.8160  156.7626 H   0  0  0  0  0  0  0  0  0  0  0  0
  150.6392  138.6470  154.8157 H   0  0  0  0  0  0  0  0  0  0  0  0
  151.4037  140.2013  154.5017 H   0  0  0  0  0  0  0  0  0  0  0  0
  152.9304  137.9859  154.4632 H   0  0  0  0  0  0  0  0  0  0  0  0
  153.5319  139.3989  155.3285 H   0  0  0  0  0  0  0  0  0  0  0  0
  153.6418  137.6763  157.0219 H   0  0  0  0  0  0  0  0  0  0  0  0
  152.1357  136.9728  156.4805 H   0  0  0  0  0  0  0  0  0  0  0  0
  150.1886  144.4482  157.0725 H   0  0  0  0  0  0  0  0  0  0  0  0
  1  2  1  0  0  0  0
  1 18  1  0  0  0  0
  1 19  1  0  0  0  0
  1 20  1  0  0  0  0
  2  3  1  0  0  0  0
  2  9  1  0  0  0  0
  2 21  1  0  0  0  0
  3  4  1  0  0  0  0
  3 22  1  0  0  0  0
  3 23  1  0  0  0  0
  4  8  1  0  0  0  0
  4  5  1  0  0  0  0
  5  6  2  0  0  0  0
  5 24  1  0  0  0  0
  6  7  1  0  0  0  0
  6 25  1  0  0  0  0
  7  8  2  0  0  0  0
  7 38  1  0  0  0  0
  8 26  1  0  0  0  0
  9 10  1  0  0  0  0
  9 27  1  0  0  0  0
 10 11  2  0  0  0  0
 10 12  1  0  0  0  0
 12 17  1  0  0  0  0
 12 13  1  0  0  0  0
 12 14  1  0  0  0  0
 13 28  1  0  0  0  0
 13 29  1  0  0  0  0
 14 15  1  0  0  0  0
 14 30  1  0  0  0  0
 14 31  1  0  0  0  0
 15 16  1  0  0  0  0
 15 32  1  0  0  0  0
 15 33  1  0  0  0  0
 16 17  1  0  0  0  0
 16 34  1  0  0  0  0
 16 35  1  0  0  0  0
 17 36  1  0  0  0  0
 17 37  1  0  0  0  0
M  CHG  1   7   1
M  END
> <s_m_source_file>
AV-unprocessed.smi

> <i_m_source_file_index>
610

> <i_lp_mmshare_version>
43012

> <i_f3d_flags>
0

> <s_epik_input>
W2NIXTFuW2NIXVtjSF1uMVtDSDJdW0NAQEhdKFtDSDNdKVtOSF1DKD1PKUMyKFtOSDJdKVtDSDJdW0NIMl1bQ0gyXVtDSDJdMg==

> <s_epik_cmdline>
J2VwaWtfcHl0aG9uJywgJy1waCcsICc3LjAnLCAnLXRuJywgJzgnLCAnLW1hJywgJzIwMCcsICctbWV0YWxfYmluZGluZycsICctaW1hZScsICc8aW5maWxlLm1hZT4nLCAnLW9tYWUnLCAnPG91dGZpbGUubWFlPic=

> <r_epik_Ionization_Penalty>
1.50287

> <r_epik_Ionization_Penalty_Charging>
0

> <r_epik_Ionization_Penalty_Neutral>
1.50287

> <r_epik_State_Penalty>
1.57152

> <r_epik_Charging_Adjusted_Penalty>
1.57152

> <i_epik_Tot_Q>
1

> <i_epik_Tot_abs_Q>
1

> <r_epik_Metal_State_Penalty>
1.8522

> <b_epik_Metal_Only>
0

> <s_lp_Force_Field>
OPLS_2005

> <r_lp_Energy>
23.5797

> <b_lp_Chiralities_Consistent>
1

> <s_lp_Variant>
AV-unprocessed.smi:610-6

> <Gold.Version>
5.8.1

> <Gold.Id.Protein>
6NUR|6NUR_protein|mol2

> <Gold.PLP.Fitness>
46.4756

> <Gold.PLP.PLP>
-38.4613

> <Gold.PLP.part.hbond>
-1.9700

> <Gold.PLP.part.metal>
0.0000

> <Gold.PLP.part.buried>
-3.6382

> <Gold.PLP.part.nonpolar>
-32.8152

> <Gold.PLP.part.repulsive>
0.2024

> <Gold.PLP.ligand.clash>
0.0000

> <Gold.PLP.ligand.torsion>
0.5096

> <Gold.PLP.Chemscore.Hbond>
3.0000

> <Gold.PLP.Chemscore.CHOScore>
0.0000

> <Gold.PLP.Chemscore.Metal>
0.0000

> <Gold.Chemscore.Hbonds>
donor molecule, donor type, donor heavy atom, donor atom, acceptor molecule, acceptor atom, score
      L1  H     7    38       P1  8028  2.00
      P1  H  7997  8008       L1    11  1.00

> <Gold.PLP.Chemscore.Internal.Correction>
0.0335

> <Gold.Rescore>
     Score         DG    S(hbond)    S(metal)    S(lipo)     H(rot)  DE(clash)    DE(int)     intcor
     14.82     -16.75       1.96        0.00      84.43       2.02       0.07       1.86       ----

> <Gold.Chemscore.Fitness>
14.8157

> <Gold.Chemscore.DG>
-16.7489

> <Gold.Chemscore.ZeroCoef>
-5.4800

> <Gold.Chemscore.Hbond>
1.9609

> <Gold.Chemscore.Metal>
0.0000

> <Gold.Chemscore.Lipo>
84.4299

> <Gold.Chemscore.Internal_Hbond>
0.0000

> <Gold.Chemscore.DEClash>
0.0736

> <Gold.Chemscore.DEInternal>
1.8595

> <Gold.Chemscore.Rot>
2.0152

> <Gold.Chemscore.Internal.Correction>
   9.000000E+99

> <Gold.Chemscore.Hbonds>
donor molecule, donor type, donor heavy atom, donor atom, acceptor molecule, acceptor atom, score
      L1  H     7    38       P1  8028  0.70
      P1  H  7997  8008       L1    11  0.97

> <Gold.Chemscore.Hbond.Weighted>
-6.5495

> <Gold.Chemscore.Metal.Weighted>
-0.0000

> <Gold.Chemscore.Lipo.Weighted>
-9.8783

> <Gold.Chemscore.Internal_Hbond.Weighted>
0.0000

> <Gold.Chemscore.DEClash.Weighted>
0.0736

> <Gold.Chemscore.DEInternal.Weighted>
1.8595

> <Gold.Chemscore.Rot.Weighted>
5.1589

> <Gold.Chemscore.Internal.Correction.Weighted>
   9.000000E+99

> <Gold.Protein.RotatedTorsions>
[ 6907 6896 6895 6894 ] final -148.73 input  -60.11 | X-H torsion
[ 7974 7965 7964 7962 ] final    9.84 input  175.53 | X-H torsion
[ 8008 7997 7996 7995 ] final -116.49 input   59.86 | X-H torsion
[ 10167 10162 10161 10158 ] final   54.27 input  -65.29 | X-H torsion
[ 10718 10713 10712 10709 ] final -152.15 input   66.30 | X-H torsion
[ 10763 10752 10751 10750 ] final  -51.31 input  -60.55 | X-H torsion
[ 11005 11000 10999 10996 ] final -113.30 input  -57.11 | X-H torsion

> <Gold.Protein.ActiveResidues>
 VAL166  LYS551  ARG553  GLY616  TRP617  ASP618  TYR619  PRO620  LYS621  CYS622 
 ASP623  PHE694  ASN695  SER759  ASP760  ASP761  ALA762  ILE779  LEU786  VAL792 
 PHE793  MET794  SER795  GLU796  ALA797  LYS798  CYS799  TRP800  GLU811  SER814 

> <Gold.Protein.RotatedAtoms>
  151.1741  133.4766  159.2593 H   0  0  0  0  0  0  0  0  0  0  0  0  # atno 6907 bound_to 6896
  151.1326  135.0138  159.8599 H   0  0  0  0  0  0  0  0  0  0  0  0  # atno 6908 bound_to 6896
  152.5460  134.1642  159.8623 H   0  0  0  0  0  0  0  0  0  0  0  0  # atno 6909 bound_to 6896
  146.2397  139.9724  142.8445 H   0  0  0  0  0  0  0  0  0  0  0  0  # atno 7974 bound_to 7965
  155.0687  140.0393  157.2601 H   0  0  0  0  0  0  0  0  0  0  0  0  # atno 8008 bound_to 7997
  154.7000  140.2671  155.6704 H   0  0  0  0  0  0  0  0  0  0  0  0  # atno 8009 bound_to 7997
  156.2757  140.2742  156.1607 H   0  0  0  0  0  0  0  0  0  0  0  0  # atno 8010 bound_to 7997
  140.2319  144.3677  150.6411 H   0  0  0  0  0  0  0  0  0  0  0  0  # atno 10167 bound_to 10162
  156.4686  130.8248  151.2477 H   0  0  0  0  0  0  0  0  0  0  0  0  # atno 10718 bound_to 10713
  154.1244  135.6529  153.4909 H   0  0  0  0  0  0  0  0  0  0  0  0  # atno 10763 bound_to 10752
  153.0215  135.5278  154.7064 H   0  0  0  0  0  0  0  0  0  0  0  0  # atno 10764 bound_to 10752
  154.6281  135.2973  155.0219 H   0  0  0  0  0  0  0  0  0  0  0  0  # atno 10765 bound_to 10752
  141.0623  133.9516  157.2644 H   0  0  0  0  0  0  0  0  0  0  0  0  # atno 11005 bound_to 11000
  145.1669  140.9701  143.4344 LP  0  0  0  0  0  0  0  0  0  0  0  0  # atno 17320 bound_to 7965
  145.0064  139.3550  143.6142 LP  0  0  0  0  0  0  0  0  0  0  0  0  # atno 17321 bound_to 7965
  140.6178  143.2174  151.6756 LP  0  0  0  0  0  0  0  0  0  0  0  0  # atno 17342 bound_to 10162
  139.5107  144.3534  152.0630 LP  0  0  0  0  0  0  0  0  0  0  0  0  # atno 17343 bound_to 10162
  157.7493  131.0083  150.3225 LP  0  0  0  0  0  0  0  0  0  0  0  0  # atno 17370 bound_to 10713
  156.3641  130.3852  149.7227 LP  0  0  0  0  0  0  0  0  0  0  0  0  # atno 17371 bound_to 10713
  139.9444  135.0186  156.8806 LP  0  0  0  0  0  0  0  0  0  0  0  0  # atno 17394 bound_to 11000
  140.5844  134.0321  155.7476 LP  0  0  0  0  0  0  0  0  0  0  0  0  # atno 17395 bound_to 11000

$$$$
