AV-unprocessed.smi:1428|AV-procd|sdf|5816|dock8
  -GOLD-   22720 5473D 1   1.00000     0.00000
 Structure written by MMmdl.
 43 44  0  0  0  0  0  0  0  0  3 V2000
  145.2423  143.2293  155.2092 C   0  0  0  0  0  0  0  0  0  0  0  0
  145.4981  141.9345  154.6753 O   0  0  0  0  0  0  0  0  0  0  0  0
  146.7846  141.4341  154.7459 C   0  0  0  0  0  0  0  0  0  0  0  0
  147.7223  142.1599  155.4052 N   0  0  0  0  0  0  0  0  0  0  0  0
  148.9776  141.6730  155.4788 C   0  0  0  0  0  0  0  0  0  0  0  0
  149.3611  140.4446  154.9115 C   0  0  0  0  0  0  0  0  0  0  0  0
  148.3905  139.6889  154.2285 C   0  0  0  0  0  0  0  0  0  0  0  0
  147.0702  140.1931  154.1287 C   0  0  0  0  0  0  0  0  0  0  0  0
  146.0046  139.5132  153.4736 N   0  0  0  0  0  0  0  0  0  0  0  0
  145.9141  138.2207  153.1160 C   0  0  0  0  0  0  0  0  0  0  0  0
  146.7819  137.3662  153.2926 O   0  0  0  0  0  0  0  0  0  0  0  0
  144.7425  137.9669  152.5154 N   0  0  0  0  0  0  0  0  0  0  0  0
  144.3204  136.6621  152.0138 C   0  0  2  0  0  0  0  0  0  0  0  0
  143.9789  135.7063  153.1719 C   0  0  0  0  0  0  0  0  0  0  0  0
  143.6249  134.3055  152.6468 C   0  0  0  0  0  0  0  0  0  0  0  0
  144.7275  133.7494  151.8178 N   0  3  1  0  0  0  0  0  0  0  0  0
  144.4950  132.3440  151.3971 C   0  0  0  0  0  0  0  0  0  0  0  0
  143.5829  132.2877  150.1668 C   0  0  0  0  0  0  0  0  0  0  0  0
  142.3324  132.7154  150.4347 N   0  5  0  0  0  0  0  0  0  0  0  0
  144.0297  131.8828  149.0964 O   0  0  0  0  0  0  0  0  0  0  0  0
  145.0567  134.6363  150.6736 C   0  0  0  0  0  0  0  0  0  0  0  0
  145.4369  136.0467  151.1551 C   0  0  0  0  0  0  0  0  0  0  0  0
  144.1897  143.4750  155.0703 H   0  0  0  0  0  0  0  0  0  0  0  0
  145.8297  143.9953  154.7010 H   0  0  0  0  0  0  0  0  0  0  0  0
  145.4523  143.2676  156.2793 H   0  0  0  0  0  0  0  0  0  0  0  0
  149.6966  142.2780  156.0112 H   0  0  0  0  0  0  0  0  0  0  0  0
  150.3762  140.0877  155.0018 H   0  0  0  0  0  0  0  0  0  0  0  0
  148.6798  138.7381  153.8104 H   0  0  0  0  0  0  0  0  0  0  0  0
  145.2310  140.1012  153.1992 H   0  0  0  0  0  0  0  0  0  0  0  0
  144.0906  138.7300  152.4060 H   0  0  0  0  0  0  0  0  0  0  0  0
  143.4370  136.7923  151.3853 H   0  0  0  0  0  0  0  0  0  0  0  0
  144.8256  135.6329  153.8565 H   0  0  0  0  0  0  0  0  0  0  0  0
  143.1442  136.0983  153.7542 H   0  0  0  0  0  0  0  0  0  0  0  0
  143.4218  133.6491  153.4935 H   0  0  0  0  0  0  0  0  0  0  0  0
  142.7091  134.3479  152.0551 H   0  0  0  0  0  0  0  0  0  0  0  0
  145.4442  131.8440  151.1982 H   0  0  0  0  0  0  0  0  0  0  0  0
  144.0100  131.7824  152.1975 H   0  0  0  0  0  0  0  0  0  0  0  0
  141.5434  132.0935  150.2210 H   0  0  0  0  0  0  0  0  0  0  0  0
  145.8913  134.2158  150.1111 H   0  0  0  0  0  0  0  0  0  0  0  0
  144.2059  134.6843  149.9921 H   0  0  0  0  0  0  0  0  0  0  0  0
  145.6440  136.6848  150.2950 H   0  0  0  0  0  0  0  0  0  0  0  0
  146.3622  135.9932  151.7311 H   0  0  0  0  0  0  0  0  0  0  0  0
  145.5512  133.7178  152.4029 H   0  0  0  0  0  0  0  0  0  0  0  0
  1  2  1  0  0  0  0
  1 23  1  0  0  0  0
  1 24  1  0  0  0  0
  1 25  1  0  0  0  0
  2  3  1  0  0  0  0
  3  8  1  0  0  0  0
  3  4  2  0  0  0  0
  4  5  1  0  0  0  0
  5  6  2  0  0  0  0
  5 26  1  0  0  0  0
  6  7  1  0  0  0  0
  6 27  1  0  0  0  0
  7  8  2  0  0  0  0
  7 28  1  0  0  0  0
  8  9  1  0  0  0  0
  9 10  1  0  0  0  0
  9 29  1  0  0  0  0
 10 11  2  0  0  0  0
 10 12  1  0  0  0  0
 12 13  1  0  0  0  0
 12 30  1  0  0  0  0
 13 22  1  0  0  0  0
 13 14  1  0  0  0  0
 13 31  1  0  0  0  0
 14 15  1  0  0  0  0
 14 32  1  0  0  0  0
 14 33  1  0  0  0  0
 15 16  1  0  0  0  0
 15 34  1  0  0  0  0
 15 35  1  0  0  0  0
 16 17  1  0  0  0  0
 16 21  1  0  0  0  0
 16 43  1  0  0  0  0
 17 18  1  0  0  0  0
 17 36  1  0  0  0  0
 17 37  1  0  0  0  0
 18 19  1  0  0  0  0
 18 20  2  0  0  0  0
 19 38  1  0  0  0  0
 21 22  1  0  0  0  0
 21 39  1  0  0  0  0
 21 40  1  0  0  0  0
 22 41  1  0  0  0  0
 22 42  1  0  0  0  0
M  CHG  1  16   1
M  CHG  1  19  -1
M  END
> <s_m_source_file>
AV-unprocessed.smi

> <i_m_source_file_index>
1428

> <i_lp_mmshare_version>
43012

> <i_f3d_flags>
0

> <s_epik_input>
W0NIM11PYzFuW2NIXVtjSF1bY0hdYzFbTkhdQyg9TylbTkhdW0NIXTJbQ0gyXVtDSDJdTihbQ0gyXVtDSDJdMilbQ0gyXUMoPU8pW05IMl0=

> <s_epik_cmdline>
J2VwaWtfcHl0aG9uJywgJy1waCcsICc3LjAnLCAnLXRuJywgJzgnLCAnLW1hJywgJzIwMCcsICctbWV0YWxfYmluZGluZycsICctaW1hZScsICc8aW5maWxlLm1hZT4nLCAnLW9tYWUnLCAnPG91dGZpbGUubWFlPic=

> <r_lp_tautomer_probability>
1

> <r_epik_Ionization_Penalty>
5.72888

> <r_epik_Ionization_Penalty_Charging>
5.7288

> <r_epik_Ionization_Penalty_Neutral>
7.84403e-05

> <r_epik_State_Penalty>
6.54882

> <r_epik_Charging_Adjusted_Penalty>
12.2776

> <i_epik_Tot_Q>
0

> <i_epik_Tot_abs_Q>
2

> <r_epik_Metal_State_Penalty>
2.51301

> <b_epik_Metal_Only>
1

> <s_lp_Force_Field>
OPLS_2005

> <r_lp_Energy>
10.0981

> <b_lp_Chiralities_Consistent>
1

> <s_lp_Variant>
AV-unprocessed.smi:1428-4

> <Gold.Version>
5.8.1

> <Gold.Id.Protein>
6NUR|6NUR_protein|mol2

> <Gold.PLP.Fitness>
42.8786

> <Gold.PLP.PLP>
-31.2423

> <Gold.PLP.part.hbond>
-5.4115

> <Gold.PLP.part.metal>
0.0000

> <Gold.PLP.part.buried>
-3.6476

> <Gold.PLP.part.nonpolar>
-27.6499

> <Gold.PLP.part.repulsive>
5.1400

> <Gold.PLP.ligand.clash>
0.0000

> <Gold.PLP.ligand.torsion>
0.4137

> <Gold.PLP.Chemscore.Hbond>
3.7040

> <Gold.PLP.Chemscore.CHOScore>
0.4397

> <Gold.PLP.Chemscore.Metal>
0.0000

> <Gold.Chemscore.Hbonds>
donor molecule, donor type, donor heavy atom, donor atom, acceptor molecule, acceptor atom, score
      L1  H     9    29       P1 10175  1.00
      L1  H    12    30       P1 10175  1.00
      L1  H    19    38       P1 10952  1.00
      P1  H 10785 10796       L1    20  0.66
      L1  C     5    26       P1  8028  0.41

> <Gold.PLP.Chemscore.Internal.Correction>
0.0326

> <Gold.Rescore>
     Score         DG    S(hbond)    S(metal)    S(lipo)     H(rot)  DE(clash)    DE(int)     intcor
     12.27     -15.82       2.94        0.00      54.66       2.29       0.94       2.61       ----

> <Gold.Chemscore.Fitness>
12.2668

> <Gold.Chemscore.DG>
-15.8230

> <Gold.Chemscore.ZeroCoef>
-5.4800

> <Gold.Chemscore.Hbond>
2.9366

> <Gold.Chemscore.Metal>
0.0000

> <Gold.Chemscore.Lipo>
54.6633

> <Gold.Chemscore.Internal_Hbond>
0.0000

> <Gold.Chemscore.DEClash>
0.9419

> <Gold.Chemscore.DEInternal>
2.6143

> <Gold.Chemscore.Rot>
2.2894

> <Gold.Chemscore.Internal.Correction>
   9.000000E+99

> <Gold.Chemscore.Hbonds>
donor molecule, donor type, donor heavy atom, donor atom, acceptor molecule, acceptor atom, score
      L1  H     9    29       P1 10175  0.99
      L1  H    12    30       P1 10175  0.97
      L1  H    19    38       P1 10952  0.47
      P1  H 10785 10796       L1    20  0.41

> <Gold.Chemscore.Hbond.Weighted>
-9.8082

> <Gold.Chemscore.Metal.Weighted>
-0.0000

> <Gold.Chemscore.Lipo.Weighted>
-6.3956

> <Gold.Chemscore.Internal_Hbond.Weighted>
0.0000

> <Gold.Chemscore.DEClash.Weighted>
0.9419

> <Gold.Chemscore.DEInternal.Weighted>
2.6143

> <Gold.Chemscore.Rot.Weighted>
5.8608

> <Gold.Chemscore.Internal.Correction.Weighted>
   9.000000E+99

> <Gold.Protein.RotatedTorsions>
[ 6907 6896 6895 6894 ] final  -24.53 input  -60.11 | X-H torsion
[ 7974 7965 7964 7962 ] final  -67.15 input  175.53 | X-H torsion
[ 8008 7997 7996 7995 ] final  -22.59 input   59.86 | X-H torsion
[ 10167 10162 10161 10158 ] final   90.66 input  -65.29 | X-H torsion
[ 10718 10713 10712 10709 ] final  -11.14 input   66.30 | X-H torsion
[ 10763 10752 10751 10750 ] final   40.06 input  -60.55 | X-H torsion
[ 11005 11000 10999 10996 ] final   24.26 input  -57.11 | X-H torsion

> <Gold.Protein.ActiveResidues>
 VAL166  LYS551  ARG553  GLY616  TRP617  ASP618  TYR619  PRO620  LYS621  CYS622 
 ASP623  PHE694  ASN695  SER759  ASP760  ASP761  ALA762  ILE779  LEU786  VAL792 
 PHE793  MET794  SER795  GLU796  ALA797  LYS798  CYS799  TRP800  GLU811  SER814 

> <Gold.Protein.RotatedAtoms>
  151.1883  135.0391  159.8821 H   0  0  0  0  0  0  0  0  0  0  0  0  # atno 6907 bound_to 6896
  152.5441  134.0985  159.8318 H   0  0  0  0  0  0  0  0  0  0  0  0  # atno 6908 bound_to 6896
  151.1111  133.5125  159.2638 H   0  0  0  0  0  0  0  0  0  0  0  0  # atno 6909 bound_to 6896
  145.7328  140.8989  143.0571 H   0  0  0  0  0  0  0  0  0  0  0  0  # atno 7974 bound_to 7965
  154.4635  140.2003  156.0181 H   0  0  0  0  0  0  0  0  0  0  0  0  # atno 8008 bound_to 7997
  156.0884  140.3261  155.7754 H   0  0  0  0  0  0  0  0  0  0  0  0  # atno 8009 bound_to 7997
  155.4997  140.0553  157.2932 H   0  0  0  0  0  0  0  0  0  0  0  0  # atno 8010 bound_to 7997
  139.8451  144.6621  150.9236 H   0  0  0  0  0  0  0  0  0  0  0  0  # atno 10167 bound_to 10162
  156.6633  130.4988  149.6023 H   0  0  0  0  0  0  0  0  0  0  0  0  # atno 10718 bound_to 10713
  152.9948  135.6202  154.2565 H   0  0  0  0  0  0  0  0  0  0  0  0  # atno 10763 bound_to 10752
  154.2302  135.2792  155.2894 H   0  0  0  0  0  0  0  0  0  0  0  0  # atno 10764 bound_to 10752
  154.5455  135.5748  153.6935 H   0  0  0  0  0  0  0  0  0  0  0  0  # atno 10765 bound_to 10752
  140.3606  134.2130  155.7672 H   0  0  0  0  0  0  0  0  0  0  0  0  # atno 11005 bound_to 11000
  144.6889  139.9354  143.7473 LP  0  0  0  0  0  0  0  0  0  0  0  0  # atno 17320 bound_to 7965
  146.0521  139.3521  143.0633 LP  0  0  0  0  0  0  0  0  0  0  0  0  # atno 17321 bound_to 7965
  140.7794  143.3877  151.1364 LP  0  0  0  0  0  0  0  0  0  0  0  0  # atno 17342 bound_to 10162
  139.7520  143.8764  152.3079 LP  0  0  0  0  0  0  0  0  0  0  0  0  # atno 17343 bound_to 10162
  156.1994  130.6610  151.1150 LP  0  0  0  0  0  0  0  0  0  0  0  0  # atno 17370 bound_to 10713
  157.7102  131.0738  150.6527 LP  0  0  0  0  0  0  0  0  0  0  0  0  # atno 17371 bound_to 10713
  141.1985  133.8033  157.0579 LP  0  0  0  0  0  0  0  0  0  0  0  0  # atno 17394 bound_to 11000
  140.0630  134.9744  157.1337 LP  0  0  0  0  0  0  0  0  0  0  0  0  # atno 17395 bound_to 11000

$$$$
