AV-unprocessed.smi:1583|AV-procd|sdf|6364|dock8
  -GOLD-   22720 6593D 1   1.00000     0.00000
 Structure written by MMmdl.
 37 38  0  0  0  0  0  0  0  0  2 V2000
  146.9169  139.7035  152.0917 C   0  0  0  0  0  0  0  0  0  0  0  0
  147.6941  140.3616  153.1308 N   0  0  0  0  0  0  0  0  0  0  0  0
  147.2149  141.3187  153.9385 C   0  0  0  0  0  0  0  0  0  0  0  0
  146.0601  141.7401  153.8794 O   0  0  0  0  0  0  0  0  0  0  0  0
  148.1868  141.8969  154.9636 C   0  0  0  0  0  0  0  0  0  0  0  0
  149.7673  141.0077  155.0045 S   0  0  0  0  0  0  0  0  0  0  0  0
  150.6294  141.6374  156.4090 C   0  0  0  0  0  0  0  0  0  0  0  0
  150.7447  142.9492  156.7566 N   0  3  0  0  0  0  0  0  0  0  0  0
  151.5065  143.0577  157.9210 C   0  0  0  0  0  0  0  0  0  0  0  0
  151.8974  144.1744  158.6534 C   0  0  0  0  0  0  0  0  0  0  0  0
  152.6825  143.9355  159.8006 C   0  0  0  0  0  0  0  0  0  0  0  0
  153.0494  142.6279  160.1808 C   0  0  0  0  0  0  0  0  0  0  0  0
  152.6466  141.5031  159.4311 C   0  0  0  0  0  0  0  0  0  0  0  0
  151.8701  141.7478  158.2990 C   0  0  0  0  0  0  0  0  0  0  0  0
  151.3036  140.9034  157.3382 N   0  0  0  0  0  0  0  0  0  0  0  0
  151.5073  139.4520  157.4454 C   0  0  0  0  0  0  0  0  0  0  0  0
  152.1781  138.8645  156.1953 C   0  0  0  0  0  0  0  0  0  0  0  0
  153.5406  138.5849  156.4737 O   0  0  0  0  0  0  0  0  0  0  0  0
  153.6983  137.6374  157.5148 C   0  0  0  0  0  0  0  0  0  0  0  0
  147.5278  138.9537  151.5887 H   0  0  0  0  0  0  0  0  0  0  0  0
  146.5780  140.4240  151.3459 H   0  0  0  0  0  0  0  0  0  0  0  0
  146.0447  139.2041  152.5157 H   0  0  0  0  0  0  0  0  0  0  0  0
  148.6540  140.0692  153.2458 H   0  0  0  0  0  0  0  0  0  0  0  0
  148.3715  142.9470  154.7345 H   0  0  0  0  0  0  0  0  0  0  0  0
  147.7339  141.8594  155.9551 H   0  0  0  0  0  0  0  0  0  0  0  0
  151.6186  145.1771  158.3639 H   0  0  0  0  0  0  0  0  0  0  0  0
  153.0105  144.7720  160.4006 H   0  0  0  0  0  0  0  0  0  0  0  0
  153.6526  142.4844  161.0656 H   0  0  0  0  0  0  0  0  0  0  0  0
  152.9340  140.5057  159.7297 H   0  0  0  0  0  0  0  0  0  0  0  0
  152.0925  139.2418  158.3411 H   0  0  0  0  0  0  0  0  0  0  0  0
  150.5324  138.9884  157.5979 H   0  0  0  0  0  0  0  0  0  0  0  0
  151.6667  137.9503  155.8903 H   0  0  0  0  0  0  0  0  0  0  0  0
  152.1009  139.5718  155.3686 H   0  0  0  0  0  0  0  0  0  0  0  0
  154.7593  137.4598  157.6906 H   0  0  0  0  0  0  0  0  0  0  0  0
  153.2361  136.6845  157.2542 H   0  0  0  0  0  0  0  0  0  0  0  0
  153.2585  137.9973  158.4458 H   0  0  0  0  0  0  0  0  0  0  0  0
  150.3339  143.7114  156.2335 H   0  0  0  0  0  0  0  0  0  0  0  0
  1  2  1  0  0  0  0
  1 20  1  0  0  0  0
  1 21  1  0  0  0  0
  1 22  1  0  0  0  0
  2  3  1  0  0  0  0
  2 23  1  0  0  0  0
  3  4  2  0  0  0  0
  3  5  1  0  0  0  0
  5  6  1  0  0  0  0
  5 24  1  0  0  0  0
  5 25  1  0  0  0  0
  6  7  1  0  0  0  0
  7 15  1  0  0  0  0
  7  8  2  0  0  0  0
  8  9  1  0  0  0  0
  8 37  1  0  0  0  0
  9 14  2  0  0  0  0
  9 10  1  0  0  0  0
 10 11  2  0  0  0  0
 10 26  1  0  0  0  0
 11 12  1  0  0  0  0
 11 27  1  0  0  0  0
 12 13  2  0  0  0  0
 12 28  1  0  0  0  0
 13 14  1  0  0  0  0
 13 29  1  0  0  0  0
 14 15  1  0  0  0  0
 15 16  1  0  0  0  0
 16 17  1  0  0  0  0
 16 30  1  0  0  0  0
 16 31  1  0  0  0  0
 17 18  1  0  0  0  0
 17 32  1  0  0  0  0
 17 33  1  0  0  0  0
 18 19  1  0  0  0  0
 19 34  1  0  0  0  0
 19 35  1  0  0  0  0
 19 36  1  0  0  0  0
M  CHG  1   8   1
M  END
> <s_m_source_file>
AV-unprocessed.smi

> <i_m_source_file_index>
1583

> <i_lp_mmshare_version>
43012

> <i_f3d_flags>
0

> <s_epik_input>
W0NIM11bTkhdQyg9TylbQ0gyXVNjKG4xKW4oW0NIMl1bQ0gyXU9bQ0gzXSljKGMxMilbY0hdW2NIXVtjSF1bY0hdMg==

> <s_epik_cmdline>
J2VwaWtfcHl0aG9uJywgJy1waCcsICc3LjAnLCAnLXRuJywgJzgnLCAnLW1hJywgJzIwMCcsICctbWV0YWxfYmluZGluZycsICctaW1hZScsICc8aW5maWxlLm1hZT4nLCAnLW9tYWUnLCAnPG91dGZpbGUubWFlPic=

> <r_epik_Ionization_Penalty>
1.68337

> <r_epik_Ionization_Penalty_Charging>
1.68337

> <r_epik_Ionization_Penalty_Neutral>
1.65978e-07

> <r_epik_State_Penalty>
1.78799

> <r_epik_Charging_Adjusted_Penalty>
3.47136

> <i_epik_Tot_Q>
1

> <i_epik_Tot_abs_Q>
1

> <r_epik_Metal_State_Penalty>
1.82204

> <b_epik_Metal_Only>
0

> <s_lp_Force_Field>
OPLS_2005

> <r_lp_Energy>
8.62321

> <b_lp_Chiralities_Consistent>
1

> <s_lp_Variant>
AV-unprocessed.smi:1583-2

> <Gold.Version>
5.8.1

> <Gold.Id.Protein>
6NUR|6NUR_protein|mol2

> <Gold.PLP.Fitness>
48.0296

> <Gold.PLP.PLP>
-40.2720

> <Gold.PLP.part.hbond>
-2.9722

> <Gold.PLP.part.metal>
0.0000

> <Gold.PLP.part.buried>
0.0650

> <Gold.PLP.part.nonpolar>
-38.5354

> <Gold.PLP.part.repulsive>
0.6650

> <Gold.PLP.ligand.clash>
0.0000

> <Gold.PLP.ligand.torsion>
0.5782

> <Gold.PLP.Chemscore.Hbond>
2.9576

> <Gold.PLP.Chemscore.CHOScore>
0.0000

> <Gold.PLP.Chemscore.Metal>
0.0000

> <Gold.Chemscore.Hbonds>
donor molecule, donor type, donor heavy atom, donor atom, acceptor molecule, acceptor atom, score
      L1  H     2    23       P1  7957  0.05
      L1  H     8    37       P1  8028  2.00
      P1  H  7997  8008       L1    18  0.85

> <Gold.PLP.Chemscore.Internal.Correction>
0.0412

> <Gold.Rescore>
     Score         DG    S(hbond)    S(metal)    S(lipo)     H(rot)  DE(clash)    DE(int)     intcor
     16.42     -18.97       2.06        0.00     105.82       2.25       1.86       0.69       ----

> <Gold.Chemscore.Fitness>
16.4240

> <Gold.Chemscore.DG>
-18.9680

> <Gold.Chemscore.ZeroCoef>
-5.4800

> <Gold.Chemscore.Hbond>
2.0597

> <Gold.Chemscore.Metal>
0.0000

> <Gold.Chemscore.Lipo>
105.8163

> <Gold.Chemscore.Internal_Hbond>
0.0000

> <Gold.Chemscore.DEClash>
1.8573

> <Gold.Chemscore.DEInternal>
0.6866

> <Gold.Chemscore.Rot>
2.2546

> <Gold.Chemscore.Internal.Correction>
   9.000000E+99

> <Gold.Chemscore.Hbonds>
donor molecule, donor type, donor heavy atom, donor atom, acceptor molecule, acceptor atom, score
      L1  H     2    23       P1  7957  0.05
      L1  H     8    37       P1  8028  0.97
      P1  H  7997  8008       L1    18  0.51

> <Gold.Chemscore.Hbond.Weighted>
-6.8794

> <Gold.Chemscore.Metal.Weighted>
-0.0000

> <Gold.Chemscore.Lipo.Weighted>
-12.3805

> <Gold.Chemscore.Internal_Hbond.Weighted>
0.0000

> <Gold.Chemscore.DEClash.Weighted>
1.8573

> <Gold.Chemscore.DEInternal.Weighted>
0.6866

> <Gold.Chemscore.Rot.Weighted>
5.7719

> <Gold.Chemscore.Internal.Correction.Weighted>
   9.000000E+99

> <Gold.Protein.RotatedTorsions>
[ 6907 6896 6895 6894 ] final -174.31 input  -60.11 | X-H torsion
[ 7974 7965 7964 7962 ] final -141.61 input  175.53 | X-H torsion
[ 8008 7997 7996 7995 ] final  -51.25 input   59.86 | X-H torsion
[ 10167 10162 10161 10158 ] final  116.17 input  -65.29 | X-H torsion
[ 10718 10713 10712 10709 ] final  100.58 input   66.30 | X-H torsion
[ 10763 10752 10751 10750 ] final -136.08 input  -60.55 | X-H torsion
[ 11005 11000 10999 10996 ] final   41.76 input  -57.11 | X-H torsion

> <Gold.Protein.ActiveResidues>
 VAL166  LYS551  ARG553  GLY616  TRP617  ASP618  TYR619  PRO620  LYS621  CYS622 
 ASP623  PHE694  ASN695  SER759  ASP760  ASP761  ALA762  ILE779  LEU786  VAL792 
 PHE793  MET794  SER795  GLU796  ALA797  LYS798  CYS799  TRP800  GLU811  SER814 

> <Gold.Protein.RotatedAtoms>
  151.5703  133.3391  159.2987 H   0  0  0  0  0  0  0  0  0  0  0  0  # atno 6907 bound_to 6896
  150.8371  134.7652  159.6913 H   0  0  0  0  0  0  0  0  0  0  0  0  # atno 6908 bound_to 6896
  152.4446  134.5528  159.9923 H   0  0  0  0  0  0  0  0  0  0  0  0  # atno 6909 bound_to 6896
  144.8506  140.6058  143.5393 H   0  0  0  0  0  0  0  0  0  0  0  0  # atno 7974 bound_to 7965
  154.4079  140.1252  156.4798 H   0  0  0  0  0  0  0  0  0  0  0  0  # atno 8008 bound_to 7997
  155.7096  140.3494  155.4948 H   0  0  0  0  0  0  0  0  0  0  0  0  # atno 8009 bound_to 7997
  155.9312  140.1070  157.1121 H   0  0  0  0  0  0  0  0  0  0  0  0  # atno 8010 bound_to 7997
  139.6266  144.7109  151.2520 H   0  0  0  0  0  0  0  0  0  0  0  0  # atno 10167 bound_to 10162
  157.6850  131.0702  150.5121 H   0  0  0  0  0  0  0  0  0  0  0  0  # atno 10718 bound_to 10713
  154.8691  135.3684  154.5002 H   0  0  0  0  0  0  0  0  0  0  0  0  # atno 10763 bound_to 10752
  153.5643  135.7022  153.5538 H   0  0  0  0  0  0  0  0  0  0  0  0  # atno 10764 bound_to 10752
  153.3599  135.4049  155.1674 H   0  0  0  0  0  0  0  0  0  0  0  0  # atno 10765 bound_to 10752
  140.1803  134.4112  155.8204 H   0  0  0  0  0  0  0  0  0  0  0  0  # atno 11005 bound_to 11000
  145.4508  139.1524  143.3919 LP  0  0  0  0  0  0  0  0  0  0  0  0  # atno 17320 bound_to 7965
  146.2781  140.4634  142.8787 LP  0  0  0  0  0  0  0  0  0  0  0  0  # atno 17321 bound_to 7965
  140.7414  143.6557  150.8209 LP  0  0  0  0  0  0  0  0  0  0  0  0  # atno 17342 bound_to 10162
  140.0175  143.5577  152.2814 LP  0  0  0  0  0  0  0  0  0  0  0  0  # atno 17343 bound_to 10162
  156.5438  130.4214  149.6141 LP  0  0  0  0  0  0  0  0  0  0  0  0  # atno 17370 bound_to 10713
  156.2962  130.7151  151.2012 LP  0  0  0  0  0  0  0  0  0  0  0  0  # atno 17371 bound_to 10713
  141.2222  133.6997  156.7919 LP  0  0  0  0  0  0  0  0  0  0  0  0  # atno 17394 bound_to 11000
  140.2275  134.8711  157.3442 LP  0  0  0  0  0  0  0  0  0  0  0  0  # atno 17395 bound_to 11000

$$$$
