AV-unprocessed.smi:409|AV-procd|sdf|2505|dock3
  -GOLD-   2262022453D 1   1.00000     0.00000
 Structure written by MMmdl.
 35 36  0  0  0  0  0  0  0  0  1 V2000
  151.0912  140.5447  156.3394 O   0  0  0  0  0  0  0  0  0  0  0  0
  150.3571  141.4344  155.9064 C   0  0  0  0  0  0  0  0  0  0  0  0
  149.4353  141.1777  154.7057 C   0  0  0  0  0  0  0  0  0  0  0  0
  148.0538  141.6258  154.9342 N   0  0  0  0  0  0  0  0  0  0  0  0
  147.3671  142.3124  153.9428 C   0  0  0  0  0  0  0  0  0  0  0  0
  146.0991  142.7640  154.0902 C   0  0  0  0  0  0  0  0  0  0  0  0
  145.3761  142.5418  155.3377 C   0  0  0  0  0  0  0  0  0  0  0  0
  144.2264  142.9105  155.5665 O   0  0  0  0  0  0  0  0  0  0  0  0
  146.1012  141.8497  156.3112 N   0  0  0  0  0  0  0  0  0  0  0  0
  147.4087  141.3829  156.1665 C   0  0  0  0  0  0  0  0  0  0  0  0
  147.9581  140.7863  157.0918 O   0  0  0  0  0  0  0  0  0  0  0  0
  150.2892  142.6596  156.4496 N   0  0  0  0  0  0  0  0  0  0  0  0
  151.0679  143.1202  157.5949 C   0  0  0  0  0  0  0  0  0  0  0  0
  150.1381  143.5675  158.7422 C   0  0  0  0  0  0  0  0  0  0  0  0
  150.9389  144.1287  159.9285 C   0  0  0  0  0  0  0  0  0  0  0  0
  151.8607  145.2764  159.4872 C   0  0  0  0  0  0  0  0  0  0  0  0
  152.7920  144.8324  158.3483 C   0  0  0  0  0  0  0  0  0  0  0  0
  151.9925  144.2732  157.1602 C   0  0  0  0  0  0  0  0  0  0  0  0
  145.6423  141.6749  157.1934 H   0  0  0  0  0  0  0  0  0  0  0  0
  149.8594  141.6871  153.8393 H   0  0  0  0  0  0  0  0  0  0  0  0
  149.4481  140.1162  154.4497 H   0  0  0  0  0  0  0  0  0  0  0  0
  147.8651  142.5042  153.0029 H   0  0  0  0  0  0  0  0  0  0  0  0
  145.6178  143.2938  153.2808 H   0  0  0  0  0  0  0  0  0  0  0  0
  149.6547  143.3261  156.0341 H   0  0  0  0  0  0  0  0  0  0  0  0
  151.6956  142.2999  157.9490 H   0  0  0  0  0  0  0  0  0  0  0  0
  149.4463  144.3300  158.3810 H   0  0  0  0  0  0  0  0  0  0  0  0
  149.5255  142.7311  159.0806 H   0  0  0  0  0  0  0  0  0  0  0  0
  150.2575  144.4769  160.7051 H   0  0  0  0  0  0  0  0  0  0  0  0
  151.5350  143.3319  160.3748 H   0  0  0  0  0  0  0  0  0  0  0  0
  151.2579  146.1235  159.1577 H   0  0  0  0  0  0  0  0  0  0  0  0
  152.4500  145.6275  160.3348 H   0  0  0  0  0  0  0  0  0  0  0  0
  153.4051  145.6727  158.0211 H   0  0  0  0  0  0  0  0  0  0  0  0
  153.4811  144.0709  158.7156 H   0  0  0  0  0  0  0  0  0  0  0  0
  152.6796  143.9301  156.3857 H   0  0  0  0  0  0  0  0  0  0  0  0
  151.4010  145.0750  156.7156 H   0  0  0  0  0  0  0  0  0  0  0  0
  1  2  2  0  0  0  0
  2  3  1  0  0  0  0
  2 12  1  0  0  0  0
  3  4  1  0  0  0  0
  3 20  1  0  0  0  0
  3 21  1  0  0  0  0
  4 10  1  0  0  0  0
  4  5  1  0  0  0  0
  5  6  2  0  0  0  0
  5 22  1  0  0  0  0
  6  7  1  0  0  0  0
  6 23  1  0  0  0  0
  7  8  2  0  0  0  0
  7  9  1  0  0  0  0
  9 19  1  0  0  0  0
  9 10  1  0  0  0  0
 10 11  2  0  0  0  0
 12 13  1  0  0  0  0
 12 24  1  0  0  0  0
 13 18  1  0  0  0  0
 13 14  1  0  0  0  0
 13 25  1  0  0  0  0
 14 15  1  0  0  0  0
 14 26  1  0  0  0  0
 14 27  1  0  0  0  0
 15 16  1  0  0  0  0
 15 28  1  0  0  0  0
 15 29  1  0  0  0  0
 16 17  1  0  0  0  0
 16 30  1  0  0  0  0
 16 31  1  0  0  0  0
 17 18  1  0  0  0  0
 17 32  1  0  0  0  0
 17 33  1  0  0  0  0
 18 34  1  0  0  0  0
 18 35  1  0  0  0  0
M  END
> <s_m_source_file>
AV-unprocessed.smi

> <i_m_source_file_index>
409

> <i_lp_mmshare_version>
43012

> <i_f3d_flags>
0

> <s_epik_input>
W0NIMl0xW0NIMl1bQ0gyXVtDSDJdW0NIMl1bQ0hdMVtOSF1DKD1PKVtDSDJdbjJbY0hdW2NIXWMoPU8pW25IXWMyPU8=

> <s_epik_cmdline>
J2VwaWtfcHl0aG9uJywgJy1waCcsICc3LjAnLCAnLXRuJywgJzgnLCAnLW1hJywgJzIwMCcsICctbWV0YWxfYmluZGluZycsICctaW1hZScsICc8aW5maWxlLm1hZT4nLCAnLW9tYWUnLCAnPG91dGZpbGUubWFlPic=

> <r_lp_tautomer_probability>
0.999537

> <r_epik_Ionization_Penalty>
0.00309578

> <r_epik_Ionization_Penalty_Charging>
0.00309576

> <r_epik_Ionization_Penalty_Neutral>
1.90469e-08

> <r_epik_State_Penalty>
0.00217825

> <r_epik_Charging_Adjusted_Penalty>
0.00527401

> <i_epik_Tot_Q>
0

> <i_epik_Tot_abs_Q>
0

> <r_epik_Metal_State_Penalty>
0.362603

> <b_epik_Metal_Only>
0

> <s_lp_Force_Field>
OPLS_2005

> <r_lp_Energy>
8.21917

> <b_lp_Chiralities_Consistent>
1

> <s_lp_Variant>
AV-unprocessed.smi:409-1

> <Gold.Version>
5.8.1

> <Gold.Id.Protein>
6NUR|6NUR_protein|mol2

> <Gold.PLP.Fitness>
40.9706

> <Gold.PLP.PLP>
-38.6838

> <Gold.PLP.part.hbond>
-1.0000

> <Gold.PLP.part.metal>
0.0000

> <Gold.PLP.part.buried>
-6.1177

> <Gold.PLP.part.nonpolar>
-31.4180

> <Gold.PLP.part.repulsive>
0.2424

> <Gold.PLP.ligand.clash>
0.0000

> <Gold.PLP.ligand.torsion>
0.3595

> <Gold.PLP.Chemscore.Hbond>
1.0000

> <Gold.PLP.Chemscore.CHOScore>
0.0000

> <Gold.PLP.Chemscore.Metal>
0.0000

> <Gold.Chemscore.Hbonds>
donor molecule, donor type, donor heavy atom, donor atom, acceptor molecule, acceptor atom, score
      L1  H    12    24       P1  8028  1.00

> <Gold.PLP.Chemscore.Internal.Correction>
0.0058

> <Gold.Rescore>
     Score         DG    S(hbond)    S(metal)    S(lipo)     H(rot)  DE(clash)    DE(int)     intcor
     13.17     -15.07       0.99        0.00      91.03       1.70       0.31       1.59       ----

> <Gold.Chemscore.Fitness>
13.1690

> <Gold.Chemscore.DG>
-15.0746

> <Gold.Chemscore.ZeroCoef>
-5.4800

> <Gold.Chemscore.Hbond>
0.9879

> <Gold.Chemscore.Metal>
0.0000

> <Gold.Chemscore.Lipo>
91.0335

> <Gold.Chemscore.Internal_Hbond>
0.0000

> <Gold.Chemscore.DEClash>
0.3113

> <Gold.Chemscore.DEInternal>
1.5942

> <Gold.Chemscore.Rot>
1.7015

> <Gold.Chemscore.Internal.Correction>
   9.000000E+99

> <Gold.Chemscore.Hbonds>
donor molecule, donor type, donor heavy atom, donor atom, acceptor molecule, acceptor atom, score
      L1  H    12    24       P1  8028  0.99

> <Gold.Chemscore.Hbond.Weighted>
-3.2996

> <Gold.Chemscore.Metal.Weighted>
-0.0000

> <Gold.Chemscore.Lipo.Weighted>
-10.6509

> <Gold.Chemscore.Internal_Hbond.Weighted>
0.0000

> <Gold.Chemscore.DEClash.Weighted>
0.3113

> <Gold.Chemscore.DEInternal.Weighted>
1.5942

> <Gold.Chemscore.Rot.Weighted>
4.3559

> <Gold.Chemscore.Internal.Correction.Weighted>
   9.000000E+99

> <Gold.Protein.RotatedTorsions>
[ 6907 6896 6895 6894 ] final  -33.97 input  -60.11 | X-H torsion
[ 7974 7965 7964 7962 ] final  -17.83 input  175.53 | X-H torsion
[ 8008 7997 7996 7995 ] final  -29.03 input   59.86 | X-H torsion
[ 10167 10162 10161 10158 ] final   39.33 input  -65.29 | X-H torsion
[ 10718 10713 10712 10709 ] final  -28.28 input   66.30 | X-H torsion
[ 10763 10752 10751 10750 ] final  125.70 input  -60.55 | X-H torsion
[ 11005 11000 10999 10996 ] final  -15.11 input  -57.11 | X-H torsion

> <Gold.Protein.ActiveResidues>
 VAL166  LYS551  ARG553  GLY616  TRP617  ASP618  TYR619  PRO620  LYS621  CYS622 
 ASP623  PHE694  ASN695  SER759  ASP760  ASP761  ALA762  ILE779  LEU786  VAL792 
 PHE793  MET794  SER795  GLU796  ALA797  LYS798  CYS799  TRP800  GLU811  SER814 

> <Gold.Protein.RotatedAtoms>
  151.0587  134.9722  159.8248 H   0  0  0  0  0  0  0  0  0  0  0  0  # atno 6907 bound_to 6896
  152.5392  134.2445  159.8885 H   0  0  0  0  0  0  0  0  0  0  0  0  # atno 6908 bound_to 6896
  151.2464  133.4330  159.2643 H   0  0  0  0  0  0  0  0  0  0  0  0  # atno 6909 bound_to 6896
  146.1922  140.3835  142.8454 H   0  0  0  0  0  0  0  0  0  0  0  0  # atno 7974 bound_to 7965
  154.4307  140.1829  156.1184 H   0  0  0  0  0  0  0  0  0  0  0  0  # atno 8008 bound_to 7997
  156.0163  140.3345  155.6966 H   0  0  0  0  0  0  0  0  0  0  0  0  # atno 8009 bound_to 7997
  155.6040  140.0643  157.2715 H   0  0  0  0  0  0  0  0  0  0  0  0  # atno 8010 bound_to 7997
  140.3850  144.1929  150.6130 H   0  0  0  0  0  0  0  0  0  0  0  0  # atno 10167 bound_to 10162
  156.4273  130.4438  149.7142 H   0  0  0  0  0  0  0  0  0  0  0  0  # atno 10718 bound_to 10713
  153.6815  135.3313  155.3179 H   0  0  0  0  0  0  0  0  0  0  0  0  # atno 10763 bound_to 10752
  154.8464  135.4410  154.1602 H   0  0  0  0  0  0  0  0  0  0  0  0  # atno 10764 bound_to 10752
  153.2619  135.6992  153.7646 H   0  0  0  0  0  0  0  0  0  0  0  0  # atno 10765 bound_to 10752
  140.7933  133.8271  155.9400 H   0  0  0  0  0  0  0  0  0  0  0  0  # atno 11005 bound_to 11000
  144.8508  140.6999  143.6169 LP  0  0  0  0  0  0  0  0  0  0  0  0  # atno 17320 bound_to 7965
  145.3758  139.1648  143.4307 LP  0  0  0  0  0  0  0  0  0  0  0  0  # atno 17321 bound_to 7965
  140.4899  143.2351  151.8834 LP  0  0  0  0  0  0  0  0  0  0  0  0  # atno 17342 bound_to 10162
  139.4792  144.5177  151.8844 LP  0  0  0  0  0  0  0  0  0  0  0  0  # atno 17343 bound_to 10162
  156.4059  130.7698  151.2708 LP  0  0  0  0  0  0  0  0  0  0  0  0  # atno 17370 bound_to 10713
  157.7508  131.0226  150.3798 LP  0  0  0  0  0  0  0  0  0  0  0  0  # atno 17371 bound_to 10713
  140.9368  134.1952  157.4826 LP  0  0  0  0  0  0  0  0  0  0  0  0  # atno 17394 bound_to 11000
  139.8729  134.9855  156.5286 LP  0  0  0  0  0  0  0  0  0  0  0  0  # atno 17395 bound_to 11000

$$$$
