AV-unprocessed.smi:15|AV-procd|sdf|79|dock7
  -GOLD-   2262015213D 1   1.00000     0.00000
 Structure written by MMmdl.
 53 56  0  0  0  0  0  0  0  0  1 V2000
  151.5252  138.4501  155.2293 C   0  0  0  0  0  0  0  0  0  0  0  0
  150.5051  139.5105  155.6735 C   0  0  0  0  0  0  0  0  0  0  0  0
  150.7054  139.9699  157.0481 N   0  0  0  0  0  0  0  0  0  0  0  0
  150.2183  141.3084  157.3719 C   0  0  0  0  0  0  0  0  0  0  0  0
  150.8697  141.8707  158.6447 C   0  0  2  0  0  0  0  0  0  0  0  0
  151.0970  143.3827  158.6161 C   0  0  0  0  0  0  0  0  0  0  0  0
  152.3062  143.5870  159.5171 C   0  0  0  0  0  0  0  0  0  0  0  0
  152.8412  142.1726  159.7553 C   0  0  0  0  0  0  0  0  0  0  0  0
  152.1880  141.3674  158.7849 O   0  0  0  0  0  0  0  0  0  0  0  0
  150.3753  139.0670  157.9967 C   0  0  0  0  0  0  0  0  0  0  0  0
  151.3635  138.6396  158.8201 N   0  0  0  0  0  0  0  0  0  0  0  0
  151.0919  137.7500  159.7801 C   0  0  0  0  0  0  0  0  0  0  0  0
  149.9234  137.1803  160.0848 N   0  0  0  0  0  0  0  0  0  0  0  0
  148.9276  137.6164  159.2609 C   0  0  0  0  0  0  0  0  0  0  0  0
  149.0651  138.5500  158.1963 C   0  0  0  0  0  0  0  0  0  0  0  0
  147.8375  138.7511  157.5779 N   0  0  0  0  0  0  0  0  0  0  0  0
  147.0196  137.9790  158.2397 C   0  0  0  0  0  0  0  0  0  0  0  0
  147.5877  137.2701  159.2751 N   0  0  0  0  0  0  0  0  0  0  0  0
  146.9098  136.3513  160.1775 C   0  0  0  0  0  0  0  0  0  0  0  0
  145.8552  137.0429  161.0811 C   0  0  1  0  0  0  0  0  0  0  0  0
  146.5132  138.0501  161.8309 O   0  0  0  0  0  0  0  0  0  0  0  0
  144.7239  137.7068  160.2984 C   0  0  0  0  0  0  0  0  0  0  0  0
  143.5449  137.6209  161.2553 C   0  0  0  0  0  0  0  0  0  0  0  0
  143.7117  136.3343  161.8230 O   0  0  0  0  0  0  0  0  0  0  0  0
  145.0971  136.1289  162.0859 C   0  0  1  0  0  0  0  0  0  0  0  0
  145.3744  134.6198  162.0006 C   0  0  0  0  0  0  0  0  0  0  0  0
  151.3727  138.1861  154.1827 H   0  0  0  0  0  0  0  0  0  0  0  0
  151.4380  137.5332  155.8129 H   0  0  0  0  0  0  0  0  0  0  0  0
  152.5456  138.8200  155.3328 H   0  0  0  0  0  0  0  0  0  0  0  0
  150.5762  140.3655  155.0016 H   0  0  0  0  0  0  0  0  0  0  0  0
  149.4933  139.1203  155.5599 H   0  0  0  0  0  0  0  0  0  0  0  0
  150.4317  141.9704  156.5318 H   0  0  0  0  0  0  0  0  0  0  0  0
  149.1333  141.3076  157.4934 H   0  0  0  0  0  0  0  0  0  0  0  0
  150.3015  141.5911  159.5333 H   0  0  0  0  0  0  0  0  0  0  0  0
  151.3384  143.7106  157.6040 H   0  0  0  0  0  0  0  0  0  0  0  0
  150.2205  143.9407  158.9465 H   0  0  0  0  0  0  0  0  0  0  0  0
  153.0490  144.2145  159.0235 H   0  0  0  0  0  0  0  0  0  0  0  0
  152.0360  144.0651  160.4593 H   0  0  0  0  0  0  0  0  0  0  0  0
  153.9252  142.1111  159.6575 H   0  0  0  0  0  0  0  0  0  0  0  0
  152.5689  141.8228  160.7522 H   0  0  0  0  0  0  0  0  0  0  0  0
  151.9306  137.4533  160.3925 H   0  0  0  0  0  0  0  0  0  0  0  0
  145.9699  137.9114  157.9939 H   0  0  0  0  0  0  0  0  0  0  0  0
  146.4407  135.5801  159.5659 H   0  0  0  0  0  0  0  0  0  0  0  0
  147.6639  135.8486  160.7847 H   0  0  0  0  0  0  0  0  0  0  0  0
  146.3748  137.8791  162.7501 H   0  0  0  0  0  0  0  0  0  0  0  0
  144.9446  138.7260  159.9776 H   0  0  0  0  0  0  0  0  0  0  0  0
  144.4908  137.1221  159.4076 H   0  0  0  0  0  0  0  0  0  0  0  0
  143.6108  138.3826  162.0338 H   0  0  0  0  0  0  0  0  0  0  0  0
  142.5831  137.7183  160.7516 H   0  0  0  0  0  0  0  0  0  0  0  0
  145.2859  136.4540  163.1110 H   0  0  0  0  0  0  0  0  0  0  0  0
  146.4220  134.3954  162.2002 H   0  0  0  0  0  0  0  0  0  0  0  0
  145.1183  134.2193  161.0196 H   0  0  0  0  0  0  0  0  0  0  0  0
  144.7797  134.0791  162.7373 H   0  0  0  0  0  0  0  0  0  0  0  0
  1  2  1  0  0  0  0
  1 27  1  0  0  0  0
  1 28  1  0  0  0  0
  1 29  1  0  0  0  0
  2  3  1  0  0  0  0
  2 30  1  0  0  0  0
  2 31  1  0  0  0  0
  3  4  1  0  0  0  0
  3 10  1  0  0  0  0
  4  5  1  0  0  0  0
  4 32  1  0  0  0  0
  4 33  1  0  0  0  0
  5  9  1  0  0  0  0
  5  6  1  0  0  0  0
  5 34  1  0  0  0  0
  6  7  1  0  0  0  0
  6 35  1  0  0  0  0
  6 36  1  0  0  0  0
  7  8  1  0  0  0  0
  7 37  1  0  0  0  0
  7 38  1  0  0  0  0
  8  9  1  0  0  0  0
  8 39  1  0  0  0  0
  8 40  1  0  0  0  0
 10 15  1  0  0  0  0
 10 11  2  0  0  0  0
 11 12  1  0  0  0  0
 12 13  2  0  0  0  0
 12 41  1  0  0  0  0
 13 14  1  0  0  0  0
 14 18  1  0  0  0  0
 14 15  2  0  0  0  0
 15 16  1  0  0  0  0
 16 17  2  0  0  0  0
 17 18  1  0  0  0  0
 17 42  1  0  0  0  0
 18 19  1  0  0  0  0
 19 20  1  0  0  0  0
 19 43  1  0  0  0  0
 19 44  1  0  0  0  0
 20 25  1  0  0  0  0
 20 21  1  0  0  0  0
 20 22  1  0  0  0  0
 21 45  1  0  0  0  0
 22 23  1  0  0  0  0
 22 46  1  0  0  0  0
 22 47  1  0  0  0  0
 23 24  1  0  0  0  0
 23 48  1  0  0  0  0
 23 49  1  0  0  0  0
 24 25  1  0  0  0  0
 25 26  1  0  0  0  0
 25 50  1  0  0  0  0
 26 51  1  0  0  0  0
 26 52  1  0  0  0  0
 26 53  1  0  0  0  0
M  END
> <s_m_source_file>
AV-unprocessed.smi

> <i_m_source_file_index>
15

> <i_lp_mmshare_version>
43012

> <i_f3d_flags>
0

> <s_epik_input>
TzFbQ0gyXVtDSDJdW0NIMl1bQ0BIXTFbQ0gyXU4oW0NIMl1bQ0gzXSljKG5bY0hdbjIpYyhjMjMpbltjSF1uM1tDSDJdW0NAQF00KFtPSF0pW0NIMl1bQ0gyXU9bQ0BIXTRbQ0gzXQ==

> <s_epik_cmdline>
J2VwaWtfcHl0aG9uJywgJy1waCcsICc3LjAnLCAnLXRuJywgJzgnLCAnLW1hJywgJzIwMCcsICctbWV0YWxfYmluZGluZycsICctaW1hZScsICc8aW5maWxlLm1hZT4nLCAnLW9tYWUnLCAnPG91dGZpbGUubWFlPic=

> <r_lp_tautomer_probability>
1

> <r_epik_Ionization_Penalty>
0.00360814

> <r_epik_Ionization_Penalty_Charging>
0

> <r_epik_Ionization_Penalty_Neutral>
0.00360814

> <r_epik_State_Penalty>
0.00237482

> <r_epik_Charging_Adjusted_Penalty>
0.00237482

> <i_epik_Tot_Q>
0

> <i_epik_Tot_abs_Q>
0

> <r_epik_Metal_State_Penalty>
-0

> <b_epik_Metal_Only>
0

> <s_lp_Force_Field>
OPLS_2005

> <r_lp_Energy>
46.4206

> <b_lp_Chiralities_Consistent>
1

> <s_lp_Variant>
AV-unprocessed.smi:15-1

> <Gold.Version>
5.8.1

> <Gold.Id.Protein>
6NUR|6NUR_protein|mol2

> <Gold.PLP.Fitness>
51.2503

> <Gold.PLP.PLP>
-45.4543

> <Gold.PLP.part.hbond>
-2.7682

> <Gold.PLP.part.metal>
0.0000

> <Gold.PLP.part.buried>
-7.0717

> <Gold.PLP.part.nonpolar>
-36.4908

> <Gold.PLP.part.repulsive>
0.0000

> <Gold.PLP.ligand.clash>
0.0000

> <Gold.PLP.ligand.torsion>
0.8714

> <Gold.PLP.Chemscore.Hbond>
2.3609

> <Gold.PLP.Chemscore.CHOScore>
0.0000

> <Gold.PLP.Chemscore.Metal>
0.0000

> <Gold.Chemscore.Hbonds>
donor molecule, donor type, donor heavy atom, donor atom, acceptor molecule, acceptor atom, score
      P1  H  6931  6943       L1    13  0.08
      P1  H  6934  6947       L1    21  0.57

> <Gold.PLP.Chemscore.Internal.Correction>
0.4559

> <Gold.Rescore>
     Score         DG    S(hbond)    S(metal)    S(lipo)     H(rot)  DE(clash)    DE(int)     intcor
     12.49     -15.48       1.69        0.00      96.49       2.71       0.06       2.93       ----

> <Gold.Chemscore.Fitness>
12.4899

> <Gold.Chemscore.DG>
-15.4770

> <Gold.Chemscore.ZeroCoef>
-5.4800

> <Gold.Chemscore.Hbond>
1.6883

> <Gold.Chemscore.Metal>
0.0000

> <Gold.Chemscore.Lipo>
96.4870

> <Gold.Chemscore.Internal_Hbond>
0.0000

> <Gold.Chemscore.DEClash>
0.0563

> <Gold.Chemscore.DEInternal>
2.9307

> <Gold.Chemscore.Rot>
2.7074

> <Gold.Chemscore.Internal.Correction>
   9.000000E+99

> <Gold.Chemscore.Hbonds>
donor molecule, donor type, donor heavy atom, donor atom, acceptor molecule, acceptor atom, score
      P1  H  6934  6947       L1    21  0.45

> <Gold.Chemscore.Hbond.Weighted>
-5.6389

> <Gold.Chemscore.Metal.Weighted>
-0.0000

> <Gold.Chemscore.Lipo.Weighted>
-11.2890

> <Gold.Chemscore.Internal_Hbond.Weighted>
0.0000

> <Gold.Chemscore.DEClash.Weighted>
0.0563

> <Gold.Chemscore.DEInternal.Weighted>
2.9307

> <Gold.Chemscore.Rot.Weighted>
6.9308

> <Gold.Chemscore.Internal.Correction.Weighted>
   9.000000E+99

> <Gold.Protein.RotatedTorsions>
[ 6907 6896 6895 6894 ] final  106.75 input  -60.11 | X-H torsion
[ 7974 7965 7964 7962 ] final   98.45 input  175.53 | X-H torsion
[ 8008 7997 7996 7995 ] final   29.45 input   59.86 | X-H torsion
[ 10167 10162 10161 10158 ] final   91.85 input  -65.29 | X-H torsion
[ 10718 10713 10712 10709 ] final   59.88 input   66.30 | X-H torsion
[ 10763 10752 10751 10750 ] final  -52.65 input  -60.55 | X-H torsion
[ 11005 11000 10999 10996 ] final  128.03 input  -57.11 | X-H torsion

> <Gold.Protein.ActiveResidues>
 VAL166  LYS551  ARG553  GLY616  TRP617  ASP618  TYR619  PRO620  LYS621  CYS622 
 ASP623  PHE694  ASN695  SER759  ASP760  ASP761  ALA762  ILE779  LEU786  VAL792 
 PHE793  MET794  SER795  GLU796  ALA797  LYS798  CYS799  TRP800  GLU811  SER814 

> <Gold.Protein.RotatedAtoms>
  152.5181  133.9335  159.7591 H   0  0  0  0  0  0  0  0  0  0  0  0  # atno 6907 bound_to 6896
  150.9680  133.6365  159.2750 H   0  0  0  0  0  0  0  0  0  0  0  0  # atno 6908 bound_to 6896
  151.3587  135.0905  159.9480 H   0  0  0  0  0  0  0  0  0  0  0  0  # atno 6909 bound_to 6896
  145.4120  139.2332  143.3243 H   0  0  0  0  0  0  0  0  0  0  0  0  # atno 7974 bound_to 7965
  155.0747  140.3204  155.4620 H   0  0  0  0  0  0  0  0  0  0  0  0  # atno 8008 bound_to 7997
  156.2782  140.2105  156.5820 H   0  0  0  0  0  0  0  0  0  0  0  0  # atno 8009 bound_to 7997
  154.7027  140.0505  157.0461 H   0  0  0  0  0  0  0  0  0  0  0  0  # atno 8010 bound_to 7997
  139.8334  144.6676  150.9371 H   0  0  0  0  0  0  0  0  0  0  0  0  # atno 10167 bound_to 10162
  157.5710  130.8907  149.9267 H   0  0  0  0  0  0  0  0  0  0  0  0  # atno 10718 bound_to 10713
  154.1462  135.6497  153.4953 H   0  0  0  0  0  0  0  0  0  0  0  0  # atno 10763 bound_to 10752
  153.0151  135.5327  154.6855 H   0  0  0  0  0  0  0  0  0  0  0  0  # atno 10764 bound_to 10752
  154.6130  135.2956  155.0382 H   0  0  0  0  0  0  0  0  0  0  0  0  # atno 10765 bound_to 10752
  139.9539  134.9617  156.8942 H   0  0  0  0  0  0  0  0  0  0  0  0  # atno 11005 bound_to 11000
  146.2700  140.4833  142.8818 LP  0  0  0  0  0  0  0  0  0  0  0  0  # atno 17320 bound_to 7965
  144.8302  140.6695  143.6296 LP  0  0  0  0  0  0  0  0  0  0  0  0  # atno 17321 bound_to 7965
  140.7804  143.3979  151.1198 LP  0  0  0  0  0  0  0  0  0  0  0  0  # atno 17342 bound_to 10162
  139.7631  143.8606  152.3104 LP  0  0  0  0  0  0  0  0  0  0  0  0  # atno 17343 bound_to 10162
  156.0756  130.3679  150.0685 LP  0  0  0  0  0  0  0  0  0  0  0  0  # atno 17370 bound_to 10713
  156.8838  130.9565  151.3596 LP  0  0  0  0  0  0  0  0  0  0  0  0  # atno 17371 bound_to 10713
  140.5655  134.0493  155.7413 LP  0  0  0  0  0  0  0  0  0  0  0  0  # atno 17394 bound_to 11000
  141.1207  133.9466  157.2736 LP  0  0  0  0  0  0  0  0  0  0  0  0  # atno 17395 bound_to 11000

$$$$
