AV-unprocessed.smi:285|AV-procd|sdf|2172|dock9
  -GOLD-   2262021533D 1   1.00000     0.00000
 Structure written by MMmdl.
 31 33  0  0  0  0  0  0  0  0  1 V2000
  155.0287  141.2393  161.4780 N   0  0  0  0  0  0  0  0  0  0  0  0
  154.2173  141.5764  160.4656 C   0  0  0  0  0  0  0  0  0  0  0  0
  153.9032  142.8828  160.3011 N   0  0  0  0  0  0  0  0  0  0  0  0
  153.0938  143.2456  159.3007 C   0  0  0  0  0  0  0  0  0  0  0  0
  152.5068  142.4770  158.3795 N   0  0  0  0  0  0  0  0  0  0  0  0
  152.8257  141.1591  158.5435 C   0  0  0  0  0  0  0  0  0  0  0  0
  153.6722  140.6296  159.5617 C   0  0  0  0  0  0  0  0  0  0  0  0
  153.7727  139.2498  159.4328 N   0  0  0  0  0  0  0  0  0  0  0  0
  153.0221  139.0029  158.3957 C   0  0  0  0  0  0  0  0  0  0  0  0
  152.7890  137.2151  157.7809 Br  0  0  0  0  0  0  0  0  0  0  0  0
  152.4109  140.0781  157.7905 N   0  0  0  0  0  0  0  0  0  0  0  0
  151.5071  140.1002  156.5987 C   0  0  1  0  0  0  0  0  0  0  0  0
  152.2124  139.5384  155.3653 C   0  0  0  0  0  0  0  0  0  0  0  0
  151.0552  138.8986  154.6287 C   0  0  2  0  0  0  0  0  0  0  0  0
  150.3676  139.8586  153.8459 O   0  0  0  0  0  0  0  0  0  0  0  0
  150.1997  138.3614  155.7884 C   0  0  2  0  0  0  0  0  0  0  0  0
  148.7024  138.1842  155.4788 C   0  0  0  0  0  0  0  0  0  0  0  0
  148.4629  136.9039  154.9345 O   0  0  0  0  0  0  0  0  0  0  0  0
  150.3988  139.2910  156.8546 O   0  0  0  0  0  0  0  0  0  0  0  0
  155.2770  140.2711  161.6227 H   0  0  0  0  0  0  0  0  0  0  0  0
  155.3903  141.9536  162.0932 H   0  0  0  0  0  0  0  0  0  0  0  0
  152.8853  144.3028  159.2278 H   0  0  0  0  0  0  0  0  0  0  0  0
  151.1836  141.1337  156.4786 H   0  0  0  0  0  0  0  0  0  0  0  0
  152.7303  140.3205  154.8088 H   0  0  0  0  0  0  0  0  0  0  0  0
  152.9340  138.7761  155.6621 H   0  0  0  0  0  0  0  0  0  0  0  0
  151.3897  138.0966  153.9700 H   0  0  0  0  0  0  0  0  0  0  0  0
  150.0984  139.4511  153.0369 H   0  0  0  0  0  0  0  0  0  0  0  0
  150.6296  137.4071  156.0983 H   0  0  0  0  0  0  0  0  0  0  0  0
  148.0917  138.3382  156.3691 H   0  0  0  0  0  0  0  0  0  0  0  0
  148.3835  138.9147  154.7347 H   0  0  0  0  0  0  0  0  0  0  0  0
  148.5502  136.9549  153.9949 H   0  0  0  0  0  0  0  0  0  0  0  0
  1  2  1  0  0  0  0
  1 20  1  0  0  0  0
  1 21  1  0  0  0  0
  2  7  1  0  0  0  0
  2  3  2  0  0  0  0
  3  4  1  0  0  0  0
  4  5  2  0  0  0  0
  4 22  1  0  0  0  0
  5  6  1  0  0  0  0
  6 11  1  0  0  0  0
  6  7  2  0  0  0  0
  7  8  1  0  0  0  0
  8  9  2  0  0  0  0
  9 10  1  0  0  0  0
  9 11  1  0  0  0  0
 11 12  1  0  0  0  0
 12 19  1  0  0  0  0
 12 13  1  0  0  0  0
 12 23  1  0  0  0  0
 13 14  1  0  0  0  0
 13 24  1  0  0  0  0
 13 25  1  0  0  0  0
 14 15  1  0  0  0  0
 14 16  1  0  0  0  0
 14 26  1  0  0  0  0
 15 27  1  0  0  0  0
 16 17  1  0  0  0  0
 16 19  1  0  0  0  0
 16 28  1  0  0  0  0
 17 18  1  0  0  0  0
 17 29  1  0  0  0  0
 17 30  1  0  0  0  0
 18 31  1  0  0  0  0
M  END
> <s_m_source_file>
AV-unprocessed.smi

> <i_m_source_file_index>
285

> <i_lp_mmshare_version>
43012

> <i_f3d_flags>
0

> <s_epik_input>
bjFbY0hdbmMoW05IMl0pYyhjMTIpbmMoQnIpbjJbQ0BASF0zW0NIMl1bQ0BASF0oW09IXSlbQ0BIXShPMylbQ0gyXVtPSF0=

> <s_epik_cmdline>
J2VwaWtfcHl0aG9uJywgJy1waCcsICc3LjAnLCAnLXRuJywgJzgnLCAnLW1hJywgJzIwMCcsICctbWV0YWxfYmluZGluZycsICctaW1hZScsICc8aW5maWxlLm1hZT4nLCAnLW9tYWUnLCAnPG91dGZpbGUubWFlPic=

> <r_lp_tautomer_probability>
1

> <r_epik_Ionization_Penalty>
0.000103242

> <r_epik_Ionization_Penalty_Charging>
0

> <r_epik_Ionization_Penalty_Neutral>
0.000103242

> <r_epik_State_Penalty>
-0

> <r_epik_Charging_Adjusted_Penalty>
0

> <i_epik_Tot_Q>
0

> <i_epik_Tot_abs_Q>
0

> <r_epik_Metal_State_Penalty>
-0

> <b_epik_Metal_Only>
0

> <s_epik_Chemistry_Notes>
This compound contains an acetal/aminal-like group ( X-CH(R)-Y where X, Y are N, S, or O) that may be acid/base labile, releasing an aldehyde.

> <s_lp_Force_Field>
OPLS_2005

> <r_lp_Energy>
37.1806

> <b_lp_Chiralities_Consistent>
1

> <s_lp_Variant>
AV-unprocessed.smi:285-8

> <Gold.Version>
5.8.1

> <Gold.Id.Protein>
6NUR|6NUR_protein|mol2

> <Gold.PLP.Fitness>
38.0788

> <Gold.PLP.PLP>
-30.3157

> <Gold.PLP.part.hbond>
-4.0000

> <Gold.PLP.part.metal>
0.0000

> <Gold.PLP.part.buried>
-3.7759

> <Gold.PLP.part.nonpolar>
-22.1304

> <Gold.PLP.part.repulsive>
0.0008

> <Gold.PLP.ligand.clash>
0.0000

> <Gold.PLP.ligand.torsion>
0.3334

> <Gold.PLP.Chemscore.Hbond>
2.8089

> <Gold.PLP.Chemscore.CHOScore>
0.0000

> <Gold.PLP.Chemscore.Metal>
0.0000

> <Gold.Chemscore.Hbonds>
donor molecule, donor type, donor heavy atom, donor atom, acceptor molecule, acceptor atom, score
      L1  H    15    27       P1  7957  0.75
      L1  H    18    31       P1  7948  0.37
      P1  H  7989  7998       L1    15  0.98

> <Gold.PLP.Chemscore.Internal.Correction>
0.0032

> <Gold.Rescore>
     Score         DG    S(hbond)    S(metal)    S(lipo)     H(rot)  DE(clash)    DE(int)     intcor
      7.74      -8.19       1.94        0.00      34.68       3.06       0.07       0.38       ----

> <Gold.Chemscore.Fitness>
7.7431

> <Gold.Chemscore.DG>
-8.1927

> <Gold.Chemscore.ZeroCoef>
-5.4800

> <Gold.Chemscore.Hbond>
1.9432

> <Gold.Chemscore.Metal>
0.0000

> <Gold.Chemscore.Lipo>
34.6813

> <Gold.Chemscore.Internal_Hbond>
0.0000

> <Gold.Chemscore.DEClash>
0.0686

> <Gold.Chemscore.DEInternal>
0.3810

> <Gold.Chemscore.Rot>
3.0607

> <Gold.Chemscore.Internal.Correction>
   9.000000E+99

> <Gold.Chemscore.Hbonds>
donor molecule, donor type, donor heavy atom, donor atom, acceptor molecule, acceptor atom, score
      L1  H    15    27       P1  7957  0.70
      L1  H    18    31       P1  7948  0.37
      P1  H  7989  7998       L1    15  0.13

> <Gold.Chemscore.Hbond.Weighted>
-6.4904

> <Gold.Chemscore.Metal.Weighted>
-0.0000

> <Gold.Chemscore.Lipo.Weighted>
-4.0577

> <Gold.Chemscore.Internal_Hbond.Weighted>
0.0000

> <Gold.Chemscore.DEClash.Weighted>
0.0686

> <Gold.Chemscore.DEInternal.Weighted>
0.3810

> <Gold.Chemscore.Rot.Weighted>
7.8354

> <Gold.Chemscore.Internal.Correction.Weighted>
   9.000000E+99

> <Gold.Protein.RotatedTorsions>
[ 6907 6896 6895 6894 ] final   57.12 input  -60.11 | X-H torsion
[ 7974 7965 7964 7962 ] final  -93.54 input  175.53 | X-H torsion
[ 8008 7997 7996 7995 ] final -120.02 input   59.86 | X-H torsion
[ 10167 10162 10161 10158 ] final  137.85 input  -65.29 | X-H torsion
[ 10718 10713 10712 10709 ] final -122.88 input   66.30 | X-H torsion
[ 10763 10752 10751 10750 ] final  152.26 input  -60.55 | X-H torsion
[ 11005 11000 10999 10996 ] final   56.72 input  -57.11 | X-H torsion

> <Gold.Protein.ActiveResidues>
 VAL166  LYS551  ARG553  GLY616  TRP617  ASP618  TYR619  PRO620  LYS621  CYS622 
 ASP623  PHE694  ASN695  SER759  ASP760  ASP761  ALA762  ILE779  LEU786  VAL792 
 PHE793  MET794  SER795  GLU796  ALA797  LYS798  CYS799  TRP800  GLU811  SER814 

> <Gold.Protein.RotatedAtoms>
  152.3701  134.6747  160.0178 H   0  0  0  0  0  0  0  0  0  0  0  0  # atno 6907 bound_to 6896
  151.7042  133.3306  159.3282 H   0  0  0  0  0  0  0  0  0  0  0  0  # atno 6908 bound_to 6896
  150.7667  134.6524  159.6340 H   0  0  0  0  0  0  0  0  0  0  0  0  # atno 6909 bound_to 6896
  145.3851  140.9522  143.2372 H   0  0  0  0  0  0  0  0  0  0  0  0  # atno 7974 bound_to 7965
  155.1251  140.0399  157.2760 H   0  0  0  0  0  0  0  0  0  0  0  0  # atno 8008 bound_to 7997
  154.6585  140.2585  155.7109 H   0  0  0  0  0  0  0  0  0  0  0  0  # atno 8009 bound_to 7997
  156.2608  140.2822  156.1047 H   0  0  0  0  0  0  0  0  0  0  0  0  # atno 8010 bound_to 7997
  139.5130  144.6387  151.5628 H   0  0  0  0  0  0  0  0  0  0  0  0  # atno 10167 bound_to 10162
  156.1456  130.6497  150.9836 H   0  0  0  0  0  0  0  0  0  0  0  0  # atno 10718 bound_to 10713
  154.1171  135.2835  155.3217 H   0  0  0  0  0  0  0  0  0  0  0  0  # atno 10763 bound_to 10752
  154.6449  135.5389  153.7836 H   0  0  0  0  0  0  0  0  0  0  0  0  # atno 10764 bound_to 10752
  153.0325  135.6495  154.1327 H   0  0  0  0  0  0  0  0  0  0  0  0  # atno 10765 bound_to 10752
  140.0507  134.5741  155.9267 H   0  0  0  0  0  0  0  0  0  0  0  0  # atno 11005 bound_to 11000
  144.8480  139.5367  143.6870 LP  0  0  0  0  0  0  0  0  0  0  0  0  # atno 17320 bound_to 7965
  146.2824  139.6912  142.9220 LP  0  0  0  0  0  0  0  0  0  0  0  0  # atno 17321 bound_to 7965
  140.6145  143.9374  150.6478 LP  0  0  0  0  0  0  0  0  0  0  0  0  # atno 17342 bound_to 10162
  140.2628  143.3512  152.1308 LP  0  0  0  0  0  0  0  0  0  0  0  0  # atno 17343 bound_to 10162
  157.6613  131.0880  150.7831 LP  0  0  0  0  0  0  0  0  0  0  0  0  # atno 17370 bound_to 10713
  156.7903  130.4888  149.5386 LP  0  0  0  0  0  0  0  0  0  0  0  0  # atno 17371 bound_to 10713
  141.1929  133.6577  156.5522 LP  0  0  0  0  0  0  0  0  0  0  0  0  # atno 17394 bound_to 11000
  140.3922  134.7430  157.4728 LP  0  0  0  0  0  0  0  0  0  0  0  0  # atno 17395 bound_to 11000

$$$$
