AV-unprocessed.smi:1269|AV-procd|sdf|5327|dock1
  -GOLD-   22720 4453D 1   1.00000     0.00000
 Structure written by MMmdl.
 43 44  0  0  0  0  0  0  0  0  1 V2000
  152.6316  140.7628  158.0974 C   0  0  0  0  0  0  0  0  0  0  0  0
  151.8985  140.8785  156.8829 O   0  0  0  0  0  0  0  0  0  0  0  0
  151.4172  139.7263  156.2957 C   0  0  0  0  0  0  0  0  0  0  0  0
  151.3954  138.5404  157.0556 C   0  0  0  0  0  0  0  0  0  0  0  0
  150.9018  137.3605  156.4663 C   0  0  0  0  0  0  0  0  0  0  0  0
  150.4438  137.4033  155.1269 C   0  0  0  0  0  0  0  0  0  0  0  0
  149.9176  136.2958  154.4051 N   0  0  0  0  0  0  0  0  0  0  0  0
  149.8874  134.9924  154.7333 C   0  0  0  0  0  0  0  0  0  0  0  0
  150.3626  134.4990  155.7551 O   0  0  0  0  0  0  0  0  0  0  0  0
  149.2559  134.2778  153.7900 N   0  0  0  0  0  0  0  0  0  0  0  0
  148.9954  132.8397  153.8340 C   0  0  2  0  0  0  0  0  0  0  0  0
  150.3150  132.1027  154.1000 C   0  0  0  0  0  0  0  0  0  0  0  0
  148.3566  132.3715  152.5082 C   0  0  0  0  0  0  0  0  0  0  0  0
  146.9052  132.5327  152.4103 N   0  0  0  0  0  0  0  0  0  0  0  0
  146.2606  131.4271  151.7041 C   0  0  0  0  0  0  0  0  0  0  0  0
  144.7382  131.6239  151.6025 C   0  0  0  0  0  0  0  0  0  0  0  0
  144.4580  132.8654  150.9640 O   0  0  0  0  0  0  0  0  0  0  0  0
  145.0343  133.9753  151.6449 C   0  0  0  0  0  0  0  0  0  0  0  0
  146.5575  133.7838  151.7462 C   0  0  0  0  0  0  0  0  0  0  0  0
  150.5118  138.6410  154.4538 C   0  0  0  0  0  0  0  0  0  0  0  0
  150.9824  139.7756  155.0127 N   0  0  0  0  0  0  0  0  0  0  0  0
  152.9382  141.7545  158.4293 H   0  0  0  0  0  0  0  0  0  0  0  0
  153.5347  140.1654  157.9629 H   0  0  0  0  0  0  0  0  0  0  0  0
  152.0253  140.3219  158.8900 H   0  0  0  0  0  0  0  0  0  0  0  0
  151.7501  138.5352  158.0757 H   0  0  0  0  0  0  0  0  0  0  0  0
  150.8899  136.4606  157.0591 H   0  0  0  0  0  0  0  0  0  0  0  0
  149.4833  136.5320  153.5249 H   0  0  0  0  0  0  0  0  0  0  0  0
  148.9019  134.7726  152.9847 H   0  0  0  0  0  0  0  0  0  0  0  0
  148.3333  132.6023  154.6674 H   0  0  0  0  0  0  0  0  0  0  0  0
  150.1566  131.0255  154.1587 H   0  0  0  0  0  0  0  0  0  0  0  0
  150.7595  132.4209  155.0438 H   0  0  0  0  0  0  0  0  0  0  0  0
  151.0424  132.2892  153.3090 H   0  0  0  0  0  0  0  0  0  0  0  0
  148.8287  132.9309  151.6990 H   0  0  0  0  0  0  0  0  0  0  0  0
  148.6147  131.3260  152.3320 H   0  0  0  0  0  0  0  0  0  0  0  0
  146.6799  131.3337  150.7012 H   0  0  0  0  0  0  0  0  0  0  0  0
  146.4546  130.4836  152.2122 H   0  0  0  0  0  0  0  0  0  0  0  0
  144.2887  130.8164  151.0244 H   0  0  0  0  0  0  0  0  0  0  0  0
  144.2800  131.6038  152.5927 H   0  0  0  0  0  0  0  0  0  0  0  0
  144.8023  134.8893  151.0981 H   0  0  0  0  0  0  0  0  0  0  0  0
  144.5901  134.0725  152.6369 H   0  0  0  0  0  0  0  0  0  0  0  0
  146.9881  134.6246  152.2912 H   0  0  0  0  0  0  0  0  0  0  0  0
  146.9919  133.8054  150.7454 H   0  0  0  0  0  0  0  0  0  0  0  0
  150.1764  138.7266  153.4304 H   0  0  0  0  0  0  0  0  0  0  0  0
  1  2  1  0  0  0  0
  1 22  1  0  0  0  0
  1 23  1  0  0  0  0
  1 24  1  0  0  0  0
  2  3  1  0  0  0  0
  3 21  1  0  0  0  0
  3  4  2  0  0  0  0
  4  5  1  0  0  0  0
  4 25  1  0  0  0  0
  5  6  2  0  0  0  0
  5 26  1  0  0  0  0
  6  7  1  0  0  0  0
  6 20  1  0  0  0  0
  7  8  1  0  0  0  0
  7 27  1  0  0  0  0
  8  9  2  0  0  0  0
  8 10  1  0  0  0  0
 10 11  1  0  0  0  0
 10 28  1  0  0  0  0
 11 12  1  0  0  0  0
 11 13  1  0  0  0  0
 11 29  1  0  0  0  0
 12 30  1  0  0  0  0
 12 31  1  0  0  0  0
 12 32  1  0  0  0  0
 13 14  1  0  0  0  0
 13 33  1  0  0  0  0
 13 34  1  0  0  0  0
 14 19  1  0  0  0  0
 14 15  1  0  0  0  0
 15 16  1  0  0  0  0
 15 35  1  0  0  0  0
 15 36  1  0  0  0  0
 16 17  1  0  0  0  0
 16 37  1  0  0  0  0
 16 38  1  0  0  0  0
 17 18  1  0  0  0  0
 18 19  1  0  0  0  0
 18 39  1  0  0  0  0
 18 40  1  0  0  0  0
 19 41  1  0  0  0  0
 19 42  1  0  0  0  0
 20 21  2  0  0  0  0
 20 43  1  0  0  0  0
M  END
> <s_m_source_file>
AV-unprocessed.smi

> <i_m_source_file_index>
1269

> <i_lp_mmshare_version>
43012

> <i_f3d_flags>
0

> <s_epik_input>
W0NIM11PYzFbY0hdW2NIXWMoW2NIXW4xKVtOSF1DKD1PKVtOSF1bQ0BIXShbQ0gzXSlbQ0gyXU4yW0NIMl1bQ0gyXU9bQ0gyXVtDSDJdMg==

> <s_epik_cmdline>
J2VwaWtfcHl0aG9uJywgJy1waCcsICc3LjAnLCAnLXRuJywgJzgnLCAnLW1hJywgJzIwMCcsICctbWV0YWxfYmluZGluZycsICctaW1hZScsICc8aW5maWxlLm1hZT4nLCAnLW9tYWUnLCAnPG91dGZpbGUubWFlPic=

> <r_lp_tautomer_probability>
1

> <r_epik_Ionization_Penalty>
0.266086

> <r_epik_Ionization_Penalty_Charging>
0

> <r_epik_Ionization_Penalty_Neutral>
0.266086

> <r_epik_State_Penalty>
0.257924

> <r_epik_Charging_Adjusted_Penalty>
0.257924

> <i_epik_Tot_Q>
0

> <i_epik_Tot_abs_Q>
0

> <r_epik_Metal_State_Penalty>
0.25792

> <b_epik_Metal_Only>
0

> <s_lp_Force_Field>
OPLS_2005

> <r_lp_Energy>
28.3998

> <b_lp_Chiralities_Consistent>
1

> <s_lp_Variant>
AV-unprocessed.smi:1269-1

> <Gold.Version>
5.8.1

> <Gold.Id.Protein>
6NUR|6NUR_protein|mol2

> <Gold.PLP.Fitness>
41.0025

> <Gold.PLP.PLP>
-30.9001

> <Gold.PLP.part.hbond>
-3.0000

> <Gold.PLP.part.metal>
0.0000

> <Gold.PLP.part.buried>
-4.3913

> <Gold.PLP.part.nonpolar>
-23.7407

> <Gold.PLP.part.repulsive>
0.4243

> <Gold.PLP.ligand.clash>
0.0657

> <Gold.PLP.ligand.torsion>
0.9992

> <Gold.PLP.Chemscore.Hbond>
3.0000

> <Gold.PLP.Chemscore.CHOScore>
1.0000

> <Gold.PLP.Chemscore.Metal>
0.0000

> <Gold.Chemscore.Hbonds>
donor molecule, donor type, donor heavy atom, donor atom, acceptor molecule, acceptor atom, score
      L1  H     7    27       P1  7948  1.00
      L1  H    10    28       P1  7948  0.74
      P1  H  7989  7998       L1    21  1.00
      L1  C    20    43       P1  7957  0.65

> <Gold.PLP.Chemscore.Internal.Correction>
0.1665

> <Gold.Rescore>
     Score         DG    S(hbond)    S(metal)    S(lipo)     H(rot)  DE(clash)    DE(int)     intcor
     14.36     -17.56       2.65        0.00      65.34       1.72       0.01       3.20       ----

> <Gold.Chemscore.Fitness>
14.3580

> <Gold.Chemscore.DG>
-17.5649

> <Gold.Chemscore.ZeroCoef>
-5.4800

> <Gold.Chemscore.Hbond>
2.6470

> <Gold.Chemscore.Metal>
0.0000

> <Gold.Chemscore.Lipo>
65.3376

> <Gold.Chemscore.Internal_Hbond>
0.0000

> <Gold.Chemscore.DEClash>
0.0106

> <Gold.Chemscore.DEInternal>
3.1962

> <Gold.Chemscore.Rot>
1.7189

> <Gold.Chemscore.Internal.Correction>
   9.000000E+99

> <Gold.Chemscore.Hbonds>
donor molecule, donor type, donor heavy atom, donor atom, acceptor molecule, acceptor atom, score
      L1  H     7    27       P1  7948  0.73
      L1  H    10    28       P1  7948  0.09
      P1  H  7989  7998       L1    21  0.49

> <Gold.Chemscore.Hbond.Weighted>
-8.8408

> <Gold.Chemscore.Metal.Weighted>
-0.0000

> <Gold.Chemscore.Lipo.Weighted>
-7.6445

> <Gold.Chemscore.Internal_Hbond.Weighted>
0.0000

> <Gold.Chemscore.DEClash.Weighted>
0.0106

> <Gold.Chemscore.DEInternal.Weighted>
3.1962

> <Gold.Chemscore.Rot.Weighted>
4.4004

> <Gold.Chemscore.Internal.Correction.Weighted>
   9.000000E+99

> <Gold.Protein.RotatedTorsions>
[ 6907 6896 6895 6894 ] final  179.24 input  -60.11 | X-H torsion
[ 7974 7965 7964 7962 ] final   92.22 input  175.53 | X-H torsion
[ 8008 7997 7996 7995 ] final  159.34 input   59.86 | X-H torsion
[ 10167 10162 10161 10158 ] final   87.20 input  -65.29 | X-H torsion
[ 10718 10713 10712 10709 ] final -179.93 input   66.30 | X-H torsion
[ 10763 10752 10751 10750 ] final  121.52 input  -60.55 | X-H torsion
[ 11005 11000 10999 10996 ] final  -13.79 input  -57.11 | X-H torsion

> <Gold.Protein.ActiveResidues>
 VAL166  LYS551  ARG553  GLY616  TRP617  ASP618  TYR619  PRO620  LYS621  CYS622 
 ASP623  PHE694  ASN695  SER759  ASP760  ASP761  ALA762  ILE779  LEU786  VAL792 
 PHE793  MET794  SER795  GLU796  ALA797  LYS798  CYS799  TRP800  GLU811  SER814 

> <Gold.Protein.RotatedAtoms>
  151.6749  133.3313  159.3205 H   0  0  0  0  0  0  0  0  0  0  0  0  # atno 6907 bound_to 6896
  150.7850  134.6831  159.6464 H   0  0  0  0  0  0  0  0  0  0  0  0  # atno 6908 bound_to 6896
  152.3917  134.6433  160.0157 H   0  0  0  0  0  0  0  0  0  0  0  0  # atno 6909 bound_to 6896
  145.4952  139.2276  143.2808 H   0  0  0  0  0  0  0  0  0  0  0  0  # atno 7974 bound_to 7965
  156.2245  140.1834  156.7396 H   0  0  0  0  0  0  0  0  0  0  0  0  # atno 8008 bound_to 7997
  154.5919  140.0649  156.9278 H   0  0  0  0  0  0  0  0  0  0  0  0  # atno 8009 bound_to 7997
  155.2322  140.3315  155.4304 H   0  0  0  0  0  0  0  0  0  0  0  0  # atno 8010 bound_to 7997
  139.8798  144.6446  150.8855 H   0  0  0  0  0  0  0  0  0  0  0  0  # atno 10167 bound_to 10162
  156.8664  130.9769  151.3078 H   0  0  0  0  0  0  0  0  0  0  0  0  # atno 10718 bound_to 10713
  153.6154  135.3423  155.2993 H   0  0  0  0  0  0  0  0  0  0  0  0  # atno 10763 bound_to 10752
  154.8610  135.4260  154.2264 H   0  0  0  0  0  0  0  0  0  0  0  0  # atno 10764 bound_to 10752
  153.3124  135.7032  153.7176 H   0  0  0  0  0  0  0  0  0  0  0  0  # atno 10765 bound_to 10752
  140.7798  133.8372  155.9281 H   0  0  0  0  0  0  0  0  0  0  0  0  # atno 11005 bound_to 11000
  146.2260  140.5749  142.8996 LP  0  0  0  0  0  0  0  0  0  0  0  0  # atno 17320 bound_to 7965
  144.7811  140.5842  143.6605 LP  0  0  0  0  0  0  0  0  0  0  0  0  # atno 17321 bound_to 7965
  140.7746  143.3595  151.1856 LP  0  0  0  0  0  0  0  0  0  0  0  0  # atno 17342 bound_to 10162
  139.7206  143.9229  152.2984 LP  0  0  0  0  0  0  0  0  0  0  0  0  # atno 17343 bound_to 10162
  157.6221  130.8663  149.9126 LP  0  0  0  0  0  0  0  0  0  0  0  0  # atno 17370 bound_to 10713
  156.0749  130.3680  150.0698 LP  0  0  0  0  0  0  0  0  0  0  0  0  # atno 17371 bound_to 10713
  140.9494  134.1799  157.4739 LP  0  0  0  0  0  0  0  0  0  0  0  0  # atno 17394 bound_to 11000
  139.8744  134.9903  156.5496 LP  0  0  0  0  0  0  0  0  0  0  0  0  # atno 17395 bound_to 11000

$$$$
