AV-unprocessed.smi:1417|AV-procd|sdf|5766|dock1
  -GOLD-   22720 5403D 1   1.00000     0.00000
 Structure written by MMmdl.
 40 41  0  0  0  0  0  0  0  0  2 V2000
  152.1721  139.9122  156.4269 C   0  0  0  0  0  0  0  0  0  0  0  0
  151.6540  138.5983  155.9514 C   0  0  0  0  0  0  0  0  0  0  0  0
  150.6646  138.2515  155.0753 C   0  0  0  0  0  0  0  0  0  0  0  0
  150.7095  136.8268  155.0906 C   0  0  0  0  0  0  0  0  0  0  0  0
  149.8774  135.9510  154.3466 N   0  0  0  0  0  0  0  0  0  0  0  0
  149.3799  134.7586  154.7152 C   0  0  0  0  0  0  0  0  0  0  0  0
  149.5605  134.2154  155.8049 O   0  0  0  0  0  0  0  0  0  0  0  0
  148.6469  134.2138  153.7332 N   0  0  0  0  0  0  0  0  0  0  0  0
  147.9713  132.9218  153.8086 C   0  0  2  0  0  0  0  0  0  0  0  0
  148.9922  131.7687  153.8166 C   0  0  0  0  0  0  0  0  0  0  0  0
  148.2875  130.4035  153.7848 C   0  0  0  0  0  0  0  0  0  0  0  0
  147.3894  130.2954  152.6047 N   0  3  1  0  0  0  0  0  0  0  0  0
  146.8009  128.9414  152.4415 C   0  0  0  0  0  0  0  0  0  0  0  0
  147.8130  127.9124  151.9267 C   0  0  0  0  0  0  0  0  0  0  0  0
  148.3535  128.1444  150.7287 N   0  0  0  0  0  0  0  0  0  0  0  0
  148.1156  126.9310  152.6032 O   0  0  0  0  0  0  0  0  0  0  0  0
  146.3633  131.3687  152.6025 C   0  0  0  0  0  0  0  0  0  0  0  0
  147.0189  132.7603  152.6125 C   0  0  0  0  0  0  0  0  0  0  0  0
  151.6389  136.3558  155.9015 N   0  0  0  0  0  0  0  0  0  0  0  0
  152.2504  137.4856  156.4577 O   0  0  0  0  0  0  0  0  0  0  0  0
  151.4912  140.7199  156.1572 H   0  0  0  0  0  0  0  0  0  0  0  0
  153.1440  140.1270  155.9824 H   0  0  0  0  0  0  0  0  0  0  0  0
  152.2869  139.9151  157.5109 H   0  0  0  0  0  0  0  0  0  0  0  0
  150.0241  138.9222  154.5231 H   0  0  0  0  0  0  0  0  0  0  0  0
  149.6373  136.2715  153.4200 H   0  0  0  0  0  0  0  0  0  0  0  0
  148.5497  134.7306  152.8711 H   0  0  0  0  0  0  0  0  0  0  0  0
  147.3795  132.8812  154.7256 H   0  0  0  0  0  0  0  0  0  0  0  0
  149.6561  131.8531  152.9545 H   0  0  0  0  0  0  0  0  0  0  0  0
  149.6269  131.8306  154.7014 H   0  0  0  0  0  0  0  0  0  0  0  0
  149.0397  129.6144  153.7600 H   0  0  0  0  0  0  0  0  0  0  0  0
  147.7096  130.2590  154.6991 H   0  0  0  0  0  0  0  0  0  0  0  0
  146.3571  128.6093  153.3817 H   0  0  0  0  0  0  0  0  0  0  0  0
  145.9937  128.9769  151.7088 H   0  0  0  0  0  0  0  0  0  0  0  0
  149.0245  127.4984  150.3383 H   0  0  0  0  0  0  0  0  0  0  0  0
  148.0855  128.9699  150.2116 H   0  0  0  0  0  0  0  0  0  0  0  0
  145.7356  131.2774  151.7153 H   0  0  0  0  0  0  0  0  0  0  0  0
  145.7093  131.2521  153.4681 H   0  0  0  0  0  0  0  0  0  0  0  0
  146.2467  133.5301  152.6424 H   0  0  0  0  0  0  0  0  0  0  0  0
  147.5658  132.9074  151.6796 H   0  0  0  0  0  0  0  0  0  0  0  0
  147.9613  130.4484  151.7860 H   0  0  0  0  0  0  0  0  0  0  0  0
  1  2  1  0  0  0  0
  1 21  1  0  0  0  0
  1 22  1  0  0  0  0
  1 23  1  0  0  0  0
  2 20  1  0  0  0  0
  2  3  2  0  0  0  0
  3  4  1  0  0  0  0
  3 24  1  0  0  0  0
  4  5  1  0  0  0  0
  4 19  2  0  0  0  0
  5  6  1  0  0  0  0
  5 25  1  0  0  0  0
  6  7  2  0  0  0  0
  6  8  1  0  0  0  0
  8  9  1  0  0  0  0
  8 26  1  0  0  0  0
  9 18  1  0  0  0  0
  9 10  1  0  0  0  0
  9 27  1  0  0  0  0
 10 11  1  0  0  0  0
 10 28  1  0  0  0  0
 10 29  1  0  0  0  0
 11 12  1  0  0  0  0
 11 30  1  0  0  0  0
 11 31  1  0  0  0  0
 12 13  1  0  0  0  0
 12 17  1  0  0  0  0
 12 40  1  0  0  0  0
 13 14  1  0  0  0  0
 13 32  1  0  0  0  0
 13 33  1  0  0  0  0
 14 15  1  0  0  0  0
 14 16  2  0  0  0  0
 15 34  1  0  0  0  0
 15 35  1  0  0  0  0
 17 18  1  0  0  0  0
 17 36  1  0  0  0  0
 17 37  1  0  0  0  0
 18 38  1  0  0  0  0
 18 39  1  0  0  0  0
 19 20  1  0  0  0  0
M  CHG  1  12   1
M  END
> <s_m_source_file>
AV-unprocessed.smi

> <i_m_source_file_index>
1417

> <i_lp_mmshare_version>
43012

> <i_f3d_flags>
0

> <s_epik_input>
W0NIM11jMVtjSF1jKG5vMSlbTkhdQyg9TylbTkhdW0NIXTJbQ0gyXVtDSDJdTihbQ0gyXVtDSDJdMilbQ0gyXUMoPU8pW05IMl0=

> <s_epik_cmdline>
J2VwaWtfcHl0aG9uJywgJy1waCcsICc3LjAnLCAnLXRuJywgJzgnLCAnLW1hJywgJzIwMCcsICctbWV0YWxfYmluZGluZycsICctaW1hZScsICc8aW5maWxlLm1hZT4nLCAnLW9tYWUnLCAnPG91dGZpbGUubWFlPic=

> <r_epik_Ionization_Penalty>
0.867698

> <r_epik_Ionization_Penalty_Charging>
0.867623

> <r_epik_Ionization_Penalty_Neutral>
7.46743e-05

> <r_epik_State_Penalty>
0.904669

> <r_epik_Charging_Adjusted_Penalty>
1.77229

> <i_epik_Tot_Q>
1

> <i_epik_Tot_abs_Q>
1

> <r_epik_Metal_State_Penalty>
0.930696

> <b_epik_Metal_Only>
0

> <s_lp_Force_Field>
OPLS_2005

> <r_lp_Energy>
11.2149

> <b_lp_Chiralities_Consistent>
1

> <s_lp_Variant>
AV-unprocessed.smi:1417-2

> <Gold.Version>
5.8.1

> <Gold.Id.Protein>
6NUR|6NUR_protein|mol2

> <Gold.PLP.Fitness>
41.8807

> <Gold.PLP.PLP>
-29.6643

> <Gold.PLP.part.hbond>
-5.8288

> <Gold.PLP.part.metal>
0.0000

> <Gold.PLP.part.buried>
0.1323

> <Gold.PLP.part.nonpolar>
-23.3495

> <Gold.PLP.part.repulsive>
0.3949

> <Gold.PLP.ligand.clash>
0.0000

> <Gold.PLP.ligand.torsion>
0.5139

> <Gold.PLP.Chemscore.Hbond>
4.4044

> <Gold.PLP.Chemscore.CHOScore>
0.0000

> <Gold.PLP.Chemscore.Metal>
0.0000

> <Gold.Chemscore.Hbonds>
donor molecule, donor type, donor heavy atom, donor atom, acceptor molecule, acceptor atom, score
      L1  H     5    25       P1  7948  1.00
      L1  H     8    26       P1  7948  0.99
      L1  H    12    40       P1 10747  1.00
      L1  H    15    35       P1 10747  0.38
      P1  H 10752 10764       L1    19  1.00

> <Gold.PLP.Chemscore.Internal.Correction>
0.0308

> <Gold.Rescore>
     Score         DG    S(hbond)    S(metal)    S(lipo)     H(rot)  DE(clash)    DE(int)     intcor
     15.35     -18.05       3.60        0.00      49.51       2.05       1.46       1.24       ----

> <Gold.Chemscore.Fitness>
15.3516

> <Gold.Chemscore.DG>
-18.0472

> <Gold.Chemscore.ZeroCoef>
-5.4800

> <Gold.Chemscore.Hbond>
3.5964

> <Gold.Chemscore.Metal>
0.0000

> <Gold.Chemscore.Lipo>
49.5070

> <Gold.Chemscore.Internal_Hbond>
0.0000

> <Gold.Chemscore.DEClash>
1.4590

> <Gold.Chemscore.DEInternal>
1.2366

> <Gold.Chemscore.Rot>
2.0457

> <Gold.Chemscore.Internal.Correction>
   9.000000E+99

> <Gold.Chemscore.Hbonds>
donor molecule, donor type, donor heavy atom, donor atom, acceptor molecule, acceptor atom, score
      L1  H     5    25       P1  7948  0.34
      L1  H     8    26       P1  7948  0.28
      L1  H    12    40       P1 10747  1.00
      L1  H    15    35       P1 10747  0.04
      P1  H 10752 10764       L1    19  0.32

> <Gold.Chemscore.Hbond.Weighted>
-12.0120

> <Gold.Chemscore.Metal.Weighted>
-0.0000

> <Gold.Chemscore.Lipo.Weighted>
-5.7923

> <Gold.Chemscore.Internal_Hbond.Weighted>
0.0000

> <Gold.Chemscore.DEClash.Weighted>
1.4590

> <Gold.Chemscore.DEInternal.Weighted>
1.2366

> <Gold.Chemscore.Rot.Weighted>
5.2371

> <Gold.Chemscore.Internal.Correction.Weighted>
   9.000000E+99

> <Gold.Protein.RotatedTorsions>
[ 6907 6896 6895 6894 ] final -113.87 input  -60.11 | X-H torsion
[ 7974 7965 7964 7962 ] final  133.68 input  175.53 | X-H torsion
[ 8008 7997 7996 7995 ] final  -80.38 input   59.86 | X-H torsion
[ 10167 10162 10161 10158 ] final -173.89 input  -65.29 | X-H torsion
[ 10718 10713 10712 10709 ] final  -63.35 input   66.30 | X-H torsion
[ 10763 10752 10751 10750 ] final  -28.86 input  -60.55 | X-H torsion
[ 11005 11000 10999 10996 ] final  111.08 input  -57.11 | X-H torsion

> <Gold.Protein.ActiveResidues>
 VAL166  LYS551  ARG553  GLY616  TRP617  ASP618  TYR619  PRO620  LYS621  CYS622 
 ASP623  PHE694  ASN695  SER759  ASP760  ASP761  ALA762  ILE779  LEU786  VAL792 
 PHE793  MET794  SER795  GLU796  ALA797  LYS798  CYS799  TRP800  GLU811  SER814 

> <Gold.Protein.RotatedAtoms>
  150.7860  133.8883  159.3305 H   0  0  0  0  0  0  0  0  0  0  0  0  # atno 6907 bound_to 6896
  151.6733  135.0971  160.0211 H   0  0  0  0  0  0  0  0  0  0  0  0  # atno 6908 bound_to 6896
  152.3924  133.6659  159.6284 H   0  0  0  0  0  0  0  0  0  0  0  0  # atno 6909 bound_to 6896
  144.9840  139.4474  143.5372 H   0  0  0  0  0  0  0  0  0  0  0  0  # atno 7974 bound_to 7965
  154.5878  140.0664  156.9195 H   0  0  0  0  0  0  0  0  0  0  0  0  # atno 8008 bound_to 7997
  155.2349  140.3340  155.4280 H   0  0  0  0  0  0  0  0  0  0  0  0  # atno 8009 bound_to 7997
  156.2235  140.1809  156.7405 H   0  0  0  0  0  0  0  0  0  0  0  0  # atno 8010 bound_to 7997
  139.5664  144.1746  152.1318 H   0  0  0  0  0  0  0  0  0  0  0  0  # atno 10167 bound_to 10162
  156.0797  130.4219  150.1264 H   0  0  0  0  0  0  0  0  0  0  0  0  # atno 10718 bound_to 10713
  153.7551  135.6923  153.4937 H   0  0  0  0  0  0  0  0  0  0  0  0  # atno 10763 bound_to 10752
  153.1976  135.4448  155.0226 H   0  0  0  0  0  0  0  0  0  0  0  0  # atno 10764 bound_to 10752
  154.8173  135.3405  154.7070 H   0  0  0  0  0  0  0  0  0  0  0  0  # atno 10765 bound_to 10752
  139.8895  134.9499  156.6377 H   0  0  0  0  0  0  0  0  0  0  0  0  # atno 11005 bound_to 11000
  146.3415  139.9131  142.8777 LP  0  0  0  0  0  0  0  0  0  0  0  0  # atno 17320 bound_to 7965
  145.2380  140.9998  143.3952 LP  0  0  0  0  0  0  0  0  0  0  0  0  # atno 17321 bound_to 7965
  140.1270  144.5322  150.6826 LP  0  0  0  0  0  0  0  0  0  0  0  0  # atno 17342 bound_to 10162
  140.6947  143.2397  151.5034 LP  0  0  0  0  0  0  0  0  0  0  0  0  # atno 17343 bound_to 10162
  156.9298  130.9710  151.3535 LP  0  0  0  0  0  0  0  0  0  0  0  0  # atno 17370 bound_to 10713
  157.5908  130.8442  149.8656 LP  0  0  0  0  0  0  0  0  0  0  0  0  # atno 17371 bound_to 10713
  140.7618  133.8811  155.8424 LP  0  0  0  0  0  0  0  0  0  0  0  0  # atno 17394 bound_to 11000
  140.9916  134.1271  157.4403 LP  0  0  0  0  0  0  0  0  0  0  0  0  # atno 17395 bound_to 11000

$$$$
