AV-unprocessed.smi:2481|AV-procd|sdf|9773|dock4
  -GOLD-   2272013413D 1   1.00000     0.00000
 Structure written by MMmdl.
 37 38  0  0  0  0  0  0  0  0  1 V2000
  142.1532  135.2782  153.3647 C   0  0  0  0  0  0  0  0  0  0  0  0
  141.3222  136.2789  154.0058 N   0  0  0  0  0  0  0  0  0  0  0  0
  140.0793  135.9734  154.4468 N   0  0  0  0  0  0  0  0  0  0  0  0
  139.6558  137.1306  154.9556 C   0  0  0  0  0  0  0  0  0  0  0  0
  140.5325  138.1752  154.8790 N   0  0  0  0  0  0  0  0  0  0  0  0
  141.5488  137.5681  154.2742 C   0  0  0  0  0  0  0  0  0  0  0  0
  142.7876  138.1643  153.9164 N   0  0  0  0  0  0  0  0  0  0  0  0
  144.0234  137.6718  154.1054 C   0  0  0  0  0  0  0  0  0  0  0  0
  144.2848  136.5973  154.6469 O   0  0  0  0  0  0  0  0  0  0  0  0
  144.9555  138.5090  153.6282 N   0  0  0  0  0  0  0  0  0  0  0  0
  146.4015  138.2853  153.6687 C   0  0  2  0  0  0  0  0  0  0  0  0
  146.9231  138.3366  155.1211 C   0  0  0  0  0  0  0  0  0  0  0  0
  146.8606  139.7561  155.7093 C   0  0  0  0  0  0  0  0  0  0  0  0
  147.6068  140.7593  154.8180 C   0  0  0  0  0  0  0  0  0  0  0  0
  147.0842  140.7238  153.3727 C   0  0  0  0  0  0  0  0  0  0  0  0
  147.1549  139.3035  152.7711 C   0  0  2  0  0  0  0  0  0  0  0  0
  146.6836  139.3018  151.3012 C   0  0  0  0  0  0  0  0  0  0  0  0
  146.5847  137.9835  150.8047 O   0  0  0  0  0  0  0  0  0  0  0  0
  143.1376  135.2612  153.8334 H   0  0  0  0  0  0  0  0  0  0  0  0
  142.2645  135.5195  152.3072 H   0  0  0  0  0  0  0  0  0  0  0  0
  141.7023  134.2890  153.4574 H   0  0  0  0  0  0  0  0  0  0  0  0
  138.6757  137.2260  155.3993 H   0  0  0  0  0  0  0  0  0  0  0  0
  142.7236  139.0635  153.4628 H   0  0  0  0  0  0  0  0  0  0  0  0
  144.6457  139.3708  153.2039 H   0  0  0  0  0  0  0  0  0  0  0  0
  146.6011  137.2851  153.2795 H   0  0  0  0  0  0  0  0  0  0  0  0
  146.3631  137.6462  155.7529 H   0  0  0  0  0  0  0  0  0  0  0  0
  147.9567  137.9889  155.1408 H   0  0  0  0  0  0  0  0  0  0  0  0
  145.8207  140.0654  155.8196 H   0  0  0  0  0  0  0  0  0  0  0  0
  147.2898  139.7605  156.7118 H   0  0  0  0  0  0  0  0  0  0  0  0
  147.5039  141.7654  155.2253 H   0  0  0  0  0  0  0  0  0  0  0  0
  148.6732  140.5307  154.8256 H   0  0  0  0  0  0  0  0  0  0  0  0
  146.0566  141.0888  153.3476 H   0  0  0  0  0  0  0  0  0  0  0  0
  147.6679  141.4145  152.7634 H   0  0  0  0  0  0  0  0  0  0  0  0
  148.2077  139.0149  152.7683 H   0  0  0  0  0  0  0  0  0  0  0  0
  145.7228  139.8043  151.1883 H   0  0  0  0  0  0  0  0  0  0  0  0
  147.3965  139.8416  150.6771 H   0  0  0  0  0  0  0  0  0  0  0  0
  145.7570  137.8909  150.3580 H   0  0  0  0  0  0  0  0  0  0  0  0
  1  2  1  0  0  0  0
  1 19  1  0  0  0  0
  1 20  1  0  0  0  0
  1 21  1  0  0  0  0
  2  6  1  0  0  0  0
  2  3  1  0  0  0  0
  3  4  2  0  0  0  0
  4  5  1  0  0  0  0
  4 22  1  0  0  0  0
  5  6  2  0  0  0  0
  6  7  1  0  0  0  0
  7  8  1  0  0  0  0
  7 23  1  0  0  0  0
  8  9  2  0  0  0  0
  8 10  1  0  0  0  0
 10 11  1  0  0  0  0
 10 24  1  0  0  0  0
 11 16  1  0  0  0  0
 11 12  1  0  0  0  0
 11 25  1  0  0  0  0
 12 13  1  0  0  0  0
 12 26  1  0  0  0  0
 12 27  1  0  0  0  0
 13 14  1  0  0  0  0
 13 28  1  0  0  0  0
 13 29  1  0  0  0  0
 14 15  1  0  0  0  0
 14 30  1  0  0  0  0
 14 31  1  0  0  0  0
 15 16  1  0  0  0  0
 15 32  1  0  0  0  0
 15 33  1  0  0  0  0
 16 17  1  0  0  0  0
 16 34  1  0  0  0  0
 17 18  1  0  0  0  0
 17 35  1  0  0  0  0
 17 36  1  0  0  0  0
 18 37  1  0  0  0  0
M  END
> <s_m_source_file>
AV-unprocessed.smi

> <i_m_source_file_index>
2481

> <i_lp_mmshare_version>
43012

> <i_f3d_flags>
0

> <s_epik_input>
W0NIM11uMW5bY0hdbmMxW05IXUMoPU8pW05IXVtDQEBIXTJbQ0gyXVtDSDJdW0NIMl1bQ0gyXVtDQEhdMltDSDJdW09IXQ==

> <s_epik_cmdline>
J2VwaWtfcHl0aG9uJywgJy1waCcsICc3LjAnLCAnLXRuJywgJzgnLCAnLW1hJywgJzIwMCcsICctbWV0YWxfYmluZGluZycsICctaW1hZScsICc8aW5maWxlLm1hZT4nLCAnLW9tYWUnLCAnPG91dGZpbGUubWFlPic=

> <r_lp_tautomer_probability>
1

> <r_epik_Ionization_Penalty>
2.32704e-05

> <r_epik_Ionization_Penalty_Charging>
0

> <r_epik_Ionization_Penalty_Neutral>
2.32704e-05

> <r_epik_State_Penalty>
-0

> <r_epik_Charging_Adjusted_Penalty>
0

> <i_epik_Tot_Q>
0

> <i_epik_Tot_abs_Q>
0

> <r_epik_Metal_State_Penalty>
-0

> <b_epik_Metal_Only>
0

> <s_lp_Force_Field>
OPLS_2005

> <r_lp_Energy>
12.0515

> <b_lp_Chiralities_Consistent>
1

> <s_lp_Variant>
AV-unprocessed.smi:2481-3

> <Gold.Version>
5.8.1

> <Gold.Id.Protein>
6NUR|6NUR_protein|mol2

> <Gold.PLP.Fitness>
39.6057

> <Gold.PLP.PLP>
-25.8528

> <Gold.PLP.part.hbond>
-5.7561

> <Gold.PLP.part.metal>
0.0000

> <Gold.PLP.part.buried>
-1.6334

> <Gold.PLP.part.nonpolar>
-18.5169

> <Gold.PLP.part.repulsive>
0.1646

> <Gold.PLP.ligand.clash>
0.0000

> <Gold.PLP.ligand.torsion>
0.5355

> <Gold.PLP.Chemscore.Hbond>
4.9350

> <Gold.PLP.Chemscore.CHOScore>
0.0000

> <Gold.PLP.Chemscore.Metal>
0.0000

> <Gold.Chemscore.Hbonds>
donor molecule, donor type, donor heavy atom, donor atom, acceptor molecule, acceptor atom, score
      L1  H     7    23       P1 10175  0.96
      L1  H    10    24       P1 10175  1.00
      L1  H    18    37       P1 10171  0.91
      P1  H  7954  7966       L1    18  1.00
      P1  H 11000 11005       L1     3  1.00

> <Gold.PLP.Chemscore.Internal.Correction>
0.0188

> <Gold.Rescore>
     Score         DG    S(hbond)    S(metal)    S(lipo)     H(rot)  DE(clash)    DE(int)     intcor
     17.71     -20.32       4.40        0.00      44.59       1.99       1.00       1.62       ----

> <Gold.Chemscore.Fitness>
17.7068

> <Gold.Chemscore.DG>
-20.3215

> <Gold.Chemscore.ZeroCoef>
-5.4800

> <Gold.Chemscore.Hbond>
4.4049

> <Gold.Chemscore.Metal>
0.0000

> <Gold.Chemscore.Lipo>
44.5942

> <Gold.Chemscore.Internal_Hbond>
0.0000

> <Gold.Chemscore.DEClash>
0.9963

> <Gold.Chemscore.DEInternal>
1.6184

> <Gold.Chemscore.Rot>
1.9877

> <Gold.Chemscore.Internal.Correction>
   9.000000E+99

> <Gold.Chemscore.Hbonds>
donor molecule, donor type, donor heavy atom, donor atom, acceptor molecule, acceptor atom, score
      L1  H     7    23       P1 10175  0.92
      L1  H    10    24       P1 10175  0.99
      L1  H    18    37       P1 10171  0.84
      P1  H  7954  7966       L1    18  0.25
      P1  H 11000 11005       L1     3  0.49

> <Gold.Chemscore.Hbond.Weighted>
-14.7125

> <Gold.Chemscore.Metal.Weighted>
-0.0000

> <Gold.Chemscore.Lipo.Weighted>
-5.2175

> <Gold.Chemscore.Internal_Hbond.Weighted>
0.0000

> <Gold.Chemscore.DEClash.Weighted>
0.9963

> <Gold.Chemscore.DEInternal.Weighted>
1.6184

> <Gold.Chemscore.Rot.Weighted>
5.0885

> <Gold.Chemscore.Internal.Correction.Weighted>
   9.000000E+99

> <Gold.Protein.RotatedTorsions>
[ 6907 6896 6895 6894 ] final  145.53 input  -60.11 | X-H torsion
[ 7974 7965 7964 7962 ] final -132.55 input  175.53 | X-H torsion
[ 8008 7997 7996 7995 ] final -122.14 input   59.86 | X-H torsion
[ 10167 10162 10161 10158 ] final  123.73 input  -65.29 | X-H torsion
[ 10718 10713 10712 10709 ] final  -21.59 input   66.30 | X-H torsion
[ 10763 10752 10751 10750 ] final   36.21 input  -60.55 | X-H torsion
[ 11005 11000 10999 10996 ] final   62.75 input  -57.11 | X-H torsion

> <Gold.Protein.ActiveResidues>
 VAL166  LYS551  ARG553  GLY616  TRP617  ASP618  TYR619  PRO620  LYS621  CYS622 
 ASP623  PHE694  ASN695  SER759  ASP760  ASP761  ALA762  ILE779  LEU786  VAL792 
 PHE793  MET794  SER795  GLU796  ALA797  LYS798  CYS799  TRP800  GLU811  SER814 

> <Gold.Protein.RotatedAtoms>
  152.1797  133.4699  159.4951 H   0  0  0  0  0  0  0  0  0  0  0  0  # atno 6907 bound_to 6896
  150.6932  134.1849  159.4272 H   0  0  0  0  0  0  0  0  0  0  0  0  # atno 6908 bound_to 6896
  151.9760  135.0052  160.0606 H   0  0  0  0  0  0  0  0  0  0  0  0  # atno 6909 bound_to 6896
  144.9275  140.7089  143.4926 H   0  0  0  0  0  0  0  0  0  0  0  0  # atno 7974 bound_to 7965
  155.1595  140.0405  157.2839 H   0  0  0  0  0  0  0  0  0  0  0  0  # atno 8008 bound_to 7997
  154.6346  140.2532  155.7366 H   0  0  0  0  0  0  0  0  0  0  0  0  # atno 8009 bound_to 7997
  156.2502  140.2868  156.0714 H   0  0  0  0  0  0  0  0  0  0  0  0  # atno 8010 bound_to 7997
  139.5783  144.6974  151.3596 H   0  0  0  0  0  0  0  0  0  0  0  0  # atno 10167 bound_to 10162
  156.5161  130.4621  149.6621 H   0  0  0  0  0  0  0  0  0  0  0  0  # atno 10718 bound_to 10713
  153.0086  135.6312  154.1948 H   0  0  0  0  0  0  0  0  0  0  0  0  # atno 10763 bound_to 10752
  154.1691  135.2819  155.3088 H   0  0  0  0  0  0  0  0  0  0  0  0  # atno 10764 bound_to 10752
  154.5922  135.5614  153.7350 H   0  0  0  0  0  0  0  0  0  0  0  0  # atno 10765 bound_to 10752
  140.0071  134.6353  155.9839 H   0  0  0  0  0  0  0  0  0  0  0  0  # atno 11005 bound_to 11000
  145.3195  139.1793  143.4595 LP  0  0  0  0  0  0  0  0  0  0  0  0  # atno 17320 bound_to 7965
  146.3232  140.3211  142.8633 LP  0  0  0  0  0  0  0  0  0  0  0  0  # atno 17321 bound_to 7965
  140.7063  143.7504  150.7488 LP  0  0  0  0  0  0  0  0  0  0  0  0  # atno 17342 bound_to 10162
  140.1030  143.4770  152.2414 LP  0  0  0  0  0  0  0  0  0  0  0  0  # atno 17343 bound_to 10162
  156.3193  130.7272  151.2181 LP  0  0  0  0  0  0  0  0  0  0  0  0  # atno 17370 bound_to 10713
  157.7443  131.0460  150.4871 LP  0  0  0  0  0  0  0  0  0  0  0  0  # atno 17371 bound_to 10713
  141.1684  133.6537  156.4563 LP  0  0  0  0  0  0  0  0  0  0  0  0  # atno 17394 bound_to 11000
  140.4622  134.6831  157.5090 LP  0  0  0  0  0  0  0  0  0  0  0  0  # atno 17395 bound_to 11000

$$$$
