AV-unprocessed.smi:3324|AV-procd|sdf|12782|dock6
  -GOLD-   2272019123D 1   1.00000     0.00000
 Structure written by MMmdl.
 30 30  0  0  0  0  0  0  0  0  1 V2000
  144.3261  137.5686  152.5377 O   0  0  0  0  0  0  0  0  0  0  0  0
  145.5211  137.3878  152.3067 C   0  0  0  0  0  0  0  0  0  0  0  0
  146.4381  138.5809  152.0439 C   0  0  0  0  0  0  0  0  0  0  0  0
  147.5666  138.6090  152.9796 N   0  0  0  0  0  0  0  0  0  0  0  0
  148.1530  139.9390  153.0373 C   0  0  0  0  0  0  0  0  0  0  0  0
  148.7714  140.1619  154.4247 C   0  0  0  0  0  0  0  0  0  0  0  0
  149.9865  139.3900  154.5963 N   0  0  0  0  0  0  0  0  0  0  0  0
  150.1730  138.0358  154.4162 C   0  0  0  0  0  0  0  0  0  0  0  0
  151.4812  137.7653  154.6989 C   0  0  0  0  0  0  0  0  0  0  0  0
  152.0207  139.0349  155.0487 C   0  0  0  0  0  0  0  0  0  0  0  0
  151.1225  140.0049  154.9897 N   0  0  0  0  0  0  0  0  0  0  0  0
  146.0941  136.1750  152.2727 N   0  0  0  0  0  0  0  0  0  0  0  0
  145.4040  134.9099  152.5026 C   0  0  0  0  0  0  0  0  0  0  0  0
  144.9102  134.2750  151.1918 C   0  0  0  0  0  0  0  0  0  0  0  0
  143.9069  133.4411  151.4621 F   0  0  0  0  0  0  0  0  0  0  0  0
  144.4686  135.2188  150.3599 F   0  0  0  0  0  0  0  0  0  0  0  0
  145.8859  133.5876  150.5979 F   0  0  0  0  0  0  0  0  0  0  0  0
  146.8093  138.5352  151.0186 H   0  0  0  0  0  0  0  0  0  0  0  0
  145.8529  139.4973  152.1363 H   0  0  0  0  0  0  0  0  0  0  0  0
  148.2804  137.9461  152.7112 H   0  0  0  0  0  0  0  0  0  0  0  0
  148.9165  140.0406  152.2642 H   0  0  0  0  0  0  0  0  0  0  0  0
  147.3869  140.6918  152.8449 H   0  0  0  0  0  0  0  0  0  0  0  0
  149.0119  141.2161  154.5705 H   0  0  0  0  0  0  0  0  0  0  0  0
  148.0656  139.8867  155.2104 H   0  0  0  0  0  0  0  0  0  0  0  0
  149.3683  137.3856  154.1062 H   0  0  0  0  0  0  0  0  0  0  0  0
  151.9773  136.8068  154.6615 H   0  0  0  0  0  0  0  0  0  0  0  0
  153.0312  139.2788  155.3425 H   0  0  0  0  0  0  0  0  0  0  0  0
  147.0830  136.1263  152.0746 H   0  0  0  0  0  0  0  0  0  0  0  0
  146.0479  134.2142  153.0432 H   0  0  0  0  0  0  0  0  0  0  0  0
  144.5537  135.1089  153.1555 H   0  0  0  0  0  0  0  0  0  0  0  0
  1  2  2  0  0  0  0
  2  3  1  0  0  0  0
  2 12  1  0  0  0  0
  3  4  1  0  0  0  0
  3 18  1  0  0  0  0
  3 19  1  0  0  0  0
  4  5  1  0  0  0  0
  4 20  1  0  0  0  0
  5  6  1  0  0  0  0
  5 21  1  0  0  0  0
  5 22  1  0  0  0  0
  6  7  1  0  0  0  0
  6 23  1  0  0  0  0
  6 24  1  0  0  0  0
  7 11  1  0  0  0  0
  7  8  1  0  0  0  0
  8  9  2  0  0  0  0
  8 25  1  0  0  0  0
  9 10  1  0  0  0  0
  9 26  1  0  0  0  0
 10 11  2  0  0  0  0
 10 27  1  0  0  0  0
 12 13  1  0  0  0  0
 12 28  1  0  0  0  0
 13 14  1  0  0  0  0
 13 29  1  0  0  0  0
 13 30  1  0  0  0  0
 14 15  1  0  0  0  0
 14 16  1  0  0  0  0
 14 17  1  0  0  0  0
M  END
> <s_m_source_file>
AV-unprocessed.smi

> <i_m_source_file_index>
3324

> <i_lp_mmshare_version>
43012

> <i_f3d_flags>
0

> <s_epik_input>
RkMoRikoRilbQ0gyXVtOSF1DKD1PKVtDSDJdW05IXVtDSDJdW0NIMl1uMVtjSF1bY0hdW2NIXW4x

> <s_epik_cmdline>
J2VwaWtfcHl0aG9uJywgJy1waCcsICc3LjAnLCAnLXRuJywgJzgnLCAnLW1hJywgJzIwMCcsICctbWV0YWxfYmluZGluZycsICctaW1hZScsICc8aW5maWxlLm1hZT4nLCAnLW9tYWUnLCAnPG91dGZpbGUubWFlPic=

> <r_lp_tautomer_probability>
1

> <r_epik_Ionization_Penalty>
0.533356

> <r_epik_Ionization_Penalty_Charging>
0

> <r_epik_Ionization_Penalty_Neutral>
0.533356

> <r_epik_State_Penalty>
0.540813

> <r_epik_Charging_Adjusted_Penalty>
0.540813

> <i_epik_Tot_Q>
0

> <i_epik_Tot_abs_Q>
0

> <r_epik_Metal_State_Penalty>
0.549553

> <b_epik_Metal_Only>
0

> <s_lp_Force_Field>
OPLS_2005

> <r_lp_Energy>
3.03628

> <b_lp_Chiralities_Consistent>
1

> <s_lp_Variant>
AV-unprocessed.smi:3324-2

> <Gold.Version>
5.8.1

> <Gold.Id.Protein>
6NUR|6NUR_protein|mol2

> <Gold.PLP.Fitness>
44.4011

> <Gold.PLP.PLP>
-33.9904

> <Gold.PLP.part.hbond>
-4.0000

> <Gold.PLP.part.metal>
0.0000

> <Gold.PLP.part.buried>
1.5197

> <Gold.PLP.part.nonpolar>
-33.0210

> <Gold.PLP.part.repulsive>
1.3866

> <Gold.PLP.ligand.clash>
0.0000

> <Gold.PLP.ligand.torsion>
0.8930

> <Gold.PLP.Chemscore.Hbond>
3.0000

> <Gold.PLP.Chemscore.CHOScore>
1.0000

> <Gold.PLP.Chemscore.Metal>
0.0000

> <Gold.Chemscore.Hbonds>
donor molecule, donor type, donor heavy atom, donor atom, acceptor molecule, acceptor atom, score
      L1  H     4    20       P1  7948  1.00
      L1  H    12    28       P1  7948  1.00
      P1  H  7989  7998       L1    11  1.00
      L1  C     8    25       P1  7948  0.97

> <Gold.PLP.Chemscore.Internal.Correction>
0.1967

> <Gold.Rescore>
     Score         DG    S(hbond)    S(metal)    S(lipo)     H(rot)  DE(clash)    DE(int)     intcor
      8.55     -11.38       1.99        0.00      55.63       2.83       1.83       1.01       ----

> <Gold.Chemscore.Fitness>
8.5456

> <Gold.Chemscore.DG>
-11.3823

> <Gold.Chemscore.ZeroCoef>
-5.4800

> <Gold.Chemscore.Hbond>
1.9879

> <Gold.Chemscore.Metal>
0.0000

> <Gold.Chemscore.Lipo>
55.6311

> <Gold.Chemscore.Internal_Hbond>
0.0000

> <Gold.Chemscore.DEClash>
1.8295

> <Gold.Chemscore.DEInternal>
1.0071

> <Gold.Chemscore.Rot>
2.8305

> <Gold.Chemscore.Internal.Correction>
   9.000000E+99

> <Gold.Chemscore.Hbonds>
donor molecule, donor type, donor heavy atom, donor atom, acceptor molecule, acceptor atom, score
      L1  H     4    20       P1  7948  0.93
      L1  H    12    28       P1  7948  1.00
      P1  H  7989  7998       L1    11  0.12

> <Gold.Chemscore.Hbond.Weighted>
-6.6396

> <Gold.Chemscore.Metal.Weighted>
-0.0000

> <Gold.Chemscore.Lipo.Weighted>
-6.5088

> <Gold.Chemscore.Internal_Hbond.Weighted>
0.0000

> <Gold.Chemscore.DEClash.Weighted>
1.8295

> <Gold.Chemscore.DEInternal.Weighted>
1.0071

> <Gold.Chemscore.Rot.Weighted>
7.2461

> <Gold.Chemscore.Internal.Correction.Weighted>
   9.000000E+99

> <Gold.Protein.RotatedTorsions>
[ 6907 6896 6895 6894 ] final   53.53 input  -60.11 | X-H torsion
[ 7974 7965 7964 7962 ] final  -63.88 input  175.53 | X-H torsion
[ 8008 7997 7996 7995 ] final   36.21 input   59.86 | X-H torsion
[ 10167 10162 10161 10158 ] final   69.02 input  -65.29 | X-H torsion
[ 10718 10713 10712 10709 ] final -171.54 input   66.30 | X-H torsion
[ 10763 10752 10751 10750 ] final -158.91 input  -60.55 | X-H torsion
[ 11005 11000 10999 10996 ] final -140.34 input  -57.11 | X-H torsion

> <Gold.Protein.ActiveResidues>
 VAL166  LYS551  ARG553  GLY616  TRP617  ASP618  TYR619  PRO620  LYS621  CYS622 
 ASP623  PHE694  ASN695  SER759  ASP760  ASP761  ALA762  ILE779  LEU786  VAL792 
 PHE793  MET794  SER795  GLU796  ALA797  LYS798  CYS799  TRP800  GLU811  SER814 

> <Gold.Protein.RotatedAtoms>
  152.3346  134.7215  160.0280 H   0  0  0  0  0  0  0  0  0  0  0  0  # atno 6907 bound_to 6896
  151.7620  133.3329  159.3428 H   0  0  0  0  0  0  0  0  0  0  0  0  # atno 6908 bound_to 6896
  150.7443  134.6029  159.6090 H   0  0  0  0  0  0  0  0  0  0  0  0  # atno 6909 bound_to 6896
  145.7736  140.8799  143.0367 H   0  0  0  0  0  0  0  0  0  0  0  0  # atno 7974 bound_to 7965
  155.1836  140.3302  155.4370 H   0  0  0  0  0  0  0  0  0  0  0  0  # atno 8008 bound_to 7997
  156.2468  140.1922  156.6883 H   0  0  0  0  0  0  0  0  0  0  0  0  # atno 8009 bound_to 7997
  154.6254  140.0590  156.9653 H   0  0  0  0  0  0  0  0  0  0  0  0  # atno 8010 bound_to 7997
  140.0723  144.5142  150.7219 H   0  0  0  0  0  0  0  0  0  0  0  0  # atno 10167 bound_to 10162
  156.7424  130.9347  151.3111 H   0  0  0  0  0  0  0  0  0  0  0  0  # atno 10718 bound_to 10713
  154.7518  135.3094  154.8544 H   0  0  0  0  0  0  0  0  0  0  0  0  # atno 10763 bound_to 10752
  153.9329  135.6783  153.4749 H   0  0  0  0  0  0  0  0  0  0  0  0  # atno 10764 bound_to 10752
  153.1114  135.4865  154.8970 H   0  0  0  0  0  0  0  0  0  0  0  0  # atno 10765 bound_to 10752
  140.8432  134.2376  157.4799 H   0  0  0  0  0  0  0  0  0  0  0  0  # atno 11005 bound_to 11000
  144.6808  139.9890  143.7484 LP  0  0  0  0  0  0  0  0  0  0  0  0  # atno 17320 bound_to 7965
  146.0145  139.3198  143.0850 LP  0  0  0  0  0  0  0  0  0  0  0  0  # atno 17321 bound_to 7965
  140.7119  143.2512  151.4554 LP  0  0  0  0  0  0  0  0  0  0  0  0  # atno 17342 bound_to 10162
  139.5829  144.1670  152.1991 LP  0  0  0  0  0  0  0  0  0  0  0  0  # atno 17343 bound_to 10162
  157.6812  130.9142  150.0273 LP  0  0  0  0  0  0  0  0  0  0  0  0  # atno 17370 bound_to 10713
  156.1455  130.3642  149.9516 LP  0  0  0  0  0  0  0  0  0  0  0  0  # atno 17371 bound_to 10713
  139.8703  134.9646  156.4501 LP  0  0  0  0  0  0  0  0  0  0  0  0  # atno 17394 bound_to 11000
  140.8872  133.7875  155.9531 LP  0  0  0  0  0  0  0  0  0  0  0  0  # atno 17395 bound_to 11000

$$$$
