AV-unprocessed.smi:415|AV-procd|sdf|2519|dock7
  -GOLD-   2262022473D 1   1.00000     0.00000
 Structure written by MMmdl.
 53 54  0  0  0  0  0  0  0  0  1 V2000
  148.6962  132.7993  153.0245 C   0  0  0  0  0  0  0  0  0  0  0  0
  149.0355  133.3317  154.2930 O   0  0  0  0  0  0  0  0  0  0  0  0
  150.2457  134.0689  154.2673 C   0  0  0  0  0  0  0  0  0  0  0  0
  150.3440  134.9017  155.5538 C   0  0  0  0  0  0  0  0  0  0  0  0
  150.3186  136.3289  155.2990 N   0  0  0  0  0  0  0  0  0  0  0  0
  149.2609  136.9695  154.6599 C   0  0  0  0  0  0  0  0  0  0  0  0
  148.1597  136.2355  154.2570 N   0  0  0  0  0  0  0  0  0  0  0  0
  149.2770  138.3020  154.4348 C   0  0  0  0  0  0  0  0  0  0  0  0
  150.3938  139.1384  154.8507 C   0  0  0  0  0  0  0  0  0  0  0  0
  150.4389  140.3495  154.6320 O   0  0  0  0  0  0  0  0  0  0  0  0
  151.4426  138.4726  155.5261 N   0  0  0  0  0  0  0  0  0  0  0  0
  152.6123  139.2674  155.9631 C   0  0  0  0  0  0  0  0  0  0  0  0
  152.4802  139.8095  157.3947 C   0  0  0  0  0  0  0  0  0  0  0  0
  152.7015  139.0893  158.3693 O   0  0  0  0  0  0  0  0  0  0  0  0
  152.1002  141.0918  157.5004 N   0  0  0  0  0  0  0  0  0  0  0  0
  151.8985  141.8157  158.7536 C   0  0  1  0  0  0  0  0  0  0  0  0
  153.2421  141.9610  159.4941 C   0  0  0  0  0  0  0  0  0  0  0  0
  153.0644  142.6916  160.8333 C   0  0  0  0  0  0  0  0  0  0  0  0
  152.3734  144.0516  160.6477 C   0  0  0  0  0  0  0  0  0  0  0  0
  151.0313  143.9050  159.9019 C   0  0  1  0  0  0  0  0  0  0  0  0
  150.2820  145.2444  159.8045 C   0  0  0  0  0  0  0  0  0  0  0  0
  151.2113  143.1920  158.5347 C   0  0  1  0  0  0  0  0  0  0  0  0
  151.9212  144.0632  157.4720 C   0  0  0  0  0  0  0  0  0  0  0  0
  151.4269  137.0797  155.7687 C   0  0  0  0  0  0  0  0  0  0  0  0
  152.3601  136.5414  156.3708 O   0  0  0  0  0  0  0  0  0  0  0  0
  147.7619  132.2428  153.0992 H   0  0  0  0  0  0  0  0  0  0  0  0
  149.4660  132.1159  152.6639 H   0  0  0  0  0  0  0  0  0  0  0  0
  148.5580  133.5917  152.2878 H   0  0  0  0  0  0  0  0  0  0  0  0
  151.0943  133.3865  154.1967 H   0  0  0  0  0  0  0  0  0  0  0  0
  150.2695  134.7180  153.3905 H   0  0  0  0  0  0  0  0  0  0  0  0
  149.5484  134.6640  156.2620 H   0  0  0  0  0  0  0  0  0  0  0  0
  151.2688  134.6918  156.0904 H   0  0  0  0  0  0  0  0  0  0  0  0
  148.0963  135.2397  154.4125 H   0  0  0  0  0  0  0  0  0  0  0  0
  147.3603  136.6713  153.8199 H   0  0  0  0  0  0  0  0  0  0  0  0
  148.4421  138.7696  153.9327 H   0  0  0  0  0  0  0  0  0  0  0  0
  153.5263  138.6752  155.8919 H   0  0  0  0  0  0  0  0  0  0  0  0
  152.7949  140.1112  155.2963 H   0  0  0  0  0  0  0  0  0  0  0  0
  151.9357  141.6075  156.6482 H   0  0  0  0  0  0  0  0  0  0  0  0
  151.2492  141.2092  159.3888 H   0  0  0  0  0  0  0  0  0  0  0  0
  153.6751  140.9763  159.6748 H   0  0  0  0  0  0  0  0  0  0  0  0
  153.9596  142.5003  158.8747 H   0  0  0  0  0  0  0  0  0  0  0  0
  152.4715  142.0727  161.5078 H   0  0  0  0  0  0  0  0  0  0  0  0
  154.0333  142.8291  161.3138 H   0  0  0  0  0  0  0  0  0  0  0  0
  152.2071  144.5061  161.6250 H   0  0  0  0  0  0  0  0  0  0  0  0
  153.0342  144.7296  160.1066 H   0  0  0  0  0  0  0  0  0  0  0  0
  150.4018  143.2547  160.5116 H   0  0  0  0  0  0  0  0  0  0  0  0
  150.8710  146.0041  159.2907 H   0  0  0  0  0  0  0  0  0  0  0  0
  150.0509  145.6323  160.7968 H   0  0  0  0  0  0  0  0  0  0  0  0
  149.3390  145.1295  159.2695 H   0  0  0  0  0  0  0  0  0  0  0  0
  150.2113  142.9933  158.1465 H   0  0  0  0  0  0  0  0  0  0  0  0
  152.9317  144.3359  157.7736 H   0  0  0  0  0  0  0  0  0  0  0  0
  151.3747  144.9856  157.2801 H   0  0  0  0  0  0  0  0  0  0  0  0
  151.9933  143.5473  156.5147 H   0  0  0  0  0  0  0  0  0  0  0  0
  1  2  1  0  0  0  0
  1 26  1  0  0  0  0
  1 27  1  0  0  0  0
  1 28  1  0  0  0  0
  2  3  1  0  0  0  0
  3  4  1  0  0  0  0
  3 29  1  0  0  0  0
  3 30  1  0  0  0  0
  4  5  1  0  0  0  0
  4 31  1  0  0  0  0
  4 32  1  0  0  0  0
  5 24  1  0  0  0  0
  5  6  1  0  0  0  0
  6  7  1  0  0  0  0
  6  8  2  0  0  0  0
  7 33  1  0  0  0  0
  7 34  1  0  0  0  0
  8  9  1  0  0  0  0
  8 35  1  0  0  0  0
  9 10  2  0  0  0  0
  9 11  1  0  0  0  0
 11 12  1  0  0  0  0
 11 24  1  0  0  0  0
 12 13  1  0  0  0  0
 12 36  1  0  0  0  0
 12 37  1  0  0  0  0
 13 14  2  0  0  0  0
 13 15  1  0  0  0  0
 15 16  1  0  0  0  0
 15 38  1  0  0  0  0
 16 22  1  0  0  0  0
 16 17  1  0  0  0  0
 16 39  1  0  0  0  0
 17 18  1  0  0  0  0
 17 40  1  0  0  0  0
 17 41  1  0  0  0  0
 18 19  1  0  0  0  0
 18 42  1  0  0  0  0
 18 43  1  0  0  0  0
 19 20  1  0  0  0  0
 19 44  1  0  0  0  0
 19 45  1  0  0  0  0
 20 21  1  0  0  0  0
 20 22  1  0  0  0  0
 20 46  1  0  0  0  0
 21 47  1  0  0  0  0
 21 48  1  0  0  0  0
 21 49  1  0  0  0  0
 22 23  1  0  0  0  0
 22 50  1  0  0  0  0
 23 51  1  0  0  0  0
 23 52  1  0  0  0  0
 23 53  1  0  0  0  0
 24 25  2  0  0  0  0
M  END
> <s_m_source_file>
AV-unprocessed.smi

> <i_m_source_file_index>
415

> <i_lp_mmshare_version>
43012

> <i_f3d_flags>
0

> <s_epik_input>
W0NIM11PW0NIMl1bQ0gyXW4xYyhbTkgyXSlbY0hdYyg9TyluKGMxPU8pW0NIMl1DKD1PKVtOSF1bQ0BASF0yW0NIMl1bQ0gyXVtDSDJdW0NAQEhdKFtDSDNdKVtDQEhdMltDSDNd

> <s_epik_cmdline>
J2VwaWtfcHl0aG9uJywgJy1waCcsICc3LjAnLCAnLXRuJywgJzgnLCAnLW1hJywgJzIwMCcsICctbWV0YWxfYmluZGluZycsICctaW1hZScsICc8aW5maWxlLm1hZT4nLCAnLW9tYWUnLCAnPG91dGZpbGUubWFlPic=

> <r_lp_tautomer_probability>
1

> <r_epik_Ionization_Penalty>
8.6647e-06

> <r_epik_Ionization_Penalty_Charging>
1.81162e-08

> <r_epik_Ionization_Penalty_Neutral>
8.64658e-06

> <r_epik_State_Penalty>
-0

> <r_epik_Charging_Adjusted_Penalty>
1.81162e-08

> <i_epik_Tot_Q>
0

> <i_epik_Tot_abs_Q>
0

> <r_epik_Metal_State_Penalty>
-0

> <b_epik_Metal_Only>
0

> <s_lp_Force_Field>
OPLS_2005

> <r_lp_Energy>
22.062

> <b_lp_Chiralities_Consistent>
1

> <s_lp_Variant>
AV-unprocessed.smi:415-2

> <Gold.Version>
5.8.1

> <Gold.Id.Protein>
6NUR|6NUR_protein|mol2

> <Gold.PLP.Fitness>
46.8088

> <Gold.PLP.PLP>
-43.0553

> <Gold.PLP.part.hbond>
-3.0000

> <Gold.PLP.part.metal>
0.0000

> <Gold.PLP.part.buried>
-2.7022

> <Gold.PLP.part.nonpolar>
-37.3127

> <Gold.PLP.part.repulsive>
0.2814

> <Gold.PLP.ligand.clash>
0.0000

> <Gold.PLP.ligand.torsion>
1.1449

> <Gold.PLP.Chemscore.Hbond>
2.0000

> <Gold.PLP.Chemscore.CHOScore>
0.0000

> <Gold.PLP.Chemscore.Metal>
0.0000

> <Gold.Chemscore.Hbonds>
donor molecule, donor type, donor heavy atom, donor atom, acceptor molecule, acceptor atom, score
      P1  H  7989  7998       L1    10  1.00
      P1  H 10752 10765       L1    25  1.00

> <Gold.PLP.Chemscore.Internal.Correction>
0.0433

> <Gold.Rescore>
     Score         DG    S(hbond)    S(metal)    S(lipo)     H(rot)  DE(clash)    DE(int)     intcor
     15.02     -18.95       1.80        0.00     113.29       2.26       1.75       2.18       ----

> <Gold.Chemscore.Fitness>
15.0229

> <Gold.Chemscore.DG>
-18.9541

> <Gold.Chemscore.ZeroCoef>
-5.4800

> <Gold.Chemscore.Hbond>
1.8013

> <Gold.Chemscore.Metal>
0.0000

> <Gold.Chemscore.Lipo>
113.2895

> <Gold.Chemscore.Internal_Hbond>
0.0000

> <Gold.Chemscore.DEClash>
1.7470

> <Gold.Chemscore.DEInternal>
2.1842

> <Gold.Chemscore.Rot>
2.2645

> <Gold.Chemscore.Internal.Correction>
   9.000000E+99

> <Gold.Chemscore.Hbonds>
donor molecule, donor type, donor heavy atom, donor atom, acceptor molecule, acceptor atom, score
      P1  H  7989  7998       L1    10  0.92
      P1  H 10752 10765       L1    25  0.50

> <Gold.Chemscore.Hbond.Weighted>
-6.0164

> <Gold.Chemscore.Metal.Weighted>
-0.0000

> <Gold.Chemscore.Lipo.Weighted>
-13.2549

> <Gold.Chemscore.Internal_Hbond.Weighted>
0.0000

> <Gold.Chemscore.DEClash.Weighted>
1.7470

> <Gold.Chemscore.DEInternal.Weighted>
2.1842

> <Gold.Chemscore.Rot.Weighted>
5.7972

> <Gold.Chemscore.Internal.Correction.Weighted>
   9.000000E+99

> <Gold.Protein.RotatedTorsions>
[ 6907 6896 6895 6894 ] final  149.87 input  -60.11 | X-H torsion
[ 7974 7965 7964 7962 ] final   74.09 input  175.53 | X-H torsion
[ 8008 7997 7996 7995 ] final   37.84 input   59.86 | X-H torsion
[ 10167 10162 10161 10158 ] final  174.76 input  -65.29 | X-H torsion
[ 10718 10713 10712 10709 ] final  -62.16 input   66.30 | X-H torsion
[ 10763 10752 10751 10750 ] final -145.78 input  -60.55 | X-H torsion
[ 11005 11000 10999 10996 ] final  -80.03 input  -57.11 | X-H torsion

> <Gold.Protein.ActiveResidues>
 VAL166  LYS551  ARG553  GLY616  TRP617  ASP618  TYR619  PRO620  LYS621  CYS622 
 ASP623  PHE694  ASN695  SER759  ASP760  ASP761  ALA762  ILE779  LEU786  VAL792 
 PHE793  MET794  SER795  GLU796  ALA797  LYS798  CYS799  TRP800  GLU811  SER814 

> <Gold.Protein.RotatedAtoms>
  152.1222  133.4359  159.4680 H   0  0  0  0  0  0  0  0  0  0  0  0  # atno 6907 bound_to 6896
  150.6872  134.2521  159.4524 H   0  0  0  0  0  0  0  0  0  0  0  0  # atno 6908 bound_to 6896
  152.0399  134.9717  160.0624 H   0  0  0  0  0  0  0  0  0  0  0  0  # atno 6909 bound_to 6896
  145.7326  139.2690  143.1532 H   0  0  0  0  0  0  0  0  0  0  0  0  # atno 7974 bound_to 7965
  155.2104  140.3323  155.4329 H   0  0  0  0  0  0  0  0  0  0  0  0  # atno 8008 bound_to 7997
  156.2372  140.1878  156.7135 H   0  0  0  0  0  0  0  0  0  0  0  0  # atno 8009 bound_to 7997
  154.6081  140.0613  156.9444 H   0  0  0  0  0  0  0  0  0  0  0  0  # atno 8010 bound_to 7997
  139.5153  144.3109  152.0292 H   0  0  0  0  0  0  0  0  0  0  0  0  # atno 10167 bound_to 10162
  156.0873  130.4206  150.1096 H   0  0  0  0  0  0  0  0  0  0  0  0  # atno 10718 bound_to 10713
  154.8367  135.3404  154.6559 H   0  0  0  0  0  0  0  0  0  0  0  0  # atno 10763 bound_to 10752
  153.7173  135.6960  153.5026 H   0  0  0  0  0  0  0  0  0  0  0  0  # atno 10764 bound_to 10752
  153.2407  135.4385  155.0648 H   0  0  0  0  0  0  0  0  0  0  0  0  # atno 10765 bound_to 10752
  141.1668  133.7132  156.8211 H   0  0  0  0  0  0  0  0  0  0  0  0  # atno 11005 bound_to 11000
  146.0523  140.8057  142.9776 LP  0  0  0  0  0  0  0  0  0  0  0  0  # atno 17320 bound_to 7965
  144.6889  140.3071  143.7254 LP  0  0  0  0  0  0  0  0  0  0  0  0  # atno 17321 bound_to 7965
  140.2554  144.4125  150.6206 LP  0  0  0  0  0  0  0  0  0  0  0  0  # atno 17342 bound_to 10162
  140.6195  143.2175  151.6723 LP  0  0  0  0  0  0  0  0  0  0  0  0  # atno 17343 bound_to 10162
  156.9114  130.9653  151.3562 LP  0  0  0  0  0  0  0  0  0  0  0  0  # atno 17370 bound_to 10713
  157.6012  130.8514  149.8804 LP  0  0  0  0  0  0  0  0  0  0  0  0  # atno 17371 bound_to 10713
  140.2118  134.8821  157.3283 LP  0  0  0  0  0  0  0  0  0  0  0  0  # atno 17394 bound_to 11000
  140.2078  134.4175  155.7628 LP  0  0  0  0  0  0  0  0  0  0  0  0  # atno 17395 bound_to 11000

$$$$
