AV-unprocessed.smi:1987|AV-procd|sdf|8056|dock5
  -GOLD-   2272010263D 1   1.00000     0.00000
 Structure written by MMmdl.
 37 39  0  0  0  0  0  0  0  0  2 V2000
  150.3285  135.3150  156.3731 O   0  0  0  0  0  0  0  0  0  0  0  0
  149.9740  135.7793  155.2899 C   0  0  0  0  0  0  0  0  0  0  0  0
  150.0669  137.2824  155.0327 C   0  0  0  0  0  0  0  0  0  0  0  0
  151.4325  137.7390  155.2096 N   0  0  0  0  0  0  0  0  0  0  0  0
  151.9734  138.9531  155.0900 C   0  0  0  0  0  0  0  0  0  0  0  0
  153.2661  138.9422  155.3772 N   0  0  0  0  0  0  0  0  0  0  0  0
  153.5086  137.6151  155.6904 N   0  0  0  0  0  0  0  0  0  0  0  0
  152.4243  136.8962  155.5933 N   0  0  0  0  0  0  0  0  0  0  0  0
  149.5278  135.0284  154.2715 N   0  0  0  0  0  0  0  0  0  0  0  0
  149.4898  133.5713  154.2563 C   0  0  0  0  0  0  0  0  0  0  0  0
  148.1180  133.0429  153.7919 C   0  0  2  0  0  0  0  0  0  0  0  0
  147.9319  131.5318  153.9231 C   0  0  0  0  0  0  0  0  0  0  0  0
  146.7674  131.2611  152.9753 C   0  0  0  0  0  0  0  0  0  0  0  0
  146.9559  132.1939  151.8435 N   0  3  1  0  0  0  0  0  0  0  0  0
  145.6937  132.6251  151.2056 C   0  0  0  0  0  0  0  0  0  0  0  0
  144.8458  131.4790  150.7082 C   0  0  0  0  0  0  0  0  0  0  0  0
  145.6315  132.3227  149.7275 C   0  0  0  0  0  0  0  0  0  0  0  0
  147.8114  133.3102  152.3119 C   0  0  0  0  0  0  0  0  0  0  0  0
  149.7318  137.5192  154.0217 H   0  0  0  0  0  0  0  0  0  0  0  0
  149.4204  137.8230  155.7253 H   0  0  0  0  0  0  0  0  0  0  0  0
  151.4229  139.8377  154.8046 H   0  0  0  0  0  0  0  0  0  0  0  0
  149.2506  135.5004  153.4224 H   0  0  0  0  0  0  0  0  0  0  0  0
  150.2846  133.1827  153.6173 H   0  0  0  0  0  0  0  0  0  0  0  0
  149.7048  133.2208  155.2663 H   0  0  0  0  0  0  0  0  0  0  0  0
  147.3350  133.5237  154.3812 H   0  0  0  0  0  0  0  0  0  0  0  0
  148.8242  131.0063  153.5801 H   0  0  0  0  0  0  0  0  0  0  0  0
  147.7239  131.2152  154.9461 H   0  0  0  0  0  0  0  0  0  0  0  0
  146.7312  130.2246  152.6389 H   0  0  0  0  0  0  0  0  0  0  0  0
  145.8279  131.4817  153.4851 H   0  0  0  0  0  0  0  0  0  0  0  0
  145.2290  133.5246  151.6064 H   0  0  0  0  0  0  0  0  0  0  0  0
  145.1936  130.4636  150.8898 H   0  0  0  0  0  0  0  0  0  0  0  0
  143.7656  131.6098  150.7234 H   0  0  0  0  0  0  0  0  0  0  0  0
  145.0682  133.0086  149.0979 H   0  0  0  0  0  0  0  0  0  0  0  0
  146.5018  131.8682  149.2572 H   0  0  0  0  0  0  0  0  0  0  0  0
  147.3399  134.2849  152.1760 H   0  0  0  0  0  0  0  0  0  0  0  0
  148.7243  133.3031  151.7153 H   0  0  0  0  0  0  0  0  0  0  0  0
  147.4933  131.7002  151.1451 H   0  0  0  0  0  0  0  0  0  0  0  0
  1  2  2  0  0  0  0
  2  3  1  0  0  0  0
  2  9  1  0  0  0  0
  3  4  1  0  0  0  0
  3 19  1  0  0  0  0
  3 20  1  0  0  0  0
  4  8  1  0  0  0  0
  4  5  1  0  0  0  0
  5  6  2  0  0  0  0
  5 21  1  0  0  0  0
  6  7  1  0  0  0  0
  7  8  2  0  0  0  0
  9 10  1  0  0  0  0
  9 22  1  0  0  0  0
 10 11  1  0  0  0  0
 10 23  1  0  0  0  0
 10 24  1  0  0  0  0
 11 18  1  0  0  0  0
 11 12  1  0  0  0  0
 11 25  1  0  0  0  0
 12 13  1  0  0  0  0
 12 26  1  0  0  0  0
 12 27  1  0  0  0  0
 13 14  1  0  0  0  0
 13 28  1  0  0  0  0
 13 29  1  0  0  0  0
 14 15  1  0  0  0  0
 14 18  1  0  0  0  0
 14 37  1  0  0  0  0
 15 17  1  0  0  0  0
 15 16  1  0  0  0  0
 15 30  1  0  0  0  0
 16 17  1  0  0  0  0
 16 31  1  0  0  0  0
 16 32  1  0  0  0  0
 17 33  1  0  0  0  0
 17 34  1  0  0  0  0
 18 35  1  0  0  0  0
 18 36  1  0  0  0  0
M  CHG  1  14   1
M  END
> <s_m_source_file>
AV-unprocessed.smi

> <i_m_source_file_index>
1987

> <i_lp_mmshare_version>
43012

> <i_f3d_flags>
0

> <s_epik_input>
bjFubltjSF1uMVtDSDJdQyg9TylbTkhdW0NIMl1bQ0BASF0yW0NIMl1bQ0gyXU4oW0NIMl0yKVtDSF0zW0NIMl1bQ0gyXTM=

> <s_epik_cmdline>
J2VwaWtfcHl0aG9uJywgJy1waCcsICc3LjAnLCAnLXRuJywgJzgnLCAnLW1hJywgJzIwMCcsICctbWV0YWxfYmluZGluZycsICctaW1hZScsICc8aW5maWxlLm1hZT4nLCAnLW9tYWUnLCAnPG91dGZpbGUubWFlPic=

> <r_lp_tautomer_probability>
1

> <r_epik_Ionization_Penalty>
0.000242849

> <r_epik_Ionization_Penalty_Charging>
0.000241326

> <r_epik_Ionization_Penalty_Neutral>
1.52322e-06

> <r_epik_State_Penalty>
-0

> <r_epik_Charging_Adjusted_Penalty>
0.000241326

> <i_epik_Tot_Q>
1

> <i_epik_Tot_abs_Q>
1

> <r_epik_Metal_State_Penalty>
-0

> <b_epik_Metal_Only>
0

> <s_lp_Force_Field>
OPLS_2005

> <r_lp_Energy>
38.2804

> <b_lp_Chiralities_Consistent>
1

> <s_lp_Variant>
AV-unprocessed.smi:1987-3

> <Gold.Version>
5.8.1

> <Gold.Id.Protein>
6NUR|6NUR_protein|mol2

> <Gold.PLP.Fitness>
45.8672

> <Gold.PLP.PLP>
-34.8125

> <Gold.PLP.part.hbond>
-5.0970

> <Gold.PLP.part.metal>
0.0000

> <Gold.PLP.part.buried>
-4.9286

> <Gold.PLP.part.nonpolar>
-25.1071

> <Gold.PLP.part.repulsive>
0.0931

> <Gold.PLP.ligand.clash>
0.0000

> <Gold.PLP.ligand.torsion>
0.8359

> <Gold.PLP.Chemscore.Hbond>
3.8160

> <Gold.PLP.Chemscore.CHOScore>
0.0000

> <Gold.PLP.Chemscore.Metal>
0.0000

> <Gold.Chemscore.Hbonds>
donor molecule, donor type, donor heavy atom, donor atom, acceptor molecule, acceptor atom, score
      L1  H     9    22       P1  7948  1.00
      L1  H    14    37       P1 10747  1.00
      P1  H  7997  8009       L1     6  0.96
      P1  H 10752 10765       L1     8  0.83

> <Gold.PLP.Chemscore.Internal.Correction>
1.2785

> <Gold.Rescore>
     Score         DG    S(hbond)    S(metal)    S(lipo)     H(rot)  DE(clash)    DE(int)     intcor
     13.65     -16.02       3.05        0.00      60.46       2.62       0.00       2.36       ----

> <Gold.Chemscore.Fitness>
13.6504

> <Gold.Chemscore.DG>
-16.0150

> <Gold.Chemscore.ZeroCoef>
-5.4800

> <Gold.Chemscore.Hbond>
3.0479

> <Gold.Chemscore.Metal>
0.0000

> <Gold.Chemscore.Lipo>
60.4569

> <Gold.Chemscore.Internal_Hbond>
0.0000

> <Gold.Chemscore.DEClash>
0.0004

> <Gold.Chemscore.DEInternal>
2.3642

> <Gold.Chemscore.Rot>
2.6244

> <Gold.Chemscore.Internal.Correction>
   9.000000E+99

> <Gold.Chemscore.Hbonds>
donor molecule, donor type, donor heavy atom, donor atom, acceptor molecule, acceptor atom, score
      L1  H     9    22       P1  7948  0.35
      L1  H    14    37       P1 10747  0.99
      P1  H  7997  8009       L1     6  0.89
      P1  H 10752 10765       L1     8  0.21

> <Gold.Chemscore.Hbond.Weighted>
-10.1801

> <Gold.Chemscore.Metal.Weighted>
-0.0000

> <Gold.Chemscore.Lipo.Weighted>
-7.0735

> <Gold.Chemscore.Internal_Hbond.Weighted>
0.0000

> <Gold.Chemscore.DEClash.Weighted>
0.0004

> <Gold.Chemscore.DEInternal.Weighted>
2.3642

> <Gold.Chemscore.Rot.Weighted>
6.7186

> <Gold.Chemscore.Internal.Correction.Weighted>
   9.000000E+99

> <Gold.Protein.RotatedTorsions>
[ 6907 6896 6895 6894 ] final  123.89 input  -60.11 | X-H torsion
[ 7974 7965 7964 7962 ] final  156.37 input  175.53 | X-H torsion
[ 8008 7997 7996 7995 ] final -127.41 input   59.86 | X-H torsion
[ 10167 10162 10161 10158 ] final   11.39 input  -65.29 | X-H torsion
[ 10718 10713 10712 10709 ] final   -1.57 input   66.30 | X-H torsion
[ 10763 10752 10751 10750 ] final -167.26 input  -60.55 | X-H torsion
[ 11005 11000 10999 10996 ] final -111.49 input  -57.11 | X-H torsion

> <Gold.Protein.ActiveResidues>
 VAL166  LYS551  ARG553  GLY616  TRP617  ASP618  TYR619  PRO620  LYS621  CYS622 
 ASP623  PHE694  ASN695  SER759  ASP760  ASP761  ALA762  ILE779  LEU786  VAL792 
 PHE793  MET794  SER795  GLU796  ALA797  LYS798  CYS799  TRP800  GLU811  SER814 

> <Gold.Protein.RotatedAtoms>
  152.4124  133.6984  159.6408 H   0  0  0  0  0  0  0  0  0  0  0  0  # atno 6907 bound_to 6896
  150.8003  133.8601  159.3238 H   0  0  0  0  0  0  0  0  0  0  0  0  # atno 6908 bound_to 6896
  151.6340  135.1022  160.0179 H   0  0  0  0  0  0  0  0  0  0  0  0  # atno 6909 bound_to 6896
  144.7967  139.7194  143.6199 H   0  0  0  0  0  0  0  0  0  0  0  0  # atno 7974 bound_to 7965
  155.2456  140.0430  157.2980 H   0  0  0  0  0  0  0  0  0  0  0  0  # atno 8008 bound_to 7997
  154.5801  140.2398  155.8036 H   0  0  0  0  0  0  0  0  0  0  0  0  # atno 8009 bound_to 7997
  156.2186  140.2977  155.9907 H   0  0  0  0  0  0  0  0  0  0  0  0  # atno 8010 bound_to 7997
  140.6135  143.8358  150.7092 H   0  0  0  0  0  0  0  0  0  0  0  0  # atno 10167 bound_to 10162
  156.8037  130.5401  149.5718 H   0  0  0  0  0  0  0  0  0  0  0  0  # atno 10718 bound_to 10713
  154.6750  135.2945  154.9691 H   0  0  0  0  0  0  0  0  0  0  0  0  # atno 10763 bound_to 10752
  154.0705  135.6618  153.4827 H   0  0  0  0  0  0  0  0  0  0  0  0  # atno 10764 bound_to 10752
  153.0510  135.5174  154.7764 H   0  0  0  0  0  0  0  0  0  0  0  0  # atno 10765 bound_to 10752
  141.0731  133.9346  157.2445 H   0  0  0  0  0  0  0  0  0  0  0  0  # atno 11005 bound_to 11000
  146.2238  139.5684  142.9601 LP  0  0  0  0  0  0  0  0  0  0  0  0  # atno 17320 bound_to 7965
  145.5655  141.0400  143.2203 LP  0  0  0  0  0  0  0  0  0  0  0  0  # atno 17321 bound_to 7965
  140.1931  143.4020  152.1848 LP  0  0  0  0  0  0  0  0  0  0  0  0  # atno 17342 bound_to 10162
  139.5380  144.7228  151.4829 LP  0  0  0  0  0  0  0  0  0  0  0  0  # atno 17343 bound_to 10162
  156.1086  130.6023  151.0010 LP  0  0  0  0  0  0  0  0  0  0  0  0  # atno 17370 bound_to 10713
  157.6541  131.0892  150.7987 LP  0  0  0  0  0  0  0  0  0  0  0  0  # atno 17371 bound_to 10713
  139.9544  135.0169  156.9085 LP  0  0  0  0  0  0  0  0  0  0  0  0  # atno 17394 bound_to 11000
  140.5631  134.0515  155.7405 LP  0  0  0  0  0  0  0  0  0  0  0  0  # atno 17395 bound_to 11000

$$$$
