AV-unprocessed.smi:2531|AV-procd|sdf|9967|dock9
  -GOLD-   2272014 13D 1   1.00000     0.00000
 Structure written by MMmdl.
 46 48  0  0  0  0  0  0  0  0  3 V2000
  148.7488  139.0632  153.7837 O   0  0  0  0  0  0  0  0  0  0  0  0
  149.6229  139.7428  154.3239 C   0  0  0  0  0  0  0  0  0  0  0  0
  149.3289  141.1894  154.7719 C   0  0  0  0  0  0  0  0  0  0  0  0
  149.2702  141.3347  156.3105 C   0  0  0  0  0  0  0  0  0  0  0  0
  147.8214  141.6912  156.6761 C   0  0  0  0  0  0  0  0  0  0  0  0
  146.9916  141.3952  155.4280 C   0  0  0  0  0  0  0  0  0  0  0  0
  147.9528  141.6627  154.2713 C   0  0  0  0  0  0  0  0  0  0  0  0
  150.9304  139.2688  154.4672 N   0  0  0  0  0  0  0  0  0  0  0  0
  151.8133  139.8081  155.4915 C   0  0  0  0  0  0  0  0  0  0  0  0
  152.4779  138.4266  155.4925 C   0  0  0  0  0  0  0  0  0  0  0  0
  152.7852  137.7761  157.1955 S   0  0  0  0  0  0  0  0  0  0  0  0
  151.4570  137.6347  157.8142 O   0  0  0  0  0  0  0  0  0  0  0  0
  153.5808  136.5464  157.0472 O   0  0  0  0  0  0  0  0  0  0  0  0
  153.6412  139.0005  157.8295 N   0  5  0  0  0  0  0  0  0  0  0  0
  153.1287  139.7340  158.9755 C   0  0  0  0  0  0  0  0  0  0  0  0
  152.7684  141.1867  158.5904 C   0  0  0  0  0  0  0  0  0  0  0  0
  152.6867  142.1367  159.7776 C   0  0  0  0  0  0  0  0  0  0  0  0
  153.0937  141.7526  161.0758 C   0  0  0  0  0  0  0  0  0  0  0  0
  152.9840  142.6758  162.1365 C   0  0  0  0  0  0  0  0  0  0  0  0
  152.4661  143.9626  161.8817 C   0  0  0  0  0  0  0  0  0  0  0  0
  152.0695  144.2943  160.5704 C   0  0  0  0  0  0  0  0  0  0  0  0
  152.1902  143.3827  159.5807 N   0  3  0  0  0  0  0  0  0  0  0  0
  151.2107  137.8836  154.8178 C   0  0  0  0  0  0  0  0  0  0  0  0
  150.1074  141.8476  154.3846 H   0  0  0  0  0  0  0  0  0  0  0  0
  149.5750  140.4216  156.8241 H   0  0  0  0  0  0  0  0  0  0  0  0
  149.9487  142.1176  156.6512 H   0  0  0  0  0  0  0  0  0  0  0  0
  147.4646  141.1420  157.5482 H   0  0  0  0  0  0  0  0  0  0  0  0
  147.7573  142.7547  156.9103 H   0  0  0  0  0  0  0  0  0  0  0  0
  146.6899  140.3469  155.4236 H   0  0  0  0  0  0  0  0  0  0  0  0
  146.0875  142.0020  155.3716 H   0  0  0  0  0  0  0  0  0  0  0  0
  147.9899  142.7325  154.0626 H   0  0  0  0  0  0  0  0  0  0  0  0
  147.6287  141.1680  153.3542 H   0  0  0  0  0  0  0  0  0  0  0  0
  152.4537  140.6189  155.1438 H   0  0  0  0  0  0  0  0  0  0  0  0
  151.3015  140.0478  156.4260 H   0  0  0  0  0  0  0  0  0  0  0  0
  153.3740  138.3805  154.8718 H   0  0  0  0  0  0  0  0  0  0  0  0
  152.2334  139.2524  159.3700 H   0  0  0  0  0  0  0  0  0  0  0  0
  153.8399  139.7459  159.8022 H   0  0  0  0  0  0  0  0  0  0  0  0
  153.5051  141.5896  157.8956 H   0  0  0  0  0  0  0  0  0  0  0  0
  151.8136  141.2047  158.0632 H   0  0  0  0  0  0  0  0  0  0  0  0
  153.4880  140.7628  161.2554 H   0  0  0  0  0  0  0  0  0  0  0  0
  153.2928  142.3993  163.1339 H   0  0  0  0  0  0  0  0  0  0  0  0
  152.3742  144.6838  162.6807 H   0  0  0  0  0  0  0  0  0  0  0  0
  151.6623  145.2530  160.2845 H   0  0  0  0  0  0  0  0  0  0  0  0
  150.4813  137.4522  155.5045 H   0  0  0  0  0  0  0  0  0  0  0  0
  151.4031  137.2402  153.9588 H   0  0  0  0  0  0  0  0  0  0  0  0
  151.8973  143.6437  158.6385 H   0  0  0  0  0  0  0  0  0  0  0  0
  1  2  2  0  0  0  0
  2  3  1  0  0  0  0
  2  8  1  0  0  0  0
  3  7  1  0  0  0  0
  3  4  1  0  0  0  0
  3 24  1  0  0  0  0
  4  5  1  0  0  0  0
  4 25  1  0  0  0  0
  4 26  1  0  0  0  0
  5  6  1  0  0  0  0
  5 27  1  0  0  0  0
  5 28  1  0  0  0  0
  6  7  1  0  0  0  0
  6 29  1  0  0  0  0
  6 30  1  0  0  0  0
  7 31  1  0  0  0  0
  7 32  1  0  0  0  0
  8 23  1  0  0  0  0
  8  9  1  0  0  0  0
  9 10  1  0  0  0  0
  9 33  1  0  0  0  0
  9 34  1  0  0  0  0
 10 11  1  0  0  0  0
 10 23  1  0  0  0  0
 10 35  1  0  0  0  0
 11 12  2  0  0  0  0
 11 13  2  0  0  0  0
 11 14  1  0  0  0  0
 14 15  1  0  0  0  0
 15 16  1  0  0  0  0
 15 36  1  0  0  0  0
 15 37  1  0  0  0  0
 16 17  1  0  0  0  0
 16 38  1  0  0  0  0
 16 39  1  0  0  0  0
 17 22  1  0  0  0  0
 17 18  2  0  0  0  0
 18 19  1  0  0  0  0
 18 40  1  0  0  0  0
 19 20  2  0  0  0  0
 19 41  1  0  0  0  0
 20 21  1  0  0  0  0
 20 42  1  0  0  0  0
 21 22  2  0  0  0  0
 21 43  1  0  0  0  0
 22 46  1  0  0  0  0
 23 44  1  0  0  0  0
 23 45  1  0  0  0  0
M  CHG  1  14  -1
M  CHG  1  22   1
M  END
> <s_m_source_file>
AV-unprocessed.smi

> <i_m_source_file_index>
2531

> <i_lp_mmshare_version>
43012

> <i_f3d_flags>
0

> <s_epik_input>
W0NIMl0xW0NIMl1bQ0gyXVtDSDJdW0NIXTFDKD1PKU4yW0NIMl1bQ0hdKFtDSDJdMilTKD1PKSg9TylbTkhdW0NIMl1bQ0gyXWMzW2NIXVtjSF1bY0hdW2NIXW4z

> <s_epik_cmdline>
J2VwaWtfcHl0aG9uJywgJy1waCcsICc3LjAnLCAnLXRuJywgJzgnLCAnLW1hJywgJzIwMCcsICctbWV0YWxfYmluZGluZycsICctaW1hZScsICc8aW5maWxlLm1hZT4nLCAnLW9tYWUnLCAnPG91dGZpbGUubWFlPic=

> <r_epik_Ionization_Penalty>
6.66855

> <r_epik_Ionization_Penalty_Charging>
6.66855

> <r_epik_Ionization_Penalty_Neutral>
2.37876e-07

> <r_epik_State_Penalty>
7.51815

> <r_epik_Charging_Adjusted_Penalty>
14.1867

> <i_epik_Tot_Q>
0

> <i_epik_Tot_abs_Q>
2

> <r_epik_Metal_State_Penalty>
3.5378

> <b_epik_Metal_Only>
1

> <s_lp_Force_Field>
OPLS_2005

> <r_lp_Energy>
33.2094

> <b_lp_Chiralities_Consistent>
1

> <s_lp_Variant>
AV-unprocessed.smi:2531-4

> <Gold.Version>
5.8.1

> <Gold.Id.Protein>
6NUR|6NUR_protein|mol2

> <Gold.PLP.Fitness>
56.7306

> <Gold.PLP.PLP>
-49.1215

> <Gold.PLP.part.hbond>
-2.0000

> <Gold.PLP.part.metal>
0.0000

> <Gold.PLP.part.buried>
-4.8366

> <Gold.PLP.part.nonpolar>
-41.6476

> <Gold.PLP.part.repulsive>
1.3921

> <Gold.PLP.ligand.clash>
0.0000

> <Gold.PLP.ligand.torsion>
1.9649

> <Gold.PLP.Chemscore.Hbond>
3.0000

> <Gold.PLP.Chemscore.CHOScore>
0.0000

> <Gold.PLP.Chemscore.Metal>
0.0000

> <Gold.Chemscore.Hbonds>
donor molecule, donor type, donor heavy atom, donor atom, acceptor molecule, acceptor atom, score
      P1  H  7997  8010       L1    14  2.00
      P1  H 10752 10765       L1    13  0.96

> <Gold.PLP.Chemscore.Internal.Correction>
2.5389

> <Gold.Rescore>
     Score         DG    S(hbond)    S(metal)    S(lipo)     H(rot)  DE(clash)    DE(int)     intcor
     18.42     -20.55       1.72        0.00     117.37       1.72       0.05       2.08       ----

> <Gold.Chemscore.Fitness>
18.4210

> <Gold.Chemscore.DG>
-20.5478

> <Gold.Chemscore.ZeroCoef>
-5.4800

> <Gold.Chemscore.Hbond>
1.7150

> <Gold.Chemscore.Metal>
0.0000

> <Gold.Chemscore.Lipo>
117.3668

> <Gold.Chemscore.Internal_Hbond>
0.0000

> <Gold.Chemscore.DEClash>
0.0485

> <Gold.Chemscore.DEInternal>
2.0783

> <Gold.Chemscore.Rot>
1.7158

> <Gold.Chemscore.Internal.Correction>
   9.000000E+99

> <Gold.Chemscore.Hbonds>
donor molecule, donor type, donor heavy atom, donor atom, acceptor molecule, acceptor atom, score
      P1  H  7997  8010       L1    14  0.69
      P1  H 10752 10765       L1    13  0.87

> <Gold.Chemscore.Hbond.Weighted>
-5.7282

> <Gold.Chemscore.Metal.Weighted>
-0.0000

> <Gold.Chemscore.Lipo.Weighted>
-13.7319

> <Gold.Chemscore.Internal_Hbond.Weighted>
0.0000

> <Gold.Chemscore.DEClash.Weighted>
0.0485

> <Gold.Chemscore.DEInternal.Weighted>
2.0783

> <Gold.Chemscore.Rot.Weighted>
4.3924

> <Gold.Chemscore.Internal.Correction.Weighted>
   9.000000E+99

> <Gold.Protein.RotatedTorsions>
[ 6907 6896 6895 6894 ] final  -35.26 input  -60.11 | X-H torsion
[ 7974 7965 7964 7962 ] final   -7.98 input  175.53 | X-H torsion
[ 8008 7997 7996 7995 ] final   51.67 input   59.86 | X-H torsion
[ 10167 10162 10161 10158 ] final  178.91 input  -65.29 | X-H torsion
[ 10718 10713 10712 10709 ] final  125.81 input   66.30 | X-H torsion
[ 10763 10752 10751 10750 ] final -104.14 input  -60.55 | X-H torsion
[ 11005 11000 10999 10996 ] final -158.21 input  -57.11 | X-H torsion

> <Gold.Protein.ActiveResidues>
 VAL166  LYS551  ARG553  GLY616  TRP617  ASP618  TYR619  PRO620  LYS621  CYS622 
 ASP623  PHE694  ASN695  SER759  ASP760  ASP761  ALA762  ILE779  LEU786  VAL792 
 PHE793  MET794  SER795  GLU796  ALA797  LYS798  CYS799  TRP800  GLU811  SER814 

> <Gold.Protein.RotatedAtoms>
  151.0421  134.9614  159.8166 H   0  0  0  0  0  0  0  0  0  0  0  0  # atno 6907 bound_to 6896
  152.5366  134.2645  159.8958 H   0  0  0  0  0  0  0  0  0  0  0  0  # atno 6908 bound_to 6896
  151.2658  133.4237  159.2652 H   0  0  0  0  0  0  0  0  0  0  0  0  # atno 6909 bound_to 6896
  146.2293  140.2400  142.8343 H   0  0  0  0  0  0  0  0  0  0  0  0  # atno 7974 bound_to 7965
  155.4391  140.3453  155.4288 H   0  0  0  0  0  0  0  0  0  0  0  0  # atno 8008 bound_to 7997
  156.1290  140.1508  156.9124 H   0  0  0  0  0  0  0  0  0  0  0  0  # atno 8009 bound_to 7997
  154.4880  140.0849  156.7510 H   0  0  0  0  0  0  0  0  0  0  0  0  # atno 8010 bound_to 7997
  139.5314  144.2623  152.0696 H   0  0  0  0  0  0  0  0  0  0  0  0  # atno 10167 bound_to 10162
  157.5472  131.1095  150.8762 H   0  0  0  0  0  0  0  0  0  0  0  0  # atno 10718 bound_to 10713
  154.7857  135.4797  153.9941 H   0  0  0  0  0  0  0  0  0  0  0  0  # atno 10763 bound_to 10752
  153.1557  135.6799  153.8823 H   0  0  0  0  0  0  0  0  0  0  0  0  # atno 10764 bound_to 10752
  153.8453  135.3174  155.3407 H   0  0  0  0  0  0  0  0  0  0  0  0  # atno 10765 bound_to 10752
  140.6562  134.4398  157.5235 H   0  0  0  0  0  0  0  0  0  0  0  0  # atno 11005 bound_to 11000
  144.9492  140.8160  143.5582 LP  0  0  0  0  0  0  0  0  0  0  0  0  # atno 17320 bound_to 7965
  145.2359  139.2094  143.5018 LP  0  0  0  0  0  0  0  0  0  0  0  0  # atno 17321 bound_to 7965
  140.2087  144.4584  150.6396 LP  0  0  0  0  0  0  0  0  0  0  0  0  # atno 17342 bound_to 10162
  140.6494  143.2221  151.6111 LP  0  0  0  0  0  0  0  0  0  0  0  0  # atno 17343 bound_to 10162
  156.9298  130.5345  149.5279 LP  0  0  0  0  0  0  0  0  0  0  0  0  # atno 17370 bound_to 10713
  156.0545  130.5609  150.9063 LP  0  0  0  0  0  0  0  0  0  0  0  0  # atno 17371 bound_to 10713
  139.9029  134.8515  156.1823 LP  0  0  0  0  0  0  0  0  0  0  0  0  # atno 17394 bound_to 11000
  141.0500  133.6894  156.1754 LP  0  0  0  0  0  0  0  0  0  0  0  0  # atno 17395 bound_to 11000

$$$$
