AV-unprocessed.smi:1072|AV-procd|sdf|4687|dock1
  -GOLD-   22720 3203D 1   1.00000     0.00000
 Structure written by MMmdl.
 45 46  0  0  0  0  0  0  0  0  2 V2000
  153.9303  137.2894  158.6547 C   0  0  0  0  0  0  0  0  0  0  0  0
  153.1186  137.5476  157.4033 C   0  0  0  0  0  0  0  0  0  0  0  0
  152.4114  136.6030  156.9111 N   0  0  0  0  0  0  0  0  0  0  0  0
  151.6543  136.8383  155.7510 C   0  0  0  0  0  0  0  0  0  0  0  0
  150.8460  135.6605  155.2349 C   0  0  0  0  0  0  0  0  0  0  0  0
  151.6580  138.0583  155.1411 C   0  0  0  0  0  0  0  0  0  0  0  0
  150.8516  138.3623  153.8784 C   0  0  0  0  0  0  0  0  0  0  0  0
  149.5630  139.1620  154.0844 C   0  0  0  0  0  0  0  0  0  0  0  0
  149.4907  140.0031  154.9798 O   0  0  0  0  0  0  0  0  0  0  0  0
  148.5559  138.8751  153.2411 N   0  0  0  0  0  0  0  0  0  0  0  0
  147.2054  139.4539  153.1928 C   0  0  1  0  0  0  0  0  0  0  0  0
  147.2470  140.9187  153.6793 C   0  0  0  0  0  0  0  0  0  0  0  0
  146.5985  139.3754  151.7670 C   0  0  0  0  0  0  0  0  0  0  0  0
  146.3994  137.9280  151.2827 C   0  0  0  0  0  0  0  0  0  0  0  0
  145.5135  137.1269  152.2538 C   0  0  1  0  0  0  0  0  0  0  0  0
  145.3238  135.6797  151.7778 C   0  0  0  0  0  0  0  0  0  0  0  0
  146.0935  137.1817  153.6791 C   0  0  0  0  0  0  0  0  0  0  0  0
  146.3094  138.6328  154.1513 C   0  0  0  0  0  0  0  0  0  0  0  0
  152.4831  139.1214  155.7423 C   0  0  0  0  0  0  0  0  0  0  0  0
  152.5124  140.2443  155.2401 O   0  0  0  0  0  0  0  0  0  0  0  0
  153.1973  138.8109  156.8617 N   0  5  0  0  0  0  0  0  0  0  0  0
  153.6418  136.3471  159.1222 H   0  0  0  0  0  0  0  0  0  0  0  0
  153.7773  138.0892  159.3801 H   0  0  0  0  0  0  0  0  0  0  0  0
  154.9918  137.2422  158.4110 H   0  0  0  0  0  0  0  0  0  0  0  0
  151.1905  135.3656  154.2436 H   0  0  0  0  0  0  0  0  0  0  0  0
  149.7881  135.9167  155.1743 H   0  0  0  0  0  0  0  0  0  0  0  0
  150.9426  134.7970  155.8938 H   0  0  0  0  0  0  0  0  0  0  0  0
  151.4624  138.8861  153.1428 H   0  0  0  0  0  0  0  0  0  0  0  0
  150.6009  137.4141  153.4016 H   0  0  0  0  0  0  0  0  0  0  0  0
  148.7452  138.1662  152.5474 H   0  0  0  0  0  0  0  0  0  0  0  0
  146.2440  141.3409  153.7461 H   0  0  0  0  0  0  0  0  0  0  0  0
  147.8162  141.5589  153.0052 H   0  0  0  0  0  0  0  0  0  0  0  0
  147.7007  140.9952  154.6682 H   0  0  0  0  0  0  0  0  0  0  0  0
  145.6309  139.8788  151.7619 H   0  0  0  0  0  0  0  0  0  0  0  0
  147.2110  139.9201  151.0486 H   0  0  0  0  0  0  0  0  0  0  0  0
  145.9468  137.9382  150.2906 H   0  0  0  0  0  0  0  0  0  0  0  0
  147.3679  137.4392  151.1700 H   0  0  0  0  0  0  0  0  0  0  0  0
  144.5294  137.5977  152.2754 H   0  0  0  0  0  0  0  0  0  0  0  0
  146.2753  135.1491  151.7325 H   0  0  0  0  0  0  0  0  0  0  0  0
  144.8782  135.6489  150.7832 H   0  0  0  0  0  0  0  0  0  0  0  0
  144.6663  135.1279  152.4502 H   0  0  0  0  0  0  0  0  0  0  0  0
  145.4217  136.6726  154.3713 H   0  0  0  0  0  0  0  0  0  0  0  0
  147.0370  136.6355  153.7160 H   0  0  0  0  0  0  0  0  0  0  0  0
  146.7371  138.6284  155.1550 H   0  0  0  0  0  0  0  0  0  0  0  0
  145.3355  139.1160  154.2442 H   0  0  0  0  0  0  0  0  0  0  0  0
  1  2  1  0  0  0  0
  1 22  1  0  0  0  0
  1 23  1  0  0  0  0
  1 24  1  0  0  0  0
  2 21  1  0  0  0  0
  2  3  2  0  0  0  0
  3  4  1  0  0  0  0
  4  5  1  0  0  0  0
  4  6  2  0  0  0  0
  5 25  1  0  0  0  0
  5 26  1  0  0  0  0
  5 27  1  0  0  0  0
  6  7  1  0  0  0  0
  6 19  1  0  0  0  0
  7  8  1  0  0  0  0
  7 28  1  0  0  0  0
  7 29  1  0  0  0  0
  8  9  2  0  0  0  0
  8 10  1  0  0  0  0
 10 11  1  0  0  0  0
 10 30  1  0  0  0  0
 11 18  1  0  0  0  0
 11 12  1  0  0  0  0
 11 13  1  0  0  0  0
 12 31  1  0  0  0  0
 12 32  1  0  0  0  0
 12 33  1  0  0  0  0
 13 14  1  0  0  0  0
 13 34  1  0  0  0  0
 13 35  1  0  0  0  0
 14 15  1  0  0  0  0
 14 36  1  0  0  0  0
 14 37  1  0  0  0  0
 15 16  1  0  0  0  0
 15 17  1  0  0  0  0
 15 38  1  0  0  0  0
 16 39  1  0  0  0  0
 16 40  1  0  0  0  0
 16 41  1  0  0  0  0
 17 18  1  0  0  0  0
 17 42  1  0  0  0  0
 17 43  1  0  0  0  0
 18 44  1  0  0  0  0
 18 45  1  0  0  0  0
 19 20  2  0  0  0  0
 19 21  1  0  0  0  0
M  CHG  1  21  -1
M  END
> <s_m_source_file>
AV-unprocessed.smi

> <i_m_source_file_index>
1072

> <i_lp_mmshare_version>
43012

> <i_f3d_flags>
0

> <s_epik_input>
W0NIM11jMW5jKFtDSDNdKWMoYyg9TylbbkhdMSlbQ0gyXUMoPU8pW05IXVtDQEBdMihbQ0gzXSlbQ0gyXVtDSDJdW0NAQEhdKFtDSDNdKVtDSDJdW0NIMl0y

> <s_epik_cmdline>
J2VwaWtfcHl0aG9uJywgJy1waCcsICc3LjAnLCAnLXRuJywgJzgnLCAnLW1hJywgJzIwMCcsICctbWV0YWxfYmluZGluZycsICctaW1hZScsICc8aW5maWxlLm1hZT4nLCAnLW9tYWUnLCAnPG91dGZpbGUubWFlPic=

> <r_lp_tautomer_probability>
0.839158

> <r_epik_Ionization_Penalty>
6.73882

> <r_epik_Ionization_Penalty_Charging>
8.02239e-08

> <r_epik_Ionization_Penalty_Neutral>
6.73882

> <r_epik_State_Penalty>
4.55873

> <r_epik_Charging_Adjusted_Penalty>
4.55873

> <i_epik_Tot_Q>
-1

> <i_epik_Tot_abs_Q>
1

> <r_epik_Metal_State_Penalty>
0.872514

> <b_epik_Metal_Only>
1

> <s_lp_Force_Field>
OPLS_2005

> <r_lp_Energy>
14.8033

> <b_lp_Chiralities_Consistent>
1

> <s_lp_Variant>
AV-unprocessed.smi:1072-5

> <Gold.Version>
5.8.1

> <Gold.Id.Protein>
6NUR|6NUR_protein|mol2

> <Gold.PLP.Fitness>
39.5604

> <Gold.PLP.PLP>
-31.1587

> <Gold.PLP.part.hbond>
-5.0916

> <Gold.PLP.part.metal>
0.0000

> <Gold.PLP.part.buried>
5.8377

> <Gold.PLP.part.nonpolar>
-30.9194

> <Gold.PLP.part.repulsive>
0.1752

> <Gold.PLP.ligand.clash>
0.0000

> <Gold.PLP.ligand.torsion>
1.1496

> <Gold.PLP.Chemscore.Hbond>
3.5655

> <Gold.PLP.Chemscore.CHOScore>
0.0000

> <Gold.PLP.Chemscore.Metal>
0.0000

> <Gold.Chemscore.Hbonds>
donor molecule, donor type, donor heavy atom, donor atom, acceptor molecule, acceptor atom, score
      L1  H    10    30       P1  7948  0.99
      P1  H  7989  7998       L1    20  0.51
      P1  H  7997  8008       L1    21  1.50
      P1  H 10752 10764       L1     3  0.01

> <Gold.PLP.Chemscore.Internal.Correction>
0.0047

> <Gold.Rescore>
     Score         DG    S(hbond)    S(metal)    S(lipo)     H(rot)  DE(clash)    DE(int)     intcor
     14.01     -18.38       2.23        0.00      77.86       1.43       1.77       2.60       ----

> <Gold.Chemscore.Fitness>
14.0141

> <Gold.Chemscore.DG>
-18.3830

> <Gold.Chemscore.ZeroCoef>
-5.4800

> <Gold.Chemscore.Hbond>
2.2349

> <Gold.Chemscore.Metal>
0.0000

> <Gold.Chemscore.Lipo>
77.8576

> <Gold.Chemscore.Internal_Hbond>
0.0000

> <Gold.Chemscore.DEClash>
1.7738

> <Gold.Chemscore.DEInternal>
2.5951

> <Gold.Chemscore.Rot>
1.4339

> <Gold.Chemscore.Internal.Correction>
   9.000000E+99

> <Gold.Chemscore.Hbonds>
donor molecule, donor type, donor heavy atom, donor atom, acceptor molecule, acceptor atom, score
      L1  H    10    30       P1  7948  0.92
      P1  H  7989  7998       L1    20  0.49
      P1  H  7997  8008       L1    21  0.09

> <Gold.Chemscore.Hbond.Weighted>
-7.4644

> <Gold.Chemscore.Metal.Weighted>
-0.0000

> <Gold.Chemscore.Lipo.Weighted>
-9.1093

> <Gold.Chemscore.Internal_Hbond.Weighted>
0.0000

> <Gold.Chemscore.DEClash.Weighted>
1.7738

> <Gold.Chemscore.DEInternal.Weighted>
2.5951

> <Gold.Chemscore.Rot.Weighted>
3.6708

> <Gold.Chemscore.Internal.Correction.Weighted>
   9.000000E+99

> <Gold.Protein.RotatedTorsions>
[ 6907 6896 6895 6894 ] final   95.84 input  -60.11 | X-H torsion
[ 7974 7965 7964 7962 ] final   28.64 input  175.53 | X-H torsion
[ 8008 7997 7996 7995 ] final  -60.50 input   59.86 | X-H torsion
[ 10167 10162 10161 10158 ] final  168.34 input  -65.29 | X-H torsion
[ 10718 10713 10712 10709 ] final   10.60 input   66.30 | X-H torsion
[ 10763 10752 10751 10750 ] final    8.25 input  -60.55 | X-H torsion
[ 11005 11000 10999 10996 ] final  -38.72 input  -57.11 | X-H torsion

> <Gold.Protein.ActiveResidues>
 VAL166  LYS551  ARG553  GLY616  TRP617  ASP618  TYR619  PRO620  LYS621  CYS622 
 ASP623  PHE694  ASN695  SER759  ASP760  ASP761  ALA762  ILE779  LEU786  VAL792 
 PHE793  MET794  SER795  GLU796  ALA797  LYS798  CYS799  TRP800  GLU811  SER814 

> <Gold.Protein.RotatedAtoms>
  152.5440  134.0979  159.8304 H   0  0  0  0  0  0  0  0  0  0  0  0  # atno 6907 bound_to 6896
  151.1060  133.5201  159.2615 H   0  0  0  0  0  0  0  0  0  0  0  0  # atno 6908 bound_to 6896
  151.1938  135.0423  159.8898 H   0  0  0  0  0  0  0  0  0  0  0  0  # atno 6909 bound_to 6896
  146.1717  139.7028  142.8963 H   0  0  0  0  0  0  0  0  0  0  0  0  # atno 7974 bound_to 7965
  154.4402  140.1038  156.6283 H   0  0  0  0  0  0  0  0  0  0  0  0  # atno 8008 bound_to 7997
  155.5632  140.3488  155.4478 H   0  0  0  0  0  0  0  0  0  0  0  0  # atno 8009 bound_to 7997
  156.0444  140.1289  157.0109 H   0  0  0  0  0  0  0  0  0  0  0  0  # atno 8010 bound_to 7997
  139.4966  144.3824  151.9607 H   0  0  0  0  0  0  0  0  0  0  0  0  # atno 10167 bound_to 10162
  156.9833  130.6014  149.5679 H   0  0  0  0  0  0  0  0  0  0  0  0  # atno 10718 bound_to 10713
  153.2271  135.6888  153.7932 H   0  0  0  0  0  0  0  0  0  0  0  0  # atno 10763 bound_to 10752
  153.7110  135.3282  155.3247 H   0  0  0  0  0  0  0  0  0  0  0  0  # atno 10764 bound_to 10752
  154.8297  135.4590  154.1142 H   0  0  0  0  0  0  0  0  0  0  0  0  # atno 10765 bound_to 10752
  141.0048  133.6937  156.2090 H   0  0  0  0  0  0  0  0  0  0  0  0  # atno 11005 bound_to 11000
  145.4322  141.0416  143.2904 LP  0  0  0  0  0  0  0  0  0  0  0  0  # atno 17320 bound_to 7965
  144.8173  139.5854  143.7002 LP  0  0  0  0  0  0  0  0  0  0  0  0  # atno 17321 bound_to 7965
  140.3261  144.3371  150.5998 LP  0  0  0  0  0  0  0  0  0  0  0  0  # atno 17342 bound_to 10162
  140.5683  143.2183  151.7644 LP  0  0  0  0  0  0  0  0  0  0  0  0  # atno 17343 bound_to 10162
  156.0236  130.5330  150.8344 LP  0  0  0  0  0  0  0  0  0  0  0  0  # atno 17370 bound_to 10713
  157.5511  131.0944  150.9695 LP  0  0  0  0  0  0  0  0  0  0  0  0  # atno 17371 bound_to 10713
  140.6830  134.4747  157.5589 LP  0  0  0  0  0  0  0  0  0  0  0  0  # atno 17394 bound_to 11000
  139.9058  134.8453  156.1714 LP  0  0  0  0  0  0  0  0  0  0  0  0  # atno 17395 bound_to 11000

$$$$
