AV-unprocessed.smi:705|AV-procd|sdf|3451|dock4
  -GOLD-   22720 0433D 1   1.00000     0.00000
 Structure written by MMmdl.
 28 29  0  0  0  0  0  0  0  0  3 V2000
  150.2177  138.1554  153.9058 N   0  0  0  0  0  0  0  0  0  0  0  0
  151.2826  137.7468  154.6000 C   0  0  0  0  0  0  0  0  0  0  0  0
  151.8546  136.6797  154.3840 O   0  0  0  0  0  0  0  0  0  0  0  0
  151.7478  138.6837  155.6743 C   0  0  0  0  0  0  0  0  0  0  0  0
  150.9467  139.7195  156.2185 C   0  0  0  0  0  0  0  0  0  0  0  0
  151.9018  140.2546  157.1590 C   0  0  0  0  0  0  0  0  0  0  0  0
  151.4758  141.4423  158.0002 C   0  0  1  0  0  0  0  0  0  0  0  0
  152.6670  142.0608  158.7549 C   0  0  0  0  0  0  0  0  0  0  0  0
  152.2134  143.2873  159.5614 C   0  0  0  0  0  0  0  0  0  0  0  0
  151.4882  144.3002  158.6595 C   0  0  0  0  0  0  0  0  0  0  0  0
  150.3508  143.6608  157.9629 N   0  3  0  0  0  0  0  0  0  0  0  0
  150.7567  142.5001  157.1413 C   0  0  0  0  0  0  0  0  0  0  0  0
  153.0774  139.5988  157.1423 N   0  0  0  0  0  0  0  0  0  0  0  0
  152.9723  138.6462  156.2323 N   0  5  0  0  0  0  0  0  0  0  0  0
  149.8402  137.5839  153.1655 H   0  0  0  0  0  0  0  0  0  0  0  0
  149.8006  139.0458  154.1389 H   0  0  0  0  0  0  0  0  0  0  0  0
  149.9302  140.0169  155.9919 H   0  0  0  0  0  0  0  0  0  0  0  0
  150.7644  141.0819  158.7454 H   0  0  0  0  0  0  0  0  0  0  0  0
  153.1198  141.3229  159.4182 H   0  0  0  0  0  0  0  0  0  0  0  0
  153.4407  142.3588  158.0457 H   0  0  0  0  0  0  0  0  0  0  0  0
  151.5489  142.9703  160.3665 H   0  0  0  0  0  0  0  0  0  0  0  0
  153.0733  143.7593  160.0376 H   0  0  0  0  0  0  0  0  0  0  0  0
  151.1186  145.1376  159.2518 H   0  0  0  0  0  0  0  0  0  0  0  0
  152.1769  144.7113  157.9199 H   0  0  0  0  0  0  0  0  0  0  0  0
  149.6854  143.3455  158.6541 H   0  0  0  0  0  0  0  0  0  0  0  0
  151.4066  142.8455  156.3357 H   0  0  0  0  0  0  0  0  0  0  0  0
  149.8702  142.0710  156.6732 H   0  0  0  0  0  0  0  0  0  0  0  0
  149.9044  144.3426  157.3661 H   0  0  0  0  0  0  0  0  0  0  0  0
  1  2  1  0  0  0  0
  1 15  1  0  0  0  0
  1 16  1  0  0  0  0
  2  3  2  0  0  0  0
  2  4  1  0  0  0  0
  4 14  1  0  0  0  0
  4  5  2  0  0  0  0
  5  6  1  0  0  0  0
  5 17  1  0  0  0  0
  6  7  1  0  0  0  0
  6 13  2  0  0  0  0
  7 12  1  0  0  0  0
  7  8  1  0  0  0  0
  7 18  1  0  0  0  0
  8  9  1  0  0  0  0
  8 19  1  0  0  0  0
  8 20  1  0  0  0  0
  9 10  1  0  0  0  0
  9 21  1  0  0  0  0
  9 22  1  0  0  0  0
 10 11  1  0  0  0  0
 10 23  1  0  0  0  0
 10 24  1  0  0  0  0
 11 12  1  0  0  0  0
 11 25  1  0  0  0  0
 11 28  1  0  0  0  0
 12 26  1  0  0  0  0
 12 27  1  0  0  0  0
 13 14  1  0  0  0  0
M  CHG  1  11   1
M  CHG  1  14  -1
M  END
> <s_m_source_file>
AV-unprocessed.smi

> <i_m_source_file_index>
705

> <i_lp_mmshare_version>
43012

> <i_f3d_flags>
0

> <s_epik_input>
W05IMl1DKD1PKWMxW2NIXWMoW25IXW4xKVtDQEBIXTJbQ0gyXVtDSDJdW0NIMl1bTkhdW0NIMl0y

> <s_epik_cmdline>
J2VwaWtfcHl0aG9uJywgJy1waCcsICc3LjAnLCAnLXRuJywgJzgnLCAnLW1hJywgJzIwMCcsICctbWV0YWxfYmluZGluZycsICctaW1hZScsICc8aW5maWxlLm1hZT4nLCAnLW9tYWUnLCAnPG91dGZpbGUubWFlPic=

> <r_lp_tautomer_probability>
0.5

> <r_epik_Ionization_Penalty>
8.1602

> <r_epik_Ionization_Penalty_Charging>
5.25561

> <r_epik_Ionization_Penalty_Neutral>
2.90459

> <r_epik_State_Penalty>
5.66605

> <r_epik_Charging_Adjusted_Penalty>
10.9217

> <i_epik_Tot_Q>
0

> <i_epik_Tot_abs_Q>
2

> <r_epik_Metal_State_Penalty>
1.68656

> <b_epik_Metal_Only>
1

> <s_lp_Force_Field>
OPLS_2005

> <r_lp_Energy>
5.1844

> <b_lp_Chiralities_Consistent>
1

> <s_lp_Variant>
AV-unprocessed.smi:705-6

> <Gold.Version>
5.8.1

> <Gold.Id.Protein>
6NUR|6NUR_protein|mol2

> <Gold.PLP.Fitness>
42.0663

> <Gold.PLP.PLP>
-27.9910

> <Gold.PLP.part.hbond>
-4.6134

> <Gold.PLP.part.metal>
0.0000

> <Gold.PLP.part.buried>
-4.0743

> <Gold.PLP.part.nonpolar>
-20.8800

> <Gold.PLP.part.repulsive>
0.6869

> <Gold.PLP.ligand.clash>
0.0000

> <Gold.PLP.ligand.torsion>
0.4357

> <Gold.PLP.Chemscore.Hbond>
4.9753

> <Gold.PLP.Chemscore.CHOScore>
0.0000

> <Gold.PLP.Chemscore.Metal>
0.0000

> <Gold.Chemscore.Hbonds>
donor molecule, donor type, donor heavy atom, donor atom, acceptor molecule, acceptor atom, score
      L1  H     1    15       P1  7948  0.99
      L1  H    11    28       P1  8028  1.98
      P1  H  7997  8010       L1    13  0.99
      P1  H 10752 10763       L1     3  0.99

> <Gold.PLP.Chemscore.Internal.Correction>
0.0211

> <Gold.Rescore>
     Score         DG    S(hbond)    S(metal)    S(lipo)     H(rot)  DE(clash)    DE(int)     intcor
     22.22     -22.82       3.61        0.00      66.87       1.00       0.32       0.27       ----

> <Gold.Chemscore.Fitness>
22.2240

> <Gold.Chemscore.DG>
-22.8151

> <Gold.Chemscore.ZeroCoef>
-5.4800

> <Gold.Chemscore.Hbond>
3.6140

> <Gold.Chemscore.Metal>
0.0000

> <Gold.Chemscore.Lipo>
66.8741

> <Gold.Chemscore.Internal_Hbond>
0.0000

> <Gold.Chemscore.DEClash>
0.3167

> <Gold.Chemscore.DEInternal>
0.2744

> <Gold.Chemscore.Rot>
1.0000

> <Gold.Chemscore.Internal.Correction>
   9.000000E+99

> <Gold.Chemscore.Hbonds>
donor molecule, donor type, donor heavy atom, donor atom, acceptor molecule, acceptor atom, score
      L1  H     1    15       P1  7948  0.46
      L1  H    11    28       P1  8028  0.32
      P1  H  7997  8010       L1    13  0.27
      P1  H 10752 10763       L1     3  0.90

> <Gold.Chemscore.Hbond.Weighted>
-12.0708

> <Gold.Chemscore.Metal.Weighted>
-0.0000

> <Gold.Chemscore.Lipo.Weighted>
-7.8243

> <Gold.Chemscore.Internal_Hbond.Weighted>
0.0000

> <Gold.Chemscore.DEClash.Weighted>
0.3167

> <Gold.Chemscore.DEInternal.Weighted>
0.2744

> <Gold.Chemscore.Rot.Weighted>
2.5600

> <Gold.Chemscore.Internal.Correction.Weighted>
   9.000000E+99

> <Gold.Protein.RotatedTorsions>
[ 6907 6896 6895 6894 ] final -114.29 input  -60.11 | X-H torsion
[ 7974 7965 7964 7962 ] final  171.51 input  175.53 | X-H torsion
[ 8008 7997 7996 7995 ] final   39.62 input   59.86 | X-H torsion
[ 10167 10162 10161 10158 ] final  173.80 input  -65.29 | X-H torsion
[ 10718 10713 10712 10709 ] final -143.22 input   66.30 | X-H torsion
[ 10763 10752 10751 10750 ] final   29.89 input  -60.55 | X-H torsion
[ 11005 11000 10999 10996 ] final  121.63 input  -57.11 | X-H torsion

> <Gold.Protein.ActiveResidues>
 VAL166  LYS551  ARG553  GLY616  TRP617  ASP618  TYR619  PRO620  LYS621  CYS622 
 ASP623  PHE694  ASN695  SER759  ASP760  ASP761  ALA762  ILE779  LEU786  VAL792 
 PHE793  MET794  SER795  GLU796  ALA797  LYS798  CYS799  TRP800  GLU811  SER814 

> <Gold.Protein.RotatedAtoms>
  150.7891  133.8822  159.3288 H   0  0  0  0  0  0  0  0  0  0  0  0  # atno 6907 bound_to 6896
  151.6664  135.0980  160.0199 H   0  0  0  0  0  0  0  0  0  0  0  0  # atno 6908 bound_to 6896
  152.3962  133.6711  159.6313 H   0  0  0  0  0  0  0  0  0  0  0  0  # atno 6909 bound_to 6896
  144.7293  139.9361  143.6426 H   0  0  0  0  0  0  0  0  0  0  0  0  # atno 7974 bound_to 7965
  155.2396  140.3344  155.4294 H   0  0  0  0  0  0  0  0  0  0  0  0  # atno 8008 bound_to 7997
  156.2261  140.1830  156.7404 H   0  0  0  0  0  0  0  0  0  0  0  0  # atno 8009 bound_to 7997
  154.5902  140.0639  156.9212 H   0  0  0  0  0  0  0  0  0  0  0  0  # atno 8010 bound_to 7997
  139.5120  144.3219  152.0194 H   0  0  0  0  0  0  0  0  0  0  0  0  # atno 10167 bound_to 10162
  156.3553  130.7709  151.1869 H   0  0  0  0  0  0  0  0  0  0  0  0  # atno 10718 bound_to 10713
  153.0403  135.6478  154.0960 H   0  0  0  0  0  0  0  0  0  0  0  0  # atno 10763 bound_to 10752
  154.0668  135.2883  155.3317 H   0  0  0  0  0  0  0  0  0  0  0  0  # atno 10764 bound_to 10752
  154.6621  135.5387  153.8096 H   0  0  0  0  0  0  0  0  0  0  0  0  # atno 10765 bound_to 10752
  139.9234  134.9639  156.7987 H   0  0  0  0  0  0  0  0  0  0  0  0  # atno 11005 bound_to 11000
  146.0820  139.3808  143.0458 LP  0  0  0  0  0  0  0  0  0  0  0  0  # atno 17320 bound_to 7965
  145.7827  140.9849  143.1090 LP  0  0  0  0  0  0  0  0  0  0  0  0  # atno 17321 bound_to 7965
  140.2661  144.4015  150.6168 LP  0  0  0  0  0  0  0  0  0  0  0  0  # atno 17342 bound_to 10162
  140.6122  143.2170  151.6863 LP  0  0  0  0  0  0  0  0  0  0  0  0  # atno 17343 bound_to 10162
  157.7466  131.0416  150.4652 LP  0  0  0  0  0  0  0  0  0  0  0  0  # atno 17370 bound_to 10713
  156.4854  130.4083  149.6437 LP  0  0  0  0  0  0  0  0  0  0  0  0  # atno 17371 bound_to 10713
  140.6407  133.9821  155.7706 LP  0  0  0  0  0  0  0  0  0  0  0  0  # atno 17394 bound_to 11000
  141.0773  134.0116  157.3439 LP  0  0  0  0  0  0  0  0  0  0  0  0  # atno 17395 bound_to 11000

$$$$
