AV-unprocessed.smi:21|AV-procd|sdf|126|dock3
  -GOLD-   2262015303D 1   1.00000     0.00000
 Structure written by MMmdl.
 62 65  0  0  0  0  0  0  0  0  2 V2000
  148.5187  125.4552  150.0312 C   0  0  0  0  0  0  0  0  0  0  0  0
  148.2264  125.7800  151.3806 O   0  0  0  0  0  0  0  0  0  0  0  0
  148.3764  127.1605  151.6765 C   0  0  2  0  0  0  0  0  0  0  0  0
  148.4528  127.3786  153.1838 C   0  0  0  0  0  0  0  0  0  0  0  0
  147.9572  128.8202  153.4025 C   0  0  1  0  0  0  0  0  0  0  0  0
  149.0955  129.8351  153.6615 C   0  0  0  0  0  0  0  0  0  0  0  0
  149.6832  129.7384  154.9995 N   0  0  0  0  0  0  0  0  0  0  0  0
  149.3776  128.5680  155.8188 C   0  0  0  0  0  0  0  0  0  0  0  0
  150.1246  130.8717  155.6154 C   0  0  0  0  0  0  0  0  0  0  0  0
  150.8454  130.7537  156.7630 N   0  0  0  0  0  0  0  0  0  0  0  0
  151.2396  131.8373  157.4369 C   0  0  0  0  0  0  0  0  0  0  0  0
  151.0160  133.1204  157.1539 N   0  0  0  0  0  0  0  0  0  0  0  0
  150.3124  133.2535  155.9947 C   0  0  0  0  0  0  0  0  0  0  0  0
  149.8483  132.1965  155.1597 C   0  0  0  0  0  0  0  0  0  0  0  0
  149.1964  132.7330  154.0536 N   0  0  0  0  0  0  0  0  0  0  0  0
  149.2466  134.0230  154.2378 C   0  0  0  0  0  0  0  0  0  0  0  0
  149.8615  134.4197  155.4020 N   0  0  0  0  0  0  0  0  0  0  0  0
  150.0152  135.7805  155.8813 C   0  0  0  0  0  0  0  0  0  0  0  0
  149.3297  136.8587  154.9940 C   0  0  1  0  0  0  0  0  0  0  0  0
  147.7958  136.6566  155.0488 C   0  0  0  0  0  0  0  0  0  0  0  0
  147.2180  136.7488  153.7629 O   0  0  0  0  0  0  0  0  0  0  0  0
  149.7291  138.3199  155.3698 C   0  0  2  0  0  0  0  0  0  0  0  0
  149.0447  139.4062  154.5522 C   0  0  0  0  0  0  0  0  0  0  0  0
  149.9369  140.6141  154.7972 C   0  0  0  0  0  0  0  0  0  0  0  0
  151.2525  140.0841  154.8177 O   0  0  0  0  0  0  0  0  0  0  0  0
  151.2040  138.6970  155.1353 C   0  0  0  0  0  0  0  0  0  0  0  0
  147.2255  129.1901  152.1653 N   0  3  2  0  0  0  0  0  0  0  0  0
  145.9166  129.8388  152.3959 C   0  0  0  0  0  0  0  0  0  0  0  0
  147.1587  127.9995  151.2942 C   0  0  0  0  0  0  0  0  0  0  0  0
  149.2778  127.5652  151.2119 H   0  0  0  0  0  0  0  0  0  0  0  0
  147.2582  128.8186  154.2400 H   0  0  0  0  0  0  0  0  0  0  0  0
  148.4086  124.3810  149.8833 H   0  0  0  0  0  0  0  0  0  0  0  0
  149.5437  125.7251  149.7737 H   0  0  0  0  0  0  0  0  0  0  0  0
  147.8402  125.9575  149.3414 H   0  0  0  0  0  0  0  0  0  0  0  0
  147.7714  126.6896  153.6852 H   0  0  0  0  0  0  0  0  0  0  0  0
  149.4498  127.1869  153.5777 H   0  0  0  0  0  0  0  0  0  0  0  0
  149.8784  129.6895  152.9163 H   0  0  0  0  0  0  0  0  0  0  0  0
  148.7463  130.8532  153.4978 H   0  0  0  0  0  0  0  0  0  0  0  0
  150.2332  128.3021  156.4406 H   0  0  0  0  0  0  0  0  0  0  0  0
  149.1415  127.7039  155.1976 H   0  0  0  0  0  0  0  0  0  0  0  0
  148.5247  128.7574  156.4714 H   0  0  0  0  0  0  0  0  0  0  0  0
  151.8029  131.6484  158.3392 H   0  0  0  0  0  0  0  0  0  0  0  0
  148.8054  134.7218  153.5419 H   0  0  0  0  0  0  0  0  0  0  0  0
  149.6153  135.8062  156.8952 H   0  0  0  0  0  0  0  0  0  0  0  0
  151.0806  135.9968  155.9688 H   0  0  0  0  0  0  0  0  0  0  0  0
  149.6326  136.6948  153.9590 H   0  0  0  0  0  0  0  0  0  0  0  0
  147.5468  135.6906  155.4889 H   0  0  0  0  0  0  0  0  0  0  0  0
  147.3127  137.4203  155.6568 H   0  0  0  0  0  0  0  0  0  0  0  0
  147.9076  136.8882  153.1318 H   0  0  0  0  0  0  0  0  0  0  0  0
  149.4883  138.4951  156.4197 H   0  0  0  0  0  0  0  0  0  0  0  0
  149.0488  139.1487  153.4918 H   0  0  0  0  0  0  0  0  0  0  0  0
  148.0147  139.5924  154.8579 H   0  0  0  0  0  0  0  0  0  0  0  0
  149.8258  141.3843  154.0335 H   0  0  0  0  0  0  0  0  0  0  0  0
  149.7190  141.0602  155.7686 H   0  0  0  0  0  0  0  0  0  0  0  0
  151.8233  138.5062  156.0099 H   0  0  0  0  0  0  0  0  0  0  0  0
  151.6260  138.1469  154.2937 H   0  0  0  0  0  0  0  0  0  0  0  0
  145.2319  129.1711  152.9212 H   0  0  0  0  0  0  0  0  0  0  0  0
  145.4599  130.1216  151.4472 H   0  0  0  0  0  0  0  0  0  0  0  0
  146.0378  130.7429  152.9928 H   0  0  0  0  0  0  0  0  0  0  0  0
  147.1469  128.2755  150.2395 H   0  0  0  0  0  0  0  0  0  0  0  0
  146.2466  127.4392  151.5082 H   0  0  0  0  0  0  0  0  0  0  0  0
  147.8119  129.8577  151.6850 H   0  0  0  0  0  0  0  0  0  0  0  0
  1  2  1  0  0  0  0
  1 32  1  0  0  0  0
  1 33  1  0  0  0  0
  1 34  1  0  0  0  0
  2  3  1  0  0  0  0
  3 30  1  0  0  0  0
  3 29  1  0  0  0  0
  3  4  1  0  0  0  0
  4  5  1  0  0  0  0
  4 35  1  0  0  0  0
  4 36  1  0  0  0  0
  5 31  1  0  0  0  0
  5  6  1  0  0  0  0
  5 27  1  0  0  0  0
  6  7  1  0  0  0  0
  6 37  1  0  0  0  0
  6 38  1  0  0  0  0
  7  8  1  0  0  0  0
  7  9  1  0  0  0  0
  8 39  1  0  0  0  0
  8 40  1  0  0  0  0
  8 41  1  0  0  0  0
  9 14  1  0  0  0  0
  9 10  2  0  0  0  0
 10 11  1  0  0  0  0
 11 12  2  0  0  0  0
 11 42  1  0  0  0  0
 12 13  1  0  0  0  0
 13 17  1  0  0  0  0
 13 14  2  0  0  0  0
 14 15  1  0  0  0  0
 15 16  2  0  0  0  0
 16 17  1  0  0  0  0
 16 43  1  0  0  0  0
 17 18  1  0  0  0  0
 18 19  1  0  0  0  0
 18 44  1  0  0  0  0
 18 45  1  0  0  0  0
 19 20  1  0  0  0  0
 19 22  1  0  0  0  0
 19 46  1  0  0  0  0
 20 21  1  0  0  0  0
 20 47  1  0  0  0  0
 20 48  1  0  0  0  0
 21 49  1  0  0  0  0
 22 26  1  0  0  0  0
 22 23  1  0  0  0  0
 22 50  1  0  0  0  0
 23 24  1  0  0  0  0
 23 51  1  0  0  0  0
 23 52  1  0  0  0  0
 24 25  1  0  0  0  0
 24 53  1  0  0  0  0
 24 54  1  0  0  0  0
 25 26  1  0  0  0  0
 26 55  1  0  0  0  0
 26 56  1  0  0  0  0
 27 28  1  0  0  0  0
 27 29  1  0  0  0  0
 27 62  1  0  0  0  0
 28 57  1  0  0  0  0
 28 58  1  0  0  0  0
 28 59  1  0  0  0  0
 29 60  1  0  0  0  0
 29 61  1  0  0  0  0
M  CHG  1  27   1
M  END
> <s_m_source_file>
AV-unprocessed.smi

> <i_m_source_file_index>
21

> <i_lp_mmshare_version>
43012

> <i_f3d_flags>
0

> <s_epik_input>
W0NIM11PW0NASF0xW0NIMl1bQ0BIXShOKFtDSDNdKVtDSDJdMSlbQ0gyXU4oW0NIM10pYyhuW2NIXW4yKWMoYzIzKW5bY0hdbjNbQ0gyXVtDQEhdKFtDSDJdW09IXSlbQ0BASF00W0NIMl1bQ0gyXU9bQ0gyXTQ=

> <s_epik_cmdline>
J2VwaWtfcHl0aG9uJywgJy1waCcsICc3LjAnLCAnLXRuJywgJzgnLCAnLW1hJywgJzIwMCcsICctbWV0YWxfYmluZGluZycsICctaW1hZScsICc8aW5maWxlLm1hZT4nLCAnLW9tYWUnLCAnPG91dGZpbGUubWFlPic=

> <r_lp_tautomer_probability>
1

> <r_epik_Ionization_Penalty>
0.0157465

> <r_epik_Ionization_Penalty_Charging>
0.015354

> <r_epik_Ionization_Penalty_Neutral>
0.000392529

> <r_epik_State_Penalty>
0.0120612

> <r_epik_Charging_Adjusted_Penalty>
0.0274152

> <i_epik_Tot_Q>
1

> <i_epik_Tot_abs_Q>
1

> <r_epik_Metal_State_Penalty>
0.0121253

> <b_epik_Metal_Only>
0

> <s_lp_Force_Field>
OPLS_2005

> <r_lp_Energy>
57.6991

> <b_lp_Chiralities_Consistent>
1

> <s_lp_Variant>
AV-unprocessed.smi:21-6

> <Gold.Version>
5.8.1

> <Gold.Id.Protein>
6NUR|6NUR_protein|mol2

> <Gold.PLP.Fitness>
58.0130

> <Gold.PLP.PLP>
-47.5314

> <Gold.PLP.part.hbond>
-3.8269

> <Gold.PLP.part.metal>
0.0000

> <Gold.PLP.part.buried>
-7.0803

> <Gold.PLP.part.nonpolar>
-37.1089

> <Gold.PLP.part.repulsive>
0.3119

> <Gold.PLP.ligand.clash>
0.0000

> <Gold.PLP.ligand.torsion>
1.4343

> <Gold.PLP.Chemscore.Hbond>
3.1544

> <Gold.PLP.Chemscore.CHOScore>
1.0000

> <Gold.PLP.Chemscore.Metal>
0.0000

> <Gold.Chemscore.Hbonds>
donor molecule, donor type, donor heavy atom, donor atom, acceptor molecule, acceptor atom, score
      L1  H    21    49       P1  7948  0.98
      L1  H    27    62       P1 10747  0.93
      P1  H  6896  6907       L1    12  0.33
      P1  H  7989  7998       L1    25  0.60
      L1  C    16    43       P1  7948  1.00

> <Gold.PLP.Chemscore.Internal.Correction>
0.8868

> <Gold.Rescore>
     Score         DG    S(hbond)    S(metal)    S(lipo)     H(rot)  DE(clash)    DE(int)     intcor
     14.55     -17.54       2.85        0.00      88.99       3.08       0.17       2.83       ----

> <Gold.Chemscore.Fitness>
14.5483

> <Gold.Chemscore.DG>
-17.5426

> <Gold.Chemscore.ZeroCoef>
-5.4800

> <Gold.Chemscore.Hbond>
2.8517

> <Gold.Chemscore.Metal>
0.0000

> <Gold.Chemscore.Lipo>
88.9931

> <Gold.Chemscore.Internal_Hbond>
0.0000

> <Gold.Chemscore.DEClash>
0.1677

> <Gold.Chemscore.DEInternal>
2.8266

> <Gold.Chemscore.Rot>
3.0758

> <Gold.Chemscore.Internal.Correction>
   9.000000E+99

> <Gold.Chemscore.Hbonds>
donor molecule, donor type, donor heavy atom, donor atom, acceptor molecule, acceptor atom, score
      L1  H    21    49       P1  7948  0.93
      L1  H    27    62       P1 10747  0.86
      P1  H  6896  6907       L1    12  0.01
      P1  H  7989  7998       L1    25  0.04

> <Gold.Chemscore.Hbond.Weighted>
-9.5245

> <Gold.Chemscore.Metal.Weighted>
-0.0000

> <Gold.Chemscore.Lipo.Weighted>
-10.4122

> <Gold.Chemscore.Internal_Hbond.Weighted>
0.0000

> <Gold.Chemscore.DEClash.Weighted>
0.1677

> <Gold.Chemscore.DEInternal.Weighted>
2.8266

> <Gold.Chemscore.Rot.Weighted>
7.8741

> <Gold.Chemscore.Internal.Correction.Weighted>
   9.000000E+99

> <Gold.Protein.RotatedTorsions>
[ 6907 6896 6895 6894 ] final -139.51 input  -60.11 | X-H torsion
[ 7974 7965 7964 7962 ] final  -18.04 input  175.53 | X-H torsion
[ 8008 7997 7996 7995 ] final -150.20 input   59.86 | X-H torsion
[ 10167 10162 10161 10158 ] final  -25.99 input  -65.29 | X-H torsion
[ 10718 10713 10712 10709 ] final   23.84 input   66.30 | X-H torsion
[ 10763 10752 10751 10750 ] final  -57.52 input  -60.55 | X-H torsion
[ 11005 11000 10999 10996 ] final  -15.97 input  -57.11 | X-H torsion

> <Gold.Protein.ActiveResidues>
 VAL166  LYS551  ARG553  GLY616  TRP617  ASP618  TYR619  PRO620  LYS621  CYS622 
 ASP623  PHE694  ASN695  SER759  ASP760  ASP761  ALA762  ILE779  LEU786  VAL792 
 PHE793  MET794  SER795  GLU796  ALA797  LYS798  CYS799  TRP800  GLU811  SER814 

> <Gold.Protein.RotatedAtoms>
  151.0487  133.5642  159.2644 H   0  0  0  0  0  0  0  0  0  0  0  0  # atno 6907 bound_to 6896
  151.2661  135.0669  159.9126 H   0  0  0  0  0  0  0  0  0  0  0  0  # atno 6908 bound_to 6896
  152.5378  134.0225  159.8042 H   0  0  0  0  0  0  0  0  0  0  0  0  # atno 6909 bound_to 6896
  146.1912  140.3864  142.8457 H   0  0  0  0  0  0  0  0  0  0  0  0  # atno 7974 bound_to 7965
  155.6197  140.0680  157.2682 H   0  0  0  0  0  0  0  0  0  0  0  0  # atno 8008 bound_to 7997
  154.4232  140.1786  156.1407 H   0  0  0  0  0  0  0  0  0  0  0  0  # atno 8009 bound_to 7997
  156.0019  140.3335  155.6857 H   0  0  0  0  0  0  0  0  0  0  0  0  # atno 8010 bound_to 7997
  140.7284  143.4216  151.0942 H   0  0  0  0  0  0  0  0  0  0  0  0  # atno 10167 bound_to 10162
  157.1715  130.6762  149.6080 H   0  0  0  0  0  0  0  0  0  0  0  0  # atno 10718 bound_to 10713
  154.2238  135.6373  153.5153 H   0  0  0  0  0  0  0  0  0  0  0  0  # atno 10763 bound_to 10752
  152.9963  135.5503  154.6086 H   0  0  0  0  0  0  0  0  0  0  0  0  # atno 10764 bound_to 10752
  154.5552  135.2904  155.0945 H   0  0  0  0  0  0  0  0  0  0  0  0  # atno 10765 bound_to 10752
  140.8021  133.8206  155.9480 H   0  0  0  0  0  0  0  0  0  0  0  0  # atno 11005 bound_to 11000
  144.8490  140.6973  143.6180 LP  0  0  0  0  0  0  0  0  0  0  0  0  # atno 17320 bound_to 7965
  145.3787  139.1642  143.4292 LP  0  0  0  0  0  0  0  0  0  0  0  0  # atno 17321 bound_to 7965
  139.7863  143.8283  152.3145 LP  0  0  0  0  0  0  0  0  0  0  0  0  # atno 17342 bound_to 10162
  139.8251  144.7278  150.9522 LP  0  0  0  0  0  0  0  0  0  0  0  0  # atno 17343 bound_to 10162
  155.9737  130.4677  150.6335 LP  0  0  0  0  0  0  0  0  0  0  0  0  # atno 17370 bound_to 10713
  157.4038  131.0814  151.1284 LP  0  0  0  0  0  0  0  0  0  0  0  0  # atno 17371 bound_to 10713
  140.9284  134.2053  157.4880 LP  0  0  0  0  0  0  0  0  0  0  0  0  # atno 17394 bound_to 11000
  139.8721  134.9822  156.5148 LP  0  0  0  0  0  0  0  0  0  0  0  0  # atno 17395 bound_to 11000

$$$$
