AV-unprocessed.smi:2414|AV-procd|sdf|9540|dock2
  -GOLD-   2272013173D 1   1.00000     0.00000
 Structure written by MMmdl.
 43 44  0  0  0  0  0  0  0  0  1 V2000
  150.8808  142.3291  158.0324 C   0  0  0  0  0  0  0  0  0  0  0  0
  150.4571  141.5889  156.8092 C   0  0  0  0  0  0  0  0  0  0  0  0
  151.2649  141.0022  155.8669 C   0  0  0  0  0  0  0  0  0  0  0  0
  150.5641  140.3832  154.8298 N   0  0  0  0  0  0  0  0  0  0  0  0
  149.2398  140.4878  154.9728 C   0  0  0  0  0  0  0  0  0  0  0  0
  148.2506  139.9263  153.9966 C   0  0  2  0  0  0  0  0  0  0  0  0
  147.2743  140.9963  153.4868 C   0  0  0  0  0  0  0  0  0  0  0  0
  147.5385  138.6637  154.5198 C   0  0  0  0  0  0  0  0  0  0  0  0
  147.3630  137.6674  153.4692 N   0  0  0  0  0  0  0  0  0  0  0  0
  146.1771  137.2840  152.9810 C   0  0  0  0  0  0  0  0  0  0  0  0
  145.0981  137.7410  153.3584 O   0  0  0  0  0  0  0  0  0  0  0  0
  146.3121  136.3463  152.0341 N   0  0  0  0  0  0  0  0  0  0  0  0
  145.2191  135.7317  151.2863 C   0  0  0  0  0  0  0  0  0  0  0  0
  145.1277  134.2137  151.5521 C   0  0  2  0  0  0  0  0  0  0  0  0
  144.9350  133.8865  153.0458 C   0  0  0  0  0  0  0  0  0  0  0  0
  146.3418  133.4643  150.9737 C   0  0  0  0  0  0  0  0  0  0  0  0
  145.7299  132.2185  150.3718 C   0  0  0  0  0  0  0  0  0  0  0  0
  144.4058  132.7613  149.8570 C   0  0  0  0  0  0  0  0  0  0  0  0
  143.9954  133.6893  150.8528 O   0  0  0  0  0  0  0  0  0  0  0  0
  148.7705  141.3735  156.4196 S   0  0  0  0  0  0  0  0  0  0  0  0
  151.6791  143.0346  157.8009 H   0  0  0  0  0  0  0  0  0  0  0  0
  151.2491  141.6396  158.7921 H   0  0  0  0  0  0  0  0  0  0  0  0
  150.0508  142.8912  158.4607 H   0  0  0  0  0  0  0  0  0  0  0  0
  152.3446  140.9788  155.8551 H   0  0  0  0  0  0  0  0  0  0  0  0
  148.8311  139.6113  153.1281 H   0  0  0  0  0  0  0  0  0  0  0  0
  147.8092  141.8301  153.0307 H   0  0  0  0  0  0  0  0  0  0  0  0
  146.6641  141.3952  154.2977 H   0  0  0  0  0  0  0  0  0  0  0  0
  146.5997  140.5859  152.7352 H   0  0  0  0  0  0  0  0  0  0  0  0
  148.1219  138.2216  155.3293 H   0  0  0  0  0  0  0  0  0  0  0  0
  146.5649  138.9267  154.9362 H   0  0  0  0  0  0  0  0  0  0  0  0
  148.1976  137.2367  153.0989 H   0  0  0  0  0  0  0  0  0  0  0  0
  147.2447  136.0391  151.7988 H   0  0  0  0  0  0  0  0  0  0  0  0
  144.2917  136.2229  151.5828 H   0  0  0  0  0  0  0  0  0  0  0  0
  145.3315  135.9028  150.2143 H   0  0  0  0  0  0  0  0  0  0  0  0
  145.7628  134.2713  153.6418 H   0  0  0  0  0  0  0  0  0  0  0  0
  144.8812  132.8101  153.2104 H   0  0  0  0  0  0  0  0  0  0  0  0
  144.0146  134.3178  153.4398 H   0  0  0  0  0  0  0  0  0  0  0  0
  146.8137  134.0463  150.1807 H   0  0  0  0  0  0  0  0  0  0  0  0
  147.1091  133.2429  151.7165 H   0  0  0  0  0  0  0  0  0  0  0  0
  146.3433  131.7734  149.5881 H   0  0  0  0  0  0  0  0  0  0  0  0
  145.5579  131.4676  151.1440 H   0  0  0  0  0  0  0  0  0  0  0  0
  144.5487  133.2918  148.9144 H   0  0  0  0  0  0  0  0  0  0  0  0
  143.6600  131.9813  149.7025 H   0  0  0  0  0  0  0  0  0  0  0  0
  1  2  1  0  0  0  0
  1 21  1  0  0  0  0
  1 22  1  0  0  0  0
  1 23  1  0  0  0  0
  2 20  1  0  0  0  0
  2  3  2  0  0  0  0
  3  4  1  0  0  0  0
  3 24  1  0  0  0  0
  4  5  2  0  0  0  0
  5  6  1  0  0  0  0
  5 20  1  0  0  0  0
  6  7  1  0  0  0  0
  6  8  1  0  0  0  0
  6 25  1  0  0  0  0
  7 26  1  0  0  0  0
  7 27  1  0  0  0  0
  7 28  1  0  0  0  0
  8  9  1  0  0  0  0
  8 29  1  0  0  0  0
  8 30  1  0  0  0  0
  9 10  1  0  0  0  0
  9 31  1  0  0  0  0
 10 11  2  0  0  0  0
 10 12  1  0  0  0  0
 12 13  1  0  0  0  0
 12 32  1  0  0  0  0
 13 14  1  0  0  0  0
 13 33  1  0  0  0  0
 13 34  1  0  0  0  0
 14 19  1  0  0  0  0
 14 15  1  0  0  0  0
 14 16  1  0  0  0  0
 15 35  1  0  0  0  0
 15 36  1  0  0  0  0
 15 37  1  0  0  0  0
 16 17  1  0  0  0  0
 16 38  1  0  0  0  0
 16 39  1  0  0  0  0
 17 18  1  0  0  0  0
 17 40  1  0  0  0  0
 17 41  1  0  0  0  0
 18 19  1  0  0  0  0
 18 42  1  0  0  0  0
 18 43  1  0  0  0  0
M  END
> <s_m_source_file>
AV-unprocessed.smi

> <i_m_source_file_index>
2414

> <i_lp_mmshare_version>
43012

> <i_f3d_flags>
0

> <s_epik_input>
W0NIM11jMVtjSF1uYyhzMSlbQ0BIXShbQ0gzXSlbQ0gyXVtOSF1DKD1PKVtOSF1bQ0gyXVtDQEBdMihbQ0gzXSlbQ0gyXVtDSDJdW0NIMl1PMg==

> <s_epik_cmdline>
J2VwaWtfcHl0aG9uJywgJy1waCcsICc3LjAnLCAnLXRuJywgJzgnLCAnLW1hJywgJzIwMCcsICctbWV0YWxfYmluZGluZycsICctaW1hZScsICc8aW5maWxlLm1hZT4nLCAnLW9tYWUnLCAnPG91dGZpbGUubWFlPic=

> <r_epik_Ionization_Penalty>
0.000646956

> <r_epik_Ionization_Penalty_Charging>
0

> <r_epik_Ionization_Penalty_Neutral>
0.000646956

> <r_epik_State_Penalty>
0.000375727

> <r_epik_Charging_Adjusted_Penalty>
0.000375727

> <i_epik_Tot_Q>
0

> <i_epik_Tot_abs_Q>
0

> <r_epik_Metal_State_Penalty>
-0

> <b_epik_Metal_Only>
0

> <s_lp_Force_Field>
OPLS_2005

> <r_lp_Energy>
9.0626

> <b_lp_Chiralities_Consistent>
1

> <s_lp_Variant>
AV-unprocessed.smi:2414-3

> <Gold.Version>
5.8.1

> <Gold.Id.Protein>
6NUR|6NUR_protein|mol2

> <Gold.PLP.Fitness>
42.3629

> <Gold.PLP.PLP>
-34.7024

> <Gold.PLP.part.hbond>
-3.0000

> <Gold.PLP.part.metal>
0.0000

> <Gold.PLP.part.buried>
-4.9362

> <Gold.PLP.part.nonpolar>
-27.1906

> <Gold.PLP.part.repulsive>
0.5909

> <Gold.PLP.ligand.clash>
0.0000

> <Gold.PLP.ligand.torsion>
0.7154

> <Gold.PLP.Chemscore.Hbond>
2.9920

> <Gold.PLP.Chemscore.CHOScore>
0.0000

> <Gold.PLP.Chemscore.Metal>
0.0000

> <Gold.Chemscore.Hbonds>
donor molecule, donor type, donor heavy atom, donor atom, acceptor molecule, acceptor atom, score
      L1  H     9    31       P1  7948  0.98
      L1  H    12    32       P1  7948  1.00
      P1  H  7989  7998       L1     4  0.90

> <Gold.PLP.Chemscore.Internal.Correction>
0.1152

> <Gold.Rescore>
     Score         DG    S(hbond)    S(metal)    S(lipo)     H(rot)  DE(clash)    DE(int)     intcor
     19.40     -19.94       2.65        0.00      83.98       1.65       0.02       0.53       ----

> <Gold.Chemscore.Fitness>
19.3984

> <Gold.Chemscore.DG>
-19.9387

> <Gold.Chemscore.ZeroCoef>
-5.4800

> <Gold.Chemscore.Hbond>
2.6533

> <Gold.Chemscore.Metal>
0.0000

> <Gold.Chemscore.Lipo>
83.9845

> <Gold.Chemscore.Internal_Hbond>
0.0000

> <Gold.Chemscore.DEClash>
0.0152

> <Gold.Chemscore.DEInternal>
0.5252

> <Gold.Chemscore.Rot>
1.6522

> <Gold.Chemscore.Internal.Correction>
   9.000000E+99

> <Gold.Chemscore.Hbonds>
donor molecule, donor type, donor heavy atom, donor atom, acceptor molecule, acceptor atom, score
      L1  H     9    31       P1  7948  0.93
      L1  H    12    32       P1  7948  0.97
      P1  H  7989  7998       L1     4  0.18

> <Gold.Chemscore.Hbond.Weighted>
-8.8621

> <Gold.Chemscore.Metal.Weighted>
-0.0000

> <Gold.Chemscore.Lipo.Weighted>
-9.8262

> <Gold.Chemscore.Internal_Hbond.Weighted>
0.0000

> <Gold.Chemscore.DEClash.Weighted>
0.0152

> <Gold.Chemscore.DEInternal.Weighted>
0.5252

> <Gold.Chemscore.Rot.Weighted>
4.2295

> <Gold.Chemscore.Internal.Correction.Weighted>
   9.000000E+99

> <Gold.Protein.RotatedTorsions>
[ 6907 6896 6895 6894 ] final  160.47 input  -60.11 | X-H torsion
[ 7974 7965 7964 7962 ] final   -5.59 input  175.53 | X-H torsion
[ 8008 7997 7996 7995 ] final  146.54 input   59.86 | X-H torsion
[ 10167 10162 10161 10158 ] final   69.31 input  -65.29 | X-H torsion
[ 10718 10713 10712 10709 ] final   73.48 input   66.30 | X-H torsion
[ 10763 10752 10751 10750 ] final -137.35 input  -60.55 | X-H torsion
[ 11005 11000 10999 10996 ] final -114.39 input  -57.11 | X-H torsion

> <Gold.Protein.ActiveResidues>
 VAL166  LYS551  ARG553  GLY616  TRP617  ASP618  TYR619  PRO620  LYS621  CYS622 
 ASP623  PHE694  ASN695  SER759  ASP760  ASP761  ALA762  ILE779  LEU786  VAL792 
 PHE793  MET794  SER795  GLU796  ALA797  LYS798  CYS799  TRP800  GLU811  SER814 

> <Gold.Protein.RotatedAtoms>
  151.9701  133.3723  159.4067 H   0  0  0  0  0  0  0  0  0  0  0  0  # atno 6907 bound_to 6896
  150.6950  134.4149  159.5187 H   0  0  0  0  0  0  0  0  0  0  0  0  # atno 6908 bound_to 6896
  152.1851  134.8720  160.0573 H   0  0  0  0  0  0  0  0  0  0  0  0  # atno 6909 bound_to 6896
  146.2349  140.2044  142.8334 H   0  0  0  0  0  0  0  0  0  0  0  0  # atno 7974 bound_to 7965
  156.2852  140.2180  156.5392 H   0  0  0  0  0  0  0  0  0  0  0  0  # atno 8008 bound_to 7997
  154.7384  140.0490  157.0811 H   0  0  0  0  0  0  0  0  0  0  0  0  # atno 8009 bound_to 7997
  155.0263  140.3130  155.4778 H   0  0  0  0  0  0  0  0  0  0  0  0  # atno 8010 bound_to 7997
  140.0692  144.5167  150.7239 H   0  0  0  0  0  0  0  0  0  0  0  0  # atno 10167 bound_to 10162
  157.6550  130.9631  150.1075 H   0  0  0  0  0  0  0  0  0  0  0  0  # atno 10718 bound_to 10713
  154.8664  135.3645  154.5208 H   0  0  0  0  0  0  0  0  0  0  0  0  # atno 10763 bound_to 10752
  153.5838  135.7017  153.5457 H   0  0  0  0  0  0  0  0  0  0  0  0  # atno 10764 bound_to 10752
  153.3433  135.4092  155.1551 H   0  0  0  0  0  0  0  0  0  0  0  0  # atno 10765 bound_to 10752
  141.0555  133.9620  157.2762 H   0  0  0  0  0  0  0  0  0  0  0  0  # atno 11005 bound_to 11000
  144.9756  140.8411  143.5428 LP  0  0  0  0  0  0  0  0  0  0  0  0  # atno 17320 bound_to 7965
  145.2031  139.2242  143.5182 LP  0  0  0  0  0  0  0  0  0  0  0  0  # atno 17321 bound_to 7965
  140.7134  143.2524  151.4511 LP  0  0  0  0  0  0  0  0  0  0  0  0  # atno 17342 bound_to 10162
  139.5846  144.1633  152.2013 LP  0  0  0  0  0  0  0  0  0  0  0  0  # atno 17343 bound_to 10162
  156.1981  130.3658  149.8823 LP  0  0  0  0  0  0  0  0  0  0  0  0  # atno 17370 bound_to 10713
  156.6734  130.8829  151.3565 LP  0  0  0  0  0  0  0  0  0  0  0  0  # atno 17371 bound_to 10713
  139.9386  135.0194  156.8636 LP  0  0  0  0  0  0  0  0  0  0  0  0  # atno 17394 bound_to 11000
  140.5973  134.0205  155.7523 LP  0  0  0  0  0  0  0  0  0  0  0  0  # atno 17395 bound_to 11000

$$$$
