AV-unprocessed.smi:609|AV-procd|sdf|3049|dock10
  -GOLD-   2262023573D 1   1.00000     0.00000
 Structure written by MMmdl.
 44 46  0  0  0  0  0  0  0  0  3 V2000
  152.1900  144.2101  161.2472 C   0  0  0  0  0  0  0  0  0  0  0  0
  152.0280  143.2869  160.0515 C   0  0  0  0  0  0  0  0  0  0  0  0
  151.2495  143.7294  158.9582 C   0  0  0  0  0  0  0  0  0  0  0  0
  151.1232  142.8639  157.8782 C   0  0  0  0  0  0  0  0  0  0  0  0
  150.4431  143.0046  156.6664 N   0  3  0  0  0  0  0  0  0  0  0  0
  150.6143  141.8810  155.9160 C   0  0  0  0  0  0  0  0  0  0  0  0
  151.3843  141.0205  156.6365 N   0  0  0  0  0  0  0  0  0  0  0  0
  151.8689  139.6757  156.2997 C   0  0  0  0  0  0  0  0  0  0  0  0
  150.8292  138.8212  155.5456 C   0  0  2  0  0  0  0  0  0  0  0  0
  150.6891  139.3601  154.2475 O   0  0  0  0  0  0  0  0  0  0  0  0
  149.4504  138.7743  156.2297 C   0  0  0  0  0  0  0  0  0  0  0  0
  148.3056  137.6459  155.3862 S   0  0  0  0  0  0  0  0  0  0  0  0
  149.0761  136.0591  155.4613 C   0  0  0  0  0  0  0  0  0  0  0  0
  149.4669  135.3524  154.3977 N   0  3  0  0  0  0  0  0  0  0  0  0
  150.0250  134.1704  154.8042 C   0  0  0  0  0  0  0  0  0  0  0  0
  149.9755  134.1664  156.1756 C   0  0  0  0  0  0  0  0  0  0  0  0
  149.3895  135.3474  156.5554 N   0  0  0  0  0  0  0  0  0  0  0  0
  149.1373  135.7909  157.9286 C   0  0  0  0  0  0  0  0  0  0  0  0
  151.7346  141.5954  157.8623 C   0  0  0  0  0  0  0  0  0  0  0  0
  152.5055  141.1438  158.9302 C   0  0  0  0  0  0  0  0  0  0  0  0
  152.6494  142.0111  160.0367 C   0  0  0  0  0  0  0  0  0  0  0  0
  153.4885  141.5476  161.2155 C   0  0  0  0  0  0  0  0  0  0  0  0
  151.6355  145.1392  161.1124 H   0  0  0  0  0  0  0  0  0  0  0  0
  153.2397  144.4669  161.3920 H   0  0  0  0  0  0  0  0  0  0  0  0
  151.8214  143.7315  162.1547 H   0  0  0  0  0  0  0  0  0  0  0  0
  150.7763  144.7005  158.9612 H   0  0  0  0  0  0  0  0  0  0  0  0
  150.2102  141.7039  154.9296 H   0  0  0  0  0  0  0  0  0  0  0  0
  152.7663  139.7994  155.6915 H   0  0  0  0  0  0  0  0  0  0  0  0
  152.1848  139.1851  157.2217 H   0  0  0  0  0  0  0  0  0  0  0  0
  151.2073  137.8038  155.4422 H   0  0  0  0  0  0  0  0  0  0  0  0
  150.3620  138.6837  153.6739 H   0  0  0  0  0  0  0  0  0  0  0  0
  149.5536  138.4347  157.2588 H   0  0  0  0  0  0  0  0  0  0  0  0
  149.0066  139.7698  156.2670 H   0  0  0  0  0  0  0  0  0  0  0  0
  150.4075  133.4400  154.1060 H   0  0  0  0  0  0  0  0  0  0  0  0
  150.3099  133.4290  156.8914 H   0  0  0  0  0  0  0  0  0  0  0  0
  149.8282  135.2845  158.6032 H   0  0  0  0  0  0  0  0  0  0  0  0
  148.1139  135.5374  158.2050 H   0  0  0  0  0  0  0  0  0  0  0  0
  149.2899  136.8675  158.0089 H   0  0  0  0  0  0  0  0  0  0  0  0
  152.9793  140.1733  158.9175 H   0  0  0  0  0  0  0  0  0  0  0  0
  153.9293  140.5675  161.0308 H   0  0  0  0  0  0  0  0  0  0  0  0
  152.8768  141.4747  162.1150 H   0  0  0  0  0  0  0  0  0  0  0  0
  154.3032  142.2468  161.4054 H   0  0  0  0  0  0  0  0  0  0  0  0
  149.3619  135.6496  153.4357 H   0  0  0  0  0  0  0  0  0  0  0  0
  149.9079  143.8102  156.3679 H   0  0  0  0  0  0  0  0  0  0  0  0
  1  2  1  0  0  0  0
  1 23  1  0  0  0  0
  1 24  1  0  0  0  0
  1 25  1  0  0  0  0
  2 21  1  0  0  0  0
  2  3  2  0  0  0  0
  3  4  1  0  0  0  0
  3 26  1  0  0  0  0
  4 19  2  0  0  0  0
  4  5  1  0  0  0  0
  5  6  2  0  0  0  0
  5 44  1  0  0  0  0
  6  7  1  0  0  0  0
  6 27  1  0  0  0  0
  7  8  1  0  0  0  0
  7 19  1  0  0  0  0
  8  9  1  0  0  0  0
  8 28  1  0  0  0  0
  8 29  1  0  0  0  0
  9 10  1  0  0  0  0
  9 11  1  0  0  0  0
  9 30  1  0  0  0  0
 10 31  1  0  0  0  0
 11 12  1  0  0  0  0
 11 32  1  0  0  0  0
 11 33  1  0  0  0  0
 12 13  1  0  0  0  0
 13 17  1  0  0  0  0
 13 14  2  0  0  0  0
 14 15  1  0  0  0  0
 14 43  1  0  0  0  0
 15 16  2  0  0  0  0
 15 34  1  0  0  0  0
 16 17  1  0  0  0  0
 16 35  1  0  0  0  0
 17 18  1  0  0  0  0
 18 36  1  0  0  0  0
 18 37  1  0  0  0  0
 18 38  1  0  0  0  0
 19 20  1  0  0  0  0
 20 21  2  0  0  0  0
 20 39  1  0  0  0  0
 21 22  1  0  0  0  0
 22 40  1  0  0  0  0
 22 41  1  0  0  0  0
 22 42  1  0  0  0  0
M  CHG  1   5   1
M  CHG  1  14   1
M  END
> <s_m_source_file>
AV-unprocessed.smi

> <i_m_source_file_index>
609

> <i_lp_mmshare_version>
43012

> <i_f3d_flags>
0

> <s_epik_input>
W0NIM11jKFtjSF0xKWMoW0NIM10pW2NIXWMoYzEyKW4oW2NIXW4yKVtDSDJdW0NASF0oW09IXSlbQ0gyXVNjM25bY0hdW2NIXW4zW0NIM10=

> <s_epik_cmdline>
J2VwaWtfcHl0aG9uJywgJy1waCcsICc3LjAnLCAnLXRuJywgJzgnLCAnLW1hJywgJzIwMCcsICctbWV0YWxfYmluZGluZycsICctaW1hZScsICc8aW5maWxlLm1hZT4nLCAnLW9tYWUnLCAnPG91dGZpbGUubWFlPic=

> <r_lp_tautomer_probability>
1

> <r_epik_Ionization_Penalty>
1.19058

> <r_epik_Ionization_Penalty_Charging>
1.07615

> <r_epik_Ionization_Penalty_Neutral>
0.114429

> <r_epik_State_Penalty>
1.23473

> <r_epik_Charging_Adjusted_Penalty>
2.31088

> <i_epik_Tot_Q>
2

> <i_epik_Tot_abs_Q>
2

> <r_epik_Metal_State_Penalty>
4.63867

> <b_epik_Metal_Only>
0

> <s_lp_Force_Field>
OPLS_2005

> <r_lp_Energy>
20.2349

> <b_lp_Chiralities_Consistent>
1

> <s_lp_Variant>
AV-unprocessed.smi:609-5

> <Gold.Version>
5.8.1

> <Gold.Id.Protein>
6NUR|6NUR_protein|mol2

> <Gold.PLP.Fitness>
55.8218

> <Gold.PLP.PLP>
-41.5363

> <Gold.PLP.part.hbond>
-2.9915

> <Gold.PLP.part.metal>
0.0000

> <Gold.PLP.part.buried>
-6.1546

> <Gold.PLP.part.nonpolar>
-32.4332

> <Gold.PLP.part.repulsive>
0.0889

> <Gold.PLP.ligand.clash>
0.0000

> <Gold.PLP.ligand.torsion>
0.3701

> <Gold.PLP.Chemscore.Hbond>
5.0000

> <Gold.PLP.Chemscore.CHOScore>
0.0000

> <Gold.PLP.Chemscore.Metal>
0.0000

> <Gold.Chemscore.Hbonds>
donor molecule, donor type, donor heavy atom, donor atom, acceptor molecule, acceptor atom, score
      L1  H     5    44       P1  8028  2.00
      L1  H    14    43       P1  7948  2.00
      P1  H  7989  7998       L1    10  1.00

> <Gold.PLP.Chemscore.Internal.Correction>
0.0256

> <Gold.Rescore>
     Score         DG    S(hbond)    S(metal)    S(lipo)     H(rot)  DE(clash)    DE(int)     intcor
     20.78     -21.20       2.93        0.00     107.35       2.59       0.03       0.39       ----

> <Gold.Chemscore.Fitness>
20.7773

> <Gold.Chemscore.DG>
-21.1983

> <Gold.Chemscore.ZeroCoef>
-5.4800

> <Gold.Chemscore.Hbond>
2.9281

> <Gold.Chemscore.Metal>
0.0000

> <Gold.Chemscore.Lipo>
107.3463

> <Gold.Chemscore.Internal_Hbond>
0.0000

> <Gold.Chemscore.DEClash>
0.0272

> <Gold.Chemscore.DEInternal>
0.3938

> <Gold.Chemscore.Rot>
2.5863

> <Gold.Chemscore.Internal.Correction>
   9.000000E+99

> <Gold.Chemscore.Hbonds>
donor molecule, donor type, donor heavy atom, donor atom, acceptor molecule, acceptor atom, score
      L1  H     5    44       P1  8028  0.93
      L1  H    14    43       P1  7948  0.35
      P1  H  7989  7998       L1    10  0.96

> <Gold.Chemscore.Hbond.Weighted>
-9.7798

> <Gold.Chemscore.Metal.Weighted>
-0.0000

> <Gold.Chemscore.Lipo.Weighted>
-12.5595

> <Gold.Chemscore.Internal_Hbond.Weighted>
0.0000

> <Gold.Chemscore.DEClash.Weighted>
0.0272

> <Gold.Chemscore.DEInternal.Weighted>
0.3938

> <Gold.Chemscore.Rot.Weighted>
6.6210

> <Gold.Chemscore.Internal.Correction.Weighted>
   9.000000E+99

> <Gold.Protein.RotatedTorsions>
[ 6907 6896 6895 6894 ] final  -17.92 input  -60.11 | X-H torsion
[ 7974 7965 7964 7962 ] final   70.68 input  175.53 | X-H torsion
[ 8008 7997 7996 7995 ] final  124.16 input   59.86 | X-H torsion
[ 10167 10162 10161 10158 ] final   79.78 input  -65.29 | X-H torsion
[ 10718 10713 10712 10709 ] final   86.95 input   66.30 | X-H torsion
[ 10763 10752 10751 10750 ] final  100.70 input  -60.55 | X-H torsion
[ 11005 11000 10999 10996 ] final  -91.44 input  -57.11 | X-H torsion

> <Gold.Protein.ActiveResidues>
 VAL166  LYS551  ARG553  GLY616  TRP617  ASP618  TYR619  PRO620  LYS621  CYS622 
 ASP623  PHE694  ASN695  SER759  ASP760  ASP761  ALA762  ILE779  LEU786  VAL792 
 PHE793  MET794  SER795  GLU796  ALA797  LYS798  CYS799  TRP800  GLU811  SER814 

> <Gold.Protein.RotatedAtoms>
  151.2860  135.0728  159.9186 H   0  0  0  0  0  0  0  0  0  0  0  0  # atno 6907 bound_to 6896
  152.5325  133.9981  159.7892 H   0  0  0  0  0  0  0  0  0  0  0  0  # atno 6908 bound_to 6896
  151.0243  133.5797  159.2698 H   0  0  0  0  0  0  0  0  0  0  0  0  # atno 6909 bound_to 6896
  145.7752  139.2861  143.1298 H   0  0  0  0  0  0  0  0  0  0  0  0  # atno 7974 bound_to 7965
  156.2792  140.2746  156.1744 H   0  0  0  0  0  0  0  0  0  0  0  0  # atno 8008 bound_to 7997
  155.0622  140.0386  157.2598 H   0  0  0  0  0  0  0  0  0  0  0  0  # atno 8009 bound_to 7997
  154.7108  140.2668  155.6636 H   0  0  0  0  0  0  0  0  0  0  0  0  # atno 8010 bound_to 7997
  139.9567  144.5989  150.8110 H   0  0  0  0  0  0  0  0  0  0  0  0  # atno 10167 bound_to 10162
  157.6935  131.0236  150.3049 H   0  0  0  0  0  0  0  0  0  0  0  0  # atno 10718 bound_to 10713
  153.3173  135.4070  155.1387 H   0  0  0  0  0  0  0  0  0  0  0  0  # atno 10763 bound_to 10752
  154.8591  135.3579  154.5644 H   0  0  0  0  0  0  0  0  0  0  0  0  # atno 10764 bound_to 10752
  153.6075  135.7069  153.5418 H   0  0  0  0  0  0  0  0  0  0  0  0  # atno 10765 bound_to 10752
  141.1544  133.7756  156.9879 H   0  0  0  0  0  0  0  0  0  0  0  0  # atno 11005 bound_to 11000
  146.0130  140.8418  142.9961 LP  0  0  0  0  0  0  0  0  0  0  0  0  # atno 17320 bound_to 7965
  144.6806  140.2517  143.7330 LP  0  0  0  0  0  0  0  0  0  0  0  0  # atno 17321 bound_to 7965
  140.7566  143.3069  151.2940 LP  0  0  0  0  0  0  0  0  0  0  0  0  # atno 17342 bound_to 10162
  139.6586  144.0231  152.2676 LP  0  0  0  0  0  0  0  0  0  0  0  0  # atno 17343 bound_to 10162
  156.3559  130.3839  149.7290 LP  0  0  0  0  0  0  0  0  0  0  0  0  # atno 17370 bound_to 10713
  156.4753  130.8015  151.3032 LP  0  0  0  0  0  0  0  0  0  0  0  0  # atno 17371 bound_to 10713
  140.1022  134.9528  157.1940 LP  0  0  0  0  0  0  0  0  0  0  0  0  # atno 17394 bound_to 11000
  140.3303  134.2817  155.7229 LP  0  0  0  0  0  0  0  0  0  0  0  0  # atno 17395 bound_to 11000

$$$$
