AV-unprocessed.smi:1120|AV-procd|sdf|4820|dock2
  -GOLD-   22720 3373D 1   1.00000     0.00000
 Structure written by MMmdl.
 49 50  0  0  0  0  0  0  0  0  2 V2000
  151.7500  145.0403  159.0592 C   0  0  0  0  0  0  0  0  0  0  0  0
  151.7769  143.5493  159.4243 C   0  0  2  0  0  0  0  0  0  0  0  0
  153.1824  143.1032  159.8721 C   0  0  0  0  0  0  0  0  0  0  0  0
  153.2137  141.6105  160.2382 C   0  0  0  0  0  0  0  0  0  0  0  0
  152.7106  140.7412  159.0735 C   0  0  1  0  0  0  0  0  0  0  0  0
  152.6854  139.3347  159.4792 N   0  0  0  0  0  0  0  0  0  0  0  0
  152.9940  138.0612  158.3542 S   0  0  0  0  0  0  0  0  0  0  0  0
  153.9976  138.5589  157.4011 O   0  0  0  0  0  0  0  0  0  0  0  0
  153.2542  136.8450  159.1404 O   0  0  0  0  0  0  0  0  0  0  0  0
  151.3782  137.8810  157.4678 C   0  0  0  0  0  0  0  0  0  0  0  0
  151.3277  136.5675  156.6886 C   0  0  0  0  0  0  0  0  0  0  0  0
  152.3033  136.2014  156.0341 O   0  0  0  0  0  0  0  0  0  0  0  0
  150.1847  135.8684  156.7620 N   0  0  0  0  0  0  0  0  0  0  0  0
  149.9447  134.5880  156.1086 C   0  0  0  0  0  0  0  0  0  0  0  0
  149.5391  134.7698  154.6361 C   0  0  0  0  0  0  0  0  0  0  0  0
  148.5652  133.7031  154.1758 C   0  0  0  0  0  0  0  0  0  0  0  0
  148.7584  132.3354  154.4673 C   0  0  0  0  0  0  0  0  0  0  0  0
  147.8197  131.3920  153.9997 C   0  0  0  0  0  0  0  0  0  0  0  0
  146.7100  131.8351  153.2505 C   0  0  0  0  0  0  0  0  0  0  0  0
  146.5672  133.2127  152.9872 C   0  0  0  0  0  0  0  0  0  0  0  0
  147.4879  134.0855  153.4524 N   0  3  0  0  0  0  0  0  0  0  0  0
  151.3091  141.1807  158.6142 C   0  0  0  0  0  0  0  0  0  0  0  0
  151.2818  142.6749  158.2558 C   0  0  0  0  0  0  0  0  0  0  0  0
  152.4103  145.2556  158.2186 H   0  0  0  0  0  0  0  0  0  0  0  0
  152.0702  145.6564  159.8997 H   0  0  0  0  0  0  0  0  0  0  0  0
  150.7444  145.3587  158.7825 H   0  0  0  0  0  0  0  0  0  0  0  0
  151.0955  143.4050  160.2640 H   0  0  0  0  0  0  0  0  0  0  0  0
  153.9020  143.2960  159.0753 H   0  0  0  0  0  0  0  0  0  0  0  0
  153.5065  143.6945  160.7292 H   0  0  0  0  0  0  0  0  0  0  0  0
  154.2292  141.3196  160.5101 H   0  0  0  0  0  0  0  0  0  0  0  0
  152.5963  141.4417  161.1217 H   0  0  0  0  0  0  0  0  0  0  0  0
  153.4028  140.8533  158.2380 H   0  0  0  0  0  0  0  0  0  0  0  0
  152.0562  139.0970  160.2453 H   0  0  0  0  0  0  0  0  0  0  0  0
  150.5565  137.9585  158.1788 H   0  0  0  0  0  0  0  0  0  0  0  0
  151.2886  138.7141  156.7702 H   0  0  0  0  0  0  0  0  0  0  0  0
  149.4307  136.2475  157.3165 H   0  0  0  0  0  0  0  0  0  0  0  0
  150.8606  134.0002  156.1738 H   0  0  0  0  0  0  0  0  0  0  0  0
  149.1780  134.0325  156.6513 H   0  0  0  0  0  0  0  0  0  0  0  0
  149.0831  135.7494  154.4859 H   0  0  0  0  0  0  0  0  0  0  0  0
  150.4237  134.7431  153.9982 H   0  0  0  0  0  0  0  0  0  0  0  0
  149.6159  132.0114  155.0392 H   0  0  0  0  0  0  0  0  0  0  0  0
  147.9506  130.3410  154.2126 H   0  0  0  0  0  0  0  0  0  0  0  0
  145.9803  131.1286  152.8828 H   0  0  0  0  0  0  0  0  0  0  0  0
  145.7513  133.6399  152.4227 H   0  0  0  0  0  0  0  0  0  0  0  0
  150.9948  140.5945  157.7506 H   0  0  0  0  0  0  0  0  0  0  0  0
  150.5817  140.9849  159.4033 H   0  0  0  0  0  0  0  0  0  0  0  0
  150.2679  142.9639  157.9770 H   0  0  0  0  0  0  0  0  0  0  0  0
  151.9040  142.8477  157.3764 H   0  0  0  0  0  0  0  0  0  0  0  0
  147.3645  135.0776  153.2491 H   0  0  0  0  0  0  0  0  0  0  0  0
  1  2  1  0  0  0  0
  1 24  1  0  0  0  0
  1 25  1  0  0  0  0
  1 26  1  0  0  0  0
  2 23  1  0  0  0  0
  2  3  1  0  0  0  0
  2 27  1  0  0  0  0
  3  4  1  0  0  0  0
  3 28  1  0  0  0  0
  3 29  1  0  0  0  0
  4  5  1  0  0  0  0
  4 30  1  0  0  0  0
  4 31  1  0  0  0  0
  5  6  1  0  0  0  0
  5 22  1  0  0  0  0
  5 32  1  0  0  0  0
  6  7  1  0  0  0  0
  6 33  1  0  0  0  0
  7  8  2  0  0  0  0
  7  9  2  0  0  0  0
  7 10  1  0  0  0  0
 10 11  1  0  0  0  0
 10 34  1  0  0  0  0
 10 35  1  0  0  0  0
 11 12  2  0  0  0  0
 11 13  1  0  0  0  0
 13 14  1  0  0  0  0
 13 36  1  0  0  0  0
 14 15  1  0  0  0  0
 14 37  1  0  0  0  0
 14 38  1  0  0  0  0
 15 16  1  0  0  0  0
 15 39  1  0  0  0  0
 15 40  1  0  0  0  0
 16 21  1  0  0  0  0
 16 17  2  0  0  0  0
 17 18  1  0  0  0  0
 17 41  1  0  0  0  0
 18 19  2  0  0  0  0
 18 42  1  0  0  0  0
 19 20  1  0  0  0  0
 19 43  1  0  0  0  0
 20 21  2  0  0  0  0
 20 44  1  0  0  0  0
 21 49  1  0  0  0  0
 22 23  1  0  0  0  0
 22 45  1  0  0  0  0
 22 46  1  0  0  0  0
 23 47  1  0  0  0  0
 23 48  1  0  0  0  0
M  CHG  1  21   1
M  END
> <s_m_source_file>
AV-unprocessed.smi

> <i_m_source_file_index>
1120

> <i_lp_mmshare_version>
43012

> <i_f3d_flags>
0

> <s_epik_input>
W0NIM11bQ0BASF0xW0NIMl1bQ0gyXVtDQEhdKFtDSDJdW0NIMl0xKVtOSF1TKD1PKSg9TylbQ0gyXUMoPU8pW05IXVtDSDJdW0NIMl1jMltjSF1bY0hdW2NIXVtjSF1uMg==

> <s_epik_cmdline>
J2VwaWtfcHl0aG9uJywgJy1waCcsICc3LjAnLCAnLXRuJywgJzgnLCAnLW1hJywgJzIwMCcsICctbWV0YWxfYmluZGluZycsICctaW1hZScsICc8aW5maWxlLm1hZT4nLCAnLW9tYWUnLCAnPG91dGZpbGUubWFlPic=

> <r_epik_Ionization_Penalty>
1.97387

> <r_epik_Ionization_Penalty_Charging>
1.97382

> <r_epik_Ionization_Penalty_Neutral>
4.57635e-05

> <r_epik_State_Penalty>
2.10057

> <r_epik_Charging_Adjusted_Penalty>
4.07439

> <i_epik_Tot_Q>
1

> <i_epik_Tot_abs_Q>
1

> <r_epik_Metal_State_Penalty>
2.15877

> <b_epik_Metal_Only>
0

> <s_lp_Force_Field>
OPLS_2005

> <r_lp_Energy>
9.01473

> <b_lp_Chiralities_Consistent>
1

> <s_lp_Variant>
AV-unprocessed.smi:1120-3

> <Gold.Version>
5.8.1

> <Gold.Id.Protein>
6NUR|6NUR_protein|mol2

> <Gold.PLP.Fitness>
55.1531

> <Gold.PLP.PLP>
-42.7584

> <Gold.PLP.part.hbond>
-4.0000

> <Gold.PLP.part.metal>
0.0000

> <Gold.PLP.part.buried>
-4.2163

> <Gold.PLP.part.nonpolar>
-35.1553

> <Gold.PLP.part.repulsive>
0.2194

> <Gold.PLP.ligand.clash>
0.0000

> <Gold.PLP.ligand.torsion>
1.9393

> <Gold.PLP.Chemscore.Hbond>
4.9920

> <Gold.PLP.Chemscore.CHOScore>
0.0000

> <Gold.PLP.Chemscore.Metal>
0.0000

> <Gold.Chemscore.Hbonds>
donor molecule, donor type, donor heavy atom, donor atom, acceptor molecule, acceptor atom, score
      L1  H    21    49       P1  7948  0.09
      P1  H  6896  6908       L1     9  0.04
      P1  H  7997  8009       L1     8  0.82
      P1  H 10752 10765       L1    12  0.89

> <Gold.PLP.Chemscore.Internal.Correction>
1.2972

> <Gold.Rescore>
     Score         DG    S(hbond)    S(metal)    S(lipo)     H(rot)  DE(clash)    DE(int)     intcor
     23.14     -25.24       3.62        0.00     110.45       2.05       0.06       2.04       ----

> <Gold.Chemscore.Fitness>
23.1361

> <Gold.Chemscore.DG>
-25.2391

> <Gold.Chemscore.ZeroCoef>
-5.4800

> <Gold.Chemscore.Hbond>
3.6154

> <Gold.Chemscore.Metal>
0.0000

> <Gold.Chemscore.Lipo>
110.4460

> <Gold.Chemscore.Internal_Hbond>
0.0000

> <Gold.Chemscore.DEClash>
0.0605

> <Gold.Chemscore.DEInternal>
2.0424

> <Gold.Chemscore.Rot>
2.0463

> <Gold.Chemscore.Internal.Correction>
   9.000000E+99

> <Gold.Chemscore.Hbonds>
donor molecule, donor type, donor heavy atom, donor atom, acceptor molecule, acceptor atom, score
      L1  H    21    49       P1  7948  0.05
      P1  H  6896  6908       L1     9  0.08
      P1  H  7997  8009       L1     8  0.81
      P1  H 10752 10765       L1    12  0.87

> <Gold.Chemscore.Hbond.Weighted>
-12.0754

> <Gold.Chemscore.Metal.Weighted>
-0.0000

> <Gold.Chemscore.Lipo.Weighted>
-12.9222

> <Gold.Chemscore.Internal_Hbond.Weighted>
0.0000

> <Gold.Chemscore.DEClash.Weighted>
0.0605

> <Gold.Chemscore.DEInternal.Weighted>
2.0424

> <Gold.Chemscore.Rot.Weighted>
5.2386

> <Gold.Chemscore.Internal.Correction.Weighted>
   9.000000E+99

> <Gold.Protein.RotatedTorsions>
[ 6907 6896 6895 6894 ] final -108.49 input  -60.11 | X-H torsion
[ 7974 7965 7964 7962 ] final  -50.67 input  175.53 | X-H torsion
[ 8008 7997 7996 7995 ] final  142.64 input   59.86 | X-H torsion
[ 10167 10162 10161 10158 ] final  171.46 input  -65.29 | X-H torsion
[ 10718 10713 10712 10709 ] final   50.61 input   66.30 | X-H torsion
[ 10763 10752 10751 10750 ] final -141.57 input  -60.55 | X-H torsion
[ 11005 11000 10999 10996 ] final   73.57 input  -57.11 | X-H torsion

> <Gold.Protein.ActiveResidues>
 VAL166  LYS551  ARG553  GLY616  TRP617  ASP618  TYR619  PRO620  LYS621  CYS622 
 ASP623  PHE694  ASN695  SER759  ASP760  ASP761  ALA762  ILE779  LEU786  VAL792 
 PHE793  MET794  SER795  GLU796  ALA797  LYS798  CYS799  TRP800  GLU811  SER814 

> <Gold.Protein.RotatedAtoms>
  150.7505  133.9669  159.3533 H   0  0  0  0  0  0  0  0  0  0  0  0  # atno 6907 bound_to 6896
  151.7599  135.0810  160.0353 H   0  0  0  0  0  0  0  0  0  0  0  0  # atno 6908 bound_to 6896
  152.3410  133.6029  159.5912 H   0  0  0  0  0  0  0  0  0  0  0  0  # atno 6909 bound_to 6896
  145.9273  140.7780  142.9617 H   0  0  0  0  0  0  0  0  0  0  0  0  # atno 7974 bound_to 7965
  156.2945  140.2283  156.4761 H   0  0  0  0  0  0  0  0  0  0  0  0  # atno 8008 bound_to 7997
  154.7893  140.0455  157.1209 H   0  0  0  0  0  0  0  0  0  0  0  0  # atno 8009 bound_to 7997
  154.9665  140.3061  155.5010 H   0  0  0  0  0  0  0  0  0  0  0  0  # atno 8010 bound_to 7997
  139.5047  144.3483  151.9949 H   0  0  0  0  0  0  0  0  0  0  0  0  # atno 10167 bound_to 10162
  157.4901  130.8370  149.8193 H   0  0  0  0  0  0  0  0  0  0  0  0  # atno 10718 bound_to 10713
  154.8540  135.3520  154.5890 H   0  0  0  0  0  0  0  0  0  0  0  0  # atno 10763 bound_to 10752
  153.6500  135.6994  153.5217 H   0  0  0  0  0  0  0  0  0  0  0  0  # atno 10764 bound_to 10752
  153.2902  135.4237  155.1118 H   0  0  0  0  0  0  0  0  0  0  0  0  # atno 10765 bound_to 10752
  139.9433  134.7358  156.1042 H   0  0  0  0  0  0  0  0  0  0  0  0  # atno 11005 bound_to 11000
  144.6760  140.2071  143.7381 LP  0  0  0  0  0  0  0  0  0  0  0  0  # atno 17320 bound_to 7965
  145.8472  139.2158  143.1793 LP  0  0  0  0  0  0  0  0  0  0  0  0  # atno 17321 bound_to 7965
  140.2920  144.3743  150.6086 LP  0  0  0  0  0  0  0  0  0  0  0  0  # atno 17342 bound_to 10162
  140.5939  143.2167  151.7201 LP  0  0  0  0  0  0  0  0  0  0  0  0  # atno 17343 bound_to 10162
  156.0169  130.3810  150.2084 LP  0  0  0  0  0  0  0  0  0  0  0  0  # atno 17370 bound_to 10713
  157.0272  130.9997  151.3323 LP  0  0  0  0  0  0  0  0  0  0  0  0  # atno 17371 bound_to 10713
  141.1076  133.6654  156.2900 LP  0  0  0  0  0  0  0  0  0  0  0  0  # atno 17394 bound_to 11000
  140.5896  134.5664  157.5497 LP  0  0  0  0  0  0  0  0  0  0  0  0  # atno 17395 bound_to 11000

$$$$
