AV-unprocessed.smi:2108|AV-procd|sdf|8605|dock3
  -GOLD-   2272011343D 1   1.00000     0.00000
 Structure written by MMmdl.
 34 35  0  0  0  0  0  0  0  0  2 V2000
  151.0548  139.6869  154.6879 O   0  0  0  0  0  0  0  0  0  0  0  0
  151.8048  138.6932  155.4735 S   0  0  0  0  0  0  0  0  0  0  0  0
  152.3149  137.5053  154.7691 O   0  0  0  0  0  0  0  0  0  0  0  0
  152.8792  139.3720  156.4793 N   0  5  0  0  0  0  0  0  0  0  0  0
  152.3995  140.0105  157.6921 C   0  0  0  0  0  0  0  0  0  0  0  0
  151.5657  141.2590  157.3319 C   0  0  0  0  0  0  0  0  0  0  0  0
  151.7339  142.4239  158.3023 C   0  0  0  0  0  0  0  0  0  0  0  0
  151.3904  143.7396  157.9148 C   0  0  0  0  0  0  0  0  0  0  0  0
  151.5545  144.7825  158.8465 C   0  0  0  0  0  0  0  0  0  0  0  0
  152.0480  144.4758  160.1289 C   0  0  0  0  0  0  0  0  0  0  0  0
  152.3561  143.1332  160.4240 C   0  0  0  0  0  0  0  0  0  0  0  0
  152.2023  142.1255  159.5390 N   0  0  0  0  0  0  0  0  0  0  0  0
  150.7116  138.0950  156.6837 N   0  0  0  0  0  0  0  0  0  0  0  0
  151.2631  137.2122  157.7319 C   0  0  0  0  0  0  0  0  0  0  0  0
  150.2368  136.9677  158.8494 C   0  0  0  0  0  0  0  0  0  0  0  0
  149.0250  136.4727  158.3012 O   0  0  0  0  0  0  0  0  0  0  0  0
  148.4376  137.4142  157.4170 C   0  0  0  0  0  0  0  0  0  0  0  0
  149.3737  137.6814  156.2271 C   0  0  0  0  0  0  0  0  0  0  0  0
  151.7840  139.3313  158.2829 H   0  0  0  0  0  0  0  0  0  0  0  0
  153.2253  140.3076  158.3396 H   0  0  0  0  0  0  0  0  0  0  0  0
  151.8292  141.6016  156.3301 H   0  0  0  0  0  0  0  0  0  0  0  0
  150.5076  140.9950  157.2896 H   0  0  0  0  0  0  0  0  0  0  0  0
  151.0142  143.9445  156.9230 H   0  0  0  0  0  0  0  0  0  0  0  0
  151.3057  145.7996  158.5824 H   0  0  0  0  0  0  0  0  0  0  0  0
  152.1859  145.2503  160.8689 H   0  0  0  0  0  0  0  0  0  0  0  0
  152.7347  142.8611  161.3979 H   0  0  0  0  0  0  0  0  0  0  0  0
  151.5509  136.2641  157.2763 H   0  0  0  0  0  0  0  0  0  0  0  0
  152.1672  137.6445  158.1593 H   0  0  0  0  0  0  0  0  0  0  0  0
  150.6256  136.2376  159.5593 H   0  0  0  0  0  0  0  0  0  0  0  0
  150.0499  137.8849  159.4102 H   0  0  0  0  0  0  0  0  0  0  0  0
  147.4865  137.0181  157.0612 H   0  0  0  0  0  0  0  0  0  0  0  0
  148.2144  138.3403  157.9494 H   0  0  0  0  0  0  0  0  0  0  0  0
  148.9410  138.4551  155.5934 H   0  0  0  0  0  0  0  0  0  0  0  0
  149.4729  136.7835  155.6159 H   0  0  0  0  0  0  0  0  0  0  0  0
  1  2  2  0  0  0  0
  2  3  2  0  0  0  0
  2  4  1  0  0  0  0
  2 13  1  0  0  0  0
  4  5  1  0  0  0  0
  5  6  1  0  0  0  0
  5 19  1  0  0  0  0
  5 20  1  0  0  0  0
  6  7  1  0  0  0  0
  6 21  1  0  0  0  0
  6 22  1  0  0  0  0
  7 12  1  0  0  0  0
  7  8  2  0  0  0  0
  8  9  1  0  0  0  0
  8 23  1  0  0  0  0
  9 10  2  0  0  0  0
  9 24  1  0  0  0  0
 10 11  1  0  0  0  0
 10 25  1  0  0  0  0
 11 12  2  0  0  0  0
 11 26  1  0  0  0  0
 13 18  1  0  0  0  0
 13 14  1  0  0  0  0
 14 15  1  0  0  0  0
 14 27  1  0  0  0  0
 14 28  1  0  0  0  0
 15 16  1  0  0  0  0
 15 29  1  0  0  0  0
 15 30  1  0  0  0  0
 16 17  1  0  0  0  0
 17 18  1  0  0  0  0
 17 31  1  0  0  0  0
 17 32  1  0  0  0  0
 18 33  1  0  0  0  0
 18 34  1  0  0  0  0
M  CHG  1   4  -1
M  END
> <s_m_source_file>
AV-unprocessed.smi

> <i_m_source_file_index>
2108

> <i_lp_mmshare_version>
43012

> <i_f3d_flags>
0

> <s_epik_input>
W0NIMl0xW0NIMl1PW0NIMl1bQ0gyXU4xUyg9TykoPU8pW05IXVtDSDJdW0NIMl1jMltjSF1bY0hdW2NIXVtjSF1uMg==

> <s_epik_cmdline>
J2VwaWtfcHl0aG9uJywgJy1waCcsICc3LjAnLCAnLXRuJywgJzgnLCAnLW1hJywgJzIwMCcsICctbWV0YWxfYmluZGluZycsICctaW1hZScsICc8aW5maWxlLm1hZT4nLCAnLW9tYWUnLCAnPG91dGZpbGUubWFlPic=

> <r_epik_Ionization_Penalty>
1.27779

> <r_epik_Ionization_Penalty_Charging>
1.20871

> <r_epik_Ionization_Penalty_Neutral>
0.0690773

> <r_epik_State_Penalty>
1.64557

> <r_epik_Charging_Adjusted_Penalty>
2.85428

> <i_epik_Tot_Q>
-1

> <i_epik_Tot_abs_Q>
1

> <r_epik_Metal_State_Penalty>
0.643506

> <b_epik_Metal_Only>
0

> <s_lp_Force_Field>
OPLS_2005

> <r_lp_Energy>
7.47044

> <b_lp_Chiralities_Consistent>
1

> <s_lp_Variant>
AV-unprocessed.smi:2108-2

> <Gold.Version>
5.8.1

> <Gold.Id.Protein>
6NUR|6NUR_protein|mol2

> <Gold.PLP.Fitness>
42.0060

> <Gold.PLP.PLP>
-31.9156

> <Gold.PLP.part.hbond>
-3.0000

> <Gold.PLP.part.metal>
0.0000

> <Gold.PLP.part.buried>
-6.3344

> <Gold.PLP.part.nonpolar>
-22.9759

> <Gold.PLP.part.repulsive>
0.1608

> <Gold.PLP.ligand.clash>
0.0000

> <Gold.PLP.ligand.torsion>
1.4653

> <Gold.PLP.Chemscore.Hbond>
3.8320

> <Gold.PLP.Chemscore.CHOScore>
0.0000

> <Gold.PLP.Chemscore.Metal>
0.0000

> <Gold.Chemscore.Hbonds>
donor molecule, donor type, donor heavy atom, donor atom, acceptor molecule, acceptor atom, score
      P1  H  7989  7998       L1     1  1.00
      P1  H  7997  8008       L1     4  2.00
      P1  H 10752 10763       L1     3  0.69

> <Gold.PLP.Chemscore.Internal.Correction>
1.5250

> <Gold.Rescore>
     Score         DG    S(hbond)    S(metal)    S(lipo)     H(rot)  DE(clash)    DE(int)     intcor
     17.45     -19.06       2.39        0.00      81.96       1.56       0.00       1.60       ----

> <Gold.Chemscore.Fitness>
17.4534

> <Gold.Chemscore.DG>
-19.0554

> <Gold.Chemscore.ZeroCoef>
-5.4800

> <Gold.Chemscore.Hbond>
2.3914

> <Gold.Chemscore.Metal>
0.0000

> <Gold.Chemscore.Lipo>
81.9591

> <Gold.Chemscore.Internal_Hbond>
0.0000

> <Gold.Chemscore.DEClash>
0.0038

> <Gold.Chemscore.DEInternal>
1.5981

> <Gold.Chemscore.Rot>
1.5630

> <Gold.Chemscore.Internal.Correction>
   9.000000E+99

> <Gold.Chemscore.Hbonds>
donor molecule, donor type, donor heavy atom, donor atom, acceptor molecule, acceptor atom, score
      P1  H  7989  7998       L1     1  1.00
      P1  H  7997  8008       L1     4  0.39
      P1  H 10752 10763       L1     3  0.66

> <Gold.Chemscore.Hbond.Weighted>
-7.9874

> <Gold.Chemscore.Metal.Weighted>
-0.0000

> <Gold.Chemscore.Lipo.Weighted>
-9.5892

> <Gold.Chemscore.Internal_Hbond.Weighted>
0.0000

> <Gold.Chemscore.DEClash.Weighted>
0.0038

> <Gold.Chemscore.DEInternal.Weighted>
1.5981

> <Gold.Chemscore.Rot.Weighted>
4.0013

> <Gold.Chemscore.Internal.Correction.Weighted>
   9.000000E+99

> <Gold.Protein.RotatedTorsions>
[ 6907 6896 6895 6894 ] final   98.89 input  -60.11 | X-H torsion
[ 7974 7965 7964 7962 ] final  100.01 input  175.53 | X-H torsion
[ 8008 7997 7996 7995 ] final  -33.65 input   59.86 | X-H torsion
[ 10167 10162 10161 10158 ] final   -1.63 input  -65.29 | X-H torsion
[ 10718 10713 10712 10709 ] final  -59.47 input   66.30 | X-H torsion
[ 10763 10752 10751 10750 ] final   50.90 input  -60.55 | X-H torsion
[ 11005 11000 10999 10996 ] final -101.40 input  -57.11 | X-H torsion

> <Gold.Protein.ActiveResidues>
 VAL166  LYS551  ARG553  GLY616  TRP617  ASP618  TYR619  PRO620  LYS621  CYS622 
 ASP623  PHE694  ASN695  SER759  ASP760  ASP761  ALA762  ILE779  LEU786  VAL792 
 PHE793  MET794  SER795  GLU796  ALA797  LYS798  CYS799  TRP800  GLU811  SER814 

> <Gold.Protein.RotatedAtoms>
  152.5401  134.0511  159.8110 H   0  0  0  0  0  0  0  0  0  0  0  0  # atno 6907 bound_to 6896
  151.0653  133.5503  159.2638 H   0  0  0  0  0  0  0  0  0  0  0  0  # atno 6908 bound_to 6896
  151.2386  135.0589  159.9070 H   0  0  0  0  0  0  0  0  0  0  0  0  # atno 6909 bound_to 6896
  145.3913  139.2362  143.3350 H   0  0  0  0  0  0  0  0  0  0  0  0  # atno 7974 bound_to 7965
  154.4143  140.1705  156.1922 H   0  0  0  0  0  0  0  0  0  0  0  0  # atno 8008 bound_to 7997
  155.9593  140.3395  155.6453 H   0  0  0  0  0  0  0  0  0  0  0  0  # atno 8009 bound_to 7997
  155.6769  140.0718  157.2490 H   0  0  0  0  0  0  0  0  0  0  0  0  # atno 8010 bound_to 7997
  140.6818  143.6752  150.8151 H   0  0  0  0  0  0  0  0  0  0  0  0  # atno 10167 bound_to 10162
  156.1059  130.4180  150.0719 H   0  0  0  0  0  0  0  0  0  0  0  0  # atno 10718 bound_to 10713
  152.9784  135.5863  154.4328 H   0  0  0  0  0  0  0  0  0  0  0  0  # atno 10763 bound_to 10752
  154.3939  135.2768  155.2140 H   0  0  0  0  0  0  0  0  0  0  0  0  # atno 10764 bound_to 10752
  154.4000  135.6105  153.5946 H   0  0  0  0  0  0  0  0  0  0  0  0  # atno 10765 bound_to 10752
  141.1232  133.8475  157.1227 H   0  0  0  0  0  0  0  0  0  0  0  0  # atno 11005 bound_to 11000
  146.2796  140.4596  142.8781 LP  0  0  0  0  0  0  0  0  0  0  0  0  # atno 17320 bound_to 7965
  144.8438  140.6898  143.6212 LP  0  0  0  0  0  0  0  0  0  0  0  0  # atno 17321 bound_to 7965
  140.0454  143.5304  152.2699 LP  0  0  0  0  0  0  0  0  0  0  0  0  # atno 17342 bound_to 10162
  139.6146  144.7616  151.2875 LP  0  0  0  0  0  0  0  0  0  0  0  0  # atno 17343 bound_to 10162
  156.8695  130.9519  151.3610 LP  0  0  0  0  0  0  0  0  0  0  0  0  # atno 17370 bound_to 10713
  157.6236  130.8674  149.9151 LP  0  0  0  0  0  0  0  0  0  0  0  0  # atno 17371 bound_to 10713
  140.0207  134.9947  157.0586 LP  0  0  0  0  0  0  0  0  0  0  0  0  # atno 17394 bound_to 11000
  140.4444  134.1647  155.7176 LP  0  0  0  0  0  0  0  0  0  0  0  0  # atno 17395 bound_to 11000

$$$$
