AV-unprocessed.smi:753|AV-procd|sdf|3599|dock1
  -GOLD-   22720 0593D 1   1.00000     0.00000
 Structure written by MMmdl.
 43 45  0  0  0  0  0  0  0  0  1 V2000
  155.2196  140.0970  161.2513 C   0  0  0  0  0  0  0  0  0  0  0  0
  154.1266  140.9759  160.6797 C   0  0  0  0  0  0  0  0  0  0  0  0
  153.6000  142.0526  161.4241 C   0  0  0  0  0  0  0  0  0  0  0  0
  152.5810  142.8333  160.8454 C   0  0  0  0  0  0  0  0  0  0  0  0
  152.1304  142.5099  159.5492 C   0  0  0  0  0  0  0  0  0  0  0  0
  151.0296  143.3137  158.8860 C   0  0  0  0  0  0  0  0  0  0  0  0
  150.5890  144.5068  159.7488 C   0  0  0  0  0  0  0  0  0  0  0  0
  149.2001  144.8663  159.4931 N   0  0  0  0  0  0  0  0  0  0  0  0
  148.1969  144.7529  160.3797 C   0  0  0  0  0  0  0  0  0  0  0  0
  148.3454  144.3177  161.5201 O   0  0  0  0  0  0  0  0  0  0  0  0
  146.9984  145.1599  159.9258 N   0  0  0  0  0  0  0  0  0  0  0  0
  145.7203  145.1640  160.6407 C   0  0  2  0  0  0  0  0  0  0  0  0
  145.6162  144.0437  161.7028 C   0  0  0  0  0  0  0  0  0  0  0  0
  144.3686  143.2605  161.2542 C   0  0  1  0  0  0  0  0  0  0  0  0
  143.1109  144.1223  161.4782 C   0  0  0  0  0  0  0  0  0  0  0  0
  143.2274  145.1918  160.3739 C   0  0  0  0  0  0  0  0  0  0  0  0
  144.5549  144.8211  159.6870 C   0  0  2  0  0  0  0  0  0  0  0  0
  144.5091  143.2965  159.7386 C   0  0  0  0  0  0  0  0  0  0  0  0
  152.7240  141.4131  158.8894 C   0  0  0  0  0  0  0  0  0  0  0  0
  153.7007  140.6582  159.4370 N   0  0  0  0  0  0  0  0  0  0  0  0
  155.5401  140.4509  162.2316 H   0  0  0  0  0  0  0  0  0  0  0  0
  156.0878  140.0921  160.5918 H   0  0  0  0  0  0  0  0  0  0  0  0
  154.8635  139.0721  161.3593 H   0  0  0  0  0  0  0  0  0  0  0  0
  153.9638  142.2764  162.4162 H   0  0  0  0  0  0  0  0  0  0  0  0
  152.1534  143.6627  161.3893 H   0  0  0  0  0  0  0  0  0  0  0  0
  151.3806  143.6598  157.9127 H   0  0  0  0  0  0  0  0  0  0  0  0
  150.1804  142.6573  158.6909 H   0  0  0  0  0  0  0  0  0  0  0  0
  150.6830  144.2566  160.8059 H   0  0  0  0  0  0  0  0  0  0  0  0
  151.2379  145.3669  159.5740 H   0  0  0  0  0  0  0  0  0  0  0  0
  148.9846  145.2352  158.5785 H   0  0  0  0  0  0  0  0  0  0  0  0
  146.9698  145.5025  158.9764 H   0  0  0  0  0  0  0  0  0  0  0  0
  145.5615  146.1485  161.0849 H   0  0  0  0  0  0  0  0  0  0  0  0
  146.4940  143.3953  161.6912 H   0  0  0  0  0  0  0  0  0  0  0  0
  145.5140  144.4409  162.7133 H   0  0  0  0  0  0  0  0  0  0  0  0
  144.2996  142.2624  161.6878 H   0  0  0  0  0  0  0  0  0  0  0  0
  142.2043  143.5306  161.3443 H   0  0  0  0  0  0  0  0  0  0  0  0
  143.0823  144.5572  162.4779 H   0  0  0  0  0  0  0  0  0  0  0  0
  142.3940  145.1116  159.6747 H   0  0  0  0  0  0  0  0  0  0  0  0
  143.2308  146.2067  160.7732 H   0  0  0  0  0  0  0  0  0  0  0  0
  144.6558  145.2476  158.6880 H   0  0  0  0  0  0  0  0  0  0  0  0
  145.4222  142.8208  159.3767 H   0  0  0  0  0  0  0  0  0  0  0  0
  143.6518  142.8709  159.2138 H   0  0  0  0  0  0  0  0  0  0  0  0
  152.4033  141.1304  157.8974 H   0  0  0  0  0  0  0  0  0  0  0  0
  1  2  1  0  0  0  0
  1 21  1  0  0  0  0
  1 22  1  0  0  0  0
  1 23  1  0  0  0  0
  2 20  1  0  0  0  0
  2  3  2  0  0  0  0
  3  4  1  0  0  0  0
  3 24  1  0  0  0  0
  4  5  2  0  0  0  0
  4 25  1  0  0  0  0
  5  6  1  0  0  0  0
  5 19  1  0  0  0  0
  6  7  1  0  0  0  0
  6 26  1  0  0  0  0
  6 27  1  0  0  0  0
  7  8  1  0  0  0  0
  7 28  1  0  0  0  0
  7 29  1  0  0  0  0
  8  9  1  0  0  0  0
  8 30  1  0  0  0  0
  9 10  2  0  0  0  0
  9 11  1  0  0  0  0
 11 12  1  0  0  0  0
 11 31  1  0  0  0  0
 12 17  1  0  0  0  0
 12 13  1  0  0  0  0
 12 32  1  0  0  0  0
 13 14  1  0  0  0  0
 13 33  1  0  0  0  0
 13 34  1  0  0  0  0
 14 18  1  0  0  0  0
 14 15  1  0  0  0  0
 14 35  1  0  0  0  0
 15 16  1  0  0  0  0
 15 36  1  0  0  0  0
 15 37  1  0  0  0  0
 16 17  1  0  0  0  0
 16 38  1  0  0  0  0
 16 39  1  0  0  0  0
 17 18  1  0  0  0  0
 17 40  1  0  0  0  0
 18 41  1  0  0  0  0
 18 42  1  0  0  0  0
 19 20  2  0  0  0  0
 19 43  1  0  0  0  0
M  END
> <s_m_source_file>
AV-unprocessed.smi

> <i_m_source_file_index>
753

> <i_lp_mmshare_version>
43012

> <i_f3d_flags>
0

> <s_epik_input>
W0NIM11jMVtjSF1bY0hdYyhbY0hdbjEpW0NIMl1bQ0gyXVtOSF1DKD1PKVtOSF1bQ0BIXShbQ0gyXVtDQEBIXTIzKVtDQEBIXShbQ0gyXTMpW0NIMl1bQ0gyXTI=

> <s_epik_cmdline>
J2VwaWtfcHl0aG9uJywgJy1waCcsICc3LjAnLCAnLXRuJywgJzgnLCAnLW1hJywgJzIwMCcsICctbWV0YWxfYmluZGluZycsICctaW1hZScsICc8aW5maWxlLm1hZT4nLCAnLW9tYWUnLCAnPG91dGZpbGUubWFlPic=

> <r_epik_Ionization_Penalty>
0.0569047

> <r_epik_Ionization_Penalty_Charging>
0

> <r_epik_Ionization_Penalty_Neutral>
0.0569047

> <r_epik_State_Penalty>
0.0490541

> <r_epik_Charging_Adjusted_Penalty>
0.0490541

> <i_epik_Tot_Q>
0

> <i_epik_Tot_abs_Q>
0

> <r_epik_Metal_State_Penalty>
0.0447357

> <b_epik_Metal_Only>
0

> <s_lp_Force_Field>
OPLS_2005

> <r_lp_Energy>
50.812

> <b_lp_Chiralities_Consistent>
1

> <s_lp_Variant>
AV-unprocessed.smi:753-1

> <Gold.Version>
5.8.1

> <Gold.Id.Protein>
6NUR|6NUR_protein|mol2

> <Gold.PLP.Fitness>
47.7582

> <Gold.PLP.PLP>
-40.1289

> <Gold.PLP.part.hbond>
-3.0000

> <Gold.PLP.part.metal>
0.0000

> <Gold.PLP.part.buried>
-7.8069

> <Gold.PLP.part.nonpolar>
-30.3905

> <Gold.PLP.part.repulsive>
0.4757

> <Gold.PLP.ligand.clash>
0.0360

> <Gold.PLP.ligand.torsion>
0.5545

> <Gold.PLP.Chemscore.Hbond>
2.8960

> <Gold.PLP.Chemscore.CHOScore>
0.0000

> <Gold.PLP.Chemscore.Metal>
0.0000

> <Gold.Chemscore.Hbonds>
donor molecule, donor type, donor heavy atom, donor atom, acceptor molecule, acceptor atom, score
      L1  H     8    30       P1  8029  1.00
      L1  H    11    31       P1  8029  1.00
      P1  H  6933  6944       L1    10  0.88

> <Gold.PLP.Chemscore.Internal.Correction>
0.0862

> <Gold.Rescore>
     Score         DG    S(hbond)    S(metal)    S(lipo)     H(rot)  DE(clash)    DE(int)     intcor
     22.75     -24.79       2.88        0.00     114.07       1.43       0.10       1.95       ----

> <Gold.Chemscore.Fitness>
22.7469

> <Gold.Chemscore.DG>
-24.7901

> <Gold.Chemscore.ZeroCoef>
-5.4800

> <Gold.Chemscore.Hbond>
2.8809

> <Gold.Chemscore.Metal>
0.0000

> <Gold.Chemscore.Lipo>
114.0725

> <Gold.Chemscore.Internal_Hbond>
0.0000

> <Gold.Chemscore.DEClash>
0.0961

> <Gold.Chemscore.DEInternal>
1.9471

> <Gold.Chemscore.Rot>
1.4291

> <Gold.Chemscore.Internal.Correction>
   9.000000E+99

> <Gold.Chemscore.Hbonds>
donor molecule, donor type, donor heavy atom, donor atom, acceptor molecule, acceptor atom, score
      L1  H     8    30       P1  8029  0.95
      L1  H    11    31       P1  8029  0.95
      P1  H  6933  6944       L1    10  0.64

> <Gold.Chemscore.Hbond.Weighted>
-9.6221

> <Gold.Chemscore.Metal.Weighted>
-0.0000

> <Gold.Chemscore.Lipo.Weighted>
-13.3465

> <Gold.Chemscore.Internal_Hbond.Weighted>
0.0000

> <Gold.Chemscore.DEClash.Weighted>
0.0961

> <Gold.Chemscore.DEInternal.Weighted>
1.9471

> <Gold.Chemscore.Rot.Weighted>
3.6585

> <Gold.Chemscore.Internal.Correction.Weighted>
   9.000000E+99

> <Gold.Protein.RotatedTorsions>
[ 6907 6896 6895 6894 ] final -167.08 input  -60.11 | X-H torsion
[ 7974 7965 7964 7962 ] final   19.09 input  175.53 | X-H torsion
[ 8008 7997 7996 7995 ] final  121.71 input   59.86 | X-H torsion
[ 10167 10162 10161 10158 ] final   97.73 input  -65.29 | X-H torsion
[ 10718 10713 10712 10709 ] final  -78.84 input   66.30 | X-H torsion
[ 10763 10752 10751 10750 ] final  125.18 input  -60.55 | X-H torsion
[ 11005 11000 10999 10996 ] final   64.51 input  -57.11 | X-H torsion

> <Gold.Protein.ActiveResidues>
 VAL166  LYS551  ARG553  GLY616  TRP617  ASP618  TYR619  PRO620  LYS621  CYS622 
 ASP623  PHE694  ASN695  SER759  ASP760  ASP761  ALA762  ILE779  LEU786  VAL792 
 PHE793  MET794  SER795  GLU796  ALA797  LYS798  CYS799  TRP800  GLU811  SER814 

> <Gold.Protein.RotatedAtoms>
  151.4538  133.3610  159.2798 H   0  0  0  0  0  0  0  0  0  0  0  0  # atno 6907 bound_to 6896
  150.9073  134.8490  159.7412 H   0  0  0  0  0  0  0  0  0  0  0  0  # atno 6908 bound_to 6896
  152.4913  134.4464  159.9612 H   0  0  0  0  0  0  0  0  0  0  0  0  # atno 6909 bound_to 6896
  146.2162  139.8364  142.8650 H   0  0  0  0  0  0  0  0  0  0  0  0  # atno 7974 bound_to 7965
  156.2698  140.2802  156.1351 H   0  0  0  0  0  0  0  0  0  0  0  0  # atno 8008 bound_to 7997
  155.1013  140.0389  157.2715 H   0  0  0  0  0  0  0  0  0  0  0  0  # atno 8009 bound_to 7997
  154.6813  140.2609  155.6911 H   0  0  0  0  0  0  0  0  0  0  0  0  # atno 8010 bound_to 7997
  139.7774  144.6901  151.0070 H   0  0  0  0  0  0  0  0  0  0  0  0  # atno 10167 bound_to 10162
  156.0107  130.4529  150.3558 H   0  0  0  0  0  0  0  0  0  0  0  0  # atno 10718 bound_to 10713
  153.6732  135.3327  155.3159 H   0  0  0  0  0  0  0  0  0  0  0  0  # atno 10763 bound_to 10752
  154.8485  135.4391  154.1683 H   0  0  0  0  0  0  0  0  0  0  0  0  # atno 10764 bound_to 10752
  153.2680  135.6997  153.7586 H   0  0  0  0  0  0  0  0  0  0  0  0  # atno 10765 bound_to 10752
  139.9954  134.6526  156.0019 H   0  0  0  0  0  0  0  0  0  0  0  0  # atno 11005 bound_to 11000
  145.2944  141.0176  143.3644 LP  0  0  0  0  0  0  0  0  0  0  0  0  # atno 17320 bound_to 7965
  144.9053  139.4597  143.6613 LP  0  0  0  0  0  0  0  0  0  0  0  0  # atno 17321 bound_to 7965
  140.7817  143.4520  151.0399 LP  0  0  0  0  0  0  0  0  0  0  0  0  # atno 17342 bound_to 10162
  139.8202  143.7830  152.3176 LP  0  0  0  0  0  0  0  0  0  0  0  0  # atno 17343 bound_to 10162
  157.1648  131.0354  151.2823 LP  0  0  0  0  0  0  0  0  0  0  0  0  # atno 17370 bound_to 10713
  157.4280  130.7474  149.6966 LP  0  0  0  0  0  0  0  0  0  0  0  0  # atno 17371 bound_to 10713
  141.1600  133.6539  156.4287 LP  0  0  0  0  0  0  0  0  0  0  0  0  # atno 17394 bound_to 11000
  140.4828  134.6648  157.5178 LP  0  0  0  0  0  0  0  0  0  0  0  0  # atno 17395 bound_to 11000

$$$$
