AV-unprocessed.smi:12|AV-procd|sdf|62|dock3
  -GOLD-   2262015183D 1   1.00000     0.00000
 Structure written by MMmdl.
 41 44  0  0  0  0  0  0  0  0  1 V2000
  146.6187  142.4155  154.7068 C   0  0  0  0  0  0  0  0  0  0  0  0
  147.5464  141.2188  154.5981 C   0  0  0  0  0  0  0  0  0  0  0  0
  148.8886  141.3439  154.7259 C   0  0  0  0  0  0  0  0  0  0  0  0
  149.6785  140.2329  154.6253 N   0  0  0  0  0  0  0  0  0  0  0  0
  149.0894  138.9765  154.3790 C   0  0  0  0  0  0  0  0  0  0  0  0
  147.8156  138.7728  154.2458 N   0  0  0  0  0  0  0  0  0  0  0  0
  146.9530  139.8810  154.3482 C   0  0  0  0  0  0  0  0  0  0  0  0
  145.7368  139.7385  154.2305 O   0  0  0  0  0  0  0  0  0  0  0  0
  150.0738  138.0412  154.3014 O   0  0  0  0  0  0  0  0  0  0  0  0
  151.3652  138.6634  154.4223 C   0  0  2  0  0  0  0  0  0  0  0  0
  152.1163  138.2023  155.6640 C   0  0  2  0  0  0  0  0  0  0  0  0
  151.9653  136.8158  155.8934 O   0  0  0  0  0  0  0  0  0  0  0  0
  151.5493  139.1066  156.7580 C   0  0  1  0  0  0  0  0  0  0  0  0
  152.4381  139.2397  158.0011 C   0  0  0  0  0  0  0  0  0  0  0  0
  152.2931  140.5397  158.5497 O   0  0  0  0  0  0  0  0  0  0  0  0
  152.9302  140.8676  159.6904 C   0  0  0  0  0  0  0  0  0  0  0  0
  153.6727  140.0974  160.3027 O   0  0  0  0  0  0  0  0  0  0  0  0
  152.6418  142.2620  160.1349 C   0  0  0  0  0  0  0  0  0  0  0  0
  152.6523  142.5649  161.5167 C   0  0  0  0  0  0  0  0  0  0  0  0
  152.3836  143.8721  161.9668 C   0  0  0  0  0  0  0  0  0  0  0  0
  152.1003  144.8925  161.0405 C   0  0  0  0  0  0  0  0  0  0  0  0
  152.0864  144.6043  159.6634 C   0  0  0  0  0  0  0  0  0  0  0  0
  152.3553  143.2977  159.2111 C   0  0  0  0  0  0  0  0  0  0  0  0
  151.4839  140.3583  156.0801 O   0  0  0  0  0  0  0  0  0  0  0  0
  151.1373  140.1584  154.7385 C   0  0  2  0  0  0  0  0  0  0  0  0
  147.1760  143.3350  154.8881 H   0  0  0  0  0  0  0  0  0  0  0  0
  145.9163  142.2786  155.5296 H   0  0  0  0  0  0  0  0  0  0  0  0
  146.0502  142.5425  153.7851 H   0  0  0  0  0  0  0  0  0  0  0  0
  149.3434  142.3061  154.9111 H   0  0  0  0  0  0  0  0  0  0  0  0
  151.9416  138.5408  153.5046 H   0  0  0  0  0  0  0  0  0  0  0  0
  153.1783  138.4175  155.5355 H   0  0  0  0  0  0  0  0  0  0  0  0
  151.1328  136.6700  156.3165 H   0  0  0  0  0  0  0  0  0  0  0  0
  150.5394  138.8005  157.0368 H   0  0  0  0  0  0  0  0  0  0  0  0
  152.1727  138.4833  158.7411 H   0  0  0  0  0  0  0  0  0  0  0  0
  153.4822  139.0800  157.7285 H   0  0  0  0  0  0  0  0  0  0  0  0
  152.8672  141.7980  162.2469 H   0  0  0  0  0  0  0  0  0  0  0  0
  152.3950  144.0917  163.0242 H   0  0  0  0  0  0  0  0  0  0  0  0
  151.8940  145.8948  161.3862 H   0  0  0  0  0  0  0  0  0  0  0  0
  151.8691  145.3869  158.9516 H   0  0  0  0  0  0  0  0  0  0  0  0
  152.3362  143.1116  158.1470 H   0  0  0  0  0  0  0  0  0  0  0  0
  151.5414  140.8815  154.0294 H   0  0  0  0  0  0  0  0  0  0  0  0
  1  2  1  0  0  0  0
  1 26  1  0  0  0  0
  1 27  1  0  0  0  0
  1 28  1  0  0  0  0
  2  7  1  0  0  0  0
  2  3  2  0  0  0  0
  3  4  1  0  0  0  0
  3 29  1  0  0  0  0
  4 25  1  0  0  0  0
  4  5  1  0  0  0  0
  5  6  2  0  0  0  0
  5  9  1  0  0  0  0
  6  7  1  0  0  0  0
  7  8  2  0  0  0  0
  9 10  1  0  0  0  0
 10 25  1  0  0  0  0
 10 11  1  0  0  0  0
 10 30  1  0  0  0  0
 11 12  1  0  0  0  0
 11 13  1  0  0  0  0
 11 31  1  0  0  0  0
 12 32  1  0  0  0  0
 13 14  1  0  0  0  0
 13 24  1  0  0  0  0
 13 33  1  0  0  0  0
 14 15  1  0  0  0  0
 14 34  1  0  0  0  0
 14 35  1  0  0  0  0
 15 16  1  0  0  0  0
 16 17  2  0  0  0  0
 16 18  1  0  0  0  0
 18 23  1  0  0  0  0
 18 19  2  0  0  0  0
 19 20  1  0  0  0  0
 19 36  1  0  0  0  0
 20 21  2  0  0  0  0
 20 37  1  0  0  0  0
 21 22  1  0  0  0  0
 21 38  1  0  0  0  0
 22 23  2  0  0  0  0
 22 39  1  0  0  0  0
 23 40  1  0  0  0  0
 24 25  1  0  0  0  0
 25 41  1  0  0  0  0
M  END
> <s_m_source_file>
AV-unprocessed.smi

> <i_m_source_file_index>
12

> <i_lp_mmshare_version>
43012

> <i_f3d_flags>
0

> <s_epik_input>
W0NIM11jKFtjSF0xKWMoPU8pbmMobjEyKU9bQ0BIXTNbQ0BASF0yT1tDQEBIXShbQ0BASF0zW09IXSlbQ0gyXU9DKD1PKWM0W2NIXVtjSF1bY0hdW2NIXVtjSF00

> <s_epik_cmdline>
J2VwaWtfcHl0aG9uJywgJy1waCcsICc3LjAnLCAnLXRuJywgJzgnLCAnLW1hJywgJzIwMCcsICctbWV0YWxfYmluZGluZycsICctaW1hZScsICc8aW5maWxlLm1hZT4nLCAnLW9tYWUnLCAnPG91dGZpbGUubWFlPic=

> <r_lp_tautomer_probability>
0.933681

> <r_epik_Ionization_Penalty>
0.00399549

> <r_epik_Ionization_Penalty_Charging>
3.09373e-09

> <r_epik_Ionization_Penalty_Neutral>
0.00399549

> <r_epik_State_Penalty>
0.00284953

> <r_epik_Charging_Adjusted_Penalty>
0.00284953

> <i_epik_Tot_Q>
0

> <i_epik_Tot_abs_Q>
0

> <r_epik_Metal_State_Penalty>
-0

> <b_epik_Metal_Only>
0

> <s_epik_Chemistry_Notes>
This compound has an ester and may undergo hydrolysis at high or low pH. This compound contains an acetal/aminal-like group ( X-CH(R)-Y where X, Y are N, S, or O) that may be acid/base labile, releasing an aldehyde.

> <s_lp_Force_Field>
OPLS_2005

> <r_lp_Energy>
46.3609

> <b_lp_Chiralities_Consistent>
1

> <s_lp_Variant>
AV-unprocessed.smi:12-2

> <Gold.Version>
5.8.1

> <Gold.Id.Protein>
6NUR|6NUR_protein|mol2

> <Gold.PLP.Fitness>
50.7079

> <Gold.PLP.PLP>
-46.3636

> <Gold.PLP.part.hbond>
-1.0000

> <Gold.PLP.part.metal>
0.0000

> <Gold.PLP.part.buried>
-3.1413

> <Gold.PLP.part.nonpolar>
-43.1392

> <Gold.PLP.part.repulsive>
2.2554

> <Gold.PLP.ligand.clash>
0.0000

> <Gold.PLP.ligand.torsion>
0.7587

> <Gold.PLP.Chemscore.Hbond>
1.0000

> <Gold.PLP.Chemscore.CHOScore>
0.9439

> <Gold.PLP.Chemscore.Metal>
0.0000

> <Gold.Chemscore.Hbonds>
donor molecule, donor type, donor heavy atom, donor atom, acceptor molecule, acceptor atom, score
      P1  H 10752 10765       L1    12  1.00
      L1  C     3    29       P1  8028  0.93

> <Gold.PLP.Chemscore.Internal.Correction>
0.0299

> <Gold.Rescore>
     Score         DG    S(hbond)    S(metal)    S(lipo)     H(rot)  DE(clash)    DE(int)     intcor
     14.69     -16.83       0.94        0.00     117.72       2.18       1.58       0.55       ----

> <Gold.Chemscore.Fitness>
14.6914

> <Gold.Chemscore.DG>
-16.8261

> <Gold.Chemscore.ZeroCoef>
-5.4800

> <Gold.Chemscore.Hbond>
0.9441

> <Gold.Chemscore.Metal>
0.0000

> <Gold.Chemscore.Lipo>
117.7214

> <Gold.Chemscore.Internal_Hbond>
0.0000

> <Gold.Chemscore.DEClash>
1.5802

> <Gold.Chemscore.DEInternal>
0.5544

> <Gold.Chemscore.Rot>
2.1800

> <Gold.Chemscore.Internal.Correction>
   9.000000E+99

> <Gold.Chemscore.Hbonds>
donor molecule, donor type, donor heavy atom, donor atom, acceptor molecule, acceptor atom, score
      P1  H 10752 10765       L1    12  0.95

> <Gold.Chemscore.Hbond.Weighted>
-3.1534

> <Gold.Chemscore.Metal.Weighted>
-0.0000

> <Gold.Chemscore.Lipo.Weighted>
-13.7734

> <Gold.Chemscore.Internal_Hbond.Weighted>
0.0000

> <Gold.Chemscore.DEClash.Weighted>
1.5802

> <Gold.Chemscore.DEInternal.Weighted>
0.5544

> <Gold.Chemscore.Rot.Weighted>
5.5807

> <Gold.Chemscore.Internal.Correction.Weighted>
   9.000000E+99

> <Gold.Protein.RotatedTorsions>
[ 6907 6896 6895 6894 ] final  106.35 input  -60.11 | X-H torsion
[ 7974 7965 7964 7962 ] final   29.15 input  175.53 | X-H torsion
[ 8008 7997 7996 7995 ] final  -84.75 input   59.86 | X-H torsion
[ 10167 10162 10161 10158 ] final  -80.89 input  -65.29 | X-H torsion
[ 10718 10713 10712 10709 ] final  -45.92 input   66.30 | X-H torsion
[ 10763 10752 10751 10750 ] final -152.50 input  -60.55 | X-H torsion
[ 11005 11000 10999 10996 ] final   17.15 input  -57.11 | X-H torsion

> <Gold.Protein.ActiveResidues>
 VAL166  LYS551  ARG553  GLY616  TRP617  ASP618  TYR619  PRO620  LYS621  CYS622 
 ASP623  PHE694  ASN695  SER759  ASP760  ASP761  ALA762  ILE779  LEU786  VAL792 
 PHE793  MET794  SER795  GLU796  ALA797  LYS798  CYS799  TRP800  GLU811  SER814 

> <Gold.Protein.RotatedAtoms>
  152.5197  133.9394  159.7618 H   0  0  0  0  0  0  0  0  0  0  0  0  # atno 6907 bound_to 6896
  150.9727  133.6319  159.2742 H   0  0  0  0  0  0  0  0  0  0  0  0  # atno 6908 bound_to 6896
  151.3524  135.0893  159.9460 H   0  0  0  0  0  0  0  0  0  0  0  0  # atno 6909 bound_to 6896
  146.1688  139.6960  142.8982 H   0  0  0  0  0  0  0  0  0  0  0  0  # atno 7974 bound_to 7965
  154.6332  140.0601  156.9757 H   0  0  0  0  0  0  0  0  0  0  0  0  # atno 8008 bound_to 7997
  155.1632  140.3284  155.4389 H   0  0  0  0  0  0  0  0  0  0  0  0  # atno 8009 bound_to 7997
  156.2494  140.1927  156.6738 H   0  0  0  0  0  0  0  0  0  0  0  0  # atno 8010 bound_to 7997
  140.4461  143.2498  151.8556 H   0  0  0  0  0  0  0  0  0  0  0  0  # atno 10167 bound_to 10162
  156.2235  130.4167  149.8963 H   0  0  0  0  0  0  0  0  0  0  0  0  # atno 10718 bound_to 10713
  154.7990  135.3235  154.7597 H   0  0  0  0  0  0  0  0  0  0  0  0  # atno 10763 bound_to 10752
  153.8269  135.6883  153.4824 H   0  0  0  0  0  0  0  0  0  0  0  0  # atno 10764 bound_to 10752
  153.1696  135.4628  154.9827 H   0  0  0  0  0  0  0  0  0  0  0  0  # atno 10765 bound_to 10752
  140.4392  134.1340  155.7688 H   0  0  0  0  0  0  0  0  0  0  0  0  # atno 11005 bound_to 11000
  145.4396  141.0421  143.2865 LP  0  0  0  0  0  0  0  0  0  0  0  0  # atno 17320 bound_to 7965
  144.8132  139.5924  143.7020 LP  0  0  0  0  0  0  0  0  0  0  0  0  # atno 17321 bound_to 7965
  139.4793  144.5173  151.8850 LP  0  0  0  0  0  0  0  0  0  0  0  0  # atno 17342 bound_to 10162
  140.4261  144.2178  150.5887 LP  0  0  0  0  0  0  0  0  0  0  0  0  # atno 17343 bound_to 10162
  156.6601  130.8779  151.3546 LP  0  0  0  0  0  0  0  0  0  0  0  0  # atno 17370 bound_to 10713
  157.7099  130.9428  150.1054 LP  0  0  0  0  0  0  0  0  0  0  0  0  # atno 17371 bound_to 10713
  141.1713  133.8603  157.1562 LP  0  0  0  0  0  0  0  0  0  0  0  0  # atno 17394 bound_to 11000
  140.0082  134.9999  157.0337 LP  0  0  0  0  0  0  0  0  0  0  0  0  # atno 17395 bound_to 11000

$$$$
