AV-unprocessed.smi:1626|AV-procd|sdf|6511|dock6
  -GOLD-   22720 7183D 1   1.00000     0.00000
 Structure written by MMmdl.
 49 51  0  0  0  0  0  0  0  0  3 V2000
  152.5152  144.0141  159.9768 C   0  0  0  0  0  0  0  0  0  0  0  0
  152.1551  142.9444  158.9595 C   0  0  0  0  0  0  0  0  0  0  0  0
  151.2428  143.2719  157.9309 C   0  0  0  0  0  0  0  0  0  0  0  0
  150.9347  142.2733  157.0148 C   0  0  0  0  0  0  0  0  0  0  0  0
  150.0882  142.2790  155.9039 N   0  3  0  0  0  0  0  0  0  0  0  0
  150.1159  141.0562  155.3049 C   0  0  0  0  0  0  0  0  0  0  0  0
  150.9615  140.2671  156.0228 N   0  0  0  0  0  0  0  0  0  0  0  0
  151.3546  138.8671  155.8127 C   0  0  0  0  0  0  0  0  0  0  0  0
  150.6947  138.2342  154.5716 C   0  0  1  0  0  0  0  0  0  0  0  0
  151.6704  137.5151  153.8419 O   0  0  0  0  0  0  0  0  0  0  0  0
  149.5593  137.2676  154.9631 C   0  0  0  0  0  0  0  0  0  0  0  0
  148.3261  137.4824  154.1630 N   0  3  2  0  0  0  0  0  0  0  0  0
  147.9796  138.9186  153.9875 C   0  0  0  0  0  0  0  0  0  0  0  0
  146.7821  139.0869  153.0374 C   0  0  0  0  0  0  0  0  0  0  0  0
  145.5679  138.2940  153.5429 C   0  0  1  0  0  0  0  0  0  0  0  0
  144.5155  138.3810  152.6063 O   0  0  0  0  0  0  0  0  0  0  0  0
  145.9559  136.8223  153.7473 C   0  0  0  0  0  0  0  0  0  0  0  0
  147.1724  136.7008  154.6802 C   0  0  0  0  0  0  0  0  0  0  0  0
  151.4990  140.9855  157.0960 C   0  0  0  0  0  0  0  0  0  0  0  0
  152.3990  140.6454  158.1027 C   0  0  0  0  0  0  0  0  0  0  0  0
  152.7253  141.6476  159.0446 C   0  0  0  0  0  0  0  0  0  0  0  0
  153.7058  141.3073  160.1541 C   0  0  0  0  0  0  0  0  0  0  0  0
  152.0146  144.9576  159.7577 H   0  0  0  0  0  0  0  0  0  0  0  0
  153.5895  144.2000  159.9744 H   0  0  0  0  0  0  0  0  0  0  0  0
  152.2190  143.7042  160.9793 H   0  0  0  0  0  0  0  0  0  0  0  0
  150.8057  144.2574  157.8592 H   0  0  0  0  0  0  0  0  0  0  0  0
  149.5648  140.7653  154.4219 H   0  0  0  0  0  0  0  0  0  0  0  0
  152.4413  138.8462  155.7161 H   0  0  0  0  0  0  0  0  0  0  0  0
  151.1140  138.3023  156.7142 H   0  0  0  0  0  0  0  0  0  0  0  0
  150.3144  139.0301  153.9323 H   0  0  0  0  0  0  0  0  0  0  0  0
  151.4927  137.6188  152.9190 H   0  0  0  0  0  0  0  0  0  0  0  0
  149.9168  136.2457  154.8250 H   0  0  0  0  0  0  0  0  0  0  0  0
  149.3216  137.3632  156.0238 H   0  0  0  0  0  0  0  0  0  0  0  0
  147.7503  139.3605  154.9586 H   0  0  0  0  0  0  0  0  0  0  0  0
  148.8293  139.4689  153.5852 H   0  0  0  0  0  0  0  0  0  0  0  0
  146.5289  140.1435  152.9434 H   0  0  0  0  0  0  0  0  0  0  0  0
  147.0617  138.7446  152.0398 H   0  0  0  0  0  0  0  0  0  0  0  0
  145.2200  138.7157  154.4869 H   0  0  0  0  0  0  0  0  0  0  0  0
  144.3802  139.2898  152.3833 H   0  0  0  0  0  0  0  0  0  0  0  0
  145.1142  136.2652  154.1607 H   0  0  0  0  0  0  0  0  0  0  0  0
  146.1900  136.3616  152.7860 H   0  0  0  0  0  0  0  0  0  0  0  0
  147.4484  135.6491  154.7668 H   0  0  0  0  0  0  0  0  0  0  0  0
  146.9161  137.0464  155.6829 H   0  0  0  0  0  0  0  0  0  0  0  0
  152.8350  139.6597  158.1658 H   0  0  0  0  0  0  0  0  0  0  0  0
  154.0286  140.2673  160.0970 H   0  0  0  0  0  0  0  0  0  0  0  0
  153.2481  141.4597  161.1319 H   0  0  0  0  0  0  0  0  0  0  0  0
  154.5941  141.9357  160.0853 H   0  0  0  0  0  0  0  0  0  0  0  0
  148.5232  137.1108  153.2443 H   0  0  0  0  0  0  0  0  0  0  0  0
  149.5347  143.0596  155.5739 H   0  0  0  0  0  0  0  0  0  0  0  0
  1  2  1  0  0  0  0
  1 23  1  0  0  0  0
  1 24  1  0  0  0  0
  1 25  1  0  0  0  0
  2 21  1  0  0  0  0
  2  3  2  0  0  0  0
  3  4  1  0  0  0  0
  3 26  1  0  0  0  0
  4 19  2  0  0  0  0
  4  5  1  0  0  0  0
  5  6  2  0  0  0  0
  5 49  1  0  0  0  0
  6  7  1  0  0  0  0
  6 27  1  0  0  0  0
  7  8  1  0  0  0  0
  7 19  1  0  0  0  0
  8  9  1  0  0  0  0
  8 28  1  0  0  0  0
  8 29  1  0  0  0  0
  9 10  1  0  0  0  0
  9 11  1  0  0  0  0
  9 30  1  0  0  0  0
 10 31  1  0  0  0  0
 11 12  1  0  0  0  0
 11 32  1  0  0  0  0
 11 33  1  0  0  0  0
 12 18  1  0  0  0  0
 12 13  1  0  0  0  0
 12 48  1  0  0  0  0
 13 14  1  0  0  0  0
 13 34  1  0  0  0  0
 13 35  1  0  0  0  0
 14 15  1  0  0  0  0
 14 36  1  0  0  0  0
 14 37  1  0  0  0  0
 15 16  1  0  0  0  0
 15 17  1  0  0  0  0
 15 38  1  0  0  0  0
 16 39  1  0  0  0  0
 17 18  1  0  0  0  0
 17 40  1  0  0  0  0
 17 41  1  0  0  0  0
 18 42  1  0  0  0  0
 18 43  1  0  0  0  0
 19 20  1  0  0  0  0
 20 21  2  0  0  0  0
 20 44  1  0  0  0  0
 21 22  1  0  0  0  0
 22 45  1  0  0  0  0
 22 46  1  0  0  0  0
 22 47  1  0  0  0  0
M  CHG  1   5   1
M  CHG  1  12   1
M  END
> <s_m_source_file>
AV-unprocessed.smi

> <i_m_source_file_index>
1626

> <i_lp_mmshare_version>
43012

> <i_f3d_flags>
0

> <s_epik_input>
W0NIM11jKFtjSF0xKWMoW0NIM10pW2NIXWMoYzEyKW4oW2NIXW4yKVtDSDJdW0NASF0oW09IXSlbQ0gyXU4zW0NIMl1bQ0gyXVtDSF0oW09IXSlbQ0gyXVtDSDJdMw==

> <s_epik_cmdline>
J2VwaWtfcHl0aG9uJywgJy1waCcsICc3LjAnLCAnLXRuJywgJzgnLCAnLW1hJywgJzIwMCcsICctbWV0YWxfYmluZGluZycsICctaW1hZScsICc8aW5maWxlLm1hZT4nLCAnLW9tYWUnLCAnPG91dGZpbGUubWFlPic=

> <r_epik_Ionization_Penalty>
1.19369

> <r_epik_Ionization_Penalty_Charging>
1.19369

> <r_epik_Ionization_Penalty_Neutral>
1.68219e-06

> <r_epik_State_Penalty>
1.27429

> <r_epik_Charging_Adjusted_Penalty>
2.46798

> <i_epik_Tot_Q>
2

> <i_epik_Tot_abs_Q>
2

> <r_epik_Metal_State_Penalty>
5.29157

> <b_epik_Metal_Only>
0

> <s_lp_Force_Field>
OPLS_2005

> <r_lp_Energy>
30.226

> <b_lp_Chiralities_Consistent>
1

> <s_lp_Variant>
AV-unprocessed.smi:1626-6

> <Gold.Version>
5.8.1

> <Gold.Id.Protein>
6NUR|6NUR_protein|mol2

> <Gold.PLP.Fitness>
60.2933

> <Gold.PLP.PLP>
-43.6220

> <Gold.PLP.part.hbond>
-6.0000

> <Gold.PLP.part.metal>
0.0000

> <Gold.PLP.part.buried>
-4.0362

> <Gold.PLP.part.nonpolar>
-33.9293

> <Gold.PLP.part.repulsive>
0.1455

> <Gold.PLP.ligand.clash>
0.0000

> <Gold.PLP.ligand.torsion>
1.3872

> <Gold.PLP.Chemscore.Hbond>
6.4717

> <Gold.PLP.Chemscore.CHOScore>
0.0000

> <Gold.PLP.Chemscore.Metal>
0.0000

> <Gold.Chemscore.Hbonds>
donor molecule, donor type, donor heavy atom, donor atom, acceptor molecule, acceptor atom, score
      L1  H     5    49       P1  8028  2.00
      L1  H    10    31       P1  7949  0.33
      L1  H    12    48       P1  7948  2.00
      L1  H    16    39       P1 10175  0.57
      P1  H 10752 10763       L1    10  0.39

> <Gold.PLP.Chemscore.Internal.Correction>
0.0307

> <Gold.Rescore>
     Score         DG    S(hbond)    S(metal)    S(lipo)     H(rot)  DE(clash)    DE(int)     intcor
     23.59     -24.95       4.21        0.00     106.23       2.74       0.00       1.36       ----

> <Gold.Chemscore.Fitness>
23.5913

> <Gold.Chemscore.DG>
-24.9490

> <Gold.Chemscore.ZeroCoef>
-5.4800

> <Gold.Chemscore.Hbond>
4.2067

> <Gold.Chemscore.Metal>
0.0000

> <Gold.Chemscore.Lipo>
106.2315

> <Gold.Chemscore.Internal_Hbond>
0.0000

> <Gold.Chemscore.DEClash>
0.0009

> <Gold.Chemscore.DEInternal>
1.3568

> <Gold.Chemscore.Rot>
2.7384

> <Gold.Chemscore.Internal.Correction>
   9.000000E+99

> <Gold.Chemscore.Hbonds>
donor molecule, donor type, donor heavy atom, donor atom, acceptor molecule, acceptor atom, score
      L1  H     5    49       P1  8028  0.98
      L1  H    10    31       P1  7949  0.27
      L1  H    12    48       P1  7948  1.00
      L1  H    16    39       P1 10175  0.54
      P1  H 10752 10763       L1    10  0.30

> <Gold.Chemscore.Hbond.Weighted>
-14.0503

> <Gold.Chemscore.Metal.Weighted>
-0.0000

> <Gold.Chemscore.Lipo.Weighted>
-12.4291

> <Gold.Chemscore.Internal_Hbond.Weighted>
0.0000

> <Gold.Chemscore.DEClash.Weighted>
0.0009

> <Gold.Chemscore.DEInternal.Weighted>
1.3568

> <Gold.Chemscore.Rot.Weighted>
7.0103

> <Gold.Chemscore.Internal.Correction.Weighted>
   9.000000E+99

> <Gold.Protein.RotatedTorsions>
[ 6907 6896 6895 6894 ] final -168.52 input  -60.11 | X-H torsion
[ 7974 7965 7964 7962 ] final   68.95 input  175.53 | X-H torsion
[ 8008 7997 7996 7995 ] final  -77.92 input   59.86 | X-H torsion
[ 10167 10162 10161 10158 ] final  -32.26 input  -65.29 | X-H torsion
[ 10718 10713 10712 10709 ] final  -33.90 input   66.30 | X-H torsion
[ 10763 10752 10751 10750 ] final   37.52 input  -60.55 | X-H torsion
[ 11005 11000 10999 10996 ] final   54.91 input  -57.11 | X-H torsion

> <Gold.Protein.ActiveResidues>
 VAL166  LYS551  ARG553  GLY616  TRP617  ASP618  TYR619  PRO620  LYS621  CYS622 
 ASP623  PHE694  ASN695  SER759  ASP760  ASP761  ALA762  ILE779  LEU786  VAL792 
 PHE793  MET794  SER795  GLU796  ALA797  LYS798  CYS799  TRP800  GLU811  SER814 

> <Gold.Protein.RotatedAtoms>
  151.4769  133.3555  159.2831 H   0  0  0  0  0  0  0  0  0  0  0  0  # atno 6907 bound_to 6896
  150.8923  134.8330  159.7313 H   0  0  0  0  0  0  0  0  0  0  0  0  # atno 6908 bound_to 6896
  152.4830  134.4680  159.9678 H   0  0  0  0  0  0  0  0  0  0  0  0  # atno 6909 bound_to 6896
  145.7963  139.2959  143.1181 H   0  0  0  0  0  0  0  0  0  0  0  0  # atno 7974 bound_to 7965
  154.5641  140.0702  156.8865 H   0  0  0  0  0  0  0  0  0  0  0  0  # atno 8008 bound_to 7997
  155.2755  140.3368  155.4244 H   0  0  0  0  0  0  0  0  0  0  0  0  # atno 8009 bound_to 7997
  156.2066  140.1742  156.7771 H   0  0  0  0  0  0  0  0  0  0  0  0  # atno 8010 bound_to 7997
  140.7224  143.3708  151.1782 H   0  0  0  0  0  0  0  0  0  0  0  0  # atno 10167 bound_to 10162
  156.3571  130.4317  149.7655 H   0  0  0  0  0  0  0  0  0  0  0  0  # atno 10718 bound_to 10713
  153.0034  135.6275  154.2159 H   0  0  0  0  0  0  0  0  0  0  0  0  # atno 10763 bound_to 10752
  154.1902  135.2809  155.3026 H   0  0  0  0  0  0  0  0  0  0  0  0  # atno 10764 bound_to 10752
  154.5766  135.5660  153.7204 H   0  0  0  0  0  0  0  0  0  0  0  0  # atno 10765 bound_to 10752
  140.0649  134.5550  155.9110 H   0  0  0  0  0  0  0  0  0  0  0  0  # atno 11005 bound_to 11000
  145.9924  140.8591  143.0059 LP  0  0  0  0  0  0  0  0  0  0  0  0  # atno 17320 bound_to 7965
  144.6775  140.2235  143.7363 LP  0  0  0  0  0  0  0  0  0  0  0  0  # atno 17321 bound_to 7965
  139.7279  143.9119  152.3009 LP  0  0  0  0  0  0  0  0  0  0  0  0  # atno 17342 bound_to 10162
  139.8898  144.6971  150.8783 LP  0  0  0  0  0  0  0  0  0  0  0  0  # atno 17343 bound_to 10162
  156.4833  130.8051  151.3064 LP  0  0  0  0  0  0  0  0  0  0  0  0  # atno 17370 bound_to 10713
  157.7469  130.9999  150.2905 LP  0  0  0  0  0  0  0  0  0  0  0  0  # atno 17371 bound_to 10713
  141.1988  133.6603  156.5813 LP  0  0  0  0  0  0  0  0  0  0  0  0  # atno 17394 bound_to 11000
  140.3714  134.7602  157.4601 LP  0  0  0  0  0  0  0  0  0  0  0  0  # atno 17395 bound_to 11000

$$$$
