AV-unprocessed.smi:282|AV-procd|sdf|2123|dock5
  -GOLD-   2262021423D 1   1.00000     0.00000
 Structure written by MMmdl.
 65 69  0  0  0  0  0  0  0  0  2 V2000
  151.7850  138.7105  154.4410 C   0  0  0  0  0  0  0  0  0  0  0  0
  150.5657  139.3168  155.1553 C   0  0  0  0  0  0  0  0  0  0  0  0
  150.8661  140.5575  156.0373 C   0  0  2  0  0  0  0  0  0  0  0  0
  151.8528  140.2084  157.1730 C   0  0  0  0  0  0  0  0  0  0  0  0
  152.1374  141.3775  158.0398 N   0  3  2  0  0  0  0  0  0  0  0  0
  153.1399  141.0562  159.0882 C   0  0  0  0  0  0  0  0  0  0  0  0
  153.4948  142.2961  159.9231 C   0  0  0  0  0  0  0  0  0  0  0  0
  152.2354  142.9049  160.5492 C   0  0  0  0  0  0  0  0  0  0  0  0
  151.2098  143.2175  159.4527 C   0  0  0  0  0  0  0  0  0  0  0  0
  150.8914  141.9714  158.6014 C   0  0  1  0  0  0  0  0  0  0  0  0
  149.9084  142.3276  157.4718 C   0  0  0  0  0  0  0  0  0  0  0  0
  149.6604  141.1967  156.5826 N   0  0  0  0  0  0  0  0  0  0  0  0
  148.6768  141.5095  155.7063 C   0  0  0  0  0  0  0  0  0  0  0  0
  148.8942  141.4122  154.3680 N   0  0  0  0  0  0  0  0  0  0  0  0
  147.9232  141.7387  153.5096 C   0  0  0  0  0  0  0  0  0  0  0  0
  146.6909  142.1803  153.7717 N   0  0  0  0  0  0  0  0  0  0  0  0
  146.4753  142.2864  155.1146 C   0  0  0  0  0  0  0  0  0  0  0  0
  147.4111  141.9817  156.1414 C   0  0  0  0  0  0  0  0  0  0  0  0
  146.8507  142.2234  157.3883 N   0  0  0  0  0  0  0  0  0  0  0  0
  145.6468  142.6472  157.1142 C   0  0  0  0  0  0  0  0  0  0  0  0
  145.3297  142.6984  155.7743 N   0  0  0  0  0  0  0  0  0  0  0  0
  144.0646  143.1266  155.1936 C   0  0  0  0  0  0  0  0  0  0  0  0
  143.9663  144.6517  154.8896 C   0  0  0  0  0  0  0  0  0  0  0  0
  144.9486  145.0547  153.7524 C   0  0  0  0  0  0  0  0  0  0  0  0
  144.3646  144.9326  152.4709 O   0  0  0  0  0  0  0  0  0  0  0  0
  142.5003  144.9807  154.5104 C   0  0  0  0  0  0  0  0  0  0  0  0
  142.2136  146.4926  154.4706 C   0  0  0  0  0  0  0  0  0  0  0  0
  142.5390  147.0810  155.7230 O   0  0  0  0  0  0  0  0  0  0  0  0
  143.9158  146.9515  156.0518 C   0  0  0  0  0  0  0  0  0  0  0  0
  144.2945  145.4635  156.1680 C   0  0  0  0  0  0  0  0  0  0  0  0
  151.4956  137.8203  153.8825 H   0  0  0  0  0  0  0  0  0  0  0  0
  152.5590  138.4128  155.1482 H   0  0  0  0  0  0  0  0  0  0  0  0
  152.2275  139.4071  153.7299 H   0  0  0  0  0  0  0  0  0  0  0  0
  149.8212  139.5879  154.4061 H   0  0  0  0  0  0  0  0  0  0  0  0
  150.0920  138.5382  155.7530 H   0  0  0  0  0  0  0  0  0  0  0  0
  151.3613  141.2954  155.4039 H   0  0  0  0  0  0  0  0  0  0  0  0
  151.4502  139.4104  157.7978 H   0  0  0  0  0  0  0  0  0  0  0  0
  152.7860  139.8373  156.7473 H   0  0  0  0  0  0  0  0  0  0  0  0
  152.7509  140.2695  159.7366 H   0  0  0  0  0  0  0  0  0  0  0  0
  154.0437  140.6631  158.6209 H   0  0  0  0  0  0  0  0  0  0  0  0
  154.2074  142.0292  160.7040 H   0  0  0  0  0  0  0  0  0  0  0  0
  153.9888  143.0365  159.2924 H   0  0  0  0  0  0  0  0  0  0  0  0
  151.8058  142.2091  161.2711 H   0  0  0  0  0  0  0  0  0  0  0  0
  152.4877  143.8117  161.0995 H   0  0  0  0  0  0  0  0  0  0  0  0
  150.2959  143.6044  159.9053 H   0  0  0  0  0  0  0  0  0  0  0  0
  151.5970  144.0123  158.8134 H   0  0  0  0  0  0  0  0  0  0  0  0
  150.4227  141.2223  159.2426 H   0  0  0  0  0  0  0  0  0  0  0  0
  148.9678  142.6708  157.9058 H   0  0  0  0  0  0  0  0  0  0  0  0
  150.3055  143.1572  156.8839 H   0  0  0  0  0  0  0  0  0  0  0  0
  148.1682  141.6316  152.4632 H   0  0  0  0  0  0  0  0  0  0  0  0
  144.9480  142.9289  157.8885 H   0  0  0  0  0  0  0  0  0  0  0  0
  143.9018  142.5485  154.2831 H   0  0  0  0  0  0  0  0  0  0  0  0
  143.2671  142.8263  155.8748 H   0  0  0  0  0  0  0  0  0  0  0  0
  145.2886  146.0833  153.8589 H   0  0  0  0  0  0  0  0  0  0  0  0
  145.8493  144.4413  153.7813 H   0  0  0  0  0  0  0  0  0  0  0  0
  143.8476  144.1416  152.4507 H   0  0  0  0  0  0  0  0  0  0  0  0
  142.2373  144.5289  153.5537 H   0  0  0  0  0  0  0  0  0  0  0  0
  141.8280  144.5326  155.2435 H   0  0  0  0  0  0  0  0  0  0  0  0
  142.7607  146.9850  153.6664 H   0  0  0  0  0  0  0  0  0  0  0  0
  141.1547  146.6620  154.2738 H   0  0  0  0  0  0  0  0  0  0  0  0
  144.5305  147.4672  155.3134 H   0  0  0  0  0  0  0  0  0  0  0  0
  144.0929  147.4518  157.0040 H   0  0  0  0  0  0  0  0  0  0  0  0
  143.7473  145.0443  157.0132 H   0  0  0  0  0  0  0  0  0  0  0  0
  145.3522  145.3776  156.4186 H   0  0  0  0  0  0  0  0  0  0  0  0
  152.5512  142.0832  157.4475 H   0  0  0  0  0  0  0  0  0  0  0  0
  1  2  1  0  0  0  0
  1 31  1  0  0  0  0
  1 32  1  0  0  0  0
  1 33  1  0  0  0  0
  2  3  1  0  0  0  0
  2 34  1  0  0  0  0
  2 35  1  0  0  0  0
  3 12  1  0  0  0  0
  3  4  1  0  0  0  0
  3 36  1  0  0  0  0
  4  5  1  0  0  0  0
  4 37  1  0  0  0  0
  4 38  1  0  0  0  0
  5 10  1  0  0  0  0
  5  6  1  0  0  0  0
  5 65  1  0  0  0  0
  6  7  1  0  0  0  0
  6 39  1  0  0  0  0
  6 40  1  0  0  0  0
  7  8  1  0  0  0  0
  7 41  1  0  0  0  0
  7 42  1  0  0  0  0
  8  9  1  0  0  0  0
  8 43  1  0  0  0  0
  8 44  1  0  0  0  0
  9 10  1  0  0  0  0
  9 45  1  0  0  0  0
  9 46  1  0  0  0  0
 10 11  1  0  0  0  0
 10 47  1  0  0  0  0
 11 12  1  0  0  0  0
 11 48  1  0  0  0  0
 11 49  1  0  0  0  0
 12 13  1  0  0  0  0
 13 18  1  0  0  0  0
 13 14  2  0  0  0  0
 14 15  1  0  0  0  0
 15 16  2  0  0  0  0
 15 50  1  0  0  0  0
 16 17  1  0  0  0  0
 17 21  1  0  0  0  0
 17 18  2  0  0  0  0
 18 19  1  0  0  0  0
 19 20  2  0  0  0  0
 20 21  1  0  0  0  0
 20 51  1  0  0  0  0
 21 22  1  0  0  0  0
 22 23  1  0  0  0  0
 22 52  1  0  0  0  0
 22 53  1  0  0  0  0
 23 30  1  0  0  0  0
 23 24  1  0  0  0  0
 23 26  1  0  0  0  0
 24 25  1  0  0  0  0
 24 54  1  0  0  0  0
 24 55  1  0  0  0  0
 25 56  1  0  0  0  0
 26 27  1  0  0  0  0
 26 57  1  0  0  0  0
 26 58  1  0  0  0  0
 27 28  1  0  0  0  0
 27 59  1  0  0  0  0
 27 60  1  0  0  0  0
 28 29  1  0  0  0  0
 29 30  1  0  0  0  0
 29 61  1  0  0  0  0
 29 62  1  0  0  0  0
 30 63  1  0  0  0  0
 30 64  1  0  0  0  0
M  CHG  1   5   1
M  END
> <s_m_source_file>
AV-unprocessed.smi

> <i_m_source_file_index>
282

> <i_lp_mmshare_version>
43012

> <i_f3d_flags>
0

> <s_epik_input>
W0NIMl0xW0NIMl1bQ0gyXVtDSDJdW0NAQEhdKE4xMilbQ0gyXU4oW0NAQEhdKFtDSDJdMilbQ0gyXVtDSDNdKWMobltjSF1uMyljKGMzNCluW2NIXW40W0NIMl1DNShbQ0gyXVtPSF0pW0NIMl1bQ0gyXU9bQ0gyXVtDSDJdNQ==

> <s_epik_cmdline>
J2VwaWtfcHl0aG9uJywgJy1waCcsICc3LjAnLCAnLXRuJywgJzgnLCAnLW1hJywgJzIwMCcsICctbWV0YWxfYmluZGluZycsICctaW1hZScsICc8aW5maWxlLm1hZT4nLCAnLW9tYWUnLCAnPG91dGZpbGUubWFlPic=

> <r_lp_tautomer_probability>
1

> <r_epik_Ionization_Penalty>
0.00308583

> <r_epik_Ionization_Penalty_Charging>
0.00300384

> <r_epik_Ionization_Penalty_Neutral>
8.19894e-05

> <r_epik_State_Penalty>
-0

> <r_epik_Charging_Adjusted_Penalty>
0.00300384

> <i_epik_Tot_Q>
1

> <i_epik_Tot_abs_Q>
1

> <r_epik_Metal_State_Penalty>
-0

> <b_epik_Metal_Only>
0

> <s_lp_Force_Field>
OPLS_2005

> <r_lp_Energy>
57.4125

> <b_lp_Chiralities_Consistent>
1

> <s_lp_Variant>
AV-unprocessed.smi:282-7

> <Gold.Version>
5.8.1

> <Gold.Id.Protein>
6NUR|6NUR_protein|mol2

> <Gold.PLP.Fitness>
53.2646

> <Gold.PLP.PLP>
-49.1749

> <Gold.PLP.part.hbond>
-2.0000

> <Gold.PLP.part.metal>
0.0000

> <Gold.PLP.part.buried>
-9.0804

> <Gold.PLP.part.nonpolar>
-38.1840

> <Gold.PLP.part.repulsive>
0.6119

> <Gold.PLP.ligand.clash>
0.0000

> <Gold.PLP.ligand.torsion>
1.0578

> <Gold.PLP.Chemscore.Hbond>
1.0000

> <Gold.PLP.Chemscore.CHOScore>
1.0000

> <Gold.PLP.Chemscore.Metal>
0.0000

> <Gold.Chemscore.Hbonds>
donor molecule, donor type, donor heavy atom, donor atom, acceptor molecule, acceptor atom, score
      L1  H    25    56       P1 10174  1.00
      L1  C    15    50       P1  7957  1.00

> <Gold.PLP.Chemscore.Internal.Correction>
0.2052

> <Gold.Rescore>
     Score         DG    S(hbond)    S(metal)    S(lipo)     H(rot)  DE(clash)    DE(int)     intcor
     12.91     -17.08       0.95        0.00     125.76       2.46       1.47       2.69       ----

> <Gold.Chemscore.Fitness>
12.9129

> <Gold.Chemscore.DG>
-17.0758

> <Gold.Chemscore.ZeroCoef>
-5.4800

> <Gold.Chemscore.Hbond>
0.9500

> <Gold.Chemscore.Metal>
0.0000

> <Gold.Chemscore.Lipo>
125.7648

> <Gold.Chemscore.Internal_Hbond>
0.0000

> <Gold.Chemscore.DEClash>
1.4681

> <Gold.Chemscore.DEInternal>
2.6948

> <Gold.Chemscore.Rot>
2.4576

> <Gold.Chemscore.Internal.Correction>
   9.000000E+99

> <Gold.Chemscore.Hbonds>
donor molecule, donor type, donor heavy atom, donor atom, acceptor molecule, acceptor atom, score
      L1  H    25    56       P1 10174  0.77

> <Gold.Chemscore.Hbond.Weighted>
-3.1729

> <Gold.Chemscore.Metal.Weighted>
-0.0000

> <Gold.Chemscore.Lipo.Weighted>
-14.7145

> <Gold.Chemscore.Internal_Hbond.Weighted>
0.0000

> <Gold.Chemscore.DEClash.Weighted>
1.4681

> <Gold.Chemscore.DEInternal.Weighted>
2.6948

> <Gold.Chemscore.Rot.Weighted>
6.2915

> <Gold.Chemscore.Internal.Correction.Weighted>
   9.000000E+99

> <Gold.Protein.RotatedTorsions>
[ 6907 6896 6895 6894 ] final   30.78 input  -60.11 | X-H torsion
[ 7974 7965 7964 7962 ] final  179.58 input  175.53 | X-H torsion
[ 8008 7997 7996 7995 ] final -111.17 input   59.86 | X-H torsion
[ 10167 10162 10161 10158 ] final -134.55 input  -65.29 | X-H torsion
[ 10718 10713 10712 10709 ] final -149.70 input   66.30 | X-H torsion
[ 10763 10752 10751 10750 ] final -168.83 input  -60.55 | X-H torsion
[ 11005 11000 10999 10996 ] final   93.25 input  -57.11 | X-H torsion

> <Gold.Protein.ActiveResidues>
 VAL166  LYS551  ARG553  GLY616  TRP617  ASP618  TYR619  PRO620  LYS621  CYS622 
 ASP623  PHE694  ASN695  SER759  ASP760  ASP761  ALA762  ILE779  LEU786  VAL792 
 PHE793  MET794  SER795  GLU796  ALA797  LYS798  CYS799  TRP800  GLU811  SER814 

> <Gold.Protein.RotatedAtoms>
  152.0509  134.9654  160.0574 H   0  0  0  0  0  0  0  0  0  0  0  0  # atno 6907 bound_to 6896
  152.1056  133.4268  159.4615 H   0  0  0  0  0  0  0  0  0  0  0  0  # atno 6908 bound_to 6896
  150.6841  134.2628  159.4600 H   0  0  0  0  0  0  0  0  0  0  0  0  # atno 6909 bound_to 6896
  144.7144  140.0569  143.6434 H   0  0  0  0  0  0  0  0  0  0  0  0  # atno 7974 bound_to 7965
  154.9857  140.0396  157.2297 H   0  0  0  0  0  0  0  0  0  0  0  0  # atno 8008 bound_to 7997
  154.7674  140.2795  155.6143 H   0  0  0  0  0  0  0  0  0  0  0  0  # atno 8009 bound_to 7997
  156.2915  140.2616  156.2468 H   0  0  0  0  0  0  0  0  0  0  0  0  # atno 8010 bound_to 7997
  139.8869  143.6770  152.2618 H   0  0  0  0  0  0  0  0  0  0  0  0  # atno 10167 bound_to 10162
  156.4366  130.8101  151.2330 H   0  0  0  0  0  0  0  0  0  0  0  0  # atno 10718 bound_to 10713
  154.6587  135.2922  154.9894 H   0  0  0  0  0  0  0  0  0  0  0  0  # atno 10763 bound_to 10752
  154.0962  135.6583  153.4864 H   0  0  0  0  0  0  0  0  0  0  0  0  # atno 10764 bound_to 10752
  153.0417  135.5231  154.7528 H   0  0  0  0  0  0  0  0  0  0  0  0  # atno 10765 bound_to 10752
  139.8812  134.8779  156.3691 H   0  0  0  0  0  0  0  0  0  0  0  0  # atno 11005 bound_to 11000
  145.9897  139.3005  143.0992 LP  0  0  0  0  0  0  0  0  0  0  0  0  # atno 17320 bound_to 7965
  145.8917  140.9299  143.0549 LP  0  0  0  0  0  0  0  0  0  0  0  0  # atno 17321 bound_to 7965
  139.7144  144.7614  151.1058 LP  0  0  0  0  0  0  0  0  0  0  0  0  # atno 17342 bound_to 10162
  140.7734  143.5288  150.9448 LP  0  0  0  0  0  0  0  0  0  0  0  0  # atno 17343 bound_to 10162
  157.7507  131.0181  150.3614 LP  0  0  0  0  0  0  0  0  0  0  0  0  # atno 17370 bound_to 10713
  156.3963  130.3907  149.6992 LP  0  0  0  0  0  0  0  0  0  0  0  0  # atno 17371 bound_to 10713
  140.9477  133.7472  156.0230 LP  0  0  0  0  0  0  0  0  0  0  0  0  # atno 17394 bound_to 11000
  140.8144  134.3362  157.5402 LP  0  0  0  0  0  0  0  0  0  0  0  0  # atno 17395 bound_to 11000

$$$$
