AV-unprocessed.smi:2106|AV-procd|sdf|8598|dock2
  -GOLD-   2272011333D 1   1.00000     0.00000
 Structure written by MMmdl.
 48 49  0  0  0  0  0  0  0  0  2 V2000
  153.6037  140.4185  161.2082 C   0  0  0  0  0  0  0  0  0  0  0  0
  152.9411  141.3275  160.2158 C   0  0  0  0  0  0  0  0  0  0  0  0
  153.1066  142.7320  160.0603 C   0  0  0  0  0  0  0  0  0  0  0  0
  152.2811  143.0568  159.0211 C   0  0  0  0  0  0  0  0  0  0  0  0
  152.0135  144.3799  158.3824 C   0  0  0  0  0  0  0  0  0  0  0  0
  151.6756  141.8830  158.6081 N   0  0  0  0  0  0  0  0  0  0  0  0
  150.7187  141.6724  157.5336 C   0  0  0  0  0  0  0  0  0  0  0  0
  151.1736  140.5451  156.6053 C   0  0  0  0  0  0  0  0  0  0  0  0
  152.1905  139.9027  156.8668 O   0  0  0  0  0  0  0  0  0  0  0  0
  150.4111  140.3137  155.5252 N   0  0  0  0  0  0  0  0  0  0  0  0
  150.6520  139.2698  154.5360 C   0  0  0  0  0  0  0  0  0  0  0  0
  149.8854  137.9752  154.8724 C   0  0  0  0  0  0  0  0  0  0  0  0
  148.5760  137.8888  154.1785 N   0  3  1  0  0  0  0  0  0  0  0  0
  147.6373  136.9717  154.8662 C   0  0  0  0  0  0  0  0  0  0  0  0
  146.3310  136.8291  154.0641 C   0  0  1  0  0  0  0  0  0  0  0  0
  145.2980  135.9667  154.7976 C   0  0  0  0  0  0  0  0  0  0  0  0
  145.7558  138.1167  153.8588 O   0  0  0  0  0  0  0  0  0  0  0  0
  146.6016  139.0519  153.1905 C   0  0  2  0  0  0  0  0  0  0  0  0
  146.7833  138.7130  151.6998 C   0  0  0  0  0  0  0  0  0  0  0  0
  147.9321  139.2067  153.9531 C   0  0  0  0  0  0  0  0  0  0  0  0
  152.0833  140.8246  159.3430 N   0  0  0  0  0  0  0  0  0  0  0  0
  154.2555  140.9777  161.8795 H   0  0  0  0  0  0  0  0  0  0  0  0
  154.2120  139.6659  160.7061 H   0  0  0  0  0  0  0  0  0  0  0  0
  152.8656  139.8991  161.8200 H   0  0  0  0  0  0  0  0  0  0  0  0
  153.7377  143.4009  160.6265 H   0  0  0  0  0  0  0  0  0  0  0  0
  152.6180  145.1623  158.8408 H   0  0  0  0  0  0  0  0  0  0  0  0
  150.9654  144.6592  158.4915 H   0  0  0  0  0  0  0  0  0  0  0  0
  152.2504  144.3548  157.3187 H   0  0  0  0  0  0  0  0  0  0  0  0
  149.7405  141.4419  157.9594 H   0  0  0  0  0  0  0  0  0  0  0  0
  150.6049  142.5973  156.9672 H   0  0  0  0  0  0  0  0  0  0  0  0
  149.5896  140.8872  155.3961 H   0  0  0  0  0  0  0  0  0  0  0  0
  150.3813  139.6522  153.5517 H   0  0  0  0  0  0  0  0  0  0  0  0
  151.7238  139.0712  154.5093 H   0  0  0  0  0  0  0  0  0  0  0  0
  150.5034  137.1280  154.5712 H   0  0  0  0  0  0  0  0  0  0  0  0
  149.7315  137.8771  155.9481 H   0  0  0  0  0  0  0  0  0  0  0  0
  148.1002  135.9911  154.9843 H   0  0  0  0  0  0  0  0  0  0  0  0
  147.4284  137.3499  155.8686 H   0  0  0  0  0  0  0  0  0  0  0  0
  146.5401  136.3603  153.1023 H   0  0  0  0  0  0  0  0  0  0  0  0
  145.6799  134.9612  154.9763 H   0  0  0  0  0  0  0  0  0  0  0  0
  144.3817  135.8750  154.2138 H   0  0  0  0  0  0  0  0  0  0  0  0
  145.0345  136.4012  155.7624 H   0  0  0  0  0  0  0  0  0  0  0  0
  146.0821  140.0098  153.2332 H   0  0  0  0  0  0  0  0  0  0  0  0
  147.3181  139.5115  151.1850 H   0  0  0  0  0  0  0  0  0  0  0  0
  145.8175  138.5948  151.2081 H   0  0  0  0  0  0  0  0  0  0  0  0
  147.3505  137.7949  151.5479 H   0  0  0  0  0  0  0  0  0  0  0  0
  147.7468  139.6811  154.9183 H   0  0  0  0  0  0  0  0  0  0  0  0
  148.5899  139.8740  153.3975 H   0  0  0  0  0  0  0  0  0  0  0  0
  148.7551  137.4859  153.2698 H   0  0  0  0  0  0  0  0  0  0  0  0
  1  2  1  0  0  0  0
  1 22  1  0  0  0  0
  1 23  1  0  0  0  0
  1 24  1  0  0  0  0
  2 21  2  0  0  0  0
  2  3  1  0  0  0  0
  3  4  2  0  0  0  0
  3 25  1  0  0  0  0
  4  5  1  0  0  0  0
  4  6  1  0  0  0  0
  5 26  1  0  0  0  0
  5 27  1  0  0  0  0
  5 28  1  0  0  0  0
  6  7  1  0  0  0  0
  6 21  1  0  0  0  0
  7  8  1  0  0  0  0
  7 29  1  0  0  0  0
  7 30  1  0  0  0  0
  8  9  2  0  0  0  0
  8 10  1  0  0  0  0
 10 11  1  0  0  0  0
 10 31  1  0  0  0  0
 11 12  1  0  0  0  0
 11 32  1  0  0  0  0
 11 33  1  0  0  0  0
 12 13  1  0  0  0  0
 12 34  1  0  0  0  0
 12 35  1  0  0  0  0
 13 20  1  0  0  0  0
 13 14  1  0  0  0  0
 13 48  1  0  0  0  0
 14 15  1  0  0  0  0
 14 36  1  0  0  0  0
 14 37  1  0  0  0  0
 15 16  1  0  0  0  0
 15 17  1  0  0  0  0
 15 38  1  0  0  0  0
 16 39  1  0  0  0  0
 16 40  1  0  0  0  0
 16 41  1  0  0  0  0
 17 18  1  0  0  0  0
 18 19  1  0  0  0  0
 18 20  1  0  0  0  0
 18 42  1  0  0  0  0
 19 43  1  0  0  0  0
 19 44  1  0  0  0  0
 19 45  1  0  0  0  0
 20 46  1  0  0  0  0
 20 47  1  0  0  0  0
M  CHG  1  13   1
M  END
> <s_m_source_file>
AV-unprocessed.smi

> <i_m_source_file_index>
2106

> <i_lp_mmshare_version>
43012

> <i_f3d_flags>
0

> <s_epik_input>
W0NIM11jMVtjSF1jKFtDSDNdKW4objEpW0NIMl1DKD1PKVtOSF1bQ0gyXVtDSDJdTjJbQ0gyXVtDQEBIXShbQ0gzXSlPW0NAQEhdKFtDSDNdKVtDSDJdMg==

> <s_epik_cmdline>
J2VwaWtfcHl0aG9uJywgJy1waCcsICc3LjAnLCAnLXRuJywgJzgnLCAnLW1hJywgJzIwMCcsICctbWV0YWxfYmluZGluZycsICctaW1hZScsICc8aW5maWxlLm1hZT4nLCAnLW9tYWUnLCAnPG91dGZpbGUubWFlPic=

> <r_lp_tautomer_probability>
1

> <r_epik_Ionization_Penalty>
0.748586

> <r_epik_Ionization_Penalty_Charging>
0.748396

> <r_epik_Ionization_Penalty_Neutral>
0.000189656

> <r_epik_State_Penalty>
0.775162

> <r_epik_Charging_Adjusted_Penalty>
1.52356

> <i_epik_Tot_Q>
1

> <i_epik_Tot_abs_Q>
1

> <r_epik_Metal_State_Penalty>
0.775295

> <b_epik_Metal_Only>
0

> <s_lp_Force_Field>
OPLS_2005

> <r_lp_Energy>
15.4858

> <b_lp_Chiralities_Consistent>
1

> <s_lp_Variant>
AV-unprocessed.smi:2106-6

> <Gold.Version>
5.8.1

> <Gold.Id.Protein>
6NUR|6NUR_protein|mol2

> <Gold.PLP.Fitness>
48.1648

> <Gold.PLP.PLP>
-40.6941

> <Gold.PLP.part.hbond>
-2.0000

> <Gold.PLP.part.metal>
0.0000

> <Gold.PLP.part.buried>
-1.4036

> <Gold.PLP.part.nonpolar>
-37.0844

> <Gold.PLP.part.repulsive>
0.4180

> <Gold.PLP.ligand.clash>
0.0000

> <Gold.PLP.ligand.torsion>
0.7891

> <Gold.PLP.Chemscore.Hbond>
3.0000

> <Gold.PLP.Chemscore.CHOScore>
0.0000

> <Gold.PLP.Chemscore.Metal>
0.0000

> <Gold.Chemscore.Hbonds>
donor molecule, donor type, donor heavy atom, donor atom, acceptor molecule, acceptor atom, score
      L1  H    13    48       P1  7948  2.00
      P1  H  7997  8008       L1     9  0.59

> <Gold.PLP.Chemscore.Internal.Correction>
0.0489

> <Gold.Rescore>
     Score         DG    S(hbond)    S(metal)    S(lipo)     H(rot)  DE(clash)    DE(int)     intcor
     17.20     -19.93       1.97        0.00     105.31       1.73       0.49       2.24       ----

> <Gold.Chemscore.Fitness>
17.1963

> <Gold.Chemscore.DG>
-19.9329

> <Gold.Chemscore.ZeroCoef>
-5.4800

> <Gold.Chemscore.Hbond>
1.9655

> <Gold.Chemscore.Metal>
0.0000

> <Gold.Chemscore.Lipo>
105.3099

> <Gold.Chemscore.Internal_Hbond>
0.0000

> <Gold.Chemscore.DEClash>
0.4940

> <Gold.Chemscore.DEInternal>
2.2426

> <Gold.Chemscore.Rot>
1.7316

> <Gold.Chemscore.Internal.Correction>
   9.000000E+99

> <Gold.Chemscore.Hbonds>
donor molecule, donor type, donor heavy atom, donor atom, acceptor molecule, acceptor atom, score
      L1  H    13    48       P1  7948  1.00
      P1  H  7997  8008       L1     9  0.58

> <Gold.Chemscore.Hbond.Weighted>
-6.5646

> <Gold.Chemscore.Metal.Weighted>
-0.0000

> <Gold.Chemscore.Lipo.Weighted>
-12.3213

> <Gold.Chemscore.Internal_Hbond.Weighted>
0.0000

> <Gold.Chemscore.DEClash.Weighted>
0.4940

> <Gold.Chemscore.DEInternal.Weighted>
2.2426

> <Gold.Chemscore.Rot.Weighted>
4.4330

> <Gold.Chemscore.Internal.Correction.Weighted>
   9.000000E+99

> <Gold.Protein.RotatedTorsions>
[ 6907 6896 6895 6894 ] final   66.68 input  -60.11 | X-H torsion
[ 7974 7965 7964 7962 ] final   95.73 input  175.53 | X-H torsion
[ 8008 7997 7996 7995 ] final  -57.78 input   59.86 | X-H torsion
[ 10167 10162 10161 10158 ] final  -91.54 input  -65.29 | X-H torsion
[ 10718 10713 10712 10709 ] final   74.61 input   66.30 | X-H torsion
[ 10763 10752 10751 10750 ] final -155.45 input  -60.55 | X-H torsion
[ 11005 11000 10999 10996 ] final  -93.35 input  -57.11 | X-H torsion

> <Gold.Protein.ActiveResidues>
 VAL166  LYS551  ARG553  GLY616  TRP617  ASP618  TYR619  PRO620  LYS621  CYS622 
 ASP623  PHE694  ASN695  SER759  ASP760  ASP761  ALA762  ILE779  LEU786  VAL792 
 PHE793  MET794  SER795  GLU796  ALA797  LYS798  CYS799  TRP800  GLU811  SER814 

> <Gold.Protein.RotatedAtoms>
  152.4498  134.5418  159.9840 H   0  0  0  0  0  0  0  0  0  0  0  0  # atno 6907 bound_to 6896
  151.5493  133.3414  159.2958 H   0  0  0  0  0  0  0  0  0  0  0  0  # atno 6908 bound_to 6896
  150.8424  134.7752  159.7006 H   0  0  0  0  0  0  0  0  0  0  0  0  # atno 6909 bound_to 6896
  145.4483  139.2295  143.3054 H   0  0  0  0  0  0  0  0  0  0  0  0  # atno 7974 bound_to 7965
  154.4282  140.1099  156.5853 H   0  0  0  0  0  0  0  0  0  0  0  0  # atno 8008 bound_to 7997
  155.6069  140.3494  155.4592 H   0  0  0  0  0  0  0  0  0  0  0  0  # atno 8009 bound_to 7997
  156.0129  140.1223  157.0425 H   0  0  0  0  0  0  0  0  0  0  0  0  # atno 8010 bound_to 7997
  140.3439  143.2927  151.9804 H   0  0  0  0  0  0  0  0  0  0  0  0  # atno 10167 bound_to 10162
  157.6599  130.9686  150.1236 H   0  0  0  0  0  0  0  0  0  0  0  0  # atno 10718 bound_to 10713
  154.7786  135.3167  154.8039 H   0  0  0  0  0  0  0  0  0  0  0  0  # atno 10763 bound_to 10752
  153.8756  135.6840  153.4775 H   0  0  0  0  0  0  0  0  0  0  0  0  # atno 10764 bound_to 10752
  153.1416  135.4737  154.9440 H   0  0  0  0  0  0  0  0  0  0  0  0  # atno 10765 bound_to 10752
  141.1499  133.7882  157.0147 H   0  0  0  0  0  0  0  0  0  0  0  0  # atno 11005 bound_to 11000
  146.2519  140.5239  142.8890 LP  0  0  0  0  0  0  0  0  0  0  0  0  # atno 17320 bound_to 7965
  144.8078  140.6331  143.6435 LP  0  0  0  0  0  0  0  0  0  0  0  0  # atno 17321 bound_to 7965
  139.4836  144.6134  151.7392 LP  0  0  0  0  0  0  0  0  0  0  0  0  # atno 17342 bound_to 10162
  140.5283  144.0770  150.6045 LP  0  0  0  0  0  0  0  0  0  0  0  0  # atno 17343 bound_to 10162
  156.2101  130.3666  149.8681 LP  0  0  0  0  0  0  0  0  0  0  0  0  # atno 17370 bound_to 10713
  156.6562  130.8763  151.3540 LP  0  0  0  0  0  0  0  0  0  0  0  0  # atno 17371 bound_to 10713
  140.0854  134.9623  157.1692 LP  0  0  0  0  0  0  0  0  0  0  0  0  # atno 17394 bound_to 11000
  140.3518  134.2590  155.7197 LP  0  0  0  0  0  0  0  0  0  0  0  0  # atno 17395 bound_to 11000

$$$$
