AV-unprocessed.smi:1714|AV-procd|sdf|6908|dock2
  -GOLD-   22720 8113D 1   1.00000     0.00000
 Structure written by MMmdl.
 46 47  0  0  0  0  0  0  0  0  2 V2000
  145.6005  135.4529  150.7656 C   0  0  0  0  0  0  0  0  0  0  0  0
  145.5072  133.9510  150.9815 C   0  0  0  0  0  0  0  0  0  0  0  0
  144.5650  133.2048  150.2418 C   0  0  0  0  0  0  0  0  0  0  0  0
  144.4806  131.8165  150.4414 C   0  0  0  0  0  0  0  0  0  0  0  0
  145.3481  131.2287  151.3780 C   0  0  0  0  0  0  0  0  0  0  0  0
  146.2521  131.9339  152.0878 N   0  0  0  0  0  0  0  0  0  0  0  0
  146.3473  133.2750  151.9065 C   0  0  0  0  0  0  0  0  0  0  0  0
  147.2790  134.0816  152.6192 N   0  0  0  0  0  0  0  0  0  0  0  0
  147.7398  133.9185  153.8718 C   0  0  0  0  0  0  0  0  0  0  0  0
  147.4151  133.0130  154.6404 O   0  0  0  0  0  0  0  0  0  0  0  0
  148.6147  134.8827  154.1952 N   0  0  0  0  0  0  0  0  0  0  0  0
  149.3259  134.9943  155.4693 C   0  0  0  0  0  0  0  0  0  0  0  0
  149.0960  136.3437  156.2181 C   0  0  0  0  0  0  0  0  0  0  0  0
  147.5639  136.5483  156.3561 C   0  0  0  0  0  0  0  0  0  0  0  0
  149.6955  136.2950  157.6452 C   0  0  0  0  0  0  0  0  0  0  0  0
  149.7213  137.4526  155.4052 N   0  3  0  0  0  0  0  0  0  0  0  0
  149.3304  138.8446  155.7728 C   0  0  0  0  0  0  0  0  0  0  0  0
  149.9182  139.8618  154.7779 C   0  0  0  0  0  0  0  0  0  0  0  0
  151.3297  139.7245  154.7117 O   0  0  0  0  0  0  0  0  0  0  0  0
  151.7067  138.4322  154.2605 C   0  0  0  0  0  0  0  0  0  0  0  0
  151.2046  137.3813  155.2625 C   0  0  0  0  0  0  0  0  0  0  0  0
  144.8501  135.7996  150.0546 H   0  0  0  0  0  0  0  0  0  0  0  0
  146.5824  135.7205  150.3746 H   0  0  0  0  0  0  0  0  0  0  0  0
  145.4424  135.9858  151.7036 H   0  0  0  0  0  0  0  0  0  0  0  0
  143.9133  133.6875  149.5284 H   0  0  0  0  0  0  0  0  0  0  0  0
  143.7699  131.2179  149.8912 H   0  0  0  0  0  0  0  0  0  0  0  0
  145.3167  130.1651  151.5621 H   0  0  0  0  0  0  0  0  0  0  0  0
  147.6434  134.8712  152.1074 H   0  0  0  0  0  0  0  0  0  0  0  0
  148.8174  135.5872  153.5009 H   0  0  0  0  0  0  0  0  0  0  0  0
  149.0609  134.1371  156.0865 H   0  0  0  0  0  0  0  0  0  0  0  0
  150.3886  134.8773  155.2534 H   0  0  0  0  0  0  0  0  0  0  0  0
  147.0798  135.7046  156.8479 H   0  0  0  0  0  0  0  0  0  0  0  0
  147.0876  136.6714  155.3828 H   0  0  0  0  0  0  0  0  0  0  0  0
  147.3177  137.4168  156.9672 H   0  0  0  0  0  0  0  0  0  0  0  0
  149.1597  135.5881  158.2791 H   0  0  0  0  0  0  0  0  0  0  0  0
  149.6392  137.2642  158.1406 H   0  0  0  0  0  0  0  0  0  0  0  0
  150.7399  135.9823  157.6411 H   0  0  0  0  0  0  0  0  0  0  0  0
  148.2502  138.9776  155.7544 H   0  0  0  0  0  0  0  0  0  0  0  0
  149.6702  139.0729  156.7837 H   0  0  0  0  0  0  0  0  0  0  0  0
  149.4836  139.7297  153.7855 H   0  0  0  0  0  0  0  0  0  0  0  0
  149.6786  140.8766  155.0954 H   0  0  0  0  0  0  0  0  0  0  0  0
  151.3093  138.2447  153.2616 H   0  0  0  0  0  0  0  0  0  0  0  0
  152.7935  138.3903  154.1846 H   0  0  0  0  0  0  0  0  0  0  0  0
  151.6840  137.5593  156.2257 H   0  0  0  0  0  0  0  0  0  0  0  0
  151.5329  136.4020  154.9219 H   0  0  0  0  0  0  0  0  0  0  0  0
  149.3533  137.3218  154.4738 H   0  0  0  0  0  0  0  0  0  0  0  0
  1  2  1  0  0  0  0
  1 22  1  0  0  0  0
  1 23  1  0  0  0  0
  1 24  1  0  0  0  0
  2  7  1  0  0  0  0
  2  3  2  0  0  0  0
  3  4  1  0  0  0  0
  3 25  1  0  0  0  0
  4  5  2  0  0  0  0
  4 26  1  0  0  0  0
  5  6  1  0  0  0  0
  5 27  1  0  0  0  0
  6  7  2  0  0  0  0
  7  8  1  0  0  0  0
  8  9  1  0  0  0  0
  8 28  1  0  0  0  0
  9 10  2  0  0  0  0
  9 11  1  0  0  0  0
 11 12  1  0  0  0  0
 11 29  1  0  0  0  0
 12 13  1  0  0  0  0
 12 30  1  0  0  0  0
 12 31  1  0  0  0  0
 13 14  1  0  0  0  0
 13 15  1  0  0  0  0
 13 16  1  0  0  0  0
 14 32  1  0  0  0  0
 14 33  1  0  0  0  0
 14 34  1  0  0  0  0
 15 35  1  0  0  0  0
 15 36  1  0  0  0  0
 15 37  1  0  0  0  0
 16 21  1  0  0  0  0
 16 17  1  0  0  0  0
 16 46  1  0  0  0  0
 17 18  1  0  0  0  0
 17 38  1  0  0  0  0
 17 39  1  0  0  0  0
 18 19  1  0  0  0  0
 18 40  1  0  0  0  0
 18 41  1  0  0  0  0
 19 20  1  0  0  0  0
 20 21  1  0  0  0  0
 20 42  1  0  0  0  0
 20 43  1  0  0  0  0
 21 44  1  0  0  0  0
 21 45  1  0  0  0  0
M  CHG  1  16   1
M  END
> <s_m_source_file>
AV-unprocessed.smi

> <i_m_source_file_index>
1714

> <i_lp_mmshare_version>
43012

> <i_f3d_flags>
0

> <s_epik_input>
W0NIM11jMVtjSF1bY0hdW2NIXW5jMVtOSF1DKD1PKVtOSF1bQ0gyXUMoW0NIM10pKFtDSDNdKU4yW0NIMl1bQ0gyXU9bQ0gyXVtDSDJdMg==

> <s_epik_cmdline>
J2VwaWtfcHl0aG9uJywgJy1waCcsICc3LjAnLCAnLXRuJywgJzgnLCAnLW1hJywgJzIwMCcsICctbWV0YWxfYmluZGluZycsICctaW1hZScsICc8aW5maWxlLm1hZT4nLCAnLW9tYWUnLCAnPG91dGZpbGUubWFlPic=

> <r_epik_Ionization_Penalty>
0.602574

> <r_epik_Ionization_Penalty_Charging>
0.602531

> <r_epik_Ionization_Penalty_Neutral>
4.31176e-05

> <r_epik_State_Penalty>
0.617039

> <r_epik_Charging_Adjusted_Penalty>
1.21957

> <i_epik_Tot_Q>
1

> <i_epik_Tot_abs_Q>
1

> <r_epik_Metal_State_Penalty>
0.617042

> <b_epik_Metal_Only>
0

> <s_lp_Force_Field>
OPLS_2005

> <r_lp_Energy>
27.6878

> <b_lp_Chiralities_Consistent>
1

> <s_lp_Variant>
AV-unprocessed.smi:1714-2

> <Gold.Version>
5.8.1

> <Gold.Id.Protein>
6NUR|6NUR_protein|mol2

> <Gold.PLP.Fitness>
40.2039

> <Gold.PLP.PLP>
-31.8735

> <Gold.PLP.part.hbond>
-3.0000

> <Gold.PLP.part.metal>
0.0000

> <Gold.PLP.part.buried>
-6.7427

> <Gold.PLP.part.nonpolar>
-22.3617

> <Gold.PLP.part.repulsive>
0.2417

> <Gold.PLP.ligand.clash>
0.0000

> <Gold.PLP.ligand.torsion>
0.3985

> <Gold.PLP.Chemscore.Hbond>
3.0000

> <Gold.PLP.Chemscore.CHOScore>
0.0000

> <Gold.PLP.Chemscore.Metal>
0.0000

> <Gold.Chemscore.Hbonds>
donor molecule, donor type, donor heavy atom, donor atom, acceptor molecule, acceptor atom, score
      L1  H     8    28       P1  7948  1.00
      L1  H    11    29       P1  7948  1.00
      P1  H  7989  7998       L1    19  0.95

> <Gold.PLP.Chemscore.Internal.Correction>
0.1273

> <Gold.Rescore>
     Score         DG    S(hbond)    S(metal)    S(lipo)     H(rot)  DE(clash)    DE(int)     intcor
     15.08     -16.41       1.90        0.00      71.91       1.49       0.01       1.32       ----

> <Gold.Chemscore.Fitness>
15.0799

> <Gold.Chemscore.DG>
-16.4142

> <Gold.Chemscore.ZeroCoef>
-5.4800

> <Gold.Chemscore.Hbond>
1.8992

> <Gold.Chemscore.Metal>
0.0000

> <Gold.Chemscore.Lipo>
71.9054

> <Gold.Chemscore.Internal_Hbond>
0.0000

> <Gold.Chemscore.DEClash>
0.0106

> <Gold.Chemscore.DEInternal>
1.3237

> <Gold.Chemscore.Rot>
1.4930

> <Gold.Chemscore.Internal.Correction>
   9.000000E+99

> <Gold.Chemscore.Hbonds>
donor molecule, donor type, donor heavy atom, donor atom, acceptor molecule, acceptor atom, score
      L1  H     8    28       P1  7948  0.78
      L1  H    11    29       P1  7948  0.91
      P1  H  7989  7998       L1    19  0.15

> <Gold.Chemscore.Hbond.Weighted>
-6.3433

> <Gold.Chemscore.Metal.Weighted>
-0.0000

> <Gold.Chemscore.Lipo.Weighted>
-8.4129

> <Gold.Chemscore.Internal_Hbond.Weighted>
0.0000

> <Gold.Chemscore.DEClash.Weighted>
0.0106

> <Gold.Chemscore.DEInternal.Weighted>
1.3237

> <Gold.Chemscore.Rot.Weighted>
3.8220

> <Gold.Chemscore.Internal.Correction.Weighted>
   9.000000E+99

> <Gold.Protein.RotatedTorsions>
[ 6907 6896 6895 6894 ] final  105.13 input  -60.11 | X-H torsion
[ 7974 7965 7964 7962 ] final  102.47 input  175.53 | X-H torsion
[ 8008 7997 7996 7995 ] final  -73.14 input   59.86 | X-H torsion
[ 10167 10162 10161 10158 ] final  -61.04 input  -65.29 | X-H torsion
[ 10718 10713 10712 10709 ] final  161.56 input   66.30 | X-H torsion
[ 10763 10752 10751 10750 ] final   89.68 input  -60.55 | X-H torsion
[ 11005 11000 10999 10996 ] final -129.56 input  -57.11 | X-H torsion

> <Gold.Protein.ActiveResidues>
 VAL166  LYS551  ARG553  GLY616  TRP617  ASP618  TYR619  PRO620  LYS621  CYS622 
 ASP623  PHE694  ASN695  SER759  ASP760  ASP761  ALA762  ILE779  LEU786  VAL792 
 PHE793  MET794  SER795  GLU796  ALA797  LYS798  CYS799  TRP800  GLU811  SER814 

> <Gold.Protein.RotatedAtoms>
  152.5241  133.9574  159.7700 H   0  0  0  0  0  0  0  0  0  0  0  0  # atno 6907 bound_to 6896
  150.9871  133.6178  159.2721 H   0  0  0  0  0  0  0  0  0  0  0  0  # atno 6908 bound_to 6896
  151.3335  135.0853  159.9400 H   0  0  0  0  0  0  0  0  0  0  0  0  # atno 6909 bound_to 6896
  145.3587  139.2423  143.3518 H   0  0  0  0  0  0  0  0  0  0  0  0  # atno 7974 bound_to 7965
  154.5223  140.0784  156.8194 H   0  0  0  0  0  0  0  0  0  0  0  0  # atno 8008 bound_to 7997
  155.3550  140.3415  155.4221 H   0  0  0  0  0  0  0  0  0  0  0  0  # atno 8009 bound_to 7997
  156.1694  140.1614  156.8461 H   0  0  0  0  0  0  0  0  0  0  0  0  # atno 8010 bound_to 7997
  140.6032  143.2366  151.5881 H   0  0  0  0  0  0  0  0  0  0  0  0  # atno 10167 bound_to 10162
  157.1349  131.0526  151.2354 H   0  0  0  0  0  0  0  0  0  0  0  0  # atno 10718 bound_to 10713
  153.1896  135.4461  155.0132 H   0  0  0  0  0  0  0  0  0  0  0  0  # atno 10763 bound_to 10752
  154.8082  135.3283  154.7379 H   0  0  0  0  0  0  0  0  0  0  0  0  # atno 10764 bound_to 10752
  153.7834  135.6976  153.4939 H   0  0  0  0  0  0  0  0  0  0  0  0  # atno 10765 bound_to 10752
  140.9421  134.1179  157.4141 H   0  0  0  0  0  0  0  0  0  0  0  0  # atno 11005 bound_to 11000
  146.2937  140.4217  142.8730 LP  0  0  0  0  0  0  0  0  0  0  0  0  # atno 17320 bound_to 7965
  144.8663  140.7210  143.6075 LP  0  0  0  0  0  0  0  0  0  0  0  0  # atno 17321 bound_to 7965
  139.5306  144.2928  152.1138 LP  0  0  0  0  0  0  0  0  0  0  0  0  # atno 17342 bound_to 10162
  140.2113  144.4560  150.6384 LP  0  0  0  0  0  0  0  0  0  0  0  0  # atno 17343 bound_to 10162
  157.4360  130.7517  149.7029 LP  0  0  0  0  0  0  0  0  0  0  0  0  # atno 17370 bound_to 10713
  155.9800  130.4034  150.3552 LP  0  0  0  0  0  0  0  0  0  0  0  0  # atno 17371 bound_to 10713
  139.8823  135.0040  156.6220 LP  0  0  0  0  0  0  0  0  0  0  0  0  # atno 17394 bound_to 11000
  140.7720  133.8731  155.8499 LP  0  0  0  0  0  0  0  0  0  0  0  0  # atno 17395 bound_to 11000

$$$$
