AV-unprocessed.smi:3321|AV-procd|sdf|12770|dock2
  -GOLD-   2272019113D 1   1.00000     0.00000
 Structure written by MMmdl.
 41 42  0  0  0  0  0  0  0  0  2 V2000
  147.2134  138.4541  155.8210 C   0  0  0  0  0  0  0  0  0  0  0  0
  147.9932  137.5009  154.9001 C   0  0  1  0  0  0  0  0  0  0  0  0
  147.5424  137.6961  153.5018 N   0  3  0  0  0  0  0  0  0  0  0  0
  146.1450  137.2964  153.2299 C   0  0  0  0  0  0  0  0  0  0  0  0
  145.8833  137.2151  151.7192 C   0  0  0  0  0  0  0  0  0  0  0  0
  145.4913  135.8805  151.3094 N   0  0  0  0  0  0  0  0  0  0  0  0
  144.4416  135.5050  150.4976 C   0  0  0  0  0  0  0  0  0  0  0  0
  144.4650  134.1428  150.4080 C   0  0  0  0  0  0  0  0  0  0  0  0
  145.5780  133.7700  151.2125 C   0  0  0  0  0  0  0  0  0  0  0  0
  146.1889  134.8125  151.7525 N   0  0  0  0  0  0  0  0  0  0  0  0
  149.5116  137.7377  155.0510 C   0  0  0  0  0  0  0  0  0  0  0  0
  150.2088  136.7941  155.4290 O   0  0  0  0  0  0  0  0  0  0  0  0
  150.0425  138.9543  154.7693 N   0  0  0  0  0  0  0  0  0  0  0  0
  149.3028  140.1440  154.3252 C   0  0  0  0  0  0  0  0  0  0  0  0
  149.2670  141.1606  155.4801 C   0  0  0  0  0  0  0  0  0  0  0  0
  150.6949  141.5139  155.9390 C   0  0  0  0  0  0  0  0  0  0  0  0
  151.5397  140.2520  156.2017 C   0  0  0  0  0  0  0  0  0  0  0  0
  151.4558  139.2721  155.0160 C   0  0  0  0  0  0  0  0  0  0  0  0
  147.4993  138.3330  156.8664 H   0  0  0  0  0  0  0  0  0  0  0  0
  146.1410  138.2684  155.7560 H   0  0  0  0  0  0  0  0  0  0  0  0
  147.3847  139.4974  155.5526 H   0  0  0  0  0  0  0  0  0  0  0  0
  147.7427  136.4726  155.1597 H   0  0  0  0  0  0  0  0  0  0  0  0
  147.6254  138.6781  153.2814 H   0  0  0  0  0  0  0  0  0  0  0  0
  145.9396  136.3293  153.6902 H   0  0  0  0  0  0  0  0  0  0  0  0
  145.4721  138.0210  153.6904 H   0  0  0  0  0  0  0  0  0  0  0  0
  145.0951  137.9107  151.4277 H   0  0  0  0  0  0  0  0  0  0  0  0
  146.7786  137.4986  151.1645 H   0  0  0  0  0  0  0  0  0  0  0  0
  143.7720  136.2288  150.0563 H   0  0  0  0  0  0  0  0  0  0  0  0
  143.7888  133.5086  149.8542 H   0  0  0  0  0  0  0  0  0  0  0  0
  145.9561  132.7800  151.4206 H   0  0  0  0  0  0  0  0  0  0  0  0
  149.8145  140.5812  153.4664 H   0  0  0  0  0  0  0  0  0  0  0  0
  148.2950  139.9362  153.9724 H   0  0  0  0  0  0  0  0  0  0  0  0
  148.7415  142.0642  155.1699 H   0  0  0  0  0  0  0  0  0  0  0  0
  148.7038  140.7448  156.3167 H   0  0  0  0  0  0  0  0  0  0  0  0
  151.1793  142.1096  155.1643 H   0  0  0  0  0  0  0  0  0  0  0  0
  150.6616  142.1394  156.8317 H   0  0  0  0  0  0  0  0  0  0  0  0
  152.5776  140.5299  156.3873 H   0  0  0  0  0  0  0  0  0  0  0  0
  151.1849  139.7576  157.1072 H   0  0  0  0  0  0  0  0  0  0  0  0
  152.0632  138.3899  155.2225 H   0  0  0  0  0  0  0  0  0  0  0  0
  151.8890  139.7245  154.1226 H   0  0  0  0  0  0  0  0  0  0  0  0
  148.1589  137.1753  152.8939 H   0  0  0  0  0  0  0  0  0  0  0  0
  1  2  1  0  0  0  0
  1 19  1  0  0  0  0
  1 20  1  0  0  0  0
  1 21  1  0  0  0  0
  2  3  1  0  0  0  0
  2 11  1  0  0  0  0
  2 22  1  0  0  0  0
  3  4  1  0  0  0  0
  3 23  1  0  0  0  0
  3 41  1  0  0  0  0
  4  5  1  0  0  0  0
  4 24  1  0  0  0  0
  4 25  1  0  0  0  0
  5  6  1  0  0  0  0
  5 26  1  0  0  0  0
  5 27  1  0  0  0  0
  6 10  1  0  0  0  0
  6  7  1  0  0  0  0
  7  8  2  0  0  0  0
  7 28  1  0  0  0  0
  8  9  1  0  0  0  0
  8 29  1  0  0  0  0
  9 10  2  0  0  0  0
  9 30  1  0  0  0  0
 11 12  2  0  0  0  0
 11 13  1  0  0  0  0
 13 18  1  0  0  0  0
 13 14  1  0  0  0  0
 14 15  1  0  0  0  0
 14 31  1  0  0  0  0
 14 32  1  0  0  0  0
 15 16  1  0  0  0  0
 15 33  1  0  0  0  0
 15 34  1  0  0  0  0
 16 17  1  0  0  0  0
 16 35  1  0  0  0  0
 16 36  1  0  0  0  0
 17 18  1  0  0  0  0
 17 37  1  0  0  0  0
 17 38  1  0  0  0  0
 18 39  1  0  0  0  0
 18 40  1  0  0  0  0
M  CHG  1   3   1
M  END
> <s_m_source_file>
AV-unprocessed.smi

> <i_m_source_file_index>
3321

> <i_lp_mmshare_version>
43012

> <i_f3d_flags>
0

> <s_epik_input>
W0NIMl0xW0NIMl1bQ0gyXVtDSDJdW0NIMl1OMUMoPU8pW0NASF0oW0NIM10pW05IXVtDSDJdW0NIMl1uMltjSF1bY0hdW2NIXW4y

> <s_epik_cmdline>
J2VwaWtfcHl0aG9uJywgJy1waCcsICc3LjAnLCAnLXRuJywgJzgnLCAnLW1hJywgJzIwMCcsICctbWV0YWxfYmluZGluZycsICctaW1hZScsICc8aW5maWxlLm1hZT4nLCAnLW9tYWUnLCAnPG91dGZpbGUubWFlPic=

> <r_lp_tautomer_probability>
1

> <r_epik_Ionization_Penalty>
0.202061

> <r_epik_Ionization_Penalty_Charging>
0.202058

> <r_epik_Ionization_Penalty_Neutral>
2.46932e-06

> <r_epik_State_Penalty>
0.191938

> <r_epik_Charging_Adjusted_Penalty>
0.393996

> <i_epik_Tot_Q>
1

> <i_epik_Tot_abs_Q>
1

> <r_epik_Metal_State_Penalty>
0.192188

> <b_epik_Metal_Only>
0

> <s_lp_Force_Field>
OPLS_2005

> <r_lp_Energy>
26.1916

> <b_lp_Chiralities_Consistent>
1

> <s_lp_Variant>
AV-unprocessed.smi:3321-2

> <Gold.Version>
5.8.1

> <Gold.Id.Protein>
6NUR|6NUR_protein|mol2

> <Gold.PLP.Fitness>
38.6266

> <Gold.PLP.PLP>
-30.7693

> <Gold.PLP.part.hbond>
-1.0000

> <Gold.PLP.part.metal>
0.0000

> <Gold.PLP.part.buried>
-2.4491

> <Gold.PLP.part.nonpolar>
-27.7889

> <Gold.PLP.part.repulsive>
0.5286

> <Gold.PLP.ligand.clash>
0.0000

> <Gold.PLP.ligand.torsion>
0.6081

> <Gold.PLP.Chemscore.Hbond>
2.0000

> <Gold.PLP.Chemscore.CHOScore>
1.0000

> <Gold.PLP.Chemscore.Metal>
0.0000

> <Gold.Chemscore.Hbonds>
donor molecule, donor type, donor heavy atom, donor atom, acceptor molecule, acceptor atom, score
      L1  H     3    41       P1  7948  2.00
      L1  C     7    28       P1 10171  1.00

> <Gold.PLP.Chemscore.Internal.Correction>
0.0735

> <Gold.Rescore>
     Score         DG    S(hbond)    S(metal)    S(lipo)     H(rot)  DE(clash)    DE(int)     intcor
     11.38     -11.94       0.99        0.00      66.16       1.79       0.02       0.53       ----

> <Gold.Chemscore.Fitness>
11.3806

> <Gold.Chemscore.DG>
-11.9359

> <Gold.Chemscore.ZeroCoef>
-5.4800

> <Gold.Chemscore.Hbond>
0.9893

> <Gold.Chemscore.Metal>
0.0000

> <Gold.Chemscore.Lipo>
66.1627

> <Gold.Chemscore.Internal_Hbond>
0.0000

> <Gold.Chemscore.DEClash>
0.0231

> <Gold.Chemscore.DEInternal>
0.5323

> <Gold.Chemscore.Rot>
1.7928

> <Gold.Chemscore.Internal.Correction>
   9.000000E+99

> <Gold.Chemscore.Hbonds>
donor molecule, donor type, donor heavy atom, donor atom, acceptor molecule, acceptor atom, score
      L1  H     3    41       P1  7948  0.99

> <Gold.Chemscore.Hbond.Weighted>
-3.3044

> <Gold.Chemscore.Metal.Weighted>
-0.0000

> <Gold.Chemscore.Lipo.Weighted>
-7.7410

> <Gold.Chemscore.Internal_Hbond.Weighted>
0.0000

> <Gold.Chemscore.DEClash.Weighted>
0.0231

> <Gold.Chemscore.DEInternal.Weighted>
0.5323

> <Gold.Chemscore.Rot.Weighted>
4.5895

> <Gold.Chemscore.Internal.Correction.Weighted>
   9.000000E+99

> <Gold.Protein.RotatedTorsions>
[ 6907 6896 6895 6894 ] final   93.60 input  -60.11 | X-H torsion
[ 7974 7965 7964 7962 ] final  167.83 input  175.53 | X-H torsion
[ 8008 7997 7996 7995 ] final   77.45 input   59.86 | X-H torsion
[ 10167 10162 10161 10158 ] final -177.27 input  -65.29 | X-H torsion
[ 10718 10713 10712 10709 ] final   79.45 input   66.30 | X-H torsion
[ 10763 10752 10751 10750 ] final -151.78 input  -60.55 | X-H torsion
[ 11005 11000 10999 10996 ] final -117.00 input  -57.11 | X-H torsion

> <Gold.Protein.ActiveResidues>
 VAL166  LYS551  ARG553  GLY616  TRP617  ASP618  TYR619  PRO620  LYS621  CYS622 
 ASP623  PHE694  ASN695  SER759  ASP760  ASP761  ALA762  ILE779  LEU786  VAL792 
 PHE793  MET794  SER795  GLU796  ALA797  LYS798  CYS799  TRP800  GLU811  SER814 

> <Gold.Protein.RotatedAtoms>
  152.5452  134.1323  159.8443 H   0  0  0  0  0  0  0  0  0  0  0  0  # atno 6907 bound_to 6896
  151.1367  133.4992  159.2605 H   0  0  0  0  0  0  0  0  0  0  0  0  # atno 6908 bound_to 6896
  151.1616  135.0286  159.8767 H   0  0  0  0  0  0  0  0  0  0  0  0  # atno 6909 bound_to 6896
  144.7410  139.8819  143.6397 H   0  0  0  0  0  0  0  0  0  0  0  0  # atno 7974 bound_to 7965
  155.8417  140.3462  155.5636 H   0  0  0  0  0  0  0  0  0  0  0  0  # atno 8008 bound_to 7997
  155.8133  140.0902  157.1911 H   0  0  0  0  0  0  0  0  0  0  0  0  # atno 8009 bound_to 7997
  154.4005  140.1443  156.3400 H   0  0  0  0  0  0  0  0  0  0  0  0  # atno 8010 bound_to 7997
  139.5488  144.2163  152.1039 H   0  0  0  0  0  0  0  0  0  0  0  0  # atno 10167 bound_to 10162
  157.6777  130.9915  150.1934 H   0  0  0  0  0  0  0  0  0  0  0  0  # atno 10718 bound_to 10713
  154.8036  135.3251  154.7488 H   0  0  0  0  0  0  0  0  0  0  0  0  # atno 10763 bound_to 10752
  153.8151  135.6892  153.4839 H   0  0  0  0  0  0  0  0  0  0  0  0  # atno 10764 bound_to 10752
  153.1767  135.4602  154.9918 H   0  0  0  0  0  0  0  0  0  0  0  0  # atno 10765 bound_to 10752
  141.0384  133.9874  157.3034 H   0  0  0  0  0  0  0  0  0  0  0  0  # atno 11005 bound_to 11000
  146.1205  139.4223  143.0231 LP  0  0  0  0  0  0  0  0  0  0  0  0  # atno 17320 bound_to 7965
  145.7311  141.0042  143.1351 LP  0  0  0  0  0  0  0  0  0  0  0  0  # atno 17321 bound_to 7965
  140.1655  144.4985  150.6608 LP  0  0  0  0  0  0  0  0  0  0  0  0  # atno 17342 bound_to 10162
  140.6745  143.2299  151.5542 LP  0  0  0  0  0  0  0  0  0  0  0  0  # atno 17343 bound_to 10162
  156.2640  130.3714  149.8100 LP  0  0  0  0  0  0  0  0  0  0  0  0  # atno 17370 bound_to 10713
  156.5837  130.8476  151.3390 LP  0  0  0  0  0  0  0  0  0  0  0  0  # atno 17371 bound_to 10713
  139.9257  135.0201  156.8227 LP  0  0  0  0  0  0  0  0  0  0  0  0  # atno 17394 bound_to 11000
  140.6280  133.9932  155.7648 LP  0  0  0  0  0  0  0  0  0  0  0  0  # atno 17395 bound_to 11000

$$$$
