AV-unprocessed.smi:900|AV-procd|sdf|4089|dock8
  -GOLD-   22720 1573D 1   1.00000     0.00000
 Structure written by MMmdl.
 33 34  0  0  0  0  0  0  0  0  1 V2000
  146.8219  138.5747  152.2979 C   0  0  0  0  0  0  0  0  0  0  0  0
  147.6760  139.6926  152.6677 N   0  0  0  0  0  0  0  0  0  0  0  0
  147.6488  140.3010  153.8628 C   0  0  0  0  0  0  0  0  0  0  0  0
  146.9025  139.9576  154.7794 O   0  0  0  0  0  0  0  0  0  0  0  0
  148.6090  141.4763  154.0564 C   0  0  0  0  0  0  0  0  0  0  0  0
  149.7067  141.1058  155.0015 C   0  0  0  0  0  0  0  0  0  0  0  0
  150.6188  140.1960  154.6784 N   0  0  0  0  0  0  0  0  0  0  0  0
  151.4291  140.1297  155.8207 O   0  0  0  0  0  0  0  0  0  0  0  0
  150.9162  141.0322  156.6908 C   0  0  0  0  0  0  0  0  0  0  0  0
  151.5297  141.1551  158.0462 C   0  0  0  0  0  0  0  0  0  0  0  0
  151.4111  142.5733  158.6316 C   0  0  0  0  0  0  0  0  0  0  0  0
  151.6913  143.7015  157.6336 C   0  0  0  0  0  0  0  0  0  0  0  0
  152.0131  144.9256  158.4976 C   0  0  0  0  0  0  0  0  0  0  0  0
  152.4705  144.3833  159.8608 C   0  0  0  0  0  0  0  0  0  0  0  0
  152.4022  142.8554  159.7626 C   0  0  0  0  0  0  0  0  0  0  0  0
  149.8375  141.6654  156.2367 N   0  0  0  0  0  0  0  0  0  0  0  0
  147.1055  138.2002  151.3143 H   0  0  0  0  0  0  0  0  0  0  0  0
  145.7776  138.8862  152.2566 H   0  0  0  0  0  0  0  0  0  0  0  0
  146.9138  137.7565  153.0137 H   0  0  0  0  0  0  0  0  0  0  0  0
  148.3173  140.0364  151.9670 H   0  0  0  0  0  0  0  0  0  0  0  0
  149.0321  141.7703  153.0945 H   0  0  0  0  0  0  0  0  0  0  0  0
  148.0674  142.3414  154.4414 H   0  0  0  0  0  0  0  0  0  0  0  0
  151.0420  140.4397  158.7092 H   0  0  0  0  0  0  0  0  0  0  0  0
  152.5766  140.8558  157.9844 H   0  0  0  0  0  0  0  0  0  0  0  0
  150.4026  142.7095  159.0267 H   0  0  0  0  0  0  0  0  0  0  0  0
  152.5601  143.4499  157.0237 H   0  0  0  0  0  0  0  0  0  0  0  0
  150.8549  143.8805  156.9568 H   0  0  0  0  0  0  0  0  0  0  0  0
  152.7737  145.5526  158.0311 H   0  0  0  0  0  0  0  0  0  0  0  0
  151.1201  145.5383  158.6269 H   0  0  0  0  0  0  0  0  0  0  0  0
  153.4756  144.7199  160.1174 H   0  0  0  0  0  0  0  0  0  0  0  0
  151.7987  144.7398  160.6427 H   0  0  0  0  0  0  0  0  0  0  0  0
  152.1053  142.3911  160.7034 H   0  0  0  0  0  0  0  0  0  0  0  0
  153.3867  142.4658  159.4991 H   0  0  0  0  0  0  0  0  0  0  0  0
  1  2  1  0  0  0  0
  1 17  1  0  0  0  0
  1 18  1  0  0  0  0
  1 19  1  0  0  0  0
  2  3  1  0  0  0  0
  2 20  1  0  0  0  0
  3  4  2  0  0  0  0
  3  5  1  0  0  0  0
  5  6  1  0  0  0  0
  5 21  1  0  0  0  0
  5 22  1  0  0  0  0
  6 16  1  0  0  0  0
  6  7  2  0  0  0  0
  7  8  1  0  0  0  0
  8  9  1  0  0  0  0
  9 10  1  0  0  0  0
  9 16  2  0  0  0  0
 10 11  1  0  0  0  0
 10 23  1  0  0  0  0
 10 24  1  0  0  0  0
 11 15  1  0  0  0  0
 11 12  1  0  0  0  0
 11 25  1  0  0  0  0
 12 13  1  0  0  0  0
 12 26  1  0  0  0  0
 12 27  1  0  0  0  0
 13 14  1  0  0  0  0
 13 28  1  0  0  0  0
 13 29  1  0  0  0  0
 14 15  1  0  0  0  0
 14 30  1  0  0  0  0
 14 31  1  0  0  0  0
 15 32  1  0  0  0  0
 15 33  1  0  0  0  0
M  END
> <s_m_source_file>
AV-unprocessed.smi

> <i_m_source_file_index>
900

> <i_lp_mmshare_version>
43012

> <i_f3d_flags>
0

> <s_epik_input>
W0NIM11bTkhdQyg9TylbQ0gyXWMxbm9jKG4xKVtDSDJdW0NIXTJbQ0gyXVtDSDJdW0NIMl1bQ0gyXTI=

> <s_epik_cmdline>
J2VwaWtfcHl0aG9uJywgJy1waCcsICc3LjAnLCAnLXRuJywgJzgnLCAnLW1hJywgJzIwMCcsICctbWV0YWxfYmluZGluZycsICctaW1hZScsICc8aW5maWxlLm1hZT4nLCAnLW9tYWUnLCAnPG91dGZpbGUubWFlPic=

> <r_lp_tautomer_probability>
1

> <r_epik_Ionization_Penalty>
1.02915e-07

> <r_epik_Ionization_Penalty_Charging>
0

> <r_epik_Ionization_Penalty_Neutral>
1.02915e-07

> <r_epik_State_Penalty>
-0

> <r_epik_Charging_Adjusted_Penalty>
0

> <i_epik_Tot_Q>
0

> <i_epik_Tot_abs_Q>
0

> <r_epik_Metal_State_Penalty>
-0

> <b_epik_Metal_Only>
0

> <s_lp_Force_Field>
OPLS_2005

> <r_lp_Energy>
19.3932

> <b_lp_Chiralities_Consistent>
1

> <s_lp_Variant>
AV-unprocessed.smi:900-1

> <Gold.Version>
5.8.1

> <Gold.Id.Protein>
6NUR|6NUR_protein|mol2

> <Gold.PLP.Fitness>
42.1153

> <Gold.PLP.PLP>
-37.5409

> <Gold.PLP.part.hbond>
-1.9943

> <Gold.PLP.part.metal>
0.0000

> <Gold.PLP.part.buried>
-4.3071

> <Gold.PLP.part.nonpolar>
-31.7178

> <Gold.PLP.part.repulsive>
0.3644

> <Gold.PLP.ligand.clash>
0.0000

> <Gold.PLP.ligand.torsion>
0.6855

> <Gold.PLP.Chemscore.Hbond>
1.9760

> <Gold.PLP.Chemscore.CHOScore>
0.0000

> <Gold.PLP.Chemscore.Metal>
0.0000

> <Gold.Chemscore.Hbonds>
donor molecule, donor type, donor heavy atom, donor atom, acceptor molecule, acceptor atom, score
      L1  H     2    20       P1  7957  0.93
      P1  H  7989  7998       L1     7  1.00

> <Gold.PLP.Chemscore.Internal.Correction>
0.0175

> <Gold.Rescore>
     Score         DG    S(hbond)    S(metal)    S(lipo)     H(rot)  DE(clash)    DE(int)     intcor
     15.26     -16.01       1.71        0.00      82.00       1.87       0.03       0.71       ----

> <Gold.Chemscore.Fitness>
15.2632

> <Gold.Chemscore.DG>
-16.0086

> <Gold.Chemscore.ZeroCoef>
-5.4800

> <Gold.Chemscore.Hbond>
1.7150

> <Gold.Chemscore.Metal>
0.0000

> <Gold.Chemscore.Lipo>
82.0049

> <Gold.Chemscore.Internal_Hbond>
0.0000

> <Gold.Chemscore.DEClash>
0.0331

> <Gold.Chemscore.DEInternal>
0.7123

> <Gold.Chemscore.Rot>
1.8727

> <Gold.Chemscore.Internal.Correction>
   9.000000E+99

> <Gold.Chemscore.Hbonds>
donor molecule, donor type, donor heavy atom, donor atom, acceptor molecule, acceptor atom, score
      L1  H     2    20       P1  7957  0.87
      P1  H  7989  7998       L1     7  0.29

> <Gold.Chemscore.Hbond.Weighted>
-5.7280

> <Gold.Chemscore.Metal.Weighted>
-0.0000

> <Gold.Chemscore.Lipo.Weighted>
-9.5946

> <Gold.Chemscore.Internal_Hbond.Weighted>
0.0000

> <Gold.Chemscore.DEClash.Weighted>
0.0331

> <Gold.Chemscore.DEInternal.Weighted>
0.7123

> <Gold.Chemscore.Rot.Weighted>
4.7940

> <Gold.Chemscore.Internal.Correction.Weighted>
   9.000000E+99

> <Gold.Protein.RotatedTorsions>
[ 6907 6896 6895 6894 ] final   87.44 input  -60.11 | X-H torsion
[ 7974 7965 7964 7962 ] final  -20.49 input  175.53 | X-H torsion
[ 8008 7997 7996 7995 ] final   40.78 input   59.86 | X-H torsion
[ 10167 10162 10161 10158 ] final    9.23 input  -65.29 | X-H torsion
[ 10718 10713 10712 10709 ] final   87.55 input   66.30 | X-H torsion
[ 10763 10752 10751 10750 ] final  -56.15 input  -60.55 | X-H torsion
[ 11005 11000 10999 10996 ] final  128.91 input  -57.11 | X-H torsion

> <Gold.Protein.ActiveResidues>
 VAL166  LYS551  ARG553  GLY616  TRP617  ASP618  TYR619  PRO620  LYS621  CYS622 
 ASP623  PHE694  ASN695  SER759  ASP760  ASP761  ALA762  ILE779  LEU786  VAL792 
 PHE793  MET794  SER795  GLU796  ALA797  LYS798  CYS799  TRP800  GLU811  SER814 

> <Gold.Protein.RotatedAtoms>
  152.5411  134.2276  159.8812 H   0  0  0  0  0  0  0  0  0  0  0  0  # atno 6907 bound_to 6896
  151.2250  133.4474  159.2609 H   0  0  0  0  0  0  0  0  0  0  0  0  # atno 6908 bound_to 6896
  151.0769  134.9847  159.8392 H   0  0  0  0  0  0  0  0  0  0  0  0  # atno 6909 bound_to 6896
  146.1785  140.4209  142.8504 H   0  0  0  0  0  0  0  0  0  0  0  0  # atno 7974 bound_to 7965
  155.2588  140.3358  155.4275 H   0  0  0  0  0  0  0  0  0  0  0  0  # atno 8008 bound_to 7997
  156.2184  140.1798  156.7579 H   0  0  0  0  0  0  0  0  0  0  0  0  # atno 8009 bound_to 7997
  154.5787  140.0657  156.9057 H   0  0  0  0  0  0  0  0  0  0  0  0  # atno 8010 bound_to 7997
  140.6267  143.8085  150.7242 H   0  0  0  0  0  0  0  0  0  0  0  0  # atno 10167 bound_to 10162
  157.6941  131.0260  150.3140 H   0  0  0  0  0  0  0  0  0  0  0  0  # atno 10718 bound_to 10713
  154.2022  135.6409  153.5090 H   0  0  0  0  0  0  0  0  0  0  0  0  # atno 10763 bound_to 10752
  153.0009  135.5454  154.6304 H   0  0  0  0  0  0  0  0  0  0  0  0  # atno 10764 bound_to 10752
  154.5719  135.2917  155.0792 H   0  0  0  0  0  0  0  0  0  0  0  0  # atno 10765 bound_to 10752
  139.9586  134.9607  156.9071 H   0  0  0  0  0  0  0  0  0  0  0  0  # atno 11005 bound_to 11000
  144.8276  140.6654  143.6312 LP  0  0  0  0  0  0  0  0  0  0  0  0  # atno 17320 bound_to 7965
  145.4143  139.1574  143.4109 LP  0  0  0  0  0  0  0  0  0  0  0  0  # atno 17321 bound_to 7965
  140.1687  143.4213  152.2016 LP  0  0  0  0  0  0  0  0  0  0  0  0  # atno 17342 bound_to 10162
  139.5486  144.7319  151.4504 LP  0  0  0  0  0  0  0  0  0  0  0  0  # atno 17343 bound_to 10162
  156.3637  130.3851  149.7231 LP  0  0  0  0  0  0  0  0  0  0  0  0  # atno 17370 bound_to 10713
  156.4668  130.7978  151.2997 LP  0  0  0  0  0  0  0  0  0  0  0  0  # atno 17371 bound_to 10713
  140.5551  134.0589  155.7381 LP  0  0  0  0  0  0  0  0  0  0  0  0  # atno 17394 bound_to 11000
  141.1261  133.9380  157.2632 LP  0  0  0  0  0  0  0  0  0  0  0  0  # atno 17395 bound_to 11000

$$$$
