AV-unprocessed.smi:176|AV-procd|sdf|1433|dock2
  -GOLD-   2262019213D 1   1.00000     0.00000
 Structure written by MMmdl.
 57 61  0  0  0  0  0  0  0  0  1 V2000
  148.2852  132.0603  152.8518 O   0  0  0  0  0  0  0  0  0  0  0  0
  149.4003  132.8257  153.2600 C   0  0  0  0  0  0  0  0  0  0  0  0
  149.4039  133.0692  154.7794 C   0  0  0  0  0  0  0  0  0  0  0  0
  149.1401  131.7348  155.5094 C   0  0  0  0  0  0  0  0  0  0  0  0
  147.8746  131.1920  155.1931 O   0  0  0  0  0  0  0  0  0  0  0  0
  150.6413  133.8334  155.3031 C   0  0  0  0  0  0  0  0  0  0  0  0
  149.7393  134.6260  156.2520 C   0  0  0  0  0  0  0  0  0  0  0  0
  150.0569  135.9771  156.6096 N   0  0  0  0  0  0  0  0  0  0  0  0
  150.0688  136.5214  157.8747 C   0  0  0  0  0  0  0  0  0  0  0  0
  150.4346  137.7726  157.9383 N   0  0  0  0  0  0  0  0  0  0  0  0
  150.7259  138.1089  156.6215 C   0  0  0  0  0  0  0  0  0  0  0  0
  151.1921  139.2913  155.9806 C   0  0  0  0  0  0  0  0  0  0  0  0
  151.4278  140.4449  156.6553 N   0  0  0  0  0  0  0  0  0  0  0  0
  150.6014  141.6074  156.3252 C   0  0  0  0  0  0  0  0  0  0  0  0
  151.2142  142.9036  156.8896 C   0  0  0  0  0  0  0  0  0  0  0  0
  151.5080  142.7932  158.4010 C   0  0  2  0  0  0  0  0  0  0  0  0
  150.2621  142.6882  159.0712 O   0  0  0  0  0  0  0  0  0  0  0  0
  152.2221  144.0532  158.9391 C   0  0  0  0  0  0  0  0  0  0  0  0
  152.6164  143.9138  160.4223 C   0  0  0  0  0  0  0  0  0  0  0  0
  153.4500  142.6465  160.6717 C   0  0  0  0  0  0  0  0  0  0  0  0
  152.7347  141.3877  160.1534 C   0  0  0  0  0  0  0  0  0  0  0  0
  152.3735  141.5325  158.6624 C   0  0  1  0  0  0  0  0  0  0  0  0
  151.7173  140.2672  158.0780 C   0  0  0  0  0  0  0  0  0  0  0  0
  151.4018  139.2335  154.6379 N   0  0  0  0  0  0  0  0  0  0  0  0
  151.1633  138.1036  153.9654 C   0  0  0  0  0  0  0  0  0  0  0  0
  150.7188  136.9341  154.4292 N   0  0  0  0  0  0  0  0  0  0  0  0
  150.5113  136.9838  155.7762 C   0  0  0  0  0  0  0  0  0  0  0  0
  148.6077  134.2984  155.2756 C   0  0  0  0  0  0  0  0  0  0  0  0
  148.4446  131.7379  151.9780 H   0  0  0  0  0  0  0  0  0  0  0  0
  150.3126  132.3247  152.9349 H   0  0  0  0  0  0  0  0  0  0  0  0
  149.3609  133.7703  152.7167 H   0  0  0  0  0  0  0  0  0  0  0  0
  149.9055  130.9968  155.2682 H   0  0  0  0  0  0  0  0  0  0  0  0
  149.1784  131.8638  156.5912 H   0  0  0  0  0  0  0  0  0  0  0  0
  147.4826  131.7187  154.5136 H   0  0  0  0  0  0  0  0  0  0  0  0
  151.3882  133.2153  155.8026 H   0  0  0  0  0  0  0  0  0  0  0  0
  151.1076  134.4702  154.5489 H   0  0  0  0  0  0  0  0  0  0  0  0
  149.6018  134.0908  157.1931 H   0  0  0  0  0  0  0  0  0  0  0  0
  149.7919  135.9618  158.7563 H   0  0  0  0  0  0  0  0  0  0  0  0
  150.5022  141.6985  155.2427 H   0  0  0  0  0  0  0  0  0  0  0  0
  149.5977  141.4617  156.7272 H   0  0  0  0  0  0  0  0  0  0  0  0
  152.1418  143.1137  156.3550 H   0  0  0  0  0  0  0  0  0  0  0  0
  150.5505  143.7455  156.6891 H   0  0  0  0  0  0  0  0  0  0  0  0
  149.5787  142.9483  158.4727 H   0  0  0  0  0  0  0  0  0  0  0  0
  153.1237  144.2358  158.3529 H   0  0  0  0  0  0  0  0  0  0  0  0
  151.5915  144.9334  158.8053 H   0  0  0  0  0  0  0  0  0  0  0  0
  153.1783  144.7930  160.7383 H   0  0  0  0  0  0  0  0  0  0  0  0
  151.7194  143.8876  161.0420 H   0  0  0  0  0  0  0  0  0  0  0  0
  154.4163  142.7445  160.1755 H   0  0  0  0  0  0  0  0  0  0  0  0
  153.6599  142.5433  161.7367 H   0  0  0  0  0  0  0  0  0  0  0  0
  153.3782  140.5191  160.2969 H   0  0  0  0  0  0  0  0  0  0  0  0
  151.8359  141.2029  160.7430 H   0  0  0  0  0  0  0  0  0  0  0  0
  153.3149  141.6668  158.1261 H   0  0  0  0  0  0  0  0  0  0  0  0
  150.7867  140.0448  158.6020 H   0  0  0  0  0  0  0  0  0  0  0  0
  152.3746  139.4139  158.2409 H   0  0  0  0  0  0  0  0  0  0  0  0
  151.3561  138.1430  152.9036 H   0  0  0  0  0  0  0  0  0  0  0  0
  148.4857  135.0591  154.5020 H   0  0  0  0  0  0  0  0  0  0  0  0
  147.6535  134.0714  155.7519 H   0  0  0  0  0  0  0  0  0  0  0  0
  1  2  1  0  0  0  0
  1 29  1  0  0  0  0
  2  3  1  0  0  0  0
  2 30  1  0  0  0  0
  2 31  1  0  0  0  0
  3 28  1  0  0  0  0
  3  4  1  0  0  0  0
  3  6  1  0  0  0  0
  4  5  1  0  0  0  0
  4 32  1  0  0  0  0
  4 33  1  0  0  0  0
  5 34  1  0  0  0  0
  6  7  1  0  0  0  0
  6 35  1  0  0  0  0
  6 36  1  0  0  0  0
  7  8  1  0  0  0  0
  7 28  1  0  0  0  0
  7 37  1  0  0  0  0
  8 27  1  0  0  0  0
  8  9  1  0  0  0  0
  9 10  2  0  0  0  0
  9 38  1  0  0  0  0
 10 11  1  0  0  0  0
 11 27  2  0  0  0  0
 11 12  1  0  0  0  0
 12 13  1  0  0  0  0
 12 24  2  0  0  0  0
 13 23  1  0  0  0  0
 13 14  1  0  0  0  0
 14 15  1  0  0  0  0
 14 39  1  0  0  0  0
 14 40  1  0  0  0  0
 15 16  1  0  0  0  0
 15 41  1  0  0  0  0
 15 42  1  0  0  0  0
 16 22  1  0  0  0  0
 16 17  1  0  0  0  0
 16 18  1  0  0  0  0
 17 43  1  0  0  0  0
 18 19  1  0  0  0  0
 18 44  1  0  0  0  0
 18 45  1  0  0  0  0
 19 20  1  0  0  0  0
 19 46  1  0  0  0  0
 19 47  1  0  0  0  0
 20 21  1  0  0  0  0
 20 48  1  0  0  0  0
 20 49  1  0  0  0  0
 21 22  1  0  0  0  0
 21 50  1  0  0  0  0
 21 51  1  0  0  0  0
 22 23  1  0  0  0  0
 22 52  1  0  0  0  0
 23 53  1  0  0  0  0
 23 54  1  0  0  0  0
 24 25  1  0  0  0  0
 25 26  2  0  0  0  0
 25 55  1  0  0  0  0
 26 27  1  0  0  0  0
 28 56  1  0  0  0  0
 28 57  1  0  0  0  0
M  END
> <s_m_source_file>
AV-unprocessed.smi

> <i_m_source_file_index>
176

> <i_lp_mmshare_version>
43012

> <i_f3d_flags>
0

> <s_epik_input>
W09IXVtDSDJdQzEoW0NIMl1bT0hdKVtDSDJdW0NIXShbQ0gyXTEpbihbY0hdbjIpYyhjMjMpbltjSF1uYzNOKFtDSDJdW0NIMl00KVtDSDJdW0NAQEhdKFtDQF00NVtPSF0pW0NIMl1bQ0gyXVtDSDJdW0NIMl01

> <s_epik_cmdline>
J2VwaWtfcHl0aG9uJywgJy1waCcsICc3LjAnLCAnLXRuJywgJzgnLCAnLW1hJywgJzIwMCcsICctbWV0YWxfYmluZGluZycsICctaW1hZScsICc8aW5maWxlLm1hZT4nLCAnLW9tYWUnLCAnPG91dGZpbGUubWFlPic=

> <r_lp_tautomer_probability>
1

> <r_epik_Ionization_Penalty>
0.00642876

> <r_epik_Ionization_Penalty_Charging>
0

> <r_epik_Ionization_Penalty_Neutral>
0.00642876

> <r_epik_State_Penalty>
0.00467813

> <r_epik_Charging_Adjusted_Penalty>
0.00467813

> <i_epik_Tot_Q>
0

> <i_epik_Tot_abs_Q>
0

> <r_epik_Metal_State_Penalty>
-0

> <b_epik_Metal_Only>
0

> <s_lp_Force_Field>
OPLS_2005

> <r_lp_Energy>
51.6301

> <b_lp_Chiralities_Consistent>
1

> <s_lp_Variant>
AV-unprocessed.smi:176-1

> <Gold.Version>
5.8.1

> <Gold.Id.Protein>
6NUR|6NUR_protein|mol2

> <Gold.PLP.Fitness>
51.1286

> <Gold.PLP.PLP>
-43.6359

> <Gold.PLP.part.hbond>
-2.5053

> <Gold.PLP.part.metal>
0.0000

> <Gold.PLP.part.buried>
-7.9283

> <Gold.PLP.part.nonpolar>
-34.0524

> <Gold.PLP.part.repulsive>
0.4189

> <Gold.PLP.ligand.clash>
0.0000

> <Gold.PLP.ligand.torsion>
0.8143

> <Gold.PLP.Chemscore.Hbond>
2.0000

> <Gold.PLP.Chemscore.CHOScore>
0.7363

> <Gold.PLP.Chemscore.Metal>
0.0000

> <Gold.Chemscore.Hbonds>
donor molecule, donor type, donor heavy atom, donor atom, acceptor molecule, acceptor atom, score
      L1  H     1    29       P1 10747  1.00
      P1  H  7989  7998       L1    24  1.00
      L1  C    25    55       P1  7949  0.72

> <Gold.PLP.Chemscore.Internal.Correction>
0.9124

> <Gold.Rescore>
     Score         DG    S(hbond)    S(metal)    S(lipo)     H(rot)  DE(clash)    DE(int)     intcor
     13.06     -15.67       1.84        0.00     115.68       3.71       0.35       2.26       ----

> <Gold.Chemscore.Fitness>
13.0552

> <Gold.Chemscore.DG>
-15.6703

> <Gold.Chemscore.ZeroCoef>
-5.4800

> <Gold.Chemscore.Hbond>
1.8429

> <Gold.Chemscore.Metal>
0.0000

> <Gold.Chemscore.Lipo>
115.6842

> <Gold.Chemscore.Internal_Hbond>
0.0000

> <Gold.Chemscore.DEClash>
0.3505

> <Gold.Chemscore.DEInternal>
2.2645

> <Gold.Chemscore.Rot>
3.7109

> <Gold.Chemscore.Internal.Correction>
   9.000000E+99

> <Gold.Chemscore.Hbonds>
donor molecule, donor type, donor heavy atom, donor atom, acceptor molecule, acceptor atom, score
      L1  H     1    29       P1 10747  0.98
      P1  H  7989  7998       L1    24  0.86

> <Gold.Chemscore.Hbond.Weighted>
-6.1552

> <Gold.Chemscore.Metal.Weighted>
-0.0000

> <Gold.Chemscore.Lipo.Weighted>
-13.5350

> <Gold.Chemscore.Internal_Hbond.Weighted>
0.0000

> <Gold.Chemscore.DEClash.Weighted>
0.3505

> <Gold.Chemscore.DEInternal.Weighted>
2.2645

> <Gold.Chemscore.Rot.Weighted>
9.5000

> <Gold.Chemscore.Internal.Correction.Weighted>
   9.000000E+99

> <Gold.Protein.RotatedTorsions>
[ 6907 6896 6895 6894 ] final  -93.63 input  -60.11 | X-H torsion
[ 7974 7965 7964 7962 ] final -107.02 input  175.53 | X-H torsion
[ 8008 7997 7996 7995 ] final  -61.57 input   59.86 | X-H torsion
[ 10167 10162 10161 10158 ] final  -87.25 input  -65.29 | X-H torsion
[ 10718 10713 10712 10709 ] final  151.86 input   66.30 | X-H torsion
[ 10763 10752 10751 10750 ] final -172.70 input  -60.55 | X-H torsion
[ 11005 11000 10999 10996 ] final  178.20 input  -57.11 | X-H torsion

> <Gold.Protein.ActiveResidues>
 VAL166  LYS551  ARG553  GLY616  TRP617  ASP618  TYR619  PRO620  LYS621  CYS622 
 ASP623  PHE694  ASN695  SER759  ASP760  ASP761  ALA762  ILE779  LEU786  VAL792 
 PHE793  MET794  SER795  GLU796  ALA797  LYS798  CYS799  TRP800  GLU811  SER814 

> <Gold.Protein.RotatedAtoms>
  150.6926  134.1938  159.4295 H   0  0  0  0  0  0  0  0  0  0  0  0  # atno 6907 bound_to 6896
  151.9907  134.9978  160.0570 H   0  0  0  0  0  0  0  0  0  0  0  0  # atno 6908 bound_to 6896
  152.1670  133.4583  159.4926 H   0  0  0  0  0  0  0  0  0  0  0  0  # atno 6909 bound_to 6896
  145.2106  140.9094  143.3317 H   0  0  0  0  0  0  0  0  0  0  0  0  # atno 7974 bound_to 7965
  154.4455  140.1015  156.6452 H   0  0  0  0  0  0  0  0  0  0  0  0  # atno 8008 bound_to 7997
  155.5458  140.3484  155.4438 H   0  0  0  0  0  0  0  0  0  0  0  0  # atno 8009 bound_to 7997
  156.0564  140.1316  156.9980 H   0  0  0  0  0  0  0  0  0  0  0  0  # atno 8010 bound_to 7997
  140.3863  143.2725  151.9321 H   0  0  0  0  0  0  0  0  0  0  0  0  # atno 10167 bound_to 10162
  157.2652  131.0806  151.1638 H   0  0  0  0  0  0  0  0  0  0  0  0  # atno 10718 bound_to 10713
  154.6164  135.2870  155.0376 H   0  0  0  0  0  0  0  0  0  0  0  0  # atno 10763 bound_to 10752
  154.1587  135.6491  153.4984 H   0  0  0  0  0  0  0  0  0  0  0  0  # atno 10764 bound_to 10752
  153.0216  135.5373  154.6936 H   0  0  0  0  0  0  0  0  0  0  0  0  # atno 10765 bound_to 10752
  140.3925  134.6849  157.4516 H   0  0  0  0  0  0  0  0  0  0  0  0  # atno 11005 bound_to 11000
  144.9860  139.3736  143.6238 LP  0  0  0  0  0  0  0  0  0  0  0  0  # atno 17320 bound_to 7965
  146.3398  139.9021  142.8793 LP  0  0  0  0  0  0  0  0  0  0  0  0  # atno 17321 bound_to 7965
  139.4792  144.5770  151.7994 LP  0  0  0  0  0  0  0  0  0  0  0  0  # atno 17342 bound_to 10162
  140.4886  144.1344  150.5946 LP  0  0  0  0  0  0  0  0  0  0  0  0  # atno 17343 bound_to 10162
  157.3132  130.6900  149.6227 LP  0  0  0  0  0  0  0  0  0  0  0  0  # atno 17370 bound_to 10713
  155.9663  130.4357  150.5104 LP  0  0  0  0  0  0  0  0  0  0  0  0  # atno 17371 bound_to 10713
  140.0396  134.6287  155.8998 LP  0  0  0  0  0  0  0  0  0  0  0  0  # atno 17394 bound_to 11000
  141.1886  133.6563  156.5330 LP  0  0  0  0  0  0  0  0  0  0  0  0  # atno 17395 bound_to 11000

$$$$
