AV-unprocessed.smi:848|AV-procd|sdf|3939|dock7
  -GOLD-   22720 1403D 1   1.00000     0.00000
 Structure written by MMmdl.
 46 48  0  0  0  0  0  0  0  0  1 V2000
  153.7269  141.8769  161.4073 C   0  0  0  0  0  0  0  0  0  0  0  0
  152.9081  141.9655  160.1358 C   0  0  0  0  0  0  0  0  0  0  0  0
  152.8361  143.1765  159.4190 C   0  0  0  0  0  0  0  0  0  0  0  0
  152.0731  143.2533  158.2379 C   0  0  0  0  0  0  0  0  0  0  0  0
  151.9979  144.5587  157.4730 C   0  0  0  0  0  0  0  0  0  0  0  0
  151.3858  142.1133  157.7739 C   0  0  0  0  0  0  0  0  0  0  0  0
  151.4495  140.8931  158.4774 C   0  0  0  0  0  0  0  0  0  0  0  0
  150.7495  139.8303  157.9475 O   0  0  0  0  0  0  0  0  0  0  0  0
  150.9851  138.5338  158.4800 C   0  0  0  0  0  0  0  0  0  0  0  0
  150.0775  137.5260  157.7566 C   0  0  2  0  0  0  0  0  0  0  0  0
  150.2524  136.2548  158.3517 O   0  0  0  0  0  0  0  0  0  0  0  0
  150.4090  137.4342  156.2525 C   0  0  0  0  0  0  0  0  0  0  0  0
  150.2198  138.6970  155.5500 N   0  0  0  0  0  0  0  0  0  0  0  0
  151.1620  139.4717  154.9552 C   0  0  0  0  0  0  0  0  0  0  0  0
  152.6114  139.0742  154.9485 C   0  0  0  0  0  0  0  0  0  0  0  0
  153.1559  138.8627  156.2357 O   0  0  0  0  0  0  0  0  0  0  0  0
  150.7101  140.5882  154.3786 N   0  0  0  0  0  0  0  0  0  0  0  0
  149.3520  140.5303  154.6201 C   0  0  0  0  0  0  0  0  0  0  0  0
  148.3169  141.4236  154.2625 C   0  0  0  0  0  0  0  0  0  0  0  0
  146.9810  141.1483  154.6207 C   0  0  0  0  0  0  0  0  0  0  0  0
  146.6616  139.9784  155.3396 C   0  0  0  0  0  0  0  0  0  0  0  0
  147.6780  139.0760  155.7074 C   0  0  0  0  0  0  0  0  0  0  0  0
  149.0103  139.3559  155.3481 C   0  0  0  0  0  0  0  0  0  0  0  0
  152.2179  140.8289  159.6671 C   0  0  0  0  0  0  0  0  0  0  0  0
  154.0763  142.8595  161.7256 H   0  0  0  0  0  0  0  0  0  0  0  0
  154.5968  141.2387  161.2512 H   0  0  0  0  0  0  0  0  0  0  0  0
  153.1294  141.4522  162.2146 H   0  0  0  0  0  0  0  0  0  0  0  0
  153.3651  144.0493  159.7738 H   0  0  0  0  0  0  0  0  0  0  0  0
  151.2573  144.5098  156.6743 H   0  0  0  0  0  0  0  0  0  0  0  0
  152.9657  144.7911  157.0286 H   0  0  0  0  0  0  0  0  0  0  0  0
  151.7216  145.3745  158.1417 H   0  0  0  0  0  0  0  0  0  0  0  0
  150.8012  142.1701  156.8671 H   0  0  0  0  0  0  0  0  0  0  0  0
  152.0285  138.2724  158.2964 H   0  0  0  0  0  0  0  0  0  0  0  0
  150.8181  138.5033  159.5583 H   0  0  0  0  0  0  0  0  0  0  0  0
  149.0359  137.8250  157.8769 H   0  0  0  0  0  0  0  0  0  0  0  0
  150.0952  135.5912  157.6976 H   0  0  0  0  0  0  0  0  0  0  0  0
  151.4390  137.1059  156.1109 H   0  0  0  0  0  0  0  0  0  0  0  0
  149.7865  136.6762  155.7750 H   0  0  0  0  0  0  0  0  0  0  0  0
  152.7327  138.1578  154.3720 H   0  0  0  0  0  0  0  0  0  0  0  0
  153.1907  139.8529  154.4521 H   0  0  0  0  0  0  0  0  0  0  0  0
  152.4456  138.7618  156.8503 H   0  0  0  0  0  0  0  0  0  0  0  0
  148.5518  142.3221  153.7112 H   0  0  0  0  0  0  0  0  0  0  0  0
  146.1980  141.8382  154.3422 H   0  0  0  0  0  0  0  0  0  0  0  0
  145.6356  139.7746  155.6092 H   0  0  0  0  0  0  0  0  0  0  0  0
  147.4358  138.1810  156.2605 H   0  0  0  0  0  0  0  0  0  0  0  0
  152.2943  139.9159  160.2377 H   0  0  0  0  0  0  0  0  0  0  0  0
  1  2  1  0  0  0  0
  1 25  1  0  0  0  0
  1 26  1  0  0  0  0
  1 27  1  0  0  0  0
  2 24  1  0  0  0  0
  2  3  2  0  0  0  0
  3  4  1  0  0  0  0
  3 28  1  0  0  0  0
  4  5  1  0  0  0  0
  4  6  2  0  0  0  0
  5 29  1  0  0  0  0
  5 30  1  0  0  0  0
  5 31  1  0  0  0  0
  6  7  1  0  0  0  0
  6 32  1  0  0  0  0
  7  8  1  0  0  0  0
  7 24  2  0  0  0  0
  8  9  1  0  0  0  0
  9 10  1  0  0  0  0
  9 33  1  0  0  0  0
  9 34  1  0  0  0  0
 10 11  1  0  0  0  0
 10 12  1  0  0  0  0
 10 35  1  0  0  0  0
 11 36  1  0  0  0  0
 12 13  1  0  0  0  0
 12 37  1  0  0  0  0
 12 38  1  0  0  0  0
 13 23  1  0  0  0  0
 13 14  1  0  0  0  0
 14 15  1  0  0  0  0
 14 17  2  0  0  0  0
 15 16  1  0  0  0  0
 15 39  1  0  0  0  0
 15 40  1  0  0  0  0
 16 41  1  0  0  0  0
 17 18  1  0  0  0  0
 18 23  2  0  0  0  0
 18 19  1  0  0  0  0
 19 20  2  0  0  0  0
 19 42  1  0  0  0  0
 20 21  1  0  0  0  0
 20 43  1  0  0  0  0
 21 22  2  0  0  0  0
 21 44  1  0  0  0  0
 22 23  1  0  0  0  0
 22 45  1  0  0  0  0
 24 46  1  0  0  0  0
M  END
> <s_m_source_file>
AV-unprocessed.smi

> <i_m_source_file_index>
848

> <i_lp_mmshare_version>
43012

> <i_f3d_flags>
0

> <s_epik_input>
W0NIM11jMVtjSF1jKFtDSDNdKVtjSF1jKFtjSF0xKU9bQ0gyXVtDQEhdKFtPSF0pW0NIMl1uKGMobjIpW0NIMl1bT0hdKWMoYzIzKVtjSF1bY0hdW2NIXVtjSF0z

> <s_epik_cmdline>
J2VwaWtfcHl0aG9uJywgJy1waCcsICc3LjAnLCAnLXRuJywgJzgnLCAnLW1hJywgJzIwMCcsICctbWV0YWxfYmluZGluZycsICctaW1hZScsICc8aW5maWxlLm1hZT4nLCAnLW9tYWUnLCAnPG91dGZpbGUubWFlPic=

> <r_lp_tautomer_probability>
1

> <r_epik_Ionization_Penalty>
0.0554234

> <r_epik_Ionization_Penalty_Charging>
0

> <r_epik_Ionization_Penalty_Neutral>
0.0554234

> <r_epik_State_Penalty>
0.0476717

> <r_epik_Charging_Adjusted_Penalty>
0.0476717

> <i_epik_Tot_Q>
0

> <i_epik_Tot_abs_Q>
0

> <r_epik_Metal_State_Penalty>
4.96399e-05

> <b_epik_Metal_Only>
0

> <s_lp_Force_Field>
OPLS_2005

> <r_lp_Energy>
17.4445

> <b_lp_Chiralities_Consistent>
1

> <s_lp_Variant>
AV-unprocessed.smi:848-1

> <Gold.Version>
5.8.1

> <Gold.Id.Protein>
6NUR|6NUR_protein|mol2

> <Gold.PLP.Fitness>
51.9540

> <Gold.PLP.PLP>
-44.3742

> <Gold.PLP.part.hbond>
-2.6601

> <Gold.PLP.part.metal>
0.0000

> <Gold.PLP.part.buried>
-6.5230

> <Gold.PLP.part.nonpolar>
-35.7562

> <Gold.PLP.part.repulsive>
0.1165

> <Gold.PLP.ligand.clash>
0.0000

> <Gold.PLP.ligand.torsion>
0.1700

> <Gold.PLP.Chemscore.Hbond>
2.6244

> <Gold.PLP.Chemscore.CHOScore>
0.0000

> <Gold.PLP.Chemscore.Metal>
0.0000

> <Gold.Chemscore.Hbonds>
donor molecule, donor type, donor heavy atom, donor atom, acceptor molecule, acceptor atom, score
      P1  H  6896  6909       L1    11  0.58
      P1  H  7989  7998       L1    17  0.42
      P1  H  7997  8008       L1    16  1.00

> <Gold.PLP.Chemscore.Internal.Correction>
0.0467

> <Gold.Rescore>
     Score         DG    S(hbond)    S(metal)    S(lipo)     H(rot)  DE(clash)    DE(int)     intcor
     15.61     -17.29       1.66        0.00     118.21       2.96       0.01       1.67       ----

> <Gold.Chemscore.Fitness>
15.6122

> <Gold.Chemscore.DG>
-17.2949

> <Gold.Chemscore.ZeroCoef>
-5.4800

> <Gold.Chemscore.Hbond>
1.6622

> <Gold.Chemscore.Metal>
0.0000

> <Gold.Chemscore.Lipo>
118.2125

> <Gold.Chemscore.Internal_Hbond>
0.0000

> <Gold.Chemscore.DEClash>
0.0149

> <Gold.Chemscore.DEInternal>
1.6678

> <Gold.Chemscore.Rot>
2.9561

> <Gold.Chemscore.Internal.Correction>
   9.000000E+99

> <Gold.Chemscore.Hbonds>
donor molecule, donor type, donor heavy atom, donor atom, acceptor molecule, acceptor atom, score
      P1  H  6896  6909       L1    11  0.15
      P1  H  7989  7998       L1    17  0.21
      P1  H  7997  8008       L1    16  0.68

> <Gold.Chemscore.Hbond.Weighted>
-5.5517

> <Gold.Chemscore.Metal.Weighted>
-0.0000

> <Gold.Chemscore.Lipo.Weighted>
-13.8309

> <Gold.Chemscore.Internal_Hbond.Weighted>
0.0000

> <Gold.Chemscore.DEClash.Weighted>
0.0149

> <Gold.Chemscore.DEInternal.Weighted>
1.6678

> <Gold.Chemscore.Rot.Weighted>
7.5677

> <Gold.Chemscore.Internal.Correction.Weighted>
   9.000000E+99

> <Gold.Protein.RotatedTorsions>
[ 6907 6896 6895 6894 ] final   96.24 input  -60.11 | X-H torsion
[ 7974 7965 7964 7962 ] final -116.28 input  175.53 | X-H torsion
[ 8008 7997 7996 7995 ] final  -57.93 input   59.86 | X-H torsion
[ 10167 10162 10161 10158 ] final  -83.97 input  -65.29 | X-H torsion
[ 10718 10713 10712 10709 ] final    0.27 input   66.30 | X-H torsion
[ 10763 10752 10751 10750 ] final  164.77 input  -60.55 | X-H torsion
[ 11005 11000 10999 10996 ] final  -23.16 input  -57.11 | X-H torsion

> <Gold.Protein.ActiveResidues>
 VAL166  LYS551  ARG553  GLY616  TRP617  ASP618  TYR619  PRO620  LYS621  CYS622 
 ASP623  PHE694  ASN695  SER759  ASP760  ASP761  ALA762  ILE779  LEU786  VAL792 
 PHE793  MET794  SER795  GLU796  ALA797  LYS798  CYS799  TRP800  GLU811  SER814 

> <Gold.Protein.RotatedAtoms>
  152.5437  134.0917  159.8279 H   0  0  0  0  0  0  0  0  0  0  0  0  # atno 6907 bound_to 6896
  151.1006  133.5239  159.2617 H   0  0  0  0  0  0  0  0  0  0  0  0  # atno 6908 bound_to 6896
  151.1996  135.0446  159.8921 H   0  0  0  0  0  0  0  0  0  0  0  0  # atno 6909 bound_to 6896
  145.0986  140.8537  143.3940 H   0  0  0  0  0  0  0  0  0  0  0  0  # atno 7974 bound_to 7965
  154.4288  140.1095  156.5876 H   0  0  0  0  0  0  0  0  0  0  0  0  # atno 8008 bound_to 7997
  155.6046  140.3493  155.4585 H   0  0  0  0  0  0  0  0  0  0  0  0  # atno 8009 bound_to 7997
  156.0146  140.1226  157.0408 H   0  0  0  0  0  0  0  0  0  0  0  0  # atno 8010 bound_to 7997
  140.4177  143.2597  151.8932 H   0  0  0  0  0  0  0  0  0  0  0  0  # atno 10167 bound_to 10162
  156.8309  130.5488  149.5687 H   0  0  0  0  0  0  0  0  0  0  0  0  # atno 10718 bound_to 10713
  154.3140  135.2757  155.2552 H   0  0  0  0  0  0  0  0  0  0  0  0  # atno 10763 bound_to 10752
  154.4935  135.5827  153.6480 H   0  0  0  0  0  0  0  0  0  0  0  0  # atno 10764 bound_to 10752
  152.9884  135.6140  154.3320 H   0  0  0  0  0  0  0  0  0  0  0  0  # atno 10765 bound_to 10752
  140.8725  133.7710  156.0204 H   0  0  0  0  0  0  0  0  0  0  0  0  # atno 11005 bound_to 11000
  145.0982  139.2841  143.5700 LP  0  0  0  0  0  0  0  0  0  0  0  0  # atno 17320 bound_to 7965
  146.3530  140.0541  142.8634 LP  0  0  0  0  0  0  0  0  0  0  0  0  # atno 17321 bound_to 7965
  139.4782  144.5470  151.8442 LP  0  0  0  0  0  0  0  0  0  0  0  0  # atno 17342 bound_to 10162
  140.4568  144.1778  150.5902 LP  0  0  0  0  0  0  0  0  0  0  0  0  # atno 17343 bound_to 10162
  156.0935  130.5914  150.9773 LP  0  0  0  0  0  0  0  0  0  0  0  0  # atno 17370 bound_to 10713
  157.6407  131.0910  150.8257 LP  0  0  0  0  0  0  0  0  0  0  0  0  # atno 17371 bound_to 10713
  140.8556  134.2902  157.5257 LP  0  0  0  0  0  0  0  0  0  0  0  0  # atno 17394 bound_to 11000
  139.8713  134.9491  156.4015 LP  0  0  0  0  0  0  0  0  0  0  0  0  # atno 17395 bound_to 11000

$$$$
