AV-unprocessed.smi:379|AV-procd|sdf|2458|dock8
  -GOLD-   2262022403D 1   1.00000     0.00000
 Structure written by MMmdl.
 39 40  0  0  0  0  0  0  0  0  1 V2000
  146.8598  138.8854  153.5131 C   0  0  0  0  0  0  0  0  0  0  0  0
  148.2420  138.9759  154.1767 C   0  0  0  0  0  0  0  0  0  0  0  0
  148.4185  140.2046  155.0910 C   0  0  2  0  0  0  0  0  0  0  0  0
  147.9584  141.4952  154.3995 C   0  0  0  0  0  0  0  0  0  0  0  0
  149.8166  140.3498  155.4930 N   0  0  0  0  0  0  0  0  0  0  0  0
  150.3302  140.0426  156.6943 C   0  0  0  0  0  0  0  0  0  0  0  0
  149.6567  139.6093  157.6303 O   0  0  0  0  0  0  0  0  0  0  0  0
  151.8425  140.2640  156.8459 C   0  0  0  0  0  0  0  0  0  0  0  0
  152.1921  141.2081  157.9300 N   0  0  0  0  0  0  0  0  0  0  0  0
  153.1695  140.8118  158.8786 C   0  0  0  0  0  0  0  0  0  0  0  0
  153.7118  139.7073  158.8071 O   0  0  0  0  0  0  0  0  0  0  0  0
  153.4733  141.7938  159.9167 C   0  0  0  0  0  0  0  0  0  0  0  0
  154.4791  141.4484  160.8657 C   0  0  0  0  0  0  0  0  0  0  0  0
  155.3054  141.1910  161.6342 N   0  0  0  0  0  0  0  0  0  0  0  0
  152.8284  142.9776  159.9633 C   0  0  0  0  0  0  0  0  0  0  0  0
  151.8447  143.3221  159.0621 N   0  0  0  0  0  0  0  0  0  0  0  0
  151.2858  144.6444  159.0327 C   0  0  0  0  0  0  0  0  0  0  0  0
  151.7304  145.6541  160.0683 C   0  0  0  0  0  0  0  0  0  0  0  0
  150.3295  145.0950  160.1196 C   0  0  0  0  0  0  0  0  0  0  0  0
  151.5277  142.4574  157.9916 C   0  0  0  0  0  0  0  0  0  0  0  0
  150.7026  142.7814  157.1340 O   0  0  0  0  0  0  0  0  0  0  0  0
  146.8096  138.0300  152.8391 H   0  0  0  0  0  0  0  0  0  0  0  0
  146.6452  139.7809  152.9295 H   0  0  0  0  0  0  0  0  0  0  0  0
  146.0656  138.7679  154.2506 H   0  0  0  0  0  0  0  0  0  0  0  0
  148.4289  138.0632  154.7438 H   0  0  0  0  0  0  0  0  0  0  0  0
  148.9993  139.0039  153.3927 H   0  0  0  0  0  0  0  0  0  0  0  0
  147.7863  140.0664  155.9697 H   0  0  0  0  0  0  0  0  0  0  0  0
  146.9104  141.4306  154.1057 H   0  0  0  0  0  0  0  0  0  0  0  0
  148.5439  141.6974  153.5019 H   0  0  0  0  0  0  0  0  0  0  0  0
  148.0599  142.3536  155.0643 H   0  0  0  0  0  0  0  0  0  0  0  0
  150.4511  140.7019  154.7911 H   0  0  0  0  0  0  0  0  0  0  0  0
  152.3259  139.3000  157.0142 H   0  0  0  0  0  0  0  0  0  0  0  0
  152.2359  140.5906  155.8823 H   0  0  0  0  0  0  0  0  0  0  0  0
  153.0861  143.6820  160.7411 H   0  0  0  0  0  0  0  0  0  0  0  0
  151.0922  145.0428  158.0382 H   0  0  0  0  0  0  0  0  0  0  0  0
  152.4244  145.3272  160.8402 H   0  0  0  0  0  0  0  0  0  0  0  0
  151.8491  146.6852  159.7421 H   0  0  0  0  0  0  0  0  0  0  0  0
  149.5134  145.7524  159.8271 H   0  0  0  0  0  0  0  0  0  0  0  0
  150.1015  144.4004  160.9259 H   0  0  0  0  0  0  0  0  0  0  0  0
  1  2  1  0  0  0  0
  1 22  1  0  0  0  0
  1 23  1  0  0  0  0
  1 24  1  0  0  0  0
  2  3  1  0  0  0  0
  2 25  1  0  0  0  0
  2 26  1  0  0  0  0
  3  4  1  0  0  0  0
  3  5  1  0  0  0  0
  3 27  1  0  0  0  0
  4 28  1  0  0  0  0
  4 29  1  0  0  0  0
  4 30  1  0  0  0  0
  5  6  1  0  0  0  0
  5 31  1  0  0  0  0
  6  7  2  0  0  0  0
  6  8  1  0  0  0  0
  8  9  1  0  0  0  0
  8 32  1  0  0  0  0
  8 33  1  0  0  0  0
  9 20  1  0  0  0  0
  9 10  1  0  0  0  0
 10 11  2  0  0  0  0
 10 12  1  0  0  0  0
 12 13  1  0  0  0  0
 12 15  2  0  0  0  0
 13 14  3  0  0  0  0
 15 16  1  0  0  0  0
 15 34  1  0  0  0  0
 16 17  1  0  0  0  0
 16 20  1  0  0  0  0
 17 19  1  0  0  0  0
 17 18  1  0  0  0  0
 17 35  1  0  0  0  0
 18 19  1  0  0  0  0
 18 36  1  0  0  0  0
 18 37  1  0  0  0  0
 19 38  1  0  0  0  0
 19 39  1  0  0  0  0
 20 21  2  0  0  0  0
M  END
> <s_m_source_file>
AV-unprocessed.smi

> <i_m_source_file_index>
379

> <i_lp_mmshare_version>
43012

> <i_f3d_flags>
0

> <s_epik_input>
W0NIM11bQ0gyXVtDQEhdKFtDSDNdKVtOSF1DKD1PKVtDSDJdbjFjKD1PKWMoQyNOKVtjSF1uKGMxPU8pW0NIXTJbQ0gyXVtDSDJdMg==

> <s_epik_cmdline>
J2VwaWtfcHl0aG9uJywgJy1waCcsICc3LjAnLCAnLXRuJywgJzgnLCAnLW1hJywgJzIwMCcsICctbWV0YWxfYmluZGluZycsICctaW1hZScsICc8aW5maWxlLm1hZT4nLCAnLW9tYWUnLCAnPG91dGZpbGUubWFlPic=

> <r_lp_tautomer_probability>
1

> <r_epik_Ionization_Penalty>
1.93863e-08

> <r_epik_Ionization_Penalty_Charging>
8.45512e-11

> <r_epik_Ionization_Penalty_Neutral>
1.93017e-08

> <r_epik_State_Penalty>
-0

> <r_epik_Charging_Adjusted_Penalty>
8.45512e-11

> <i_epik_Tot_Q>
0

> <i_epik_Tot_abs_Q>
0

> <r_epik_Metal_State_Penalty>
-0

> <b_epik_Metal_Only>
0

> <s_lp_Force_Field>
OPLS_2005

> <r_lp_Energy>
29.5524

> <b_lp_Chiralities_Consistent>
1

> <s_lp_Variant>
AV-unprocessed.smi:379-1

> <Gold.Version>
5.8.1

> <Gold.Id.Protein>
6NUR|6NUR_protein|mol2

> <Gold.PLP.Fitness>
45.9235

> <Gold.PLP.PLP>
-43.9590

> <Gold.PLP.part.hbond>
-2.0000

> <Gold.PLP.part.metal>
0.0000

> <Gold.PLP.part.buried>
-3.8550

> <Gold.PLP.part.nonpolar>
-37.3312

> <Gold.PLP.part.repulsive>
0.9942

> <Gold.PLP.ligand.clash>
0.0000

> <Gold.PLP.ligand.torsion>
0.4506

> <Gold.PLP.Chemscore.Hbond>
0.8775

> <Gold.PLP.Chemscore.CHOScore>
0.0000

> <Gold.PLP.Chemscore.Metal>
0.0000

> <Gold.Chemscore.Hbonds>
donor molecule, donor type, donor heavy atom, donor atom, acceptor molecule, acceptor atom, score
      P1  H  7997  8009       L1    11  0.95

> <Gold.PLP.Chemscore.Internal.Correction>
0.2331

> <Gold.Rescore>
     Score         DG    S(hbond)    S(metal)    S(lipo)     H(rot)  DE(clash)    DE(int)     intcor
      8.92     -10.63       0.10        0.00      84.39       1.98       0.15       1.56       ----

> <Gold.Chemscore.Fitness>
8.9198

> <Gold.Chemscore.DG>
-10.6332

> <Gold.Chemscore.ZeroCoef>
-5.4800

> <Gold.Chemscore.Hbond>
0.1024

> <Gold.Chemscore.Metal>
0.0000

> <Gold.Chemscore.Lipo>
84.3891

> <Gold.Chemscore.Internal_Hbond>
0.0000

> <Gold.Chemscore.DEClash>
0.1503

> <Gold.Chemscore.DEInternal>
1.5630

> <Gold.Chemscore.Rot>
1.9774

> <Gold.Chemscore.Internal.Correction>
   9.000000E+99

> <Gold.Chemscore.Hbonds>
donor molecule, donor type, donor heavy atom, donor atom, acceptor molecule, acceptor atom, score
      P1  H  7997  8009       L1    11  0.21

> <Gold.Chemscore.Hbond.Weighted>
-0.3419

> <Gold.Chemscore.Metal.Weighted>
-0.0000

> <Gold.Chemscore.Lipo.Weighted>
-9.8735

> <Gold.Chemscore.Internal_Hbond.Weighted>
0.0000

> <Gold.Chemscore.DEClash.Weighted>
0.1503

> <Gold.Chemscore.DEInternal.Weighted>
1.5630

> <Gold.Chemscore.Rot.Weighted>
5.0623

> <Gold.Chemscore.Internal.Correction.Weighted>
   9.000000E+99

> <Gold.Protein.RotatedTorsions>
[ 6907 6896 6895 6894 ] final -126.64 input  -60.11 | X-H torsion
[ 7974 7965 7964 7962 ] final   20.36 input  175.53 | X-H torsion
[ 8008 7997 7996 7995 ] final  132.72 input   59.86 | X-H torsion
[ 10167 10162 10161 10158 ] final   73.14 input  -65.29 | X-H torsion
[ 10718 10713 10712 10709 ] final  -62.72 input   66.30 | X-H torsion
[ 10763 10752 10751 10750 ] final -162.87 input  -60.55 | X-H torsion
[ 11005 11000 10999 10996 ] final  -41.91 input  -57.11 | X-H torsion

> <Gold.Protein.ActiveResidues>
 VAL166  LYS551  ARG553  GLY616  TRP617  ASP618  TYR619  PRO620  LYS621  CYS622 
 ASP623  PHE694  ASN695  SER759  ASP760  ASP761  ALA762  ILE779  LEU786  VAL792 
 PHE793  MET794  SER795  GLU796  ALA797  LYS798  CYS799  TRP800  GLU811  SER814 

> <Gold.Protein.RotatedAtoms>
  150.8990  133.7143  159.2883 H   0  0  0  0  0  0  0  0  0  0  0  0  # atno 6907 bound_to 6896
  151.4668  135.1041  159.9750 H   0  0  0  0  0  0  0  0  0  0  0  0  # atno 6908 bound_to 6896
  152.4865  133.8339  159.7173 H   0  0  0  0  0  0  0  0  0  0  0  0  # atno 6909 bound_to 6896
  146.2114  139.8181  142.8685 H   0  0  0  0  0  0  0  0  0  0  0  0  # atno 7974 bound_to 7965
  156.2985  140.2539  156.3135 H   0  0  0  0  0  0  0  0  0  0  0  0  # atno 8008 bound_to 7997
  154.9303  140.0398  157.2063 H   0  0  0  0  0  0  0  0  0  0  0  0  # atno 8009 bound_to 7997
  154.8225  140.2862  155.5782 H   0  0  0  0  0  0  0  0  0  0  0  0  # atno 8010 bound_to 7997
  140.0277  144.5490  150.7531 H   0  0  0  0  0  0  0  0  0  0  0  0  # atno 10167 bound_to 10162
  156.0837  130.4212  150.1175 H   0  0  0  0  0  0  0  0  0  0  0  0  # atno 10718 bound_to 10713
  154.7175  135.3019  154.9100 H   0  0  0  0  0  0  0  0  0  0  0  0  # atno 10763 bound_to 10752
  153.9983  135.6710  153.4762 H   0  0  0  0  0  0  0  0  0  0  0  0  # atno 10764 bound_to 10752
  153.0806  135.5011  154.8410 H   0  0  0  0  0  0  0  0  0  0  0  0  # atno 10765 bound_to 10752
  141.0279  133.6833  156.2522 H   0  0  0  0  0  0  0  0  0  0  0  0  # atno 11005 bound_to 11000
  145.3125  141.0223  143.3546 LP  0  0  0  0  0  0  0  0  0  0  0  0  # atno 17320 bound_to 7965
  144.8925  139.4755  143.6671 LP  0  0  0  0  0  0  0  0  0  0  0  0  # atno 17321 bound_to 7965
  140.7315  143.2695  151.3933 LP  0  0  0  0  0  0  0  0  0  0  0  0  # atno 17342 bound_to 10162
  139.6097  144.1124  152.2286 LP  0  0  0  0  0  0  0  0  0  0  0  0  # atno 17343 bound_to 10162
  156.9200  130.9680  151.3550 LP  0  0  0  0  0  0  0  0  0  0  0  0  # atno 17370 bound_to 10713
  157.5964  130.8480  149.8735 LP  0  0  0  0  0  0  0  0  0  0  0  0  # atno 17371 bound_to 10713
  140.6459  134.5118  157.5573 LP  0  0  0  0  0  0  0  0  0  0  0  0  # atno 17394 bound_to 11000
  139.9188  134.8191  156.1278 LP  0  0  0  0  0  0  0  0  0  0  0  0  # atno 17395 bound_to 11000

$$$$
