AV-unprocessed.smi:38|AV-procd|sdf|340|dock9
  -GOLD-   2262016173D 1   1.00000     0.00000
 Structure written by MMmdl.
 28 29  0  0  0  0  0  0  0  0  1 V2000
  152.9486  138.9453  157.0902 O   0  0  0  0  0  0  0  0  0  0  0  0
  152.0426  139.5484  156.5183 C   0  0  0  0  0  0  0  0  0  0  0  0
  151.3868  140.6030  157.1590 N   0  0  0  0  0  0  0  0  0  0  0  0
  150.3449  141.3577  156.6180 C   0  0  0  0  0  0  0  0  0  0  0  0
  149.8533  142.2799  157.2670 O   0  0  0  0  0  0  0  0  0  0  0  0
  149.9013  141.0161  155.3206 N   0  0  0  0  0  0  0  0  0  0  0  0
  148.7812  141.8320  154.7063 C   0  0  2  0  0  0  0  0  0  0  0  0
  147.4906  141.7223  155.5322 C   0  0  0  0  0  0  0  0  0  0  0  0
  146.4400  141.6511  154.4461 C   0  0  2  0  0  0  0  0  0  0  0  0
  145.2291  141.0880  154.9096 O   0  0  0  0  0  0  0  0  0  0  0  0
  147.1468  140.8415  153.3524 C   0  0  2  0  0  0  0  0  0  0  0  0
  147.1658  139.3131  153.5790 C   0  0  0  0  0  0  0  0  0  0  0  0
  145.8475  138.8092  153.5527 O   0  0  0  0  0  0  0  0  0  0  0  0
  148.4820  141.3458  153.4256 O   0  0  0  0  0  0  0  0  0  0  0  0
  150.5452  139.9911  154.6349 C   0  0  0  0  0  0  0  0  0  0  0  0
  151.5586  139.2694  155.1697 C   0  0  0  0  0  0  0  0  0  0  0  0
  152.1294  138.2906  154.4472 F   0  0  0  0  0  0  0  0  0  0  0  0
  151.6962  140.8419  158.0898 H   0  0  0  0  0  0  0  0  0  0  0  0
  149.1687  142.8493  154.6252 H   0  0  0  0  0  0  0  0  0  0  0  0
  146.2391  142.6575  154.0761 H   0  0  0  0  0  0  0  0  0  0  0  0
  146.7074  141.0657  152.3794 H   0  0  0  0  0  0  0  0  0  0  0  0
  147.5037  140.8038  156.1219 H   0  0  0  0  0  0  0  0  0  0  0  0
  147.3705  142.5749  156.2011 H   0  0  0  0  0  0  0  0  0  0  0  0
  144.7556  140.7402  154.1692 H   0  0  0  0  0  0  0  0  0  0  0  0
  147.7834  138.7946  152.8462 H   0  0  0  0  0  0  0  0  0  0  0  0
  147.5709  139.0735  154.5618 H   0  0  0  0  0  0  0  0  0  0  0  0
  145.2781  139.4748  153.1984 H   0  0  0  0  0  0  0  0  0  0  0  0
  150.2473  139.7368  153.6289 H   0  0  0  0  0  0  0  0  0  0  0  0
  1  2  2  0  0  0  0
  2 16  1  0  0  0  0
  2  3  1  0  0  0  0
  3 18  1  0  0  0  0
  3  4  1  0  0  0  0
  4  5  2  0  0  0  0
  4  6  1  0  0  0  0
  6  7  1  0  0  0  0
  6 15  1  0  0  0  0
  7 19  1  0  0  0  0
  7 14  1  0  0  0  0
  7  8  1  0  0  0  0
  8  9  1  0  0  0  0
  8 22  1  0  0  0  0
  8 23  1  0  0  0  0
  9 20  1  0  0  0  0
  9 10  1  0  0  0  0
  9 11  1  0  0  0  0
 10 24  1  0  0  0  0
 11 21  1  0  0  0  0
 11 12  1  0  0  0  0
 11 14  1  0  0  0  0
 12 13  1  0  0  0  0
 12 25  1  0  0  0  0
 12 26  1  0  0  0  0
 13 27  1  0  0  0  0
 15 16  2  0  0  0  0
 15 28  1  0  0  0  0
 16 17  1  0  0  0  0
M  END
> <s_m_source_file>
AV-unprocessed.smi

> <i_m_source_file_index>
38

> <i_lp_mmshare_version>
43012

> <i_f3d_flags>
0

> <s_epik_input>
Tz1jMVtuSF1jKD1PKW4oW2NIXWMxRilbQ0BIXTJbQ0gyXVtDQEhdKFtPSF0pW0NASF0oTzIpW0NIMl1bT0hd

> <s_epik_cmdline>
J2VwaWtfcHl0aG9uJywgJy1waCcsICc3LjAnLCAnLXRuJywgJzgnLCAnLW1hJywgJzIwMCcsICctbWV0YWxfYmluZGluZycsICctaW1hZScsICc8aW5maWxlLm1hZT4nLCAnLW9tYWUnLCAnPG91dGZpbGUubWFlPic=

> <r_lp_tautomer_probability>
0.999537

> <r_epik_Ionization_Penalty>
0.0357432

> <r_epik_Ionization_Penalty_Charging>
0.0357431

> <r_epik_Ionization_Penalty_Neutral>
1.19946e-07

> <r_epik_State_Penalty>
0.0298169

> <r_epik_Charging_Adjusted_Penalty>
0.06556

> <i_epik_Tot_Q>
0

> <i_epik_Tot_abs_Q>
0

> <r_epik_Metal_State_Penalty>
2.348

> <b_epik_Metal_Only>
0

> <s_epik_Chemistry_Notes>
This compound contains an acetal/aminal-like group ( X-CH(R)-Y where X, Y are N, S, or O) that may be acid/base labile, releasing an aldehyde.

> <s_lp_Force_Field>
OPLS_2005

> <r_lp_Energy>
30.3129

> <b_lp_Chiralities_Consistent>
1

> <s_lp_Variant>
AV-unprocessed.smi:38-6

> <Gold.Version>
5.8.1

> <Gold.Id.Protein>
6NUR|6NUR_protein|mol2

> <Gold.PLP.Fitness>
41.7288

> <Gold.PLP.PLP>
-27.3313

> <Gold.PLP.part.hbond>
-4.0000

> <Gold.PLP.part.metal>
0.0000

> <Gold.PLP.part.buried>
1.3380

> <Gold.PLP.part.nonpolar>
-26.3239

> <Gold.PLP.part.repulsive>
2.3675

> <Gold.PLP.ligand.clash>
0.0000

> <Gold.PLP.ligand.torsion>
0.0127

> <Gold.PLP.Chemscore.Hbond>
3.8000

> <Gold.PLP.Chemscore.CHOScore>
1.0000

> <Gold.PLP.Chemscore.Metal>
0.0000

> <Gold.Chemscore.Hbonds>
donor molecule, donor type, donor heavy atom, donor atom, acceptor molecule, acceptor atom, score
      L1  H    10    24       P1 10175  1.00
      L1  H    13    27       P1 10175  1.00
      P1  H  7997  8009       L1     1  0.95
      P1  H  8011  8017       L1    14  0.82
      L1  C    15    28       P1  7957  0.92

> <Gold.PLP.Chemscore.Internal.Correction>
0.0229

> <Gold.Rescore>
     Score         DG    S(hbond)    S(metal)    S(lipo)     H(rot)  DE(clash)    DE(int)     intcor
      9.06     -13.41       3.19        0.00      40.60       2.91       3.21       1.14       ----

> <Gold.Chemscore.Fitness>
9.0650

> <Gold.Chemscore.DG>
-13.4124

> <Gold.Chemscore.ZeroCoef>
-5.4800

> <Gold.Chemscore.Hbond>
3.1863

> <Gold.Chemscore.Metal>
0.0000

> <Gold.Chemscore.Lipo>
40.6000

> <Gold.Chemscore.Internal_Hbond>
0.0000

> <Gold.Chemscore.DEClash>
3.2111

> <Gold.Chemscore.DEInternal>
1.1363

> <Gold.Chemscore.Rot>
2.9141

> <Gold.Chemscore.Internal.Correction>
   9.000000E+99

> <Gold.Chemscore.Hbonds>
donor molecule, donor type, donor heavy atom, donor atom, acceptor molecule, acceptor atom, score
      L1  H    10    24       P1 10175  0.94
      L1  H    13    27       P1 10175  0.94
      P1  H  7997  8009       L1     1  0.22
      P1  H  8011  8017       L1    14  0.20

> <Gold.Chemscore.Hbond.Weighted>
-10.6422

> <Gold.Chemscore.Metal.Weighted>
-0.0000

> <Gold.Chemscore.Lipo.Weighted>
-4.7502

> <Gold.Chemscore.Internal_Hbond.Weighted>
0.0000

> <Gold.Chemscore.DEClash.Weighted>
3.2111

> <Gold.Chemscore.DEInternal.Weighted>
1.1363

> <Gold.Chemscore.Rot.Weighted>
7.4601

> <Gold.Chemscore.Internal.Correction.Weighted>
   9.000000E+99

> <Gold.Protein.RotatedTorsions>
[ 6907 6896 6895 6894 ] final  168.87 input  -60.11 | X-H torsion
[ 7974 7965 7964 7962 ] final -144.22 input  175.53 | X-H torsion
[ 8008 7997 7996 7995 ] final -178.84 input   59.86 | X-H torsion
[ 10167 10162 10161 10158 ] final  178.22 input  -65.29 | X-H torsion
[ 10718 10713 10712 10709 ] final  142.12 input   66.30 | X-H torsion
[ 10763 10752 10751 10750 ] final  162.87 input  -60.55 | X-H torsion
[ 11005 11000 10999 10996 ] final  176.93 input  -57.11 | X-H torsion

> <Gold.Protein.ActiveResidues>
 VAL166  LYS551  ARG553  GLY616  TRP617  ASP618  TYR619  PRO620  LYS621  CYS622 
 ASP623  PHE694  ASN695  SER759  ASP760  ASP761  ALA762  ILE779  LEU786  VAL792 
 PHE793  MET794  SER795  GLU796  ALA797  LYS798  CYS799  TRP800  GLU811  SER814 

> <Gold.Protein.RotatedAtoms>
  151.8408  133.3423  159.3642 H   0  0  0  0  0  0  0  0  0  0  0  0  # atno 6907 bound_to 6896
  150.7235  134.5393  159.5748 H   0  0  0  0  0  0  0  0  0  0  0  0  # atno 6908 bound_to 6896
  152.2866  134.7769  160.0437 H   0  0  0  0  0  0  0  0  0  0  0  0  # atno 6909 bound_to 6896
  144.8313  140.5736  143.5513 H   0  0  0  0  0  0  0  0  0  0  0  0  # atno 7974 bound_to 7965
  156.0236  140.1266  157.0332 H   0  0  0  0  0  0  0  0  0  0  0  0  # atno 8008 bound_to 7997
  154.4321  140.1064  156.6068 H   0  0  0  0  0  0  0  0  0  0  0  0  # atno 8009 bound_to 7997
  155.5910  140.3469  155.4568 H   0  0  0  0  0  0  0  0  0  0  0  0  # atno 8010 bound_to 7997
  139.5285  144.2705  152.0631 H   0  0  0  0  0  0  0  0  0  0  0  0  # atno 10167 bound_to 10162
  157.3841  131.0996  151.0710 H   0  0  0  0  0  0  0  0  0  0  0  0  # atno 10718 bound_to 10713
  154.2850  135.2762  155.2680 H   0  0  0  0  0  0  0  0  0  0  0  0  # atno 10763 bound_to 10752
  154.5184  135.5763  153.6664 H   0  0  0  0  0  0  0  0  0  0  0  0  # atno 10764 bound_to 10752
  152.9923  135.6198  154.3012 H   0  0  0  0  0  0  0  0  0  0  0  0  # atno 10765 bound_to 10752
  140.3785  134.6967  157.4436 H   0  0  0  0  0  0  0  0  0  0  0  0  # atno 11005 bound_to 11000
  145.4890  139.1490  143.3720 LP  0  0  0  0  0  0  0  0  0  0  0  0  # atno 17320 bound_to 7965
  146.2615  140.5028  142.8851 LP  0  0  0  0  0  0  0  0  0  0  0  0  # atno 17321 bound_to 7965
  140.2165  144.4509  150.6361 LP  0  0  0  0  0  0  0  0  0  0  0  0  # atno 17342 bound_to 10162
  140.6446  143.2211  151.6214 LP  0  0  0  0  0  0  0  0  0  0  0  0  # atno 17343 bound_to 10162
  157.1767  130.6291  149.5658 LP  0  0  0  0  0  0  0  0  0  0  0  0  # atno 17370 bound_to 10713
  155.9782  130.4767  150.6644 LP  0  0  0  0  0  0  0  0  0  0  0  0  # atno 17371 bound_to 10713
  140.0497  134.6149  155.8877 LP  0  0  0  0  0  0  0  0  0  0  0  0  # atno 17394 bound_to 11000
  141.1931  133.6578  156.5534 LP  0  0  0  0  0  0  0  0  0  0  0  0  # atno 17395 bound_to 11000

$$$$
