AV-unprocessed.smi:2032|AV-procd|sdf|8245|dock5
  -GOLD-   2272010513D 1   1.00000     0.00000
 Structure written by MMmdl.
 41 42  0  0  0  0  0  0  0  0  2 V2000
  151.4439  140.9253  156.5668 C   0  0  0  0  0  0  0  0  0  0  0  0
  150.8907  141.0013  158.0002 C   0  0  2  0  0  0  0  0  0  0  0  0
  150.4384  142.4181  158.4061 C   0  0  0  0  0  0  0  0  0  0  0  0
  151.5489  143.3406  158.6699 N   0  0  0  0  0  0  0  0  0  0  0  0
  151.0797  144.6854  159.0823 C   0  0  2  0  0  0  0  0  0  0  0  0
  152.2458  145.6344  159.4609 C   0  0  0  0  0  0  0  0  0  0  0  0
  150.0569  144.6502  160.2565 C   0  0  0  0  0  0  0  0  0  0  0  0
  148.6659  144.7736  159.8261 N   0  0  0  0  0  0  0  0  0  0  0  0
  147.5847  144.4716  160.5592 C   0  0  0  0  0  0  0  0  0  0  0  0
  147.7193  144.0616  161.7145 O   0  0  0  0  0  0  0  0  0  0  0  0
  146.4155  144.6586  159.9054 N   0  5  0  0  0  0  0  0  0  0  0  0
  145.2494  144.4495  160.5379 C   0  0  0  0  0  0  0  0  0  0  0  0
  144.0867  144.9558  160.1113 N   0  0  0  0  0  0  0  0  0  0  0  0
  142.9999  144.6027  160.9133 C   0  0  0  0  0  0  0  0  0  0  0  0
  143.3413  143.8014  161.9703 C   0  0  0  0  0  0  0  0  0  0  0  0
  145.0491  143.4657  161.9908 S   0  0  0  0  0  0  0  0  0  0  0  0
  152.4266  142.7147  159.6630 C   0  0  0  0  0  0  0  0  0  0  0  0
  152.9250  141.3241  159.2296 C   0  0  1  0  0  0  0  0  0  0  0  0
  153.7715  140.6519  160.3158 C   0  0  0  0  0  0  0  0  0  0  0  0
  151.8119  140.4804  158.9552 O   0  0  0  0  0  0  0  0  0  0  0  0
  150.6812  141.2117  155.8424 H   0  0  0  0  0  0  0  0  0  0  0  0
  151.7633  139.9114  156.3262 H   0  0  0  0  0  0  0  0  0  0  0  0
  152.2956  141.5892  156.4197 H   0  0  0  0  0  0  0  0  0  0  0  0
  150.0169  140.3501  158.0361 H   0  0  0  0  0  0  0  0  0  0  0  0
  149.8016  142.7940  157.6077 H   0  0  0  0  0  0  0  0  0  0  0  0
  149.8118  142.3464  159.2966 H   0  0  0  0  0  0  0  0  0  0  0  0
  150.5706  145.1357  158.2290 H   0  0  0  0  0  0  0  0  0  0  0  0
  151.8966  146.6054  159.8106 H   0  0  0  0  0  0  0  0  0  0  0  0
  152.8899  145.8588  158.6122 H   0  0  0  0  0  0  0  0  0  0  0  0
  152.8626  145.2049  160.2506 H   0  0  0  0  0  0  0  0  0  0  0  0
  150.1224  143.7263  160.8295 H   0  0  0  0  0  0  0  0  0  0  0  0
  150.2666  145.4614  160.9541 H   0  0  0  0  0  0  0  0  0  0  0  0
  148.5085  145.1068  158.8864 H   0  0  0  0  0  0  0  0  0  0  0  0
  142.0163  144.9659  160.6554 H   0  0  0  0  0  0  0  0  0  0  0  0
  142.6974  143.3890  162.7322 H   0  0  0  0  0  0  0  0  0  0  0  0
  153.3123  143.3233  159.8312 H   0  0  0  0  0  0  0  0  0  0  0  0
  151.9069  142.6394  160.6195 H   0  0  0  0  0  0  0  0  0  0  0  0
  153.5371  141.4212  158.3325 H   0  0  0  0  0  0  0  0  0  0  0  0
  154.6504  141.2512  160.5552 H   0  0  0  0  0  0  0  0  0  0  0  0
  154.1177  139.6710  159.9891 H   0  0  0  0  0  0  0  0  0  0  0  0
  153.1991  140.5150  161.2337 H   0  0  0  0  0  0  0  0  0  0  0  0
  1  2  1  0  0  0  0
  1 21  1  0  0  0  0
  1 22  1  0  0  0  0
  1 23  1  0  0  0  0
  2 20  1  0  0  0  0
  2  3  1  0  0  0  0
  2 24  1  0  0  0  0
  3  4  1  0  0  0  0
  3 25  1  0  0  0  0
  3 26  1  0  0  0  0
  4  5  1  0  0  0  0
  4 17  1  0  0  0  0
  5  6  1  0  0  0  0
  5  7  1  0  0  0  0
  5 27  1  0  0  0  0
  6 28  1  0  0  0  0
  6 29  1  0  0  0  0
  6 30  1  0  0  0  0
  7  8  1  0  0  0  0
  7 31  1  0  0  0  0
  7 32  1  0  0  0  0
  8  9  1  0  0  0  0
  8 33  1  0  0  0  0
  9 10  2  0  0  0  0
  9 11  1  0  0  0  0
 11 12  1  0  0  0  0
 12 16  1  0  0  0  0
 12 13  2  0  0  0  0
 13 14  1  0  0  0  0
 14 15  2  0  0  0  0
 14 34  1  0  0  0  0
 15 16  1  0  0  0  0
 15 35  1  0  0  0  0
 17 18  1  0  0  0  0
 17 36  1  0  0  0  0
 17 37  1  0  0  0  0
 18 19  1  0  0  0  0
 18 20  1  0  0  0  0
 18 38  1  0  0  0  0
 19 39  1  0  0  0  0
 19 40  1  0  0  0  0
 19 41  1  0  0  0  0
M  CHG  1  11  -1
M  END
> <s_m_source_file>
AV-unprocessed.smi

> <i_m_source_file_index>
2032

> <i_lp_mmshare_version>
43012

> <i_f3d_flags>
0

> <s_epik_input>
W0NIM11bQ0BASF0xW0NIMl1OKFtDSDJdW0NASF0oTzEpW0NIM10pW0NASF0oW0NIM10pW0NIMl1bTkhdQyg9TylbTkhdYzJuW2NIXVtjSF1zMg==

> <s_epik_cmdline>
J2VwaWtfcHl0aG9uJywgJy1waCcsICc3LjAnLCAnLXRuJywgJzgnLCAnLW1hJywgJzIwMCcsICctbWV0YWxfYmluZGluZycsICctaW1hZScsICc8aW5maWxlLm1hZT4nLCAnLW9tYWUnLCAnPG91dGZpbGUubWFlPic=

> <r_lp_tautomer_probability>
0.999

> <r_epik_Ionization_Penalty>
7.22375

> <r_epik_Ionization_Penalty_Charging>
5.82415

> <r_epik_Ionization_Penalty_Neutral>
1.39959

> <r_epik_State_Penalty>
6.03347

> <r_epik_Charging_Adjusted_Penalty>
11.8576

> <i_epik_Tot_Q>
-1

> <i_epik_Tot_abs_Q>
1

> <r_epik_Metal_State_Penalty>
2.01024

> <b_epik_Metal_Only>
1

> <s_lp_Force_Field>
OPLS_2005

> <r_lp_Energy>
26.7208

> <b_lp_Chiralities_Consistent>
1

> <s_lp_Variant>
AV-unprocessed.smi:2032-15

> <Gold.Version>
5.8.1

> <Gold.Id.Protein>
6NUR|6NUR_protein|mol2

> <Gold.PLP.Fitness>
43.6828

> <Gold.PLP.PLP>
-39.3276

> <Gold.PLP.part.hbond>
-2.0000

> <Gold.PLP.part.metal>
0.0000

> <Gold.PLP.part.buried>
-7.5800

> <Gold.PLP.part.nonpolar>
-30.2281

> <Gold.PLP.part.repulsive>
0.5871

> <Gold.PLP.ligand.clash>
0.0074

> <Gold.PLP.ligand.torsion>
0.8587

> <Gold.PLP.Chemscore.Hbond>
2.0000

> <Gold.PLP.Chemscore.CHOScore>
0.0000

> <Gold.PLP.Chemscore.Metal>
0.0000

> <Gold.Chemscore.Hbonds>
donor molecule, donor type, donor heavy atom, donor atom, acceptor molecule, acceptor atom, score
      L1  H     8    33       P1  8029  1.00
      P1  H  6933  6944       L1    10  1.00

> <Gold.PLP.Chemscore.Internal.Correction>
0.0799

> <Gold.Rescore>
     Score         DG    S(hbond)    S(metal)    S(lipo)     H(rot)  DE(clash)    DE(int)     intcor
     17.24     -19.76       1.91        0.00     101.23       1.54       0.05       2.47       ----

> <Gold.Chemscore.Fitness>
17.2386

> <Gold.Chemscore.DG>
-19.7559

> <Gold.Chemscore.ZeroCoef>
-5.4800

> <Gold.Chemscore.Hbond>
1.9107

> <Gold.Chemscore.Metal>
0.0000

> <Gold.Chemscore.Lipo>
101.2338

> <Gold.Chemscore.Internal_Hbond>
0.0000

> <Gold.Chemscore.DEClash>
0.0479

> <Gold.Chemscore.DEInternal>
2.4693

> <Gold.Chemscore.Rot>
1.5431

> <Gold.Chemscore.Internal.Correction>
   9.000000E+99

> <Gold.Chemscore.Hbonds>
donor molecule, donor type, donor heavy atom, donor atom, acceptor molecule, acceptor atom, score
      L1  H     8    33       P1  8029  1.00
      P1  H  6933  6944       L1    10  0.38

> <Gold.Chemscore.Hbond.Weighted>
-6.3818

> <Gold.Chemscore.Metal.Weighted>
-0.0000

> <Gold.Chemscore.Lipo.Weighted>
-11.8444

> <Gold.Chemscore.Internal_Hbond.Weighted>
0.0000

> <Gold.Chemscore.DEClash.Weighted>
0.0479

> <Gold.Chemscore.DEInternal.Weighted>
2.4693

> <Gold.Chemscore.Rot.Weighted>
3.9503

> <Gold.Chemscore.Internal.Correction.Weighted>
   9.000000E+99

> <Gold.Protein.RotatedTorsions>
[ 6907 6896 6895 6894 ] final   46.46 input  -60.11 | X-H torsion
[ 7974 7965 7964 7962 ] final -105.87 input  175.53 | X-H torsion
[ 8008 7997 7996 7995 ] final  168.20 input   59.86 | X-H torsion
[ 10167 10162 10161 10158 ] final   -0.06 input  -65.29 | X-H torsion
[ 10718 10713 10712 10709 ] final  145.59 input   66.30 | X-H torsion
[ 10763 10752 10751 10750 ] final -156.51 input  -60.55 | X-H torsion
[ 11005 11000 10999 10996 ] final   89.67 input  -57.11 | X-H torsion

> <Gold.Protein.ActiveResidues>
 VAL166  LYS551  ARG553  GLY616  TRP617  ASP618  TYR619  PRO620  LYS621  CYS622 
 ASP623  PHE694  ASN695  SER759  ASP760  ASP761  ALA762  ILE779  LEU786  VAL792 
 PHE793  MET794  SER795  GLU796  ALA797  LYS798  CYS799  TRP800  GLU811  SER814 

> <Gold.Protein.RotatedAtoms>
  152.2567  134.8077  160.0437 H   0  0  0  0  0  0  0  0  0  0  0  0  # atno 6907 bound_to 6896
  151.8738  133.3476  159.3752 H   0  0  0  0  0  0  0  0  0  0  0  0  # atno 6908 bound_to 6896
  150.7102  134.5013  159.5607 H   0  0  0  0  0  0  0  0  0  0  0  0  # atno 6909 bound_to 6896
  145.2249  140.9149  143.3238 H   0  0  0  0  0  0  0  0  0  0  0  0  # atno 7974 bound_to 7965
  156.1567  140.1597  156.8680 H   0  0  0  0  0  0  0  0  0  0  0  0  # atno 8008 bound_to 7997
  154.5122  140.0798  156.8048 H   0  0  0  0  0  0  0  0  0  0  0  0  # atno 8009 bound_to 7997
  155.3788  140.3404  155.4248 H   0  0  0  0  0  0  0  0  0  0  0  0  # atno 8010 bound_to 7997
  140.6751  143.6939  150.8005 H   0  0  0  0  0  0  0  0  0  0  0  0  # atno 10167 bound_to 10162
  157.3435  131.0939  151.1062 H   0  0  0  0  0  0  0  0  0  0  0  0  # atno 10718 bound_to 10713
  154.7707  135.3144  154.8195 H   0  0  0  0  0  0  0  0  0  0  0  0  # atno 10763 bound_to 10752
  153.8931  135.6823  153.4763 H   0  0  0  0  0  0  0  0  0  0  0  0  # atno 10764 bound_to 10752
  153.1320  135.4776  154.9298 H   0  0  0  0  0  0  0  0  0  0  0  0  # atno 10765 bound_to 10752
  139.8870  134.8566  156.3176 H   0  0  0  0  0  0  0  0  0  0  0  0  # atno 11005 bound_to 11000
  144.9730  139.3860  143.6299 LP  0  0  0  0  0  0  0  0  0  0  0  0  # atno 17320 bound_to 7965
  146.3367  139.8837  142.8820 LP  0  0  0  0  0  0  0  0  0  0  0  0  # atno 17321 bound_to 7965
  140.0631  143.5135  152.2618 LP  0  0  0  0  0  0  0  0  0  0  0  0  # atno 17342 bound_to 10162
  139.6039  144.7590  151.3108 LP  0  0  0  0  0  0  0  0  0  0  0  0  # atno 17343 bound_to 10162
  157.2265  130.6505  149.5832 LP  0  0  0  0  0  0  0  0  0  0  0  0  # atno 17370 bound_to 10713
  155.9711  130.4612  150.6102 LP  0  0  0  0  0  0  0  0  0  0  0  0  # atno 17371 bound_to 10713
  140.9808  133.7268  156.0670 LP  0  0  0  0  0  0  0  0  0  0  0  0  # atno 17394 bound_to 11000
  140.7751  134.3788  157.5499 LP  0  0  0  0  0  0  0  0  0  0  0  0  # atno 17395 bound_to 11000

$$$$
