AV-unprocessed.smi:2100|AV-procd|sdf|8573|dock9
  -GOLD-   2272011303D 1   1.00000     0.00000
 Structure written by MMmdl.
 41 42  0  0  0  0  0  0  0  0  1 V2000
  146.2733  136.8115  155.0934 C   0  0  0  0  0  0  0  0  0  0  0  0
  147.3175  137.8283  154.6197 C   0  0  2  0  0  0  0  0  0  0  0  0
  148.6665  137.6409  155.3345 C   0  0  0  0  0  0  0  0  0  0  0  0
  149.6098  138.7072  154.9619 N   0  0  0  0  0  0  0  0  0  0  0  0
  151.2745  138.4839  155.3788 S   0  0  0  0  0  0  0  0  0  0  0  0
  151.6551  137.0924  155.0909 O   0  0  0  0  0  0  0  0  0  0  0  0
  152.0501  139.6078  154.8325 O   0  0  0  0  0  0  0  0  0  0  0  0
  151.1630  138.6611  157.0927 N   0  0  0  0  0  0  0  0  0  0  0  0
  150.6856  139.9204  157.6668 C   0  0  0  0  0  0  0  0  0  0  0  0
  151.5569  140.3674  158.8515 C   0  0  0  0  0  0  0  0  0  0  0  0
  151.8322  141.8589  158.8254 C   0  0  0  0  0  0  0  0  0  0  0  0
  152.5655  142.4756  159.8616 C   0  0  0  0  0  0  0  0  0  0  0  0
  152.8004  143.8622  159.7836 C   0  0  0  0  0  0  0  0  0  0  0  0
  152.2972  144.5743  158.6779 C   0  0  0  0  0  0  0  0  0  0  0  0
  151.5780  143.8653  157.6950 C   0  0  0  0  0  0  0  0  0  0  0  0
  151.3471  142.5364  157.7603 N   0  0  0  0  0  0  0  0  0  0  0  0
  149.0526  140.0562  155.1456 C   0  0  0  0  0  0  0  0  0  0  0  0
  147.6699  140.1946  154.4794 C   0  0  1  0  0  0  0  0  0  0  0  0
  147.7429  140.3369  152.9483 C   0  0  0  0  0  0  0  0  0  0  0  0
  146.8091  139.1314  154.8804 O   0  0  0  0  0  0  0  0  0  0  0  0
  146.6068  135.7901  154.9078 H   0  0  0  0  0  0  0  0  0  0  0  0
  145.3277  136.9522  154.5694 H   0  0  0  0  0  0  0  0  0  0  0  0
  146.0801  136.9120  156.1619 H   0  0  0  0  0  0  0  0  0  0  0  0
  147.4525  137.6923  153.5465 H   0  0  0  0  0  0  0  0  0  0  0  0
  148.5295  137.6567  156.4168 H   0  0  0  0  0  0  0  0  0  0  0  0
  149.0842  136.6666  155.0825 H   0  0  0  0  0  0  0  0  0  0  0  0
  151.9771  138.2814  157.5752 H   0  0  0  0  0  0  0  0  0  0  0  0
  150.7074  140.6820  156.8869 H   0  0  0  0  0  0  0  0  0  0  0  0
  149.6443  139.8062  157.9705 H   0  0  0  0  0  0  0  0  0  0  0  0
  151.0702  140.1264  159.7971 H   0  0  0  0  0  0  0  0  0  0  0  0
  152.5036  139.8250  158.8456 H   0  0  0  0  0  0  0  0  0  0  0  0
  152.9412  141.9017  160.6961 H   0  0  0  0  0  0  0  0  0  0  0  0
  153.3571  144.3698  160.5574 H   0  0  0  0  0  0  0  0  0  0  0  0
  152.4585  145.6380  158.5846 H   0  0  0  0  0  0  0  0  0  0  0  0
  151.1777  144.3791  156.8336 H   0  0  0  0  0  0  0  0  0  0  0  0
  148.9691  140.2510  156.2156 H   0  0  0  0  0  0  0  0  0  0  0  0
  149.7384  140.8021  154.7433 H   0  0  0  0  0  0  0  0  0  0  0  0
  147.2119  141.1093  154.8567 H   0  0  0  0  0  0  0  0  0  0  0  0
  148.2792  141.2447  152.6705 H   0  0  0  0  0  0  0  0  0  0  0  0
  146.7444  140.3989  152.5150 H   0  0  0  0  0  0  0  0  0  0  0  0
  148.2617  139.5012  152.4795 H   0  0  0  0  0  0  0  0  0  0  0  0
  1  2  1  0  0  0  0
  1 21  1  0  0  0  0
  1 22  1  0  0  0  0
  1 23  1  0  0  0  0
  2 20  1  0  0  0  0
  2  3  1  0  0  0  0
  2 24  1  0  0  0  0
  3  4  1  0  0  0  0
  3 25  1  0  0  0  0
  3 26  1  0  0  0  0
  4  5  1  0  0  0  0
  4 17  1  0  0  0  0
  5  6  2  0  0  0  0
  5  7  2  0  0  0  0
  5  8  1  0  0  0  0
  8  9  1  0  0  0  0
  8 27  1  0  0  0  0
  9 10  1  0  0  0  0
  9 28  1  0  0  0  0
  9 29  1  0  0  0  0
 10 11  1  0  0  0  0
 10 30  1  0  0  0  0
 10 31  1  0  0  0  0
 11 16  1  0  0  0  0
 11 12  2  0  0  0  0
 12 13  1  0  0  0  0
 12 32  1  0  0  0  0
 13 14  2  0  0  0  0
 13 33  1  0  0  0  0
 14 15  1  0  0  0  0
 14 34  1  0  0  0  0
 15 16  2  0  0  0  0
 15 35  1  0  0  0  0
 17 18  1  0  0  0  0
 17 36  1  0  0  0  0
 17 37  1  0  0  0  0
 18 19  1  0  0  0  0
 18 20  1  0  0  0  0
 18 38  1  0  0  0  0
 19 39  1  0  0  0  0
 19 40  1  0  0  0  0
 19 41  1  0  0  0  0
M  END
> <s_m_source_file>
AV-unprocessed.smi

> <i_m_source_file_index>
2100

> <i_lp_mmshare_version>
43012

> <i_f3d_flags>
0

> <s_epik_input>
W0NIM11bQ0BASF0xW0NIMl1OKFtDSDJdW0NASF0oTzEpW0NIM10pUyg9TykoPU8pW05IXVtDSDJdW0NIMl1jMltjSF1bY0hdW2NIXVtjSF1uMg==

> <s_epik_cmdline>
J2VwaWtfcHl0aG9uJywgJy1waCcsICc3LjAnLCAnLXRuJywgJzgnLCAnLW1hJywgJzIwMCcsICctbWV0YWxfYmluZGluZycsICctaW1hZScsICc8aW5maWxlLm1hZT4nLCAnLW9tYWUnLCAnPG91dGZpbGUubWFlPic=

> <r_epik_Ionization_Penalty>
0.085378

> <r_epik_Ionization_Penalty_Charging>
0

> <r_epik_Ionization_Penalty_Neutral>
0.085378

> <r_epik_State_Penalty>
0.0441186

> <r_epik_Charging_Adjusted_Penalty>
0.0441186

> <i_epik_Tot_Q>
0

> <i_epik_Tot_abs_Q>
0

> <r_epik_Metal_State_Penalty>
0.24397

> <b_epik_Metal_Only>
0

> <s_lp_Force_Field>
OPLS_2005

> <r_lp_Energy>
7.96462

> <b_lp_Chiralities_Consistent>
1

> <s_lp_Variant>
AV-unprocessed.smi:2100-1

> <Gold.Version>
5.8.1

> <Gold.Id.Protein>
6NUR|6NUR_protein|mol2

> <Gold.PLP.Fitness>
38.4280

> <Gold.PLP.PLP>
-31.0088

> <Gold.PLP.part.hbond>
-2.0000

> <Gold.PLP.part.metal>
0.0000

> <Gold.PLP.part.buried>
-2.3356

> <Gold.PLP.part.nonpolar>
-28.0167

> <Gold.PLP.part.repulsive>
0.4429

> <Gold.PLP.ligand.clash>
0.0000

> <Gold.PLP.ligand.torsion>
0.9793

> <Gold.PLP.Chemscore.Hbond>
1.8800

> <Gold.PLP.Chemscore.CHOScore>
1.0000

> <Gold.PLP.Chemscore.Metal>
0.0000

> <Gold.Chemscore.Hbonds>
donor molecule, donor type, donor heavy atom, donor atom, acceptor molecule, acceptor atom, score
      P1  H  7989  7998       L1     7  0.88
      P1  H 10752 10763       L1     6  0.98
      L1  C    15    35       P1  8028  0.91

> <Gold.PLP.Chemscore.Internal.Correction>
0.7379

> <Gold.Rescore>
     Score         DG    S(hbond)    S(metal)    S(lipo)     H(rot)  DE(clash)    DE(int)     intcor
     16.75     -17.82       1.90        0.00      88.45       1.71       0.07       1.01       ----

> <Gold.Chemscore.Fitness>
16.7485

> <Gold.Chemscore.DG>
-17.8237

> <Gold.Chemscore.ZeroCoef>
-5.4800

> <Gold.Chemscore.Hbond>
1.9050

> <Gold.Chemscore.Metal>
0.0000

> <Gold.Chemscore.Lipo>
88.4487

> <Gold.Chemscore.Internal_Hbond>
0.0000

> <Gold.Chemscore.DEClash>
0.0695

> <Gold.Chemscore.DEInternal>
1.0058

> <Gold.Chemscore.Rot>
1.7060

> <Gold.Chemscore.Internal.Correction>
   9.000000E+99

> <Gold.Chemscore.Hbonds>
donor molecule, donor type, donor heavy atom, donor atom, acceptor molecule, acceptor atom, score
      P1  H  7989  7998       L1     7  0.86
      P1  H 10752 10763       L1     6  0.90

> <Gold.Chemscore.Hbond.Weighted>
-6.3626

> <Gold.Chemscore.Metal.Weighted>
-0.0000

> <Gold.Chemscore.Lipo.Weighted>
-10.3485

> <Gold.Chemscore.Internal_Hbond.Weighted>
0.0000

> <Gold.Chemscore.DEClash.Weighted>
0.0695

> <Gold.Chemscore.DEInternal.Weighted>
1.0058

> <Gold.Chemscore.Rot.Weighted>
4.3674

> <Gold.Chemscore.Internal.Correction.Weighted>
   9.000000E+99

> <Gold.Protein.RotatedTorsions>
[ 6907 6896 6895 6894 ] final -169.69 input  -60.11 | X-H torsion
[ 7974 7965 7964 7962 ] final   25.05 input  175.53 | X-H torsion
[ 8008 7997 7996 7995 ] final   94.74 input   59.86 | X-H torsion
[ 10167 10162 10161 10158 ] final  -27.52 input  -65.29 | X-H torsion
[ 10718 10713 10712 10709 ] final  156.02 input   66.30 | X-H torsion
[ 10763 10752 10751 10750 ] final   52.28 input  -60.55 | X-H torsion
[ 11005 11000 10999 10996 ] final  176.08 input  -57.11 | X-H torsion

> <Gold.Protein.ActiveResidues>
 VAL166  LYS551  ARG553  GLY616  TRP617  ASP618  TYR619  PRO620  LYS621  CYS622 
 ASP623  PHE694  ASN695  SER759  ASP760  ASP761  ALA762  ILE779  LEU786  VAL792 
 PHE793  MET794  SER795  GLU796  ALA797  LYS798  CYS799  TRP800  GLU811  SER814 

> <Gold.Protein.RotatedAtoms>
  151.4956  133.3515  159.2860 H   0  0  0  0  0  0  0  0  0  0  0  0  # atno 6907 bound_to 6896
  150.8806  134.8198  159.7233 H   0  0  0  0  0  0  0  0  0  0  0  0  # atno 6908 bound_to 6896
  152.4760  134.4853  159.9730 H   0  0  0  0  0  0  0  0  0  0  0  0  # atno 6909 bound_to 6896
  146.1908  139.7520  142.8833 H   0  0  0  0  0  0  0  0  0  0  0  0  # atno 7974 bound_to 7965
  156.0613  140.3296  155.7465 H   0  0  0  0  0  0  0  0  0  0  0  0  # atno 8008 bound_to 7997
  155.5451  140.0605  157.2879 H   0  0  0  0  0  0  0  0  0  0  0  0  # atno 8009 bound_to 7997
  154.4482  140.1904  156.0618 H   0  0  0  0  0  0  0  0  0  0  0  0  # atno 8010 bound_to 7997
  140.7276  143.4087  151.1142 H   0  0  0  0  0  0  0  0  0  0  0  0  # atno 10167 bound_to 10162
  157.2106  131.0697  151.1971 H   0  0  0  0  0  0  0  0  0  0  0  0  # atno 10718 bound_to 10713
  152.9788  135.5817  154.4553 H   0  0  0  0  0  0  0  0  0  0  0  0  # atno 10763 bound_to 10752
  154.4137  135.2770  155.2022 H   0  0  0  0  0  0  0  0  0  0  0  0  # atno 10764 bound_to 10752
  154.3801  135.6148  153.5840 H   0  0  0  0  0  0  0  0  0  0  0  0  # atno 10765 bound_to 10752
  140.3693  134.7044  157.4381 H   0  0  0  0  0  0  0  0  0  0  0  0  # atno 11005 bound_to 11000
  145.3799  141.0356  143.3183 LP  0  0  0  0  0  0  0  0  0  0  0  0  # atno 17320 bound_to 7965
  144.8483  139.5362  143.6868 LP  0  0  0  0  0  0  0  0  0  0  0  0  # atno 17321 bound_to 7965
  139.7717  143.8485  152.3121 LP  0  0  0  0  0  0  0  0  0  0  0  0  # atno 17342 bound_to 10162
  139.8405  144.7212  150.9336 LP  0  0  0  0  0  0  0  0  0  0  0  0  # atno 17343 bound_to 10162
  157.3676  130.7164  149.6543 LP  0  0  0  0  0  0  0  0  0  0  0  0  # atno 17370 bound_to 10713
  155.9691  130.4208  150.4439 LP  0  0  0  0  0  0  0  0  0  0  0  0  # atno 17371 bound_to 10713
  140.0565  134.6057  155.8799 LP  0  0  0  0  0  0  0  0  0  0  0  0  # atno 17394 bound_to 11000
  141.1960  133.6589  156.5669 LP  0  0  0  0  0  0  0  0  0  0  0  0  # atno 17395 bound_to 11000

$$$$
