AV-unprocessed.smi:528|AV-procd|sdf|2832|dock6
  -GOLD-   2262023323D 1   1.00000     0.00000
 Structure written by MMmdl.
 45 47  0  0  0  0  0  0  0  0  1 V2000
  156.0297  139.8229  165.0177 C   0  0  0  0  0  0  0  0  0  0  0  0
  154.8637  139.1255  164.2959 C   0  0  1  0  0  0  0  0  0  0  0  0
  154.9351  139.4029  162.8628 N   0  0  0  0  0  0  0  0  0  0  0  0
  154.7990  140.6096  162.2919 C   0  0  0  0  0  0  0  0  0  0  0  0
  154.6211  141.6454  162.9344 O   0  0  0  0  0  0  0  0  0  0  0  0
  154.9014  140.6397  160.7602 C   0  0  0  0  0  0  0  0  0  0  0  0
  153.6371  140.9991  160.0963 N   0  0  0  0  0  0  0  0  0  0  0  0
  153.3548  142.3721  159.9530 C   0  0  0  0  0  0  0  0  0  0  0  0
  152.2281  142.8323  159.3758 C   0  0  0  0  0  0  0  0  0  0  0  0
  151.9747  144.3201  159.1886 C   0  0  0  0  0  0  0  0  0  0  0  0
  152.0063  144.9626  160.3563 F   0  0  0  0  0  0  0  0  0  0  0  0
  152.9127  144.8441  158.4013 F   0  0  0  0  0  0  0  0  0  0  0  0
  150.7874  144.5393  158.6223 F   0  0  0  0  0  0  0  0  0  0  0  0
  151.3101  141.8331  158.8657 C   0  0  0  0  0  0  0  0  0  0  0  0
  151.5666  140.5162  158.9911 C   0  0  0  0  0  0  0  0  0  0  0  0
  152.7852  140.0311  159.6429 C   0  0  0  0  0  0  0  0  0  0  0  0
  153.0264  138.8305  159.7715 O   0  0  0  0  0  0  0  0  0  0  0  0
  154.8636  137.5945  164.5184 C   0  0  2  0  0  0  0  0  0  0  0  0
  155.8868  136.8142  163.6607 C   0  0  0  0  0  0  0  0  0  0  0  0
  155.0397  135.6788  163.0571 C   0  0  2  0  0  0  0  0  0  0  0  0
  154.1356  136.2587  161.9544 C   0  0  0  0  0  0  0  0  0  0  0  0
  153.0818  137.0410  162.7592 C   0  0  0  0  0  0  0  0  0  0  0  0
  153.5445  136.8397  164.2174 C   0  0  1  0  0  0  0  0  0  0  0  0
  154.0375  135.3966  164.1705 C   0  0  0  0  0  0  0  0  0  0  0  0
  155.9704  139.6795  166.0965 H   0  0  0  0  0  0  0  0  0  0  0  0
  156.0209  140.8980  164.8360 H   0  0  0  0  0  0  0  0  0  0  0  0
  156.9927  139.4365  164.6824 H   0  0  0  0  0  0  0  0  0  0  0  0
  153.9265  139.5363  164.6725 H   0  0  0  0  0  0  0  0  0  0  0  0
  155.0864  138.6097  162.2565 H   0  0  0  0  0  0  0  0  0  0  0  0
  155.6914  141.3407  160.4874 H   0  0  0  0  0  0  0  0  0  0  0  0
  155.2476  139.6680  160.4026 H   0  0  0  0  0  0  0  0  0  0  0  0
  154.1143  143.0309  160.3484 H   0  0  0  0  0  0  0  0  0  0  0  0
  150.3973  142.1450  158.3797 H   0  0  0  0  0  0  0  0  0  0  0  0
  150.8576  139.7997  158.6029 H   0  0  0  0  0  0  0  0  0  0  0  0
  155.1039  137.4156  165.5684 H   0  0  0  0  0  0  0  0  0  0  0  0
  156.3500  137.4252  162.8847 H   0  0  0  0  0  0  0  0  0  0  0  0
  156.6859  136.4168  164.2876 H   0  0  0  0  0  0  0  0  0  0  0  0
  155.6269  134.8192  162.7333 H   0  0  0  0  0  0  0  0  0  0  0  0
  154.6855  136.8943  161.2592 H   0  0  0  0  0  0  0  0  0  0  0  0
  153.6638  135.4621  161.3777 H   0  0  0  0  0  0  0  0  0  0  0  0
  153.0118  138.0870  162.4639 H   0  0  0  0  0  0  0  0  0  0  0  0
  152.0950  136.6002  162.6120 H   0  0  0  0  0  0  0  0  0  0  0  0
  152.7599  137.0213  164.9523 H   0  0  0  0  0  0  0  0  0  0  0  0
  153.2634  134.6818  163.8850 H   0  0  0  0  0  0  0  0  0  0  0  0
  154.5042  135.0647  165.0996 H   0  0  0  0  0  0  0  0  0  0  0  0
  1  2  1  0  0  0  0
  1 25  1  0  0  0  0
  1 26  1  0  0  0  0
  1 27  1  0  0  0  0
  2  3  1  0  0  0  0
  2 18  1  0  0  0  0
  2 28  1  0  0  0  0
  3  4  1  0  0  0  0
  3 29  1  0  0  0  0
  4  5  2  0  0  0  0
  4  6  1  0  0  0  0
  6  7  1  0  0  0  0
  6 30  1  0  0  0  0
  6 31  1  0  0  0  0
  7 16  1  0  0  0  0
  7  8  1  0  0  0  0
  8  9  2  0  0  0  0
  8 32  1  0  0  0  0
  9 10  1  0  0  0  0
  9 14  1  0  0  0  0
 10 11  1  0  0  0  0
 10 12  1  0  0  0  0
 10 13  1  0  0  0  0
 14 15  2  0  0  0  0
 14 33  1  0  0  0  0
 15 16  1  0  0  0  0
 15 34  1  0  0  0  0
 16 17  2  0  0  0  0
 18 23  1  0  0  0  0
 18 19  1  0  0  0  0
 18 35  1  0  0  0  0
 19 20  1  0  0  0  0
 19 36  1  0  0  0  0
 19 37  1  0  0  0  0
 20 24  1  0  0  0  0
 20 21  1  0  0  0  0
 20 38  1  0  0  0  0
 21 22  1  0  0  0  0
 21 39  1  0  0  0  0
 21 40  1  0  0  0  0
 22 23  1  0  0  0  0
 22 41  1  0  0  0  0
 22 42  1  0  0  0  0
 23 24  1  0  0  0  0
 23 43  1  0  0  0  0
 24 44  1  0  0  0  0
 24 45  1  0  0  0  0
M  END
> <s_m_source_file>
AV-unprocessed.smi

> <i_m_source_file_index>
528

> <i_lp_mmshare_version>
43012

> <i_f3d_flags>
0

> <s_epik_input>
W0NIMl0xW0NIMl1bQ0BASF0oW0NIMl0yKVtDQEBIXShbQ0gyXVtDQEhdMTIpW0NASF0oW0NIM10pW05IXUMoPU8pW0NIMl1uM1tjSF1jKEMoRikoRilGKVtjSF1bY0hdYzM9Tw==

> <s_epik_cmdline>
J2VwaWtfcHl0aG9uJywgJy1waCcsICc3LjAnLCAnLXRuJywgJzgnLCAnLW1hJywgJzIwMCcsICctbWV0YWxfYmluZGluZycsICctaW1hZScsICc8aW5maWxlLm1hZT4nLCAnLW9tYWUnLCAnPG91dGZpbGUubWFlPic=

> <r_lp_tautomer_probability>
1

> <r_epik_Ionization_Penalty>
4.09479e-08

> <r_epik_Ionization_Penalty_Charging>
1.9321e-08

> <r_epik_Ionization_Penalty_Neutral>
2.16269e-08

> <r_epik_State_Penalty>
-0

> <r_epik_Charging_Adjusted_Penalty>
1.9321e-08

> <i_epik_Tot_Q>
0

> <i_epik_Tot_abs_Q>
0

> <r_epik_Metal_State_Penalty>
-0

> <b_epik_Metal_Only>
0

> <s_lp_Force_Field>
OPLS_2005

> <r_lp_Energy>
63.1325

> <b_lp_Chiralities_Consistent>
1

> <s_lp_Variant>
AV-unprocessed.smi:528-2

> <Gold.Version>
5.8.1

> <Gold.Id.Protein>
6NUR|6NUR_protein|mol2

> <Gold.PLP.Fitness>
52.4691

> <Gold.PLP.PLP>
-53.8941

> <Gold.PLP.part.hbond>
-1.0000

> <Gold.PLP.part.metal>
0.0000

> <Gold.PLP.part.buried>
-4.6029

> <Gold.PLP.part.nonpolar>
-47.8455

> <Gold.PLP.part.repulsive>
0.0000

> <Gold.PLP.ligand.clash>
0.0000

> <Gold.PLP.ligand.torsion>
0.7728

> <Gold.PLP.Chemscore.Hbond>
0.0000

> <Gold.PLP.Chemscore.CHOScore>
0.0000

> <Gold.PLP.Chemscore.Metal>
0.0000

> <Gold.PLP.Chemscore.Internal.Correction>
0.1207

> <Gold.Rescore>
     Score         DG    S(hbond)    S(metal)    S(lipo)     H(rot)  DE(clash)    DE(int)     intcor
     11.06     -15.26       0.00        0.00     121.10       1.71       2.57       1.63       ----

> <Gold.Chemscore.Fitness>
11.0608

> <Gold.Chemscore.DG>
-15.2646

> <Gold.Chemscore.ZeroCoef>
-5.4800

> <Gold.Chemscore.Hbond>
0.0000

> <Gold.Chemscore.Metal>
0.0000

> <Gold.Chemscore.Lipo>
121.0985

> <Gold.Chemscore.Internal_Hbond>
0.0000

> <Gold.Chemscore.DEClash>
2.5696

> <Gold.Chemscore.DEInternal>
1.6341

> <Gold.Chemscore.Rot>
1.7125

> <Gold.Chemscore.Internal.Correction>
   9.000000E+99

> <Gold.Chemscore.Hbond.Weighted>
-0.0000

> <Gold.Chemscore.Metal.Weighted>
-0.0000

> <Gold.Chemscore.Lipo.Weighted>
-14.1685

> <Gold.Chemscore.Internal_Hbond.Weighted>
0.0000

> <Gold.Chemscore.DEClash.Weighted>
2.5696

> <Gold.Chemscore.DEInternal.Weighted>
1.6341

> <Gold.Chemscore.Rot.Weighted>
4.3840

> <Gold.Chemscore.Internal.Correction.Weighted>
   9.000000E+99

> <Gold.Protein.RotatedTorsions>
[ 6907 6896 6895 6894 ] final   35.33 input  -60.11 | X-H torsion
[ 7974 7965 7964 7962 ] final   79.77 input  175.53 | X-H torsion
[ 8008 7997 7996 7995 ] final   80.00 input   59.86 | X-H torsion
[ 10167 10162 10161 10158 ] final  -53.33 input  -65.29 | X-H torsion
[ 10718 10713 10712 10709 ] final   15.52 input   66.30 | X-H torsion
[ 10763 10752 10751 10750 ] final -161.68 input  -60.55 | X-H torsion
[ 11005 11000 10999 10996 ] final   80.05 input  -57.11 | X-H torsion

> <Gold.Protein.ActiveResidues>
 VAL166  LYS551  ARG553  GLY616  TRP617  ASP618  TYR619  PRO620  LYS621  CYS622 
 ASP623  PHE694  ASN695  SER759  ASP760  ASP761  ALA762  ILE779  LEU786  VAL792 
 PHE793  MET794  SER795  GLU796  ALA797  LYS798  CYS799  TRP800  GLU811  SER814 

> <Gold.Protein.RotatedAtoms>
  152.1147  134.9249  160.0565 H   0  0  0  0  0  0  0  0  0  0  0  0  # atno 6907 bound_to 6896
  152.0413  133.3974  159.4346 H   0  0  0  0  0  0  0  0  0  0  0  0  # atno 6908 bound_to 6896
  150.6845  134.3332  159.4880 H   0  0  0  0  0  0  0  0  0  0  0  0  # atno 6909 bound_to 6896
  145.6599  139.2469  143.1928 H   0  0  0  0  0  0  0  0  0  0  0  0  # atno 7974 bound_to 7965
  155.8775  140.3446  155.5864 H   0  0  0  0  0  0  0  0  0  0  0  0  # atno 8008 bound_to 7997
  155.7757  140.0851  157.2104 H   0  0  0  0  0  0  0  0  0  0  0  0  # atno 8009 bound_to 7997
  154.4022  140.1510  156.2981 H   0  0  0  0  0  0  0  0  0  0  0  0  # atno 8010 bound_to 7997
  140.6490  143.2554  151.4777 H   0  0  0  0  0  0  0  0  0  0  0  0  # atno 10167 bound_to 10162
  157.0547  130.6284  149.5774 H   0  0  0  0  0  0  0  0  0  0  0  0  # atno 10718 bound_to 10713
  154.7282  135.3040  154.8936 H   0  0  0  0  0  0  0  0  0  0  0  0  # atno 10763 bound_to 10752
  153.9787  135.6733  153.4753 H   0  0  0  0  0  0  0  0  0  0  0  0  # atno 10764 bound_to 10752
  153.0894  135.4967  154.8580 H   0  0  0  0  0  0  0  0  0  0  0  0  # atno 10765 bound_to 10752
  139.9149  134.7890  156.1858 H   0  0  0  0  0  0  0  0  0  0  0  0  # atno 11005 bound_to 11000
  146.1133  140.7401  142.9492 LP  0  0  0  0  0  0  0  0  0  0  0  0  # atno 17320 bound_to 7965
  144.7092  140.3975  143.7093 LP  0  0  0  0  0  0  0  0  0  0  0  0  # atno 17321 bound_to 7965
  139.5703  144.1944  152.1827 LP  0  0  0  0  0  0  0  0  0  0  0  0  # atno 17342 bound_to 10162
  140.1238  144.5350  150.6846 LP  0  0  0  0  0  0  0  0  0  0  0  0  # atno 17343 bound_to 10162
  155.9997  130.5073  150.7615 LP  0  0  0  0  0  0  0  0  0  0  0  0  # atno 17370 bound_to 10713
  157.5002  131.0918  151.0323 LP  0  0  0  0  0  0  0  0  0  0  0  0  # atno 17371 bound_to 10713
  141.0614  133.6840  156.1960 LP  0  0  0  0  0  0  0  0  0  0  0  0  # atno 17394 bound_to 11000
  140.6655  134.4923  157.5585 LP  0  0  0  0  0  0  0  0  0  0  0  0  # atno 17395 bound_to 11000

$$$$
