AV-unprocessed.smi:3155|AV-procd|sdf|12028|dock3
  -GOLD-   2272017443D 1   1.00000     0.00000
 Structure written by MMmdl.
 37 38  0  0  0  0  0  0  0  0  1 V2000
  147.1882  141.9994  154.6955 C   0  0  0  0  0  0  0  0  0  0  0  0
  148.2916  141.0710  155.2232 C   0  0  1  0  0  0  0  0  0  0  0  0
  149.0137  140.3656  154.0511 C   0  0  0  0  0  0  0  0  0  0  0  0
  150.0092  139.3969  154.4762 N   0  0  0  0  0  0  0  0  0  0  0  0
  149.9719  138.0226  154.3630 C   0  0  0  0  0  0  0  0  0  0  0  0
  151.1351  137.5390  154.8894 C   0  0  0  0  0  0  0  0  0  0  0  0
  151.8369  138.7098  155.2902 C   0  0  0  0  0  0  0  0  0  0  0  0
  151.1648  139.8199  155.0327 N   0  0  0  0  0  0  0  0  0  0  0  0
  149.2110  141.9042  155.9943 N   0  0  0  0  0  0  0  0  0  0  0  0
  149.0536  141.7345  157.4446 C   0  0  0  0  0  0  0  0  0  0  0  0
  150.3966  141.4561  158.1281 C   0  0  0  0  0  0  0  0  0  0  0  0
  150.8837  140.3293  158.0330 O   0  0  0  0  0  0  0  0  0  0  0  0
  151.0061  142.4494  158.8099 N   0  0  0  0  0  0  0  0  0  0  0  0
  152.2964  142.3580  159.4916 C   0  0  0  0  0  0  0  0  0  0  0  0
  152.6634  143.7900  159.8793 C   0  0  0  0  0  0  0  0  0  0  0  0
  151.3224  144.5026  159.9822 C   0  0  0  0  0  0  0  0  0  0  0  0
  150.4416  143.7899  158.9556 C   0  0  0  0  0  0  0  0  0  0  0  0
  146.4434  141.4385  154.1301 H   0  0  0  0  0  0  0  0  0  0  0  0
  147.5932  142.7683  154.0361 H   0  0  0  0  0  0  0  0  0  0  0  0
  146.6667  142.4999  155.5121 H   0  0  0  0  0  0  0  0  0  0  0  0
  147.8095  140.3352  155.8689 H   0  0  0  0  0  0  0  0  0  0  0  0
  148.2863  139.8250  153.4442 H   0  0  0  0  0  0  0  0  0  0  0  0
  149.4771  141.0998  153.3892 H   0  0  0  0  0  0  0  0  0  0  0  0
  149.1271  137.5092  153.9278 H   0  0  0  0  0  0  0  0  0  0  0  0
  151.4402  136.5065  154.9727 H   0  0  0  0  0  0  0  0  0  0  0  0
  152.8089  138.7861  155.7550 H   0  0  0  0  0  0  0  0  0  0  0  0
  149.0594  142.8691  155.7362 H   0  0  0  0  0  0  0  0  0  0  0  0
  148.6295  142.6450  157.8705 H   0  0  0  0  0  0  0  0  0  0  0  0
  148.3543  140.9325  157.6723 H   0  0  0  0  0  0  0  0  0  0  0  0
  152.1858  141.7395  160.3834 H   0  0  0  0  0  0  0  0  0  0  0  0
  153.0686  141.9167  158.8605 H   0  0  0  0  0  0  0  0  0  0  0  0
  153.2447  143.8426  160.8004 H   0  0  0  0  0  0  0  0  0  0  0  0
  153.2567  144.2427  159.0835 H   0  0  0  0  0  0  0  0  0  0  0  0
  150.9098  144.3586  160.9815 H   0  0  0  0  0  0  0  0  0  0  0  0
  151.3981  145.5755  159.8030 H   0  0  0  0  0  0  0  0  0  0  0  0
  150.4858  144.3001  157.9925 H   0  0  0  0  0  0  0  0  0  0  0  0
  149.3996  143.7636  159.2784 H   0  0  0  0  0  0  0  0  0  0  0  0
  1  2  1  0  0  0  0
  1 18  1  0  0  0  0
  1 19  1  0  0  0  0
  1 20  1  0  0  0  0
  2  3  1  0  0  0  0
  2  9  1  0  0  0  0
  2 21  1  0  0  0  0
  3  4  1  0  0  0  0
  3 22  1  0  0  0  0
  3 23  1  0  0  0  0
  4  8  1  0  0  0  0
  4  5  1  0  0  0  0
  5  6  2  0  0  0  0
  5 24  1  0  0  0  0
  6  7  1  0  0  0  0
  6 25  1  0  0  0  0
  7  8  2  0  0  0  0
  7 26  1  0  0  0  0
  9 10  1  0  0  0  0
  9 27  1  0  0  0  0
 10 11  1  0  0  0  0
 10 28  1  0  0  0  0
 10 29  1  0  0  0  0
 11 12  2  0  0  0  0
 11 13  1  0  0  0  0
 13 17  1  0  0  0  0
 13 14  1  0  0  0  0
 14 15  1  0  0  0  0
 14 30  1  0  0  0  0
 14 31  1  0  0  0  0
 15 16  1  0  0  0  0
 15 32  1  0  0  0  0
 15 33  1  0  0  0  0
 16 17  1  0  0  0  0
 16 34  1  0  0  0  0
 16 35  1  0  0  0  0
 17 36  1  0  0  0  0
 17 37  1  0  0  0  0
M  END
> <s_m_source_file>
AV-unprocessed.smi

> <i_m_source_file_index>
3155

> <i_lp_mmshare_version>
43012

> <i_f3d_flags>
0

> <s_epik_input>
bjFbY0hdW2NIXVtjSF1uMVtDSDJdW0NAQEhdKFtDSDNdKVtOSF1bQ0gyXUMoPU8pTjJbQ0gyXVtDSDJdW0NIMl1bQ0gyXTI=

> <s_epik_cmdline>
J2VwaWtfcHl0aG9uJywgJy1waCcsICc3LjAnLCAnLXRuJywgJzgnLCAnLW1hJywgJzIwMCcsICctbWV0YWxfYmluZGluZycsICctaW1hZScsICc8aW5maWxlLm1hZT4nLCAnLW9tYWUnLCAnPG91dGZpbGUubWFlPic=

> <r_lp_tautomer_probability>
1

> <r_epik_Ionization_Penalty>
1.00455

> <r_epik_Ionization_Penalty_Charging>
0

> <r_epik_Ionization_Penalty_Neutral>
1.00455

> <r_epik_State_Penalty>
1.05336

> <r_epik_Charging_Adjusted_Penalty>
1.05336

> <i_epik_Tot_Q>
0

> <i_epik_Tot_abs_Q>
0

> <r_epik_Metal_State_Penalty>
1.05331

> <b_epik_Metal_Only>
0

> <s_lp_Force_Field>
OPLS_2005

> <r_lp_Energy>
30.9369

> <b_lp_Chiralities_Consistent>
1

> <s_lp_Variant>
AV-unprocessed.smi:3155-4

> <Gold.Version>
5.8.1

> <Gold.Id.Protein>
6NUR|6NUR_protein|mol2

> <Gold.PLP.Fitness>
44.6997

> <Gold.PLP.PLP>
-38.3242

> <Gold.PLP.part.hbond>
-2.0000

> <Gold.PLP.part.metal>
0.0000

> <Gold.PLP.part.buried>
-4.1717

> <Gold.PLP.part.nonpolar>
-32.5929

> <Gold.PLP.part.repulsive>
0.0648

> <Gold.PLP.ligand.clash>
0.0000

> <Gold.PLP.ligand.torsion>
1.3255

> <Gold.PLP.Chemscore.Hbond>
2.0000

> <Gold.PLP.Chemscore.CHOScore>
0.9986

> <Gold.PLP.Chemscore.Metal>
0.0000

> <Gold.Chemscore.Hbonds>
donor molecule, donor type, donor heavy atom, donor atom, acceptor molecule, acceptor atom, score
      L1  H     9    27       P1  8028  1.00
      P1  H  7989  7998       L1     8  0.65
      L1  C     5    24       P1  7948  0.98

> <Gold.PLP.Chemscore.Internal.Correction>
0.0308

> <Gold.Rescore>
     Score         DG    S(hbond)    S(metal)    S(lipo)     H(rot)  DE(clash)    DE(int)     intcor
     16.46     -17.78       1.98        0.00      87.32       1.77       0.00       1.33       ----

> <Gold.Chemscore.Fitness>
16.4564

> <Gold.Chemscore.DG>
-17.7844

> <Gold.Chemscore.ZeroCoef>
-5.4800

> <Gold.Chemscore.Hbond>
1.9811

> <Gold.Chemscore.Metal>
0.0000

> <Gold.Chemscore.Lipo>
87.3236

> <Gold.Chemscore.Internal_Hbond>
0.0000

> <Gold.Chemscore.DEClash>
0.0028

> <Gold.Chemscore.DEInternal>
1.3253

> <Gold.Chemscore.Rot>
1.7693

> <Gold.Chemscore.Internal.Correction>
   9.000000E+99

> <Gold.Chemscore.Hbonds>
donor molecule, donor type, donor heavy atom, donor atom, acceptor molecule, acceptor atom, score
      L1  H     9    27       P1  8028  1.00
      P1  H  7989  7998       L1     8  0.05

> <Gold.Chemscore.Hbond.Weighted>
-6.6169

> <Gold.Chemscore.Metal.Weighted>
-0.0000

> <Gold.Chemscore.Lipo.Weighted>
-10.2169

> <Gold.Chemscore.Internal_Hbond.Weighted>
0.0000

> <Gold.Chemscore.DEClash.Weighted>
0.0028

> <Gold.Chemscore.DEInternal.Weighted>
1.3253

> <Gold.Chemscore.Rot.Weighted>
4.5294

> <Gold.Chemscore.Internal.Correction.Weighted>
   9.000000E+99

> <Gold.Protein.RotatedTorsions>
[ 6907 6896 6895 6894 ] final   65.39 input  -60.11 | X-H torsion
[ 7974 7965 7964 7962 ] final  -36.06 input  175.53 | X-H torsion
[ 8008 7997 7996 7995 ] final -123.83 input   59.86 | X-H torsion
[ 10167 10162 10161 10158 ] final    1.68 input  -65.29 | X-H torsion
[ 10718 10713 10712 10709 ] final -140.60 input   66.30 | X-H torsion
[ 10763 10752 10751 10750 ] final   73.84 input  -60.55 | X-H torsion
[ 11005 11000 10999 10996 ] final  -87.32 input  -57.11 | X-H torsion

> <Gold.Protein.ActiveResidues>
 VAL166  LYS551  ARG553  GLY616  TRP617  ASP618  TYR619  PRO620  LYS621  CYS622 
 ASP623  PHE694  ASN695  SER759  ASP760  ASP761  ALA762  ILE779  LEU786  VAL792 
 PHE793  MET794  SER795  GLU796  ALA797  LYS798  CYS799  TRP800  GLU811  SER814 

> <Gold.Protein.RotatedAtoms>
  152.4404  134.5602  159.9891 H   0  0  0  0  0  0  0  0  0  0  0  0  # atno 6907 bound_to 6896
  151.5701  133.3385  159.2996 H   0  0  0  0  0  0  0  0  0  0  0  0  # atno 6908 bound_to 6896
  150.8309  134.7595  159.6917 H   0  0  0  0  0  0  0  0  0  0  0  0  # atno 6909 bound_to 6896
  146.0694  140.6233  142.8959 H   0  0  0  0  0  0  0  0  0  0  0  0  # atno 7974 bound_to 7965
  155.1869  140.0412  157.2893 H   0  0  0  0  0  0  0  0  0  0  0  0  # atno 8008 bound_to 7997
  154.6165  140.2490  155.7575 H   0  0  0  0  0  0  0  0  0  0  0  0  # atno 8009 bound_to 7997
  156.2409  140.2904  156.0453 H   0  0  0  0  0  0  0  0  0  0  0  0  # atno 8010 bound_to 7997
  140.6671  143.7150  150.7849 H   0  0  0  0  0  0  0  0  0  0  0  0  # atno 10167 bound_to 10162
  156.3242  130.7551  151.1655 H   0  0  0  0  0  0  0  0  0  0  0  0  # atno 10718 bound_to 10713
  153.0548  135.5048  154.7954 H   0  0  0  0  0  0  0  0  0  0  0  0  # atno 10763 bound_to 10752
  154.6788  135.2965  154.9643 H   0  0  0  0  0  0  0  0  0  0  0  0  # atno 10764 bound_to 10752
  154.0436  135.6713  153.4845 H   0  0  0  0  0  0  0  0  0  0  0  0  # atno 10765 bound_to 10752
  141.1618  133.7504  156.9289 H   0  0  0  0  0  0  0  0  0  0  0  0  # atno 11005 bound_to 11000
  144.7222  140.4411  143.6999 LP  0  0  0  0  0  0  0  0  0  0  0  0  # atno 17320 bound_to 7965
  145.6419  139.1551  143.2911 LP  0  0  0  0  0  0  0  0  0  0  0  0  # atno 17321 bound_to 7965
  140.0829  143.4952  152.2520 LP  0  0  0  0  0  0  0  0  0  0  0  0  # atno 17342 bound_to 10162
  139.5924  144.7555  151.3368 LP  0  0  0  0  0  0  0  0  0  0  0  0  # atno 17343 bound_to 10162
  157.7418  131.0499  150.5071 LP  0  0  0  0  0  0  0  0  0  0  0  0  # atno 17370 bound_to 10713
  156.5228  130.4166  149.6241 LP  0  0  0  0  0  0  0  0  0  0  0  0  # atno 17371 bound_to 10713
  140.1400  134.9300  157.2454 LP  0  0  0  0  0  0  0  0  0  0  0  0  # atno 17394 bound_to 11000
  140.2848  134.3308  155.7332 LP  0  0  0  0  0  0  0  0  0  0  0  0  # atno 17395 bound_to 11000

$$$$
