AV-unprocessed.smi:1792|AV-procd|sdf|7222|dock10
  -GOLD-   22720 8463D 1   1.00000     0.00000
 Structure written by MMmdl.
 42 43  0  0  0  0  0  0  0  0  1 V2000
  147.2692  139.9585  152.3018 C   0  0  0  0  0  0  0  0  0  0  0  0
  147.1934  139.7989  153.8395 C   0  0  0  0  0  0  0  0  0  0  0  0
  146.4096  141.0177  154.3903 C   0  0  0  0  0  0  0  0  0  0  0  0
  146.3129  138.5500  154.1324 C   0  0  0  0  0  0  0  0  0  0  0  0
  146.6108  137.4460  153.2215 N   0  0  0  0  0  0  0  0  0  0  0  0
  145.7373  136.5262  152.7898 C   0  0  0  0  0  0  0  0  0  0  0  0
  144.5432  136.5247  153.0898 O   0  0  0  0  0  0  0  0  0  0  0  0
  146.3433  135.6209  152.0018 N   0  0  0  0  0  0  0  0  0  0  0  0
  145.7735  134.4839  151.3696 C   0  0  0  0  0  0  0  0  0  0  0  0
  146.7067  133.5689  150.8318 C   0  0  0  0  0  0  0  0  0  0  0  0
  146.2441  132.4051  150.1878 C   0  0  0  0  0  0  0  0  0  0  0  0
  144.8579  132.1869  150.0962 C   0  0  0  0  0  0  0  0  0  0  0  0
  143.9969  133.1487  150.6561 C   0  0  0  0  0  0  0  0  0  0  0  0
  144.4383  134.2643  151.2748 N   0  0  0  0  0  0  0  0  0  0  0  0
  148.5340  139.6904  154.4817 N   0  0  0  0  0  0  0  0  0  0  0  0
  149.1861  140.9725  154.7719 C   0  0  0  0  0  0  0  0  0  0  0  0
  150.5073  140.7906  155.5385 C   0  0  0  0  0  0  0  0  0  0  0  0
  151.3775  139.9401  154.8019 O   0  0  0  0  0  0  0  0  0  0  0  0
  150.8044  138.6625  154.5541 C   0  0  0  0  0  0  0  0  0  0  0  0
  149.4888  138.8279  153.7753 C   0  0  0  0  0  0  0  0  0  0  0  0
  146.2715  140.0388  151.8682 H   0  0  0  0  0  0  0  0  0  0  0  0
  147.7510  139.1067  151.8225 H   0  0  0  0  0  0  0  0  0  0  0  0
  147.8116  140.8561  152.0064 H   0  0  0  0  0  0  0  0  0  0  0  0
  145.3690  141.0060  154.0634 H   0  0  0  0  0  0  0  0  0  0  0  0
  146.8242  141.9655  154.0473 H   0  0  0  0  0  0  0  0  0  0  0  0
  146.4053  141.0347  155.4808 H   0  0  0  0  0  0  0  0  0  0  0  0
  146.4500  138.2408  155.1704 H   0  0  0  0  0  0  0  0  0  0  0  0
  145.2516  138.7834  154.0515 H   0  0  0  0  0  0  0  0  0  0  0  0
  147.5717  137.3634  152.9229 H   0  0  0  0  0  0  0  0  0  0  0  0
  147.3318  135.7526  151.8476 H   0  0  0  0  0  0  0  0  0  0  0  0
  147.7685  133.7521  150.9113 H   0  0  0  0  0  0  0  0  0  0  0  0
  146.9414  131.6928  149.7725 H   0  0  0  0  0  0  0  0  0  0  0  0
  144.4650  131.3066  149.6093 H   0  0  0  0  0  0  0  0  0  0  0  0
  142.9259  133.0198  150.6064 H   0  0  0  0  0  0  0  0  0  0  0  0
  149.3893  141.5108  153.8460 H   0  0  0  0  0  0  0  0  0  0  0  0
  148.5409  141.6098  155.3739 H   0  0  0  0  0  0  0  0  0  0  0  0
  150.9940  141.7547  155.6871 H   0  0  0  0  0  0  0  0  0  0  0  0
  150.3249  140.3680  156.5278 H   0  0  0  0  0  0  0  0  0  0  0  0
  151.5102  138.0605  153.9818 H   0  0  0  0  0  0  0  0  0  0  0  0
  150.6318  138.1428  155.4979 H   0  0  0  0  0  0  0  0  0  0  0  0
  149.0732  137.8348  153.6152 H   0  0  0  0  0  0  0  0  0  0  0  0
  149.7133  139.2397  152.7914 H   0  0  0  0  0  0  0  0  0  0  0  0
  1  2  1  0  0  0  0
  1 21  1  0  0  0  0
  1 22  1  0  0  0  0
  1 23  1  0  0  0  0
  2  3  1  0  0  0  0
  2  4  1  0  0  0  0
  2 15  1  0  0  0  0
  3 24  1  0  0  0  0
  3 25  1  0  0  0  0
  3 26  1  0  0  0  0
  4  5  1  0  0  0  0
  4 27  1  0  0  0  0
  4 28  1  0  0  0  0
  5  6  1  0  0  0  0
  5 29  1  0  0  0  0
  6  7  2  0  0  0  0
  6  8  1  0  0  0  0
  8  9  1  0  0  0  0
  8 30  1  0  0  0  0
  9 14  1  0  0  0  0
  9 10  2  0  0  0  0
 10 11  1  0  0  0  0
 10 31  1  0  0  0  0
 11 12  2  0  0  0  0
 11 32  1  0  0  0  0
 12 13  1  0  0  0  0
 12 33  1  0  0  0  0
 13 14  2  0  0  0  0
 13 34  1  0  0  0  0
 15 20  1  0  0  0  0
 15 16  1  0  0  0  0
 16 17  1  0  0  0  0
 16 35  1  0  0  0  0
 16 36  1  0  0  0  0
 17 18  1  0  0  0  0
 17 37  1  0  0  0  0
 17 38  1  0  0  0  0
 18 19  1  0  0  0  0
 19 20  1  0  0  0  0
 19 39  1  0  0  0  0
 19 40  1  0  0  0  0
 20 41  1  0  0  0  0
 20 42  1  0  0  0  0
M  END
> <s_m_source_file>
AV-unprocessed.smi

> <i_m_source_file_index>
1792

> <i_lp_mmshare_version>
43012

> <i_f3d_flags>
0

> <s_epik_input>
W0NIMl0xW0NIMl1PW0NIMl1bQ0gyXU4xQyhbQ0gzXSkoW0NIM10pW0NIMl1bTkhdQyg9TylbTkhdYzJbY0hdW2NIXVtjSF1bY0hdbjI=

> <s_epik_cmdline>
J2VwaWtfcHl0aG9uJywgJy1waCcsICc3LjAnLCAnLXRuJywgJzgnLCAnLW1hJywgJzIwMCcsICctbWV0YWxfYmluZGluZycsICctaW1hZScsICc8aW5maWxlLm1hZT4nLCAnLW9tYWUnLCAnPG91dGZpbGUubWFlPic=

> <r_epik_Ionization_Penalty>
0.26604

> <r_epik_Ionization_Penalty_Charging>
0

> <r_epik_Ionization_Penalty_Neutral>
0.26604

> <r_epik_State_Penalty>
0.257924

> <r_epik_Charging_Adjusted_Penalty>
0.257924

> <i_epik_Tot_Q>
0

> <i_epik_Tot_abs_Q>
0

> <r_epik_Metal_State_Penalty>
0.257923

> <b_epik_Metal_Only>
0

> <s_lp_Force_Field>
OPLS_2005

> <r_lp_Energy>
43.4175

> <b_lp_Chiralities_Consistent>
1

> <s_lp_Variant>
AV-unprocessed.smi:1792-1

> <Gold.Version>
5.8.1

> <Gold.Id.Protein>
6NUR|6NUR_protein|mol2

> <Gold.PLP.Fitness>
40.3006

> <Gold.PLP.PLP>
-31.1048

> <Gold.PLP.part.hbond>
-3.0000

> <Gold.PLP.part.metal>
0.0000

> <Gold.PLP.part.buried>
0.5732

> <Gold.PLP.part.nonpolar>
-29.1425

> <Gold.PLP.part.repulsive>
0.5041

> <Gold.PLP.ligand.clash>
0.0000

> <Gold.PLP.ligand.torsion>
1.1766

> <Gold.PLP.Chemscore.Hbond>
2.8284

> <Gold.PLP.Chemscore.CHOScore>
1.0000

> <Gold.PLP.Chemscore.Metal>
0.0000

> <Gold.Chemscore.Hbonds>
donor molecule, donor type, donor heavy atom, donor atom, acceptor molecule, acceptor atom, score
      L1  H     5    29       P1  7948  0.83
      L1  H     8    30       P1  7948  1.00
      P1  H  7989  7998       L1    18  1.00
      L1  C    13    34       P1 10186  0.83

> <Gold.PLP.Chemscore.Internal.Correction>
0.0640

> <Gold.Rescore>
     Score         DG    S(hbond)    S(metal)    S(lipo)     H(rot)  DE(clash)    DE(int)     intcor
     15.22     -18.75       2.08        0.00      87.13       1.50       1.29       2.24       ----

> <Gold.Chemscore.Fitness>
15.2246

> <Gold.Chemscore.DG>
-18.7546

> <Gold.Chemscore.ZeroCoef>
-5.4800

> <Gold.Chemscore.Hbond>
2.0754

> <Gold.Chemscore.Metal>
0.0000

> <Gold.Chemscore.Lipo>
87.1309

> <Gold.Chemscore.Internal_Hbond>
0.0000

> <Gold.Chemscore.DEClash>
1.2851

> <Gold.Chemscore.DEInternal>
2.2449

> <Gold.Chemscore.Rot>
1.5045

> <Gold.Chemscore.Internal.Correction>
   9.000000E+99

> <Gold.Chemscore.Hbonds>
donor molecule, donor type, donor heavy atom, donor atom, acceptor molecule, acceptor atom, score
      L1  H     5    29       P1  7948  0.78
      L1  H     8    30       P1  7948  1.00
      P1  H  7989  7998       L1    18  0.23

> <Gold.Chemscore.Hbond.Weighted>
-6.9318

> <Gold.Chemscore.Metal.Weighted>
-0.0000

> <Gold.Chemscore.Lipo.Weighted>
-10.1943

> <Gold.Chemscore.Internal_Hbond.Weighted>
0.0000

> <Gold.Chemscore.DEClash.Weighted>
1.2851

> <Gold.Chemscore.DEInternal.Weighted>
2.2449

> <Gold.Chemscore.Rot.Weighted>
3.8515

> <Gold.Chemscore.Internal.Correction.Weighted>
   9.000000E+99

> <Gold.Protein.RotatedTorsions>
[ 6907 6896 6895 6894 ] final  -37.25 input  -60.11 | X-H torsion
[ 7974 7965 7964 7962 ] final -144.86 input  175.53 | X-H torsion
[ 8008 7997 7996 7995 ] final   52.87 input   59.86 | X-H torsion
[ 10167 10162 10161 10158 ] final    6.06 input  -65.29 | X-H torsion
[ 10718 10713 10712 10709 ] final -160.00 input   66.30 | X-H torsion
[ 10763 10752 10751 10750 ] final   35.24 input  -60.55 | X-H torsion
[ 11005 11000 10999 10996 ] final -110.62 input  -57.11 | X-H torsion

> <Gold.Protein.ActiveResidues>
 VAL166  LYS551  ARG553  GLY616  TRP617  ASP618  TYR619  PRO620  LYS621  CYS622 
 ASP623  PHE694  ASN695  SER759  ASP760  ASP761  ALA762  ILE779  LEU786  VAL792 
 PHE793  MET794  SER795  GLU796  ALA797  LYS798  CYS799  TRP800  GLU811  SER814 

> <Gold.Protein.RotatedAtoms>
  151.0170  134.9440  159.8038 H   0  0  0  0  0  0  0  0  0  0  0  0  # atno 6907 bound_to 6896
  152.5316  134.2953  159.9068 H   0  0  0  0  0  0  0  0  0  0  0  0  # atno 6908 bound_to 6896
  151.2960  133.4102  159.2670 H   0  0  0  0  0  0  0  0  0  0  0  0  # atno 6909 bound_to 6896
  144.8268  140.5657  143.5542 H   0  0  0  0  0  0  0  0  0  0  0  0  # atno 7974 bound_to 7965
  155.4589  140.3461  155.4310 H   0  0  0  0  0  0  0  0  0  0  0  0  # atno 8008 bound_to 7997
  156.1174  140.1477  156.9283 H   0  0  0  0  0  0  0  0  0  0  0  0  # atno 8009 bound_to 7997
  154.4798  140.0873  156.7330 H   0  0  0  0  0  0  0  0  0  0  0  0  # atno 8010 bound_to 7997
  140.6449  143.7687  150.7483 H   0  0  0  0  0  0  0  0  0  0  0  0  # atno 10167 bound_to 10162
  156.5760  130.8709  151.2851 H   0  0  0  0  0  0  0  0  0  0  0  0  # atno 10718 bound_to 10713
  153.0128  135.6338  154.1796 H   0  0  0  0  0  0  0  0  0  0  0  0  # atno 10763 bound_to 10752
  154.1537  135.2827  155.3130 H   0  0  0  0  0  0  0  0  0  0  0  0  # atno 10764 bound_to 10752
  154.6034  135.5580  153.7459 H   0  0  0  0  0  0  0  0  0  0  0  0  # atno 10765 bound_to 10752
  141.0781  133.9266  157.2346 H   0  0  0  0  0  0  0  0  0  0  0  0  # atno 11005 bound_to 11000
  145.4983  139.1484  143.3671 LP  0  0  0  0  0  0  0  0  0  0  0  0  # atno 17320 bound_to 7965
  146.2573  140.5122  142.8868 LP  0  0  0  0  0  0  0  0  0  0  0  0  # atno 17321 bound_to 7965
  140.1326  143.4512  152.2245 LP  0  0  0  0  0  0  0  0  0  0  0  0  # atno 17342 bound_to 10162
  139.5659  144.7434  151.4025 LP  0  0  0  0  0  0  0  0  0  0  0  0  # atno 17343 bound_to 10162
  157.7337  130.9735  150.1993 LP  0  0  0  0  0  0  0  0  0  0  0  0  # atno 17370 bound_to 10713
  156.2673  130.3717  149.8068 LP  0  0  0  0  0  0  0  0  0  0  0  0  # atno 17371 bound_to 10713
  139.9594  135.0158  156.9219 LP  0  0  0  0  0  0  0  0  0  0  0  0  # atno 17394 bound_to 11000
  140.5528  134.0611  155.7374 LP  0  0  0  0  0  0  0  0  0  0  0  0  # atno 17395 bound_to 11000

$$$$
