AV-unprocessed.smi:1640|AV-procd|sdf|6555|dock2
  -GOLD-   22720 7243D 1   1.00000     0.00000
 Structure written by MMmdl.
 46 47  0  0  0  0  0  0  0  0  2 V2000
  154.2138  137.1347  164.2652 C   0  0  0  0  0  0  0  0  0  0  0  0
  154.1635  136.0900  163.1375 C   0  0  0  0  0  0  0  0  0  0  0  0
  154.6650  134.7297  163.6456 C   0  0  0  0  0  0  0  0  0  0  0  0
  154.9563  136.5327  161.8911 C   0  0  0  0  0  0  0  0  0  0  0  0
  154.3246  137.7168  161.1387 C   0  0  0  0  0  0  0  0  0  0  0  0
  155.4685  138.4171  159.8715 S   0  0  0  0  0  0  0  0  0  0  0  0
  156.5991  139.0103  160.6039 O   0  0  0  0  0  0  0  0  0  0  0  0
  155.7682  137.3055  158.9542 O   0  0  0  0  0  0  0  0  0  0  0  0
  154.5123  139.5356  159.1930 N   0  5  0  0  0  0  0  0  0  0  0  0
  153.2933  139.9353  159.8727 C   0  0  0  0  0  0  0  0  0  0  0  0
  152.5148  140.9859  159.0660 C   0  0  0  0  0  0  0  0  0  0  0  0
  152.1734  142.2021  159.7061 C   0  0  0  0  0  0  0  0  0  0  0  0
  151.4761  143.1940  158.9938 C   0  0  0  0  0  0  0  0  0  0  0  0
  151.1386  142.9387  157.6549 C   0  0  0  0  0  0  0  0  0  0  0  0
  151.4481  141.7897  157.0235 N   0  0  0  0  0  0  0  0  0  0  0  0
  152.1202  140.8220  157.6970 C   0  0  0  0  0  0  0  0  0  0  0  0
  152.3752  139.6430  156.9632 N   0  0  0  0  0  0  0  0  0  0  0  0
  151.8752  138.4363  157.6092 C   0  0  0  0  0  0  0  0  0  0  0  0
  152.4056  137.1946  156.8731 C   0  0  0  0  0  0  0  0  0  0  0  0
  152.0453  137.2654  155.4955 O   0  0  0  0  0  0  0  0  0  0  0  0
  152.5974  138.4134  154.8557 C   0  0  0  0  0  0  0  0  0  0  0  0
  152.0709  139.6879  155.5379 C   0  0  0  0  0  0  0  0  0  0  0  0
  155.2412  137.3467  164.5623 H   0  0  0  0  0  0  0  0  0  0  0  0
  153.6791  136.7833  165.1480 H   0  0  0  0  0  0  0  0  0  0  0  0
  153.7519  138.0749  163.9654 H   0  0  0  0  0  0  0  0  0  0  0  0
  153.1204  135.9606  162.8459 H   0  0  0  0  0  0  0  0  0  0  0  0
  155.7061  134.7859  163.9653 H   0  0  0  0  0  0  0  0  0  0  0  0
  154.5963  133.9686  162.8679 H   0  0  0  0  0  0  0  0  0  0  0  0
  154.0739  134.3837  164.4939 H   0  0  0  0  0  0  0  0  0  0  0  0
  155.9797  136.7808  162.1752 H   0  0  0  0  0  0  0  0  0  0  0  0
  155.0305  135.6876  161.2063 H   0  0  0  0  0  0  0  0  0  0  0  0
  153.4270  137.3855  160.6170 H   0  0  0  0  0  0  0  0  0  0  0  0
  154.0342  138.5249  161.8092 H   0  0  0  0  0  0  0  0  0  0  0  0
  152.6432  139.0808  160.0630 H   0  0  0  0  0  0  0  0  0  0  0  0
  153.4947  140.3644  160.8548 H   0  0  0  0  0  0  0  0  0  0  0  0
  152.4361  142.3966  160.7375 H   0  0  0  0  0  0  0  0  0  0  0  0
  151.2077  144.1281  159.4644 H   0  0  0  0  0  0  0  0  0  0  0  0
  150.6041  143.6760  157.0745 H   0  0  0  0  0  0  0  0  0  0  0  0
  152.1819  138.4101  158.6550 H   0  0  0  0  0  0  0  0  0  0  0  0
  150.7846  138.4431  157.5950 H   0  0  0  0  0  0  0  0  0  0  0  0
  153.4894  137.1181  156.9729 H   0  0  0  0  0  0  0  0  0  0  0  0
  151.9809  136.2897  157.3077 H   0  0  0  0  0  0  0  0  0  0  0  0
  153.6873  138.3742  154.8935 H   0  0  0  0  0  0  0  0  0  0  0  0
  152.3138  138.4057  153.8032 H   0  0  0  0  0  0  0  0  0  0  0  0
  150.9930  139.7658  155.3898 H   0  0  0  0  0  0  0  0  0  0  0  0
  152.5270  140.5716  155.0902 H   0  0  0  0  0  0  0  0  0  0  0  0
  1  2  1  0  0  0  0
  1 23  1  0  0  0  0
  1 24  1  0  0  0  0
  1 25  1  0  0  0  0
  2  3  1  0  0  0  0
  2  4  1  0  0  0  0
  2 26  1  0  0  0  0
  3 27  1  0  0  0  0
  3 28  1  0  0  0  0
  3 29  1  0  0  0  0
  4  5  1  0  0  0  0
  4 30  1  0  0  0  0
  4 31  1  0  0  0  0
  5  6  1  0  0  0  0
  5 32  1  0  0  0  0
  5 33  1  0  0  0  0
  6  7  2  0  0  0  0
  6  8  2  0  0  0  0
  6  9  1  0  0  0  0
  9 10  1  0  0  0  0
 10 11  1  0  0  0  0
 10 34  1  0  0  0  0
 10 35  1  0  0  0  0
 11 16  1  0  0  0  0
 11 12  2  0  0  0  0
 12 13  1  0  0  0  0
 12 36  1  0  0  0  0
 13 14  2  0  0  0  0
 13 37  1  0  0  0  0
 14 15  1  0  0  0  0
 14 38  1  0  0  0  0
 15 16  2  0  0  0  0
 16 17  1  0  0  0  0
 17 22  1  0  0  0  0
 17 18  1  0  0  0  0
 18 19  1  0  0  0  0
 18 39  1  0  0  0  0
 18 40  1  0  0  0  0
 19 20  1  0  0  0  0
 19 41  1  0  0  0  0
 19 42  1  0  0  0  0
 20 21  1  0  0  0  0
 21 22  1  0  0  0  0
 21 43  1  0  0  0  0
 21 44  1  0  0  0  0
 22 45  1  0  0  0  0
 22 46  1  0  0  0  0
M  CHG  1   9  -1
M  END
> <s_m_source_file>
AV-unprocessed.smi

> <i_m_source_file_index>
1640

> <i_lp_mmshare_version>
43012

> <i_f3d_flags>
0

> <s_epik_input>
W0NIM11bQ0hdKFtDSDNdKVtDSDJdW0NIMl1TKD1PKSg9TylbTkhdW0NIMl1jMVtjSF1bY0hdW2NIXW5jMU4yW0NIMl1bQ0gyXU9bQ0gyXVtDSDJdMg==

> <s_epik_cmdline>
J2VwaWtfcHl0aG9uJywgJy1waCcsICc3LjAnLCAnLXRuJywgJzgnLCAnLW1hJywgJzIwMCcsICctbWV0YWxfYmluZGluZycsICctaW1hZScsICc8aW5maWxlLm1hZT4nLCAnLW9tYWUnLCAnPG91dGZpbGUubWFlPic=

> <r_lp_tautomer_probability>
1

> <r_epik_Ionization_Penalty>
6.15599

> <r_epik_Ionization_Penalty_Charging>
6.0779

> <r_epik_Ionization_Penalty_Neutral>
0.078089

> <r_epik_State_Penalty>
6.0833

> <r_epik_Charging_Adjusted_Penalty>
12.1612

> <i_epik_Tot_Q>
-1

> <i_epik_Tot_abs_Q>
1

> <r_epik_Metal_State_Penalty>
2.0323

> <b_epik_Metal_Only>
1

> <s_lp_Force_Field>
OPLS_2005

> <r_lp_Energy>
20.5141

> <b_lp_Chiralities_Consistent>
1

> <s_lp_Variant>
AV-unprocessed.smi:1640-2

> <Gold.Version>
5.8.1

> <Gold.Id.Protein>
6NUR|6NUR_protein|mol2

> <Gold.PLP.Fitness>
46.3742

> <Gold.PLP.PLP>
-35.9411

> <Gold.PLP.part.hbond>
-3.0000

> <Gold.PLP.part.metal>
0.0000

> <Gold.PLP.part.buried>
-2.9860

> <Gold.PLP.part.nonpolar>
-29.2255

> <Gold.PLP.part.repulsive>
0.0979

> <Gold.PLP.ligand.clash>
0.0000

> <Gold.PLP.ligand.torsion>
0.8799

> <Gold.PLP.Chemscore.Hbond>
2.6484

> <Gold.PLP.Chemscore.CHOScore>
1.0000

> <Gold.PLP.Chemscore.Metal>
0.0000

> <Gold.Chemscore.Hbonds>
donor molecule, donor type, donor heavy atom, donor atom, acceptor molecule, acceptor atom, score
      P1  H  7997  8010       L1     9  2.00
      P1  H 10752 10763       L1    20  0.59
      L1  C    14    38       P1  8028  1.00

> <Gold.PLP.Chemscore.Internal.Correction>
1.2476

> <Gold.Rescore>
     Score         DG    S(hbond)    S(metal)    S(lipo)     H(rot)  DE(clash)    DE(int)     intcor
     15.87     -17.05       1.14        0.00     104.18       1.73       0.22       0.96       ----

> <Gold.Chemscore.Fitness>
15.8672

> <Gold.Chemscore.DG>
-17.0486

> <Gold.Chemscore.ZeroCoef>
-5.4800

> <Gold.Chemscore.Hbond>
1.1440

> <Gold.Chemscore.Metal>
0.0000

> <Gold.Chemscore.Lipo>
104.1754

> <Gold.Chemscore.Internal_Hbond>
0.0000

> <Gold.Chemscore.DEClash>
0.2250

> <Gold.Chemscore.DEInternal>
0.9564

> <Gold.Chemscore.Rot>
1.7347

> <Gold.Chemscore.Internal.Correction>
   9.000000E+99

> <Gold.Chemscore.Hbonds>
donor molecule, donor type, donor heavy atom, donor atom, acceptor molecule, acceptor atom, score
      P1  H  7997  8010       L1     9  0.78
      P1  H 10752 10763       L1    20  0.18

> <Gold.Chemscore.Hbond.Weighted>
-3.8210

> <Gold.Chemscore.Metal.Weighted>
-0.0000

> <Gold.Chemscore.Lipo.Weighted>
-12.1885

> <Gold.Chemscore.Internal_Hbond.Weighted>
0.0000

> <Gold.Chemscore.DEClash.Weighted>
0.2250

> <Gold.Chemscore.DEInternal.Weighted>
0.9564

> <Gold.Chemscore.Rot.Weighted>
4.4409

> <Gold.Chemscore.Internal.Correction.Weighted>
   9.000000E+99

> <Gold.Protein.RotatedTorsions>
[ 6907 6896 6895 6894 ] final   -2.20 input  -60.11 | X-H torsion
[ 7974 7965 7964 7962 ] final   -3.18 input  175.53 | X-H torsion
[ 8008 7997 7996 7995 ] final   -1.50 input   59.86 | X-H torsion
[ 10167 10162 10161 10158 ] final   10.83 input  -65.29 | X-H torsion
[ 10718 10713 10712 10709 ] final  100.00 input   66.30 | X-H torsion
[ 10763 10752 10751 10750 ] final   51.12 input  -60.55 | X-H torsion
[ 11005 11000 10999 10996 ] final   96.60 input  -57.11 | X-H torsion

> <Gold.Protein.ActiveResidues>
 VAL166  LYS551  ARG553  GLY616  TRP617  ASP618  TYR619  PRO620  LYS621  CYS622 
 ASP623  PHE694  ASN695  SER759  ASP760  ASP761  ALA762  ILE779  LEU786  VAL792 
 PHE793  MET794  SER795  GLU796  ALA797  LYS798  CYS799  TRP800  GLU811  SER814 

> <Gold.Protein.RotatedAtoms>
  151.5338  135.1068  159.9908 H   0  0  0  0  0  0  0  0  0  0  0  0  # atno 6907 bound_to 6896
  152.4566  133.7732  159.6821 H   0  0  0  0  0  0  0  0  0  0  0  0  # atno 6908 bound_to 6896
  150.8513  133.7718  159.3049 H   0  0  0  0  0  0  0  0  0  0  0  0  # atno 6909 bound_to 6896
  146.2393  140.1683  142.8332 H   0  0  0  0  0  0  0  0  0  0  0  0  # atno 7974 bound_to 7965
  154.6461  140.2558  155.7266 H   0  0  0  0  0  0  0  0  0  0  0  0  # atno 8008 bound_to 7997
  156.2553  140.2877  156.0796 H   0  0  0  0  0  0  0  0  0  0  0  0  # atno 8009 bound_to 7997
  155.1522  140.0382  157.2814 H   0  0  0  0  0  0  0  0  0  0  0  0  # atno 8010 bound_to 7997
  140.6170  143.8286  150.7130 H   0  0  0  0  0  0  0  0  0  0  0  0  # atno 10167 bound_to 10162
  157.6864  131.0686  150.5033 H   0  0  0  0  0  0  0  0  0  0  0  0  # atno 10718 bound_to 10713
  152.9785  135.5856  154.4364 H   0  0  0  0  0  0  0  0  0  0  0  0  # atno 10763 bound_to 10752
  154.3971  135.2768  155.2121 H   0  0  0  0  0  0  0  0  0  0  0  0  # atno 10764 bound_to 10752
  154.3968  135.6112  153.5929 H   0  0  0  0  0  0  0  0  0  0  0  0  # atno 10765 bound_to 10752
  139.8780  134.8959  156.4182 H   0  0  0  0  0  0  0  0  0  0  0  0  # atno 11005 bound_to 11000
  145.0032  140.8650  143.5269 LP  0  0  0  0  0  0  0  0  0  0  0  0  # atno 17320 bound_to 7965
  145.1706  139.2407  143.5344 LP  0  0  0  0  0  0  0  0  0  0  0  0  # atno 17321 bound_to 7965
  140.1868  143.4069  152.1893 LP  0  0  0  0  0  0  0  0  0  0  0  0  # atno 17342 bound_to 10162
  139.5407  144.7253  151.4744 LP  0  0  0  0  0  0  0  0  0  0  0  0  # atno 17343 bound_to 10162
  156.5354  130.4195  149.6180 LP  0  0  0  0  0  0  0  0  0  0  0  0  # atno 17370 bound_to 10713
  156.3032  130.7188  151.2065 LP  0  0  0  0  0  0  0  0  0  0  0  0  # atno 17371 bound_to 10713
  140.9152  133.7683  155.9840 LP  0  0  0  0  0  0  0  0  0  0  0  0  # atno 17394 bound_to 11000
  140.8501  134.2964  157.5278 LP  0  0  0  0  0  0  0  0  0  0  0  0  # atno 17395 bound_to 11000

$$$$
