AV-unprocessed.smi:862|AV-procd|sdf|3981|dock9
  -GOLD-   22720 1463D 1   1.00000     0.00000
 Structure written by MMmdl.
 45 47  0  0  0  0  0  0  0  0  3 V2000
  149.2848  137.4778  154.1762 N   0  0  0  0  0  0  0  0  0  0  0  0
  150.5370  137.6572  154.6076 C   0  0  0  0  0  0  0  0  0  0  0  0
  151.2389  136.7008  154.9308 O   0  0  0  0  0  0  0  0  0  0  0  0
  150.9691  138.9435  154.6108 N   0  0  0  0  0  0  0  0  0  0  0  0
  150.1301  140.1398  154.4327 C   0  0  0  0  0  0  0  0  0  0  0  0
  149.9365  140.8145  155.8031 C   0  0  0  0  0  0  0  0  0  0  0  0
  151.2919  141.1690  156.4510 C   0  0  0  0  0  0  0  0  0  0  0  0
  151.0701  141.6961  157.8171 N   0  3  0  0  0  0  0  0  0  0  0  0
  151.1372  143.1697  157.9724 C   0  0  1  0  0  0  0  0  0  0  0  0
  149.9906  143.7586  158.8017 C   0  0  0  0  0  0  0  0  0  0  0  0
  150.5151  145.1116  159.3019 C   0  0  0  0  0  0  0  0  0  0  0  0
  152.0445  145.0844  159.1325 C   0  0  0  0  0  0  0  0  0  0  0  0
  152.4152  143.6622  158.6783 C   0  0  1  0  0  0  0  0  0  0  0  0
  152.8427  142.8125  159.8108 N   0  0  0  0  0  0  0  0  0  0  0  0
  152.6731  143.0276  161.1582 C   0  0  0  0  0  0  0  0  0  0  0  0
  153.2242  141.9509  161.8033 C   0  0  0  0  0  0  0  0  0  0  0  0
  153.7033  141.1194  160.8282 N   0  3  0  0  0  0  0  0  0  0  0  0
  153.4685  141.6417  159.6203 C   0  0  0  0  0  0  0  0  0  0  0  0
  152.2352  139.9431  156.4544 C   0  0  0  0  0  0  0  0  0  0  0  0
  152.3200  139.3043  155.0564 C   0  0  0  0  0  0  0  0  0  0  0  0
  148.9007  136.5447  154.1352 H   0  0  0  0  0  0  0  0  0  0  0  0
  148.7319  138.2693  153.8821 H   0  0  0  0  0  0  0  0  0  0  0  0
  150.6262  140.8264  153.7451 H   0  0  0  0  0  0  0  0  0  0  0  0
  149.1583  139.9339  153.9840 H   0  0  0  0  0  0  0  0  0  0  0  0
  149.3304  141.7140  155.6890 H   0  0  0  0  0  0  0  0  0  0  0  0
  149.3751  140.1440  156.4559 H   0  0  0  0  0  0  0  0  0  0  0  0
  151.7442  141.9526  155.8421 H   0  0  0  0  0  0  0  0  0  0  0  0
  150.1533  141.3992  158.1191 H   0  0  0  0  0  0  0  0  0  0  0  0
  151.1195  143.6321  156.9850 H   0  0  0  0  0  0  0  0  0  0  0  0
  149.0720  143.8680  158.2242 H   0  0  0  0  0  0  0  0  0  0  0  0
  149.7652  143.1131  159.6513 H   0  0  0  0  0  0  0  0  0  0  0  0
  150.0902  145.9285  158.7170 H   0  0  0  0  0  0  0  0  0  0  0  0
  150.2298  145.2783  160.3413 H   0  0  0  0  0  0  0  0  0  0  0  0
  152.3275  145.7954  158.3550 H   0  0  0  0  0  0  0  0  0  0  0  0
  152.5671  145.3897  160.0401 H   0  0  0  0  0  0  0  0  0  0  0  0
  153.2471  143.7022  157.9726 H   0  0  0  0  0  0  0  0  0  0  0  0
  152.1931  143.9097  161.5561 H   0  0  0  0  0  0  0  0  0  0  0  0
  153.3102  141.7210  162.8557 H   0  0  0  0  0  0  0  0  0  0  0  0
  153.7383  141.2024  158.6761 H   0  0  0  0  0  0  0  0  0  0  0  0
  153.2369  140.2268  156.7764 H   0  0  0  0  0  0  0  0  0  0  0  0
  151.8778  139.2003  157.1692 H   0  0  0  0  0  0  0  0  0  0  0  0
  152.9963  138.4483  155.0766 H   0  0  0  0  0  0  0  0  0  0  0  0
  152.7585  140.0079  154.3473 H   0  0  0  0  0  0  0  0  0  0  0  0
  151.7585  141.2744  158.4239 H   0  0  0  0  0  0  0  0  0  0  0  0
  154.1750  140.2390  160.9957 H   0  0  0  0  0  0  0  0  0  0  0  0
  1  2  1  0  0  0  0
  1 21  1  0  0  0  0
  1 22  1  0  0  0  0
  2  3  2  0  0  0  0
  2  4  1  0  0  0  0
  4 20  1  0  0  0  0
  4  5  1  0  0  0  0
  5  6  1  0  0  0  0
  5 23  1  0  0  0  0
  5 24  1  0  0  0  0
  6  7  1  0  0  0  0
  6 25  1  0  0  0  0
  6 26  1  0  0  0  0
  7  8  1  0  0  0  0
  7 19  1  0  0  0  0
  7 27  1  0  0  0  0
  8  9  1  0  0  0  0
  8 28  1  0  0  0  0
  8 44  1  0  0  0  0
  9 13  1  0  0  0  0
  9 10  1  0  0  0  0
  9 29  1  0  0  0  0
 10 11  1  0  0  0  0
 10 30  1  0  0  0  0
 10 31  1  0  0  0  0
 11 12  1  0  0  0  0
 11 32  1  0  0  0  0
 11 33  1  0  0  0  0
 12 13  1  0  0  0  0
 12 34  1  0  0  0  0
 12 35  1  0  0  0  0
 13 14  1  0  0  0  0
 13 36  1  0  0  0  0
 14 18  1  0  0  0  0
 14 15  1  0  0  0  0
 15 16  2  0  0  0  0
 15 37  1  0  0  0  0
 16 17  1  0  0  0  0
 16 38  1  0  0  0  0
 17 18  2  0  0  0  0
 17 45  1  0  0  0  0
 18 39  1  0  0  0  0
 19 20  1  0  0  0  0
 19 40  1  0  0  0  0
 19 41  1  0  0  0  0
 20 42  1  0  0  0  0
 20 43  1  0  0  0  0
M  CHG  1   8   1
M  CHG  1  17   1
M  END
> <s_m_source_file>
AV-unprocessed.smi

> <i_m_source_file_index>
862

> <i_lp_mmshare_version>
43012

> <i_f3d_flags>
0

> <s_epik_input>
W05IMl1DKD1PKU4xW0NIMl1bQ0gyXVtDSF0oW0NIMl1bQ0gyXTEpW05IXVtDQEBIXTJbQ0gyXVtDSDJdW0NIMl1bQ0BIXTJuM1tjSF1bY0hdbltjSF0z

> <s_epik_cmdline>
J2VwaWtfcHl0aG9uJywgJy1waCcsICc3LjAnLCAnLXRuJywgJzgnLCAnLW1hJywgJzIwMCcsICctbWV0YWxfYmluZGluZycsICctaW1hZScsICc8aW5maWxlLm1hZT4nLCAnLW9tYWUnLCAnPG91dGZpbGUubWFlPic=

> <r_lp_tautomer_probability>
1

> <r_epik_Ionization_Penalty>
1.30217

> <r_epik_Ionization_Penalty_Charging>
0.00439521

> <r_epik_Ionization_Penalty_Neutral>
1.29777

> <r_epik_State_Penalty>
0.977606

> <r_epik_Charging_Adjusted_Penalty>
0.982001

> <i_epik_Tot_Q>
2

> <i_epik_Tot_abs_Q>
2

> <r_epik_Metal_State_Penalty>
1.03289

> <b_epik_Metal_Only>
0

> <s_lp_Force_Field>
OPLS_2005

> <r_lp_Energy>
67.0187

> <b_lp_Chiralities_Consistent>
1

> <s_lp_Variant>
AV-unprocessed.smi:862-6

> <Gold.Version>
5.8.1

> <Gold.Id.Protein>
6NUR|6NUR_protein|mol2

> <Gold.PLP.Fitness>
50.0061

> <Gold.PLP.PLP>
-50.3688

> <Gold.PLP.part.hbond>
-2.0000

> <Gold.PLP.part.metal>
0.0000

> <Gold.PLP.part.buried>
-3.4565

> <Gold.PLP.part.nonpolar>
-44.7158

> <Gold.PLP.part.repulsive>
0.2152

> <Gold.PLP.ligand.clash>
0.0000

> <Gold.PLP.ligand.torsion>
1.7136

> <Gold.PLP.Chemscore.Hbond>
1.0000

> <Gold.PLP.Chemscore.CHOScore>
0.0000

> <Gold.PLP.Chemscore.Metal>
0.0000

> <Gold.Chemscore.Hbonds>
donor molecule, donor type, donor heavy atom, donor atom, acceptor molecule, acceptor atom, score
      P1  H 10752 10763       L1     3  0.94

> <Gold.PLP.Chemscore.Internal.Correction>
0.0644

> <Gold.Rescore>
     Score         DG    S(hbond)    S(metal)    S(lipo)     H(rot)  DE(clash)    DE(int)     intcor
     15.25     -17.20       0.99        0.00     108.56       1.68       0.05       1.90       ----

> <Gold.Chemscore.Fitness>
15.2508

> <Gold.Chemscore.DG>
-17.1963

> <Gold.Chemscore.ZeroCoef>
-5.4800

> <Gold.Chemscore.Hbond>
0.9937

> <Gold.Chemscore.Metal>
0.0000

> <Gold.Chemscore.Lipo>
108.5601

> <Gold.Chemscore.Internal_Hbond>
0.0000

> <Gold.Chemscore.DEClash>
0.0476

> <Gold.Chemscore.DEInternal>
1.8979

> <Gold.Chemscore.Rot>
1.6814

> <Gold.Chemscore.Internal.Correction>
   9.000000E+99

> <Gold.Chemscore.Hbonds>
donor molecule, donor type, donor heavy atom, donor atom, acceptor molecule, acceptor atom, score
      L1  H     1    21       P1  7948  0.02
      P1  H 10752 10763       L1     3  0.90

> <Gold.Chemscore.Hbond.Weighted>
-3.3191

> <Gold.Chemscore.Metal.Weighted>
-0.0000

> <Gold.Chemscore.Lipo.Weighted>
-12.7015

> <Gold.Chemscore.Internal_Hbond.Weighted>
0.0000

> <Gold.Chemscore.DEClash.Weighted>
0.0476

> <Gold.Chemscore.DEInternal.Weighted>
1.8979

> <Gold.Chemscore.Rot.Weighted>
4.3043

> <Gold.Chemscore.Internal.Correction.Weighted>
   9.000000E+99

> <Gold.Protein.RotatedTorsions>
[ 6907 6896 6895 6894 ] final   24.14 input  -60.11 | X-H torsion
[ 7974 7965 7964 7962 ] final -132.34 input  175.53 | X-H torsion
[ 8008 7997 7996 7995 ] final   81.30 input   59.86 | X-H torsion
[ 10167 10162 10161 10158 ] final  100.67 input  -65.29 | X-H torsion
[ 10718 10713 10712 10709 ] final   47.38 input   66.30 | X-H torsion
[ 10763 10752 10751 10750 ] final   53.39 input  -60.55 | X-H torsion
[ 11005 11000 10999 10996 ] final  153.85 input  -57.11 | X-H torsion

> <Gold.Protein.ActiveResidues>
 VAL166  LYS551  ARG553  GLY616  TRP617  ASP618  TYR619  PRO620  LYS621  CYS622 
 ASP623  PHE694  ASN695  SER759  ASP760  ASP761  ALA762  ILE779  LEU786  VAL792 
 PHE793  MET794  SER795  GLU796  ALA797  LYS798  CYS799  TRP800  GLU811  SER814 

> <Gold.Protein.RotatedAtoms>
  151.9531  135.0160  160.0542 H   0  0  0  0  0  0  0  0  0  0  0  0  # atno 6907 bound_to 6896
  152.1936  133.4786  159.5029 H   0  0  0  0  0  0  0  0  0  0  0  0  # atno 6908 bound_to 6896
  150.6940  134.1598  159.4215 H   0  0  0  0  0  0  0  0  0  0  0  0  # atno 6909 bound_to 6896
  144.9295  140.7111  143.4915 H   0  0  0  0  0  0  0  0  0  0  0  0  # atno 7974 bound_to 7965
  155.8952  140.3436  155.5986 H   0  0  0  0  0  0  0  0  0  0  0  0  # atno 8008 bound_to 7997
  155.7564  140.0827  157.2195 H   0  0  0  0  0  0  0  0  0  0  0  0  # atno 8009 bound_to 7997
  154.4037  140.1544  156.2770 H   0  0  0  0  0  0  0  0  0  0  0  0  # atno 8010 bound_to 7997
  139.7507  144.6985  151.0437 H   0  0  0  0  0  0  0  0  0  0  0  0  # atno 10167 bound_to 10162
  157.4579  130.8178  149.7855 H   0  0  0  0  0  0  0  0  0  0  0  0  # atno 10718 bound_to 10713
  152.9795  135.5780  154.4733 H   0  0  0  0  0  0  0  0  0  0  0  0  # atno 10763 bound_to 10752
  154.4293  135.2773  155.1925 H   0  0  0  0  0  0  0  0  0  0  0  0  # atno 10764 bound_to 10752
  154.3641  135.6182  153.5759 H   0  0  0  0  0  0  0  0  0  0  0  0  # atno 10765 bound_to 10752
  140.1436  134.8722  157.2363 H   0  0  0  0  0  0  0  0  0  0  0  0  # atno 11005 bound_to 11000
  145.3165  139.1802  143.4611 LP  0  0  0  0  0  0  0  0  0  0  0  0  # atno 17320 bound_to 7965
  146.3241  140.3177  142.8631 LP  0  0  0  0  0  0  0  0  0  0  0  0  # atno 17321 bound_to 7965
  140.7797  143.4813  151.0014 LP  0  0  0  0  0  0  0  0  0  0  0  0  # atno 17342 bound_to 10162
  139.8500  143.7450  152.3178 LP  0  0  0  0  0  0  0  0  0  0  0  0  # atno 17343 bound_to 10162
  156.0015  130.3877  150.2587 LP  0  0  0  0  0  0  0  0  0  0  0  0  # atno 17370 bound_to 10713
  157.0763  131.0131  151.3172 LP  0  0  0  0  0  0  0  0  0  0  0  0  # atno 17371 bound_to 10713
  140.2692  134.3480  155.7379 LP  0  0  0  0  0  0  0  0  0  0  0  0  # atno 17394 bound_to 11000
  141.2189  133.7413  156.9197 LP  0  0  0  0  0  0  0  0  0  0  0  0  # atno 17395 bound_to 11000

$$$$
