AV-unprocessed.smi:1440|AV-procd|sdf|5874|dock1
  -GOLD-   22720 5553D 1   1.00000     0.00000
 Structure written by MMmdl.
 41 42  0  0  0  0  0  0  0  0  1 V2000
  147.0334  141.9082  157.6160 C   0  0  0  0  0  0  0  0  0  0  0  0
  147.6095  141.7685  156.1998 C   0  0  2  0  0  0  0  0  0  0  0  0
  146.5088  141.8943  155.1289 C   0  0  0  0  0  0  0  0  0  0  0  0
  147.0788  141.7482  153.7061 C   0  0  0  0  0  0  0  0  0  0  0  0
  147.8685  140.4377  153.5236 C   0  0  2  0  0  0  0  0  0  0  0  0
  146.9567  139.2946  153.5230 N   0  0  0  0  0  0  0  0  0  0  0  0
  146.5592  138.6140  152.4375 C   0  0  0  0  0  0  0  0  0  0  0  0
  146.9344  138.8863  151.2959 O   0  0  0  0  0  0  0  0  0  0  0  0
  145.6053  137.4420  152.7008 C   0  0  0  0  0  0  0  0  0  0  0  0
  146.1593  136.1449  152.3202 N   0  0  0  0  0  0  0  0  0  0  0  0
  145.5079  134.9725  152.3851 C   0  0  0  0  0  0  0  0  0  0  0  0
  144.3497  134.8605  152.7856 O   0  0  0  0  0  0  0  0  0  0  0  0
  146.2821  133.7362  151.9263 C   0  0  0  0  0  0  0  0  0  0  0  0
  145.4816  132.9217  151.0302 N   0  0  0  0  0  0  0  0  0  0  0  0
  145.8125  131.8565  150.2976 C   0  0  0  0  0  0  0  0  0  0  0  0
  144.8100  131.3680  149.5804 N   0  0  0  0  0  0  0  0  0  0  0  0
  143.8226  132.2393  149.9448 C   0  0  0  0  0  0  0  0  0  0  0  0
  144.1722  133.1900  150.8116 N   0  0  0  0  0  0  0  0  0  0  0  0
  148.9533  140.2982  154.6130 C   0  0  0  0  0  0  0  0  0  0  0  0
  148.3754  140.4424  156.0318 C   0  0  0  0  0  0  0  0  0  0  0  0
  146.3100  141.1207  157.8299 H   0  0  0  0  0  0  0  0  0  0  0  0
  146.5295  142.8668  157.7417 H   0  0  0  0  0  0  0  0  0  0  0  0
  147.8213  141.8498  158.3676 H   0  0  0  0  0  0  0  0  0  0  0  0
  148.3173  142.5853  156.0515 H   0  0  0  0  0  0  0  0  0  0  0  0
  145.7421  141.1369  155.2968 H   0  0  0  0  0  0  0  0  0  0  0  0
  146.0095  142.8593  155.2216 H   0  0  0  0  0  0  0  0  0  0  0  0
  146.2739  141.8096  152.9727 H   0  0  0  0  0  0  0  0  0  0  0  0
  147.7381  142.5927  153.5011 H   0  0  0  0  0  0  0  0  0  0  0  0
  148.3575  140.4757  152.5485 H   0  0  0  0  0  0  0  0  0  0  0  0
  146.6023  138.9988  154.4212 H   0  0  0  0  0  0  0  0  0  0  0  0
  145.3765  137.4137  153.7664 H   0  0  0  0  0  0  0  0  0  0  0  0
  144.6605  137.6154  152.1825 H   0  0  0  0  0  0  0  0  0  0  0  0
  147.1079  136.1394  151.9736 H   0  0  0  0  0  0  0  0  0  0  0  0
  147.1928  134.0364  151.4063 H   0  0  0  0  0  0  0  0  0  0  0  0
  146.5851  133.1422  152.7901 H   0  0  0  0  0  0  0  0  0  0  0  0
  146.8065  131.4339  150.2860 H   0  0  0  0  0  0  0  0  0  0  0  0
  142.8159  132.1714  149.5592 H   0  0  0  0  0  0  0  0  0  0  0  0
  149.4740  139.3448  154.5174 H   0  0  0  0  0  0  0  0  0  0  0  0
  149.7105  141.0679  154.4596 H   0  0  0  0  0  0  0  0  0  0  0  0
  149.1850  140.3858  156.7600 H   0  0  0  0  0  0  0  0  0  0  0  0
  147.7129  139.6024  156.2450 H   0  0  0  0  0  0  0  0  0  0  0  0
  1  2  1  0  0  0  0
  1 21  1  0  0  0  0
  1 22  1  0  0  0  0
  1 23  1  0  0  0  0
  2 20  1  0  0  0  0
  2  3  1  0  0  0  0
  2 24  1  0  0  0  0
  3  4  1  0  0  0  0
  3 25  1  0  0  0  0
  3 26  1  0  0  0  0
  4  5  1  0  0  0  0
  4 27  1  0  0  0  0
  4 28  1  0  0  0  0
  5  6  1  0  0  0  0
  5 19  1  0  0  0  0
  5 29  1  0  0  0  0
  6  7  1  0  0  0  0
  6 30  1  0  0  0  0
  7  8  2  0  0  0  0
  7  9  1  0  0  0  0
  9 10  1  0  0  0  0
  9 31  1  0  0  0  0
  9 32  1  0  0  0  0
 10 11  1  0  0  0  0
 10 33  1  0  0  0  0
 11 12  2  0  0  0  0
 11 13  1  0  0  0  0
 13 14  1  0  0  0  0
 13 34  1  0  0  0  0
 13 35  1  0  0  0  0
 14 18  1  0  0  0  0
 14 15  1  0  0  0  0
 15 16  2  0  0  0  0
 15 36  1  0  0  0  0
 16 17  1  0  0  0  0
 17 18  2  0  0  0  0
 17 37  1  0  0  0  0
 19 20  1  0  0  0  0
 19 38  1  0  0  0  0
 19 39  1  0  0  0  0
 20 40  1  0  0  0  0
 20 41  1  0  0  0  0
M  END
> <s_m_source_file>
AV-unprocessed.smi

> <i_m_source_file_index>
1440

> <i_lp_mmshare_version>
43012

> <i_f3d_flags>
0

> <s_epik_input>
W0NIM11bQ0BASF0xW0NIMl1bQ0gyXVtDQEhdKFtDSDJdW0NIMl0xKVtOSF1DKD1PKVtDSDJdW05IXUMoPU8pW0NIMl1uMltjSF1uW2NIXW4y

> <s_epik_cmdline>
J2VwaWtfcHl0aG9uJywgJy1waCcsICc3LjAnLCAnLXRuJywgJzgnLCAnLW1hJywgJzIwMCcsICctbWV0YWxfYmluZGluZycsICctaW1hZScsICc8aW5maWxlLm1hZT4nLCAnLW9tYWUnLCAnPG91dGZpbGUubWFlPic=

> <r_lp_tautomer_probability>
1

> <r_epik_Ionization_Penalty>
7.34071e-06

> <r_epik_Ionization_Penalty_Charging>
0

> <r_epik_Ionization_Penalty_Neutral>
7.34071e-06

> <r_epik_State_Penalty>
-0

> <r_epik_Charging_Adjusted_Penalty>
0

> <i_epik_Tot_Q>
0

> <i_epik_Tot_abs_Q>
0

> <r_epik_Metal_State_Penalty>
-0

> <b_epik_Metal_Only>
0

> <s_lp_Force_Field>
OPLS_2005

> <r_lp_Energy>
6.43363

> <b_lp_Chiralities_Consistent>
1

> <s_lp_Variant>
AV-unprocessed.smi:1440-2

> <Gold.Version>
5.8.1

> <Gold.Id.Protein>
6NUR|6NUR_protein|mol2

> <Gold.PLP.Fitness>
42.9499

> <Gold.PLP.PLP>
-29.5818

> <Gold.PLP.part.hbond>
-3.0000

> <Gold.PLP.part.metal>
0.0000

> <Gold.PLP.part.buried>
-1.2948

> <Gold.PLP.part.nonpolar>
-27.5827

> <Gold.PLP.part.repulsive>
1.9968

> <Gold.PLP.ligand.clash>
0.0000

> <Gold.PLP.ligand.torsion>
0.4071

> <Gold.PLP.Chemscore.Hbond>
2.0968

> <Gold.PLP.Chemscore.CHOScore>
2.6124

> <Gold.PLP.Chemscore.Metal>
0.0000

> <Gold.Chemscore.Hbonds>
donor molecule, donor type, donor heavy atom, donor atom, acceptor molecule, acceptor atom, score
      L1  H    10    33       P1  7948  1.00
      P1  H  7954  7966       L1     8  0.72
      P1  H 10785 10796       L1    16  0.06
      L1  C    15    36       P1 10747  1.00
      L1  C    17    37       P1 10186  0.11
      L1  C    17    37       P1 10952  0.58

> <Gold.PLP.Chemscore.Internal.Correction>
0.0547

> <Gold.Rescore>
     Score         DG    S(hbond)    S(metal)    S(lipo)     H(rot)  DE(clash)    DE(int)     intcor
      4.94      -9.59       1.89        0.00      43.67       2.86       2.47       2.17       ----

> <Gold.Chemscore.Fitness>
4.9423

> <Gold.Chemscore.DG>
-9.5880

> <Gold.Chemscore.ZeroCoef>
-5.4800

> <Gold.Chemscore.Hbond>
1.8939

> <Gold.Chemscore.Metal>
0.0000

> <Gold.Chemscore.Lipo>
43.6697

> <Gold.Chemscore.Internal_Hbond>
0.0000

> <Gold.Chemscore.DEClash>
2.4712

> <Gold.Chemscore.DEInternal>
2.1744

> <Gold.Chemscore.Rot>
2.8621

> <Gold.Chemscore.Internal.Correction>
   9.000000E+99

> <Gold.Chemscore.Hbonds>
donor molecule, donor type, donor heavy atom, donor atom, acceptor molecule, acceptor atom, score
      L1  H    10    33       P1  7948  1.00
      P1  H  7954  7966       L1     8  0.70

> <Gold.Chemscore.Hbond.Weighted>
-6.3256

> <Gold.Chemscore.Metal.Weighted>
-0.0000

> <Gold.Chemscore.Lipo.Weighted>
-5.1094

> <Gold.Chemscore.Internal_Hbond.Weighted>
0.0000

> <Gold.Chemscore.DEClash.Weighted>
2.4712

> <Gold.Chemscore.DEInternal.Weighted>
2.1744

> <Gold.Chemscore.Rot.Weighted>
7.3270

> <Gold.Chemscore.Internal.Correction.Weighted>
   9.000000E+99

> <Gold.Protein.RotatedTorsions>
[ 6907 6896 6895 6894 ] final   97.74 input  -60.11 | X-H torsion
[ 7974 7965 7964 7962 ] final  122.56 input  175.53 | X-H torsion
[ 8008 7997 7996 7995 ] final   -4.33 input   59.86 | X-H torsion
[ 10167 10162 10161 10158 ] final   31.16 input  -65.29 | X-H torsion
[ 10718 10713 10712 10709 ] final  125.47 input   66.30 | X-H torsion
[ 10763 10752 10751 10750 ] final   77.88 input  -60.55 | X-H torsion
[ 11005 11000 10999 10996 ] final -160.40 input  -57.11 | X-H torsion

> <Gold.Protein.ActiveResidues>
 VAL166  LYS551  ARG553  GLY616  TRP617  ASP618  TYR619  PRO620  LYS621  CYS622 
 ASP623  PHE694  ASN695  SER759  ASP760  ASP761  ALA762  ILE779  LEU786  VAL792 
 PHE793  MET794  SER795  GLU796  ALA797  LYS798  CYS799  TRP800  GLU811  SER814 

> <Gold.Protein.RotatedAtoms>
  152.5419  134.0686  159.8183 H   0  0  0  0  0  0  0  0  0  0  0  0  # atno 6907 bound_to 6896
  151.0804  133.5387  159.2628 H   0  0  0  0  0  0  0  0  0  0  0  0  # atno 6908 bound_to 6896
  151.2217  135.0529  159.9006 H   0  0  0  0  0  0  0  0  0  0  0  0  # atno 6909 bound_to 6896
  145.1062  139.3484  143.4786 H   0  0  0  0  0  0  0  0  0  0  0  0  # atno 7974 bound_to 7965
  154.6154  140.2486  155.7615 H   0  0  0  0  0  0  0  0  0  0  0  0  # atno 8008 bound_to 7997
  156.2396  140.2937  156.0356 H   0  0  0  0  0  0  0  0  0  0  0  0  # atno 8009 bound_to 7997
  155.1983  140.0393  157.2903 H   0  0  0  0  0  0  0  0  0  0  0  0  # atno 8010 bound_to 7997
  140.4614  144.0901  150.6213 H   0  0  0  0  0  0  0  0  0  0  0  0  # atno 10167 bound_to 10162
  157.5500  131.1094  150.8718 H   0  0  0  0  0  0  0  0  0  0  0  0  # atno 10718 bound_to 10713
  153.0831  135.4898  154.8543 H   0  0  0  0  0  0  0  0  0  0  0  0  # atno 10763 bound_to 10752
  154.7177  135.3033  154.9100 H   0  0  0  0  0  0  0  0  0  0  0  0  # atno 10764 bound_to 10752
  153.9774  135.6794  153.4802 H   0  0  0  0  0  0  0  0  0  0  0  0  # atno 10765 bound_to 10752
  140.6319  134.4642  157.5230 H   0  0  0  0  0  0  0  0  0  0  0  0  # atno 11005 bound_to 11000
  146.3528  140.0961  142.8610 LP  0  0  0  0  0  0  0  0  0  0  0  0  # atno 17320 bound_to 7965
  145.0899  140.9277  143.4775 LP  0  0  0  0  0  0  0  0  0  0  0  0  # atno 17321 bound_to 7965
  140.4089  143.2666  151.9857 LP  0  0  0  0  0  0  0  0  0  0  0  0  # atno 17342 bound_to 10162
  139.4806  144.5933  151.7735 LP  0  0  0  0  0  0  0  0  0  0  0  0  # atno 17343 bound_to 10162
  156.9245  130.5327  149.5279 LP  0  0  0  0  0  0  0  0  0  0  0  0  # atno 17370 bound_to 10713
  156.0568  130.5628  150.9109 LP  0  0  0  0  0  0  0  0  0  0  0  0  # atno 17371 bound_to 10713
  139.9113  134.8339  156.1520 LP  0  0  0  0  0  0  0  0  0  0  0  0  # atno 17394 bound_to 11000
  141.0669  133.6815  156.2063 LP  0  0  0  0  0  0  0  0  0  0  0  0  # atno 17395 bound_to 11000

$$$$
