AV-unprocessed.smi:2093|AV-procd|sdf|8550|dock5
  -GOLD-   2272011273D 1   1.00000     0.00000
 Structure written by MMmdl.
 30 31  0  0  0  0  0  0  0  0  2 V2000
  148.2985  135.8302  154.9899 C   0  0  0  0  0  0  0  0  0  0  0  0
  149.5736  135.9737  155.8335 C   0  0  2  0  0  0  0  0  0  0  0  0
  149.2256  136.6078  157.1051 N   0  0  0  0  0  0  0  0  0  0  0  0
  149.1127  136.0077  158.2995 C   0  0  0  0  0  0  0  0  0  0  0  0
  149.3080  134.7947  158.4048 O   0  0  0  0  0  0  0  0  0  0  0  0
  148.7873  136.8554  159.3019 N   0  5  0  0  0  0  0  0  0  0  0  0
  148.2056  136.3855  160.4177 C   0  0  0  0  0  0  0  0  0  0  0  0
  147.8515  137.1708  161.4416 N   0  0  0  0  0  0  0  0  0  0  0  0
  147.2707  136.4725  162.5016 C   0  0  0  0  0  0  0  0  0  0  0  0
  147.1885  135.1228  162.2838 C   0  0  0  0  0  0  0  0  0  0  0  0
  147.8415  134.6860  160.7307 S   0  0  0  0  0  0  0  0  0  0  0  0
  150.6562  136.7936  155.1005 C   0  0  1  0  0  0  0  0  0  0  0  0
  150.3082  138.2655  154.8668 C   0  0  0  0  0  0  0  0  0  0  0  0
  151.6782  138.8812  154.7042 C   0  0  0  0  0  0  0  0  0  0  0  0
  152.4920  138.1052  155.7351 C   0  0  0  0  0  0  0  0  0  0  0  0
  151.8621  136.8324  155.8617 O   0  0  0  0  0  0  0  0  0  0  0  0
  148.5045  135.3258  154.0457 H   0  0  0  0  0  0  0  0  0  0  0  0
  147.8628  136.8031  154.7599 H   0  0  0  0  0  0  0  0  0  0  0  0
  147.5449  135.2433  155.5161 H   0  0  0  0  0  0  0  0  0  0  0  0
  149.9612  134.9693  156.0115 H   0  0  0  0  0  0  0  0  0  0  0  0
  149.0558  137.6025  157.0787 H   0  0  0  0  0  0  0  0  0  0  0  0
  146.9460  137.0176  163.3753 H   0  0  0  0  0  0  0  0  0  0  0  0
  146.7880  134.3630  162.9377 H   0  0  0  0  0  0  0  0  0  0  0  0
  150.8881  136.3308  154.1396 H   0  0  0  0  0  0  0  0  0  0  0  0
  149.6646  138.4200  154.0002 H   0  0  0  0  0  0  0  0  0  0  0  0
  149.8115  138.6877  155.7418 H   0  0  0  0  0  0  0  0  0  0  0  0
  152.0575  138.6869  153.7001 H   0  0  0  0  0  0  0  0  0  0  0  0
  151.6892  139.9582  154.8731 H   0  0  0  0  0  0  0  0  0  0  0  0
  153.5377  138.0044  155.4441 H   0  0  0  0  0  0  0  0  0  0  0  0
  152.4568  138.6049  156.7038 H   0  0  0  0  0  0  0  0  0  0  0  0
  1  2  1  0  0  0  0
  1 17  1  0  0  0  0
  1 18  1  0  0  0  0
  1 19  1  0  0  0  0
  2  3  1  0  0  0  0
  2 12  1  0  0  0  0
  2 20  1  0  0  0  0
  3  4  1  0  0  0  0
  3 21  1  0  0  0  0
  4  5  2  0  0  0  0
  4  6  1  0  0  0  0
  6  7  1  0  0  0  0
  7 11  1  0  0  0  0
  7  8  2  0  0  0  0
  8  9  1  0  0  0  0
  9 10  2  0  0  0  0
  9 22  1  0  0  0  0
 10 11  1  0  0  0  0
 10 23  1  0  0  0  0
 12 16  1  0  0  0  0
 12 13  1  0  0  0  0
 12 24  1  0  0  0  0
 13 14  1  0  0  0  0
 13 25  1  0  0  0  0
 13 26  1  0  0  0  0
 14 15  1  0  0  0  0
 14 27  1  0  0  0  0
 14 28  1  0  0  0  0
 15 16  1  0  0  0  0
 15 29  1  0  0  0  0
 15 30  1  0  0  0  0
M  CHG  1   6  -1
M  END
> <s_m_source_file>
AV-unprocessed.smi

> <i_m_source_file_index>
2093

> <i_lp_mmshare_version>
43012

> <i_f3d_flags>
0

> <s_epik_input>
TzFbQ0gyXVtDSDJdW0NIMl1bQ0BIXTFbQ0BIXShbQ0gzXSlbTkhdQyg9TylbTkhdYzJuW2NIXVtjSF1zMg==

> <s_epik_cmdline>
J2VwaWtfcHl0aG9uJywgJy1waCcsICc3LjAnLCAnLXRuJywgJzgnLCAnLW1hJywgJzIwMCcsICctbWV0YWxfYmluZGluZycsICctaW1hZScsICc8aW5maWxlLm1hZT4nLCAnLW9tYWUnLCAnPG91dGZpbGUubWFlPic=

> <r_lp_tautomer_probability>
0.999

> <r_epik_Ionization_Penalty>
8.26346

> <r_epik_Ionization_Penalty_Charging>
6.6559

> <r_epik_Ionization_Penalty_Neutral>
1.60756

> <r_epik_State_Penalty>
6.65607

> <r_epik_Charging_Adjusted_Penalty>
13.312

> <i_epik_Tot_Q>
-1

> <i_epik_Tot_abs_Q>
1

> <r_epik_Metal_State_Penalty>
2.5789

> <b_epik_Metal_Only>
1

> <s_lp_Force_Field>
OPLS_2005

> <r_lp_Energy>
13.8452

> <b_lp_Chiralities_Consistent>
1

> <s_lp_Variant>
AV-unprocessed.smi:2093-7

> <Gold.Version>
5.8.1

> <Gold.Id.Protein>
6NUR|6NUR_protein|mol2

> <Gold.PLP.Fitness>
38.5448

> <Gold.PLP.PLP>
-27.8925

> <Gold.PLP.part.hbond>
-4.0000

> <Gold.PLP.part.metal>
0.0000

> <Gold.PLP.part.buried>
-2.7583

> <Gold.PLP.part.nonpolar>
-20.5871

> <Gold.PLP.part.repulsive>
0.0540

> <Gold.PLP.ligand.clash>
0.0000

> <Gold.PLP.ligand.torsion>
0.3117

> <Gold.PLP.Chemscore.Hbond>
3.7520

> <Gold.PLP.Chemscore.CHOScore>
0.0000

> <Gold.PLP.Chemscore.Metal>
0.0000

> <Gold.Chemscore.Hbonds>
donor molecule, donor type, donor heavy atom, donor atom, acceptor molecule, acceptor atom, score
      P1  H  6896  6909       L1     5  1.00
      P1  H  6931  6943       L1     8  1.00
      P1  H  6934  6947       L1     8  0.72
      P1  H 10752 10763       L1    16  0.99

> <Gold.PLP.Chemscore.Internal.Correction>
0.0198

> <Gold.Rescore>
     Score         DG    S(hbond)    S(metal)    S(lipo)     H(rot)  DE(clash)    DE(int)     intcor
     16.64     -18.48       2.85        0.00      57.55       1.28       0.08       1.76       ----

> <Gold.Chemscore.Fitness>
16.6444

> <Gold.Chemscore.DG>
-18.4775

> <Gold.Chemscore.ZeroCoef>
-5.4800

> <Gold.Chemscore.Hbond>
2.8549

> <Gold.Chemscore.Metal>
0.0000

> <Gold.Chemscore.Lipo>
57.5496

> <Gold.Chemscore.Internal_Hbond>
0.0000

> <Gold.Chemscore.DEClash>
0.0779

> <Gold.Chemscore.DEInternal>
1.7551

> <Gold.Chemscore.Rot>
1.2778

> <Gold.Chemscore.Internal.Correction>
   9.000000E+99

> <Gold.Chemscore.Hbonds>
donor molecule, donor type, donor heavy atom, donor atom, acceptor molecule, acceptor atom, score
      P1  H  6896  6909       L1     5  0.97
      P1  H  6931  6943       L1     8  0.75
      P1  H  6934  6947       L1     8  0.61
      P1  H 10752 10763       L1    16  0.32

> <Gold.Chemscore.Hbond.Weighted>
-9.5353

> <Gold.Chemscore.Metal.Weighted>
-0.0000

> <Gold.Chemscore.Lipo.Weighted>
-6.7333

> <Gold.Chemscore.Internal_Hbond.Weighted>
0.0000

> <Gold.Chemscore.DEClash.Weighted>
0.0779

> <Gold.Chemscore.DEInternal.Weighted>
1.7551

> <Gold.Chemscore.Rot.Weighted>
3.2711

> <Gold.Chemscore.Internal.Correction.Weighted>
   9.000000E+99

> <Gold.Protein.RotatedTorsions>
[ 6907 6896 6895 6894 ] final   16.88 input  -60.11 | X-H torsion
[ 7974 7965 7964 7962 ] final   58.88 input  175.53 | X-H torsion
[ 8008 7997 7996 7995 ] final  -87.37 input   59.86 | X-H torsion
[ 10167 10162 10161 10158 ] final -147.89 input  -65.29 | X-H torsion
[ 10718 10713 10712 10709 ] final   36.18 input   66.30 | X-H torsion
[ 10763 10752 10751 10750 ] final   90.95 input  -60.55 | X-H torsion
[ 11005 11000 10999 10996 ] final -120.47 input  -57.11 | X-H torsion

> <Gold.Protein.ActiveResidues>
 VAL166  LYS551  ARG553  GLY616  TRP617  ASP618  TYR619  PRO620  LYS621  CYS622 
 ASP623  PHE694  ASN695  SER759  ASP760  ASP761  ALA762  ILE779  LEU786  VAL792 
 PHE793  MET794  SER795  GLU796  ALA797  LYS798  CYS799  TRP800  GLU811  SER814 

> <Gold.Protein.RotatedAtoms>
  151.8408  135.0591  160.0447 H   0  0  0  0  0  0  0  0  0  0  0  0  # atno 6907 bound_to 6896
  152.2810  133.5466  159.5506 H   0  0  0  0  0  0  0  0  0  0  0  0  # atno 6908 bound_to 6896
  150.7189  134.0480  159.3830 H   0  0  0  0  0  0  0  0  0  0  0  0  # atno 6909 bound_to 6896
  145.9133  139.3671  143.0522 H   0  0  0  0  0  0  0  0  0  0  0  0  # atno 7974 bound_to 7965
  154.6625  140.0566  157.0078 H   0  0  0  0  0  0  0  0  0  0  0  0  # atno 8008 bound_to 7997
  155.1207  140.3247  155.4479 H   0  0  0  0  0  0  0  0  0  0  0  0  # atno 8009 bound_to 7997
  156.2624  140.1998  156.6329 H   0  0  0  0  0  0  0  0  0  0  0  0  # atno 8010 bound_to 7997
  139.7581  143.8417  152.2601 H   0  0  0  0  0  0  0  0  0  0  0  0  # atno 10167 bound_to 10162
  157.3317  130.7501  149.6852 H   0  0  0  0  0  0  0  0  0  0  0  0  # atno 10718 bound_to 10713
  153.2031  135.4415  155.0290 H   0  0  0  0  0  0  0  0  0  0  0  0  # atno 10763 bound_to 10752
  154.8158  135.3314  154.7182 H   0  0  0  0  0  0  0  0  0  0  0  0  # atno 10764 bound_to 10752
  153.7626  135.6990  153.4978 H   0  0  0  0  0  0  0  0  0  0  0  0  # atno 10765 bound_to 10752
  141.0141  134.0221  157.3373 H   0  0  0  0  0  0  0  0  0  0  0  0  # atno 11005 bound_to 11000
  145.8643  140.9457  143.0684 LP  0  0  0  0  0  0  0  0  0  0  0  0  # atno 17320 bound_to 7965
  144.6745  140.0571  143.7477 LP  0  0  0  0  0  0  0  0  0  0  0  0  # atno 17321 bound_to 7965
  139.8415  144.7207  150.9324 LP  0  0  0  0  0  0  0  0  0  0  0  0  # atno 17342 bound_to 10162
  140.7804  143.3979  151.1199 LP  0  0  0  0  0  0  0  0  0  0  0  0  # atno 17343 bound_to 10162
  155.9696  130.4193  150.4370 LP  0  0  0  0  0  0  0  0  0  0  0  0  # atno 17370 bound_to 10713
  157.2403  131.0524  151.2440 LP  0  0  0  0  0  0  0  0  0  0  0  0  # atno 17371 bound_to 10713
  139.9107  135.0189  156.7678 LP  0  0  0  0  0  0  0  0  0  0  0  0  # atno 17394 bound_to 11000
  140.6684  133.9582  155.7843 LP  0  0  0  0  0  0  0  0  0  0  0  0  # atno 17395 bound_to 11000

$$$$
