AV-unprocessed.smi:1088|AV-procd|sdf|4732|dock5
  -GOLD-   22720 3263D 1   1.00000     0.00000
 Structure written by MMmdl.
 47 48  0  0  0  0  0  0  0  0  1 V2000
  146.6638  138.9716  152.3896 C   0  0  0  0  0  0  0  0  0  0  0  0
  146.4917  139.2469  153.7681 O   0  0  0  0  0  0  0  0  0  0  0  0
  147.6685  139.7598  154.3719 C   0  0  0  0  0  0  0  0  0  0  0  0
  148.8020  138.7266  154.2800 C   0  0  0  0  0  0  0  0  0  0  0  0
  150.1806  139.2335  154.2775 N   0  0  0  0  0  0  0  0  0  0  0  0
  151.1131  138.1190  154.2677 C   0  0  0  0  0  0  0  0  0  0  0  0
  152.4746  138.6829  154.6555 C   0  0  0  0  0  0  0  0  0  0  0  0
  152.1245  139.9115  155.4975 C   0  0  0  0  0  0  0  0  0  0  0  0
  150.5854  140.0093  155.4528 C   0  0  1  0  0  0  0  0  0  0  0  0
  150.1108  141.4804  155.4955 C   0  0  0  0  0  0  0  0  0  0  0  0
  151.0670  142.3302  156.1992 N   0  0  0  0  0  0  0  0  0  0  0  0
  150.9217  142.8175  157.4406 C   0  0  0  0  0  0  0  0  0  0  0  0
  149.9307  142.6070  158.1413 O   0  0  0  0  0  0  0  0  0  0  0  0
  152.0705  143.6982  157.9508 C   0  0  0  0  0  0  0  0  0  0  0  0
  152.4646  143.3939  159.3323 N   0  0  0  0  0  0  0  0  0  0  0  0
  152.1862  144.2988  160.3402 C   0  0  0  0  0  0  0  0  0  0  0  0
  152.5062  144.0921  161.6363 C   0  0  0  0  0  0  0  0  0  0  0  0
  153.1831  142.8709  162.0557 C   0  0  0  0  0  0  0  0  0  0  0  0
  153.4790  142.6382  163.2282 O   0  0  0  0  0  0  0  0  0  0  0  0
  153.4656  141.9672  161.0032 N   0  0  0  0  0  0  0  0  0  0  0  0
  154.1251  140.7156  161.3120 C   0  0  0  0  0  0  0  0  0  0  0  0
  153.1165  142.1836  159.6518 C   0  0  0  0  0  0  0  0  0  0  0  0
  153.3627  141.3514  158.7750 O   0  0  0  0  0  0  0  0  0  0  0  0
  145.7312  138.5910  151.9733 H   0  0  0  0  0  0  0  0  0  0  0  0
  147.4351  138.2162  152.2333 H   0  0  0  0  0  0  0  0  0  0  0  0
  146.9370  139.8718  151.8376 H   0  0  0  0  0  0  0  0  0  0  0  0
  147.9675  140.7049  153.9218 H   0  0  0  0  0  0  0  0  0  0  0  0
  147.4718  139.9805  155.4221 H   0  0  0  0  0  0  0  0  0  0  0  0
  148.6761  137.9824  155.0677 H   0  0  0  0  0  0  0  0  0  0  0  0
  148.6468  138.1881  153.3439 H   0  0  0  0  0  0  0  0  0  0  0  0
  150.8151  137.3757  155.0094 H   0  0  0  0  0  0  0  0  0  0  0  0
  151.1351  137.6238  153.2963 H   0  0  0  0  0  0  0  0  0  0  0  0
  153.0774  137.9568  155.2013 H   0  0  0  0  0  0  0  0  0  0  0  0
  153.0289  138.9824  153.7651 H   0  0  0  0  0  0  0  0  0  0  0  0
  152.4854  139.8206  156.5225 H   0  0  0  0  0  0  0  0  0  0  0  0
  152.5951  140.7930  155.0599 H   0  0  0  0  0  0  0  0  0  0  0  0
  150.2050  139.5011  156.3408 H   0  0  0  0  0  0  0  0  0  0  0  0
  149.9182  141.8428  154.4843 H   0  0  0  0  0  0  0  0  0  0  0  0
  149.1751  141.5869  156.0331 H   0  0  0  0  0  0  0  0  0  0  0  0
  151.9130  142.5640  155.7004 H   0  0  0  0  0  0  0  0  0  0  0  0
  152.9325  143.6008  157.2881 H   0  0  0  0  0  0  0  0  0  0  0  0
  151.7572  144.7404  157.8746 H   0  0  0  0  0  0  0  0  0  0  0  0
  151.6810  145.2181  160.0817 H   0  0  0  0  0  0  0  0  0  0  0  0
  152.2550  144.8398  162.3742 H   0  0  0  0  0  0  0  0  0  0  0  0
  154.9327  140.5733  160.5916 H   0  0  0  0  0  0  0  0  0  0  0  0
  153.3717  139.9309  161.2280 H   0  0  0  0  0  0  0  0  0  0  0  0
  154.5529  140.7356  162.3140 H   0  0  0  0  0  0  0  0  0  0  0  0
  1  2  1  0  0  0  0
  1 24  1  0  0  0  0
  1 25  1  0  0  0  0
  1 26  1  0  0  0  0
  2  3  1  0  0  0  0
  3  4  1  0  0  0  0
  3 27  1  0  0  0  0
  3 28  1  0  0  0  0
  4  5  1  0  0  0  0
  4 29  1  0  0  0  0
  4 30  1  0  0  0  0
  5  9  1  0  0  0  0
  5  6  1  0  0  0  0
  6  7  1  0  0  0  0
  6 31  1  0  0  0  0
  6 32  1  0  0  0  0
  7  8  1  0  0  0  0
  7 33  1  0  0  0  0
  7 34  1  0  0  0  0
  8  9  1  0  0  0  0
  8 35  1  0  0  0  0
  8 36  1  0  0  0  0
  9 10  1  0  0  0  0
  9 37  1  0  0  0  0
 10 11  1  0  0  0  0
 10 38  1  0  0  0  0
 10 39  1  0  0  0  0
 11 12  1  0  0  0  0
 11 40  1  0  0  0  0
 12 13  2  0  0  0  0
 12 14  1  0  0  0  0
 14 15  1  0  0  0  0
 14 41  1  0  0  0  0
 14 42  1  0  0  0  0
 15 22  1  0  0  0  0
 15 16  1  0  0  0  0
 16 17  2  0  0  0  0
 16 43  1  0  0  0  0
 17 18  1  0  0  0  0
 17 44  1  0  0  0  0
 18 19  2  0  0  0  0
 18 20  1  0  0  0  0
 20 21  1  0  0  0  0
 20 22  1  0  0  0  0
 21 45  1  0  0  0  0
 21 46  1  0  0  0  0
 21 47  1  0  0  0  0
 22 23  2  0  0  0  0
M  END
> <s_m_source_file>
AV-unprocessed.smi

> <i_m_source_file_index>
1088

> <i_lp_mmshare_version>
43012

> <i_f3d_flags>
0

> <s_epik_input>
W0NIM11PW0NIMl1bQ0gyXU4xW0NIMl1bQ0gyXVtDSDJdW0NASF0xW0NIMl1bTkhdQyg9TylbQ0gyXW4yW2NIXVtjSF1jKD1PKW4oW0NIM10pYzI9Tw==

> <s_epik_cmdline>
J2VwaWtfcHl0aG9uJywgJy1waCcsICc3LjAnLCAnLXRuJywgJzgnLCAnLW1hJywgJzIwMCcsICctbWV0YWxfYmluZGluZycsICctaW1hZScsICc8aW5maWxlLm1hZT4nLCAnLW9tYWUnLCAnPG91dGZpbGUubWFlPic=

> <r_lp_tautomer_probability>
1

> <r_epik_Ionization_Penalty>
2.28131

> <r_epik_Ionization_Penalty_Charging>
1.22971e-08

> <r_epik_Ionization_Penalty_Neutral>
2.28131

> <r_epik_State_Penalty>
2.43063

> <r_epik_Charging_Adjusted_Penalty>
2.43063

> <i_epik_Tot_Q>
0

> <i_epik_Tot_abs_Q>
0

> <r_epik_Metal_State_Penalty>
2.43056

> <b_epik_Metal_Only>
0

> <s_lp_Force_Field>
OPLS_2005

> <r_lp_Energy>
52.4092

> <b_lp_Chiralities_Consistent>
1

> <s_lp_Variant>
AV-unprocessed.smi:1088-5

> <Gold.Version>
5.8.1

> <Gold.Id.Protein>
6NUR|6NUR_protein|mol2

> <Gold.PLP.Fitness>
51.0878

> <Gold.PLP.PLP>
-53.5794

> <Gold.PLP.part.hbond>
-0.7279

> <Gold.PLP.part.metal>
0.0000

> <Gold.PLP.part.buried>
-1.1732

> <Gold.PLP.part.nonpolar>
-50.1881

> <Gold.PLP.part.repulsive>
0.7598

> <Gold.PLP.ligand.clash>
0.6728

> <Gold.PLP.ligand.torsion>
0.9490

> <Gold.PLP.Chemscore.Hbond>
0.0000

> <Gold.PLP.Chemscore.CHOScore>
0.0000

> <Gold.PLP.Chemscore.Metal>
0.0000

> <Gold.PLP.Chemscore.Internal.Correction>
0.0793

> <Gold.Rescore>
     Score         DG    S(hbond)    S(metal)    S(lipo)     H(rot)  DE(clash)    DE(int)     intcor
     10.23     -11.12       0.00        0.00     102.74       2.49       0.16       0.73       ----

> <Gold.Chemscore.Fitness>
10.2272

> <Gold.Chemscore.DG>
-11.1160

> <Gold.Chemscore.ZeroCoef>
-5.4800

> <Gold.Chemscore.Hbond>
0.0000

> <Gold.Chemscore.Metal>
0.0000

> <Gold.Chemscore.Lipo>
102.7351

> <Gold.Chemscore.Internal_Hbond>
0.0000

> <Gold.Chemscore.DEClash>
0.1580

> <Gold.Chemscore.DEInternal>
0.7308

> <Gold.Chemscore.Rot>
2.4938

> <Gold.Chemscore.Internal.Correction>
   9.000000E+99

> <Gold.Chemscore.Hbond.Weighted>
-0.0000

> <Gold.Chemscore.Metal.Weighted>
-0.0000

> <Gold.Chemscore.Lipo.Weighted>
-12.0200

> <Gold.Chemscore.Internal_Hbond.Weighted>
0.0000

> <Gold.Chemscore.DEClash.Weighted>
0.1580

> <Gold.Chemscore.DEInternal.Weighted>
0.7308

> <Gold.Chemscore.Rot.Weighted>
6.3841

> <Gold.Chemscore.Internal.Correction.Weighted>
   9.000000E+99

> <Gold.Protein.RotatedTorsions>
[ 6907 6896 6895 6894 ] final  -64.48 input  -60.11 | X-H torsion
[ 7974 7965 7964 7962 ] final  109.24 input  175.53 | X-H torsion
[ 8008 7997 7996 7995 ] final   68.73 input   59.86 | X-H torsion
[ 10167 10162 10161 10158 ] final  -78.70 input  -65.29 | X-H torsion
[ 10718 10713 10712 10709 ] final   39.18 input   66.30 | X-H torsion
[ 10763 10752 10751 10750 ] final  -78.33 input  -60.55 | X-H torsion
[ 11005 11000 10999 10996 ] final -113.17 input  -57.11 | X-H torsion

> <Gold.Protein.ActiveResidues>
 VAL166  LYS551  ARG553  GLY616  TRP617  ASP618  TYR619  PRO620  LYS621  CYS622 
 ASP623  PHE694  ASN695  SER759  ASP760  ASP761  ALA762  ILE779  LEU786  VAL792 
 PHE793  MET794  SER795  GLU796  ALA797  LYS798  CYS799  TRP800  GLU811  SER814 

> <Gold.Protein.RotatedAtoms>
  150.7582  134.6292  159.6176 H   0  0  0  0  0  0  0  0  0  0  0  0  # atno 6907 bound_to 6896
  152.3575  134.6917  160.0226 H   0  0  0  0  0  0  0  0  0  0  0  0  # atno 6908 bound_to 6896
  151.7318  133.3282  159.3378 H   0  0  0  0  0  0  0  0  0  0  0  0  # atno 6909 bound_to 6896
  145.2704  139.2669  143.3969 H   0  0  0  0  0  0  0  0  0  0  0  0  # atno 7974 bound_to 7965
  155.7127  140.3494  155.4981 H   0  0  0  0  0  0  0  0  0  0  0  0  # atno 8008 bound_to 7997
  155.9341  140.1089  157.1130 H   0  0  0  0  0  0  0  0  0  0  0  0  # atno 8009 bound_to 7997
  154.4090  140.1225  156.4827 H   0  0  0  0  0  0  0  0  0  0  0  0  # atno 8010 bound_to 7997
  140.4659  143.2440  151.8279 H   0  0  0  0  0  0  0  0  0  0  0  0  # atno 10167 bound_to 10162
  157.3675  130.7683  149.7094 H   0  0  0  0  0  0  0  0  0  0  0  0  # atno 10718 bound_to 10713
  154.5244  135.5733  153.6707 H   0  0  0  0  0  0  0  0  0  0  0  0  # atno 10763 bound_to 10752
  152.9924  135.6189  154.2711 H   0  0  0  0  0  0  0  0  0  0  0  0  # atno 10764 bound_to 10752
  154.2634  135.2855  155.2748 H   0  0  0  0  0  0  0  0  0  0  0  0  # atno 10765 bound_to 10752
  141.0631  133.9503  157.2630 H   0  0  0  0  0  0  0  0  0  0  0  0  # atno 11005 bound_to 11000
  146.3248  140.3144  142.8629 LP  0  0  0  0  0  0  0  0  0  0  0  0  # atno 17320 bound_to 7965
  144.9340  140.8006  143.5671 LP  0  0  0  0  0  0  0  0  0  0  0  0  # atno 17321 bound_to 7965
  139.4812  144.4951  151.9134 LP  0  0  0  0  0  0  0  0  0  0  0  0  # atno 17342 bound_to 10162
  140.4037  144.2460  150.5892 LP  0  0  0  0  0  0  0  0  0  0  0  0  # atno 17343 bound_to 10162
  155.9749  130.4096  150.3889 LP  0  0  0  0  0  0  0  0  0  0  0  0  # atno 17370 bound_to 10713
  157.1975  131.0430  151.2668 LP  0  0  0  0  0  0  0  0  0  0  0  0  # atno 17371 bound_to 10713
  139.9451  135.0185  156.8827 LP  0  0  0  0  0  0  0  0  0  0  0  0  # atno 17394 bound_to 11000
  140.5829  134.0335  155.7470 LP  0  0  0  0  0  0  0  0  0  0  0  0  # atno 17395 bound_to 11000

$$$$
