AV-unprocessed.smi:276|AV-procd|sdf|2082|dock9
  -GOLD-   2262021353D 1   1.00000     0.00000
 Structure written by MMmdl.
 57 61  0  0  0  0  0  0  0  0  1 V2000
  152.5746  143.6357  162.4609 C   0  0  0  0  0  0  0  0  0  0  0  0
  152.4490  143.4647  161.0602 O   0  0  0  0  0  0  0  0  0  0  0  0
  152.5223  142.1026  160.6709 C   0  0  2  0  0  0  0  0  0  0  0  0
  153.9465  141.5818  160.4420 C   0  0  0  0  0  0  0  0  0  0  0  0
  153.4249  140.8276  159.2027 C   0  0  1  0  0  0  0  0  0  0  0  0
  153.0348  139.4509  159.5377 N   0  0  0  0  0  0  0  0  0  0  0  0
  153.8748  138.7568  160.5100 C   0  0  0  0  0  0  0  0  0  0  0  0
  152.7325  138.6340  158.5034 C   0  0  0  0  0  0  0  0  0  0  0  0
  153.5788  138.6501  157.4436 N   0  0  0  0  0  0  0  0  0  0  0  0
  153.3469  137.8623  156.3901 C   0  0  0  0  0  0  0  0  0  0  0  0
  152.3422  137.0065  156.1932 N   0  0  0  0  0  0  0  0  0  0  0  0
  151.4779  137.0023  157.2480 C   0  0  0  0  0  0  0  0  0  0  0  0
  151.5944  137.7792  158.4353 C   0  0  0  0  0  0  0  0  0  0  0  0
  150.5291  137.5043  159.2844 N   0  0  0  0  0  0  0  0  0  0  0  0
  149.8315  136.6077  158.6432 C   0  0  0  0  0  0  0  0  0  0  0  0
  150.3162  136.2651  157.4012 N   0  0  0  0  0  0  0  0  0  0  0  0
  149.7393  135.2985  156.4823 C   0  0  0  0  0  0  0  0  0  0  0  0
  150.6975  134.1529  156.0773 C   0  0  1  0  0  0  0  0  0  0  0  0
  150.9096  133.4039  157.2570 O   0  0  0  0  0  0  0  0  0  0  0  0
  150.1621  133.1739  155.0065 C   0  0  1  0  0  0  0  0  0  0  0  0
  149.0179  132.2538  155.4409 C   0  0  0  0  0  0  0  0  0  0  0  0
  148.2963  131.9262  154.1445 C   0  0  0  0  0  0  0  0  0  0  0  0
  148.7816  133.0023  153.1735 C   0  0  0  0  0  0  0  0  0  0  0  0
  149.5210  133.9116  153.9754 O   0  0  0  0  0  0  0  0  0  0  0  0
  152.2692  141.8647  159.1713 C   0  0  0  0  0  0  0  0  0  0  0  0
  152.3420  143.0434  158.1835 C   0  0  0  0  0  0  0  0  0  0  0  0
  150.8115  143.0792  158.1948 C   0  0  0  0  0  0  0  0  0  0  0  0
  150.8447  141.6149  158.6391 C   0  0  0  0  0  0  0  0  0  0  0  0
  152.5136  144.6957  162.7072 H   0  0  0  0  0  0  0  0  0  0  0  0
  153.5326  143.2604  162.8229 H   0  0  0  0  0  0  0  0  0  0  0  0
  151.7734  143.1203  162.9923 H   0  0  0  0  0  0  0  0  0  0  0  0
  151.9204  141.4367  161.2931 H   0  0  0  0  0  0  0  0  0  0  0  0
  154.6457  142.3773  160.1785 H   0  0  0  0  0  0  0  0  0  0  0  0
  154.3377  140.9717  161.2562 H   0  0  0  0  0  0  0  0  0  0  0  0
  154.1097  140.9049  158.3584 H   0  0  0  0  0  0  0  0  0  0  0  0
  153.9058  137.6772  160.3504 H   0  0  0  0  0  0  0  0  0  0  0  0
  153.4922  138.9263  161.5163 H   0  0  0  0  0  0  0  0  0  0  0  0
  154.8991  139.1286  160.4695 H   0  0  0  0  0  0  0  0  0  0  0  0
  154.0701  137.9264  155.5906 H   0  0  0  0  0  0  0  0  0  0  0  0
  148.9297  136.1801  159.0565 H   0  0  0  0  0  0  0  0  0  0  0  0
  148.8545  134.8861  156.9697 H   0  0  0  0  0  0  0  0  0  0  0  0
  149.3849  135.8251  155.5950 H   0  0  0  0  0  0  0  0  0  0  0  0
  151.6576  134.5606  155.7612 H   0  0  0  0  0  0  0  0  0  0  0  0
  151.6050  132.7841  157.0992 H   0  0  0  0  0  0  0  0  0  0  0  0
  150.9728  132.5778  154.5823 H   0  0  0  0  0  0  0  0  0  0  0  0
  149.3660  131.3575  155.9532 H   0  0  0  0  0  0  0  0  0  0  0  0
  148.3373  132.7861  156.1067 H   0  0  0  0  0  0  0  0  0  0  0  0
  148.5638  130.9340  153.7799 H   0  0  0  0  0  0  0  0  0  0  0  0
  147.2148  131.9556  154.2795 H   0  0  0  0  0  0  0  0  0  0  0  0
  149.4387  132.5705  152.4176 H   0  0  0  0  0  0  0  0  0  0  0  0
  147.9612  133.5086  152.6647 H   0  0  0  0  0  0  0  0  0  0  0  0
  152.8254  143.9453  158.5591 H   0  0  0  0  0  0  0  0  0  0  0  0
  152.7457  142.7508  157.2125 H   0  0  0  0  0  0  0  0  0  0  0  0
  150.4095  143.7452  158.9601 H   0  0  0  0  0  0  0  0  0  0  0  0
  150.3509  143.2524  157.2218 H   0  0  0  0  0  0  0  0  0  0  0  0
  150.7967  140.9445  157.7819 H   0  0  0  0  0  0  0  0  0  0  0  0
  150.1089  141.3507  159.3989 H   0  0  0  0  0  0  0  0  0  0  0  0
  1  2  1  0  0  0  0
  1 29  1  0  0  0  0
  1 30  1  0  0  0  0
  1 31  1  0  0  0  0
  2  3  1  0  0  0  0
  3 25  1  0  0  0  0
  3  4  1  0  0  0  0
  3 32  1  0  0  0  0
  4  5  1  0  0  0  0
  4 33  1  0  0  0  0
  4 34  1  0  0  0  0
  5  6  1  0  0  0  0
  5 25  1  0  0  0  0
  5 35  1  0  0  0  0
  6  7  1  0  0  0  0
  6  8  1  0  0  0  0
  7 36  1  0  0  0  0
  7 37  1  0  0  0  0
  7 38  1  0  0  0  0
  8 13  1  0  0  0  0
  8  9  2  0  0  0  0
  9 10  1  0  0  0  0
 10 11  2  0  0  0  0
 10 39  1  0  0  0  0
 11 12  1  0  0  0  0
 12 16  1  0  0  0  0
 12 13  2  0  0  0  0
 13 14  1  0  0  0  0
 14 15  2  0  0  0  0
 15 16  1  0  0  0  0
 15 40  1  0  0  0  0
 16 17  1  0  0  0  0
 17 18  1  0  0  0  0
 17 41  1  0  0  0  0
 17 42  1  0  0  0  0
 18 19  1  0  0  0  0
 18 20  1  0  0  0  0
 18 43  1  0  0  0  0
 19 44  1  0  0  0  0
 20 24  1  0  0  0  0
 20 21  1  0  0  0  0
 20 45  1  0  0  0  0
 21 22  1  0  0  0  0
 21 46  1  0  0  0  0
 21 47  1  0  0  0  0
 22 23  1  0  0  0  0
 22 48  1  0  0  0  0
 22 49  1  0  0  0  0
 23 24  1  0  0  0  0
 23 50  1  0  0  0  0
 23 51  1  0  0  0  0
 25 28  1  0  0  0  0
 25 26  1  0  0  0  0
 26 27  1  0  0  0  0
 26 52  1  0  0  0  0
 26 53  1  0  0  0  0
 27 28  1  0  0  0  0
 27 54  1  0  0  0  0
 27 55  1  0  0  0  0
 28 56  1  0  0  0  0
 28 57  1  0  0  0  0
M  END
> <s_m_source_file>
AV-unprocessed.smi

> <i_m_source_file_index>
276

> <i_lp_mmshare_version>
43012

> <i_f3d_flags>
0

> <s_epik_input>
W0NIMl0xW0NIMl1bQ0gyXUMxMltDQEhdKE9bQ0gzXSlbQ0gyXVtDQEhdMk4oW0NIM10pYyhuW2NIXW4zKWMoYzM0KW5bY0hdbjRbQ0gyXVtDQEhdKFtPSF0pW0NAQEhdNVtDSDJdW0NIMl1bQ0gyXU81

> <s_epik_cmdline>
J2VwaWtfcHl0aG9uJywgJy1waCcsICc3LjAnLCAnLXRuJywgJzgnLCAnLW1hJywgJzIwMCcsICctbWV0YWxfYmluZGluZycsICctaW1hZScsICc8aW5maWxlLm1hZT4nLCAnLW9tYWUnLCAnPG91dGZpbGUubWFlPic=

> <r_lp_tautomer_probability>
1

> <r_epik_Ionization_Penalty>
0.00204117

> <r_epik_Ionization_Penalty_Charging>
0

> <r_epik_Ionization_Penalty_Neutral>
0.00204117

> <r_epik_State_Penalty>
0.00127401

> <r_epik_Charging_Adjusted_Penalty>
0.00127401

> <i_epik_Tot_Q>
0

> <i_epik_Tot_abs_Q>
0

> <r_epik_Metal_State_Penalty>
-0

> <b_epik_Metal_Only>
0

> <s_lp_Force_Field>
OPLS_2005

> <r_lp_Energy>
59.2093

> <b_lp_Chiralities_Consistent>
1

> <s_lp_Variant>
AV-unprocessed.smi:276-13

> <Gold.Version>
5.8.1

> <Gold.Id.Protein>
6NUR|6NUR_protein|mol2

> <Gold.PLP.Fitness>
47.3060

> <Gold.PLP.PLP>
-42.1429

> <Gold.PLP.part.hbond>
-3.0000

> <Gold.PLP.part.metal>
0.0000

> <Gold.PLP.part.buried>
-5.5784

> <Gold.PLP.part.nonpolar>
-34.7062

> <Gold.PLP.part.repulsive>
0.2719

> <Gold.PLP.ligand.clash>
0.0000

> <Gold.PLP.ligand.torsion>
1.6093

> <Gold.PLP.Chemscore.Hbond>
2.5236

> <Gold.PLP.Chemscore.CHOScore>
0.0000

> <Gold.PLP.Chemscore.Metal>
0.0000

> <Gold.Chemscore.Hbonds>
donor molecule, donor type, donor heavy atom, donor atom, acceptor molecule, acceptor atom, score
      P1  H  6896  6908       L1    19  0.80
      P1  H  7997  8008       L1     9  0.86
      P1  H 10752 10765       L1    11  0.83

> <Gold.PLP.Chemscore.Internal.Correction>
0.8110

> <Gold.Rescore>
     Score         DG    S(hbond)    S(metal)    S(lipo)     H(rot)  DE(clash)    DE(int)     intcor
     15.39     -17.71       1.75        0.00     114.19       2.72       0.72       1.60       ----

> <Gold.Chemscore.Fitness>
15.3928

> <Gold.Chemscore.DG>
-17.7143

> <Gold.Chemscore.ZeroCoef>
-5.4800

> <Gold.Chemscore.Hbond>
1.7457

> <Gold.Chemscore.Metal>
0.0000

> <Gold.Chemscore.Lipo>
114.1867

> <Gold.Chemscore.Internal_Hbond>
0.0000

> <Gold.Chemscore.DEClash>
0.7249

> <Gold.Chemscore.DEInternal>
1.5966

> <Gold.Chemscore.Rot>
2.7172

> <Gold.Chemscore.Internal.Correction>
   9.000000E+99

> <Gold.Chemscore.Hbonds>
donor molecule, donor type, donor heavy atom, donor atom, acceptor molecule, acceptor atom, score
      P1  H  6896  6908       L1    19  0.20
      P1  H  7997  8008       L1     9  0.76
      P1  H 10752 10765       L1    11  0.44

> <Gold.Chemscore.Hbond.Weighted>
-5.8305

> <Gold.Chemscore.Metal.Weighted>
-0.0000

> <Gold.Chemscore.Lipo.Weighted>
-13.3598

> <Gold.Chemscore.Internal_Hbond.Weighted>
0.0000

> <Gold.Chemscore.DEClash.Weighted>
0.7249

> <Gold.Chemscore.DEInternal.Weighted>
1.5966

> <Gold.Chemscore.Rot.Weighted>
6.9560

> <Gold.Chemscore.Internal.Correction.Weighted>
   9.000000E+99

> <Gold.Protein.RotatedTorsions>
[ 6907 6896 6895 6894 ] final  100.50 input  -60.11 | X-H torsion
[ 7974 7965 7964 7962 ] final  -80.98 input  175.53 | X-H torsion
[ 8008 7997 7996 7995 ] final -100.08 input   59.86 | X-H torsion
[ 10167 10162 10161 10158 ] final  -89.04 input  -65.29 | X-H torsion
[ 10718 10713 10712 10709 ] final   44.94 input   66.30 | X-H torsion
[ 10763 10752 10751 10750 ] final -159.02 input  -60.55 | X-H torsion
[ 11005 11000 10999 10996 ] final  -43.70 input  -57.11 | X-H torsion

> <Gold.Protein.ActiveResidues>
 VAL166  LYS551  ARG553  GLY616  TRP617  ASP618  TYR619  PRO620  LYS621  CYS622 
 ASP623  PHE694  ASN695  SER759  ASP760  ASP761  ALA762  ILE779  LEU786  VAL792 
 PHE793  MET794  SER795  GLU796  ALA797  LYS798  CYS799  TRP800  GLU811  SER814 

> <Gold.Protein.RotatedAtoms>
  152.5370  134.0267  159.8006 H   0  0  0  0  0  0  0  0  0  0  0  0  # atno 6907 bound_to 6896
  151.0445  133.5670  159.2655 H   0  0  0  0  0  0  0  0  0  0  0  0  # atno 6908 bound_to 6896
  151.2627  135.0666  159.9158 H   0  0  0  0  0  0  0  0  0  0  0  0  # atno 6909 bound_to 6896
  145.5527  140.9494  143.1490 H   0  0  0  0  0  0  0  0  0  0  0  0  # atno 7974 bound_to 7965
  154.8236  140.0443  157.1428 H   0  0  0  0  0  0  0  0  0  0  0  0  # atno 8008 bound_to 7997
  154.9231  140.3029  155.5186 H   0  0  0  0  0  0  0  0  0  0  0  0  # atno 8009 bound_to 7997
  156.2982  140.2337  156.4284 H   0  0  0  0  0  0  0  0  0  0  0  0  # atno 8010 bound_to 7997
  140.3688  143.2805  151.9526 H   0  0  0  0  0  0  0  0  0  0  0  0  # atno 10167 bound_to 10162
  157.4322  130.8031  149.7614 H   0  0  0  0  0  0  0  0  0  0  0  0  # atno 10718 bound_to 10713
  154.7509  135.3092  154.8559 H   0  0  0  0  0  0  0  0  0  0  0  0  # atno 10763 bound_to 10752
  153.9347  135.6781  153.4749 H   0  0  0  0  0  0  0  0  0  0  0  0  # atno 10764 bound_to 10752
  153.1105  135.4868  154.8955 H   0  0  0  0  0  0  0  0  0  0  0  0  # atno 10765 bound_to 10752
  141.0401  133.6783  156.2770 H   0  0  0  0  0  0  0  0  0  0  0  0  # atno 11005 bound_to 11000
  144.7521  139.7166  143.7269 LP  0  0  0  0  0  0  0  0  0  0  0  0  # atno 17320 bound_to 7965
  146.1905  139.5144  142.9808 LP  0  0  0  0  0  0  0  0  0  0  0  0  # atno 17321 bound_to 7965
  139.4806  144.5926  151.7745 LP  0  0  0  0  0  0  0  0  0  0  0  0  # atno 17342 bound_to 10162
  140.5054  144.1106  150.5981 LP  0  0  0  0  0  0  0  0  0  0  0  0  # atno 17343 bound_to 10162
  155.9917  130.3935  150.2972 LP  0  0  0  0  0  0  0  0  0  0  0  0  # atno 17370 bound_to 10713
  157.1130  131.0226  151.3040 LP  0  0  0  0  0  0  0  0  0  0  0  0  # atno 17371 bound_to 10713
  140.6249  134.5323  157.5552 LP  0  0  0  0  0  0  0  0  0  0  0  0  # atno 17394 bound_to 11000
  139.9270  134.8037  156.1041 LP  0  0  0  0  0  0  0  0  0  0  0  0  # atno 17395 bound_to 11000

$$$$
