AV-unprocessed.smi:1323|AV-procd|sdf|5465|dock1
  -GOLD-   22720 5 33D 1   1.00000     0.00000
 Structure written by MMmdl.
 45 46  0  0  0  0  0  0  0  0  1 V2000
  150.3541  141.8553  156.7277 C   0  0  0  0  0  0  0  0  0  0  0  0
  150.8992  142.4142  158.0522 C   0  0  2  0  0  0  0  0  0  0  0  0
  151.4500  143.8410  157.8533 C   0  0  0  0  0  0  0  0  0  0  0  0
  152.0091  144.4238  159.1597 C   0  0  0  0  0  0  0  0  0  0  0  0
  153.0899  143.5085  159.7511 C   0  0  0  0  0  0  0  0  0  0  0  0
  152.5493  142.0872  159.9663 C   0  0  0  0  0  0  0  0  0  0  0  0
  151.9779  141.4903  158.6624 C   0  0  1  0  0  0  0  0  0  0  0  0
  151.3688  140.2382  158.9519 O   0  0  0  0  0  0  0  0  0  0  0  0
  152.2773  139.2196  159.3441 C   0  0  0  0  0  0  0  0  0  0  0  0
  151.6335  137.8536  159.0845 C   0  0  0  0  0  0  0  0  0  0  0  0
  150.2276  137.8738  159.4634 N   0  0  0  0  0  0  0  0  0  0  0  0
  149.3227  136.9630  159.0798 C   0  0  0  0  0  0  0  0  0  0  0  0
  149.5986  136.0041  158.3570 O   0  0  0  0  0  0  0  0  0  0  0  0
  147.8921  137.1909  159.5896 C   0  0  0  0  0  0  0  0  0  0  0  0
  147.4731  136.2320  160.6256 N   0  0  0  0  0  0  0  0  0  0  0  0
  147.6034  134.8629  160.3188 C   0  0  0  0  0  0  0  0  0  0  0  0
  147.2532  133.9036  161.1898 C   0  0  0  0  0  0  0  0  0  0  0  0
  146.7280  134.3054  162.4730 C   0  0  0  0  0  0  0  0  0  0  0  0
  146.6035  135.6124  162.7786 C   0  0  0  0  0  0  0  0  0  0  0  0
  146.9893  136.6646  161.8309 C   0  0  0  0  0  0  0  0  0  0  0  0
  146.8838  137.8607  162.1039 O   0  0  0  0  0  0  0  0  0  0  0  0
  151.1442  141.7596  155.9823 H   0  0  0  0  0  0  0  0  0  0  0  0
  149.5845  142.5078  156.3144 H   0  0  0  0  0  0  0  0  0  0  0  0
  149.9062  140.8711  156.8658 H   0  0  0  0  0  0  0  0  0  0  0  0
  150.0666  142.4732  158.7549 H   0  0  0  0  0  0  0  0  0  0  0  0
  152.2360  143.8309  157.0967 H   0  0  0  0  0  0  0  0  0  0  0  0
  150.6643  144.4941  157.4717 H   0  0  0  0  0  0  0  0  0  0  0  0
  152.4208  145.4171  158.9784 H   0  0  0  0  0  0  0  0  0  0  0  0
  151.2002  144.5500  159.8804 H   0  0  0  0  0  0  0  0  0  0  0  0
  153.9507  143.4762  159.0820 H   0  0  0  0  0  0  0  0  0  0  0  0
  153.4471  143.9180  160.6963 H   0  0  0  0  0  0  0  0  0  0  0  0
  153.3453  141.4560  160.3609 H   0  0  0  0  0  0  0  0  0  0  0  0
  151.7694  142.1095  160.7286 H   0  0  0  0  0  0  0  0  0  0  0  0
  152.7796  141.3642  157.9317 H   0  0  0  0  0  0  0  0  0  0  0  0
  153.1954  139.3101  158.7617 H   0  0  0  0  0  0  0  0  0  0  0  0
  152.5492  139.3112  160.3962 H   0  0  0  0  0  0  0  0  0  0  0  0
  151.7310  137.5821  158.0323 H   0  0  0  0  0  0  0  0  0  0  0  0
  152.1502  137.0881  159.6652 H   0  0  0  0  0  0  0  0  0  0  0  0
  149.9225  138.6366  160.0507 H   0  0  0  0  0  0  0  0  0  0  0  0
  147.8071  138.2133  159.9629 H   0  0  0  0  0  0  0  0  0  0  0  0
  147.2147  137.1441  158.7354 H   0  0  0  0  0  0  0  0  0  0  0  0
  148.0102  134.6472  159.3414 H   0  0  0  0  0  0  0  0  0  0  0  0
  147.3652  132.8591  160.9386 H   0  0  0  0  0  0  0  0  0  0  0  0
  146.4350  133.5542  163.1918 H   0  0  0  0  0  0  0  0  0  0  0  0
  146.2099  135.8942  163.7441 H   0  0  0  0  0  0  0  0  0  0  0  0
  1  2  1  0  0  0  0
  1 22  1  0  0  0  0
  1 23  1  0  0  0  0
  1 24  1  0  0  0  0
  2  7  1  0  0  0  0
  2  3  1  0  0  0  0
  2 25  1  0  0  0  0
  3  4  1  0  0  0  0
  3 26  1  0  0  0  0
  3 27  1  0  0  0  0
  4  5  1  0  0  0  0
  4 28  1  0  0  0  0
  4 29  1  0  0  0  0
  5  6  1  0  0  0  0
  5 30  1  0  0  0  0
  5 31  1  0  0  0  0
  6  7  1  0  0  0  0
  6 32  1  0  0  0  0
  6 33  1  0  0  0  0
  7  8  1  0  0  0  0
  7 34  1  0  0  0  0
  8  9  1  0  0  0  0
  9 10  1  0  0  0  0
  9 35  1  0  0  0  0
  9 36  1  0  0  0  0
 10 11  1  0  0  0  0
 10 37  1  0  0  0  0
 10 38  1  0  0  0  0
 11 12  1  0  0  0  0
 11 39  1  0  0  0  0
 12 13  2  0  0  0  0
 12 14  1  0  0  0  0
 14 15  1  0  0  0  0
 14 40  1  0  0  0  0
 14 41  1  0  0  0  0
 15 20  1  0  0  0  0
 15 16  1  0  0  0  0
 16 17  2  0  0  0  0
 16 42  1  0  0  0  0
 17 18  1  0  0  0  0
 17 43  1  0  0  0  0
 18 19  2  0  0  0  0
 18 44  1  0  0  0  0
 19 20  1  0  0  0  0
 19 45  1  0  0  0  0
 20 21  2  0  0  0  0
M  END
> <s_m_source_file>
AV-unprocessed.smi

> <i_m_source_file_index>
1323

> <i_lp_mmshare_version>
43012

> <i_f3d_flags>
0

> <s_epik_input>
W0NIM11bQ0BASF0xW0NIMl1bQ0gyXVtDSDJdW0NIMl1bQ0BIXTFPW0NIMl1bQ0gyXVtOSF1DKD1PKVtDSDJdbjJbY0hdW2NIXVtjSF1bY0hdYzI9Tw==

> <s_epik_cmdline>
J2VwaWtfcHl0aG9uJywgJy1waCcsICc3LjAnLCAnLXRuJywgJzgnLCAnLW1hJywgJzIwMCcsICctbWV0YWxfYmluZGluZycsICctaW1hZScsICc8aW5maWxlLm1hZT4nLCAnLW9tYWUnLCAnPG91dGZpbGUubWFlPic=

> <r_lp_tautomer_probability>
1

> <r_epik_Ionization_Penalty>
4.02412e-07

> <r_epik_Ionization_Penalty_Charging>
3.74552e-07

> <r_epik_Ionization_Penalty_Neutral>
2.78599e-08

> <r_epik_State_Penalty>
-0

> <r_epik_Charging_Adjusted_Penalty>
3.74552e-07

> <i_epik_Tot_Q>
0

> <i_epik_Tot_abs_Q>
0

> <r_epik_Metal_State_Penalty>
-0

> <b_epik_Metal_Only>
0

> <s_lp_Force_Field>
OPLS_2005

> <r_lp_Energy>
21.1571

> <b_lp_Chiralities_Consistent>
1

> <s_lp_Variant>
AV-unprocessed.smi:1323-1

> <Gold.Version>
5.8.1

> <Gold.Id.Protein>
6NUR|6NUR_protein|mol2

> <Gold.PLP.Fitness>
53.9808

> <Gold.PLP.PLP>
-48.2289

> <Gold.PLP.part.hbond>
-3.0000

> <Gold.PLP.part.metal>
0.0000

> <Gold.PLP.part.buried>
-5.7621

> <Gold.PLP.part.nonpolar>
-41.5365

> <Gold.PLP.part.repulsive>
0.2315

> <Gold.PLP.ligand.clash>
0.0000

> <Gold.PLP.ligand.torsion>
0.5049

> <Gold.PLP.Chemscore.Hbond>
2.2240

> <Gold.PLP.Chemscore.CHOScore>
0.0000

> <Gold.PLP.Chemscore.Metal>
0.0000

> <Gold.Chemscore.Hbonds>
donor molecule, donor type, donor heavy atom, donor atom, acceptor molecule, acceptor atom, score
      P1  H  6896  6908       L1    13  0.50
      P1  H  6931  6943       L1    21  0.22
      P1  H  6934  6947       L1    21  0.59

> <Gold.PLP.Chemscore.Internal.Correction>
0.0897

> <Gold.Rescore>
     Score         DG    S(hbond)    S(metal)    S(lipo)     H(rot)  DE(clash)    DE(int)     intcor
     19.22     -19.79       2.03        0.00     106.77       1.94       0.03       0.54       ----

> <Gold.Chemscore.Fitness>
19.2222

> <Gold.Chemscore.DG>
-19.7940

> <Gold.Chemscore.ZeroCoef>
-5.4800

> <Gold.Chemscore.Hbond>
2.0324

> <Gold.Chemscore.Metal>
0.0000

> <Gold.Chemscore.Lipo>
106.7676

> <Gold.Chemscore.Internal_Hbond>
0.0000

> <Gold.Chemscore.DEClash>
0.0332

> <Gold.Chemscore.DEInternal>
0.5385

> <Gold.Chemscore.Rot>
1.9398

> <Gold.Chemscore.Internal.Correction>
   9.000000E+99

> <Gold.Chemscore.Hbonds>
donor molecule, donor type, donor heavy atom, donor atom, acceptor molecule, acceptor atom, score
      P1  H  6896  6908       L1    13  0.41
      P1  H  6931  6943       L1    21  0.03
      P1  H  6934  6947       L1    21  0.57

> <Gold.Chemscore.Hbond.Weighted>
-6.7881

> <Gold.Chemscore.Metal.Weighted>
-0.0000

> <Gold.Chemscore.Lipo.Weighted>
-12.4918

> <Gold.Chemscore.Internal_Hbond.Weighted>
0.0000

> <Gold.Chemscore.DEClash.Weighted>
0.0332

> <Gold.Chemscore.DEInternal.Weighted>
0.5385

> <Gold.Chemscore.Rot.Weighted>
4.9659

> <Gold.Chemscore.Internal.Correction.Weighted>
   9.000000E+99

> <Gold.Protein.RotatedTorsions>
[ 6907 6896 6895 6894 ] final  157.14 input  -60.11 | X-H torsion
[ 7974 7965 7964 7962 ] final  -53.80 input  175.53 | X-H torsion
[ 8008 7997 7996 7995 ] final  139.82 input   59.86 | X-H torsion
[ 10167 10162 10161 10158 ] final  -46.66 input  -65.29 | X-H torsion
[ 10718 10713 10712 10709 ] final   -7.02 input   66.30 | X-H torsion
[ 10763 10752 10751 10750 ] final  -39.70 input  -60.55 | X-H torsion
[ 11005 11000 10999 10996 ] final  -69.67 input  -57.11 | X-H torsion

> <Gold.Protein.ActiveResidues>
 VAL166  LYS551  ARG553  GLY616  TRP617  ASP618  TYR619  PRO620  LYS621  CYS622 
 ASP623  PHE694  ASN695  SER759  ASP760  ASP761  ALA762  ILE779  LEU786  VAL792 
 PHE793  MET794  SER795  GLU796  ALA797  LYS798  CYS799  TRP800  GLU811  SER814 

> <Gold.Protein.RotatedAtoms>
  152.0195  133.3893  159.4252 H   0  0  0  0  0  0  0  0  0  0  0  0  # atno 6907 bound_to 6896
  150.6891  134.3642  159.4973 H   0  0  0  0  0  0  0  0  0  0  0  0  # atno 6908 bound_to 6896
  152.1413  134.9059  160.0604 H   0  0  0  0  0  0  0  0  0  0  0  0  # atno 6909 bound_to 6896
  145.8928  140.8057  142.9783 H   0  0  0  0  0  0  0  0  0  0  0  0  # atno 7974 bound_to 7965
  156.2986  140.2357  156.4301 H   0  0  0  0  0  0  0  0  0  0  0  0  # atno 8008 bound_to 7997
  154.8278  140.0434  157.1476 H   0  0  0  0  0  0  0  0  0  0  0  0  # atno 8009 bound_to 7997
  154.9242  140.3008  155.5204 H   0  0  0  0  0  0  0  0  0  0  0  0  # atno 8010 bound_to 7997
  140.6808  143.2820  151.3814 H   0  0  0  0  0  0  0  0  0  0  0  0  # atno 10167 bound_to 10162
  156.7233  130.5157  149.5863 H   0  0  0  0  0  0  0  0  0  0  0  0  # atno 10718 bound_to 10713
  153.9337  135.6769  153.4745 H   0  0  0  0  0  0  0  0  0  0  0  0  # atno 10763 bound_to 10752
  153.0966  135.4848  154.8787 H   0  0  0  0  0  0  0  0  0  0  0  0  # atno 10764 bound_to 10752
  154.7414  135.3161  154.8679 H   0  0  0  0  0  0  0  0  0  0  0  0  # atno 10765 bound_to 10752
  141.1559  133.6770  156.6635 H   0  0  0  0  0  0  0  0  0  0  0  0  # atno 11005 bound_to 11000
  144.6731  140.1556  143.7426 LP  0  0  0  0  0  0  0  0  0  0  0  0  # atno 17320 bound_to 7965
  145.8887  139.2363  143.1562 LP  0  0  0  0  0  0  0  0  0  0  0  0  # atno 17321 bound_to 7965
  139.6129  144.1061  152.2317 LP  0  0  0  0  0  0  0  0  0  0  0  0  # atno 17342 bound_to 10162
  140.0481  144.5955  150.7358 LP  0  0  0  0  0  0  0  0  0  0  0  0  # atno 17343 bound_to 10162
  156.1579  130.6354  151.0681 LP  0  0  0  0  0  0  0  0  0  0  0  0  # atno 17370 bound_to 10713
  157.6889  131.0816  150.7165 LP  0  0  0  0  0  0  0  0  0  0  0  0  # atno 17371 bound_to 10713
  140.3229  134.7993  157.4266 LP  0  0  0  0  0  0  0  0  0  0  0  0  # atno 17394 bound_to 11000
  140.1082  134.5381  155.8290 LP  0  0  0  0  0  0  0  0  0  0  0  0  # atno 17395 bound_to 11000

$$$$
