AV-unprocessed.smi:1965|AV-procd|sdf|7942|dock6
  -GOLD-   2272010113D 1   1.00000     0.00000
 Structure written by MMmdl.
 36 38  0  0  0  0  0  0  0  0  3 V2000
  143.3291  136.7328  152.8012 O   0  0  0  0  0  0  0  0  0  0  0  0
  143.0352  135.6066  153.1998 C   0  0  0  0  0  0  0  0  0  0  0  0
  141.8625  135.3133  153.8194 N   0  5  0  0  0  0  0  0  0  0  0  0
  140.9244  136.2446  154.0726 C   0  0  0  0  0  0  0  0  0  0  0  0
  139.9125  136.0533  154.9270 N   0  0  0  0  0  0  0  0  0  0  0  0
  139.0628  137.1555  155.0369 C   0  0  0  0  0  0  0  0  0  0  0  0
  139.4351  138.2096  154.2456 C   0  0  0  0  0  0  0  0  0  0  0  0
  140.8706  137.8461  153.3311 S   0  0  0  0  0  0  0  0  0  0  0  0
  143.9137  134.6034  153.0173 N   0  0  0  0  0  0  0  0  0  0  0  0
  145.2322  134.7186  152.4077 C   0  0  2  0  0  0  0  0  0  0  0  0
  145.3523  134.0548  151.0222 C   0  0  0  0  0  0  0  0  0  0  0  0
  146.7590  133.4243  150.9941 C   0  0  0  0  0  0  0  0  0  0  0  0
  147.3867  133.8123  152.2721 N   0  3  2  0  0  0  0  0  0  0  0  0
  148.4668  132.9427  152.7868 C   0  0  0  0  0  0  0  0  0  0  0  0
  149.0373  133.5520  154.0840 C   0  0  0  0  0  0  0  0  0  0  0  0
  147.9299  133.8385  155.1194 C   0  0  0  0  0  0  0  0  0  0  0  0
  146.7923  134.6727  154.4991 C   0  0  0  0  0  0  0  0  0  0  0  0
  146.2822  133.9750  153.2284 C   0  0  1  0  0  0  0  0  0  0  0  0
  138.2144  137.1019  155.7029 H   0  0  0  0  0  0  0  0  0  0  0  0
  138.9547  139.1708  154.1421 H   0  0  0  0  0  0  0  0  0  0  0  0
  143.6410  133.6881  153.3448 H   0  0  0  0  0  0  0  0  0  0  0  0
  145.5131  135.7712  152.3323 H   0  0  0  0  0  0  0  0  0  0  0  0
  144.5973  133.2786  150.8871 H   0  0  0  0  0  0  0  0  0  0  0  0
  145.2166  134.7857  150.2241 H   0  0  0  0  0  0  0  0  0  0  0  0
  146.6798  132.3381  150.9275 H   0  0  0  0  0  0  0  0  0  0  0  0
  147.3546  133.7734  150.1501 H   0  0  0  0  0  0  0  0  0  0  0  0
  148.0791  131.9400  152.9734 H   0  0  0  0  0  0  0  0  0  0  0  0
  149.2523  132.8514  152.0359 H   0  0  0  0  0  0  0  0  0  0  0  0
  149.7861  132.8853  154.5125 H   0  0  0  0  0  0  0  0  0  0  0  0
  149.5545  134.4827  153.8469 H   0  0  0  0  0  0  0  0  0  0  0  0
  147.5268  132.8949  155.4898 H   0  0  0  0  0  0  0  0  0  0  0  0
  148.3473  134.3561  155.9838 H   0  0  0  0  0  0  0  0  0  0  0  0
  145.9796  134.7934  155.2163 H   0  0  0  0  0  0  0  0  0  0  0  0
  147.1528  135.6744  154.2607 H   0  0  0  0  0  0  0  0  0  0  0  0
  145.8988  132.9848  153.4871 H   0  0  0  0  0  0  0  0  0  0  0  0
  147.7781  134.7327  152.1322 H   0  0  0  0  0  0  0  0  0  0  0  0
  1  2  2  0  0  0  0
  2  3  1  0  0  0  0
  2  9  1  0  0  0  0
  3  4  1  0  0  0  0
  4  8  1  0  0  0  0
  4  5  2  0  0  0  0
  5  6  1  0  0  0  0
  6  7  2  0  0  0  0
  6 19  1  0  0  0  0
  7  8  1  0  0  0  0
  7 20  1  0  0  0  0
  9 10  1  0  0  0  0
  9 21  1  0  0  0  0
 10 18  1  0  0  0  0
 10 11  1  0  0  0  0
 10 22  1  0  0  0  0
 11 12  1  0  0  0  0
 11 23  1  0  0  0  0
 11 24  1  0  0  0  0
 12 13  1  0  0  0  0
 12 25  1  0  0  0  0
 12 26  1  0  0  0  0
 13 18  1  0  0  0  0
 13 14  1  0  0  0  0
 13 36  1  0  0  0  0
 14 15  1  0  0  0  0
 14 27  1  0  0  0  0
 14 28  1  0  0  0  0
 15 16  1  0  0  0  0
 15 29  1  0  0  0  0
 15 30  1  0  0  0  0
 16 17  1  0  0  0  0
 16 31  1  0  0  0  0
 16 32  1  0  0  0  0
 17 18  1  0  0  0  0
 17 33  1  0  0  0  0
 17 34  1  0  0  0  0
 18 35  1  0  0  0  0
M  CHG  1   3  -1
M  CHG  1  13   1
M  END
> <s_m_source_file>
AV-unprocessed.smi

> <i_m_source_file_index>
1965

> <i_lp_mmshare_version>
43012

> <i_f3d_flags>
0

> <s_epik_input>
czFbY0hdW2NIXW5jMVtOSF1DKD1PKVtOSF1bQ0BIXShbQ0gyXVtDSDJdMilbQ0BASF0oTjIzKVtDSDJdW0NIMl1bQ0gyXVtDSDJdMw==

> <s_epik_cmdline>
J2VwaWtfcHl0aG9uJywgJy1waCcsICc3LjAnLCAnLXRuJywgJzgnLCAnLW1hJywgJzIwMCcsICctbWV0YWxfYmluZGluZycsICctaW1hZScsICc8aW5maWxlLm1hZT4nLCAnLW9tYWUnLCAnPG91dGZpbGUubWFlPic=

> <r_lp_tautomer_probability>
1

> <r_epik_Ionization_Penalty>
7.4116

> <r_epik_Ionization_Penalty_Charging>
6.13869

> <r_epik_Ionization_Penalty_Neutral>
1.27291

> <r_epik_State_Penalty>
6.13761

> <r_epik_Charging_Adjusted_Penalty>
12.2763

> <i_epik_Tot_Q>
0

> <i_epik_Tot_abs_Q>
2

> <r_epik_Metal_State_Penalty>
2.08142

> <b_epik_Metal_Only>
1

> <s_lp_Force_Field>
OPLS_2005

> <r_lp_Energy>
26.2692

> <b_lp_Chiralities_Consistent>
1

> <s_lp_Variant>
AV-unprocessed.smi:1965-11

> <Gold.Version>
5.8.1

> <Gold.Id.Protein>
6NUR|6NUR_protein|mol2

> <Gold.PLP.Fitness>
36.8651

> <Gold.PLP.PLP>
-28.2326

> <Gold.PLP.part.hbond>
-2.0000

> <Gold.PLP.part.metal>
0.0000

> <Gold.PLP.part.buried>
-6.9837

> <Gold.PLP.part.nonpolar>
-19.6341

> <Gold.PLP.part.repulsive>
0.4765

> <Gold.PLP.ligand.clash>
0.0000

> <Gold.PLP.ligand.torsion>
0.1893

> <Gold.PLP.Chemscore.Hbond>
3.0000

> <Gold.PLP.Chemscore.CHOScore>
0.0000

> <Gold.PLP.Chemscore.Metal>
0.0000

> <Gold.Chemscore.Hbonds>
donor molecule, donor type, donor heavy atom, donor atom, acceptor molecule, acceptor atom, score
      L1  H    13    36       P1  7948  2.00
      P1  H 11000 11005       L1     5  1.00

> <Gold.PLP.Chemscore.Internal.Correction>
0.0110

> <Gold.Rescore>
     Score         DG    S(hbond)    S(metal)    S(lipo)     H(rot)  DE(clash)    DE(int)     intcor
     13.68     -15.32       1.86        0.00      53.00       1.00       0.00       1.64       ----

> <Gold.Chemscore.Fitness>
13.6755

> <Gold.Chemscore.DG>
-15.3169

> <Gold.Chemscore.ZeroCoef>
-5.4800

> <Gold.Chemscore.Hbond>
1.8552

> <Gold.Chemscore.Metal>
0.0000

> <Gold.Chemscore.Lipo>
52.9966

> <Gold.Chemscore.Internal_Hbond>
0.0000

> <Gold.Chemscore.DEClash>
0.0018

> <Gold.Chemscore.DEInternal>
1.6397

> <Gold.Chemscore.Rot>
1.0000

> <Gold.Chemscore.Internal.Correction>
   9.000000E+99

> <Gold.Chemscore.Hbonds>
donor molecule, donor type, donor heavy atom, donor atom, acceptor molecule, acceptor atom, score
      L1  H    13    36       P1  7948  0.60
      P1  H 11000 11005       L1     5  0.95

> <Gold.Chemscore.Hbond.Weighted>
-6.1963

> <Gold.Chemscore.Metal.Weighted>
-0.0000

> <Gold.Chemscore.Lipo.Weighted>
-6.2006

> <Gold.Chemscore.Internal_Hbond.Weighted>
0.0000

> <Gold.Chemscore.DEClash.Weighted>
0.0018

> <Gold.Chemscore.DEInternal.Weighted>
1.6397

> <Gold.Chemscore.Rot.Weighted>
2.5600

> <Gold.Chemscore.Internal.Correction.Weighted>
   9.000000E+99

> <Gold.Protein.RotatedTorsions>
[ 6907 6896 6895 6894 ] final  136.17 input  -60.11 | X-H torsion
[ 7974 7965 7964 7962 ] final -134.49 input  175.53 | X-H torsion
[ 8008 7997 7996 7995 ] final   62.23 input   59.86 | X-H torsion
[ 10167 10162 10161 10158 ] final  -32.13 input  -65.29 | X-H torsion
[ 10718 10713 10712 10709 ] final  139.37 input   66.30 | X-H torsion
[ 10763 10752 10751 10750 ] final   90.13 input  -60.55 | X-H torsion
[ 11005 11000 10999 10996 ] final   65.55 input  -57.11 | X-H torsion

> <Gold.Protein.ActiveResidues>
 VAL166  LYS551  ARG553  GLY616  TRP617  ASP618  TYR619  PRO620  LYS621  CYS622 
 ASP623  PHE694  ASN695  SER759  ASP760  ASP761  ALA762  ILE779  LEU786  VAL792 
 PHE793  MET794  SER795  GLU796  ALA797  LYS798  CYS799  TRP800  GLU811  SER814 

> <Gold.Protein.RotatedAtoms>
  152.2924  133.5574  159.5565 H   0  0  0  0  0  0  0  0  0  0  0  0  # atno 6907 bound_to 6896
  150.7241  134.0410  159.3774 H   0  0  0  0  0  0  0  0  0  0  0  0  # atno 6908 bound_to 6896
  151.8315  135.0620  160.0488 H   0  0  0  0  0  0  0  0  0  0  0  0  # atno 6909 bound_to 6896
  144.9098  140.6880  143.5032 H   0  0  0  0  0  0  0  0  0  0  0  0  # atno 7974 bound_to 7965
  155.6110  140.3495  155.4622 H   0  0  0  0  0  0  0  0  0  0  0  0  # atno 8008 bound_to 7997
  156.0154  140.1242  157.0436 H   0  0  0  0  0  0  0  0  0  0  0  0  # atno 8009 bound_to 7997
  154.4296  140.1073  156.5875 H   0  0  0  0  0  0  0  0  0  0  0  0  # atno 8010 bound_to 7997
  140.7226  143.3718  151.1764 H   0  0  0  0  0  0  0  0  0  0  0  0  # atno 10167 bound_to 10162
  157.4151  131.1032  151.0413 H   0  0  0  0  0  0  0  0  0  0  0  0  # atno 10718 bound_to 10713
  153.1943  135.4445  155.0189 H   0  0  0  0  0  0  0  0  0  0  0  0  # atno 10763 bound_to 10752
  154.8109  135.3294  154.7309 H   0  0  0  0  0  0  0  0  0  0  0  0  # atno 10764 bound_to 10752
  153.7760  135.6981  153.4953 H   0  0  0  0  0  0  0  0  0  0  0  0  # atno 10765 bound_to 10752
  139.9887  134.6626  156.0129 H   0  0  0  0  0  0  0  0  0  0  0  0  # atno 11005 bound_to 11000
  145.3474  139.1715  143.4453 LP  0  0  0  0  0  0  0  0  0  0  0  0  # atno 17320 bound_to 7965
  146.3152  140.3522  142.8657 LP  0  0  0  0  0  0  0  0  0  0  0  0  # atno 17321 bound_to 7965
  139.7290  143.9102  152.3013 LP  0  0  0  0  0  0  0  0  0  0  0  0  # atno 17342 bound_to 10162
  139.8884  144.6979  150.8798 LP  0  0  0  0  0  0  0  0  0  0  0  0  # atno 17343 bound_to 10162
  157.1364  130.6124  149.5543 LP  0  0  0  0  0  0  0  0  0  0  0  0  # atno 17370 bound_to 10713
  155.9862  130.4896  150.7070 LP  0  0  0  0  0  0  0  0  0  0  0  0  # atno 17371 bound_to 10713
  141.1547  133.6544  156.4125 LP  0  0  0  0  0  0  0  0  0  0  0  0  # atno 17394 bound_to 11000
  140.4950  134.6539  157.5226 LP  0  0  0  0  0  0  0  0  0  0  0  0  # atno 17395 bound_to 11000

$$$$
