AV-unprocessed.smi:289|AV-procd|sdf|2213|dock8
  -GOLD-   2262022 43D 1   1.00000     0.00000
 Structure written by MMmdl.
 51 54  0  0  0  0  0  0  0  0  1 V2000
  148.8392  140.9756  154.9971 O   0  0  0  0  0  0  0  0  0  0  0  0
  149.8436  140.2726  155.1257 C   0  0  0  0  0  0  0  0  0  0  0  0
  149.9659  138.9827  154.2868 C   0  0  0  0  0  0  0  0  0  0  0  0
  149.2061  137.8373  154.8372 N   0  0  0  0  0  0  0  0  0  0  0  0
  147.7978  137.9430  154.9448 C   0  0  0  0  0  0  0  0  0  0  0  0
  147.2019  138.9543  154.5712 O   0  0  0  0  0  0  0  0  0  0  0  0
  147.1253  136.7930  155.5367 C   0  0  0  0  0  0  0  0  0  0  0  0
  145.7935  136.8197  155.7135 F   0  0  0  0  0  0  0  0  0  0  0  0
  147.8209  135.7057  155.9278 C   0  0  0  0  0  0  0  0  0  0  0  0
  149.1943  135.5961  155.7828 N   0  0  0  0  0  0  0  0  0  0  0  0
  149.9837  134.4046  156.3053 C   0  0  2  0  0  0  0  0  0  0  0  0
  149.6722  133.0792  155.5970 C   0  0  0  0  0  0  0  0  0  0  0  0
  148.6514  132.4191  156.5204 C   0  0  0  0  0  0  0  0  0  0  0  0
  148.4774  133.4054  157.6805 C   0  0  0  0  0  0  0  0  0  0  0  0
  149.6505  134.2066  157.6421 O   0  0  0  0  0  0  0  0  0  0  0  0
  149.9209  136.6948  155.2710 C   0  0  0  0  0  0  0  0  0  0  0  0
  151.1520  136.6604  155.2068 O   0  0  0  0  0  0  0  0  0  0  0  0
  150.8438  140.5978  155.9810 N   0  0  0  0  0  0  0  0  0  0  0  0
  150.8564  141.7509  156.8935 C   0  0  0  0  0  0  0  0  0  0  0  0
  150.8939  141.2484  158.3514 C   0  0  0  0  0  0  0  0  0  0  0  0
  152.0734  140.3854  158.5432 N   0  0  0  0  0  0  0  0  0  0  0  0
  153.1344  140.6554  159.3450 C   0  0  0  0  0  0  0  0  0  0  0  0
  154.2111  140.0671  159.2402 O   0  0  0  0  0  0  0  0  0  0  0  0
  153.0028  141.6855  160.3980 C   0  0  0  0  0  0  0  0  0  0  0  0
  153.4575  141.6902  161.6893 C   0  0  0  0  0  0  0  0  0  0  0  0
  153.0014  142.9020  162.2780 C   0  0  0  0  0  0  0  0  0  0  0  0
  152.2796  143.5406  161.3111 C   0  0  0  0  0  0  0  0  0  0  0  0
  152.2575  142.8065  160.1657 O   0  0  0  0  0  0  0  0  0  0  0  0
  152.0659  139.2449  157.6130 C   0  0  0  0  0  0  0  0  0  0  0  0
  152.0402  139.7639  156.1632 C   0  0  0  0  0  0  0  0  0  0  0  0
  149.6497  139.1993  153.2652 H   0  0  0  0  0  0  0  0  0  0  0  0
  151.0205  138.7180  154.1963 H   0  0  0  0  0  0  0  0  0  0  0  0
  147.2600  134.9055  156.3837 H   0  0  0  0  0  0  0  0  0  0  0  0
  151.0335  134.6788  156.1895 H   0  0  0  0  0  0  0  0  0  0  0  0
  149.3468  133.2169  154.5660 H   0  0  0  0  0  0  0  0  0  0  0  0
  150.5851  132.4828  155.5764 H   0  0  0  0  0  0  0  0  0  0  0  0
  147.7040  132.2218  156.0185 H   0  0  0  0  0  0  0  0  0  0  0  0
  149.0398  131.4670  156.8835 H   0  0  0  0  0  0  0  0  0  0  0  0
  147.5981  134.0332  157.5309 H   0  0  0  0  0  0  0  0  0  0  0  0
  148.3706  132.9042  158.6426 H   0  0  0  0  0  0  0  0  0  0  0  0
  151.7394  142.3572  156.6851 H   0  0  0  0  0  0  0  0  0  0  0  0
  150.0079  142.4210  156.7712 H   0  0  0  0  0  0  0  0  0  0  0  0
  150.8795  142.1220  158.9995 H   0  0  0  0  0  0  0  0  0  0  0  0
  149.9914  140.6808  158.5825 H   0  0  0  0  0  0  0  0  0  0  0  0
  154.0495  140.9150  162.1536 H   0  0  0  0  0  0  0  0  0  0  0  0
  153.1719  143.2564  163.2838 H   0  0  0  0  0  0  0  0  0  0  0  0
  151.7355  144.4729  161.2734 H   0  0  0  0  0  0  0  0  0  0  0  0
  152.9215  138.5822  157.7503 H   0  0  0  0  0  0  0  0  0  0  0  0
  151.1840  138.6327  157.8078 H   0  0  0  0  0  0  0  0  0  0  0  0
  152.0791  138.9198  155.4737 H   0  0  0  0  0  0  0  0  0  0  0  0
  152.9312  140.3591  155.9575 H   0  0  0  0  0  0  0  0  0  0  0  0
  1  2  2  0  0  0  0
  2  3  1  0  0  0  0
  2 18  1  0  0  0  0
  3  4  1  0  0  0  0
  3 31  1  0  0  0  0
  3 32  1  0  0  0  0
  4 16  1  0  0  0  0
  4  5  1  0  0  0  0
  5  6  2  0  0  0  0
  5  7  1  0  0  0  0
  7  8  1  0  0  0  0
  7  9  2  0  0  0  0
  9 10  1  0  0  0  0
  9 33  1  0  0  0  0
 10 11  1  0  0  0  0
 10 16  1  0  0  0  0
 11 15  1  0  0  0  0
 11 12  1  0  0  0  0
 11 34  1  0  0  0  0
 12 13  1  0  0  0  0
 12 35  1  0  0  0  0
 12 36  1  0  0  0  0
 13 14  1  0  0  0  0
 13 37  1  0  0  0  0
 13 38  1  0  0  0  0
 14 15  1  0  0  0  0
 14 39  1  0  0  0  0
 14 40  1  0  0  0  0
 16 17  2  0  0  0  0
 18 30  1  0  0  0  0
 18 19  1  0  0  0  0
 19 20  1  0  0  0  0
 19 41  1  0  0  0  0
 19 42  1  0  0  0  0
 20 21  1  0  0  0  0
 20 43  1  0  0  0  0
 20 44  1  0  0  0  0
 21 22  1  0  0  0  0
 21 29  1  0  0  0  0
 22 23  2  0  0  0  0
 22 24  1  0  0  0  0
 24 28  1  0  0  0  0
 24 25  2  0  0  0  0
 25 26  1  0  0  0  0
 25 45  1  0  0  0  0
 26 27  2  0  0  0  0
 26 46  1  0  0  0  0
 27 28  1  0  0  0  0
 27 47  1  0  0  0  0
 29 30  1  0  0  0  0
 29 48  1  0  0  0  0
 29 49  1  0  0  0  0
 30 50  1  0  0  0  0
 30 51  1  0  0  0  0
M  END
> <s_m_source_file>
AV-unprocessed.smi

> <i_m_source_file_index>
289

> <i_lp_mmshare_version>
43012

> <i_f3d_flags>
0

> <s_epik_input>
bzFbY0hdW2NIXVtjSF1jMUMoPU8pTihbQ0gyXVtDSDJdMilbQ0gyXVtDSDJdTjJDKD1PKVtDSDJdbjNjKD1PKWMoRilbY0hdbihjMz1PKVtDQEBIXTRbQ0gyXVtDSDJdW0NIMl1PNA==

> <s_epik_cmdline>
J2VwaWtfcHl0aG9uJywgJy1waCcsICc3LjAnLCAnLXRuJywgJzgnLCAnLW1hJywgJzIwMCcsICctbWV0YWxfYmluZGluZycsICctaW1hZScsICc8aW5maWxlLm1hZT4nLCAnLW9tYWUnLCAnPG91dGZpbGUubWFlPic=

> <r_lp_tautomer_probability>
1

> <r_epik_Ionization_Penalty>
6.38128e-09

> <r_epik_Ionization_Penalty_Charging>
4.20153e-09

> <r_epik_Ionization_Penalty_Neutral>
2.17976e-09

> <r_epik_State_Penalty>
-0

> <r_epik_Charging_Adjusted_Penalty>
4.20153e-09

> <i_epik_Tot_Q>
0

> <i_epik_Tot_abs_Q>
0

> <r_epik_Metal_State_Penalty>
-0

> <b_epik_Metal_Only>
0

> <s_epik_Chemistry_Notes>
This compound contains an acetal/aminal-like group ( X-CH(R)-Y where X, Y are N, S, or O) that may be acid/base labile, releasing an aldehyde.

> <s_lp_Force_Field>
OPLS_2005

> <r_lp_Energy>
70.009

> <b_lp_Chiralities_Consistent>
1

> <s_lp_Variant>
AV-unprocessed.smi:289-1

> <Gold.Version>
5.8.1

> <Gold.Id.Protein>
6NUR|6NUR_protein|mol2

> <Gold.PLP.Fitness>
55.0646

> <Gold.PLP.PLP>
-50.3318

> <Gold.PLP.part.hbond>
-3.0000

> <Gold.PLP.part.metal>
0.0000

> <Gold.PLP.part.buried>
-4.2403

> <Gold.PLP.part.nonpolar>
-41.9702

> <Gold.PLP.part.repulsive>
0.3711

> <Gold.PLP.ligand.clash>
1.1430

> <Gold.PLP.ligand.torsion>
1.0238

> <Gold.PLP.Chemscore.Hbond>
2.4595

> <Gold.PLP.Chemscore.CHOScore>
0.0000

> <Gold.PLP.Chemscore.Metal>
0.0000

> <Gold.Chemscore.Hbonds>
donor molecule, donor type, donor heavy atom, donor atom, acceptor molecule, acceptor atom, score
      P1  H  6896  6907       L1    15  1.00
      P1  H  7997  8009       L1    23  0.40
      P1  H 10752 10763       L1    17  0.62

> <Gold.PLP.Chemscore.Internal.Correction>
0.5450

> <Gold.Rescore>
     Score         DG    S(hbond)    S(metal)    S(lipo)     H(rot)  DE(clash)    DE(int)     intcor
     15.42     -20.75       2.66        0.00      90.70       1.66       0.02       5.30       ----

> <Gold.Chemscore.Fitness>
15.4235

> <Gold.Chemscore.DG>
-20.7472

> <Gold.Chemscore.ZeroCoef>
-5.4800

> <Gold.Chemscore.Hbond>
2.6647

> <Gold.Chemscore.Metal>
0.0000

> <Gold.Chemscore.Lipo>
90.6984

> <Gold.Chemscore.Internal_Hbond>
0.0000

> <Gold.Chemscore.DEClash>
0.0243

> <Gold.Chemscore.DEInternal>
5.2993

> <Gold.Chemscore.Rot>
1.6580

> <Gold.Chemscore.Internal.Correction>
   9.000000E+99

> <Gold.Chemscore.Hbonds>
donor molecule, donor type, donor heavy atom, donor atom, acceptor molecule, acceptor atom, score
      P1  H  6896  6907       L1    15  0.76
      P1  H  7997  8009       L1    23  0.40
      P1  H 10752 10763       L1    17  0.63

> <Gold.Chemscore.Hbond.Weighted>
-8.9001

> <Gold.Chemscore.Metal.Weighted>
-0.0000

> <Gold.Chemscore.Lipo.Weighted>
-10.6117

> <Gold.Chemscore.Internal_Hbond.Weighted>
0.0000

> <Gold.Chemscore.DEClash.Weighted>
0.0243

> <Gold.Chemscore.DEInternal.Weighted>
5.2993

> <Gold.Chemscore.Rot.Weighted>
4.2446

> <Gold.Chemscore.Internal.Correction.Weighted>
   9.000000E+99

> <Gold.Protein.RotatedTorsions>
[ 6907 6896 6895 6894 ] final -105.06 input  -60.11 | X-H torsion
[ 7974 7965 7964 7962 ] final  -56.51 input  175.53 | X-H torsion
[ 8008 7997 7996 7995 ] final  103.69 input   59.86 | X-H torsion
[ 10167 10162 10161 10158 ] final -156.11 input  -65.29 | X-H torsion
[ 10718 10713 10712 10709 ] final  -59.31 input   66.30 | X-H torsion
[ 10763 10752 10751 10750 ] final   52.10 input  -60.55 | X-H torsion
[ 11005 11000 10999 10996 ] final -131.91 input  -57.11 | X-H torsion

> <Gold.Protein.ActiveResidues>
 VAL166  LYS551  ARG553  GLY616  TRP617  ASP618  TYR619  PRO620  LYS621  CYS622 
 ASP623  PHE694  ASN695  SER759  ASP760  ASP761  ALA762  ILE779  LEU786  VAL792 
 PHE793  MET794  SER795  GLU796  ALA797  LYS798  CYS799  TRP800  GLU811  SER814 

> <Gold.Protein.RotatedAtoms>
  150.7318  134.0184  159.3692 H   0  0  0  0  0  0  0  0  0  0  0  0  # atno 6907 bound_to 6896
  151.8148  135.0668  160.0427 H   0  0  0  0  0  0  0  0  0  0  0  0  # atno 6908 bound_to 6896
  152.3047  133.5654  159.5677 H   0  0  0  0  0  0  0  0  0  0  0  0  # atno 6909 bound_to 6896
  145.8618  140.8279  142.9933 H   0  0  0  0  0  0  0  0  0  0  0  0  # atno 7974 bound_to 7965
  156.1507  140.3160  155.8643 H   0  0  0  0  0  0  0  0  0  0  0  0  # atno 8008 bound_to 7997
  155.3977  140.0497  157.3055 H   0  0  0  0  0  0  0  0  0  0  0  0  # atno 8009 bound_to 7997
  154.5056  140.2145  155.9270 H   0  0  0  0  0  0  0  0  0  0  0  0  # atno 8010 bound_to 7997
  139.6877  143.9474  152.2369 H   0  0  0  0  0  0  0  0  0  0  0  0  # atno 10167 bound_to 10162
  156.1071  130.4179  150.0698 H   0  0  0  0  0  0  0  0  0  0  0  0  # atno 10718 bound_to 10713
  152.9787  135.5824  154.4523 H   0  0  0  0  0  0  0  0  0  0  0  0  # atno 10763 bound_to 10752
  154.4110  135.2770  155.2038 H   0  0  0  0  0  0  0  0  0  0  0  0  # atno 10764 bound_to 10752
  154.3828  135.6143  153.5854 H   0  0  0  0  0  0  0  0  0  0  0  0  # atno 10765 bound_to 10752
  140.9217  134.1436  157.4309 H   0  0  0  0  0  0  0  0  0  0  0  0  # atno 11005 bound_to 11000
  144.6726  140.1107  143.7455 LP  0  0  0  0  0  0  0  0  0  0  0  0  # atno 17320 bound_to 7965
  145.9239  139.2563  143.1365 LP  0  0  0  0  0  0  0  0  0  0  0  0  # atno 17321 bound_to 7965
  139.9281  144.6758  150.8391 LP  0  0  0  0  0  0  0  0  0  0  0  0  # atno 17342 bound_to 10162
  140.7673  143.3328  151.2374 LP  0  0  0  0  0  0  0  0  0  0  0  0  # atno 17343 bound_to 10162
  156.8671  130.9511  151.3613 LP  0  0  0  0  0  0  0  0  0  0  0  0  # atno 17370 bound_to 10713
  157.6248  130.8683  149.9171 LP  0  0  0  0  0  0  0  0  0  0  0  0  # atno 17371 bound_to 10713
  139.8777  134.9974  156.5843 LP  0  0  0  0  0  0  0  0  0  0  0  0  # atno 17394 bound_to 11000
  140.7979  133.8529  155.8701 LP  0  0  0  0  0  0  0  0  0  0  0  0  # atno 17395 bound_to 11000

$$$$
