AV-unprocessed.smi:637|AV-procd|sdf|3142|dock3
  -GOLD-   22720 0 63D 1   1.00000     0.00000
 Structure written by MMmdl.
 38 40  0  0  0  0  0  0  0  0  1 V2000
  142.8920  145.0657  156.9582 C   0  0  0  0  0  0  0  0  0  0  0  0
  143.9005  144.4086  156.0782 C   0  0  0  0  0  0  0  0  0  0  0  0
  143.9976  144.4849  154.7101 C   0  0  0  0  0  0  0  0  0  0  0  0
  145.0868  143.7339  154.1761 C   0  0  0  0  0  0  0  0  0  0  0  0
  145.7990  143.0940  155.1626 C   0  0  0  0  0  0  0  0  0  0  0  0
  146.9653  142.2843  154.8505 C   0  0  0  0  0  0  0  0  0  0  0  0
  147.0871  141.5832  153.5840 C   0  0  0  0  0  0  0  0  0  0  0  0
  148.1702  140.8076  153.3615 C   0  0  0  0  0  0  0  0  0  0  0  0
  149.2245  140.6512  154.3615 C   0  0  0  0  0  0  0  0  0  0  0  0
  150.2048  139.9246  154.2017 O   0  0  0  0  0  0  0  0  0  0  0  0
  149.0138  141.3747  155.4990 N   0  0  0  0  0  0  0  0  0  0  0  0
  149.9432  141.2917  156.6341 C   0  0  0  0  0  0  0  0  0  0  0  0
  149.5916  142.2904  157.7618 C   0  0  1  0  0  0  0  0  0  0  0  0
  148.5771  141.7217  158.5642 O   0  0  0  0  0  0  0  0  0  0  0  0
  150.8083  142.7051  158.5800 C   0  0  0  0  0  0  0  0  0  0  0  0
  151.1428  144.0698  158.7249 C   0  0  0  0  0  0  0  0  0  0  0  0
  152.2376  144.4514  159.5243 C   0  0  0  0  0  0  0  0  0  0  0  0
  153.0041  143.4712  160.1830 C   0  0  0  0  0  0  0  0  0  0  0  0
  152.6766  142.1092  160.0410 C   0  0  0  0  0  0  0  0  0  0  0  0
  153.4103  141.1666  160.6785 F   0  0  0  0  0  0  0  0  0  0  0  0
  151.5826  141.7270  159.2409 C   0  0  0  0  0  0  0  0  0  0  0  0
  147.9116  142.1803  155.7272 N   0  0  0  0  0  0  0  0  0  0  0  0
  145.1576  143.4007  156.7531 S   0  0  0  0  0  0  0  0  0  0  0  0
  142.2393  145.7247  156.3851 H   0  0  0  0  0  0  0  0  0  0  0  0
  143.3813  145.6636  157.7274 H   0  0  0  0  0  0  0  0  0  0  0  0
  142.2686  144.3215  157.4539 H   0  0  0  0  0  0  0  0  0  0  0  0
  143.3306  145.0523  154.0779 H   0  0  0  0  0  0  0  0  0  0  0  0
  145.2905  143.7052  153.1151 H   0  0  0  0  0  0  0  0  0  0  0  0
  146.3215  141.6787  152.8288 H   0  0  0  0  0  0  0  0  0  0  0  0
  148.2604  140.2855  152.4204 H   0  0  0  0  0  0  0  0  0  0  0  0
  149.9718  140.2739  157.0275 H   0  0  0  0  0  0  0  0  0  0  0  0
  150.9569  141.4884  156.2789 H   0  0  0  0  0  0  0  0  0  0  0  0
  149.1620  143.1865  157.3123 H   0  0  0  0  0  0  0  0  0  0  0  0
  148.3326  142.3503  159.2263 H   0  0  0  0  0  0  0  0  0  0  0  0
  150.5511  144.8288  158.2343 H   0  0  0  0  0  0  0  0  0  0  0  0
  152.4858  145.4964  159.6363 H   0  0  0  0  0  0  0  0  0  0  0  0
  153.8415  143.7643  160.7988 H   0  0  0  0  0  0  0  0  0  0  0  0
  151.3303  140.6806  159.1491 H   0  0  0  0  0  0  0  0  0  0  0  0
  1  2  1  0  0  0  0
  1 24  1  0  0  0  0
  1 25  1  0  0  0  0
  1 26  1  0  0  0  0
  2 23  1  0  0  0  0
  2  3  2  0  0  0  0
  3  4  1  0  0  0  0
  3 27  1  0  0  0  0
  4  5  2  0  0  0  0
  4 28  1  0  0  0  0
  5  6  1  0  0  0  0
  5 23  1  0  0  0  0
  6 22  2  0  0  0  0
  6  7  1  0  0  0  0
  7  8  2  0  0  0  0
  7 29  1  0  0  0  0
  8  9  1  0  0  0  0
  8 30  1  0  0  0  0
  9 10  2  0  0  0  0
  9 11  1  0  0  0  0
 11 12  1  0  0  0  0
 11 22  1  0  0  0  0
 12 13  1  0  0  0  0
 12 31  1  0  0  0  0
 12 32  1  0  0  0  0
 13 14  1  0  0  0  0
 13 15  1  0  0  0  0
 13 33  1  0  0  0  0
 14 34  1  0  0  0  0
 15 21  1  0  0  0  0
 15 16  2  0  0  0  0
 16 17  1  0  0  0  0
 16 35  1  0  0  0  0
 17 18  2  0  0  0  0
 17 36  1  0  0  0  0
 18 19  1  0  0  0  0
 18 37  1  0  0  0  0
 19 20  1  0  0  0  0
 19 21  2  0  0  0  0
 21 38  1  0  0  0  0
M  END
> <s_m_source_file>
AV-unprocessed.smi

> <i_m_source_file_index>
637

> <i_lp_mmshare_version>
43012

> <i_f3d_flags>
0

> <s_epik_input>
W0NIM11jMVtjSF1bY0hdYyhzMSktYzJbY0hdW2NIXWMoPU8pbihuMilbQ0gyXVtDQEhdKFtPSF0pYzNbY0hdW2NIXVtjSF1jKEYpW2NIXTM=

> <s_epik_cmdline>
J2VwaWtfcHl0aG9uJywgJy1waCcsICc3LjAnLCAnLXRuJywgJzgnLCAnLW1hJywgJzIwMCcsICctbWV0YWxfYmluZGluZycsICctaW1hZScsICc8aW5maWxlLm1hZT4nLCAnLW9tYWUnLCAnPG91dGZpbGUubWFlPic=

> <r_lp_tautomer_probability>
1

> <r_epik_Ionization_Penalty>
2.26963e-07

> <r_epik_Ionization_Penalty_Charging>
5.89185e-08

> <r_epik_Ionization_Penalty_Neutral>
1.68044e-07

> <r_epik_State_Penalty>
-0

> <r_epik_Charging_Adjusted_Penalty>
5.89185e-08

> <i_epik_Tot_Q>
0

> <i_epik_Tot_abs_Q>
0

> <r_epik_Metal_State_Penalty>
-0

> <b_epik_Metal_Only>
0

> <s_lp_Force_Field>
OPLS_2005

> <r_lp_Energy>
25.403

> <b_lp_Chiralities_Consistent>
1

> <s_lp_Variant>
AV-unprocessed.smi:637-2

> <Gold.Version>
5.8.1

> <Gold.Id.Protein>
6NUR|6NUR_protein|mol2

> <Gold.PLP.Fitness>
48.5704

> <Gold.PLP.PLP>
-46.9898

> <Gold.PLP.part.hbond>
-1.9277

> <Gold.PLP.part.metal>
0.0000

> <Gold.PLP.part.buried>
-4.1892

> <Gold.PLP.part.nonpolar>
-44.2281

> <Gold.PLP.part.repulsive>
2.9877

> <Gold.PLP.ligand.clash>
0.0000

> <Gold.PLP.ligand.torsion>
0.7288

> <Gold.PLP.Chemscore.Hbond>
1.0000

> <Gold.PLP.Chemscore.CHOScore>
0.0000

> <Gold.PLP.Chemscore.Metal>
0.0000

> <Gold.Chemscore.Hbonds>
donor molecule, donor type, donor heavy atom, donor atom, acceptor molecule, acceptor atom, score
      P1  H  7989  7998       L1    10  1.00

> <Gold.PLP.Chemscore.Internal.Correction>
0.0381

> <Gold.Rescore>
     Score         DG    S(hbond)    S(metal)    S(lipo)     H(rot)  DE(clash)    DE(int)     intcor
     13.96     -17.43       0.85        0.00     117.74       1.82       1.81       1.67       ----

> <Gold.Chemscore.Fitness>
13.9551

> <Gold.Chemscore.DG>
-17.4311

> <Gold.Chemscore.ZeroCoef>
-5.4800

> <Gold.Chemscore.Hbond>
0.8504

> <Gold.Chemscore.Metal>
0.0000

> <Gold.Chemscore.Lipo>
117.7400

> <Gold.Chemscore.Internal_Hbond>
0.0000

> <Gold.Chemscore.DEClash>
1.8083

> <Gold.Chemscore.DEInternal>
1.6677

> <Gold.Chemscore.Rot>
1.8222

> <Gold.Chemscore.Internal.Correction>
   9.000000E+99

> <Gold.Chemscore.Hbonds>
donor molecule, donor type, donor heavy atom, donor atom, acceptor molecule, acceptor atom, score
      P1  H  7989  7998       L1    10  0.77

> <Gold.Chemscore.Hbond.Weighted>
-2.8404

> <Gold.Chemscore.Metal.Weighted>
-0.0000

> <Gold.Chemscore.Lipo.Weighted>
-13.7756

> <Gold.Chemscore.Internal_Hbond.Weighted>
0.0000

> <Gold.Chemscore.DEClash.Weighted>
1.8083

> <Gold.Chemscore.DEInternal.Weighted>
1.6677

> <Gold.Chemscore.Rot.Weighted>
4.6649

> <Gold.Chemscore.Internal.Correction.Weighted>
   9.000000E+99

> <Gold.Protein.RotatedTorsions>
[ 6907 6896 6895 6894 ] final    1.45 input  -60.11 | X-H torsion
[ 7974 7965 7964 7962 ] final   -6.05 input  175.53 | X-H torsion
[ 8008 7997 7996 7995 ] final  -54.78 input   59.86 | X-H torsion
[ 10167 10162 10161 10158 ] final -111.01 input  -65.29 | X-H torsion
[ 10718 10713 10712 10709 ] final -135.57 input   66.30 | X-H torsion
[ 10763 10752 10751 10750 ] final -170.72 input  -60.55 | X-H torsion
[ 11005 11000 10999 10996 ] final -154.74 input  -57.11 | X-H torsion

> <Gold.Protein.ActiveResidues>
 VAL166  LYS551  ARG553  GLY616  TRP617  ASP618  TYR619  PRO620  LYS621  CYS622 
 ASP623  PHE694  ASN695  SER759  ASP760  ASP761  ALA762  ILE779  LEU786  VAL792 
 PHE793  MET794  SER795  GLU796  ALA797  LYS798  CYS799  TRP800  GLU811  SER814 

> <Gold.Protein.RotatedAtoms>
  151.5929  135.1052  160.0042 H   0  0  0  0  0  0  0  0  0  0  0  0  # atno 6907 bound_to 6896
  152.4297  133.7252  159.6567 H   0  0  0  0  0  0  0  0  0  0  0  0  # atno 6908 bound_to 6896
  150.8189  133.8217  159.3170 H   0  0  0  0  0  0  0  0  0  0  0  0  # atno 6909 bound_to 6896
  146.2339  140.2113  142.8335 H   0  0  0  0  0  0  0  0  0  0  0  0  # atno 7974 bound_to 7965
  154.4173  140.1168  156.5371 H   0  0  0  0  0  0  0  0  0  0  0  0  # atno 8008 bound_to 7997
  155.6546  140.3496  155.4741 H   0  0  0  0  0  0  0  0  0  0  0  0  # atno 8009 bound_to 7997
  155.9764  140.1151  157.0756 H   0  0  0  0  0  0  0  0  0  0  0  0  # atno 8010 bound_to 7997
  140.1382  143.4301  152.1580 H   0  0  0  0  0  0  0  0  0  0  0  0  # atno 10167 bound_to 10162
  156.2676  130.7246  151.1202 H   0  0  0  0  0  0  0  0  0  0  0  0  # atno 10718 bound_to 10713
  154.6384  135.2895  155.0133 H   0  0  0  0  0  0  0  0  0  0  0  0  # atno 10763 bound_to 10752
  154.1268  135.6539  153.4918 H   0  0  0  0  0  0  0  0  0  0  0  0  # atno 10764 bound_to 10752
  153.0314  135.5301  154.7240 H   0  0  0  0  0  0  0  0  0  0  0  0  # atno 10765 bound_to 10752
  140.6941  134.4009  157.5216 H   0  0  0  0  0  0  0  0  0  0  0  0  # atno 11005 bound_to 11000
  144.9705  140.8364  143.5458 LP  0  0  0  0  0  0  0  0  0  0  0  0  # atno 17320 bound_to 7965
  145.2093  139.2212  143.5151 LP  0  0  0  0  0  0  0  0  0  0  0  0  # atno 17321 bound_to 7965
  139.5485  144.7318  151.4508 LP  0  0  0  0  0  0  0  0  0  0  0  0  # atno 17342 bound_to 10162
  140.6776  143.8154  150.7079 LP  0  0  0  0  0  0  0  0  0  0  0  0  # atno 17343 bound_to 10162
  157.7272  131.0640  150.5873 LP  0  0  0  0  0  0  0  0  0  0  0  0  # atno 17370 bound_to 10713
  156.5967  130.4343  149.5914 LP  0  0  0  0  0  0  0  0  0  0  0  0  # atno 17371 bound_to 10713
  139.8915  134.8778  156.2316 LP  0  0  0  0  0  0  0  0  0  0  0  0  # atno 17394 bound_to 11000
  141.0218  133.7037  156.1280 LP  0  0  0  0  0  0  0  0  0  0  0  0  # atno 17395 bound_to 11000

$$$$
