AV-unprocessed.smi:1965|AV-procd|sdf|7933|dock6
  -GOLD-   2272010103D 1   1.00000     0.00000
 Structure written by MMmdl.
 37 39  0  0  0  0  0  0  0  0  2 V2000
  145.5392  137.9161  154.2825 O   0  0  0  0  0  0  0  0  0  0  0  0
  146.4841  137.3303  153.7570 C   0  0  0  0  0  0  0  0  0  0  0  0
  147.6687  137.9460  153.5599 N   0  0  0  0  0  0  0  0  0  0  0  0
  148.0968  139.2710  153.8632 C   0  0  0  0  0  0  0  0  0  0  0  0
  149.3035  139.5988  154.3435 N   0  0  0  0  0  0  0  0  0  0  0  0
  149.4259  140.9719  154.5705 C   0  0  0  0  0  0  0  0  0  0  0  0
  148.2918  141.6811  154.2647 C   0  0  0  0  0  0  0  0  0  0  0  0
  147.0177  140.6464  153.6779 S   0  0  0  0  0  0  0  0  0  0  0  0
  146.4076  136.0528  153.3492 N   0  0  0  0  0  0  0  0  0  0  0  0
  145.2531  135.1799  153.5330 C   0  0  1  0  0  0  0  0  0  0  0  0
  143.9468  135.7975  153.0510 C   0  0  0  0  0  0  0  0  0  0  0  0
  143.0320  134.5799  152.8843 C   0  0  0  0  0  0  0  0  0  0  0  0
  143.9108  133.4174  152.6052 N   0  3  1  0  0  0  0  0  0  0  0  0
  143.5845  132.7028  151.3420 C   0  0  0  0  0  0  0  0  0  0  0  0
  144.7387  131.7831  150.9168 C   0  0  0  0  0  0  0  0  0  0  0  0
  146.0239  132.5841  150.6356 C   0  0  0  0  0  0  0  0  0  0  0  0
  146.0501  133.9357  151.3743 C   0  0  0  0  0  0  0  0  0  0  0  0
  145.3277  133.8595  152.7430 C   0  0  1  0  0  0  0  0  0  0  0  0
  148.3411  137.4030  153.0376 H   0  0  0  0  0  0  0  0  0  0  0  0
  150.3578  141.3605  154.9541 H   0  0  0  0  0  0  0  0  0  0  0  0
  148.1283  142.7451  154.3513 H   0  0  0  0  0  0  0  0  0  0  0  0
  147.2279  135.6464  152.9215 H   0  0  0  0  0  0  0  0  0  0  0  0
  145.1396  134.9509  154.5951 H   0  0  0  0  0  0  0  0  0  0  0  0
  143.5437  136.5359  153.7449 H   0  0  0  0  0  0  0  0  0  0  0  0
  144.0919  136.2861  152.0862 H   0  0  0  0  0  0  0  0  0  0  0  0
  142.5025  134.3807  153.8167 H   0  0  0  0  0  0  0  0  0  0  0  0
  142.2786  134.7461  152.1132 H   0  0  0  0  0  0  0  0  0  0  0  0
  142.6683  132.1292  151.4847 H   0  0  0  0  0  0  0  0  0  0  0  0
  143.3864  133.4203  150.5438 H   0  0  0  0  0  0  0  0  0  0  0  0
  144.9257  131.0592  151.7114 H   0  0  0  0  0  0  0  0  0  0  0  0
  144.4619  131.2027  150.0362 H   0  0  0  0  0  0  0  0  0  0  0  0
  146.8869  131.9831  150.9251 H   0  0  0  0  0  0  0  0  0  0  0  0
  146.1264  132.7649  149.5649 H   0  0  0  0  0  0  0  0  0  0  0  0
  147.0865  134.2536  151.4913 H   0  0  0  0  0  0  0  0  0  0  0  0
  145.5702  134.6952  150.7552 H   0  0  0  0  0  0  0  0  0  0  0  0
  145.8529  133.1193  153.3486 H   0  0  0  0  0  0  0  0  0  0  0  0
  143.7558  132.7599  153.3562 H   0  0  0  0  0  0  0  0  0  0  0  0
  1  2  2  0  0  0  0
  2  3  1  0  0  0  0
  2  9  1  0  0  0  0
  3  4  1  0  0  0  0
  3 19  1  0  0  0  0
  4  8  1  0  0  0  0
  4  5  2  0  0  0  0
  5  6  1  0  0  0  0
  6  7  2  0  0  0  0
  6 20  1  0  0  0  0
  7  8  1  0  0  0  0
  7 21  1  0  0  0  0
  9 10  1  0  0  0  0
  9 22  1  0  0  0  0
 10 18  1  0  0  0  0
 10 11  1  0  0  0  0
 10 23  1  0  0  0  0
 11 12  1  0  0  0  0
 11 24  1  0  0  0  0
 11 25  1  0  0  0  0
 12 13  1  0  0  0  0
 12 26  1  0  0  0  0
 12 27  1  0  0  0  0
 13 18  1  0  0  0  0
 13 14  1  0  0  0  0
 13 37  1  0  0  0  0
 14 15  1  0  0  0  0
 14 28  1  0  0  0  0
 14 29  1  0  0  0  0
 15 16  1  0  0  0  0
 15 30  1  0  0  0  0
 15 31  1  0  0  0  0
 16 17  1  0  0  0  0
 16 32  1  0  0  0  0
 16 33  1  0  0  0  0
 17 18  1  0  0  0  0
 17 34  1  0  0  0  0
 17 35  1  0  0  0  0
 18 36  1  0  0  0  0
M  CHG  1  13   1
M  END
> <s_m_source_file>
AV-unprocessed.smi

> <i_m_source_file_index>
1965

> <i_lp_mmshare_version>
43012

> <i_f3d_flags>
0

> <s_epik_input>
czFbY0hdW2NIXW5jMVtOSF1DKD1PKVtOSF1bQ0BIXShbQ0gyXVtDSDJdMilbQ0BASF0oTjIzKVtDSDJdW0NIMl1bQ0gyXVtDSDJdMw==

> <s_epik_cmdline>
J2VwaWtfcHl0aG9uJywgJy1waCcsICc3LjAnLCAnLXRuJywgJzgnLCAnLW1hJywgJzIwMCcsICctbWV0YWxfYmluZGluZycsICctaW1hZScsICc8aW5maWxlLm1hZT4nLCAnLW9tYWUnLCAnPG91dGZpbGUubWFlPic=

> <r_lp_tautomer_probability>
1

> <r_epik_Ionization_Penalty>
0.00125962

> <r_epik_Ionization_Penalty_Charging>
0.00107044

> <r_epik_Ionization_Penalty_Neutral>
0.000189176

> <r_epik_State_Penalty>
-0

> <r_epik_Charging_Adjusted_Penalty>
0.00107044

> <i_epik_Tot_Q>
1

> <i_epik_Tot_abs_Q>
1

> <r_epik_Metal_State_Penalty>
0.0179285

> <b_epik_Metal_Only>
0

> <s_lp_Force_Field>
OPLS_2005

> <r_lp_Energy>
41.2924

> <b_lp_Chiralities_Consistent>
1

> <s_lp_Variant>
AV-unprocessed.smi:1965-2

> <Gold.Version>
5.8.1

> <Gold.Id.Protein>
6NUR|6NUR_protein|mol2

> <Gold.PLP.Fitness>
42.0937

> <Gold.PLP.PLP>
-28.9648

> <Gold.PLP.part.hbond>
-3.0000

> <Gold.PLP.part.metal>
0.0000

> <Gold.PLP.part.buried>
-3.5389

> <Gold.PLP.part.nonpolar>
-23.3053

> <Gold.PLP.part.repulsive>
0.2665

> <Gold.PLP.ligand.clash>
0.0000

> <Gold.PLP.ligand.torsion>
0.3875

> <Gold.PLP.Chemscore.Hbond>
3.6335

> <Gold.PLP.Chemscore.CHOScore>
1.0000

> <Gold.PLP.Chemscore.Metal>
0.0000

> <Gold.Chemscore.Hbonds>
donor molecule, donor type, donor heavy atom, donor atom, acceptor molecule, acceptor atom, score
      L1  H     3    19       P1  7948  1.00
      L1  H     9    22       P1  7948  0.68
      L1  H    13    37       P1 10957  1.95
      L1  C     7    21       P1  8028  1.00

> <Gold.PLP.Chemscore.Internal.Correction>
0.0034

> <Gold.Rescore>
     Score         DG    S(hbond)    S(metal)    S(lipo)     H(rot)  DE(clash)    DE(int)     intcor
     18.19     -18.44       2.44        0.00      62.91       1.00       0.01       0.24       ----

> <Gold.Chemscore.Fitness>
18.1883

> <Gold.Chemscore.DG>
-18.4352

> <Gold.Chemscore.ZeroCoef>
-5.4800

> <Gold.Chemscore.Hbond>
2.4415

> <Gold.Chemscore.Metal>
0.0000

> <Gold.Chemscore.Lipo>
62.9118

> <Gold.Chemscore.Internal_Hbond>
0.0000

> <Gold.Chemscore.DEClash>
0.0060

> <Gold.Chemscore.DEInternal>
0.2409

> <Gold.Chemscore.Rot>
1.0000

> <Gold.Chemscore.Internal.Correction>
   9.000000E+99

> <Gold.Chemscore.Hbonds>
donor molecule, donor type, donor heavy atom, donor atom, acceptor molecule, acceptor atom, score
      L1  H     3    19       P1  7948  0.99
      L1  H     9    22       P1  7948  0.67
      L1  H    13    37       P1 10957  0.45

> <Gold.Chemscore.Hbond.Weighted>
-8.1545

> <Gold.Chemscore.Metal.Weighted>
-0.0000

> <Gold.Chemscore.Lipo.Weighted>
-7.3607

> <Gold.Chemscore.Internal_Hbond.Weighted>
0.0000

> <Gold.Chemscore.DEClash.Weighted>
0.0060

> <Gold.Chemscore.DEInternal.Weighted>
0.2409

> <Gold.Chemscore.Rot.Weighted>
2.5600

> <Gold.Chemscore.Internal.Correction.Weighted>
   9.000000E+99

> <Gold.Protein.RotatedTorsions>
[ 6907 6896 6895 6894 ] final  -19.04 input  -60.11 | X-H torsion
[ 7974 7965 7964 7962 ] final  -42.02 input  175.53 | X-H torsion
[ 8008 7997 7996 7995 ] final  -99.11 input   59.86 | X-H torsion
[ 10167 10162 10161 10158 ] final  130.54 input  -65.29 | X-H torsion
[ 10718 10713 10712 10709 ] final -147.99 input   66.30 | X-H torsion
[ 10763 10752 10751 10750 ] final  -54.20 input  -60.55 | X-H torsion
[ 11005 11000 10999 10996 ] final   -4.69 input  -57.11 | X-H torsion

> <Gold.Protein.ActiveResidues>
 VAL166  LYS551  ARG553  GLY616  TRP617  ASP618  TYR619  PRO620  LYS621  CYS622 
 ASP623  PHE694  ASN695  SER759  ASP760  ASP761  ALA762  ILE779  LEU786  VAL792 
 PHE793  MET794  SER795  GLU796  ALA797  LYS798  CYS799  TRP800  GLU811  SER814 

> <Gold.Protein.RotatedAtoms>
  151.2690  135.0678  159.9126 H   0  0  0  0  0  0  0  0  0  0  0  0  # atno 6907 bound_to 6896
  152.5353  134.0150  159.7966 H   0  0  0  0  0  0  0  0  0  0  0  0  # atno 6908 bound_to 6896
  151.0385  133.5677  159.2684 H   0  0  0  0  0  0  0  0  0  0  0  0  # atno 6909 bound_to 6896
  146.0155  140.6913  142.9203 H   0  0  0  0  0  0  0  0  0  0  0  0  # atno 7974 bound_to 7965
  154.8104  140.0450  157.1338 H   0  0  0  0  0  0  0  0  0  0  0  0  # atno 8008 bound_to 7997
  154.9375  140.3048  155.5117 H   0  0  0  0  0  0  0  0  0  0  0  0  # atno 8009 bound_to 7997
  156.2971  140.2311  156.4441 H   0  0  0  0  0  0  0  0  0  0  0  0  # atno 8010 bound_to 7997
  139.5425  144.6744  151.4578 H   0  0  0  0  0  0  0  0  0  0  0  0  # atno 10167 bound_to 10162
  156.4145  130.7998  151.2217 H   0  0  0  0  0  0  0  0  0  0  0  0  # atno 10718 bound_to 10713
  154.1710  135.6459  153.5009 H   0  0  0  0  0  0  0  0  0  0  0  0  # atno 10763 bound_to 10752
  153.0084  135.5383  154.6613 H   0  0  0  0  0  0  0  0  0  0  0  0  # atno 10764 bound_to 10752
  154.5952  135.2938  155.0566 H   0  0  0  0  0  0  0  0  0  0  0  0  # atno 10765 bound_to 10752
  140.6830  133.9137  155.8567 H   0  0  0  0  0  0  0  0  0  0  0  0  # atno 11005 bound_to 11000
  144.6969  140.3474  143.7188 LP  0  0  0  0  0  0  0  0  0  0  0  0  # atno 17320 bound_to 7965
  145.7275  139.1727  143.2449 LP  0  0  0  0  0  0  0  0  0  0  0  0  # atno 17321 bound_to 7965
  140.6661  143.8395  150.6943 LP  0  0  0  0  0  0  0  0  0  0  0  0  # atno 17342 bound_to 10162
  140.1805  143.4119  152.1936 LP  0  0  0  0  0  0  0  0  0  0  0  0  # atno 17343 bound_to 10162
  157.7507  131.0247  150.3888 LP  0  0  0  0  0  0  0  0  0  0  0  0  # atno 17370 bound_to 10713
  156.4193  130.3950  149.6836 LP  0  0  0  0  0  0  0  0  0  0  0  0  # atno 17371 bound_to 10713
  141.0302  134.0766  157.4022 LP  0  0  0  0  0  0  0  0  0  0  0  0  # atno 17394 bound_to 11000
  139.8946  135.0137  156.6959 LP  0  0  0  0  0  0  0  0  0  0  0  0  # atno 17395 bound_to 11000

$$$$
