AV-unprocessed.smi:1079|AV-procd|sdf|4705|dock7
  -GOLD-   22720 3233D 1   1.00000     0.00000
 Structure written by MMmdl.
 43 44  0  0  0  0  0  0  0  0  2 V2000
  145.9729  136.9283  160.9869 C   0  0  0  0  0  0  0  0  0  0  0  0
  146.3424  138.1303  160.3358 O   0  0  0  0  0  0  0  0  0  0  0  0
  146.1200  138.0808  158.9359 C   0  0  0  0  0  0  0  0  0  0  0  0
  147.0204  137.0066  158.3024 C   0  0  0  0  0  0  0  0  0  0  0  0
  148.4564  137.3136  158.4855 N   0  0  0  0  0  0  0  0  0  0  0  0
  149.0795  138.2723  157.6412 C   0  0  0  0  0  0  0  0  0  0  0  0
  148.3314  138.8822  156.6442 N   0  0  0  0  0  0  0  0  0  0  0  0
  150.4012  138.5569  157.7930 C   0  0  0  0  0  0  0  0  0  0  0  0
  151.0510  139.5304  157.0070 N   0  0  0  0  0  0  0  0  0  0  0  0
  150.7171  140.9406  157.2685 C   0  0  0  0  0  0  0  0  0  0  0  0
  151.7419  141.6594  158.1324 C   0  0  0  0  0  0  0  0  0  0  0  0
  152.7307  140.9251  158.8209 C   0  0  0  0  0  0  0  0  0  0  0  0
  153.6831  141.5904  159.6165 C   0  0  0  0  0  0  0  0  0  0  0  0
  153.6489  142.9936  159.7305 C   0  0  0  0  0  0  0  0  0  0  0  0
  152.6618  143.7306  159.0483 C   0  0  0  0  0  0  0  0  0  0  0  0
  151.7098  143.0651  158.2517 C   0  0  0  0  0  0  0  0  0  0  0  0
  151.8614  139.1971  155.9675 C   0  0  0  0  0  0  0  0  0  0  0  0
  152.0670  137.7201  155.6082 C   0  0  0  0  0  0  0  0  0  0  0  0
  152.4228  140.0415  155.2679 O   0  0  0  0  0  0  0  0  0  0  0  0
  151.1522  137.8821  158.8601 C   0  0  0  0  0  0  0  0  0  0  0  0
  152.3375  138.1534  159.0520 O   0  0  0  0  0  0  0  0  0  0  0  0
  150.4933  136.9636  159.6141 N   0  5  0  0  0  0  0  0  0  0  0  0
  149.1748  136.6597  159.4495 C   0  0  0  0  0  0  0  0  0  0  0  0
  148.6158  135.8112  160.1463 O   0  0  0  0  0  0  0  0  0  0  0  0
  146.1620  137.0186  162.0564 H   0  0  0  0  0  0  0  0  0  0  0  0
  146.5516  136.0832  160.6121 H   0  0  0  0  0  0  0  0  0  0  0  0
  144.9117  136.7157  160.8499 H   0  0  0  0  0  0  0  0  0  0  0  0
  145.0744  137.8353  158.7458 H   0  0  0  0  0  0  0  0  0  0  0  0
  146.3086  139.0557  158.4836 H   0  0  0  0  0  0  0  0  0  0  0  0
  146.7538  136.0223  158.6860 H   0  0  0  0  0  0  0  0  0  0  0  0
  146.7873  136.9316  157.2390 H   0  0  0  0  0  0  0  0  0  0  0  0
  147.3565  138.6573  156.5093 H   0  0  0  0  0  0  0  0  0  0  0  0
  148.6562  139.7273  156.1965 H   0  0  0  0  0  0  0  0  0  0  0  0
  150.5844  141.4711  156.3238 H   0  0  0  0  0  0  0  0  0  0  0  0
  149.7553  141.0159  157.7785 H   0  0  0  0  0  0  0  0  0  0  0  0
  152.7613  139.8485  158.7404 H   0  0  0  0  0  0  0  0  0  0  0  0
  154.4400  141.0237  160.1385 H   0  0  0  0  0  0  0  0  0  0  0  0
  154.3793  143.5039  160.3406 H   0  0  0  0  0  0  0  0  0  0  0  0
  152.6353  144.8069  159.1340 H   0  0  0  0  0  0  0  0  0  0  0  0
  150.9587  143.6377  157.7276 H   0  0  0  0  0  0  0  0  0  0  0  0
  151.1141  137.1960  155.5286 H   0  0  0  0  0  0  0  0  0  0  0  0
  152.6825  137.2209  156.3565 H   0  0  0  0  0  0  0  0  0  0  0  0
  152.5746  137.6288  154.6474 H   0  0  0  0  0  0  0  0  0  0  0  0
  1  2  1  0  0  0  0
  1 25  1  0  0  0  0
  1 26  1  0  0  0  0
  1 27  1  0  0  0  0
  2  3  1  0  0  0  0
  3  4  1  0  0  0  0
  3 28  1  0  0  0  0
  3 29  1  0  0  0  0
  4  5  1  0  0  0  0
  4 30  1  0  0  0  0
  4 31  1  0  0  0  0
  5 23  1  0  0  0  0
  5  6  1  0  0  0  0
  6  7  1  0  0  0  0
  6  8  2  0  0  0  0
  7 32  1  0  0  0  0
  7 33  1  0  0  0  0
  8  9  1  0  0  0  0
  8 20  1  0  0  0  0
  9 10  1  0  0  0  0
  9 17  1  0  0  0  0
 10 11  1  0  0  0  0
 10 34  1  0  0  0  0
 10 35  1  0  0  0  0
 11 16  1  0  0  0  0
 11 12  2  0  0  0  0
 12 13  1  0  0  0  0
 12 36  1  0  0  0  0
 13 14  2  0  0  0  0
 13 37  1  0  0  0  0
 14 15  1  0  0  0  0
 14 38  1  0  0  0  0
 15 16  2  0  0  0  0
 15 39  1  0  0  0  0
 16 40  1  0  0  0  0
 17 18  1  0  0  0  0
 17 19  2  0  0  0  0
 18 41  1  0  0  0  0
 18 42  1  0  0  0  0
 18 43  1  0  0  0  0
 20 21  2  0  0  0  0
 20 22  1  0  0  0  0
 22 23  1  0  0  0  0
 23 24  2  0  0  0  0
M  CHG  1  22  -1
M  END
> <s_m_source_file>
AV-unprocessed.smi

> <i_m_source_file_index>
1079

> <i_lp_mmshare_version>
43012

> <i_f3d_flags>
0

> <s_epik_input>
W0NIM11PW0NIMl1bQ0gyXW4xYyhbTkgyXSljKGMoPU8pW25IXWMxPU8pTihDKD1PKVtDSDNdKVtDSDJdYzJbY0hdW2NIXVtjSF1bY0hdW2NIXTI=

> <s_epik_cmdline>
J2VwaWtfcHl0aG9uJywgJy1waCcsICc3LjAnLCAnLXRuJywgJzgnLCAnLW1hJywgJzIwMCcsICctbWV0YWxfYmluZGluZycsICctaW1hZScsICc8aW5maWxlLm1hZT4nLCAnLW9tYWUnLCAnPG91dGZpbGUubWFlPic=

> <r_lp_tautomer_probability>
1

> <r_epik_Ionization_Penalty>
7.02899

> <r_epik_Ionization_Penalty_Charging>
0.353543

> <r_epik_Ionization_Penalty_Neutral>
6.67545

> <r_epik_State_Penalty>
6.67544

> <r_epik_Charging_Adjusted_Penalty>
7.02899

> <i_epik_Tot_Q>
-1

> <i_epik_Tot_abs_Q>
1

> <r_epik_Metal_State_Penalty>
2.59023

> <b_epik_Metal_Only>
1

> <s_epik_Chemistry_Notes>
This compound has an imine and may undergo hydrolysis.

> <s_lp_Force_Field>
OPLS_2005

> <r_lp_Energy>
37.6248

> <b_lp_Chiralities_Consistent>
1

> <s_lp_Variant>
AV-unprocessed.smi:1079-2

> <Gold.Version>
5.8.1

> <Gold.Id.Protein>
6NUR|6NUR_protein|mol2

> <Gold.PLP.Fitness>
46.7327

> <Gold.PLP.PLP>
-35.7231

> <Gold.PLP.part.hbond>
-3.9603

> <Gold.PLP.part.metal>
0.0000

> <Gold.PLP.part.buried>
-4.7517

> <Gold.PLP.part.nonpolar>
-27.4802

> <Gold.PLP.part.repulsive>
0.0148

> <Gold.PLP.ligand.clash>
0.0000

> <Gold.PLP.ligand.torsion>
2.1445

> <Gold.PLP.Chemscore.Hbond>
4.3827

> <Gold.PLP.Chemscore.CHOScore>
0.0000

> <Gold.PLP.Chemscore.Metal>
0.0000

> <Gold.Chemscore.Hbonds>
donor molecule, donor type, donor heavy atom, donor atom, acceptor molecule, acceptor atom, score
      P1  H  6896  6909       L1    22  1.90
      P1  H  6934  6947       L1     2  0.52
      P1  H  7989  7998       L1    19  0.54
      P1  H  7997  8008       L1    19  0.80

> <Gold.PLP.Chemscore.Internal.Correction>
2.1505

> <Gold.Rescore>
     Score         DG    S(hbond)    S(metal)    S(lipo)     H(rot)  DE(clash)    DE(int)     intcor
     15.54     -18.65       2.72        0.00      78.25       1.98       0.05       3.06       ----

> <Gold.Chemscore.Fitness>
15.5421

> <Gold.Chemscore.DG>
-18.6518

> <Gold.Chemscore.ZeroCoef>
-5.4800

> <Gold.Chemscore.Hbond>
2.7221

> <Gold.Chemscore.Metal>
0.0000

> <Gold.Chemscore.Lipo>
78.2457

> <Gold.Chemscore.Internal_Hbond>
0.0000

> <Gold.Chemscore.DEClash>
0.0515

> <Gold.Chemscore.DEInternal>
3.0582

> <Gold.Chemscore.Rot>
1.9824

> <Gold.Chemscore.Internal.Correction>
   9.000000E+99

> <Gold.Chemscore.Hbonds>
donor molecule, donor type, donor heavy atom, donor atom, acceptor molecule, acceptor atom, score
      P1  H  6896  6909       L1    22  0.20
      P1  H  6934  6947       L1     2  0.49
      P1  H  7989  7998       L1    19  0.52
      P1  H  7997  8008       L1    19  0.47

> <Gold.Chemscore.Hbond.Weighted>
-9.0919

> <Gold.Chemscore.Metal.Weighted>
-0.0000

> <Gold.Chemscore.Lipo.Weighted>
-9.1547

> <Gold.Chemscore.Internal_Hbond.Weighted>
0.0000

> <Gold.Chemscore.DEClash.Weighted>
0.0515

> <Gold.Chemscore.DEInternal.Weighted>
3.0582

> <Gold.Chemscore.Rot.Weighted>
5.0749

> <Gold.Chemscore.Internal.Correction.Weighted>
   9.000000E+99

> <Gold.Protein.RotatedTorsions>
[ 6907 6896 6895 6894 ] final   99.24 input  -60.11 | X-H torsion
[ 7974 7965 7964 7962 ] final   93.80 input  175.53 | X-H torsion
[ 8008 7997 7996 7995 ] final  -20.20 input   59.86 | X-H torsion
[ 10167 10162 10161 10158 ] final -147.23 input  -65.29 | X-H torsion
[ 10718 10713 10712 10709 ] final  -84.51 input   66.30 | X-H torsion
[ 10763 10752 10751 10750 ] final   44.96 input  -60.55 | X-H torsion
[ 11005 11000 10999 10996 ] final -167.31 input  -57.11 | X-H torsion

> <Gold.Protein.ActiveResidues>
 VAL166  LYS551  ARG553  GLY616  TRP617  ASP618  TYR619  PRO620  LYS621  CYS622 
 ASP623  PHE694  ASN695  SER759  ASP760  ASP761  ALA762  ILE779  LEU786  VAL792 
 PHE793  MET794  SER795  GLU796  ALA797  LYS798  CYS799  TRP800  GLU811  SER814 

> <Gold.Protein.RotatedAtoms>
  152.5395  134.0459  159.8087 H   0  0  0  0  0  0  0  0  0  0  0  0  # atno 6907 bound_to 6896
  151.0608  133.5538  159.2642 H   0  0  0  0  0  0  0  0  0  0  0  0  # atno 6908 bound_to 6896
  151.2438  135.0606  159.9089 H   0  0  0  0  0  0  0  0  0  0  0  0  # atno 6909 bound_to 6896
  145.4741  139.2281  143.2919 H   0  0  0  0  0  0  0  0  0  0  0  0  # atno 7974 bound_to 7965
  154.4786  140.2068  155.9819 H   0  0  0  0  0  0  0  0  0  0  0  0  # atno 8008 bound_to 7997
  156.1128  140.3226  155.8067 H   0  0  0  0  0  0  0  0  0  0  0  0  # atno 8009 bound_to 7997
  155.4604  140.0523  157.2982 H   0  0  0  0  0  0  0  0  0  0  0  0  # atno 8010 bound_to 7997
  139.7641  143.8334  152.2612 H   0  0  0  0  0  0  0  0  0  0  0  0  # atno 10167 bound_to 10162
  156.0005  130.4700  150.4421 H   0  0  0  0  0  0  0  0  0  0  0  0  # atno 10718 bound_to 10713
  152.9832  135.6054  154.3358 H   0  0  0  0  0  0  0  0  0  0  0  0  # atno 10763 bound_to 10752
  154.3059  135.2772  155.2591 H   0  0  0  0  0  0  0  0  0  0  0  0  # atno 10764 bound_to 10752
  154.4822  135.5914  153.6454 H   0  0  0  0  0  0  0  0  0  0  0  0  # atno 10765 bound_to 10752
  140.5546  134.5394  157.5130 H   0  0  0  0  0  0  0  0  0  0  0  0  # atno 11005 bound_to 11000
  146.2380  140.5521  142.8946 LP  0  0  0  0  0  0  0  0  0  0  0  0  # atno 17320 bound_to 7965
  144.7928  140.6064  143.6530 LP  0  0  0  0  0  0  0  0  0  0  0  0  # atno 17321 bound_to 7965
  139.8349  144.7237  150.9404 LP  0  0  0  0  0  0  0  0  0  0  0  0  # atno 17342 bound_to 10162
  140.7809  143.4036  151.1108 LP  0  0  0  0  0  0  0  0  0  0  0  0  # atno 17343 bound_to 10162
  157.2461  131.0536  151.2407 LP  0  0  0  0  0  0  0  0  0  0  0  0  # atno 17370 bound_to 10713
  157.3573  130.7113  149.6479 LP  0  0  0  0  0  0  0  0  0  0  0  0  # atno 17371 bound_to 10713
  139.9438  134.7739  156.0613 LP  0  0  0  0  0  0  0  0  0  0  0  0  # atno 17394 bound_to 11000
  141.1151  133.6630  156.3074 LP  0  0  0  0  0  0  0  0  0  0  0  0  # atno 17395 bound_to 11000

$$$$
