AV-unprocessed.smi:845|AV-procd|sdf|3930|dock4
  -GOLD-   22720 1393D 1   1.00000     0.00000
 Structure written by MMmdl.
 42 43  0  0  0  0  0  0  0  0  1 V2000
  144.2537  138.8482  155.1037 C   0  0  0  0  0  0  0  0  0  0  0  0
  145.6257  139.5026  155.3576 C   0  0  0  0  0  0  0  0  0  0  0  0
  145.5406  141.0326  155.2249 C   0  0  0  0  0  0  0  0  0  0  0  0
  146.8434  138.9086  154.5808 C   0  0  1  0  0  0  0  0  0  0  0  0
  146.6590  138.9046  153.0363 C   0  0  0  0  0  0  0  0  0  0  0  0
  146.7991  137.5743  152.4520 N   0  0  0  0  0  0  0  0  0  0  0  0
  145.7778  136.7697  152.1258 C   0  0  0  0  0  0  0  0  0  0  0  0
  144.5964  137.0721  152.2941 O   0  0  0  0  0  0  0  0  0  0  0  0
  146.2167  135.6159  151.5977 N   0  0  0  0  0  0  0  0  0  0  0  0
  145.4420  134.5214  151.1397 C   0  0  0  0  0  0  0  0  0  0  0  0
  144.1132  134.5830  151.2440 N   0  0  0  0  0  0  0  0  0  0  0  0
  143.4942  133.4312  150.7499 C   0  0  0  0  0  0  0  0  0  0  0  0
  144.3747  132.4951  150.2667 C   0  0  0  0  0  0  0  0  0  0  0  0
  146.0295  133.0227  150.4143 S   0  0  0  0  0  0  0  0  0  0  0  0
  148.1655  139.3760  155.0420 N   0  0  0  0  0  0  0  0  0  0  0  0
  149.2583  138.5082  154.6062 C   0  0  0  0  0  0  0  0  0  0  0  0
  150.6065  138.9427  155.2057 C   0  0  0  0  0  0  0  0  0  0  0  0
  150.8665  140.2993  154.8608 O   0  0  0  0  0  0  0  0  0  0  0  0
  149.8461  141.1850  155.3096 C   0  0  0  0  0  0  0  0  0  0  0  0
  148.4927  140.7629  154.7120 C   0  0  0  0  0  0  0  0  0  0  0  0
  143.8222  139.1421  154.1491 H   0  0  0  0  0  0  0  0  0  0  0  0
  143.5425  139.1609  155.8685 H   0  0  0  0  0  0  0  0  0  0  0  0
  144.2977  137.7607  155.1417 H   0  0  0  0  0  0  0  0  0  0  0  0
  145.8329  139.3226  156.4131 H   0  0  0  0  0  0  0  0  0  0  0  0
  145.2822  141.3327  154.2091 H   0  0  0  0  0  0  0  0  0  0  0  0
  146.4903  141.5033  155.4805 H   0  0  0  0  0  0  0  0  0  0  0  0
  144.7818  141.4422  155.8921 H   0  0  0  0  0  0  0  0  0  0  0  0
  146.8069  137.8549  154.8617 H   0  0  0  0  0  0  0  0  0  0  0  0
  145.6744  139.2827  152.7632 H   0  0  0  0  0  0  0  0  0  0  0  0
  147.3738  139.5708  152.5529 H   0  0  0  0  0  0  0  0  0  0  0  0
  147.7391  137.2492  152.2783 H   0  0  0  0  0  0  0  0  0  0  0  0
  147.2164  135.5061  151.5142 H   0  0  0  0  0  0  0  0  0  0  0  0
  142.4167  133.3609  150.7800 H   0  0  0  0  0  0  0  0  0  0  0  0
  144.1511  131.5310  149.8345 H   0  0  0  0  0  0  0  0  0  0  0  0
  149.0548  137.4769  154.8966 H   0  0  0  0  0  0  0  0  0  0  0  0
  149.3397  138.5173  153.5194 H   0  0  0  0  0  0  0  0  0  0  0  0
  150.6016  138.8301  156.2910 H   0  0  0  0  0  0  0  0  0  0  0  0
  151.4117  138.3165  154.8212 H   0  0  0  0  0  0  0  0  0  0  0  0
  149.8047  141.1807  156.4000 H   0  0  0  0  0  0  0  0  0  0  0  0
  150.0959  142.2004  155.0021 H   0  0  0  0  0  0  0  0  0  0  0  0
  148.5318  140.8924  153.6301 H   0  0  0  0  0  0  0  0  0  0  0  0
  147.7308  141.4410  155.0814 H   0  0  0  0  0  0  0  0  0  0  0  0
  1  2  1  0  0  0  0
  1 21  1  0  0  0  0
  1 22  1  0  0  0  0
  1 23  1  0  0  0  0
  2  3  1  0  0  0  0
  2  4  1  0  0  0  0
  2 24  1  0  0  0  0
  3 25  1  0  0  0  0
  3 26  1  0  0  0  0
  3 27  1  0  0  0  0
  4  5  1  0  0  0  0
  4 15  1  0  0  0  0
  4 28  1  0  0  0  0
  5  6  1  0  0  0  0
  5 29  1  0  0  0  0
  5 30  1  0  0  0  0
  6  7  1  0  0  0  0
  6 31  1  0  0  0  0
  7  8  2  0  0  0  0
  7  9  1  0  0  0  0
  9 10  1  0  0  0  0
  9 32  1  0  0  0  0
 10 14  1  0  0  0  0
 10 11  2  0  0  0  0
 11 12  1  0  0  0  0
 12 13  2  0  0  0  0
 12 33  1  0  0  0  0
 13 14  1  0  0  0  0
 13 34  1  0  0  0  0
 15 20  1  0  0  0  0
 15 16  1  0  0  0  0
 16 17  1  0  0  0  0
 16 35  1  0  0  0  0
 16 36  1  0  0  0  0
 17 18  1  0  0  0  0
 17 37  1  0  0  0  0
 17 38  1  0  0  0  0
 18 19  1  0  0  0  0
 19 20  1  0  0  0  0
 19 39  1  0  0  0  0
 19 40  1  0  0  0  0
 20 41  1  0  0  0  0
 20 42  1  0  0  0  0
M  END
> <s_m_source_file>
AV-unprocessed.smi

> <i_m_source_file_index>
845

> <i_lp_mmshare_version>
43012

> <i_f3d_flags>
0

> <s_epik_input>
W0NIMl0xW0NIMl1PW0NIMl1bQ0gyXU4xW0NASF0oW0NIXShbQ0gzXSlbQ0gzXSlbQ0gyXVtOSF1DKD1PKVtOSF1jMm5bY0hdW2NIXXMy

> <s_epik_cmdline>
J2VwaWtfcHl0aG9uJywgJy1waCcsICc3LjAnLCAnLXRuJywgJzgnLCAnLW1hJywgJzIwMCcsICctbWV0YWxfYmluZGluZycsICctaW1hZScsICc8aW5maWxlLm1hZT4nLCAnLW9tYWUnLCAnPG91dGZpbGUubWFlPic=

> <r_lp_tautomer_probability>
0.999

> <r_epik_Ionization_Penalty>
0.423897

> <r_epik_Ionization_Penalty_Charging>
0

> <r_epik_Ionization_Penalty_Neutral>
0.423897

> <r_epik_State_Penalty>
0.424384

> <r_epik_Charging_Adjusted_Penalty>
0.424384

> <i_epik_Tot_Q>
0

> <i_epik_Tot_abs_Q>
0

> <r_epik_Metal_State_Penalty>
0.434476

> <b_epik_Metal_Only>
0

> <s_lp_Force_Field>
OPLS_2005

> <r_lp_Energy>
35.7747

> <b_lp_Chiralities_Consistent>
1

> <s_lp_Variant>
AV-unprocessed.smi:845-4

> <Gold.Version>
5.8.1

> <Gold.Id.Protein>
6NUR|6NUR_protein|mol2

> <Gold.PLP.Fitness>
38.4006

> <Gold.PLP.PLP>
-28.3172

> <Gold.PLP.part.hbond>
-2.7823

> <Gold.PLP.part.metal>
0.0000

> <Gold.PLP.part.buried>
-4.1106

> <Gold.PLP.part.nonpolar>
-22.5534

> <Gold.PLP.part.repulsive>
0.6433

> <Gold.PLP.ligand.clash>
0.0000

> <Gold.PLP.ligand.torsion>
1.0203

> <Gold.PLP.Chemscore.Hbond>
2.9920

> <Gold.PLP.Chemscore.CHOScore>
0.9087

> <Gold.PLP.Chemscore.Metal>
0.0000

> <Gold.Chemscore.Hbonds>
donor molecule, donor type, donor heavy atom, donor atom, acceptor molecule, acceptor atom, score
      L1  H     6    31       P1  7948  1.00
      L1  H     9    32       P1  7948  0.98
      P1  H  7989  7998       L1    18  1.00
      L1  C    12    33       P1 10186  0.96

> <Gold.PLP.Chemscore.Internal.Correction>
0.4218

> <Gold.Rescore>
     Score         DG    S(hbond)    S(metal)    S(lipo)     H(rot)  DE(clash)    DE(int)     intcor
     14.74     -17.37       2.71        0.00      62.57       1.75       0.07       2.56       ----

> <Gold.Chemscore.Fitness>
14.7420

> <Gold.Chemscore.DG>
-17.3718

> <Gold.Chemscore.ZeroCoef>
-5.4800

> <Gold.Chemscore.Hbond>
2.7104

> <Gold.Chemscore.Metal>
0.0000

> <Gold.Chemscore.Lipo>
62.5743

> <Gold.Chemscore.Internal_Hbond>
0.0000

> <Gold.Chemscore.DEClash>
0.0687

> <Gold.Chemscore.DEInternal>
2.5610

> <Gold.Chemscore.Rot>
1.7509

> <Gold.Chemscore.Internal.Correction>
   9.000000E+99

> <Gold.Chemscore.Hbonds>
donor molecule, donor type, donor heavy atom, donor atom, acceptor molecule, acceptor atom, score
      L1  H     6    31       P1  7948  0.99
      L1  H     9    32       P1  7948  0.91
      P1  H  7989  7998       L1    18  0.81

> <Gold.Chemscore.Hbond.Weighted>
-9.0528

> <Gold.Chemscore.Metal.Weighted>
-0.0000

> <Gold.Chemscore.Lipo.Weighted>
-7.3212

> <Gold.Chemscore.Internal_Hbond.Weighted>
0.0000

> <Gold.Chemscore.DEClash.Weighted>
0.0687

> <Gold.Chemscore.DEInternal.Weighted>
2.5610

> <Gold.Chemscore.Rot.Weighted>
4.4823

> <Gold.Chemscore.Internal.Correction.Weighted>
   9.000000E+99

> <Gold.Protein.RotatedTorsions>
[ 6907 6896 6895 6894 ] final -147.13 input  -60.11 | X-H torsion
[ 7974 7965 7964 7962 ] final  152.24 input  175.53 | X-H torsion
[ 8008 7997 7996 7995 ] final   84.66 input   59.86 | X-H torsion
[ 10167 10162 10161 10158 ] final   -3.30 input  -65.29 | X-H torsion
[ 10718 10713 10712 10709 ] final -167.41 input   66.30 | X-H torsion
[ 10763 10752 10751 10750 ] final -124.32 input  -60.55 | X-H torsion
[ 11005 11000 10999 10996 ] final  -73.64 input  -57.11 | X-H torsion

> <Gold.Protein.ActiveResidues>
 VAL166  LYS551  ARG553  GLY616  TRP617  ASP618  TYR619  PRO620  LYS621  CYS622 
 ASP623  PHE694  ASN695  SER759  ASP760  ASP761  ALA762  ILE779  LEU786  VAL792 
 PHE793  MET794  SER795  GLU796  ALA797  LYS798  CYS799  TRP800  GLU811  SER814 

> <Gold.Protein.RotatedAtoms>
  151.1513  133.4905  159.2595 H   0  0  0  0  0  0  0  0  0  0  0  0  # atno 6907 bound_to 6896
  151.1550  135.0246  159.8695 H   0  0  0  0  0  0  0  0  0  0  0  0  # atno 6908 bound_to 6896
  152.5463  134.1393  159.8525 H   0  0  0  0  0  0  0  0  0  0  0  0  # atno 6909 bound_to 6896
  144.8236  139.6642  143.6089 H   0  0  0  0  0  0  0  0  0  0  0  0  # atno 7974 bound_to 7965
  155.9399  140.3409  155.6319 H   0  0  0  0  0  0  0  0  0  0  0  0  # atno 8008 bound_to 7997
  155.7052  140.0765  157.2412 H   0  0  0  0  0  0  0  0  0  0  0  0  # atno 8009 bound_to 7997
  154.4100  140.1632  156.2223 H   0  0  0  0  0  0  0  0  0  0  0  0  # atno 8010 bound_to 7997
  140.6885  143.6556  150.8312 H   0  0  0  0  0  0  0  0  0  0  0  0  # atno 10167 bound_to 10162
  156.6820  130.9125  151.3058 H   0  0  0  0  0  0  0  0  0  0  0  0  # atno 10718 bound_to 10713
  154.8721  135.4068  154.3086 H   0  0  0  0  0  0  0  0  0  0  0  0  # atno 10763 bound_to 10752
  153.3934  135.7015  153.6484 H   0  0  0  0  0  0  0  0  0  0  0  0  # atno 10764 bound_to 10752
  153.5257  135.3678  155.2624 H   0  0  0  0  0  0  0  0  0  0  0  0  # atno 10765 bound_to 10752
  141.1625  133.6885  156.7242 H   0  0  0  0  0  0  0  0  0  0  0  0  # atno 11005 bound_to 11000
  146.2542  139.6265  142.9406 LP  0  0  0  0  0  0  0  0  0  0  0  0  # atno 17320 bound_to 7965
  145.5049  141.0437  143.2520 LP  0  0  0  0  0  0  0  0  0  0  0  0  # atno 17321 bound_to 7965
  140.0265  143.5487  152.2778 LP  0  0  0  0  0  0  0  0  0  0  0  0  # atno 17342 bound_to 10162
  139.6265  144.7638  151.2628 LP  0  0  0  0  0  0  0  0  0  0  0  0  # atno 17343 bound_to 10162
  157.7040  130.9364  150.0873 LP  0  0  0  0  0  0  0  0  0  0  0  0  # atno 17370 bound_to 10713
  156.1861  130.3652  149.8971 LP  0  0  0  0  0  0  0  0  0  0  0  0  # atno 17371 bound_to 10713
  140.2793  134.8329  157.3919 LP  0  0  0  0  0  0  0  0  0  0  0  0  # atno 17394 bound_to 11000
  140.1448  134.4925  155.8004 LP  0  0  0  0  0  0  0  0  0  0  0  0  # atno 17395 bound_to 11000

$$$$
