AV-unprocessed.smi:3010|AV-procd|sdf|11456|dock4
  -GOLD-   2272016393D 1   1.00000     0.00000
 Structure written by MMmdl.
 38 40  0  0  0  0  0  0  0  0  1 V2000
  151.6673  141.4475  159.2862 C   0  0  0  0  0  0  0  0  0  0  0  0
  151.2933  141.0185  157.9252 N   0  0  0  0  0  0  0  0  0  0  0  0
  150.1229  141.4943  157.3945 C   0  0  0  0  0  0  0  0  0  0  0  0
  149.3436  142.2502  157.9759 O   0  0  0  0  0  0  0  0  0  0  0  0
  149.8541  141.0224  156.0319 C   0  0  0  0  0  0  0  0  0  0  0  0
  150.6808  140.1778  155.3691 C   0  0  0  0  0  0  0  0  0  0  0  0
  150.1935  139.8815  154.1010 N   0  0  0  0  0  0  0  0  0  0  0  0
  149.0625  140.5872  154.0669 C   0  0  0  0  0  0  0  0  0  0  0  0
  148.7845  141.2965  155.1797 N   0  0  0  0  0  0  0  0  0  0  0  0
  147.6155  142.1386  155.3879 C   0  0  0  0  0  0  0  0  0  0  0  0
  146.6125  142.0679  154.2188 C   0  0  1  0  0  0  0  0  0  0  0  0
  145.9391  140.8234  154.2164 O   0  0  0  0  0  0  0  0  0  0  0  0
  145.6487  143.2438  154.2528 C   0  0  0  0  0  0  0  0  0  0  0  0
  145.6020  144.1665  153.1839 C   0  0  0  0  0  0  0  0  0  0  0  0
  144.7002  145.2478  153.2183 C   0  0  0  0  0  0  0  0  0  0  0  0
  143.8380  145.4113  154.3193 C   0  0  0  0  0  0  0  0  0  0  0  0
  143.8768  144.4921  155.3852 C   0  0  0  0  0  0  0  0  0  0  0  0
  144.7790  143.4107  155.3518 C   0  0  0  0  0  0  0  0  0  0  0  0
  151.8608  139.7337  156.0153 N   0  0  0  0  0  0  0  0  0  0  0  0
  152.7250  138.8127  155.2709 C   0  0  0  0  0  0  0  0  0  0  0  0
  152.1679  140.1555  157.2865 C   0  0  0  0  0  0  0  0  0  0  0  0
  153.2000  139.7727  157.8447 O   0  0  0  0  0  0  0  0  0  0  0  0
  150.9696  142.1397  159.7587 H   0  0  0  0  0  0  0  0  0  0  0  0
  152.6366  141.9488  159.2739 H   0  0  0  0  0  0  0  0  0  0  0  0
  151.7449  140.5839  159.9488 H   0  0  0  0  0  0  0  0  0  0  0  0
  148.4123  140.5874  153.2043 H   0  0  0  0  0  0  0  0  0  0  0  0
  147.1390  141.8726  156.3303 H   0  0  0  0  0  0  0  0  0  0  0  0
  147.9597  143.1663  155.5111 H   0  0  0  0  0  0  0  0  0  0  0  0
  147.1702  142.1134  153.2822 H   0  0  0  0  0  0  0  0  0  0  0  0
  145.3708  140.7926  153.4621 H   0  0  0  0  0  0  0  0  0  0  0  0
  146.2559  144.0466  152.3323 H   0  0  0  0  0  0  0  0  0  0  0  0
  144.6692  145.9509  152.3989 H   0  0  0  0  0  0  0  0  0  0  0  0
  143.1458  146.2401  154.3454 H   0  0  0  0  0  0  0  0  0  0  0  0
  143.2135  144.6152  156.2287 H   0  0  0  0  0  0  0  0  0  0  0  0
  144.7985  142.7091  156.1729 H   0  0  0  0  0  0  0  0  0  0  0  0
  153.6362  138.5249  155.7958 H   0  0  0  0  0  0  0  0  0  0  0  0
  153.0273  139.2663  154.3266 H   0  0  0  0  0  0  0  0  0  0  0  0
  152.1794  137.8968  155.0419 H   0  0  0  0  0  0  0  0  0  0  0  0
  1  2  1  0  0  0  0
  1 23  1  0  0  0  0
  1 24  1  0  0  0  0
  1 25  1  0  0  0  0
  2 21  1  0  0  0  0
  2  3  1  0  0  0  0
  3  4  2  0  0  0  0
  3  5  1  0  0  0  0
  5  9  1  0  0  0  0
  5  6  2  0  0  0  0
  6  7  1  0  0  0  0
  6 19  1  0  0  0  0
  7  8  2  0  0  0  0
  8  9  1  0  0  0  0
  8 26  1  0  0  0  0
  9 10  1  0  0  0  0
 10 11  1  0  0  0  0
 10 27  1  0  0  0  0
 10 28  1  0  0  0  0
 11 12  1  0  0  0  0
 11 13  1  0  0  0  0
 11 29  1  0  0  0  0
 12 30  1  0  0  0  0
 13 18  1  0  0  0  0
 13 14  2  0  0  0  0
 14 15  1  0  0  0  0
 14 31  1  0  0  0  0
 15 16  2  0  0  0  0
 15 32  1  0  0  0  0
 16 17  1  0  0  0  0
 16 33  1  0  0  0  0
 17 18  2  0  0  0  0
 17 34  1  0  0  0  0
 18 35  1  0  0  0  0
 19 20  1  0  0  0  0
 19 21  1  0  0  0  0
 20 36  1  0  0  0  0
 20 37  1  0  0  0  0
 20 38  1  0  0  0  0
 21 22  2  0  0  0  0
M  END
> <s_m_source_file>
AV-unprocessed.smi

> <i_m_source_file_index>
3010

> <i_lp_mmshare_version>
43012

> <i_f3d_flags>
0

> <s_epik_input>
Tz1jMW4oW0NIM10pYyg9TyluKFtDSDNdKWMoYzEyKW5bY0hdbjJbQ0gyXVtDQEhdKFtPSF0pYzNbY0hdW2NIXVtjSF1bY0hdW2NIXTM=

> <s_epik_cmdline>
J2VwaWtfcHl0aG9uJywgJy1waCcsICc3LjAnLCAnLXRuJywgJzgnLCAnLW1hJywgJzIwMCcsICctbWV0YWxfYmluZGluZycsICctaW1hZScsICc8aW5maWxlLm1hZT4nLCAnLW9tYWUnLCAnPG91dGZpbGUubWFlPic=

> <r_lp_tautomer_probability>
1

> <r_epik_Ionization_Penalty>
1.43747e-06

> <r_epik_Ionization_Penalty_Charging>
3.74189e-09

> <r_epik_Ionization_Penalty_Neutral>
1.43373e-06

> <r_epik_State_Penalty>
-0

> <r_epik_Charging_Adjusted_Penalty>
3.74189e-09

> <i_epik_Tot_Q>
0

> <i_epik_Tot_abs_Q>
0

> <r_epik_Metal_State_Penalty>
-0

> <b_epik_Metal_Only>
0

> <s_lp_Force_Field>
OPLS_2005

> <r_lp_Energy>
36.4427

> <b_lp_Chiralities_Consistent>
1

> <s_lp_Variant>
AV-unprocessed.smi:3010-2

> <Gold.Version>
5.8.1

> <Gold.Id.Protein>
6NUR|6NUR_protein|mol2

> <Gold.PLP.Fitness>
53.2608

> <Gold.PLP.PLP>
-44.2407

> <Gold.PLP.part.hbond>
-3.0000

> <Gold.PLP.part.metal>
0.0000

> <Gold.PLP.part.buried>
0.2174

> <Gold.PLP.part.nonpolar>
-40.9203

> <Gold.PLP.part.repulsive>
1.0069

> <Gold.PLP.ligand.clash>
0.0000

> <Gold.PLP.ligand.torsion>
0.1418

> <Gold.PLP.Chemscore.Hbond>
2.4000

> <Gold.PLP.Chemscore.CHOScore>
0.6897

> <Gold.PLP.Chemscore.Metal>
0.0000

> <Gold.Chemscore.Hbonds>
donor molecule, donor type, donor heavy atom, donor atom, acceptor molecule, acceptor atom, score
      L1  H    12    30       P1 10175  1.00
      P1  H  7989  7998       L1     7  0.30
      P1  H  7997  8009       L1    22  1.00
      L1  C     8    26       P1  7957  0.65

> <Gold.PLP.Chemscore.Internal.Correction>
0.0346

> <Gold.Rescore>
     Score         DG    S(hbond)    S(metal)    S(lipo)     H(rot)  DE(clash)    DE(int)     intcor
     14.66     -15.24       1.98        0.00      73.94       2.15       0.21       0.37       ----

> <Gold.Chemscore.Fitness>
14.6607

> <Gold.Chemscore.DG>
-15.2366

> <Gold.Chemscore.ZeroCoef>
-5.4800

> <Gold.Chemscore.Hbond>
1.9770

> <Gold.Chemscore.Metal>
0.0000

> <Gold.Chemscore.Lipo>
73.9386

> <Gold.Chemscore.Internal_Hbond>
0.0000

> <Gold.Chemscore.DEClash>
0.2101

> <Gold.Chemscore.DEInternal>
0.3658

> <Gold.Chemscore.Rot>
2.1474

> <Gold.Chemscore.Internal.Correction>
   9.000000E+99

> <Gold.Chemscore.Hbonds>
donor molecule, donor type, donor heavy atom, donor atom, acceptor molecule, acceptor atom, score
      L1  H    12    30       P1 10175  0.83
      P1  H  7997  8009       L1    22  0.43

> <Gold.Chemscore.Hbond.Weighted>
-6.6031

> <Gold.Chemscore.Metal.Weighted>
-0.0000

> <Gold.Chemscore.Lipo.Weighted>
-8.6508

> <Gold.Chemscore.Internal_Hbond.Weighted>
0.0000

> <Gold.Chemscore.DEClash.Weighted>
0.2101

> <Gold.Chemscore.DEInternal.Weighted>
0.3658

> <Gold.Chemscore.Rot.Weighted>
5.4974

> <Gold.Chemscore.Internal.Correction.Weighted>
   9.000000E+99

> <Gold.Protein.RotatedTorsions>
[ 6907 6896 6895 6894 ] final   30.25 input  -60.11 | X-H torsion
[ 7974 7965 7964 7962 ] final  126.35 input  175.53 | X-H torsion
[ 8008 7997 7996 7995 ] final  175.89 input   59.86 | X-H torsion
[ 10167 10162 10161 10158 ] final  130.67 input  -65.29 | X-H torsion
[ 10718 10713 10712 10709 ] final   75.92 input   66.30 | X-H torsion
[ 10763 10752 10751 10750 ] final -132.24 input  -60.55 | X-H torsion
[ 11005 11000 10999 10996 ] final  -98.58 input  -57.11 | X-H torsion

> <Gold.Protein.ActiveResidues>
 VAL166  LYS551  ARG553  GLY616  TRP617  ASP618  TYR619  PRO620  LYS621  CYS622 
 ASP623  PHE694  ASN695  SER759  ASP760  ASP761  ALA762  ILE779  LEU786  VAL792 
 PHE793  MET794  SER795  GLU796  ALA797  LYS798  CYS799  TRP800  GLU811  SER814 

> <Gold.Protein.RotatedAtoms>
  152.0432  134.9698  160.0573 H   0  0  0  0  0  0  0  0  0  0  0  0  # atno 6907 bound_to 6896
  152.1129  133.4305  159.4647 H   0  0  0  0  0  0  0  0  0  0  0  0  # atno 6908 bound_to 6896
  150.6844  134.2546  159.4568 H   0  0  0  0  0  0  0  0  0  0  0  0  # atno 6909 bound_to 6896
  145.0627  139.3792  143.4998 H   0  0  0  0  0  0  0  0  0  0  0  0  # atno 7974 bound_to 7965
  156.0823  140.1397  156.9697 H   0  0  0  0  0  0  0  0  0  0  0  0  # atno 8008 bound_to 7997
  154.4592  140.0949  156.6894 H   0  0  0  0  0  0  0  0  0  0  0  0  # atno 8009 bound_to 7997
  155.5055  140.3452  155.4381 H   0  0  0  0  0  0  0  0  0  0  0  0  # atno 8010 bound_to 7997
  139.5419  144.6738  151.4596 H   0  0  0  0  0  0  0  0  0  0  0  0  # atno 10167 bound_to 10162
  157.6653  130.9750  150.1423 H   0  0  0  0  0  0  0  0  0  0  0  0  # atno 10718 bound_to 10713
  154.8745  135.3804  154.4378 H   0  0  0  0  0  0  0  0  0  0  0  0  # atno 10763 bound_to 10752
  153.5066  135.7030  153.5808 H   0  0  0  0  0  0  0  0  0  0  0  0  # atno 10764 bound_to 10752
  153.4116  135.3923  155.2020 H   0  0  0  0  0  0  0  0  0  0  0  0  # atno 10765 bound_to 10752
  141.1339  133.8256  157.0859 H   0  0  0  0  0  0  0  0  0  0  0  0  # atno 11005 bound_to 11000
  146.3525  140.0333  142.8649 LP  0  0  0  0  0  0  0  0  0  0  0  0  # atno 17320 bound_to 7965
  145.1389  140.9560  143.4500 LP  0  0  0  0  0  0  0  0  0  0  0  0  # atno 17321 bound_to 7965
  140.6653  143.8412  150.6934 LP  0  0  0  0  0  0  0  0  0  0  0  0  # atno 17342 bound_to 10162
  140.1819  143.4107  152.1926 LP  0  0  0  0  0  0  0  0  0  0  0  0  # atno 17343 bound_to 10162
  156.2243  130.3676  149.8519 LP  0  0  0  0  0  0  0  0  0  0  0  0  # atno 17370 bound_to 10713
  156.6364  130.8687  151.3505 LP  0  0  0  0  0  0  0  0  0  0  0  0  # atno 17371 bound_to 10713
  140.0423  134.9848  157.0984 LP  0  0  0  0  0  0  0  0  0  0  0  0  # atno 17394 bound_to 11000
  140.4117  134.1974  155.7163 LP  0  0  0  0  0  0  0  0  0  0  0  0  # atno 17395 bound_to 11000

$$$$
