AV-unprocessed.smi:3031|AV-procd|sdf|11543|dock9
  -GOLD-   2272016493D 1   1.00000     0.00000
 Structure written by MMmdl.
 47 48  0  0  0  0  0  0  0  0  2 V2000
  151.8641  143.1385  158.0924 C   0  0  0  0  0  0  0  0  0  0  0  0
  151.2254  142.0812  157.2389 C   0  0  0  0  0  0  0  0  0  0  0  0
  151.0813  140.6938  157.5245 C   0  0  0  0  0  0  0  0  0  0  0  0
  150.4713  140.0304  156.5556 N   0  0  0  0  0  0  0  0  0  0  0  0
  150.2013  140.9683  155.6226 N   0  0  0  0  0  0  0  0  0  0  0  0
  149.5298  140.5937  154.3907 C   0  0  0  0  0  0  0  0  0  0  0  0
  149.2187  139.0851  154.3314 C   0  0  2  0  0  0  0  0  0  0  0  0
  150.5129  138.2569  154.3820 C   0  0  0  0  0  0  0  0  0  0  0  0
  148.4394  138.7736  153.1116 N   0  3  0  0  0  0  0  0  0  0  0  0
  146.9890  139.0430  153.1955 C   0  0  0  0  0  0  0  0  0  0  0  0
  146.2027  138.0905  152.2792 C   0  0  1  0  0  0  0  0  0  0  0  0
  146.8696  137.9622  151.0393 O   0  0  0  0  0  0  0  0  0  0  0  0
  145.9036  136.6820  152.8438 C   0  0  0  0  0  0  0  0  0  0  0  0
  144.9203  135.8681  152.1198 N   0  0  0  0  0  0  0  0  0  0  0  0
  144.3017  134.8886  153.0098 C   0  0  0  0  0  0  0  0  0  0  0  0
  143.2553  134.0253  152.2839 C   0  0  0  0  0  0  0  0  0  0  0  0
  143.8649  133.3705  151.1771 O   0  0  0  0  0  0  0  0  0  0  0  0
  144.4530  134.2838  150.2574 C   0  0  0  0  0  0  0  0  0  0  0  0
  145.4988  135.1472  150.9849 C   0  0  0  0  0  0  0  0  0  0  0  0
  150.6455  142.2147  156.0092 C   0  0  0  0  0  0  0  0  0  0  0  0
  152.1093  142.7644  159.0867 H   0  0  0  0  0  0  0  0  0  0  0  0
  151.2074  143.9984  158.2264 H   0  0  0  0  0  0  0  0  0  0  0  0
  152.7903  143.5061  157.6506 H   0  0  0  0  0  0  0  0  0  0  0  0
  151.4027  140.1520  158.4020 H   0  0  0  0  0  0  0  0  0  0  0  0
  148.6186  141.1852  154.2863 H   0  0  0  0  0  0  0  0  0  0  0  0
  150.1782  140.8758  153.5602 H   0  0  0  0  0  0  0  0  0  0  0  0
  148.6142  138.8341  155.2046 H   0  0  0  0  0  0  0  0  0  0  0  0
  151.0978  138.5007  155.2696 H   0  0  0  0  0  0  0  0  0  0  0  0
  151.1403  138.4474  153.5105 H   0  0  0  0  0  0  0  0  0  0  0  0
  150.3081  137.1870  154.4183 H   0  0  0  0  0  0  0  0  0  0  0  0
  148.8074  139.3467  152.3649 H   0  0  0  0  0  0  0  0  0  0  0  0
  146.6620  138.9364  154.2290 H   0  0  0  0  0  0  0  0  0  0  0  0
  146.8097  140.0754  152.8925 H   0  0  0  0  0  0  0  0  0  0  0  0
  145.2351  138.5497  152.0714 H   0  0  0  0  0  0  0  0  0  0  0  0
  147.4461  137.2141  151.0828 H   0  0  0  0  0  0  0  0  0  0  0  0
  146.8333  136.1227  152.9576 H   0  0  0  0  0  0  0  0  0  0  0  0
  145.5446  136.8387  153.8623 H   0  0  0  0  0  0  0  0  0  0  0  0
  145.0680  134.2418  153.4402 H   0  0  0  0  0  0  0  0  0  0  0  0
  143.8206  135.3988  153.8451 H   0  0  0  0  0  0  0  0  0  0  0  0
  142.8452  133.2755  152.9608 H   0  0  0  0  0  0  0  0  0  0  0  0
  142.4205  134.6380  151.9389 H   0  0  0  0  0  0  0  0  0  0  0  0
  144.9206  133.7225  149.4484 H   0  0  0  0  0  0  0  0  0  0  0  0
  143.6796  134.9095  149.8087 H   0  0  0  0  0  0  0  0  0  0  0  0
  145.9355  135.8331  150.2652 H   0  0  0  0  0  0  0  0  0  0  0  0
  146.3111  134.5056  151.3303 H   0  0  0  0  0  0  0  0  0  0  0  0
  150.5153  143.0850  155.3826 H   0  0  0  0  0  0  0  0  0  0  0  0
  148.5824  137.8043  152.8656 H   0  0  0  0  0  0  0  0  0  0  0  0
  1  2  1  0  0  0  0
  1 21  1  0  0  0  0
  1 22  1  0  0  0  0
  1 23  1  0  0  0  0
  2 20  2  0  0  0  0
  2  3  1  0  0  0  0
  3  4  2  0  0  0  0
  3 24  1  0  0  0  0
  4  5  1  0  0  0  0
  5  6  1  0  0  0  0
  5 20  1  0  0  0  0
  6  7  1  0  0  0  0
  6 25  1  0  0  0  0
  6 26  1  0  0  0  0
  7  8  1  0  0  0  0
  7  9  1  0  0  0  0
  7 27  1  0  0  0  0
  8 28  1  0  0  0  0
  8 29  1  0  0  0  0
  8 30  1  0  0  0  0
  9 10  1  0  0  0  0
  9 31  1  0  0  0  0
  9 47  1  0  0  0  0
 10 11  1  0  0  0  0
 10 32  1  0  0  0  0
 10 33  1  0  0  0  0
 11 12  1  0  0  0  0
 11 13  1  0  0  0  0
 11 34  1  0  0  0  0
 12 35  1  0  0  0  0
 13 14  1  0  0  0  0
 13 36  1  0  0  0  0
 13 37  1  0  0  0  0
 14 19  1  0  0  0  0
 14 15  1  0  0  0  0
 15 16  1  0  0  0  0
 15 38  1  0  0  0  0
 15 39  1  0  0  0  0
 16 17  1  0  0  0  0
 16 40  1  0  0  0  0
 16 41  1  0  0  0  0
 17 18  1  0  0  0  0
 18 19  1  0  0  0  0
 18 42  1  0  0  0  0
 18 43  1  0  0  0  0
 19 44  1  0  0  0  0
 19 45  1  0  0  0  0
 20 46  1  0  0  0  0
M  CHG  1   9   1
M  END
> <s_m_source_file>
AV-unprocessed.smi

> <i_m_source_file_index>
3031

> <i_lp_mmshare_version>
43012

> <i_f3d_flags>
0

> <s_epik_input>
W0NIM11jMVtjSF1ubihbY0hdMSlbQ0gyXVtDQEhdKFtDSDNdKVtOSF1bQ0gyXVtDQEhdKFtPSF0pW0NIMl1OMltDSDJdW0NIMl1PW0NIMl1bQ0gyXTI=

> <s_epik_cmdline>
J2VwaWtfcHl0aG9uJywgJy1waCcsICc3LjAnLCAnLXRuJywgJzgnLCAnLW1hJywgJzIwMCcsICctbWV0YWxfYmluZGluZycsICctaW1hZScsICc8aW5maWxlLm1hZT4nLCAnLW9tYWUnLCAnPG91dGZpbGUubWFlPic=

> <r_lp_tautomer_probability>
1

> <r_epik_Ionization_Penalty>
0.108564

> <r_epik_Ionization_Penalty_Charging>
0.01811

> <r_epik_Ionization_Penalty_Neutral>
0.0904541

> <r_epik_State_Penalty>
0.141043

> <r_epik_Charging_Adjusted_Penalty>
0.159153

> <i_epik_Tot_Q>
1

> <i_epik_Tot_abs_Q>
1

> <r_epik_Metal_State_Penalty>
0.141052

> <b_epik_Metal_Only>
0

> <s_lp_Force_Field>
OPLS_2005

> <r_lp_Energy>
34.8443

> <b_lp_Chiralities_Consistent>
1

> <s_lp_Variant>
AV-unprocessed.smi:3031-3

> <Gold.Version>
5.8.1

> <Gold.Id.Protein>
6NUR|6NUR_protein|mol2

> <Gold.PLP.Fitness>
53.2326

> <Gold.PLP.PLP>
-40.0092

> <Gold.PLP.part.hbond>
-4.3212

> <Gold.PLP.part.metal>
0.0000

> <Gold.PLP.part.buried>
-4.3141

> <Gold.PLP.part.nonpolar>
-31.5785

> <Gold.PLP.part.repulsive>
0.4206

> <Gold.PLP.ligand.clash>
0.0000

> <Gold.PLP.ligand.torsion>
0.9295

> <Gold.PLP.Chemscore.Hbond>
4.0000

> <Gold.PLP.Chemscore.CHOScore>
1.0000

> <Gold.PLP.Chemscore.Metal>
0.0000

> <Gold.Chemscore.Hbonds>
donor molecule, donor type, donor heavy atom, donor atom, acceptor molecule, acceptor atom, score
      L1  H     9    31       P1  7957  1.00
      L1  H     9    47       P1  7948  2.00
      L1  H    12    35       P1  7948  1.00
      L1  C    20    46       P1  8028  0.93

> <Gold.PLP.Chemscore.Internal.Correction>
0.0824

> <Gold.Rescore>
     Score         DG    S(hbond)    S(metal)    S(lipo)     H(rot)  DE(clash)    DE(int)     intcor
     16.40     -19.32       2.98        0.00      90.60       2.63       0.00       2.92       ----

> <Gold.Chemscore.Fitness>
16.3960

> <Gold.Chemscore.DG>
-19.3219

> <Gold.Chemscore.ZeroCoef>
-5.4800

> <Gold.Chemscore.Hbond>
2.9842

> <Gold.Chemscore.Metal>
0.0000

> <Gold.Chemscore.Lipo>
90.5961

> <Gold.Chemscore.Internal_Hbond>
0.0000

> <Gold.Chemscore.DEClash>
0.0048

> <Gold.Chemscore.DEInternal>
2.9211

> <Gold.Chemscore.Rot>
2.6270

> <Gold.Chemscore.Internal.Correction>
   9.000000E+99

> <Gold.Chemscore.Hbonds>
donor molecule, donor type, donor heavy atom, donor atom, acceptor molecule, acceptor atom, score
      L1  H     9    31       P1  7957  0.98
      L1  H     9    47       P1  7948  0.99
      L1  H    12    35       P1  7948  0.97

> <Gold.Chemscore.Hbond.Weighted>
-9.9673

> <Gold.Chemscore.Metal.Weighted>
-0.0000

> <Gold.Chemscore.Lipo.Weighted>
-10.5997

> <Gold.Chemscore.Internal_Hbond.Weighted>
0.0000

> <Gold.Chemscore.DEClash.Weighted>
0.0048

> <Gold.Chemscore.DEInternal.Weighted>
2.9211

> <Gold.Chemscore.Rot.Weighted>
6.7251

> <Gold.Chemscore.Internal.Correction.Weighted>
   9.000000E+99

> <Gold.Protein.RotatedTorsions>
[ 6907 6896 6895 6894 ] final   69.34 input  -60.11 | X-H torsion
[ 7974 7965 7964 7962 ] final  -55.16 input  175.53 | X-H torsion
[ 8008 7997 7996 7995 ] final   33.42 input   59.86 | X-H torsion
[ 10167 10162 10161 10158 ] final -137.30 input  -65.29 | X-H torsion
[ 10718 10713 10712 10709 ] final -164.76 input   66.30 | X-H torsion
[ 10763 10752 10751 10750 ] final  -69.14 input  -60.55 | X-H torsion
[ 11005 11000 10999 10996 ] final -100.58 input  -57.11 | X-H torsion

> <Gold.Protein.ActiveResidues>
 VAL166  LYS551  ARG553  GLY616  TRP617  ASP618  TYR619  PRO620  LYS621  CYS622 
 ASP623  PHE694  ASN695  SER759  ASP760  ASP761  ALA762  ILE779  LEU786  VAL792 
 PHE793  MET794  SER795  GLU796  ALA797  LYS798  CYS799  TRP800  GLU811  SER814 

> <Gold.Protein.RotatedAtoms>
  152.4680  134.5030  159.9730 H   0  0  0  0  0  0  0  0  0  0  0  0  # atno 6907 bound_to 6896
  151.5063  133.3488  159.2885 H   0  0  0  0  0  0  0  0  0  0  0  0  # atno 6908 bound_to 6896
  150.8674  134.8069  159.7191 H   0  0  0  0  0  0  0  0  0  0  0  0  # atno 6909 bound_to 6896
  145.8774  140.8171  142.9857 H   0  0  0  0  0  0  0  0  0  0  0  0  # atno 7974 bound_to 7965
  155.1384  140.3264  155.4458 H   0  0  0  0  0  0  0  0  0  0  0  0  # atno 8008 bound_to 7997
  156.2612  140.1998  156.6450 H   0  0  0  0  0  0  0  0  0  0  0  0  # atno 8009 bound_to 7997
  154.6560  140.0553  156.9996 H   0  0  0  0  0  0  0  0  0  0  0  0  # atno 8010 bound_to 7997
  139.8591  143.7099  152.2651 H   0  0  0  0  0  0  0  0  0  0  0  0  # atno 10167 bound_to 10162
  156.6436  130.8979  151.3000 H   0  0  0  0  0  0  0  0  0  0  0  0  # atno 10718 bound_to 10713
  154.3991  135.6035  153.5886 H   0  0  0  0  0  0  0  0  0  0  0  0  # atno 10763 bound_to 10752
  152.9788  135.5902  154.4206 H   0  0  0  0  0  0  0  0  0  0  0  0  # atno 10764 bound_to 10752
  154.4002  135.2843  155.2079 H   0  0  0  0  0  0  0  0  0  0  0  0  # atno 10765 bound_to 10752
  141.1265  133.8410  157.1121 H   0  0  0  0  0  0  0  0  0  0  0  0  # atno 11005 bound_to 11000
  144.6726  140.1331  143.7442 LP  0  0  0  0  0  0  0  0  0  0  0  0  # atno 17320 bound_to 7965
  145.9065  139.2461  143.1463 LP  0  0  0  0  0  0  0  0  0  0  0  0  # atno 17321 bound_to 7965
  139.7391  144.7564  151.0681 LP  0  0  0  0  0  0  0  0  0  0  0  0  # atno 17342 bound_to 10162
  140.7777  143.4995  150.9790 LP  0  0  0  0  0  0  0  0  0  0  0  0  # atno 17343 bound_to 10162
  157.7163  130.9501  150.1268 LP  0  0  0  0  0  0  0  0  0  0  0  0  # atno 17370 bound_to 10713
  156.2139  130.3669  149.8637 LP  0  0  0  0  0  0  0  0  0  0  0  0  # atno 17371 bound_to 10713
  140.0269  134.9920  157.0703 LP  0  0  0  0  0  0  0  0  0  0  0  0  # atno 17394 bound_to 11000
  140.4349  134.1742  155.7170 LP  0  0  0  0  0  0  0  0  0  0  0  0  # atno 17395 bound_to 11000

$$$$
