AV-unprocessed.smi:1205|AV-procd|sdf|5039|dock4
  -GOLD-   22720 4 63D 1   1.00000     0.00000
 Structure written by MMmdl.
 49 50  0  0  0  0  0  0  0  0  2 V2000
  150.9231  141.8999  156.9646 C   0  0  0  0  0  0  0  0  0  0  0  0
  150.6196  140.7275  156.0790 C   0  0  0  0  0  0  0  0  0  0  0  0
  149.4635  140.5121  155.2737 C   0  0  0  0  0  0  0  0  0  0  0  0
  149.7225  139.3007  154.6929 C   0  0  0  0  0  0  0  0  0  0  0  0
  148.9583  138.5892  153.8219 N   0  0  0  0  0  0  0  0  0  0  0  0
  147.6320  138.6632  153.6143 C   0  0  0  0  0  0  0  0  0  0  0  0
  146.8561  139.4179  154.2011 O   0  0  0  0  0  0  0  0  0  0  0  0
  147.2383  137.7942  152.6721 N   0  0  0  0  0  0  0  0  0  0  0  0
  145.8615  137.6242  152.2174 C   0  0  0  0  0  0  0  0  0  0  0  0
  145.5572  136.1776  151.7608 C   0  0  2  0  0  0  0  0  0  0  0  0
  144.0456  135.9084  151.5932 C   0  0  0  0  0  0  0  0  0  0  0  0
  146.2305  135.1899  152.6544 N   0  3  1  0  0  0  0  0  0  0  0  0
  146.0606  135.4296  154.1138 C   0  0  0  0  0  0  0  0  0  0  0  0
  146.9835  134.5082  154.9266 C   0  0  0  0  0  0  0  0  0  0  0  0
  146.7287  133.0350  154.5807 C   0  0  0  0  0  0  0  0  0  0  0  0
  146.8672  132.8079  153.0651 C   0  0  1  0  0  0  0  0  0  0  0  0
  146.5897  131.3459  152.6882 C   0  0  0  0  0  0  0  0  0  0  0  0
  145.9470  133.7748  152.2929 C   0  0  0  0  0  0  0  0  0  0  0  0
  150.9459  138.8480  155.1344 N   0  0  0  0  0  0  0  0  0  0  0  0
  151.6475  137.6215  154.8087 C   0  0  0  0  0  0  0  0  0  0  0  0
  151.4967  139.7338  155.9924 N   0  0  0  0  0  0  0  0  0  0  0  0
  150.1150  142.6312  156.9402 H   0  0  0  0  0  0  0  0  0  0  0  0
  151.8363  142.4048  156.6486 H   0  0  0  0  0  0  0  0  0  0  0  0
  151.0549  141.5863  158.0003 H   0  0  0  0  0  0  0  0  0  0  0  0
  148.6019  141.1521  155.1585 H   0  0  0  0  0  0  0  0  0  0  0  0
  149.4618  137.9211  153.2572 H   0  0  0  0  0  0  0  0  0  0  0  0
  147.9393  137.2129  152.2356 H   0  0  0  0  0  0  0  0  0  0  0  0
  145.1766  137.9236  153.0130 H   0  0  0  0  0  0  0  0  0  0  0  0
  145.7061  138.3274  151.3999 H   0  0  0  0  0  0  0  0  0  0  0  0
  146.0119  136.0654  150.7757 H   0  0  0  0  0  0  0  0  0  0  0  0
  143.6151  136.5509  150.8248 H   0  0  0  0  0  0  0  0  0  0  0  0
  143.4949  136.0959  152.5151 H   0  0  0  0  0  0  0  0  0  0  0  0
  143.8510  134.8801  151.2889 H   0  0  0  0  0  0  0  0  0  0  0  0
  146.2877  136.4659  154.3610 H   0  0  0  0  0  0  0  0  0  0  0  0
  145.0242  135.2526  154.4043 H   0  0  0  0  0  0  0  0  0  0  0  0
  148.0254  134.7596  154.7234 H   0  0  0  0  0  0  0  0  0  0  0  0
  146.8280  134.6715  155.9935 H   0  0  0  0  0  0  0  0  0  0  0  0
  147.4284  132.3998  155.1252 H   0  0  0  0  0  0  0  0  0  0  0  0
  145.7283  132.7496  154.9098 H   0  0  0  0  0  0  0  0  0  0  0  0
  147.8983  133.0281  152.7841 H   0  0  0  0  0  0  0  0  0  0  0  0
  145.5716  131.0550  152.9487 H   0  0  0  0  0  0  0  0  0  0  0  0
  147.2712  130.6707  153.2062 H   0  0  0  0  0  0  0  0  0  0  0  0
  146.7182  131.1852  151.6176 H   0  0  0  0  0  0  0  0  0  0  0  0
  144.9008  133.5436  152.4978 H   0  0  0  0  0  0  0  0  0  0  0  0
  146.0994  133.6313  151.2224 H   0  0  0  0  0  0  0  0  0  0  0  0
  151.6772  137.4906  153.7267 H   0  0  0  0  0  0  0  0  0  0  0  0
  151.1288  136.7741  155.2573 H   0  0  0  0  0  0  0  0  0  0  0  0
  152.6703  137.6527  155.1866 H   0  0  0  0  0  0  0  0  0  0  0  0
  147.2166  135.3086  152.4708 H   0  0  0  0  0  0  0  0  0  0  0  0
  1  2  1  0  0  0  0
  1 22  1  0  0  0  0
  1 23  1  0  0  0  0
  1 24  1  0  0  0  0
  2 21  2  0  0  0  0
  2  3  1  0  0  0  0
  3  4  2  0  0  0  0
  3 25  1  0  0  0  0
  4  5  1  0  0  0  0
  4 19  1  0  0  0  0
  5  6  1  0  0  0  0
  5 26  1  0  0  0  0
  6  7  2  0  0  0  0
  6  8  1  0  0  0  0
  8  9  1  0  0  0  0
  8 27  1  0  0  0  0
  9 10  1  0  0  0  0
  9 28  1  0  0  0  0
  9 29  1  0  0  0  0
 10 11  1  0  0  0  0
 10 12  1  0  0  0  0
 10 30  1  0  0  0  0
 11 31  1  0  0  0  0
 11 32  1  0  0  0  0
 11 33  1  0  0  0  0
 12 18  1  0  0  0  0
 12 13  1  0  0  0  0
 12 49  1  0  0  0  0
 13 14  1  0  0  0  0
 13 34  1  0  0  0  0
 13 35  1  0  0  0  0
 14 15  1  0  0  0  0
 14 36  1  0  0  0  0
 14 37  1  0  0  0  0
 15 16  1  0  0  0  0
 15 38  1  0  0  0  0
 15 39  1  0  0  0  0
 16 17  1  0  0  0  0
 16 18  1  0  0  0  0
 16 40  1  0  0  0  0
 17 41  1  0  0  0  0
 17 42  1  0  0  0  0
 17 43  1  0  0  0  0
 18 44  1  0  0  0  0
 18 45  1  0  0  0  0
 19 20  1  0  0  0  0
 19 21  1  0  0  0  0
 20 46  1  0  0  0  0
 20 47  1  0  0  0  0
 20 48  1  0  0  0  0
M  CHG  1  12   1
M  END
> <s_m_source_file>
AV-unprocessed.smi

> <i_m_source_file_index>
1205

> <i_lp_mmshare_version>
43012

> <i_f3d_flags>
0

> <s_epik_input>
W0NIM11jMVtjSF1jKG4objEpW0NIM10pW05IXUMoPU8pW05IXVtDSDJdW0NASF0oW0NIM10pTjJbQ0gyXVtDSDJdW0NIMl1bQ0BASF0oW0NIM10pW0NIMl0y

> <s_epik_cmdline>
J2VwaWtfcHl0aG9uJywgJy1waCcsICc3LjAnLCAnLXRuJywgJzgnLCAnLW1hJywgJzIwMCcsICctbWV0YWxfYmluZGluZycsICctaW1hZScsICc8aW5maWxlLm1hZT4nLCAnLW9tYWUnLCAnPG91dGZpbGUubWFlPic=

> <r_lp_tautomer_probability>
1

> <r_epik_Ionization_Penalty>
0.0020309

> <r_epik_Ionization_Penalty_Charging>
0.00195276

> <r_epik_Ionization_Penalty_Neutral>
7.81448e-05

> <r_epik_State_Penalty>
0.00133177

> <r_epik_Charging_Adjusted_Penalty>
0.00328452

> <i_epik_Tot_Q>
1

> <i_epik_Tot_abs_Q>
1

> <r_epik_Metal_State_Penalty>
-0

> <b_epik_Metal_Only>
0

> <s_lp_Force_Field>
OPLS_2005

> <r_lp_Energy>
21.646

> <b_lp_Chiralities_Consistent>
1

> <s_lp_Variant>
AV-unprocessed.smi:1205-1

> <Gold.Version>
5.8.1

> <Gold.Id.Protein>
6NUR|6NUR_protein|mol2

> <Gold.PLP.Fitness>
45.6371

> <Gold.PLP.PLP>
-36.4294

> <Gold.PLP.part.hbond>
-4.7642

> <Gold.PLP.part.metal>
0.0000

> <Gold.PLP.part.buried>
-2.2594

> <Gold.PLP.part.nonpolar>
-29.6603

> <Gold.PLP.part.repulsive>
0.2919

> <Gold.PLP.ligand.clash>
0.0000

> <Gold.PLP.ligand.torsion>
0.5966

> <Gold.PLP.Chemscore.Hbond>
3.4277

> <Gold.PLP.Chemscore.CHOScore>
0.0000

> <Gold.PLP.Chemscore.Metal>
0.0000

> <Gold.Chemscore.Hbonds>
donor molecule, donor type, donor heavy atom, donor atom, acceptor molecule, acceptor atom, score
      L1  H     5    26       P1  7948  0.41
      L1  H     8    27       P1  7948  0.78
      L1  H    12    49       P1  7948  1.98

> <Gold.PLP.Chemscore.Internal.Correction>
0.1177

> <Gold.Rescore>
     Score         DG    S(hbond)    S(metal)    S(lipo)     H(rot)  DE(clash)    DE(int)     intcor
     16.05     -17.54       2.34        0.00      68.38       1.47       0.08       1.41       ----

> <Gold.Chemscore.Fitness>
16.0490

> <Gold.Chemscore.DG>
-17.5439

> <Gold.Chemscore.ZeroCoef>
-5.4800

> <Gold.Chemscore.Hbond>
2.3400

> <Gold.Chemscore.Metal>
0.0000

> <Gold.Chemscore.Lipo>
68.3837

> <Gold.Chemscore.Internal_Hbond>
0.0000

> <Gold.Chemscore.DEClash>
0.0818

> <Gold.Chemscore.DEInternal>
1.4131

> <Gold.Chemscore.Rot>
1.4658

> <Gold.Chemscore.Internal.Correction>
   9.000000E+99

> <Gold.Chemscore.Hbonds>
donor molecule, donor type, donor heavy atom, donor atom, acceptor molecule, acceptor atom, score
      L1  H     5    26       P1  7948  0.38
      L1  H     8    27       P1  7948  0.77
      L1  H    12    49       P1  7948  0.92

> <Gold.Chemscore.Hbond.Weighted>
-7.8156

> <Gold.Chemscore.Metal.Weighted>
-0.0000

> <Gold.Chemscore.Lipo.Weighted>
-8.0009

> <Gold.Chemscore.Internal_Hbond.Weighted>
0.0000

> <Gold.Chemscore.DEClash.Weighted>
0.0818

> <Gold.Chemscore.DEInternal.Weighted>
1.4131

> <Gold.Chemscore.Rot.Weighted>
3.7526

> <Gold.Chemscore.Internal.Correction.Weighted>
   9.000000E+99

> <Gold.Protein.RotatedTorsions>
[ 6907 6896 6895 6894 ] final  -59.70 input  -60.11 | X-H torsion
[ 7974 7965 7964 7962 ] final  -48.97 input  175.53 | X-H torsion
[ 8008 7997 7996 7995 ] final  -43.82 input   59.86 | X-H torsion
[ 10167 10162 10161 10158 ] final -102.02 input  -65.29 | X-H torsion
[ 10718 10713 10712 10709 ] final -139.82 input   66.30 | X-H torsion
[ 10763 10752 10751 10750 ] final -148.89 input  -60.55 | X-H torsion
[ 11005 11000 10999 10996 ] final  167.42 input  -57.11 | X-H torsion

> <Gold.Protein.ActiveResidues>
 VAL166  LYS551  ARG553  GLY616  TRP617  ASP618  TYR619  PRO620  LYS621  CYS622 
 ASP623  PHE694  ASN695  SER759  ASP760  ASP761  ALA762  ILE779  LEU786  VAL792 
 PHE793  MET794  SER795  GLU796  ALA797  LYS798  CYS799  TRP800  GLU811  SER814 

> <Gold.Protein.RotatedAtoms>
  150.7911  134.6934  159.6509 H   0  0  0  0  0  0  0  0  0  0  0  0  # atno 6907 bound_to 6896
  152.4016  134.6273  160.0076 H   0  0  0  0  0  0  0  0  0  0  0  0  # atno 6908 bound_to 6896
  151.6543  133.3283  159.3195 H   0  0  0  0  0  0  0  0  0  0  0  0  # atno 6909 bound_to 6896
  145.9455  140.7622  142.9531 H   0  0  0  0  0  0  0  0  0  0  0  0  # atno 7974 bound_to 7965
  154.3997  140.1438  156.3582 H   0  0  0  0  0  0  0  0  0  0  0  0  # atno 8008 bound_to 7997
  155.8206  140.3469  155.5491 H   0  0  0  0  0  0  0  0  0  0  0  0  # atno 8009 bound_to 7997
  155.8292  140.0909  157.1793 H   0  0  0  0  0  0  0  0  0  0  0  0  # atno 8010 bound_to 7997
  140.2352  143.3578  152.0851 H   0  0  0  0  0  0  0  0  0  0  0  0  # atno 10167 bound_to 10162
  156.3151  130.7503  151.1588 H   0  0  0  0  0  0  0  0  0  0  0  0  # atno 10718 bound_to 10713
  154.8208  135.3323  154.7043 H   0  0  0  0  0  0  0  0  0  0  0  0  # atno 10763 bound_to 10752
  153.7677  135.6928  153.4917 H   0  0  0  0  0  0  0  0  0  0  0  0  # atno 10764 bound_to 10752
  153.2066  135.4497  155.0279 H   0  0  0  0  0  0  0  0  0  0  0  0  # atno 10765 bound_to 10752
  140.2766  134.7784  157.3722 H   0  0  0  0  0  0  0  0  0  0  0  0  # atno 11005 bound_to 11000
  144.6786  140.2349  143.7351 LP  0  0  0  0  0  0  0  0  0  0  0  0  # atno 17320 bound_to 7965
  145.8242  139.2057  143.1920 LP  0  0  0  0  0  0  0  0  0  0  0  0  # atno 17321 bound_to 7965
  139.5096  144.6870  151.5860 LP  0  0  0  0  0  0  0  0  0  0  0  0  # atno 17342 bound_to 10162
  140.6155  143.9356  150.6485 LP  0  0  0  0  0  0  0  0  0  0  0  0  # atno 17343 bound_to 10162
  157.7400  131.0523  150.5197 LP  0  0  0  0  0  0  0  0  0  0  0  0  # atno 17370 bound_to 10713
  156.5341  130.4192  149.6186 LP  0  0  0  0  0  0  0  0  0  0  0  0  # atno 17371 bound_to 10713
  140.1322  134.5080  155.8096 LP  0  0  0  0  0  0  0  0  0  0  0  0  # atno 17394 bound_to 11000
  141.2169  133.6794  156.7060 LP  0  0  0  0  0  0  0  0  0  0  0  0  # atno 17395 bound_to 11000

$$$$
