AV-unprocessed.smi:2184|AV-procd|sdf|8874|dock6
  -GOLD-   2272012 73D 1   1.00000     0.00000
 Structure written by MMmdl.
 47 48  0  0  0  0  0  0  0  0  1 V2000
  149.5612  133.0714  154.7786 C   0  0  0  0  0  0  0  0  0  0  0  0
  150.1517  134.7852  154.7307 S   0  0  0  0  0  0  0  0  0  0  0  0
  148.6721  135.6799  155.2939 C   0  0  1  0  0  0  0  0  0  0  0  0
  148.2955  135.2356  156.7158 C   0  0  0  0  0  0  0  0  0  0  0  0
  148.8580  137.2008  155.2283 C   0  0  0  0  0  0  0  0  0  0  0  0
  148.6343  137.8972  156.2190 O   0  0  0  0  0  0  0  0  0  0  0  0
  149.2788  137.7040  154.0570 N   0  0  0  0  0  0  0  0  0  0  0  0
  149.5278  139.1183  153.7986 C   0  0  0  0  0  0  0  0  0  0  0  0
  150.1664  139.8456  154.9709 C   0  0  0  0  0  0  0  0  0  0  0  0
  151.2379  139.2680  155.6788 C   0  0  0  0  0  0  0  0  0  0  0  0
  151.8063  139.9747  156.7559 C   0  0  0  0  0  0  0  0  0  0  0  0
  151.2864  141.2488  157.0983 C   0  0  0  0  0  0  0  0  0  0  0  0
  151.8077  142.0130  158.1650 N   0  0  0  0  0  0  0  0  0  0  0  0
  151.3946  143.4057  158.2956 C   0  0  0  0  0  0  0  0  0  0  0  0
  152.3359  144.1579  159.2527 C   0  0  1  0  0  0  0  0  0  0  0  0
  151.8545  145.5874  159.5219 C   0  0  0  0  0  0  0  0  0  0  0  0
  152.3994  143.4705  160.5012 O   0  0  0  0  0  0  0  0  0  0  0  0
  152.8429  142.1147  160.4144 C   0  0  2  0  0  0  0  0  0  0  0  0
  154.3429  142.0120  160.0856 C   0  0  0  0  0  0  0  0  0  0  0  0
  151.9475  141.3196  159.4439 C   0  0  0  0  0  0  0  0  0  0  0  0
  150.2493  141.7942  156.4179 N   0  0  0  0  0  0  0  0  0  0  0  0
  149.7065  141.1105  155.3896 C   0  0  0  0  0  0  0  0  0  0  0  0
  150.3739  132.3892  154.5301 H   0  0  0  0  0  0  0  0  0  0  0  0
  148.7589  132.9219  154.0570 H   0  0  0  0  0  0  0  0  0  0  0  0
  149.1912  132.8207  155.7727 H   0  0  0  0  0  0  0  0  0  0  0  0
  147.8534  135.3963  154.6307 H   0  0  0  0  0  0  0  0  0  0  0  0
  147.4104  135.7620  157.0754 H   0  0  0  0  0  0  0  0  0  0  0  0
  149.1051  135.4218  157.4228 H   0  0  0  0  0  0  0  0  0  0  0  0
  148.0740  134.1685  156.7428 H   0  0  0  0  0  0  0  0  0  0  0  0
  149.4395  137.0632  153.2934 H   0  0  0  0  0  0  0  0  0  0  0  0
  150.1974  139.1960  152.9418 H   0  0  0  0  0  0  0  0  0  0  0  0
  148.5982  139.6115  153.5089 H   0  0  0  0  0  0  0  0  0  0  0  0
  151.6269  138.2998  155.3995 H   0  0  0  0  0  0  0  0  0  0  0  0
  152.6356  139.5311  157.2857 H   0  0  0  0  0  0  0  0  0  0  0  0
  151.4129  143.8975  157.3223 H   0  0  0  0  0  0  0  0  0  0  0  0
  150.3692  143.4424  158.6656 H   0  0  0  0  0  0  0  0  0  0  0  0
  153.3320  144.2168  158.8136 H   0  0  0  0  0  0  0  0  0  0  0  0
  151.7927  146.1614  158.5970 H   0  0  0  0  0  0  0  0  0  0  0  0
  152.5388  146.1089  160.1914 H   0  0  0  0  0  0  0  0  0  0  0  0
  150.8674  145.5911  159.9852 H   0  0  0  0  0  0  0  0  0  0  0  0
  152.7100  141.6890  161.4093 H   0  0  0  0  0  0  0  0  0  0  0  0
  154.6838  140.9794  160.1629 H   0  0  0  0  0  0  0  0  0  0  0  0
  154.9357  142.6070  160.7806 H   0  0  0  0  0  0  0  0  0  0  0  0
  154.5697  142.3505  159.0750 H   0  0  0  0  0  0  0  0  0  0  0  0
  150.9524  141.2039  159.8753 H   0  0  0  0  0  0  0  0  0  0  0  0
  152.3536  140.3152  159.3224 H   0  0  0  0  0  0  0  0  0  0  0  0
  148.8803  141.5911  154.8868 H   0  0  0  0  0  0  0  0  0  0  0  0
  1  2  1  0  0  0  0
  1 23  1  0  0  0  0
  1 24  1  0  0  0  0
  1 25  1  0  0  0  0
  2  3  1  0  0  0  0
  3  4  1  0  0  0  0
  3  5  1  0  0  0  0
  3 26  1  0  0  0  0
  4 27  1  0  0  0  0
  4 28  1  0  0  0  0
  4 29  1  0  0  0  0
  5  6  2  0  0  0  0
  5  7  1  0  0  0  0
  7  8  1  0  0  0  0
  7 30  1  0  0  0  0
  8  9  1  0  0  0  0
  8 31  1  0  0  0  0
  8 32  1  0  0  0  0
  9 22  1  0  0  0  0
  9 10  2  0  0  0  0
 10 11  1  0  0  0  0
 10 33  1  0  0  0  0
 11 12  2  0  0  0  0
 11 34  1  0  0  0  0
 12 13  1  0  0  0  0
 12 21  1  0  0  0  0
 13 20  1  0  0  0  0
 13 14  1  0  0  0  0
 14 15  1  0  0  0  0
 14 35  1  0  0  0  0
 14 36  1  0  0  0  0
 15 16  1  0  0  0  0
 15 17  1  0  0  0  0
 15 37  1  0  0  0  0
 16 38  1  0  0  0  0
 16 39  1  0  0  0  0
 16 40  1  0  0  0  0
 17 18  1  0  0  0  0
 18 19  1  0  0  0  0
 18 20  1  0  0  0  0
 18 41  1  0  0  0  0
 19 42  1  0  0  0  0
 19 43  1  0  0  0  0
 19 44  1  0  0  0  0
 20 45  1  0  0  0  0
 20 46  1  0  0  0  0
 21 22  2  0  0  0  0
 22 47  1  0  0  0  0
M  END
> <s_m_source_file>
AV-unprocessed.smi

> <i_m_source_file_index>
2184

> <i_lp_mmshare_version>
43012

> <i_f3d_flags>
0

> <s_epik_input>
W0NIM11TW0NASF0oW0NIM10pQyg9TylbTkhdW0NIMl1jMVtjSF1bY0hdYyhuW2NIXTEpTjJbQ0gyXVtDQEBIXShbQ0gzXSlPW0NAQEhdKFtDSDNdKVtDSDJdMg==

> <s_epik_cmdline>
J2VwaWtfcHl0aG9uJywgJy1waCcsICc3LjAnLCAnLXRuJywgJzgnLCAnLW1hJywgJzIwMCcsICctbWV0YWxfYmluZGluZycsICctaW1hZScsICc8aW5maWxlLm1hZT4nLCAnLW9tYWUnLCAnPG91dGZpbGUubWFlPic=

> <r_lp_tautomer_probability>
1

> <r_epik_Ionization_Penalty>
0.00551702

> <r_epik_Ionization_Penalty_Charging>
0

> <r_epik_Ionization_Penalty_Neutral>
0.00551702

> <r_epik_State_Penalty>
0.00403758

> <r_epik_Charging_Adjusted_Penalty>
0.00403758

> <i_epik_Tot_Q>
0

> <i_epik_Tot_abs_Q>
0

> <r_epik_Metal_State_Penalty>
-0

> <b_epik_Metal_Only>
0

> <s_lp_Force_Field>
OPLS_2005

> <r_lp_Energy>
17.8704

> <b_lp_Chiralities_Consistent>
1

> <s_lp_Variant>
AV-unprocessed.smi:2184-6

> <Gold.Version>
5.8.1

> <Gold.Id.Protein>
6NUR|6NUR_protein|mol2

> <Gold.PLP.Fitness>
42.5820

> <Gold.PLP.PLP>
-40.3902

> <Gold.PLP.part.hbond>
-1.0000

> <Gold.PLP.part.metal>
0.0000

> <Gold.PLP.part.buried>
-2.1058

> <Gold.PLP.part.nonpolar>
-37.1445

> <Gold.PLP.part.repulsive>
0.1862

> <Gold.PLP.ligand.clash>
0.0000

> <Gold.PLP.ligand.torsion>
0.6293

> <Gold.PLP.Chemscore.Hbond>
1.0000

> <Gold.PLP.Chemscore.CHOScore>
0.0000

> <Gold.PLP.Chemscore.Metal>
0.0000

> <Gold.Chemscore.Hbonds>
donor molecule, donor type, donor heavy atom, donor atom, acceptor molecule, acceptor atom, score
      L1  H     7    30       P1  7948  1.00

> <Gold.PLP.Chemscore.Internal.Correction>
0.4503

> <Gold.Rescore>
     Score         DG    S(hbond)    S(metal)    S(lipo)     H(rot)  DE(clash)    DE(int)     intcor
     15.35     -17.74       1.00        0.00     111.21       1.59       0.48       1.90       ----

> <Gold.Chemscore.Fitness>
15.3534

> <Gold.Chemscore.DG>
-17.7364

> <Gold.Chemscore.ZeroCoef>
-5.4800

> <Gold.Chemscore.Hbond>
0.9960

> <Gold.Chemscore.Metal>
0.0000

> <Gold.Chemscore.Lipo>
111.2142

> <Gold.Chemscore.Internal_Hbond>
0.0000

> <Gold.Chemscore.DEClash>
0.4786

> <Gold.Chemscore.DEInternal>
1.9045

> <Gold.Chemscore.Rot>
1.5947

> <Gold.Chemscore.Internal.Correction>
   9.000000E+99

> <Gold.Chemscore.Hbonds>
donor molecule, donor type, donor heavy atom, donor atom, acceptor molecule, acceptor atom, score
      L1  H     7    30       P1  7948  0.88

> <Gold.Chemscore.Hbond.Weighted>
-3.3268

> <Gold.Chemscore.Metal.Weighted>
-0.0000

> <Gold.Chemscore.Lipo.Weighted>
-13.0121

> <Gold.Chemscore.Internal_Hbond.Weighted>
0.0000

> <Gold.Chemscore.DEClash.Weighted>
0.4786

> <Gold.Chemscore.DEInternal.Weighted>
1.9045

> <Gold.Chemscore.Rot.Weighted>
4.0824

> <Gold.Chemscore.Internal.Correction.Weighted>
   9.000000E+99

> <Gold.Protein.RotatedTorsions>
[ 6907 6896 6895 6894 ] final   29.55 input  -60.11 | X-H torsion
[ 7974 7965 7964 7962 ] final  144.65 input  175.53 | X-H torsion
[ 8008 7997 7996 7995 ] final -106.33 input   59.86 | X-H torsion
[ 10167 10162 10161 10158 ] final  -50.25 input  -65.29 | X-H torsion
[ 10718 10713 10712 10709 ] final   20.86 input   66.30 | X-H torsion
[ 10763 10752 10751 10750 ] final -160.43 input  -60.55 | X-H torsion
[ 11005 11000 10999 10996 ] final -149.25 input  -57.11 | X-H torsion

> <Gold.Protein.ActiveResidues>
 VAL166  LYS551  ARG553  GLY616  TRP617  ASP618  TYR619  PRO620  LYS621  CYS622 
 ASP623  PHE694  ASN695  SER759  ASP760  ASP761  ALA762  ILE779  LEU786  VAL792 
 PHE793  MET794  SER795  GLU796  ALA797  LYS798  CYS799  TRP800  GLU811  SER814 

> <Gold.Protein.RotatedAtoms>
  152.0331  134.9756  160.0572 H   0  0  0  0  0  0  0  0  0  0  0  0  # atno 6907 bound_to 6896
  152.1224  133.4356  159.4690 H   0  0  0  0  0  0  0  0  0  0  0  0  # atno 6908 bound_to 6896
  150.6850  134.2437  159.4526 H   0  0  0  0  0  0  0  0  0  0  0  0  # atno 6909 bound_to 6896
  144.8818  139.5687  143.5839 H   0  0  0  0  0  0  0  0  0  0  0  0  # atno 7974 bound_to 7965
  154.9130  140.0409  157.1956 H   0  0  0  0  0  0  0  0  0  0  0  0  # atno 8008 bound_to 7997
  154.8329  140.2902  155.5689 H   0  0  0  0  0  0  0  0  0  0  0  0  # atno 8009 bound_to 7997
  156.2988  140.2497  156.3258 H   0  0  0  0  0  0  0  0  0  0  0  0  # atno 8010 bound_to 7997
  140.6647  143.2665  151.4332 H   0  0  0  0  0  0  0  0  0  0  0  0  # atno 10167 bound_to 10162
  157.1303  130.6588  149.5950 H   0  0  0  0  0  0  0  0  0  0  0  0  # atno 10718 bound_to 10713
  154.7391  135.3064  154.8759 H   0  0  0  0  0  0  0  0  0  0  0  0  # atno 10763 bound_to 10752
  153.9579  135.6756  153.4749 H   0  0  0  0  0  0  0  0  0  0  0  0  # atno 10764 bound_to 10752
  153.0991  135.4921  154.8758 H   0  0  0  0  0  0  0  0  0  0  0  0  # atno 10765 bound_to 10752
  140.7528  134.3387  157.5122 H   0  0  0  0  0  0  0  0  0  0  0  0  # atno 11005 bound_to 11000
  146.2999  139.7395  142.9099 LP  0  0  0  0  0  0  0  0  0  0  0  0  # atno 17320 bound_to 7965
  145.3940  141.0376  143.3108 LP  0  0  0  0  0  0  0  0  0  0  0  0  # atno 17321 bound_to 7965
  139.5891  144.1538  152.2066 LP  0  0  0  0  0  0  0  0  0  0  0  0  # atno 17342 bound_to 10162
  140.0887  144.5639  150.7070 LP  0  0  0  0  0  0  0  0  0  0  0  0  # atno 17343 bound_to 10162
  155.9809  130.4813  150.6799 LP  0  0  0  0  0  0  0  0  0  0  0  0  # atno 17370 bound_to 10713
  157.4398  131.0860  151.0955 LP  0  0  0  0  0  0  0  0  0  0  0  0  # atno 17371 bound_to 10713
  139.8784  134.9152  156.3126 LP  0  0  0  0  0  0  0  0  0  0  0  0  # atno 17394 bound_to 11000
  140.9735  133.7312  156.0569 LP  0  0  0  0  0  0  0  0  0  0  0  0  # atno 17395 bound_to 11000

$$$$
