AV-unprocessed.smi:2024|AV-procd|sdf|8191|dock3
  -GOLD-   2272010443D 1   1.00000     0.00000
 Structure written by MMmdl.
 44 45  0  0  0  0  0  0  0  0  2 V2000
  142.1163  141.2796  155.4749 C   0  0  0  0  0  0  0  0  0  0  0  0
  143.5180  141.7243  155.2979 N   0  3  0  0  0  0  0  0  0  0  0  0
  144.4049  141.3839  156.4335 C   0  0  0  0  0  0  0  0  0  0  0  0
  144.1720  142.3238  157.6334 C   0  0  0  0  0  0  0  0  0  0  0  0
  144.4102  143.7244  157.2457 N   0  0  0  0  0  0  0  0  0  0  0  0
  144.4510  144.6836  158.3835 C   0  0  0  0  0  0  0  0  0  0  0  0
  144.9485  146.0648  157.8858 C   0  0  0  0  0  0  0  0  0  0  0  0
  143.0561  144.8701  159.0277 C   0  0  0  0  0  0  0  0  0  0  0  0
  145.4418  144.1869  159.4793 C   0  0  0  0  0  0  0  0  0  0  0  0
  146.8359  144.1691  159.0336 N   0  0  0  0  0  0  0  0  0  0  0  0
  147.9047  143.9509  159.8135 C   0  0  0  0  0  0  0  0  0  0  0  0
  147.8313  143.7249  161.0215 O   0  0  0  0  0  0  0  0  0  0  0  0
  149.0449  144.0226  159.1046 N   0  0  0  0  0  0  0  0  0  0  0  0
  150.3773  143.8568  159.5659 C   0  0  0  0  0  0  0  0  0  0  0  0
  150.7402  143.8881  160.8535 N   0  0  0  0  0  0  0  0  0  0  0  0
  152.1143  143.6948  161.0158 C   0  0  0  0  0  0  0  0  0  0  0  0
  152.7873  143.5176  159.8325 C   0  0  0  0  0  0  0  0  0  0  0  0
  151.7153  143.5843  158.4593 S   0  0  0  0  0  0  0  0  0  0  0  0
  143.4409  144.0585  156.1885 C   0  0  0  0  0  0  0  0  0  0  0  0
  143.6551  143.1580  154.9551 C   0  0  0  0  0  0  0  0  0  0  0  0
  141.6332  141.7734  156.3180 H   0  0  0  0  0  0  0  0  0  0  0  0
  142.0772  140.2034  155.6447 H   0  0  0  0  0  0  0  0  0  0  0  0
  141.5333  141.4930  154.5784 H   0  0  0  0  0  0  0  0  0  0  0  0
  144.2528  140.3446  156.7270 H   0  0  0  0  0  0  0  0  0  0  0  0
  145.4421  141.4619  156.1041 H   0  0  0  0  0  0  0  0  0  0  0  0
  143.1625  142.1964  158.0243 H   0  0  0  0  0  0  0  0  0  0  0  0
  144.8545  142.0116  158.4204 H   0  0  0  0  0  0  0  0  0  0  0  0
  145.1998  146.7162  158.7238 H   0  0  0  0  0  0  0  0  0  0  0  0
  144.1935  146.5992  157.3098 H   0  0  0  0  0  0  0  0  0  0  0  0
  145.8416  145.9774  157.2659 H   0  0  0  0  0  0  0  0  0  0  0  0
  143.1046  145.5911  159.8446 H   0  0  0  0  0  0  0  0  0  0  0  0
  142.6678  143.9448  159.4525 H   0  0  0  0  0  0  0  0  0  0  0  0
  142.3190  145.2496  158.3204 H   0  0  0  0  0  0  0  0  0  0  0  0
  145.3404  144.8037  160.3742 H   0  0  0  0  0  0  0  0  0  0  0  0
  145.1864  143.1853  159.8230 H   0  0  0  0  0  0  0  0  0  0  0  0
  146.9966  144.3507  158.0541 H   0  0  0  0  0  0  0  0  0  0  0  0
  148.9503  144.2231  158.1203 H   0  0  0  0  0  0  0  0  0  0  0  0
  152.5306  143.6981  162.0122 H   0  0  0  0  0  0  0  0  0  0  0  0
  153.8445  143.3523  159.6861 H   0  0  0  0  0  0  0  0  0  0  0  0
  142.4190  143.9649  156.5558 H   0  0  0  0  0  0  0  0  0  0  0  0
  143.5619  145.0863  155.8532 H   0  0  0  0  0  0  0  0  0  0  0  0
  144.6531  143.3266  154.5479 H   0  0  0  0  0  0  0  0  0  0  0  0
  142.9522  143.4200  154.1634 H   0  0  0  0  0  0  0  0  0  0  0  0
  143.8626  141.2067  154.5020 H   0  0  0  0  0  0  0  0  0  0  0  0
  1  2  1  0  0  0  0
  1 21  1  0  0  0  0
  1 22  1  0  0  0  0
  1 23  1  0  0  0  0
  2 20  1  0  0  0  0
  2  3  1  0  0  0  0
  2 44  1  0  0  0  0
  3  4  1  0  0  0  0
  3 24  1  0  0  0  0
  3 25  1  0  0  0  0
  4  5  1  0  0  0  0
  4 26  1  0  0  0  0
  4 27  1  0  0  0  0
  5  6  1  0  0  0  0
  5 19  1  0  0  0  0
  6  7  1  0  0  0  0
  6  8  1  0  0  0  0
  6  9  1  0  0  0  0
  7 28  1  0  0  0  0
  7 29  1  0  0  0  0
  7 30  1  0  0  0  0
  8 31  1  0  0  0  0
  8 32  1  0  0  0  0
  8 33  1  0  0  0  0
  9 10  1  0  0  0  0
  9 34  1  0  0  0  0
  9 35  1  0  0  0  0
 10 11  1  0  0  0  0
 10 36  1  0  0  0  0
 11 12  2  0  0  0  0
 11 13  1  0  0  0  0
 13 14  1  0  0  0  0
 13 37  1  0  0  0  0
 14 18  1  0  0  0  0
 14 15  2  0  0  0  0
 15 16  1  0  0  0  0
 16 17  2  0  0  0  0
 16 38  1  0  0  0  0
 17 18  1  0  0  0  0
 17 39  1  0  0  0  0
 19 20  1  0  0  0  0
 19 40  1  0  0  0  0
 19 41  1  0  0  0  0
 20 42  1  0  0  0  0
 20 43  1  0  0  0  0
M  CHG  1   2   1
M  END
> <s_m_source_file>
AV-unprocessed.smi

> <i_m_source_file_index>
2024

> <i_lp_mmshare_version>
43012

> <i_f3d_flags>
0

> <s_epik_input>
W0NIM11OMVtDSDJdW0NIMl1OKFtDSDJdW0NIMl0xKUMoW0NIM10pKFtDSDNdKVtDSDJdW05IXUMoPU8pW05IXWMybltjSF1bY0hdczI=

> <s_epik_cmdline>
J2VwaWtfcHl0aG9uJywgJy1waCcsICc3LjAnLCAnLXRuJywgJzgnLCAnLW1hJywgJzIwMCcsICctbWV0YWxfYmluZGluZycsICctaW1hZScsICc8aW5maWxlLm1hZT4nLCAnLW9tYWUnLCAnPG91dGZpbGUubWFlPic=

> <r_lp_tautomer_probability>
0.999

> <r_epik_Ionization_Penalty>
0.025257

> <r_epik_Ionization_Penalty_Charging>
0.0242302

> <r_epik_Ionization_Penalty_Neutral>
0.00102675

> <r_epik_State_Penalty>
0.128805

> <r_epik_Charging_Adjusted_Penalty>
0.153036

> <i_epik_Tot_Q>
1

> <i_epik_Tot_abs_Q>
1

> <r_epik_Metal_State_Penalty>
0.161314

> <b_epik_Metal_Only>
0

> <s_lp_Force_Field>
OPLS_2005

> <r_lp_Energy>
25.0383

> <b_lp_Chiralities_Consistent>
1

> <s_lp_Variant>
AV-unprocessed.smi:2024-1

> <Gold.Version>
5.8.1

> <Gold.Id.Protein>
6NUR|6NUR_protein|mol2

> <Gold.PLP.Fitness>
42.5270

> <Gold.PLP.PLP>
-34.3701

> <Gold.PLP.part.hbond>
-3.9514

> <Gold.PLP.part.metal>
0.0000

> <Gold.PLP.part.buried>
-6.9795

> <Gold.PLP.part.nonpolar>
-24.7242

> <Gold.PLP.part.repulsive>
0.6882

> <Gold.PLP.ligand.clash>
0.0000

> <Gold.PLP.ligand.torsion>
0.2072

> <Gold.PLP.Chemscore.Hbond>
2.8480

> <Gold.PLP.Chemscore.CHOScore>
0.0000

> <Gold.PLP.Chemscore.Metal>
0.0000

> <Gold.Chemscore.Hbonds>
donor molecule, donor type, donor heavy atom, donor atom, acceptor molecule, acceptor atom, score
      L1  H     2    44       P1 10175  1.56
      L1  H    10    36       P1  8029  0.54
      L1  H    13    37       P1  8029  0.26
      P1  H  6933  6944       L1    12  1.00

> <Gold.PLP.Chemscore.Internal.Correction>
0.0273

> <Gold.Rescore>
     Score         DG    S(hbond)    S(metal)    S(lipo)     H(rot)  DE(clash)    DE(int)     intcor
     19.09     -19.65       2.70        0.00      78.98       1.60       0.07       0.49       ----

> <Gold.Chemscore.Fitness>
19.0912

> <Gold.Chemscore.DG>
-19.6537

> <Gold.Chemscore.ZeroCoef>
-5.4800

> <Gold.Chemscore.Hbond>
2.7024

> <Gold.Chemscore.Metal>
0.0000

> <Gold.Chemscore.Lipo>
78.9843

> <Gold.Chemscore.Internal_Hbond>
0.0000

> <Gold.Chemscore.DEClash>
0.0727

> <Gold.Chemscore.DEInternal>
0.4897

> <Gold.Chemscore.Rot>
1.5991

> <Gold.Chemscore.Internal.Correction>
   9.000000E+99

> <Gold.Chemscore.Hbonds>
donor molecule, donor type, donor heavy atom, donor atom, acceptor molecule, acceptor atom, score
      L1  H     2    44       P1 10175  0.51
      L1  H    10    36       P1  8029  0.25
      L1  H    13    37       P1  8029  0.04
      P1  H  6933  6944       L1    12  0.86

> <Gold.Chemscore.Hbond.Weighted>
-9.0261

> <Gold.Chemscore.Metal.Weighted>
-0.0000

> <Gold.Chemscore.Lipo.Weighted>
-9.2412

> <Gold.Chemscore.Internal_Hbond.Weighted>
0.0000

> <Gold.Chemscore.DEClash.Weighted>
0.0727

> <Gold.Chemscore.DEInternal.Weighted>
0.4897

> <Gold.Chemscore.Rot.Weighted>
4.0936

> <Gold.Chemscore.Internal.Correction.Weighted>
   9.000000E+99

> <Gold.Protein.RotatedTorsions>
[ 6907 6896 6895 6894 ] final -177.05 input  -60.11 | X-H torsion
[ 7974 7965 7964 7962 ] final   11.70 input  175.53 | X-H torsion
[ 8008 7997 7996 7995 ] final -136.28 input   59.86 | X-H torsion
[ 10167 10162 10161 10158 ] final   98.64 input  -65.29 | X-H torsion
[ 10718 10713 10712 10709 ] final   -4.75 input   66.30 | X-H torsion
[ 10763 10752 10751 10750 ] final  107.33 input  -60.55 | X-H torsion
[ 11005 11000 10999 10996 ] final  147.36 input  -57.11 | X-H torsion

> <Gold.Protein.ActiveResidues>
 VAL166  LYS551  ARG553  GLY616  TRP617  ASP618  TYR619  PRO620  LYS621  CYS622 
 ASP623  PHE694  ASN695  SER759  ASP760  ASP761  ALA762  ILE779  LEU786  VAL792 
 PHE793  MET794  SER795  GLU796  ALA797  LYS798  CYS799  TRP800  GLU811  SER814 

> <Gold.Protein.RotatedAtoms>
  151.6148  133.3344  159.3074 H   0  0  0  0  0  0  0  0  0  0  0  0  # atno 6907 bound_to 6896
  150.8137  134.7310  159.6722 H   0  0  0  0  0  0  0  0  0  0  0  0  # atno 6908 bound_to 6896
  152.4233  134.5919  160.0028 H   0  0  0  0  0  0  0  0  0  0  0  0  # atno 6909 bound_to 6896
  146.2366  139.9445  142.8478 H   0  0  0  0  0  0  0  0  0  0  0  0  # atno 7974 bound_to 7965
  155.3926  140.0501  157.3040 H   0  0  0  0  0  0  0  0  0  0  0  0  # atno 8008 bound_to 7997
  154.5029  140.2163  155.9271 H   0  0  0  0  0  0  0  0  0  0  0  0  # atno 8009 bound_to 7997
  156.1490  140.3139  155.8622 H   0  0  0  0  0  0  0  0  0  0  0  0  # atno 8010 bound_to 7997
  139.7690  144.6929  151.0182 H   0  0  0  0  0  0  0  0  0  0  0  0  # atno 10167 bound_to 10162
  156.7567  130.5256  149.5793 H   0  0  0  0  0  0  0  0  0  0  0  0  # atno 10718 bound_to 10713
  153.4053  135.3848  155.2015 H   0  0  0  0  0  0  0  0  0  0  0  0  # atno 10763 bound_to 10752
  154.8733  135.3781  154.4568 H   0  0  0  0  0  0  0  0  0  0  0  0  # atno 10764 bound_to 10752
  153.5070  135.7087  153.5863 H   0  0  0  0  0  0  0  0  0  0  0  0  # atno 10765 bound_to 10752
  140.0869  134.9064  157.1590 H   0  0  0  0  0  0  0  0  0  0  0  0  # atno 11005 bound_to 11000
  145.1920  140.9816  143.4205 LP  0  0  0  0  0  0  0  0  0  0  0  0  # atno 17320 bound_to 7965
  144.9849  139.3747  143.6244 LP  0  0  0  0  0  0  0  0  0  0  0  0  # atno 17321 bound_to 7965
  140.7813  143.4609  151.0279 LP  0  0  0  0  0  0  0  0  0  0  0  0  # atno 17342 bound_to 10162
  139.8294  143.7712  152.3179 LP  0  0  0  0  0  0  0  0  0  0  0  0  # atno 17343 bound_to 10162
  156.1365  130.6215  151.0408 LP  0  0  0  0  0  0  0  0  0  0  0  0  # atno 17370 bound_to 10713
  157.6753  131.0852  150.7510 LP  0  0  0  0  0  0  0  0  0  0  0  0  # atno 17371 bound_to 10713
  140.3407  134.2707  155.7212 LP  0  0  0  0  0  0  0  0  0  0  0  0  # atno 17394 bound_to 11000
  141.2065  133.7830  157.0170 LP  0  0  0  0  0  0  0  0  0  0  0  0  # atno 17395 bound_to 11000

$$$$
