AV-unprocessed.smi:1397|AV-procd|sdf|5679|dock6
  -GOLD-   22720 5303D 1   1.00000     0.00000
 Structure written by MMmdl.
 37 38  0  0  0  0  0  0  0  0  1 V2000
  149.4178  140.9181  156.2702 C   0  0  0  0  0  0  0  0  0  0  0  0
  148.8153  141.2329  154.8991 C   0  0  0  0  0  0  0  0  0  0  0  0
  149.4315  142.0005  154.1598 O   0  0  0  0  0  0  0  0  0  0  0  0
  147.6387  140.6616  154.5449 N   0  0  0  0  0  0  0  0  0  0  0  0
  147.0241  140.8614  153.2269 C   0  0  0  0  0  0  0  0  0  0  0  0
  147.0926  139.5428  152.4355 C   0  0  0  0  0  0  0  0  0  0  0  0
  146.4303  138.3851  153.2166 C   0  0  0  0  0  0  0  0  0  0  0  0
  146.6608  137.1092  152.5452 N   0  0  0  0  0  0  0  0  0  0  0  0
  145.7007  136.2822  152.1056 C   0  0  0  0  0  0  0  0  0  0  0  0
  144.4974  136.5202  152.2152 O   0  0  0  0  0  0  0  0  0  0  0  0
  146.2275  135.1810  151.5414 N   0  0  0  0  0  0  0  0  0  0  0  0
  145.5447  134.0719  150.9737 C   0  0  0  0  0  0  0  0  0  0  0  0
  146.3797  133.0481  150.4713 C   0  0  0  0  0  0  0  0  0  0  0  0
  145.8001  131.9042  149.8890 C   0  0  0  0  0  0  0  0  0  0  0  0
  144.3983  131.8135  149.8236 C   0  0  0  0  0  0  0  0  0  0  0  0
  143.6397  132.8772  150.3463 C   0  0  0  0  0  0  0  0  0  0  0  0
  144.1933  133.9741  150.9050 N   0  0  0  0  0  0  0  0  0  0  0  0
  146.9576  138.3140  154.6653 C   0  0  0  0  0  0  0  0  0  0  0  0
  146.8883  139.6903  155.3512 C   0  0  0  0  0  0  0  0  0  0  0  0
  149.5976  139.8481  156.3779 H   0  0  0  0  0  0  0  0  0  0  0  0
  148.7541  141.2497  157.0691 H   0  0  0  0  0  0  0  0  0  0  0  0
  150.3722  141.4301  156.3976 H   0  0  0  0  0  0  0  0  0  0  0  0
  145.9846  141.1666  153.3556 H   0  0  0  0  0  0  0  0  0  0  0  0
  147.4985  141.6600  152.6550 H   0  0  0  0  0  0  0  0  0  0  0  0
  146.6097  139.6685  151.4656 H   0  0  0  0  0  0  0  0  0  0  0  0
  148.1374  139.3025  152.2320 H   0  0  0  0  0  0  0  0  0  0  0  0
  145.3559  138.5738  153.2666 H   0  0  0  0  0  0  0  0  0  0  0  0
  147.6230  136.8351  152.4108 H   0  0  0  0  0  0  0  0  0  0  0  0
  147.2349  135.1259  151.5213 H   0  0  0  0  0  0  0  0  0  0  0  0
  147.4553  133.1337  150.5298 H   0  0  0  0  0  0  0  0  0  0  0  0
  146.4209  131.1107  149.4997 H   0  0  0  0  0  0  0  0  0  0  0  0
  143.9173  130.9522  149.3841 H   0  0  0  0  0  0  0  0  0  0  0  0
  142.5606  132.8478  150.3142 H   0  0  0  0  0  0  0  0  0  0  0  0
  146.3828  137.5843  155.2367 H   0  0  0  0  0  0  0  0  0  0  0  0
  147.9917  137.9651  154.6682 H   0  0  0  0  0  0  0  0  0  0  0  0
  147.2398  139.6085  156.3785 H   0  0  0  0  0  0  0  0  0  0  0  0
  145.8498  140.0163  155.4256 H   0  0  0  0  0  0  0  0  0  0  0  0
  1  2  1  0  0  0  0
  1 20  1  0  0  0  0
  1 21  1  0  0  0  0
  1 22  1  0  0  0  0
  2  3  2  0  0  0  0
  2  4  1  0  0  0  0
  4 19  1  0  0  0  0
  4  5  1  0  0  0  0
  5  6  1  0  0  0  0
  5 23  1  0  0  0  0
  5 24  1  0  0  0  0
  6  7  1  0  0  0  0
  6 25  1  0  0  0  0
  6 26  1  0  0  0  0
  7  8  1  0  0  0  0
  7 18  1  0  0  0  0
  7 27  1  0  0  0  0
  8  9  1  0  0  0  0
  8 28  1  0  0  0  0
  9 10  2  0  0  0  0
  9 11  1  0  0  0  0
 11 12  1  0  0  0  0
 11 29  1  0  0  0  0
 12 17  1  0  0  0  0
 12 13  2  0  0  0  0
 13 14  1  0  0  0  0
 13 30  1  0  0  0  0
 14 15  2  0  0  0  0
 14 31  1  0  0  0  0
 15 16  1  0  0  0  0
 15 32  1  0  0  0  0
 16 17  2  0  0  0  0
 16 33  1  0  0  0  0
 18 19  1  0  0  0  0
 18 34  1  0  0  0  0
 18 35  1  0  0  0  0
 19 36  1  0  0  0  0
 19 37  1  0  0  0  0
M  END
> <s_m_source_file>
AV-unprocessed.smi

> <i_m_source_file_index>
1397

> <i_lp_mmshare_version>
43012

> <i_f3d_flags>
0

> <s_epik_input>
W0NIM11DKD1PKU4xW0NIMl1bQ0gyXVtDSF0oW0NIMl1bQ0gyXTEpW05IXUMoPU8pW05IXWMyW2NIXVtjSF1bY0hdW2NIXW4y

> <s_epik_cmdline>
J2VwaWtfcHl0aG9uJywgJy1waCcsICc3LjAnLCAnLXRuJywgJzgnLCAnLW1hJywgJzIwMCcsICctbWV0YWxfYmluZGluZycsICctaW1hZScsICc8aW5maWxlLm1hZT4nLCAnLW9tYWUnLCAnPG91dGZpbGUubWFlPic=

> <r_lp_tautomer_probability>
1

> <r_epik_Ionization_Penalty>
4.8787e-05

> <r_epik_Ionization_Penalty_Charging>
0

> <r_epik_Ionization_Penalty_Neutral>
4.8787e-05

> <r_epik_State_Penalty>
-0

> <r_epik_Charging_Adjusted_Penalty>
0

> <i_epik_Tot_Q>
0

> <i_epik_Tot_abs_Q>
0

> <r_epik_Metal_State_Penalty>
-0

> <b_epik_Metal_Only>
0

> <s_lp_Force_Field>
OPLS_2005

> <r_lp_Energy>
25.5882

> <b_lp_Chiralities_Consistent>
1

> <s_lp_Variant>
AV-unprocessed.smi:1397-1

> <Gold.Version>
5.8.1

> <Gold.Id.Protein>
6NUR|6NUR_protein|mol2

> <Gold.PLP.Fitness>
38.3970

> <Gold.PLP.PLP>
-28.6250

> <Gold.PLP.part.hbond>
-4.0000

> <Gold.PLP.part.metal>
0.0000

> <Gold.PLP.part.buried>
1.2951

> <Gold.PLP.part.nonpolar>
-27.2610

> <Gold.PLP.part.repulsive>
0.6632

> <Gold.PLP.ligand.clash>
0.0000

> <Gold.PLP.ligand.torsion>
0.0165

> <Gold.PLP.Chemscore.Hbond>
2.2640

> <Gold.PLP.Chemscore.CHOScore>
1.0000

> <Gold.PLP.Chemscore.Metal>
0.0000

> <Gold.Chemscore.Hbonds>
donor molecule, donor type, donor heavy atom, donor atom, acceptor molecule, acceptor atom, score
      L1  H     8    28       P1  7948  1.00
      L1  H    11    29       P1  7948  0.88
      P1  H  8011  8017       L1     3  0.38
      L1  C    16    33       P1 10186  1.00

> <Gold.PLP.Chemscore.Internal.Correction>
0.0131

> <Gold.Rescore>
     Score         DG    S(hbond)    S(metal)    S(lipo)     H(rot)  DE(clash)    DE(int)     intcor
     15.57     -18.07       2.13        0.00      68.77       1.00       1.20       1.30       ----

> <Gold.Chemscore.Fitness>
15.5736

> <Gold.Chemscore.DG>
-18.0678

> <Gold.Chemscore.ZeroCoef>
-5.4800

> <Gold.Chemscore.Hbond>
2.1263

> <Gold.Chemscore.Metal>
0.0000

> <Gold.Chemscore.Lipo>
68.7694

> <Gold.Chemscore.Internal_Hbond>
0.0000

> <Gold.Chemscore.DEClash>
1.1962

> <Gold.Chemscore.DEInternal>
1.2981

> <Gold.Chemscore.Rot>
1.0000

> <Gold.Chemscore.Internal.Correction>
   9.000000E+99

> <Gold.Chemscore.Hbonds>
donor molecule, donor type, donor heavy atom, donor atom, acceptor molecule, acceptor atom, score
      L1  H     8    28       P1  7948  0.95
      L1  H    11    29       P1  7948  0.70
      P1  H  8011  8017       L1     3  0.38

> <Gold.Chemscore.Hbond.Weighted>
-7.1018

> <Gold.Chemscore.Metal.Weighted>
-0.0000

> <Gold.Chemscore.Lipo.Weighted>
-8.0460

> <Gold.Chemscore.Internal_Hbond.Weighted>
0.0000

> <Gold.Chemscore.DEClash.Weighted>
1.1962

> <Gold.Chemscore.DEInternal.Weighted>
1.2981

> <Gold.Chemscore.Rot.Weighted>
2.5600

> <Gold.Chemscore.Internal.Correction.Weighted>
   9.000000E+99

> <Gold.Protein.RotatedTorsions>
[ 6907 6896 6895 6894 ] final -103.01 input  -60.11 | X-H torsion
[ 7974 7965 7964 7962 ] final   -0.45 input  175.53 | X-H torsion
[ 8008 7997 7996 7995 ] final  118.40 input   59.86 | X-H torsion
[ 10167 10162 10161 10158 ] final -126.62 input  -65.29 | X-H torsion
[ 10718 10713 10712 10709 ] final -119.19 input   66.30 | X-H torsion
[ 10763 10752 10751 10750 ] final  -97.73 input  -60.55 | X-H torsion
[ 11005 11000 10999 10996 ] final   74.41 input  -57.11 | X-H torsion

> <Gold.Protein.ActiveResidues>
 VAL166  LYS551  ARG553  GLY616  TRP617  ASP618  TYR619  PRO620  LYS621  CYS622 
 ASP623  PHE694  ASN695  SER759  ASP760  ASP761  ALA762  ILE779  LEU786  VAL792 
 PHE793  MET794  SER795  GLU796  ALA797  LYS798  CYS799  TRP800  GLU811  SER814 

> <Gold.Protein.RotatedAtoms>
  150.7221  134.0494  159.3792 H   0  0  0  0  0  0  0  0  0  0  0  0  # atno 6907 bound_to 6896
  151.8470  135.0568  160.0464 H   0  0  0  0  0  0  0  0  0  0  0  0  # atno 6908 bound_to 6896
  152.2819  133.5442  159.5539 H   0  0  0  0  0  0  0  0  0  0  0  0  # atno 6909 bound_to 6896
  146.2427  140.1272  142.8339 H   0  0  0  0  0  0  0  0  0  0  0  0  # atno 7974 bound_to 7965
  156.2544  140.2875  156.0829 H   0  0  0  0  0  0  0  0  0  0  0  0  # atno 8008 bound_to 7997
  155.1547  140.0398  157.2846 H   0  0  0  0  0  0  0  0  0  0  0  0  # atno 8009 bound_to 7997
  154.6435  140.2528  155.7301 H   0  0  0  0  0  0  0  0  0  0  0  0  # atno 8010 bound_to 7997
  139.9695  143.5861  152.2417 H   0  0  0  0  0  0  0  0  0  0  0  0  # atno 10167 bound_to 10162
  156.1162  130.6288  150.9385 H   0  0  0  0  0  0  0  0  0  0  0  0  # atno 10718 bound_to 10713
  154.7353  135.5035  153.9032 H   0  0  0  0  0  0  0  0  0  0  0  0  # atno 10763 bound_to 10752
  153.0989  135.6680  153.9718 H   0  0  0  0  0  0  0  0  0  0  0  0  # atno 10764 bound_to 10752
  153.9509  135.3058  155.3418 H   0  0  0  0  0  0  0  0  0  0  0  0  # atno 10765 bound_to 10752
  139.9392  134.7430  156.1144 H   0  0  0  0  0  0  0  0  0  0  0  0  # atno 11005 bound_to 11000
  145.0356  140.8905  143.5083 LP  0  0  0  0  0  0  0  0  0  0  0  0  # atno 17320 bound_to 7965
  145.1344  139.2611  143.5523 LP  0  0  0  0  0  0  0  0  0  0  0  0  # atno 17321 bound_to 7965
  139.6492  144.7660  151.2183 LP  0  0  0  0  0  0  0  0  0  0  0  0  # atno 17342 bound_to 10162
  140.7526  143.6189  150.8532 LP  0  0  0  0  0  0  0  0  0  0  0  0  # atno 17343 bound_to 10162
  157.6346  131.0917  150.8375 LP  0  0  0  0  0  0  0  0  0  0  0  0  # atno 17370 bound_to 10713
  156.8478  130.5070  149.5315 LP  0  0  0  0  0  0  0  0  0  0  0  0  # atno 17371 bound_to 10713
  141.1020  133.6674  156.2776 LP  0  0  0  0  0  0  0  0  0  0  0  0  # atno 17394 bound_to 11000
  140.5995  134.5569  157.5515 LP  0  0  0  0  0  0  0  0  0  0  0  0  # atno 17395 bound_to 11000

$$$$
