AV-unprocessed.smi:1033|AV-procd|sdf|4501|dock4
  -GOLD-   22720 2493D 1   1.00000     0.00000
 Structure written by MMmdl.
 57 59  0  0  0  0  0  0  0  0  3 V2000
  152.4656  143.3748  160.4113 C   0  0  0  0  0  0  0  0  0  0  0  0
  152.1323  142.5039  159.2117 C   0  0  0  0  0  0  0  0  0  0  0  0
  151.1915  142.9826  158.2718 C   0  0  0  0  0  0  0  0  0  0  0  0
  150.9086  142.1641  157.1847 C   0  0  0  0  0  0  0  0  0  0  0  0
  150.0401  142.3423  156.1057 N   0  3  0  0  0  0  0  0  0  0  0  0
  150.1013  141.2548  155.2883 C   0  0  0  0  0  0  0  0  0  0  0  0
  151.0062  140.3900  155.8235 N   0  0  0  0  0  0  0  0  0  0  0  0
  151.4500  139.0718  155.3522 C   0  0  0  0  0  0  0  0  0  0  0  0
  150.2959  138.1871  154.8366 C   0  0  1  0  0  0  0  0  0  0  0  0
  150.0799  138.5317  153.4832 O   0  0  0  0  0  0  0  0  0  0  0  0
  150.5962  136.6746  154.9341 C   0  0  0  0  0  0  0  0  0  0  0  0
  149.4932  135.8271  154.4129 N   0  3  0  0  0  0  0  0  0  0  0  0
  148.1731  136.1169  155.0357 C   0  0  0  0  0  0  0  0  0  0  0  0
  147.0783  135.2286  154.4099 C   0  0  0  0  0  0  0  0  0  0  0  0
  147.3655  133.7951  154.5083 N   0  0  0  0  0  0  0  0  0  0  0  0
  147.2635  133.2402  155.8632 C   0  0  0  0  0  0  0  0  0  0  0  0
  145.9304  132.5411  156.1956 C   0  0  1  0  0  0  0  0  0  0  0  0
  145.7932  132.1871  157.6834 C   0  0  0  0  0  0  0  0  0  0  0  0
  144.8784  133.4183  155.8542 O   0  0  0  0  0  0  0  0  0  0  0  0
  148.6654  133.5400  153.8893 C   0  0  0  0  0  0  0  0  0  0  0  0
  149.8065  134.3773  154.5021 C   0  0  0  0  0  0  0  0  0  0  0  0
  151.5264  140.9103  157.0134 C   0  0  0  0  0  0  0  0  0  0  0  0
  152.4514  140.4210  157.9323 C   0  0  0  0  0  0  0  0  0  0  0  0
  152.7527  141.2385  159.0450 C   0  0  0  0  0  0  0  0  0  0  0  0
  153.7588  140.7321  160.0646 C   0  0  0  0  0  0  0  0  0  0  0  0
  151.9340  144.3263  160.3739 H   0  0  0  0  0  0  0  0  0  0  0  0
  153.5335  143.5921  160.4429 H   0  0  0  0  0  0  0  0  0  0  0  0
  152.1858  142.8730  161.3377 H   0  0  0  0  0  0  0  0  0  0  0  0
  150.7121  143.9428  158.3954 H   0  0  0  0  0  0  0  0  0  0  0  0
  149.5366  141.1079  154.3786 H   0  0  0  0  0  0  0  0  0  0  0  0
  152.2029  139.2241  154.5773 H   0  0  0  0  0  0  0  0  0  0  0  0
  151.9582  138.5834  156.1853 H   0  0  0  0  0  0  0  0  0  0  0  0
  149.3932  138.4352  155.3927 H   0  0  0  0  0  0  0  0  0  0  0  0
  149.7818  137.7684  153.0128 H   0  0  0  0  0  0  0  0  0  0  0  0
  151.5116  136.4696  154.3767 H   0  0  0  0  0  0  0  0  0  0  0  0
  150.7991  136.3810  155.9645 H   0  0  0  0  0  0  0  0  0  0  0  0
  148.2255  135.9658  156.1146 H   0  0  0  0  0  0  0  0  0  0  0  0
  147.9053  137.1616  154.8824 H   0  0  0  0  0  0  0  0  0  0  0  0
  146.1116  135.4584  154.8559 H   0  0  0  0  0  0  0  0  0  0  0  0
  146.9768  135.4938  153.3565 H   0  0  0  0  0  0  0  0  0  0  0  0
  148.0644  132.5133  156.0060 H   0  0  0  0  0  0  0  0  0  0  0  0
  147.4455  134.0214  156.6008 H   0  0  0  0  0  0  0  0  0  0  0  0
  145.8030  131.6440  155.5910 H   0  0  0  0  0  0  0  0  0  0  0  0
  146.5660  131.4829  157.9924 H   0  0  0  0  0  0  0  0  0  0  0  0
  144.8279  131.7239  157.8900 H   0  0  0  0  0  0  0  0  0  0  0  0
  145.8798  133.0725  158.3139 H   0  0  0  0  0  0  0  0  0  0  0  0
  144.1574  132.9088  155.5163 H   0  0  0  0  0  0  0  0  0  0  0  0
  148.9064  132.4786  153.9574 H   0  0  0  0  0  0  0  0  0  0  0  0
  148.5998  133.7598  152.8228 H   0  0  0  0  0  0  0  0  0  0  0  0
  150.7310  134.1703  153.9616 H   0  0  0  0  0  0  0  0  0  0  0  0
  149.9820  134.0971  155.5416 H   0  0  0  0  0  0  0  0  0  0  0  0
  152.9207  139.4562  157.8073 H   0  0  0  0  0  0  0  0  0  0  0  0
  154.1156  139.7331  159.8121 H   0  0  0  0  0  0  0  0  0  0  0  0
  153.3081  140.6829  161.0561 H   0  0  0  0  0  0  0  0  0  0  0  0
  154.6244  141.3935  160.1088 H   0  0  0  0  0  0  0  0  0  0  0  0
  149.4084  136.0321  153.4277 H   0  0  0  0  0  0  0  0  0  0  0  0
  149.4438  143.1435  155.9406 H   0  0  0  0  0  0  0  0  0  0  0  0
  1  2  1  0  0  0  0
  1 26  1  0  0  0  0
  1 27  1  0  0  0  0
  1 28  1  0  0  0  0
  2 24  1  0  0  0  0
  2  3  2  0  0  0  0
  3  4  1  0  0  0  0
  3 29  1  0  0  0  0
  4 22  2  0  0  0  0
  4  5  1  0  0  0  0
  5  6  2  0  0  0  0
  5 57  1  0  0  0  0
  6  7  1  0  0  0  0
  6 30  1  0  0  0  0
  7  8  1  0  0  0  0
  7 22  1  0  0  0  0
  8  9  1  0  0  0  0
  8 31  1  0  0  0  0
  8 32  1  0  0  0  0
  9 10  1  0  0  0  0
  9 11  1  0  0  0  0
  9 33  1  0  0  0  0
 10 34  1  0  0  0  0
 11 12  1  0  0  0  0
 11 35  1  0  0  0  0
 11 36  1  0  0  0  0
 12 21  1  0  0  0  0
 12 13  1  0  0  0  0
 12 56  1  0  0  0  0
 13 14  1  0  0  0  0
 13 37  1  0  0  0  0
 13 38  1  0  0  0  0
 14 15  1  0  0  0  0
 14 39  1  0  0  0  0
 14 40  1  0  0  0  0
 15 16  1  0  0  0  0
 15 20  1  0  0  0  0
 16 17  1  0  0  0  0
 16 41  1  0  0  0  0
 16 42  1  0  0  0  0
 17 18  1  0  0  0  0
 17 19  1  0  0  0  0
 17 43  1  0  0  0  0
 18 44  1  0  0  0  0
 18 45  1  0  0  0  0
 18 46  1  0  0  0  0
 19 47  1  0  0  0  0
 20 21  1  0  0  0  0
 20 48  1  0  0  0  0
 20 49  1  0  0  0  0
 21 50  1  0  0  0  0
 21 51  1  0  0  0  0
 22 23  1  0  0  0  0
 23 24  2  0  0  0  0
 23 52  1  0  0  0  0
 24 25  1  0  0  0  0
 25 53  1  0  0  0  0
 25 54  1  0  0  0  0
 25 55  1  0  0  0  0
M  CHG  1   5   1
M  CHG  1  12   1
M  END
> <s_m_source_file>
AV-unprocessed.smi

> <i_m_source_file_index>
1033

> <i_lp_mmshare_version>
43012

> <i_f3d_flags>
0

> <s_epik_input>
W0NIM11jKFtjSF0xKWMoW0NIM10pW2NIXWMoYzEyKW4oW2NIXW4yKVtDSDJdW0NASF0oW09IXSlbQ0gyXU4zW0NIMl1bQ0gyXU4oW0NIMl1bQ0gyXTMpW0NIMl1bQ0BIXShbQ0gzXSlbT0hd

> <s_epik_cmdline>
J2VwaWtfcHl0aG9uJywgJy1waCcsICc3LjAnLCAnLXRuJywgJzgnLCAnLW1hJywgJzIwMCcsICctbWV0YWxfYmluZGluZycsICctaW1hZScsICc8aW5maWxlLm1hZT4nLCAnLW9tYWUnLCAnPG91dGZpbGUubWFlPic=

> <r_epik_Ionization_Penalty>
1.22049

> <r_epik_Ionization_Penalty_Charging>
1.17952

> <r_epik_Ionization_Penalty_Neutral>
0.0409743

> <r_epik_State_Penalty>
1.61468

> <r_epik_Charging_Adjusted_Penalty>
2.7942

> <i_epik_Tot_Q>
2

> <i_epik_Tot_abs_Q>
2

> <r_epik_Metal_State_Penalty>
5.63169

> <b_epik_Metal_Only>
0

> <s_lp_Force_Field>
OPLS_2005

> <r_lp_Energy>
46.1755

> <b_lp_Chiralities_Consistent>
1

> <s_lp_Variant>
AV-unprocessed.smi:1033-12

> <Gold.Version>
5.8.1

> <Gold.Id.Protein>
6NUR|6NUR_protein|mol2

> <Gold.PLP.Fitness>
60.3401

> <Gold.PLP.PLP>
-44.3283

> <Gold.PLP.part.hbond>
-5.0000

> <Gold.PLP.part.metal>
0.0000

> <Gold.PLP.part.buried>
-3.4731

> <Gold.PLP.part.nonpolar>
-34.7361

> <Gold.PLP.part.repulsive>
0.1990

> <Gold.PLP.ligand.clash>
0.0000

> <Gold.PLP.ligand.torsion>
1.1293

> <Gold.PLP.Chemscore.Hbond>
6.0000

> <Gold.PLP.Chemscore.CHOScore>
0.0000

> <Gold.PLP.Chemscore.Metal>
0.0000

> <Gold.Chemscore.Hbonds>
donor molecule, donor type, donor heavy atom, donor atom, acceptor molecule, acceptor atom, score
      L1  H     5    57       P1  8028  2.00
      L1  H    10    34       P1  7948  0.96
      L1  H    12    56       P1  7948  2.00
      L1  H    19    47       P1 10957  1.00

> <Gold.PLP.Chemscore.Internal.Correction>
0.2704

> <Gold.Rescore>
     Score         DG    S(hbond)    S(metal)    S(lipo)     H(rot)  DE(clash)    DE(int)     intcor
     21.52     -22.75       3.86        0.00     106.30       3.15       0.06       1.17       ----

> <Gold.Chemscore.Fitness>
21.5205

> <Gold.Chemscore.DG>
-22.7514

> <Gold.Chemscore.ZeroCoef>
-5.4800

> <Gold.Chemscore.Hbond>
3.8604

> <Gold.Chemscore.Metal>
0.0000

> <Gold.Chemscore.Lipo>
106.3031

> <Gold.Chemscore.Internal_Hbond>
0.0000

> <Gold.Chemscore.DEClash>
0.0576

> <Gold.Chemscore.DEInternal>
1.1732

> <Gold.Chemscore.Rot>
3.1483

> <Gold.Chemscore.Internal.Correction>
   9.000000E+99

> <Gold.Chemscore.Hbonds>
donor molecule, donor type, donor heavy atom, donor atom, acceptor molecule, acceptor atom, score
      L1  H     5    57       P1  8028  1.00
      L1  H    10    34       P1  7948  0.50
      L1  H    12    56       P1  7948  0.55
      L1  H    19    47       P1 10957  0.96

> <Gold.Chemscore.Hbond.Weighted>
-12.8937

> <Gold.Chemscore.Metal.Weighted>
-0.0000

> <Gold.Chemscore.Lipo.Weighted>
-12.4375

> <Gold.Chemscore.Internal_Hbond.Weighted>
0.0000

> <Gold.Chemscore.DEClash.Weighted>
0.0576

> <Gold.Chemscore.DEInternal.Weighted>
1.1732

> <Gold.Chemscore.Rot.Weighted>
8.0597

> <Gold.Chemscore.Internal.Correction.Weighted>
   9.000000E+99

> <Gold.Protein.RotatedTorsions>
[ 6907 6896 6895 6894 ] final   74.78 input  -60.11 | X-H torsion
[ 7974 7965 7964 7962 ] final -113.35 input  175.53 | X-H torsion
[ 8008 7997 7996 7995 ] final   -0.97 input   59.86 | X-H torsion
[ 10167 10162 10161 10158 ] final   41.42 input  -65.29 | X-H torsion
[ 10718 10713 10712 10709 ] final   74.19 input   66.30 | X-H torsion
[ 10763 10752 10751 10750 ] final -115.24 input  -60.55 | X-H torsion
[ 11005 11000 10999 10996 ] final  100.38 input  -57.11 | X-H torsion

> <Gold.Protein.ActiveResidues>
 VAL166  LYS551  ARG553  GLY616  TRP617  ASP618  TYR619  PRO620  LYS621  CYS622 
 ASP623  PHE694  ASN695  SER759  ASP760  ASP761  ALA762  ILE779  LEU786  VAL792 
 PHE793  MET794  SER795  GLU796  ALA797  LYS798  CYS799  TRP800  GLU811  SER814 

> <Gold.Protein.RotatedAtoms>
  152.4993  134.4220  159.9483 H   0  0  0  0  0  0  0  0  0  0  0  0  # atno 6907 bound_to 6896
  151.4194  133.3697  159.2762 H   0  0  0  0  0  0  0  0  0  0  0  0  # atno 6908 bound_to 6896
  150.9234  134.8673  159.7563 H   0  0  0  0  0  0  0  0  0  0  0  0  # atno 6909 bound_to 6896
  145.1331  140.8736  143.3746 H   0  0  0  0  0  0  0  0  0  0  0  0  # atno 7974 bound_to 7965
  154.6521  140.2571  155.7202 H   0  0  0  0  0  0  0  0  0  0  0  0  # atno 8008 bound_to 7997
  156.2580  140.2866  156.0879 H   0  0  0  0  0  0  0  0  0  0  0  0  # atno 8009 bound_to 7997
  155.1436  140.0381  157.2794 H   0  0  0  0  0  0  0  0  0  0  0  0  # atno 8010 bound_to 7997
  140.3645  144.2185  150.6136 H   0  0  0  0  0  0  0  0  0  0  0  0  # atno 10167 bound_to 10162
  157.6581  130.9665  150.1175 H   0  0  0  0  0  0  0  0  0  0  0  0  # atno 10718 bound_to 10713
  154.8473  135.4389  154.1631 H   0  0  0  0  0  0  0  0  0  0  0  0  # atno 10763 bound_to 10752
  153.2763  135.6949  153.7436 H   0  0  0  0  0  0  0  0  0  0  0  0  # atno 10764 bound_to 10752
  153.6657  135.3427  155.3114 H   0  0  0  0  0  0  0  0  0  0  0  0  # atno 10765 bound_to 10752
  139.8771  134.9137  156.4747 H   0  0  0  0  0  0  0  0  0  0  0  0  # atno 11005 bound_to 11000
  145.0614  139.3103  143.5878 LP  0  0  0  0  0  0  0  0  0  0  0  0  # atno 17320 bound_to 7965
  146.3512  140.0057  142.8672 LP  0  0  0  0  0  0  0  0  0  0  0  0  # atno 17321 bound_to 7965
  140.5094  143.2295  151.8558 LP  0  0  0  0  0  0  0  0  0  0  0  0  # atno 17342 bound_to 10162
  139.4810  144.4967  151.9114 LP  0  0  0  0  0  0  0  0  0  0  0  0  # atno 17343 bound_to 10162
  156.2055  130.3663  149.8734 LP  0  0  0  0  0  0  0  0  0  0  0  0  # atno 17370 bound_to 10713
  156.6627  130.8788  151.3550 LP  0  0  0  0  0  0  0  0  0  0  0  0  # atno 17371 bound_to 10713
  140.8770  133.7945  155.9426 LP  0  0  0  0  0  0  0  0  0  0  0  0  # atno 17394 bound_to 11000
  140.8893  134.2515  157.5103 LP  0  0  0  0  0  0  0  0  0  0  0  0  # atno 17395 bound_to 11000

$$$$
