AV-unprocessed.smi:855|AV-procd|sdf|3958|dock5
  -GOLD-   22720 1423D 1   1.00000     0.00000
 Structure written by MMmdl.
 35 36  0  0  0  0  0  0  0  0  3 V2000
  151.3901  145.2749  159.6869 C   0  0  0  0  0  0  0  0  0  0  0  0
  151.2578  143.9730  158.9743 C   0  0  0  0  0  0  0  0  0  0  0  0
  151.3082  143.6254  157.6538 C   0  0  0  0  0  0  0  0  0  0  0  0
  151.1029  142.2201  157.6834 C   0  0  0  0  0  0  0  0  0  0  0  0
  151.0812  141.4663  156.4800 N   0  0  0  0  0  0  0  0  0  0  0  0
  151.7495  140.3371  156.1809 C   0  0  0  0  0  0  0  0  0  0  0  0
  152.5167  139.8280  157.0064 O   0  0  0  0  0  0  0  0  0  0  0  0
  151.4641  139.8874  154.9282 N   0  5  0  0  0  0  0  0  0  0  0  0
  150.4142  138.9162  154.6167 C   0  0  0  0  0  0  0  0  0  0  0  0
  151.0389  137.5231  154.4005 C   0  0  0  0  0  0  0  0  0  0  0  0
  150.0403  136.4228  154.4767 N   0  3  0  0  0  0  0  0  0  0  0  0
  150.6238  135.0757  154.6854 C   0  0  0  0  0  0  0  0  0  0  0  0
  149.7146  134.3402  155.6793 C   0  0  0  0  0  0  0  0  0  0  0  0
  148.4427  135.1791  155.7347 C   0  0  0  0  0  0  0  0  0  0  0  0
  148.9557  136.5904  155.4723 C   0  0  0  0  0  0  0  0  0  0  0  0
  150.9434  141.7530  158.9128 N   0  0  0  0  0  0  0  0  0  0  0  0
  151.0421  142.8735  159.7459 O   0  0  0  0  0  0  0  0  0  0  0  0
  151.4310  146.1038  158.9801 H   0  0  0  0  0  0  0  0  0  0  0  0
  152.3002  145.2956  160.2864 H   0  0  0  0  0  0  0  0  0  0  0  0
  150.5421  145.4396  160.3516 H   0  0  0  0  0  0  0  0  0  0  0  0
  151.4653  144.2737  156.8046 H   0  0  0  0  0  0  0  0  0  0  0  0
  150.4791  141.8244  155.7539 H   0  0  0  0  0  0  0  0  0  0  0  0
  149.6782  138.8491  155.4182 H   0  0  0  0  0  0  0  0  0  0  0  0
  149.8560  139.1942  153.7217 H   0  0  0  0  0  0  0  0  0  0  0  0
  151.5028  137.5145  153.4127 H   0  0  0  0  0  0  0  0  0  0  0  0
  151.8445  137.3475  155.1142 H   0  0  0  0  0  0  0  0  0  0  0  0
  150.6607  134.5588  153.7260 H   0  0  0  0  0  0  0  0  0  0  0  0
  151.6420  135.1259  155.0743 H   0  0  0  0  0  0  0  0  0  0  0  0
  149.5226  133.3068  155.3890 H   0  0  0  0  0  0  0  0  0  0  0  0
  150.1848  134.3261  156.6635 H   0  0  0  0  0  0  0  0  0  0  0  0
  147.7624  134.8767  154.9375 H   0  0  0  0  0  0  0  0  0  0  0  0
  147.9139  135.0884  156.6839 H   0  0  0  0  0  0  0  0  0  0  0  0
  149.3592  137.0096  156.3955 H   0  0  0  0  0  0  0  0  0  0  0  0
  148.1702  137.2559  155.1128 H   0  0  0  0  0  0  0  0  0  0  0  0
  149.5962  136.3897  153.5693 H   0  0  0  0  0  0  0  0  0  0  0  0
  1  2  1  0  0  0  0
  1 18  1  0  0  0  0
  1 19  1  0  0  0  0
  1 20  1  0  0  0  0
  2 17  1  0  0  0  0
  2  3  2  0  0  0  0
  3  4  1  0  0  0  0
  3 21  1  0  0  0  0
  4  5  1  0  0  0  0
  4 16  2  0  0  0  0
  5  6  1  0  0  0  0
  5 22  1  0  0  0  0
  6  7  2  0  0  0  0
  6  8  1  0  0  0  0
  8  9  1  0  0  0  0
  9 10  1  0  0  0  0
  9 23  1  0  0  0  0
  9 24  1  0  0  0  0
 10 11  1  0  0  0  0
 10 25  1  0  0  0  0
 10 26  1  0  0  0  0
 11 15  1  0  0  0  0
 11 12  1  0  0  0  0
 11 35  1  0  0  0  0
 12 13  1  0  0  0  0
 12 27  1  0  0  0  0
 12 28  1  0  0  0  0
 13 14  1  0  0  0  0
 13 29  1  0  0  0  0
 13 30  1  0  0  0  0
 14 15  1  0  0  0  0
 14 31  1  0  0  0  0
 14 32  1  0  0  0  0
 15 33  1  0  0  0  0
 15 34  1  0  0  0  0
 16 17  1  0  0  0  0
M  CHG  1   8  -1
M  CHG  1  11   1
M  END
> <s_m_source_file>
AV-unprocessed.smi

> <i_m_source_file_index>
855

> <i_lp_mmshare_version>
43012

> <i_f3d_flags>
0

> <s_epik_input>
W0NIM11jMVtjSF1jKG5vMSlbTkhdQyg9TylbTkhdW0NIMl1bQ0gyXU4yW0NIMl1bQ0gyXVtDSDJdW0NIMl0y

> <s_epik_cmdline>
J2VwaWtfcHl0aG9uJywgJy1waCcsICc3LjAnLCAnLXRuJywgJzgnLCAnLW1hJywgJzIwMCcsICctbWV0YWxfYmluZGluZycsICctaW1hZScsICc8aW5maWxlLm1hZT4nLCAnLW9tYWUnLCAnPG91dGZpbGUubWFlPic=

> <r_epik_Ionization_Penalty>
6.76467

> <r_epik_Ionization_Penalty_Charging>
6.76466

> <r_epik_Ionization_Penalty_Neutral>
5.76722e-06

> <r_epik_State_Penalty>
6.79042

> <r_epik_Charging_Adjusted_Penalty>
13.5551

> <i_epik_Tot_Q>
0

> <i_epik_Tot_abs_Q>
2

> <r_epik_Metal_State_Penalty>
2.72416

> <b_epik_Metal_Only>
1

> <s_lp_Force_Field>
OPLS_2005

> <r_lp_Energy>
21.5232

> <b_lp_Chiralities_Consistent>
1

> <s_lp_Variant>
AV-unprocessed.smi:855-3

> <Gold.Version>
5.8.1

> <Gold.Id.Protein>
6NUR|6NUR_protein|mol2

> <Gold.PLP.Fitness>
41.0213

> <Gold.PLP.PLP>
-32.1195

> <Gold.PLP.part.hbond>
-3.7418

> <Gold.PLP.part.metal>
0.0000

> <Gold.PLP.part.buried>
-4.7827

> <Gold.PLP.part.nonpolar>
-23.5383

> <Gold.PLP.part.repulsive>
0.2313

> <Gold.PLP.ligand.clash>
0.0000

> <Gold.PLP.ligand.torsion>
1.5824

> <Gold.PLP.Chemscore.Hbond>
4.0000

> <Gold.PLP.Chemscore.CHOScore>
0.0000

> <Gold.PLP.Chemscore.Metal>
0.0000

> <Gold.Chemscore.Hbonds>
donor molecule, donor type, donor heavy atom, donor atom, acceptor molecule, acceptor atom, score
      L1  H    11    35       P1  7948  2.00
      P1  H  7989  7998       L1     8  1.00
      P1  H  7997  8009       L1     7  1.00

> <Gold.PLP.Chemscore.Internal.Correction>
0.0667

> <Gold.Rescore>
     Score         DG    S(hbond)    S(metal)    S(lipo)     H(rot)  DE(clash)    DE(int)     intcor
     16.84     -18.38       2.75        0.00      66.03       1.57       0.01       1.54       ----

> <Gold.Chemscore.Fitness>
16.8350

> <Gold.Chemscore.DG>
-18.3788

> <Gold.Chemscore.ZeroCoef>
-5.4800

> <Gold.Chemscore.Hbond>
2.7547

> <Gold.Chemscore.Metal>
0.0000

> <Gold.Chemscore.Lipo>
66.0279

> <Gold.Chemscore.Internal_Hbond>
0.0000

> <Gold.Chemscore.DEClash>
0.0063

> <Gold.Chemscore.DEInternal>
1.5375

> <Gold.Chemscore.Rot>
1.5731

> <Gold.Chemscore.Internal.Correction>
   9.000000E+99

> <Gold.Chemscore.Hbonds>
donor molecule, donor type, donor heavy atom, donor atom, acceptor molecule, acceptor atom, score
      L1  H    11    35       P1  7948  0.55
      P1  H  7989  7998       L1     8  0.54
      P1  H  7997  8009       L1     7  0.91

> <Gold.Chemscore.Hbond.Weighted>
-9.2006

> <Gold.Chemscore.Metal.Weighted>
-0.0000

> <Gold.Chemscore.Lipo.Weighted>
-7.7253

> <Gold.Chemscore.Internal_Hbond.Weighted>
0.0000

> <Gold.Chemscore.DEClash.Weighted>
0.0063

> <Gold.Chemscore.DEInternal.Weighted>
1.5375

> <Gold.Chemscore.Rot.Weighted>
4.0271

> <Gold.Chemscore.Internal.Correction.Weighted>
   9.000000E+99

> <Gold.Protein.RotatedTorsions>
[ 6907 6896 6895 6894 ] final  127.89 input  -60.11 | X-H torsion
[ 7974 7965 7964 7962 ] final   48.57 input  175.53 | X-H torsion
[ 8008 7997 7996 7995 ] final  165.36 input   59.86 | X-H torsion
[ 10167 10162 10161 10158 ] final  -48.44 input  -65.29 | X-H torsion
[ 10718 10713 10712 10709 ] final  -65.39 input   66.30 | X-H torsion
[ 10763 10752 10751 10750 ] final   62.44 input  -60.55 | X-H torsion
[ 11005 11000 10999 10996 ] final -165.97 input  -57.11 | X-H torsion

> <Gold.Protein.ActiveResidues>
 VAL166  LYS551  ARG553  GLY616  TRP617  ASP618  TYR619  PRO620  LYS621  CYS622 
 ASP623  PHE694  ASN695  SER759  ASP760  ASP761  ALA762  ILE779  LEU786  VAL792 
 PHE793  MET794  SER795  GLU796  ALA797  LYS798  CYS799  TRP800  GLU811  SER814 

> <Gold.Protein.RotatedAtoms>
  152.3770  133.6495  159.6131 H   0  0  0  0  0  0  0  0  0  0  0  0  # atno 6907 bound_to 6896
  150.7711  133.9177  159.3397 H   0  0  0  0  0  0  0  0  0  0  0  0  # atno 6908 bound_to 6896
  151.6989  135.0935  160.0298 H   0  0  0  0  0  0  0  0  0  0  0  0  # atno 6909 bound_to 6896
  146.0191  139.4630  142.9908 H   0  0  0  0  0  0  0  0  0  0  0  0  # atno 7974 bound_to 7965
  156.1807  140.1672  156.8280 H   0  0  0  0  0  0  0  0  0  0  0  0  # atno 8008 bound_to 7997
  154.5357  140.0747  156.8456 H   0  0  0  0  0  0  0  0  0  0  0  0  # atno 8009 bound_to 7997
  155.3317  140.3379  155.4242 H   0  0  0  0  0  0  0  0  0  0  0  0  # atno 8010 bound_to 7997
  140.6731  143.2740  151.4071 H   0  0  0  0  0  0  0  0  0  0  0  0  # atno 10167 bound_to 10162
  156.0673  130.4246  150.1556 H   0  0  0  0  0  0  0  0  0  0  0  0  # atno 10718 bound_to 10713
  152.9983  135.5465  154.6194 H   0  0  0  0  0  0  0  0  0  0  0  0  # atno 10763 bound_to 10752
  154.5496  135.2825  155.1022 H   0  0  0  0  0  0  0  0  0  0  0  0  # atno 10764 bound_to 10752
  154.2267  135.6441  153.5215 H   0  0  0  0  0  0  0  0  0  0  0  0  # atno 10765 bound_to 10752
  140.5697  134.5250  157.5159 H   0  0  0  0  0  0  0  0  0  0  0  0  # atno 11005 bound_to 11000
  145.7221  141.0071  143.1397 LP  0  0  0  0  0  0  0  0  0  0  0  0  # atno 17320 bound_to 7965
  144.6983  139.8883  143.7451 LP  0  0  0  0  0  0  0  0  0  0  0  0  # atno 17321 bound_to 7965
  139.6009  144.1298  152.2196 LP  0  0  0  0  0  0  0  0  0  0  0  0  # atno 17342 bound_to 10162
  140.0682  144.5801  150.7211 LP  0  0  0  0  0  0  0  0  0  0  0  0  # atno 17343 bound_to 10162
  156.9614  130.9806  151.3478 LP  0  0  0  0  0  0  0  0  0  0  0  0  # atno 17370 bound_to 10713
  157.5722  130.8318  149.8407 LP  0  0  0  0  0  0  0  0  0  0  0  0  # atno 17371 bound_to 10713
  139.9367  134.7861  156.0783 LP  0  0  0  0  0  0  0  0  0  0  0  0  # atno 17394 bound_to 11000
  141.1063  133.6659  156.2873 LP  0  0  0  0  0  0  0  0  0  0  0  0  # atno 17395 bound_to 11000

$$$$
