AV-unprocessed.smi:1212|AV-procd|sdf|5082|dock9
  -GOLD-   22720 4133D 1   1.00000     0.00000
 Structure written by MMmdl.
 39 40  0  0  0  0  0  0  0  0  1 V2000
  155.7886  142.5894  169.8394 C   0  0  0  0  0  0  0  0  0  0  0  0
  155.5098  142.8995  168.4081 C   0  0  0  0  0  0  0  0  0  0  0  0
  155.6326  144.1298  167.8945 N   0  0  0  0  0  0  0  0  0  0  0  0
  155.3186  144.1695  166.5427 N   0  0  0  0  0  0  0  0  0  0  0  0
  154.9689  142.9630  166.0755 C   0  0  0  0  0  0  0  0  0  0  0  0
  154.5974  142.7152  164.7276 N   0  0  0  0  0  0  0  0  0  0  0  0
  154.8060  141.6069  163.9949 C   0  0  0  0  0  0  0  0  0  0  0  0
  155.3756  140.5888  164.3889 O   0  0  0  0  0  0  0  0  0  0  0  0
  154.3096  141.7432  162.7568 N   0  0  0  0  0  0  0  0  0  0  0  0
  154.3626  140.7213  161.7186 C   0  0  0  0  0  0  0  0  0  0  0  0
  154.4212  141.3457  160.3119 C   0  0  0  0  0  0  0  0  0  0  0  0
  153.0844  141.7461  159.8550 N   0  0  0  0  0  0  0  0  0  0  0  0
  152.4083  142.7855  160.6489 C   0  0  0  0  0  0  0  0  0  0  0  0
  152.2878  144.1456  159.9220 C   0  0  0  0  0  0  0  0  0  0  0  0
  152.1971  144.0953  158.3839 C   0  0  0  0  0  0  0  0  0  0  0  0
  151.1047  143.1603  157.8244 C   0  0  0  0  0  0  0  0  0  0  0  0
  151.1267  141.6968  158.3260 C   0  0  0  0  0  0  0  0  0  0  0  0
  152.5156  141.1955  158.7540 C   0  0  0  0  0  0  0  0  0  0  0  0
  153.0626  140.3206  158.0820 O   0  0  0  0  0  0  0  0  0  0  0  0
  154.9960  141.6686  167.2610 S   0  0  0  0  0  0  0  0  0  0  0  0
  155.8121  143.5036  170.4336 H   0  0  0  0  0  0  0  0  0  0  0  0
  156.7515  142.0870  169.9307 H   0  0  0  0  0  0  0  0  0  0  0  0
  155.0127  141.9357  170.2382 H   0  0  0  0  0  0  0  0  0  0  0  0
  154.1141  143.4718  164.2667 H   0  0  0  0  0  0  0  0  0  0  0  0
  153.8598  142.6140  162.5148 H   0  0  0  0  0  0  0  0  0  0  0  0
  155.2200  140.0663  161.8821 H   0  0  0  0  0  0  0  0  0  0  0  0
  153.4751  140.0959  161.8182 H   0  0  0  0  0  0  0  0  0  0  0  0
  155.0893  142.2088  160.3150 H   0  0  0  0  0  0  0  0  0  0  0  0
  154.8721  140.6431  159.6105 H   0  0  0  0  0  0  0  0  0  0  0  0
  151.4179  142.4295  160.9334 H   0  0  0  0  0  0  0  0  0  0  0  0
  152.9126  142.9474  161.6019 H   0  0  0  0  0  0  0  0  0  0  0  0
  151.4273  144.6827  160.3219 H   0  0  0  0  0  0  0  0  0  0  0  0
  153.1571  144.7517  160.1803 H   0  0  0  0  0  0  0  0  0  0  0  0
  152.0222  145.1043  158.0094 H   0  0  0  0  0  0  0  0  0  0  0  0
  153.1667  143.8082  157.9743 H   0  0  0  0  0  0  0  0  0  0  0  0
  150.1263  143.5876  158.0460 H   0  0  0  0  0  0  0  0  0  0  0  0
  151.1823  143.1591  156.7366 H   0  0  0  0  0  0  0  0  0  0  0  0
  150.4338  141.5752  159.1583 H   0  0  0  0  0  0  0  0  0  0  0  0
  150.7370  141.0450  157.5431 H   0  0  0  0  0  0  0  0  0  0  0  0
  1  2  1  0  0  0  0
  1 21  1  0  0  0  0
  1 22  1  0  0  0  0
  1 23  1  0  0  0  0
  2 20  1  0  0  0  0
  2  3  2  0  0  0  0
  3  4  1  0  0  0  0
  4  5  2  0  0  0  0
  5  6  1  0  0  0  0
  5 20  1  0  0  0  0
  6  7  1  0  0  0  0
  6 24  1  0  0  0  0
  7  8  2  0  0  0  0
  7  9  1  0  0  0  0
  9 10  1  0  0  0  0
  9 25  1  0  0  0  0
 10 11  1  0  0  0  0
 10 26  1  0  0  0  0
 10 27  1  0  0  0  0
 11 12  1  0  0  0  0
 11 28  1  0  0  0  0
 11 29  1  0  0  0  0
 12 18  1  0  0  0  0
 12 13  1  0  0  0  0
 13 14  1  0  0  0  0
 13 30  1  0  0  0  0
 13 31  1  0  0  0  0
 14 15  1  0  0  0  0
 14 32  1  0  0  0  0
 14 33  1  0  0  0  0
 15 16  1  0  0  0  0
 15 34  1  0  0  0  0
 15 35  1  0  0  0  0
 16 17  1  0  0  0  0
 16 36  1  0  0  0  0
 16 37  1  0  0  0  0
 17 18  1  0  0  0  0
 17 38  1  0  0  0  0
 17 39  1  0  0  0  0
 18 19  2  0  0  0  0
M  END
> <s_m_source_file>
AV-unprocessed.smi

> <i_m_source_file_index>
1212

> <i_lp_mmshare_version>
43012

> <i_f3d_flags>
0

> <s_epik_input>
W0NIM11jMW5uYyhzMSlbTkhdQyg9TylbTkhdW0NIMl1bQ0gyXU4yW0NIMl1bQ0gyXVtDSDJdW0NIMl1bQ0gyXUMyPU8=

> <s_epik_cmdline>
J2VwaWtfcHl0aG9uJywgJy1waCcsICc3LjAnLCAnLXRuJywgJzgnLCAnLW1hJywgJzIwMCcsICctbWV0YWxfYmluZGluZycsICctaW1hZScsICc8aW5maWxlLm1hZT4nLCAnLW9tYWUnLCAnPG91dGZpbGUubWFlPic=

> <r_lp_tautomer_probability>
1

> <r_epik_Ionization_Penalty>
0.00255187

> <r_epik_Ionization_Penalty_Charging>
0

> <r_epik_Ionization_Penalty_Neutral>
0.00255187

> <r_epik_State_Penalty>
-0

> <r_epik_Charging_Adjusted_Penalty>
0

> <i_epik_Tot_Q>
0

> <i_epik_Tot_abs_Q>
0

> <r_epik_Metal_State_Penalty>
0.352847

> <b_epik_Metal_Only>
0

> <s_lp_Force_Field>
OPLS_2005

> <r_lp_Energy>
20.0291

> <b_lp_Chiralities_Consistent>
1

> <s_lp_Variant>
AV-unprocessed.smi:1212-1

> <Gold.Version>
5.8.1

> <Gold.Id.Protein>
6NUR|6NUR_protein|mol2

> <Gold.PLP.Fitness>
46.4197

> <Gold.PLP.PLP>
-44.6176

> <Gold.PLP.part.hbond>
-4.5796

> <Gold.PLP.part.metal>
0.0000

> <Gold.PLP.part.buried>
-2.4073

> <Gold.PLP.part.nonpolar>
-37.6338

> <Gold.PLP.part.repulsive>
0.2199

> <Gold.PLP.ligand.clash>
0.0000

> <Gold.PLP.ligand.torsion>
0.5185

> <Gold.PLP.Chemscore.Hbond>
0.9440

> <Gold.PLP.Chemscore.CHOScore>
0.0000

> <Gold.PLP.Chemscore.Metal>
0.0000

> <Gold.Chemscore.Hbonds>
donor molecule, donor type, donor heavy atom, donor atom, acceptor molecule, acceptor atom, score
      P1  H  7997  8008       L1    19  0.85

> <Gold.PLP.Chemscore.Internal.Correction>
0.0069

> <Gold.Rescore>
     Score         DG    S(hbond)    S(metal)    S(lipo)     H(rot)  DE(clash)    DE(int)     intcor
     12.76     -14.62       0.97        0.00      86.66       1.65       0.16       1.70       ----

> <Gold.Chemscore.Fitness>
12.7597

> <Gold.Chemscore.DG>
-14.6197

> <Gold.Chemscore.ZeroCoef>
-5.4800

> <Gold.Chemscore.Hbond>
0.9689

> <Gold.Chemscore.Metal>
0.0000

> <Gold.Chemscore.Lipo>
86.6560

> <Gold.Chemscore.Internal_Hbond>
0.0000

> <Gold.Chemscore.DEClash>
0.1557

> <Gold.Chemscore.DEInternal>
1.7043

> <Gold.Chemscore.Rot>
1.6544

> <Gold.Chemscore.Internal.Correction>
   9.000000E+99

> <Gold.Chemscore.Hbonds>
donor molecule, donor type, donor heavy atom, donor atom, acceptor molecule, acceptor atom, score
      P1  H  7997  8008       L1    19  0.83

> <Gold.Chemscore.Hbond.Weighted>
-3.2361

> <Gold.Chemscore.Metal.Weighted>
-0.0000

> <Gold.Chemscore.Lipo.Weighted>
-10.1388

> <Gold.Chemscore.Internal_Hbond.Weighted>
0.0000

> <Gold.Chemscore.DEClash.Weighted>
0.1557

> <Gold.Chemscore.DEInternal.Weighted>
1.7043

> <Gold.Chemscore.Rot.Weighted>
4.2352

> <Gold.Chemscore.Internal.Correction.Weighted>
   9.000000E+99

> <Gold.Protein.RotatedTorsions>
[ 6907 6896 6895 6894 ] final  -54.19 input  -60.11 | X-H torsion
[ 7974 7965 7964 7962 ] final  -61.06 input  175.53 | X-H torsion
[ 8008 7997 7996 7995 ] final  -90.15 input   59.86 | X-H torsion
[ 10167 10162 10161 10158 ] final  -61.41 input  -65.29 | X-H torsion
[ 10718 10713 10712 10709 ] final    3.89 input   66.30 | X-H torsion
[ 10763 10752 10751 10750 ] final   48.66 input  -60.55 | X-H torsion
[ 11005 11000 10999 10996 ] final  155.62 input  -57.11 | X-H torsion

> <Gold.Protein.ActiveResidues>
 VAL166  LYS551  ARG553  GLY616  TRP617  ASP618  TYR619  PRO620  LYS621  CYS622 
 ASP623  PHE694  ASN695  SER759  ASP760  ASP761  ALA762  ILE779  LEU786  VAL792 
 PHE793  MET794  SER795  GLU796  ALA797  LYS798  CYS799  TRP800  GLU811  SER814 

> <Gold.Protein.RotatedAtoms>
  150.8360  134.7633  159.6892 H   0  0  0  0  0  0  0  0  0  0  0  0  # atno 6907 bound_to 6896
  152.4456  134.5498  159.9873 H   0  0  0  0  0  0  0  0  0  0  0  0  # atno 6908 bound_to 6896
  151.5648  133.3360  159.3014 H   0  0  0  0  0  0  0  0  0  0  0  0  # atno 6909 bound_to 6896
  145.8080  140.8616  143.0197 H   0  0  0  0  0  0  0  0  0  0  0  0  # atno 7974 bound_to 7965
  154.6951  140.0533  157.0402 H   0  0  0  0  0  0  0  0  0  0  0  0  # atno 8008 bound_to 7997
  155.0763  140.3205  155.4596 H   0  0  0  0  0  0  0  0  0  0  0  0  # atno 8009 bound_to 7997
  156.2741  140.2073  156.5891 H   0  0  0  0  0  0  0  0  0  0  0  0  # atno 8010 bound_to 7997
  140.6007  143.2361  151.5934 H   0  0  0  0  0  0  0  0  0  0  0  0  # atno 10167 bound_to 10162
  156.8846  130.5665  149.5652 H   0  0  0  0  0  0  0  0  0  0  0  0  # atno 10718 bound_to 10713
  152.9790  135.5937  154.3962 H   0  0  0  0  0  0  0  0  0  0  0  0  # atno 10763 bound_to 10752
  154.3612  135.2767  155.2320 H   0  0  0  0  0  0  0  0  0  0  0  0  # atno 10764 bound_to 10752
  154.4317  135.6035  153.6127 H   0  0  0  0  0  0  0  0  0  0  0  0  # atno 10765 bound_to 10752
  140.1598  134.8617  157.2560 H   0  0  0  0  0  0  0  0  0  0  0  0  # atno 11005 bound_to 11000
  144.6760  140.0354  143.7482 LP  0  0  0  0  0  0  0  0  0  0  0  0  # atno 17320 bound_to 7965
  145.9807  139.2939  143.1043 LP  0  0  0  0  0  0  0  0  0  0  0  0  # atno 17321 bound_to 7965
  139.5289  144.2974  152.1102 LP  0  0  0  0  0  0  0  0  0  0  0  0  # atno 17342 bound_to 10162
  140.2155  144.4520  150.6366 LP  0  0  0  0  0  0  0  0  0  0  0  0  # atno 17343 bound_to 10162
  156.0660  130.5703  150.9289 LP  0  0  0  0  0  0  0  0  0  0  0  0  # atno 17370 bound_to 10713
  157.6120  131.0935  150.8778 LP  0  0  0  0  0  0  0  0  0  0  0  0  # atno 17371 bound_to 10713
  140.2503  134.3690  155.7445 LP  0  0  0  0  0  0  0  0  0  0  0  0  # atno 17394 bound_to 11000
  141.2208  133.7313  156.8926 LP  0  0  0  0  0  0  0  0  0  0  0  0  # atno 17395 bound_to 11000

$$$$
