AV-unprocessed.smi:657|AV-procd|sdf|3224|dock5
  -GOLD-   22720 0163D 1   1.00000     0.00000
 Structure written by MMmdl.
 46 47  0  0  0  0  0  0  0  0  1 V2000
  152.5172  144.7445  157.7811 C   0  0  0  0  0  0  0  0  0  0  0  0
  151.6443  144.2717  158.9617 C   0  0  0  0  0  0  0  0  0  0  0  0
  151.6082  145.3148  160.0945 C   0  0  0  0  0  0  0  0  0  0  0  0
  152.0144  142.9312  159.4701 N   0  0  0  0  0  0  0  0  0  0  0  0
  153.3251  142.9011  160.1431 C   0  0  0  0  0  0  0  0  0  0  0  0
  153.5277  141.5781  160.9010 C   0  0  0  0  0  0  0  0  0  0  0  0
  153.4360  140.3834  159.9502 C   0  0  0  0  0  0  0  0  0  0  0  0
  152.1041  140.4418  159.1993 C   0  0  0  0  0  0  0  0  0  0  0  0
  151.9222  141.8022  158.4861 C   0  0  1  0  0  0  0  0  0  0  0  0
  150.6238  141.7698  157.6559 C   0  0  0  0  0  0  0  0  0  0  0  0
  149.7281  142.5878  157.8682 O   0  0  0  0  0  0  0  0  0  0  0  0
  150.5512  140.8346  156.6968 N   0  0  0  0  0  0  0  0  0  0  0  0
  149.4285  140.6575  155.7859 C   0  0  0  0  0  0  0  0  0  0  0  0
  149.9088  140.0829  154.4466 C   0  0  0  0  0  0  0  0  0  0  0  0
  150.4252  138.6800  154.6033 C   0  0  0  0  0  0  0  0  0  0  0  0
  151.7585  138.2136  154.4214 C   0  0  0  0  0  0  0  0  0  0  0  0
  151.8822  136.9131  154.6322 N   0  0  0  0  0  0  0  0  0  0  0  0
  150.6374  136.5054  154.9540 N   0  0  0  0  0  0  0  0  0  0  0  0
  150.3986  135.1092  155.2502 C   0  0  0  0  0  0  0  0  0  0  0  0
  149.7380  137.5498  154.9462 C   0  0  0  0  0  0  0  0  0  0  0  0
  152.1444  145.6897  157.3860 H   0  0  0  0  0  0  0  0  0  0  0  0
  152.5122  144.0314  156.9576 H   0  0  0  0  0  0  0  0  0  0  0  0
  153.5529  144.9089  158.0782 H   0  0  0  0  0  0  0  0  0  0  0  0
  150.6144  144.2399  158.6105 H   0  0  0  0  0  0  0  0  0  0  0  0
  151.1226  146.2298  159.7540 H   0  0  0  0  0  0  0  0  0  0  0  0
  152.6027  145.5979  160.4377 H   0  0  0  0  0  0  0  0  0  0  0  0
  151.0434  144.9490  160.9524 H   0  0  0  0  0  0  0  0  0  0  0  0
  154.1294  143.0323  159.4181 H   0  0  0  0  0  0  0  0  0  0  0  0
  153.4195  143.7099  160.8649 H   0  0  0  0  0  0  0  0  0  0  0  0
  154.4989  141.5796  161.3970 H   0  0  0  0  0  0  0  0  0  0  0  0
  152.7780  141.4853  161.6880 H   0  0  0  0  0  0  0  0  0  0  0  0
  154.2643  140.4079  159.2410 H   0  0  0  0  0  0  0  0  0  0  0  0
  153.5198  139.4479  160.5041 H   0  0  0  0  0  0  0  0  0  0  0  0
  152.0600  139.6238  158.4787 H   0  0  0  0  0  0  0  0  0  0  0  0
  151.2889  140.2752  159.9057 H   0  0  0  0  0  0  0  0  0  0  0  0
  152.7466  141.9061  157.7779 H   0  0  0  0  0  0  0  0  0  0  0  0
  151.3341  140.2065  156.5867 H   0  0  0  0  0  0  0  0  0  0  0  0
  148.7037  139.9865  156.2489 H   0  0  0  0  0  0  0  0  0  0  0  0
  148.9227  141.6095  155.6153 H   0  0  0  0  0  0  0  0  0  0  0  0
  149.0866  140.1075  153.7302 H   0  0  0  0  0  0  0  0  0  0  0  0
  150.6831  140.7294  154.0314 H   0  0  0  0  0  0  0  0  0  0  0  0
  152.6351  138.7790  154.1410 H   0  0  0  0  0  0  0  0  0  0  0  0
  149.3457  134.9520  155.4860 H   0  0  0  0  0  0  0  0  0  0  0  0
  151.0030  134.8040  156.1049 H   0  0  0  0  0  0  0  0  0  0  0  0
  150.6630  134.4985  154.3863 H   0  0  0  0  0  0  0  0  0  0  0  0
  148.6935  137.4046  155.1800 H   0  0  0  0  0  0  0  0  0  0  0  0
  1  2  1  0  0  0  0
  1 21  1  0  0  0  0
  1 22  1  0  0  0  0
  1 23  1  0  0  0  0
  2  3  1  0  0  0  0
  2  4  1  0  0  0  0
  2 24  1  0  0  0  0
  3 25  1  0  0  0  0
  3 26  1  0  0  0  0
  3 27  1  0  0  0  0
  4  9  1  0  0  0  0
  4  5  1  0  0  0  0
  5  6  1  0  0  0  0
  5 28  1  0  0  0  0
  5 29  1  0  0  0  0
  6  7  1  0  0  0  0
  6 30  1  0  0  0  0
  6 31  1  0  0  0  0
  7  8  1  0  0  0  0
  7 32  1  0  0  0  0
  7 33  1  0  0  0  0
  8  9  1  0  0  0  0
  8 34  1  0  0  0  0
  8 35  1  0  0  0  0
  9 10  1  0  0  0  0
  9 36  1  0  0  0  0
 10 11  2  0  0  0  0
 10 12  1  0  0  0  0
 12 13  1  0  0  0  0
 12 37  1  0  0  0  0
 13 14  1  0  0  0  0
 13 38  1  0  0  0  0
 13 39  1  0  0  0  0
 14 15  1  0  0  0  0
 14 40  1  0  0  0  0
 14 41  1  0  0  0  0
 15 20  2  0  0  0  0
 15 16  1  0  0  0  0
 16 17  2  0  0  0  0
 16 42  1  0  0  0  0
 17 18  1  0  0  0  0
 18 19  1  0  0  0  0
 18 20  1  0  0  0  0
 19 43  1  0  0  0  0
 19 44  1  0  0  0  0
 19 45  1  0  0  0  0
 20 46  1  0  0  0  0
M  END
> <s_m_source_file>
AV-unprocessed.smi

> <i_m_source_file_index>
657

> <i_lp_mmshare_version>
43012

> <i_f3d_flags>
0

> <s_epik_input>
W0NIM11bQ0hdKFtDSDNdKU4xW0NIMl1bQ0gyXVtDSDJdW0NIMl1bQ0BIXTFDKD1PKVtOSF1bQ0gyXVtDSDJdYzJbY0hdbm4oW0NIM10pW2NIXTI=

> <s_epik_cmdline>
J2VwaWtfcHl0aG9uJywgJy1waCcsICc3LjAnLCAnLXRuJywgJzgnLCAnLW1hJywgJzIwMCcsICctbWV0YWxfYmluZGluZycsICctaW1hZScsICc8aW5maWxlLm1hZT4nLCAnLW9tYWUnLCAnPG91dGZpbGUubWFlPic=

> <r_lp_tautomer_probability>
1

> <r_epik_Ionization_Penalty>
1.91154

> <r_epik_Ionization_Penalty_Charging>
0

> <r_epik_Ionization_Penalty_Neutral>
1.91154

> <r_epik_State_Penalty>
2.0331

> <r_epik_Charging_Adjusted_Penalty>
2.0331

> <i_epik_Tot_Q>
0

> <i_epik_Tot_abs_Q>
0

> <r_epik_Metal_State_Penalty>
2.04973

> <b_epik_Metal_Only>
0

> <s_lp_Force_Field>
OPLS_2005

> <r_lp_Energy>
17.3109

> <b_lp_Chiralities_Consistent>
1

> <s_lp_Variant>
AV-unprocessed.smi:657-5

> <Gold.Version>
5.8.1

> <Gold.Id.Protein>
6NUR|6NUR_protein|mol2

> <Gold.PLP.Fitness>
48.0930

> <Gold.PLP.PLP>
-45.5488

> <Gold.PLP.part.hbond>
-1.0000

> <Gold.PLP.part.metal>
0.0000

> <Gold.PLP.part.buried>
-5.9544

> <Gold.PLP.part.nonpolar>
-39.1515

> <Gold.PLP.part.repulsive>
0.3529

> <Gold.PLP.ligand.clash>
0.0000

> <Gold.PLP.ligand.torsion>
0.2836

> <Gold.PLP.Chemscore.Hbond>
1.0000

> <Gold.PLP.Chemscore.CHOScore>
0.0000

> <Gold.PLP.Chemscore.Metal>
0.0000

> <Gold.Chemscore.Hbonds>
donor molecule, donor type, donor heavy atom, donor atom, acceptor molecule, acceptor atom, score
      P1  H 10752 10765       L1    17  1.00

> <Gold.PLP.Chemscore.Internal.Correction>
0.1113

> <Gold.Rescore>
     Score         DG    S(hbond)    S(metal)    S(lipo)     H(rot)  DE(clash)    DE(int)     intcor
     16.90     -18.91       0.99        0.00     120.94       1.57       0.08       1.93       ----

> <Gold.Chemscore.Fitness>
16.9027

> <Gold.Chemscore.DG>
-18.9100

> <Gold.Chemscore.ZeroCoef>
-5.4800

> <Gold.Chemscore.Hbond>
0.9906

> <Gold.Chemscore.Metal>
0.0000

> <Gold.Chemscore.Lipo>
120.9381

> <Gold.Chemscore.Internal_Hbond>
0.0000

> <Gold.Chemscore.DEClash>
0.0799

> <Gold.Chemscore.DEInternal>
1.9274

> <Gold.Chemscore.Rot>
1.5736

> <Gold.Chemscore.Internal.Correction>
   9.000000E+99

> <Gold.Chemscore.Hbonds>
donor molecule, donor type, donor heavy atom, donor atom, acceptor molecule, acceptor atom, score
      P1  H 10752 10765       L1    17  0.76

> <Gold.Chemscore.Hbond.Weighted>
-3.3087

> <Gold.Chemscore.Metal.Weighted>
-0.0000

> <Gold.Chemscore.Lipo.Weighted>
-14.1498

> <Gold.Chemscore.Internal_Hbond.Weighted>
0.0000

> <Gold.Chemscore.DEClash.Weighted>
0.0799

> <Gold.Chemscore.DEInternal.Weighted>
1.9274

> <Gold.Chemscore.Rot.Weighted>
4.0284

> <Gold.Chemscore.Internal.Correction.Weighted>
   9.000000E+99

> <Gold.Protein.RotatedTorsions>
[ 6907 6896 6895 6894 ] final   65.34 input  -60.11 | X-H torsion
[ 7974 7965 7964 7962 ] final  116.07 input  175.53 | X-H torsion
[ 8008 7997 7996 7995 ] final   24.04 input   59.86 | X-H torsion
[ 10167 10162 10161 10158 ] final  -94.27 input  -65.29 | X-H torsion
[ 10718 10713 10712 10709 ] final  -86.49 input   66.30 | X-H torsion
[ 10763 10752 10751 10750 ] final  177.85 input  -60.55 | X-H torsion
[ 11005 11000 10999 10996 ] final  -48.49 input  -57.11 | X-H torsion

> <Gold.Protein.ActiveResidues>
 VAL166  LYS551  ARG553  GLY616  TRP617  ASP618  TYR619  PRO620  LYS621  CYS622 
 ASP623  PHE694  ASN695  SER759  ASP760  ASP761  ALA762  ILE779  LEU786  VAL792 
 PHE793  MET794  SER795  GLU796  ALA797  LYS798  CYS799  TRP800  GLU811  SER814 

> <Gold.Protein.RotatedAtoms>
  152.4400  134.5610  159.9893 H   0  0  0  0  0  0  0  0  0  0  0  0  # atno 6907 bound_to 6896
  151.5710  133.3384  159.2997 H   0  0  0  0  0  0  0  0  0  0  0  0  # atno 6908 bound_to 6896
  150.8305  134.7589  159.6913 H   0  0  0  0  0  0  0  0  0  0  0  0  # atno 6909 bound_to 6896
  145.1842  139.3034  143.4402 H   0  0  0  0  0  0  0  0  0  0  0  0  # atno 7974 bound_to 7965
  154.9902  140.3113  155.4909 H   0  0  0  0  0  0  0  0  0  0  0  0  # atno 8008 bound_to 7997
  156.2941  140.2250  156.4946 H   0  0  0  0  0  0  0  0  0  0  0  0  # atno 8009 bound_to 7997
  154.7710  140.0452  157.1040 H   0  0  0  0  0  0  0  0  0  0  0  0  # atno 8010 bound_to 7997
  140.3161  143.3076  152.0096 H   0  0  0  0  0  0  0  0  0  0  0  0  # atno 10167 bound_to 10162
  155.9989  130.4767  150.4723 H   0  0  0  0  0  0  0  0  0  0  0  0  # atno 10718 bound_to 10713
  154.4999  135.2783  155.1429 H   0  0  0  0  0  0  0  0  0  0  0  0  # atno 10763 bound_to 10752
  154.3067  135.6237  153.5451 H   0  0  0  0  0  0  0  0  0  0  0  0  # atno 10764 bound_to 10752
  152.9901  135.5710  154.5439 H   0  0  0  0  0  0  0  0  0  0  0  0  # atno 10765 bound_to 10752
  141.0704  133.6681  156.3449 H   0  0  0  0  0  0  0  0  0  0  0  0  # atno 11005 bound_to 11000
  146.3448  140.2031  142.8589 LP  0  0  0  0  0  0  0  0  0  0  0  0  # atno 17320 bound_to 7965
  145.0106  140.8711  143.5226 LP  0  0  0  0  0  0  0  0  0  0  0  0  # atno 17321 bound_to 7965
  139.4883  144.6347  151.6999 LP  0  0  0  0  0  0  0  0  0  0  0  0  # atno 17342 bound_to 10162
  140.5525  144.0402  150.6133 LP  0  0  0  0  0  0  0  0  0  0  0  0  # atno 17343 bound_to 10162
  157.2736  131.0592  151.2243 LP  0  0  0  0  0  0  0  0  0  0  0  0  # atno 17370 bound_to 10713
  157.3315  130.6987  149.6327 LP  0  0  0  0  0  0  0  0  0  0  0  0  # atno 17371 bound_to 10713
  140.5686  134.5863  157.5452 LP  0  0  0  0  0  0  0  0  0  0  0  0  # atno 17394 bound_to 11000
  139.9517  134.7604  156.0432 LP  0  0  0  0  0  0  0  0  0  0  0  0  # atno 17395 bound_to 11000

$$$$
