AV-unprocessed.smi:1834|AV-procd|sdf|7472|dock7
  -GOLD-   22720 9163D 1   1.00000     0.00000
 Structure written by MMmdl.
 46 47  0  0  0  0  0  0  0  0  2 V2000
  146.3314  138.7507  152.2308 C   0  0  0  0  0  0  0  0  0  0  0  0
  146.6770  138.6198  153.7216 C   0  0  0  0  0  0  0  0  0  0  0  0
  147.9903  137.9652  153.9499 N   0  3  2  0  0  0  0  0  0  0  0  0
  147.9087  136.8947  154.9758 C   0  0  0  0  0  0  0  0  0  0  0  0
  149.2415  136.1411  155.0923 C   0  0  0  0  0  0  0  0  0  0  0  0
  150.3879  137.1075  155.4113 C   0  0  0  0  0  0  0  0  0  0  0  0
  150.4576  138.2323  154.3629 C   0  0  2  0  0  0  0  0  0  0  0  0
  151.6067  139.2091  154.6975 C   0  0  0  0  0  0  0  0  0  0  0  0
  151.2620  140.1507  155.7600 N   0  0  0  0  0  0  0  0  0  0  0  0
  152.0748  140.5290  156.7577 C   0  0  0  0  0  0  0  0  0  0  0  0
  153.2181  140.0946  156.9001 O   0  0  0  0  0  0  0  0  0  0  0  0
  151.4718  141.4186  157.5652 N   0  0  0  0  0  0  0  0  0  0  0  0
  151.9491  141.9942  158.7007 C   0  0  0  0  0  0  0  0  0  0  0  0
  152.6344  141.4182  159.7356 C   0  0  0  0  0  0  0  0  0  0  0  0
  152.8536  142.5168  160.6165 C   0  0  0  0  0  0  0  0  0  0  0  0
  153.5612  142.5133  161.9392 C   0  0  0  0  0  0  0  0  0  0  0  0
  152.3452  143.6536  160.1544 N   0  0  0  0  0  0  0  0  0  0  0  0
  151.7836  143.3348  158.9684 N   0  0  0  0  0  0  0  0  0  0  0  0
  151.1283  144.3584  158.1777 C   0  0  0  0  0  0  0  0  0  0  0  0
  149.0815  138.9306  154.2508 C   0  0  0  0  0  0  0  0  0  0  0  0
  145.3203  139.1389  152.1065 H   0  0  0  0  0  0  0  0  0  0  0  0
  146.3766  137.7837  151.7290 H   0  0  0  0  0  0  0  0  0  0  0  0
  147.0022  139.4337  151.7103 H   0  0  0  0  0  0  0  0  0  0  0  0
  146.6541  139.5952  154.2097 H   0  0  0  0  0  0  0  0  0  0  0  0
  145.8933  138.0226  154.1899 H   0  0  0  0  0  0  0  0  0  0  0  0
  147.6349  137.3300  155.9384 H   0  0  0  0  0  0  0  0  0  0  0  0
  147.1215  136.1872  154.7117 H   0  0  0  0  0  0  0  0  0  0  0  0
  149.1713  135.3784  155.8683 H   0  0  0  0  0  0  0  0  0  0  0  0
  149.4509  135.6157  154.1595 H   0  0  0  0  0  0  0  0  0  0  0  0
  150.2412  137.5335  156.4049 H   0  0  0  0  0  0  0  0  0  0  0  0
  151.3312  136.5610  155.4436 H   0  0  0  0  0  0  0  0  0  0  0  0
  150.6817  137.7740  153.3980 H   0  0  0  0  0  0  0  0  0  0  0  0
  152.5153  138.6582  154.9474 H   0  0  0  0  0  0  0  0  0  0  0  0
  151.8496  139.8007  153.8144 H   0  0  0  0  0  0  0  0  0  0  0  0
  150.3397  140.5598  155.7203 H   0  0  0  0  0  0  0  0  0  0  0  0
  150.5327  141.6873  157.3106 H   0  0  0  0  0  0  0  0  0  0  0  0
  152.9382  140.3902  159.8621 H   0  0  0  0  0  0  0  0  0  0  0  0
  153.9341  141.5185  162.1839 H   0  0  0  0  0  0  0  0  0  0  0  0
  152.8929  142.8234  162.7428 H   0  0  0  0  0  0  0  0  0  0  0  0
  154.4132  143.1935  161.9311 H   0  0  0  0  0  0  0  0  0  0  0  0
  150.1340  144.0181  157.8860 H   0  0  0  0  0  0  0  0  0  0  0  0
  151.7151  144.5577  157.2807 H   0  0  0  0  0  0  0  0  0  0  0  0
  151.0307  145.2819  158.7503 H   0  0  0  0  0  0  0  0  0  0  0  0
  149.1209  139.6748  153.4579 H   0  0  0  0  0  0  0  0  0  0  0  0
  148.8528  139.4646  155.1747 H   0  0  0  0  0  0  0  0  0  0  0  0
  148.2341  137.5056  153.0842 H   0  0  0  0  0  0  0  0  0  0  0  0
  1  2  1  0  0  0  0
  1 21  1  0  0  0  0
  1 22  1  0  0  0  0
  1 23  1  0  0  0  0
  2  3  1  0  0  0  0
  2 24  1  0  0  0  0
  2 25  1  0  0  0  0
  3 20  1  0  0  0  0
  3  4  1  0  0  0  0
  3 46  1  0  0  0  0
  4  5  1  0  0  0  0
  4 26  1  0  0  0  0
  4 27  1  0  0  0  0
  5  6  1  0  0  0  0
  5 28  1  0  0  0  0
  5 29  1  0  0  0  0
  6  7  1  0  0  0  0
  6 30  1  0  0  0  0
  6 31  1  0  0  0  0
  7  8  1  0  0  0  0
  7 20  1  0  0  0  0
  7 32  1  0  0  0  0
  8  9  1  0  0  0  0
  8 33  1  0  0  0  0
  8 34  1  0  0  0  0
  9 10  1  0  0  0  0
  9 35  1  0  0  0  0
 10 11  2  0  0  0  0
 10 12  1  0  0  0  0
 12 13  1  0  0  0  0
 12 36  1  0  0  0  0
 13 18  1  0  0  0  0
 13 14  2  0  0  0  0
 14 15  1  0  0  0  0
 14 37  1  0  0  0  0
 15 16  1  0  0  0  0
 15 17  2  0  0  0  0
 16 38  1  0  0  0  0
 16 39  1  0  0  0  0
 16 40  1  0  0  0  0
 17 18  1  0  0  0  0
 18 19  1  0  0  0  0
 19 41  1  0  0  0  0
 19 42  1  0  0  0  0
 19 43  1  0  0  0  0
 20 44  1  0  0  0  0
 20 45  1  0  0  0  0
M  CHG  1   3   1
M  END
> <s_m_source_file>
AV-unprocessed.smi

> <i_m_source_file_index>
1834

> <i_lp_mmshare_version>
43012

> <i_f3d_flags>
0

> <s_epik_input>
W0NIM11bQ0gyXU4xW0NIMl1bQ0gyXVtDSDJdW0NASF0oW0NIMl0xKVtDSDJdW05IXUMoPU8pW05IXWMyW2NIXWMoW0NIM10pbm4yW0NIM10=

> <s_epik_cmdline>
J2VwaWtfcHl0aG9uJywgJy1waCcsICc3LjAnLCAnLXRuJywgJzgnLCAnLW1hJywgJzIwMCcsICctbWV0YWxfYmluZGluZycsICctaW1hZScsICc8aW5maWxlLm1hZT4nLCAnLW9tYWUnLCAnPG91dGZpbGUubWFlPic=

> <r_lp_tautomer_probability>
1

> <r_epik_Ionization_Penalty>
0.000466842

> <r_epik_Ionization_Penalty_Charging>
0.000378984

> <r_epik_Ionization_Penalty_Neutral>
8.78572e-05

> <r_epik_State_Penalty>
0.000231434

> <r_epik_Charging_Adjusted_Penalty>
0.000610418

> <i_epik_Tot_Q>
1

> <i_epik_Tot_abs_Q>
1

> <r_epik_Metal_State_Penalty>
-0

> <b_epik_Metal_Only>
0

> <s_lp_Force_Field>
OPLS_2005

> <r_lp_Energy>
19.5344

> <b_lp_Chiralities_Consistent>
1

> <s_lp_Variant>
AV-unprocessed.smi:1834-4

> <Gold.Version>
5.8.1

> <Gold.Id.Protein>
6NUR|6NUR_protein|mol2

> <Gold.PLP.Fitness>
47.5328

> <Gold.PLP.PLP>
-40.9805

> <Gold.PLP.part.hbond>
-1.9417

> <Gold.PLP.part.metal>
0.0000

> <Gold.PLP.part.buried>
-3.3308

> <Gold.PLP.part.nonpolar>
-36.3295

> <Gold.PLP.part.repulsive>
0.2264

> <Gold.PLP.ligand.clash>
0.0000

> <Gold.PLP.ligand.torsion>
1.2420

> <Gold.PLP.Chemscore.Hbond>
3.0000

> <Gold.PLP.Chemscore.CHOScore>
0.0000

> <Gold.PLP.Chemscore.Metal>
0.0000

> <Gold.Chemscore.Hbonds>
donor molecule, donor type, donor heavy atom, donor atom, acceptor molecule, acceptor atom, score
      L1  H     3    46       P1  7948  2.00
      P1  H  7997  8008       L1    11  0.13

> <Gold.PLP.Chemscore.Internal.Correction>
0.0364

> <Gold.Rescore>
     Score         DG    S(hbond)    S(metal)    S(lipo)     H(rot)  DE(clash)    DE(int)     intcor
     17.33     -18.55       1.94        0.00      87.57       1.43       0.08       1.14       ----

> <Gold.Chemscore.Fitness>
17.3318

> <Gold.Chemscore.DG>
-18.5540

> <Gold.Chemscore.ZeroCoef>
-5.4800

> <Gold.Chemscore.Hbond>
1.9422

> <Gold.Chemscore.Metal>
0.0000

> <Gold.Chemscore.Lipo>
87.5692

> <Gold.Chemscore.Internal_Hbond>
0.0000

> <Gold.Chemscore.DEClash>
0.0814

> <Gold.Chemscore.DEInternal>
1.1408

> <Gold.Chemscore.Rot>
1.4291

> <Gold.Chemscore.Internal.Correction>
   9.000000E+99

> <Gold.Chemscore.Hbonds>
donor molecule, donor type, donor heavy atom, donor atom, acceptor molecule, acceptor atom, score
      L1  H     3    46       P1  7948  1.00
      P1  H  7997  8008       L1    11  0.16

> <Gold.Chemscore.Hbond.Weighted>
-6.4869

> <Gold.Chemscore.Metal.Weighted>
-0.0000

> <Gold.Chemscore.Lipo.Weighted>
-10.2456

> <Gold.Chemscore.Internal_Hbond.Weighted>
0.0000

> <Gold.Chemscore.DEClash.Weighted>
0.0814

> <Gold.Chemscore.DEInternal.Weighted>
1.1408

> <Gold.Chemscore.Rot.Weighted>
3.6584

> <Gold.Chemscore.Internal.Correction.Weighted>
   9.000000E+99

> <Gold.Protein.RotatedTorsions>
[ 6907 6896 6895 6894 ] final   39.44 input  -60.11 | X-H torsion
[ 7974 7965 7964 7962 ] final   61.73 input  175.53 | X-H torsion
[ 8008 7997 7996 7995 ] final  -56.29 input   59.86 | X-H torsion
[ 10167 10162 10161 10158 ] final -136.62 input  -65.29 | X-H torsion
[ 10718 10713 10712 10709 ] final  -58.11 input   66.30 | X-H torsion
[ 10763 10752 10751 10750 ] final  -10.64 input  -60.55 | X-H torsion
[ 11005 11000 10999 10996 ] final -172.87 input  -57.11 | X-H torsion

> <Gold.Protein.ActiveResidues>
 VAL166  LYS551  ARG553  GLY616  TRP617  ASP618  TYR619  PRO620  LYS621  CYS622 
 ASP623  PHE694  ASN695  SER759  ASP760  ASP761  ALA762  ILE779  LEU786  VAL792 
 PHE793  MET794  SER795  GLU796  ALA797  LYS798  CYS799  TRP800  GLU811  SER814 

> <Gold.Protein.RotatedAtoms>
  152.1695  134.8845  160.0535 H   0  0  0  0  0  0  0  0  0  0  0  0  # atno 6907 bound_to 6896
  151.9811  133.3753  159.4116 H   0  0  0  0  0  0  0  0  0  0  0  0  # atno 6908 bound_to 6896
  150.6899  134.3961  159.5142 H   0  0  0  0  0  0  0  0  0  0  0  0  # atno 6909 bound_to 6896
  145.8815  139.3446  143.0703 H   0  0  0  0  0  0  0  0  0  0  0  0  # atno 7974 bound_to 7965
  154.4225  140.1133  156.5614 H   0  0  0  0  0  0  0  0  0  0  0  0  # atno 8008 bound_to 7997
  155.6307  140.3495  155.4663 H   0  0  0  0  0  0  0  0  0  0  0  0  # atno 8009 bound_to 7997
  155.9950  140.1187  157.0592 H   0  0  0  0  0  0  0  0  0  0  0  0  # atno 8010 bound_to 7997
  139.8659  143.7018  152.2645 H   0  0  0  0  0  0  0  0  0  0  0  0  # atno 10167 bound_to 10162
  156.1160  130.4170  150.0532 H   0  0  0  0  0  0  0  0  0  0  0  0  # atno 10718 bound_to 10713
  153.4721  135.7017  153.5987 H   0  0  0  0  0  0  0  0  0  0  0  0  # atno 10763 bound_to 10752
  153.4237  135.3819  155.2127 H   0  0  0  0  0  0  0  0  0  0  0  0  # atno 10764 bound_to 10752
  154.8725  135.3934  154.4160 H   0  0  0  0  0  0  0  0  0  0  0  0  # atno 10765 bound_to 10752
  140.4922  134.5974  157.4958 H   0  0  0  0  0  0  0  0  0  0  0  0  # atno 11005 bound_to 11000
  145.9018  140.9238  143.0499 LP  0  0  0  0  0  0  0  0  0  0  0  0  # atno 17320 bound_to 7965
  144.6727  140.1043  143.7459 LP  0  0  0  0  0  0  0  0  0  0  0  0  # atno 17321 bound_to 7965
  139.7329  144.7578  151.0773 LP  0  0  0  0  0  0  0  0  0  0  0  0  # atno 17342 bound_to 10162
  140.7768  143.5066  150.9705 LP  0  0  0  0  0  0  0  0  0  0  0  0  # atno 17343 bound_to 10162
  156.8483  130.9450  151.3627 LP  0  0  0  0  0  0  0  0  0  0  0  0  # atno 17370 bound_to 10713
  157.6343  130.8754  149.9330 LP  0  0  0  0  0  0  0  0  0  0  0  0  # atno 17371 bound_to 10713
  139.9763  134.7211  155.9944 LP  0  0  0  0  0  0  0  0  0  0  0  0  # atno 17394 bound_to 11000
  141.1478  133.6553  156.3921 LP  0  0  0  0  0  0  0  0  0  0  0  0  # atno 17395 bound_to 11000

$$$$
