AV-unprocessed.smi:2269|AV-procd|sdf|9153|dock10
  -GOLD-   2272012363D 1   1.00000     0.00000
 Structure written by MMmdl.
 41 42  0  0  0  0  0  0  0  0  1 V2000
  152.2696  143.8307  161.4600 C   0  0  0  0  0  0  0  0  0  0  0  0
  152.2601  142.8912  160.2669 C   0  0  0  0  0  0  0  0  0  0  0  0
  151.3889  143.2402  159.2306 N   0  0  0  0  0  0  0  0  0  0  0  0
  151.3155  142.4996  158.1733 C   0  0  0  0  0  0  0  0  0  0  0  0
  152.0949  141.3407  158.0296 N   0  0  0  0  0  0  0  0  0  0  0  0
  151.9132  140.5838  156.7810 C   0  0  0  0  0  0  0  0  0  0  0  0
  150.6264  141.0006  156.0317 C   0  0  1  0  0  0  0  0  0  0  0  0
  150.5860  140.3340  154.7861 O   0  0  0  0  0  0  0  0  0  0  0  0
  149.3593  140.6050  156.8031 C   0  0  0  0  0  0  0  0  0  0  0  0
  148.2314  141.0802  156.0828 O   0  0  0  0  0  0  0  0  0  0  0  0
  147.2712  141.7525  156.8839 C   0  0  0  0  0  0  0  0  0  0  0  0
  146.2960  142.5903  156.0698 C   0  0  0  0  0  0  0  0  0  0  0  0
  145.2847  143.3161  156.7356 C   0  0  0  0  0  0  0  0  0  0  0  0
  144.3695  144.0976  156.0048 C   0  0  0  0  0  0  0  0  0  0  0  0
  144.4581  144.1561  154.6017 C   0  0  0  0  0  0  0  0  0  0  0  0
  145.4607  143.4307  153.9306 C   0  0  0  0  0  0  0  0  0  0  0  0
  146.3791  142.6465  154.6574 C   0  0  0  0  0  0  0  0  0  0  0  0
  147.5902  141.7654  153.7932 Cl  0  0  0  0  0  0  0  0  0  0  0  0
  152.9629  140.9224  158.9958 C   0  0  0  0  0  0  0  0  0  0  0  0
  153.6297  139.8940  158.8657 O   0  0  0  0  0  0  0  0  0  0  0  0
  153.0383  141.7770  160.1918 C   0  0  0  0  0  0  0  0  0  0  0  0
  154.0034  141.3464  161.2895 C   0  0  0  0  0  0  0  0  0  0  0  0
  151.9762  143.3003  162.3663 H   0  0  0  0  0  0  0  0  0  0  0  0
  151.5750  144.6596  161.3185 H   0  0  0  0  0  0  0  0  0  0  0  0
  153.2648  144.2511  161.6072 H   0  0  0  0  0  0  0  0  0  0  0  0
  150.6489  142.7243  157.3387 H   0  0  0  0  0  0  0  0  0  0  0  0
  152.7834  140.6522  156.1243 H   0  0  0  0  0  0  0  0  0  0  0  0
  151.8647  139.5232  157.0334 H   0  0  0  0  0  0  0  0  0  0  0  0
  150.6031  142.0756  155.8475 H   0  0  0  0  0  0  0  0  0  0  0  0
  150.4255  139.4158  154.9418 H   0  0  0  0  0  0  0  0  0  0  0  0
  149.2881  139.5197  156.8914 H   0  0  0  0  0  0  0  0  0  0  0  0
  149.3919  141.0149  157.8138 H   0  0  0  0  0  0  0  0  0  0  0  0
  146.6992  141.0008  157.4283 H   0  0  0  0  0  0  0  0  0  0  0  0
  147.7722  142.3598  157.6392 H   0  0  0  0  0  0  0  0  0  0  0  0
  145.2084  143.2793  157.8123 H   0  0  0  0  0  0  0  0  0  0  0  0
  143.5996  144.6520  156.5212 H   0  0  0  0  0  0  0  0  0  0  0  0
  143.7565  144.7552  154.0400 H   0  0  0  0  0  0  0  0  0  0  0  0
  145.5238  143.4756  152.8534 H   0  0  0  0  0  0  0  0  0  0  0  0
  155.0208  141.3037  160.8996 H   0  0  0  0  0  0  0  0  0  0  0  0
  153.7391  140.3532  161.6537 H   0  0  0  0  0  0  0  0  0  0  0  0
  154.0082  142.0186  162.1459 H   0  0  0  0  0  0  0  0  0  0  0  0
  1  2  1  0  0  0  0
  1 23  1  0  0  0  0
  1 24  1  0  0  0  0
  1 25  1  0  0  0  0
  2 21  2  0  0  0  0
  2  3  1  0  0  0  0
  3  4  2  0  0  0  0
  4  5  1  0  0  0  0
  4 26  1  0  0  0  0
  5  6  1  0  0  0  0
  5 19  1  0  0  0  0
  6  7  1  0  0  0  0
  6 27  1  0  0  0  0
  6 28  1  0  0  0  0
  7  8  1  0  0  0  0
  7  9  1  0  0  0  0
  7 29  1  0  0  0  0
  8 30  1  0  0  0  0
  9 10  1  0  0  0  0
  9 31  1  0  0  0  0
  9 32  1  0  0  0  0
 10 11  1  0  0  0  0
 11 12  1  0  0  0  0
 11 33  1  0  0  0  0
 11 34  1  0  0  0  0
 12 17  1  0  0  0  0
 12 13  2  0  0  0  0
 13 14  1  0  0  0  0
 13 35  1  0  0  0  0
 14 15  2  0  0  0  0
 14 36  1  0  0  0  0
 15 16  1  0  0  0  0
 15 37  1  0  0  0  0
 16 17  2  0  0  0  0
 16 38  1  0  0  0  0
 17 18  1  0  0  0  0
 19 20  2  0  0  0  0
 19 21  1  0  0  0  0
 21 22  1  0  0  0  0
 22 39  1  0  0  0  0
 22 40  1  0  0  0  0
 22 41  1  0  0  0  0
M  END
> <s_m_source_file>
AV-unprocessed.smi

> <i_m_source_file_index>
2269

> <i_lp_mmshare_version>
43012

> <i_f3d_flags>
0

> <s_epik_input>
W0NIM11jMW5bY0hdbihjKD1PKWMxW0NIM10pW0NIMl1bQ0BIXShbT0hdKVtDSDJdT1tDSDJdYzJbY0hdW2NIXVtjSF1bY0hdYzJDbA==

> <s_epik_cmdline>
J2VwaWtfcHl0aG9uJywgJy1waCcsICc3LjAnLCAnLXRuJywgJzgnLCAnLW1hJywgJzIwMCcsICctbWV0YWxfYmluZGluZycsICctaW1hZScsICc8aW5maWxlLm1hZT4nLCAnLW9tYWUnLCAnPG91dGZpbGUubWFlPic=

> <r_lp_tautomer_probability>
1

> <r_epik_Ionization_Penalty>
5.36022e-05

> <r_epik_Ionization_Penalty_Charging>
1.17753e-07

> <r_epik_Ionization_Penalty_Neutral>
5.34845e-05

> <r_epik_State_Penalty>
-0

> <r_epik_Charging_Adjusted_Penalty>
1.17753e-07

> <i_epik_Tot_Q>
0

> <i_epik_Tot_abs_Q>
0

> <r_epik_Metal_State_Penalty>
-0

> <b_epik_Metal_Only>
0

> <s_lp_Force_Field>
OPLS_2005

> <r_lp_Energy>
21.6364

> <b_lp_Chiralities_Consistent>
1

> <s_lp_Variant>
AV-unprocessed.smi:2269-2

> <Gold.Version>
5.8.1

> <Gold.Id.Protein>
6NUR|6NUR_protein|mol2

> <Gold.PLP.Fitness>
47.4485

> <Gold.PLP.PLP>
-45.3000

> <Gold.PLP.part.hbond>
-2.0000

> <Gold.PLP.part.metal>
0.0000

> <Gold.PLP.part.buried>
-7.8851

> <Gold.PLP.part.nonpolar>
-36.0130

> <Gold.PLP.part.repulsive>
0.0935

> <Gold.PLP.ligand.clash>
2.6950

> <Gold.PLP.ligand.torsion>
0.6288

> <Gold.PLP.Chemscore.Hbond>
1.9913

> <Gold.PLP.Chemscore.CHOScore>
0.0000

> <Gold.PLP.Chemscore.Metal>
0.0000

> <Gold.Chemscore.Hbonds>
donor molecule, donor type, donor heavy atom, donor atom, acceptor molecule, acceptor atom, score
      P1  H  7989  7998       L1     8  1.00
      P1  H  7997  8008       L1    20  0.99

> <Gold.PLP.Chemscore.Internal.Correction>
0.1275

> <Gold.Rescore>
     Score         DG    S(hbond)    S(metal)    S(lipo)     H(rot)  DE(clash)    DE(int)     intcor
     13.78     -16.36       1.75        0.00      98.08       2.52       0.12       2.46       ----

> <Gold.Chemscore.Fitness>
13.7754

> <Gold.Chemscore.DG>
-16.3598

> <Gold.Chemscore.ZeroCoef>
-5.4800

> <Gold.Chemscore.Hbond>
1.7504

> <Gold.Chemscore.Metal>
0.0000

> <Gold.Chemscore.Lipo>
98.0763

> <Gold.Chemscore.Internal_Hbond>
0.0000

> <Gold.Chemscore.DEClash>
0.1231

> <Gold.Chemscore.DEInternal>
2.4613

> <Gold.Chemscore.Rot>
2.5162

> <Gold.Chemscore.Internal.Correction>
   9.000000E+99

> <Gold.Chemscore.Hbonds>
donor molecule, donor type, donor heavy atom, donor atom, acceptor molecule, acceptor atom, score
      P1  H  7989  7998       L1     8  0.95
      P1  H  7997  8008       L1    20  0.64

> <Gold.Chemscore.Hbond.Weighted>
-5.8463

> <Gold.Chemscore.Metal.Weighted>
-0.0000

> <Gold.Chemscore.Lipo.Weighted>
-11.4749

> <Gold.Chemscore.Internal_Hbond.Weighted>
0.0000

> <Gold.Chemscore.DEClash.Weighted>
0.1231

> <Gold.Chemscore.DEInternal.Weighted>
2.4613

> <Gold.Chemscore.Rot.Weighted>
6.4414

> <Gold.Chemscore.Internal.Correction.Weighted>
   9.000000E+99

> <Gold.Protein.RotatedTorsions>
[ 6907 6896 6895 6894 ] final   44.68 input  -60.11 | X-H torsion
[ 7974 7965 7964 7962 ] final -129.38 input  175.53 | X-H torsion
[ 8008 7997 7996 7995 ] final  -99.22 input   59.86 | X-H torsion
[ 10167 10162 10161 10158 ] final -124.48 input  -65.29 | X-H torsion
[ 10718 10713 10712 10709 ] final   13.82 input   66.30 | X-H torsion
[ 10763 10752 10751 10750 ] final  -21.61 input  -60.55 | X-H torsion
[ 11005 11000 10999 10996 ] final  -25.38 input  -57.11 | X-H torsion

> <Gold.Protein.ActiveResidues>
 VAL166  LYS551  ARG553  GLY616  TRP617  ASP618  TYR619  PRO620  LYS621  CYS622 
 ASP623  PHE694  ASN695  SER759  ASP760  ASP761  ALA762  ILE779  LEU786  VAL792 
 PHE793  MET794  SER795  GLU796  ALA797  LYS798  CYS799  TRP800  GLU811  SER814 

> <Gold.Protein.RotatedAtoms>
  152.2354  134.8281  160.0467 H   0  0  0  0  0  0  0  0  0  0  0  0  # atno 6907 bound_to 6896
  151.9015  133.3534  159.3840 H   0  0  0  0  0  0  0  0  0  0  0  0  # atno 6908 bound_to 6896
  150.7038  134.4749  159.5487 H   0  0  0  0  0  0  0  0  0  0  0  0  # atno 6909 bound_to 6896
  144.9578  140.7414  143.4748 H   0  0  0  0  0  0  0  0  0  0  0  0  # atno 7974 bound_to 7965
  154.8119  140.0449  157.1348 H   0  0  0  0  0  0  0  0  0  0  0  0  # atno 8008 bound_to 7997
  154.9359  140.3046  155.5125 H   0  0  0  0  0  0  0  0  0  0  0  0  # atno 8009 bound_to 7997
  156.2972  140.2314  156.4423 H   0  0  0  0  0  0  0  0  0  0  0  0  # atno 8010 bound_to 7997
  139.9924  143.5627  152.2337 H   0  0  0  0  0  0  0  0  0  0  0  0  # atno 10167 bound_to 10162
  157.0302  130.6190  149.5734 H   0  0  0  0  0  0  0  0  0  0  0  0  # atno 10718 bound_to 10713
  153.6388  135.6986  153.5249 H   0  0  0  0  0  0  0  0  0  0  0  0  # atno 10763 bound_to 10752
  153.2799  135.4189  155.1068 H   0  0  0  0  0  0  0  0  0  0  0  0  # atno 10764 bound_to 10752
  154.8504  135.3599  154.5932 H   0  0  0  0  0  0  0  0  0  0  0  0  # atno 10765 bound_to 10752
  140.8933  133.7574  156.0449 H   0  0  0  0  0  0  0  0  0  0  0  0  # atno 11005 bound_to 11000
  145.2746  139.1941  143.4823 LP  0  0  0  0  0  0  0  0  0  0  0  0  # atno 17320 bound_to 7965
  146.3343  140.2698  142.8605 LP  0  0  0  0  0  0  0  0  0  0  0  0  # atno 17321 bound_to 7965
  139.6331  144.7646  151.2495 LP  0  0  0  0  0  0  0  0  0  0  0  0  # atno 17342 bound_to 10162
  140.7450  143.6446  150.8304 LP  0  0  0  0  0  0  0  0  0  0  0  0  # atno 17343 bound_to 10162
  156.0072  130.5160  150.7870 LP  0  0  0  0  0  0  0  0  0  0  0  0  # atno 17370 bound_to 10713
  157.5183  131.0930  151.0111 LP  0  0  0  0  0  0  0  0  0  0  0  0  # atno 17371 bound_to 10713
  140.8320  134.3167  157.5345 LP  0  0  0  0  0  0  0  0  0  0  0  0  # atno 17394 bound_to 11000
  139.8732  134.9369  156.3672 LP  0  0  0  0  0  0  0  0  0  0  0  0  # atno 17395 bound_to 11000

$$$$
