AV-unprocessed.smi:2352|AV-procd|sdf|9379|dock8
  -GOLD-   2272013 03D 1   1.00000     0.00000
 Structure written by MMmdl.
 37 38  0  0  0  0  0  0  0  0  1 V2000
  146.8645  136.0709  155.1068 C   0  0  0  0  0  0  0  0  0  0  0  0
  148.1885  136.7845  155.3161 C   0  0  0  0  0  0  0  0  0  0  0  0
  148.1542  138.1747  155.1729 N   0  0  0  0  0  0  0  0  0  0  0  0
  149.2341  138.8666  155.3356 C   0  0  0  0  0  0  0  0  0  0  0  0
  150.4583  138.2585  155.6586 N   0  0  0  0  0  0  0  0  0  0  0  0
  151.6124  139.1595  155.8187 C   0  0  0  0  0  0  0  0  0  0  0  0
  152.1363  139.1900  157.2718 C   0  0  1  0  0  0  0  0  0  0  0  0
  153.4902  138.7810  157.2735 O   0  0  0  0  0  0  0  0  0  0  0  0
  151.9751  140.5751  157.8804 C   0  0  0  0  0  0  0  0  0  0  0  0
  152.4995  140.8450  159.1619 C   0  0  0  0  0  0  0  0  0  0  0  0
  152.3503  142.1219  159.7366 C   0  0  0  0  0  0  0  0  0  0  0  0
  151.6763  143.1461  159.0375 C   0  0  0  0  0  0  0  0  0  0  0  0
  151.5118  144.5219  159.6665 C   0  0  0  0  0  0  0  0  0  0  0  0
  152.0399  144.5581  160.8906 F   0  0  0  0  0  0  0  0  0  0  0  0
  152.1275  145.4273  158.9072 F   0  0  0  0  0  0  0  0  0  0  0  0
  150.2215  144.8453  159.7601 F   0  0  0  0  0  0  0  0  0  0  0  0
  151.1401  142.8715  157.7606 C   0  0  0  0  0  0  0  0  0  0  0  0
  151.2889  141.5945  157.1854 C   0  0  0  0  0  0  0  0  0  0  0  0
  150.5822  136.9077  155.8068 C   0  0  0  0  0  0  0  0  0  0  0  0
  151.6649  136.3831  156.0751 O   0  0  0  0  0  0  0  0  0  0  0  0
  149.3440  136.1336  155.6225 C   0  0  0  0  0  0  0  0  0  0  0  0
  149.4418  134.6224  155.7910 C   0  0  0  0  0  0  0  0  0  0  0  0
  146.5752  135.5295  156.0079 H   0  0  0  0  0  0  0  0  0  0  0  0
  146.9387  135.3619  154.2817 H   0  0  0  0  0  0  0  0  0  0  0  0
  146.0662  136.7752  154.8698 H   0  0  0  0  0  0  0  0  0  0  0  0
  149.2621  139.9524  155.2301 H   0  0  0  0  0  0  0  0  0  0  0  0
  152.4223  138.9277  155.1237 H   0  0  0  0  0  0  0  0  0  0  0  0
  151.2937  140.1640  155.5323 H   0  0  0  0  0  0  0  0  0  0  0  0
  151.5803  138.4826  157.8883 H   0  0  0  0  0  0  0  0  0  0  0  0
  153.5205  137.8470  157.1333 H   0  0  0  0  0  0  0  0  0  0  0  0
  153.0165  140.0719  159.7117 H   0  0  0  0  0  0  0  0  0  0  0  0
  152.7543  142.3114  160.7203 H   0  0  0  0  0  0  0  0  0  0  0  0
  150.6091  143.6379  157.2155 H   0  0  0  0  0  0  0  0  0  0  0  0
  150.8703  141.4004  156.2085 H   0  0  0  0  0  0  0  0  0  0  0  0
  150.1408  134.2076  155.0639 H   0  0  0  0  0  0  0  0  0  0  0  0
  148.4889  134.1128  155.6578 H   0  0  0  0  0  0  0  0  0  0  0  0
  149.8069  134.3783  156.7893 H   0  0  0  0  0  0  0  0  0  0  0  0
  1  2  1  0  0  0  0
  1 23  1  0  0  0  0
  1 24  1  0  0  0  0
  1 25  1  0  0  0  0
  2 21  2  0  0  0  0
  2  3  1  0  0  0  0
  3  4  2  0  0  0  0
  4  5  1  0  0  0  0
  4 26  1  0  0  0  0
  5  6  1  0  0  0  0
  5 19  1  0  0  0  0
  6  7  1  0  0  0  0
  6 27  1  0  0  0  0
  6 28  1  0  0  0  0
  7  8  1  0  0  0  0
  7  9  1  0  0  0  0
  7 29  1  0  0  0  0
  8 30  1  0  0  0  0
  9 18  1  0  0  0  0
  9 10  2  0  0  0  0
 10 11  1  0  0  0  0
 10 31  1  0  0  0  0
 11 12  2  0  0  0  0
 11 32  1  0  0  0  0
 12 13  1  0  0  0  0
 12 17  1  0  0  0  0
 13 14  1  0  0  0  0
 13 15  1  0  0  0  0
 13 16  1  0  0  0  0
 17 18  2  0  0  0  0
 17 33  1  0  0  0  0
 18 34  1  0  0  0  0
 19 20  2  0  0  0  0
 19 21  1  0  0  0  0
 21 22  1  0  0  0  0
 22 35  1  0  0  0  0
 22 36  1  0  0  0  0
 22 37  1  0  0  0  0
M  END
> <s_m_source_file>
AV-unprocessed.smi

> <i_m_source_file_index>
2352

> <i_lp_mmshare_version>
43012

> <i_f3d_flags>
0

> <s_epik_input>
W0NIM11jMW5bY0hdbihjKD1PKWMxW0NIM10pW0NIMl1bQ0BIXShbT0hdKWMyW2NIXVtjSF1jKEMoRikoRilGKVtjSF1bY0hdMg==

> <s_epik_cmdline>
J2VwaWtfcHl0aG9uJywgJy1waCcsICc3LjAnLCAnLXRuJywgJzgnLCAnLW1hJywgJzIwMCcsICctbWV0YWxfYmluZGluZycsICctaW1hZScsICc8aW5maWxlLm1hZT4nLCAnLW9tYWUnLCAnPG91dGZpbGUubWFlPic=

> <r_lp_tautomer_probability>
1

> <r_epik_Ionization_Penalty>
5.07001e-05

> <r_epik_Ionization_Penalty_Charging>
7.56727e-08

> <r_epik_Ionization_Penalty_Neutral>
5.06244e-05

> <r_epik_State_Penalty>
-0

> <r_epik_Charging_Adjusted_Penalty>
7.56727e-08

> <i_epik_Tot_Q>
0

> <i_epik_Tot_abs_Q>
0

> <r_epik_Metal_State_Penalty>
-0

> <b_epik_Metal_Only>
0

> <s_lp_Force_Field>
OPLS_2005

> <r_lp_Energy>
21.4472

> <b_lp_Chiralities_Consistent>
1

> <s_lp_Variant>
AV-unprocessed.smi:2352-2

> <Gold.Version>
5.8.1

> <Gold.Id.Protein>
6NUR|6NUR_protein|mol2

> <Gold.PLP.Fitness>
45.3934

> <Gold.PLP.PLP>
-41.4431

> <Gold.PLP.part.hbond>
-1.7727

> <Gold.PLP.part.metal>
0.0000

> <Gold.PLP.part.buried>
-6.7126

> <Gold.PLP.part.nonpolar>
-34.0206

> <Gold.PLP.part.repulsive>
0.1424

> <Gold.PLP.ligand.clash>
1.3188

> <Gold.PLP.ligand.torsion>
0.8874

> <Gold.PLP.Chemscore.Hbond>
2.0000

> <Gold.PLP.Chemscore.CHOScore>
0.0000

> <Gold.PLP.Chemscore.Metal>
0.0000

> <Gold.Chemscore.Hbonds>
donor molecule, donor type, donor heavy atom, donor atom, acceptor molecule, acceptor atom, score
      P1  H  7997  8010       L1     8  1.00
      P1  H 10752 10763       L1    20  1.00

> <Gold.PLP.Chemscore.Internal.Correction>
1.0440

> <Gold.Rescore>
     Score         DG    S(hbond)    S(metal)    S(lipo)     H(rot)  DE(clash)    DE(int)     intcor
     14.94     -15.85       1.79        0.00      84.16       2.13       0.00       0.91       ----

> <Gold.Chemscore.Fitness>
14.9407

> <Gold.Chemscore.DG>
-15.8481

> <Gold.Chemscore.ZeroCoef>
-5.4800

> <Gold.Chemscore.Hbond>
1.7922

> <Gold.Chemscore.Metal>
0.0000

> <Gold.Chemscore.Lipo>
84.1616

> <Gold.Chemscore.Internal_Hbond>
0.0000

> <Gold.Chemscore.DEClash>
0.0000

> <Gold.Chemscore.DEInternal>
0.9074

> <Gold.Chemscore.Rot>
2.1347

> <Gold.Chemscore.Internal.Correction>
   9.000000E+99

> <Gold.Chemscore.Hbonds>
donor molecule, donor type, donor heavy atom, donor atom, acceptor molecule, acceptor atom, score
      P1  H  7997  8010       L1     8  0.84
      P1  H 10752 10763       L1    20  0.93

> <Gold.Chemscore.Hbond.Weighted>
-5.9860

> <Gold.Chemscore.Metal.Weighted>
-0.0000

> <Gold.Chemscore.Lipo.Weighted>
-9.8469

> <Gold.Chemscore.Internal_Hbond.Weighted>
0.0000

> <Gold.Chemscore.DEClash.Weighted>
0.0000

> <Gold.Chemscore.DEInternal.Weighted>
0.9074

> <Gold.Chemscore.Rot.Weighted>
5.4649

> <Gold.Chemscore.Internal.Correction.Weighted>
   9.000000E+99

> <Gold.Protein.RotatedTorsions>
[ 6907 6896 6895 6894 ] final  120.47 input  -60.11 | X-H torsion
[ 7974 7965 7964 7962 ] final  136.26 input  175.53 | X-H torsion
[ 8008 7997 7996 7995 ] final   41.45 input   59.86 | X-H torsion
[ 10167 10162 10161 10158 ] final  -38.01 input  -65.29 | X-H torsion
[ 10718 10713 10712 10709 ] final -108.96 input   66.30 | X-H torsion
[ 10763 10752 10751 10750 ] final   93.78 input  -60.55 | X-H torsion
[ 11005 11000 10999 10996 ] final  -85.45 input  -57.11 | X-H torsion

> <Gold.Protein.ActiveResidues>
 VAL166  LYS551  ARG553  GLY616  TRP617  ASP618  TYR619  PRO620  LYS621  CYS622 
 ASP623  PHE694  ASN695  SER759  ASP760  ASP761  ALA762  ILE779  LEU786  VAL792 
 PHE793  MET794  SER795  GLU796  ALA797  LYS798  CYS799  TRP800  GLU811  SER814 

> <Gold.Protein.RotatedAtoms>
  152.4395  133.7422  159.6647 H   0  0  0  0  0  0  0  0  0  0  0  0  # atno 6907 bound_to 6896
  150.8284  133.8122  159.3115 H   0  0  0  0  0  0  0  0  0  0  0  0  # atno 6908 bound_to 6896
  151.5784  135.1062  160.0063 H   0  0  0  0  0  0  0  0  0  0  0  0  # atno 6909 bound_to 6896
  144.9582  139.4740  143.5492 H   0  0  0  0  0  0  0  0  0  0  0  0  # atno 7974 bound_to 7965
  155.2698  140.3365  155.4266 H   0  0  0  0  0  0  0  0  0  0  0  0  # atno 8008 bound_to 7997
  156.2138  140.1780  156.7678 H   0  0  0  0  0  0  0  0  0  0  0  0  # atno 8009 bound_to 7997
  154.5724  140.0668  156.8968 H   0  0  0  0  0  0  0  0  0  0  0  0  # atno 8010 bound_to 7997
  140.7103  143.3304  151.2581 H   0  0  0  0  0  0  0  0  0  0  0  0  # atno 10167 bound_to 10162
  156.0512  130.5740  150.8034 H   0  0  0  0  0  0  0  0  0  0  0  0  # atno 10718 bound_to 10713
  153.2342  135.4313  155.0628 H   0  0  0  0  0  0  0  0  0  0  0  0  # atno 10763 bound_to 10752
  154.8311  135.3387  154.6743 H   0  0  0  0  0  0  0  0  0  0  0  0  # atno 10764 bound_to 10752
  153.7169  135.7019  153.5079 H   0  0  0  0  0  0  0  0  0  0  0  0  # atno 10765 bound_to 10752
  141.1641  133.7400  156.9017 H   0  0  0  0  0  0  0  0  0  0  0  0  # atno 11005 bound_to 11000
  146.3344  139.8714  142.8839 LP  0  0  0  0  0  0  0  0  0  0  0  0  # atno 17320 bound_to 7965
  145.2740  141.0117  143.3756 LP  0  0  0  0  0  0  0  0  0  0  0  0  # atno 17321 bound_to 7965
  139.6785  143.9896  152.2795 LP  0  0  0  0  0  0  0  0  0  0  0  0  # atno 17342 bound_to 10162
  139.9518  144.6615  150.8165 LP  0  0  0  0  0  0  0  0  0  0  0  0  # atno 17343 bound_to 10162
  157.5440  131.0942  150.9787 LP  0  0  0  0  0  0  0  0  0  0  0  0  # atno 17370 bound_to 10713
  157.0063  130.5619  149.5316 LP  0  0  0  0  0  0  0  0  0  0  0  0  # atno 17371 bound_to 10713
  140.1578  134.9186  157.2676 LP  0  0  0  0  0  0  0  0  0  0  0  0  # atno 17394 bound_to 11000
  140.2647  134.3530  155.7394 LP  0  0  0  0  0  0  0  0  0  0  0  0  # atno 17395 bound_to 11000

$$$$
