AV-unprocessed.smi:1246|AV-procd|sdf|5242|dock3
  -GOLD-   22720 4353D 1   1.00000     0.00000
 Structure written by MMmdl.
 35 36  0  0  0  0  0  0  0  0  1 V2000
  145.5049  129.8297  151.8663 C   0  0  0  0  0  0  0  0  0  0  0  0
  146.1115  131.1935  152.0175 C   0  0  0  0  0  0  0  0  0  0  0  0
  147.3614  131.5388  152.6095 C   0  0  0  0  0  0  0  0  0  0  0  0
  147.3944  132.8996  152.4712 C   0  0  0  0  0  0  0  0  0  0  0  0
  148.3558  133.7771  152.8633 N   0  0  0  0  0  0  0  0  0  0  0  0
  149.2800  133.6368  153.8291 C   0  0  0  0  0  0  0  0  0  0  0  0
  149.4260  132.6426  154.5406 O   0  0  0  0  0  0  0  0  0  0  0  0
  150.0433  134.7343  153.9289 N   0  0  0  0  0  0  0  0  0  0  0  0
  151.1272  134.9174  154.8874 C   0  0  0  0  0  0  0  0  0  0  0  0
  151.4334  136.4063  155.1190 C   0  0  1  0  0  0  0  0  0  0  0  0
  152.4735  136.6593  156.2056 C   0  0  0  0  0  0  0  0  0  0  0  0
  152.9401  138.0548  155.8555 C   0  0  0  0  0  0  0  0  0  0  0  0
  152.8956  138.0453  154.3275 C   0  0  0  0  0  0  0  0  0  0  0  0
  152.0096  136.9912  153.9560 O   0  0  0  0  0  0  0  0  0  0  0  0
  146.2404  133.3107  151.8423 N   0  0  0  0  0  0  0  0  0  0  0  0
  145.8160  134.6490  151.4809 C   0  0  0  0  0  0  0  0  0  0  0  0
  145.4498  132.2520  151.5635 N   0  0  0  0  0  0  0  0  0  0  0  0
  146.1236  129.0680  152.3413 H   0  0  0  0  0  0  0  0  0  0  0  0
  145.3989  129.5622  150.8148 H   0  0  0  0  0  0  0  0  0  0  0  0
  144.5163  129.7853  152.3240 H   0  0  0  0  0  0  0  0  0  0  0  0
  148.0936  130.8830  153.0560 H   0  0  0  0  0  0  0  0  0  0  0  0
  148.3713  134.6511  152.3586 H   0  0  0  0  0  0  0  0  0  0  0  0
  149.8526  135.5069  153.3077 H   0  0  0  0  0  0  0  0  0  0  0  0
  150.8704  134.4330  155.8310 H   0  0  0  0  0  0  0  0  0  0  0  0
  152.0126  134.4066  154.5080 H   0  0  0  0  0  0  0  0  0  0  0  0
  150.5221  136.9547  155.3649 H   0  0  0  0  0  0  0  0  0  0  0  0
  152.0635  136.5854  157.2133 H   0  0  0  0  0  0  0  0  0  0  0  0
  153.3017  135.9544  156.1180 H   0  0  0  0  0  0  0  0  0  0  0  0
  152.2344  138.7896  156.2450 H   0  0  0  0  0  0  0  0  0  0  0  0
  153.9284  138.2886  156.2522 H   0  0  0  0  0  0  0  0  0  0  0  0
  152.5561  139.0008  153.9275 H   0  0  0  0  0  0  0  0  0  0  0  0
  153.8809  137.8357  153.9105 H   0  0  0  0  0  0  0  0  0  0  0  0
  146.6107  135.1491  150.9269 H   0  0  0  0  0  0  0  0  0  0  0  0
  145.5965  135.2187  152.3843 H   0  0  0  0  0  0  0  0  0  0  0  0
  144.9217  134.6131  150.8571 H   0  0  0  0  0  0  0  0  0  0  0  0
  1  2  1  0  0  0  0
  1 18  1  0  0  0  0
  1 19  1  0  0  0  0
  1 20  1  0  0  0  0
  2 17  2  0  0  0  0
  2  3  1  0  0  0  0
  3  4  2  0  0  0  0
  3 21  1  0  0  0  0
  4  5  1  0  0  0  0
  4 15  1  0  0  0  0
  5  6  1  0  0  0  0
  5 22  1  0  0  0  0
  6  7  2  0  0  0  0
  6  8  1  0  0  0  0
  8  9  1  0  0  0  0
  8 23  1  0  0  0  0
  9 10  1  0  0  0  0
  9 24  1  0  0  0  0
  9 25  1  0  0  0  0
 10 14  1  0  0  0  0
 10 11  1  0  0  0  0
 10 26  1  0  0  0  0
 11 12  1  0  0  0  0
 11 27  1  0  0  0  0
 11 28  1  0  0  0  0
 12 13  1  0  0  0  0
 12 29  1  0  0  0  0
 12 30  1  0  0  0  0
 13 14  1  0  0  0  0
 13 31  1  0  0  0  0
 13 32  1  0  0  0  0
 15 16  1  0  0  0  0
 15 17  1  0  0  0  0
 16 33  1  0  0  0  0
 16 34  1  0  0  0  0
 16 35  1  0  0  0  0
M  END
> <s_m_source_file>
AV-unprocessed.smi

> <i_m_source_file_index>
1246

> <i_lp_mmshare_version>
43012

> <i_f3d_flags>
0

> <s_epik_input>
W0NIM11jMVtjSF1jKG4objEpW0NIM10pW05IXUMoPU8pW05IXVtDSDJdW0NAQEhdMltDSDJdW0NIMl1bQ0gyXU8y

> <s_epik_cmdline>
J2VwaWtfcHl0aG9uJywgJy1waCcsICc3LjAnLCAnLXRuJywgJzgnLCAnLW1hJywgJzIwMCcsICctbWV0YWxfYmluZGluZycsICctaW1hZScsICc8aW5maWxlLm1hZT4nLCAnLW9tYWUnLCAnPG91dGZpbGUubWFlPic=

> <r_lp_tautomer_probability>
1

> <r_epik_Ionization_Penalty>
9.6187e-05

> <r_epik_Ionization_Penalty_Charging>
0

> <r_epik_Ionization_Penalty_Neutral>
9.6187e-05

> <r_epik_State_Penalty>
-0

> <r_epik_Charging_Adjusted_Penalty>
0

> <i_epik_Tot_Q>
0

> <i_epik_Tot_abs_Q>
0

> <r_epik_Metal_State_Penalty>
-0

> <b_epik_Metal_Only>
0

> <s_lp_Force_Field>
OPLS_2005

> <r_lp_Energy>
18.0702

> <b_lp_Chiralities_Consistent>
1

> <s_lp_Variant>
AV-unprocessed.smi:1246-2

> <Gold.Version>
5.8.1

> <Gold.Id.Protein>
6NUR|6NUR_protein|mol2

> <Gold.PLP.Fitness>
35.9913

> <Gold.PLP.PLP>
-28.0454

> <Gold.PLP.part.hbond>
-3.1157

> <Gold.PLP.part.metal>
0.0000

> <Gold.PLP.part.buried>
-3.5028

> <Gold.PLP.part.nonpolar>
-21.9232

> <Gold.PLP.part.repulsive>
0.3511

> <Gold.PLP.ligand.clash>
0.0000

> <Gold.PLP.ligand.torsion>
0.3057

> <Gold.PLP.Chemscore.Hbond>
2.8500

> <Gold.PLP.Chemscore.CHOScore>
0.0000

> <Gold.PLP.Chemscore.Metal>
0.0000

> <Gold.Chemscore.Hbonds>
donor molecule, donor type, donor heavy atom, donor atom, acceptor molecule, acceptor atom, score
      L1  H     5    22       P1  7948  0.80
      L1  H     8    23       P1  7948  0.30

> <Gold.PLP.Chemscore.Internal.Correction>
0.0074

> <Gold.Rescore>
     Score         DG    S(hbond)    S(metal)    S(lipo)     H(rot)  DE(clash)    DE(int)     intcor
     13.30     -13.78       1.62        0.00      51.94       1.25       0.02       0.46       ----

> <Gold.Chemscore.Fitness>
13.2990

> <Gold.Chemscore.DG>
-13.7787

> <Gold.Chemscore.ZeroCoef>
-5.4800

> <Gold.Chemscore.Hbond>
1.6216

> <Gold.Chemscore.Metal>
0.0000

> <Gold.Chemscore.Lipo>
51.9388

> <Gold.Chemscore.Internal_Hbond>
0.0000

> <Gold.Chemscore.DEClash>
0.0174

> <Gold.Chemscore.DEInternal>
0.4623

> <Gold.Chemscore.Rot>
1.2478

> <Gold.Chemscore.Internal.Correction>
   9.000000E+99

> <Gold.Chemscore.Hbonds>
donor molecule, donor type, donor heavy atom, donor atom, acceptor molecule, acceptor atom, score
      L1  H     5    22       P1  7948  0.12

> <Gold.Chemscore.Hbond.Weighted>
-5.4163

> <Gold.Chemscore.Metal.Weighted>
-0.0000

> <Gold.Chemscore.Lipo.Weighted>
-6.0768

> <Gold.Chemscore.Internal_Hbond.Weighted>
0.0000

> <Gold.Chemscore.DEClash.Weighted>
0.0174

> <Gold.Chemscore.DEInternal.Weighted>
0.4623

> <Gold.Chemscore.Rot.Weighted>
3.1944

> <Gold.Chemscore.Internal.Correction.Weighted>
   9.000000E+99

> <Gold.Protein.RotatedTorsions>
[ 6907 6896 6895 6894 ] final   35.43 input  -60.11 | X-H torsion
[ 7974 7965 7964 7962 ] final  -53.68 input  175.53 | X-H torsion
[ 8008 7997 7996 7995 ] final  144.53 input   59.86 | X-H torsion
[ 10167 10162 10161 10158 ] final  118.10 input  -65.29 | X-H torsion
[ 10718 10713 10712 10709 ] final  -85.79 input   66.30 | X-H torsion
[ 10763 10752 10751 10750 ] final  -83.92 input  -60.55 | X-H torsion
[ 11005 11000 10999 10996 ] final  -70.87 input  -57.11 | X-H torsion

> <Gold.Protein.ActiveResidues>
 VAL166  LYS551  ARG553  GLY616  TRP617  ASP618  TYR619  PRO620  LYS621  CYS622 
 ASP623  PHE694  ASN695  SER759  ASP760  ASP761  ALA762  ILE779  LEU786  VAL792 
 PHE793  MET794  SER795  GLU796  ALA797  LYS798  CYS799  TRP800  GLU811  SER814 

> <Gold.Protein.RotatedAtoms>
  152.1160  134.9240  160.0564 H   0  0  0  0  0  0  0  0  0  0  0  0  # atno 6907 bound_to 6896
  152.0399  133.3968  159.4340 H   0  0  0  0  0  0  0  0  0  0  0  0  # atno 6908 bound_to 6896
  150.6846  134.3347  159.4886 H   0  0  0  0  0  0  0  0  0  0  0  0  # atno 6909 bound_to 6896
  145.8942  140.8047  142.9776 H   0  0  0  0  0  0  0  0  0  0  0  0  # atno 7974 bound_to 7965
  156.2906  140.2233  156.5068 H   0  0  0  0  0  0  0  0  0  0  0  0  # atno 8008 bound_to 7997
  154.7643  140.0471  157.1021 H   0  0  0  0  0  0  0  0  0  0  0  0  # atno 8009 bound_to 7997
  154.9952  140.3095  155.4893 H   0  0  0  0  0  0  0  0  0  0  0  0  # atno 8010 bound_to 7997
  139.6134  144.7087  151.2794 H   0  0  0  0  0  0  0  0  0  0  0  0  # atno 10167 bound_to 10162
  155.9994  130.4743  150.4616 H   0  0  0  0  0  0  0  0  0  0  0  0  # atno 10718 bound_to 10713
  154.5934  135.5539  153.7301 H   0  0  0  0  0  0  0  0  0  0  0  0  # atno 10763 bound_to 10752
  153.0126  135.6349  154.1816 H   0  0  0  0  0  0  0  0  0  0  0  0  # atno 10764 bound_to 10752
  154.1757  135.2890  155.3047 H   0  0  0  0  0  0  0  0  0  0  0  0  # atno 10765 bound_to 10752
  141.1582  133.6802  156.6819 H   0  0  0  0  0  0  0  0  0  0  0  0  # atno 11005 bound_to 11000
  144.6732  140.1576  143.7425 LP  0  0  0  0  0  0  0  0  0  0  0  0  # atno 17320 bound_to 7965
  145.8871  139.2355  143.1571 LP  0  0  0  0  0  0  0  0  0  0  0  0  # atno 17321 bound_to 7965
  140.7334  143.6795  150.8013 LP  0  0  0  0  0  0  0  0  0  0  0  0  # atno 17342 bound_to 10162
  140.0393  143.5362  152.2725 LP  0  0  0  0  0  0  0  0  0  0  0  0  # atno 17343 bound_to 10162
  157.2640  131.0573  151.2302 LP  0  0  0  0  0  0  0  0  0  0  0  0  # atno 17370 bound_to 10713
  157.3407  130.7032  149.6380 LP  0  0  0  0  0  0  0  0  0  0  0  0  # atno 17371 bound_to 10713
  140.3096  134.8097  157.4165 LP  0  0  0  0  0  0  0  0  0  0  0  0  # atno 17394 bound_to 11000
  140.1190  134.5244  155.8200 LP  0  0  0  0  0  0  0  0  0  0  0  0  # atno 17395 bound_to 11000

$$$$
