AV-unprocessed.smi:2021|AV-procd|sdf|8181|dock8
  -GOLD-   2272010433D 1   1.00000     0.00000
 Structure written by MMmdl.
 41 42  0  0  0  0  0  0  0  0  3 V2000
  151.1785  144.5443  159.6857 C   0  0  0  0  0  0  0  0  0  0  0  0
  151.4213  143.1122  159.1861 C   0  0  0  0  0  0  0  0  0  0  0  0
  152.7661  142.5814  159.7101 C   0  0  0  0  0  0  0  0  0  0  0  0
  151.3415  143.0547  157.6452 C   0  0  0  0  0  0  0  0  0  0  0  0
  150.4516  141.9763  157.1434 N   0  3  1  0  0  0  0  0  0  0  0  0
  150.4211  141.8718  155.6634 C   0  0  0  0  0  0  0  0  0  0  0  0
  149.4633  140.7534  155.2238 C   0  0  0  0  0  0  0  0  0  0  0  0
  149.8587  139.5322  155.8309 O   0  0  0  0  0  0  0  0  0  0  0  0
  149.7825  139.5820  157.2520 C   0  0  1  0  0  0  0  0  0  0  0  0
  150.1198  138.1923  157.8205 C   0  0  0  0  0  0  0  0  0  0  0  0
  149.5751  138.0160  159.1626 N   0  0  0  0  0  0  0  0  0  0  0  0
  148.7168  137.0603  159.5457 C   0  0  0  0  0  0  0  0  0  0  0  0
  148.3413  136.2081  158.7375 O   0  0  0  0  0  0  0  0  0  0  0  0
  148.3437  137.1555  160.8413 N   0  5  0  0  0  0  0  0  0  0  0  0
  147.8383  136.0838  161.4744 C   0  0  0  0  0  0  0  0  0  0  0  0
  147.1010  135.1570  160.8413 N   0  0  0  0  0  0  0  0  0  0  0  0
  146.6739  134.1347  161.6779 N   0  0  0  0  0  0  0  0  0  0  0  0
  147.0950  134.3224  162.9284 C   0  0  0  0  0  0  0  0  0  0  0  0
  148.0500  135.7650  163.1982 S   0  0  0  0  0  0  0  0  0  0  0  0
  150.7659  140.6596  157.7485 C   0  0  0  0  0  0  0  0  0  0  0  0
  151.9357  145.2316  159.3069 H   0  0  0  0  0  0  0  0  0  0  0  0
  151.2029  144.5907  160.7748 H   0  0  0  0  0  0  0  0  0  0  0  0
  150.2037  144.9130  159.3648 H   0  0  0  0  0  0  0  0  0  0  0  0
  150.6287  142.4968  159.6107 H   0  0  0  0  0  0  0  0  0  0  0  0
  153.6020  143.1605  159.3161 H   0  0  0  0  0  0  0  0  0  0  0  0
  152.9211  141.5392  159.4302 H   0  0  0  0  0  0  0  0  0  0  0  0
  152.8106  142.6340  160.7982 H   0  0  0  0  0  0  0  0  0  0  0  0
  151.0047  144.0108  157.2414 H   0  0  0  0  0  0  0  0  0  0  0  0
  152.3500  142.9014  157.2572 H   0  0  0  0  0  0  0  0  0  0  0  0
  150.0997  142.8120  155.2177 H   0  0  0  0  0  0  0  0  0  0  0  0
  151.4254  141.6662  155.2899 H   0  0  0  0  0  0  0  0  0  0  0  0
  148.4322  140.9919  155.4896 H   0  0  0  0  0  0  0  0  0  0  0  0
  149.4942  140.6350  154.1406 H   0  0  0  0  0  0  0  0  0  0  0  0
  148.7682  139.8504  157.5542 H   0  0  0  0  0  0  0  0  0  0  0  0
  149.7751  137.4029  157.1503 H   0  0  0  0  0  0  0  0  0  0  0  0
  151.2017  138.0799  157.8955 H   0  0  0  0  0  0  0  0  0  0  0  0
  149.8601  138.6850  159.8630 H   0  0  0  0  0  0  0  0  0  0  0  0
  146.8395  133.6086  163.6971 H   0  0  0  0  0  0  0  0  0  0  0  0
  151.7911  140.3793  157.4999 H   0  0  0  0  0  0  0  0  0  0  0  0
  150.7075  140.7341  158.8353 H   0  0  0  0  0  0  0  0  0  0  0  0
  149.5157  142.2083  157.4446 H   0  0  0  0  0  0  0  0  0  0  0  0
  1  2  1  0  0  0  0
  1 21  1  0  0  0  0
  1 22  1  0  0  0  0
  1 23  1  0  0  0  0
  2  3  1  0  0  0  0
  2  4  1  0  0  0  0
  2 24  1  0  0  0  0
  3 25  1  0  0  0  0
  3 26  1  0  0  0  0
  3 27  1  0  0  0  0
  4  5  1  0  0  0  0
  4 28  1  0  0  0  0
  4 29  1  0  0  0  0
  5 20  1  0  0  0  0
  5  6  1  0  0  0  0
  5 41  1  0  0  0  0
  6  7  1  0  0  0  0
  6 30  1  0  0  0  0
  6 31  1  0  0  0  0
  7  8  1  0  0  0  0
  7 32  1  0  0  0  0
  7 33  1  0  0  0  0
  8  9  1  0  0  0  0
  9 10  1  0  0  0  0
  9 20  1  0  0  0  0
  9 34  1  0  0  0  0
 10 11  1  0  0  0  0
 10 35  1  0  0  0  0
 10 36  1  0  0  0  0
 11 12  1  0  0  0  0
 11 37  1  0  0  0  0
 12 13  2  0  0  0  0
 12 14  1  0  0  0  0
 14 15  1  0  0  0  0
 15 19  1  0  0  0  0
 15 16  2  0  0  0  0
 16 17  1  0  0  0  0
 17 18  2  0  0  0  0
 18 19  1  0  0  0  0
 18 38  1  0  0  0  0
 20 39  1  0  0  0  0
 20 40  1  0  0  0  0
M  CHG  1   5   1
M  CHG  1  14  -1
M  END
> <s_m_source_file>
AV-unprocessed.smi

> <i_m_source_file_index>
2021

> <i_lp_mmshare_version>
43012

> <i_f3d_flags>
0

> <s_epik_input>
W0NIM11bQ0hdKFtDSDNdKVtDSDJdTjFbQ0gyXVtDSDJdT1tDQEhdKFtDSDJdMSlbQ0gyXVtOSF1DKD1PKVtOSF1jMm5uW2NIXXMy

> <s_epik_cmdline>
J2VwaWtfcHl0aG9uJywgJy1waCcsICc3LjAnLCAnLXRuJywgJzgnLCAnLW1hJywgJzIwMCcsICctbWV0YWxfYmluZGluZycsICctaW1hZScsICc8aW5maWxlLm1hZT4nLCAnLW9tYWUnLCAnPG91dGZpbGUubWFlPic=

> <r_lp_tautomer_probability>
1

> <r_epik_Ionization_Penalty>
3.15762

> <r_epik_Ionization_Penalty_Charging>
3.12229

> <r_epik_Ionization_Penalty_Neutral>
0.0353298

> <r_epik_State_Penalty>
3.11266

> <r_epik_Charging_Adjusted_Penalty>
6.23495

> <i_epik_Tot_Q>
0

> <i_epik_Tot_abs_Q>
2

> <r_epik_Metal_State_Penalty>
0.541462

> <b_epik_Metal_Only>
1

> <s_lp_Force_Field>
OPLS_2005

> <r_lp_Energy>
10.0285

> <b_lp_Chiralities_Consistent>
1

> <s_lp_Variant>
AV-unprocessed.smi:2021-7

> <Gold.Version>
5.8.1

> <Gold.Id.Protein>
6NUR|6NUR_protein|mol2

> <Gold.PLP.Fitness>
40.7473

> <Gold.PLP.PLP>
-33.6182

> <Gold.PLP.part.hbond>
-2.0000

> <Gold.PLP.part.metal>
0.0000

> <Gold.PLP.part.buried>
-4.8344

> <Gold.PLP.part.nonpolar>
-27.9945

> <Gold.PLP.part.repulsive>
0.2804

> <Gold.PLP.ligand.clash>
0.0000

> <Gold.PLP.ligand.torsion>
1.2373

> <Gold.PLP.Chemscore.Hbond>
3.1543

> <Gold.PLP.Chemscore.CHOScore>
0.0000

> <Gold.PLP.Chemscore.Metal>
0.0000

> <Gold.Chemscore.Hbonds>
donor molecule, donor type, donor heavy atom, donor atom, acceptor molecule, acceptor atom, score
      P1  H  6931  6943       L1    14  1.82
      P1  H  6934  6947       L1    14  0.71

> <Gold.PLP.Chemscore.Internal.Correction>
0.1409

> <Gold.Rescore>
     Score         DG    S(hbond)    S(metal)    S(lipo)     H(rot)  DE(clash)    DE(int)     intcor
     11.67     -14.69       1.13        0.00      86.72       1.85       0.16       2.85       ----

> <Gold.Chemscore.Fitness>
11.6730

> <Gold.Chemscore.DG>
-14.6866

> <Gold.Chemscore.ZeroCoef>
-5.4800

> <Gold.Chemscore.Hbond>
1.1341

> <Gold.Chemscore.Metal>
0.0000

> <Gold.Chemscore.Lipo>
86.7179

> <Gold.Chemscore.Internal_Hbond>
0.0000

> <Gold.Chemscore.DEClash>
0.1629

> <Gold.Chemscore.DEInternal>
2.8507

> <Gold.Chemscore.Rot>
1.8466

> <Gold.Chemscore.Internal.Correction>
   9.000000E+99

> <Gold.Chemscore.Hbonds>
donor molecule, donor type, donor heavy atom, donor atom, acceptor molecule, acceptor atom, score
      P1  H  6931  6943       L1    14  0.74
      P1  H  6934  6947       L1    14  0.16

> <Gold.Chemscore.Hbond.Weighted>
-3.7878

> <Gold.Chemscore.Metal.Weighted>
-0.0000

> <Gold.Chemscore.Lipo.Weighted>
-10.1460

> <Gold.Chemscore.Internal_Hbond.Weighted>
0.0000

> <Gold.Chemscore.DEClash.Weighted>
0.1629

> <Gold.Chemscore.DEInternal.Weighted>
2.8507

> <Gold.Chemscore.Rot.Weighted>
4.7272

> <Gold.Chemscore.Internal.Correction.Weighted>
   9.000000E+99

> <Gold.Protein.RotatedTorsions>
[ 6907 6896 6895 6894 ] final   81.84 input  -60.11 | X-H torsion
[ 7974 7965 7964 7962 ] final   82.71 input  175.53 | X-H torsion
[ 8008 7997 7996 7995 ] final  -72.21 input   59.86 | X-H torsion
[ 10167 10162 10161 10158 ] final -124.46 input  -65.29 | X-H torsion
[ 10718 10713 10712 10709 ] final  -21.81 input   66.30 | X-H torsion
[ 10763 10752 10751 10750 ] final   31.82 input  -60.55 | X-H torsion
[ 11005 11000 10999 10996 ] final -142.87 input  -57.11 | X-H torsion

> <Gold.Protein.ActiveResidues>
 VAL166  LYS551  ARG553  GLY616  TRP617  ASP618  TYR619  PRO620  LYS621  CYS622 
 ASP623  PHE694  ASN695  SER759  ASP760  ASP761  ALA762  ILE779  LEU786  VAL792 
 PHE793  MET794  SER795  GLU796  ALA797  LYS798  CYS799  TRP800  GLU811  SER814 

> <Gold.Protein.RotatedAtoms>
  152.5281  134.3142  159.9124 H   0  0  0  0  0  0  0  0  0  0  0  0  # atno 6907 bound_to 6896
  151.3091  133.4082  159.2653 H   0  0  0  0  0  0  0  0  0  0  0  0  # atno 6908 bound_to 6896
  151.0053  134.9371  159.8034 H   0  0  0  0  0  0  0  0  0  0  0  0  # atno 6909 bound_to 6896
  145.6214  139.2386  143.2136 H   0  0  0  0  0  0  0  0  0  0  0  0  # atno 7974 bound_to 7965
  154.5148  140.0801  156.8060 H   0  0  0  0  0  0  0  0  0  0  0  0  # atno 8008 bound_to 7997
  155.3704  140.3422  155.4225 H   0  0  0  0  0  0  0  0  0  0  0  0  # atno 8009 bound_to 7997
  156.1615  140.1590  156.8591 H   0  0  0  0  0  0  0  0  0  0  0  0  # atno 8010 bound_to 7997
  139.9925  143.5625  152.2336 H   0  0  0  0  0  0  0  0  0  0  0  0  # atno 10167 bound_to 10162
  156.5131  130.4615  149.6637 H   0  0  0  0  0  0  0  0  0  0  0  0  # atno 10718 bound_to 10713
  153.0295  135.6429  154.1259 H   0  0  0  0  0  0  0  0  0  0  0  0  # atno 10763 bound_to 10752
  154.0983  135.2861  155.3258 H   0  0  0  0  0  0  0  0  0  0  0  0  # atno 10764 bound_to 10752
  154.6416  135.5457  153.7859 H   0  0  0  0  0  0  0  0  0  0  0  0  # atno 10765 bound_to 10752
  140.8182  134.2662  157.4912 H   0  0  0  0  0  0  0  0  0  0  0  0  # atno 11005 bound_to 11000
  146.1428  140.7034  142.9359 LP  0  0  0  0  0  0  0  0  0  0  0  0  # atno 17320 bound_to 7965
  144.7229  140.4433  143.6994 LP  0  0  0  0  0  0  0  0  0  0  0  0  # atno 17321 bound_to 7965
  139.6329  144.7646  151.2497 LP  0  0  0  0  0  0  0  0  0  0  0  0  # atno 17342 bound_to 10162
  140.7449  143.6447  150.8302 LP  0  0  0  0  0  0  0  0  0  0  0  0  # atno 17343 bound_to 10162
  156.3221  130.7286  151.2200 LP  0  0  0  0  0  0  0  0  0  0  0  0  # atno 17370 bound_to 10713
  157.7447  131.0453  150.4835 LP  0  0  0  0  0  0  0  0  0  0  0  0  # atno 17371 bound_to 10713
  139.8710  134.9521  156.4104 LP  0  0  0  0  0  0  0  0  0  0  0  0  # atno 17394 bound_to 11000
  140.9126  133.7701  155.9810 LP  0  0  0  0  0  0  0  0  0  0  0  0  # atno 17395 bound_to 11000

$$$$
