AV-unprocessed.smi:2883|AV-procd|sdf|11078|dock3
  -GOLD-   2272015553D 1   1.00000     0.00000
 Structure written by MMmdl.
 40 42  0  0  0  0  0  0  0  0  2 V2000
  146.4098  139.3052  154.6717 C   0  0  0  0  0  0  0  0  0  0  0  0
  147.2926  140.4336  154.0891 C   0  0  0  0  0  0  0  0  0  0  0  0
  147.4630  140.1192  152.5854 C   0  0  0  0  0  0  0  0  0  0  0  0
  146.5816  141.7890  154.2553 C   0  0  0  0  0  0  0  0  0  0  0  0
  148.6549  140.4823  154.7957 C   0  0  0  0  0  0  0  0  0  0  0  0
  149.5346  139.4838  154.5984 N   0  3  0  0  0  0  0  0  0  0  0  0
  150.7834  139.5633  155.1190 C   0  0  0  0  0  0  0  0  0  0  0  0
  151.1830  140.7030  155.8397 C   0  0  0  0  0  0  0  0  0  0  0  0
  150.2365  141.7315  155.9748 C   0  0  0  0  0  0  0  0  0  0  0  0
  150.5767  142.9010  156.6684 N   0  0  0  0  0  0  0  0  0  0  0  0
  151.7282  142.9374  157.5642 C   0  0  1  0  0  0  0  0  0  0  0  0
  151.9286  144.3043  158.2326 C   0  0  0  0  0  0  0  0  0  0  0  0
  151.9139  143.9342  159.7208 C   0  0  2  0  0  0  0  0  0  0  0  0
  153.1541  143.1295  160.1332 C   0  0  0  0  0  0  0  0  0  0  0  0
  152.8686  141.7685  159.4992 C   0  0  0  0  0  0  0  0  0  0  0  0
  151.5335  142.0254  158.7871 C   0  0  1  0  0  0  0  0  0  0  0  0
  150.9297  142.9159  159.7114 O   0  0  0  0  0  0  0  0  0  0  0  0
  149.0044  141.6092  155.4352 N   0  0  0  0  0  0  0  0  0  0  0  0
  145.4553  139.2380  154.1486 H   0  0  0  0  0  0  0  0  0  0  0  0
  146.1801  139.4676  155.7256 H   0  0  0  0  0  0  0  0  0  0  0  0
  146.8982  138.3336  154.5866 H   0  0  0  0  0  0  0  0  0  0  0  0
  147.9839  139.1729  152.4330 H   0  0  0  0  0  0  0  0  0  0  0  0
  148.0259  140.8956  152.0659 H   0  0  0  0  0  0  0  0  0  0  0  0
  146.4967  140.0438  152.0851 H   0  0  0  0  0  0  0  0  0  0  0  0
  145.6065  141.7896  153.7667 H   0  0  0  0  0  0  0  0  0  0  0  0
  147.1674  142.6003  153.8216 H   0  0  0  0  0  0  0  0  0  0  0  0
  146.4213  142.0266  155.3076 H   0  0  0  0  0  0  0  0  0  0  0  0
  151.4257  138.7150  154.9326 H   0  0  0  0  0  0  0  0  0  0  0  0
  152.1757  140.7831  156.2587 H   0  0  0  0  0  0  0  0  0  0  0  0
  150.1393  143.7758  156.4167 H   0  0  0  0  0  0  0  0  0  0  0  0
  152.6184  142.6283  157.0144 H   0  0  0  0  0  0  0  0  0  0  0  0
  152.8592  144.7864  157.9313 H   0  0  0  0  0  0  0  0  0  0  0  0
  151.1074  144.9872  158.0092 H   0  0  0  0  0  0  0  0  0  0  0  0
  151.6878  144.7711  160.3821 H   0  0  0  0  0  0  0  0  0  0  0  0
  154.0784  143.5812  159.7718 H   0  0  0  0  0  0  0  0  0  0  0  0
  153.2178  143.0396  161.2182 H   0  0  0  0  0  0  0  0  0  0  0  0
  153.6534  141.4461  158.8141 H   0  0  0  0  0  0  0  0  0  0  0  0
  152.7541  141.0051  160.2695 H   0  0  0  0  0  0  0  0  0  0  0  0
  150.9632  141.1166  158.5904 H   0  0  0  0  0  0  0  0  0  0  0  0
  149.2669  138.6591  154.0607 H   0  0  0  0  0  0  0  0  0  0  0  0
  1  2  1  0  0  0  0
  1 19  1  0  0  0  0
  1 20  1  0  0  0  0
  1 21  1  0  0  0  0
  2  3  1  0  0  0  0
  2  4  1  0  0  0  0
  2  5  1  0  0  0  0
  3 22  1  0  0  0  0
  3 23  1  0  0  0  0
  3 24  1  0  0  0  0
  4 25  1  0  0  0  0
  4 26  1  0  0  0  0
  4 27  1  0  0  0  0
  5 18  1  0  0  0  0
  5  6  2  0  0  0  0
  6  7  1  0  0  0  0
  6 40  1  0  0  0  0
  7  8  2  0  0  0  0
  7 28  1  0  0  0  0
  8  9  1  0  0  0  0
  8 29  1  0  0  0  0
  9 10  1  0  0  0  0
  9 18  2  0  0  0  0
 10 11  1  0  0  0  0
 10 30  1  0  0  0  0
 11 16  1  0  0  0  0
 11 12  1  0  0  0  0
 11 31  1  0  0  0  0
 12 13  1  0  0  0  0
 12 32  1  0  0  0  0
 12 33  1  0  0  0  0
 13 17  1  0  0  0  0
 13 14  1  0  0  0  0
 13 34  1  0  0  0  0
 14 15  1  0  0  0  0
 14 35  1  0  0  0  0
 14 36  1  0  0  0  0
 15 16  1  0  0  0  0
 15 37  1  0  0  0  0
 15 38  1  0  0  0  0
 16 17  1  0  0  0  0
 16 39  1  0  0  0  0
M  CHG  1   6   1
M  END
> <s_m_source_file>
AV-unprocessed.smi

> <i_m_source_file_index>
2883

> <i_lp_mmshare_version>
43012

> <i_f3d_flags>
0

> <s_epik_input>
W0NIM11DKFtDSDNdKShbQ0gzXSljMW5bY0hdW2NIXWMobjEpW05IXVtDQEhdKFtDSDJdW0NAQEhdMjMpW0NAQEhdKE8zKVtDSDJdW0NIMl0y

> <s_epik_cmdline>
J2VwaWtfcHl0aG9uJywgJy1waCcsICc3LjAnLCAnLXRuJywgJzgnLCAnLW1hJywgJzIwMCcsICctbWV0YWxfYmluZGluZycsICctaW1hZScsICc8aW5maWxlLm1hZT4nLCAnLW9tYWUnLCAnPG91dGZpbGUubWFlPic=

> <r_lp_tautomer_probability>
0.999336

> <r_epik_Ionization_Penalty>
0.371831

> <r_epik_Ionization_Penalty_Charging>
0.371821

> <r_epik_Ionization_Penalty_Neutral>
1.06897e-05

> <r_epik_State_Penalty>
0.369311

> <r_epik_Charging_Adjusted_Penalty>
0.741132

> <i_epik_Tot_Q>
1

> <i_epik_Tot_abs_Q>
1

> <r_epik_Metal_State_Penalty>
0.621338

> <b_epik_Metal_Only>
0

> <s_lp_Force_Field>
OPLS_2005

> <r_lp_Energy>
38.7214

> <b_lp_Chiralities_Consistent>
1

> <s_lp_Variant>
AV-unprocessed.smi:2883-4

> <Gold.Version>
5.8.1

> <Gold.Id.Protein>
6NUR|6NUR_protein|mol2

> <Gold.PLP.Fitness>
40.3642

> <Gold.PLP.PLP>
-37.6824

> <Gold.PLP.part.hbond>
-1.9089

> <Gold.PLP.part.metal>
0.0000

> <Gold.PLP.part.buried>
-1.2289

> <Gold.PLP.part.nonpolar>
-35.4858

> <Gold.PLP.part.repulsive>
0.9349

> <Gold.PLP.ligand.clash>
0.0000

> <Gold.PLP.ligand.torsion>
0.2395

> <Gold.PLP.Chemscore.Hbond>
1.0000

> <Gold.PLP.Chemscore.CHOScore>
0.0000

> <Gold.PLP.Chemscore.Metal>
0.0000

> <Gold.Chemscore.Hbonds>
donor molecule, donor type, donor heavy atom, donor atom, acceptor molecule, acceptor atom, score
      L1  H    10    30       P1  8028  1.00

> <Gold.PLP.Chemscore.Internal.Correction>
0.1607

> <Gold.Rescore>
     Score         DG    S(hbond)    S(metal)    S(lipo)     H(rot)  DE(clash)    DE(int)     intcor
     16.19     -17.88       0.98        0.00     103.52       1.16       1.56       0.13       ----

> <Gold.Chemscore.Fitness>
16.1888

> <Gold.Chemscore.DG>
-17.8820

> <Gold.Chemscore.ZeroCoef>
-5.4800

> <Gold.Chemscore.Hbond>
0.9779

> <Gold.Chemscore.Metal>
0.0000

> <Gold.Chemscore.Lipo>
103.5219

> <Gold.Chemscore.Internal_Hbond>
0.0000

> <Gold.Chemscore.DEClash>
1.5615

> <Gold.Chemscore.DEInternal>
0.1318

> <Gold.Chemscore.Rot>
1.1626

> <Gold.Chemscore.Internal.Correction>
   9.000000E+99

> <Gold.Chemscore.Hbonds>
donor molecule, donor type, donor heavy atom, donor atom, acceptor molecule, acceptor atom, score
      L1  H    10    30       P1  8028  0.98

> <Gold.Chemscore.Hbond.Weighted>
-3.2662

> <Gold.Chemscore.Metal.Weighted>
-0.0000

> <Gold.Chemscore.Lipo.Weighted>
-12.1121

> <Gold.Chemscore.Internal_Hbond.Weighted>
0.0000

> <Gold.Chemscore.DEClash.Weighted>
1.5615

> <Gold.Chemscore.DEInternal.Weighted>
0.1318

> <Gold.Chemscore.Rot.Weighted>
2.9763

> <Gold.Chemscore.Internal.Correction.Weighted>
   9.000000E+99

> <Gold.Protein.RotatedTorsions>
[ 6907 6896 6895 6894 ] final -140.44 input  -60.11 | X-H torsion
[ 7974 7965 7964 7962 ] final -158.92 input  175.53 | X-H torsion
[ 8008 7997 7996 7995 ] final -176.19 input   59.86 | X-H torsion
[ 10167 10162 10161 10158 ] final -125.60 input  -65.29 | X-H torsion
[ 10718 10713 10712 10709 ] final  112.53 input   66.30 | X-H torsion
[ 10763 10752 10751 10750 ] final  -16.32 input  -60.55 | X-H torsion
[ 11005 11000 10999 10996 ] final   42.37 input  -57.11 | X-H torsion

> <Gold.Protein.ActiveResidues>
 VAL166  LYS551  ARG553  GLY616  TRP617  ASP618  TYR619  PRO620  LYS621  CYS622 
 ASP623  PHE694  ASN695  SER759  ASP760  ASP761  ALA762  ILE779  LEU786  VAL792 
 PHE793  MET794  SER795  GLU796  ALA797  LYS798  CYS799  TRP800  GLU811  SER814 

> <Gold.Protein.RotatedAtoms>
  151.0608  133.5546  159.2634 H   0  0  0  0  0  0  0  0  0  0  0  0  # atno 6907 bound_to 6896
  151.2522  135.0625  159.9076 H   0  0  0  0  0  0  0  0  0  0  0  0  # atno 6908 bound_to 6896
  152.5397  134.0366  159.8102 H   0  0  0  0  0  0  0  0  0  0  0  0  # atno 6909 bound_to 6896
  144.7486  140.3759  143.6066 H   0  0  0  0  0  0  0  0  0  0  0  0  # atno 7974 bound_to 7965
  155.9918  140.1202  157.0631 H   0  0  0  0  0  0  0  0  0  0  0  0  # atno 8008 bound_to 7997
  154.4214  140.1124  156.5644 H   0  0  0  0  0  0  0  0  0  0  0  0  # atno 8009 bound_to 7997
  155.6332  140.3473  155.4692 H   0  0  0  0  0  0  0  0  0  0  0  0  # atno 8010 bound_to 7997
  139.9804  143.5749  152.2380 H   0  0  0  0  0  0  0  0  0  0  0  0  # atno 10167 bound_to 10162
  157.6388  131.0969  150.6908 H   0  0  0  0  0  0  0  0  0  0  0  0  # atno 10718 bound_to 10713
  153.5568  135.7010  153.5566 H   0  0  0  0  0  0  0  0  0  0  0  0  # atno 10763 bound_to 10752
  153.3465  135.4007  155.1613 H   0  0  0  0  0  0  0  0  0  0  0  0  # atno 10764 bound_to 10752
  154.8653  135.3755  154.5083 H   0  0  0  0  0  0  0  0  0  0  0  0  # atno 10765 bound_to 10752
  140.1745  134.4180  155.8236 H   0  0  0  0  0  0  0  0  0  0  0  0  # atno 11005 bound_to 11000
  145.7029  139.1665  143.2582 LP  0  0  0  0  0  0  0  0  0  0  0  0  # atno 17320 bound_to 7965
  146.1403  140.7067  142.9370 LP  0  0  0  0  0  0  0  0  0  0  0  0  # atno 17321 bound_to 7965
  139.6414  144.7655  151.2331 LP  0  0  0  0  0  0  0  0  0  0  0  0  # atno 17342 bound_to 10162
  140.7491  143.6311  150.8422 LP  0  0  0  0  0  0  0  0  0  0  0  0  # atno 17343 bound_to 10162
  156.7235  130.4688  149.5517 LP  0  0  0  0  0  0  0  0  0  0  0  0  # atno 17370 bound_to 10713
  156.1650  130.6399  151.0766 LP  0  0  0  0  0  0  0  0  0  0  0  0  # atno 17371 bound_to 10713
  141.2219  133.6971  156.7823 LP  0  0  0  0  0  0  0  0  0  0  0  0  # atno 17394 bound_to 11000
  140.2338  134.8665  157.3504 LP  0  0  0  0  0  0  0  0  0  0  0  0  # atno 17395 bound_to 11000

$$$$
