AV-unprocessed.smi:2613|AV-procd|sdf|10213|dock3
  -GOLD-   2272014223D 1   1.00000     0.00000
 Structure written by MMmdl.
 28 29  0  0  0  0  0  0  0  0  3 V2000
  151.4814  145.5793  159.4995 C   0  0  0  0  0  0  0  0  0  0  0  0
  151.5389  144.2484  158.8285 C   0  0  0  0  0  0  0  0  0  0  0  0
  150.9038  143.9029  157.6732 N   0  3  0  0  0  0  0  0  0  0  0  0
  151.1894  142.5737  157.3573 C   0  0  0  0  0  0  0  0  0  0  0  0
  150.7766  141.7835  156.2905 C   0  0  0  0  0  0  0  0  0  0  0  0
  151.2441  140.4473  156.2544 C   0  0  0  0  0  0  0  0  0  0  0  0
  150.8284  139.5414  155.1271 C   0  0  0  0  0  0  0  0  0  0  0  0
  150.3172  140.0457  154.1028 O   0  0  0  0  0  0  0  0  0  0  0  0
  151.0086  138.3092  155.2484 O   0  5  0  0  0  0  0  0  0  0  0  0
  152.0977  139.9634  157.2758 C   0  0  0  0  0  0  0  0  0  0  0  0
  152.5108  140.7749  158.3528 C   0  0  0  0  0  0  0  0  0  0  0  0
  152.0392  142.0851  158.3683 C   0  0  0  0  0  0  0  0  0  0  0  0
  152.2301  143.1524  159.2524 N   0  0  0  0  0  0  0  0  0  0  0  0
  153.0801  142.9640  160.4345 C   0  0  0  0  0  0  0  0  0  0  0  0
  152.4780  143.6237  161.6827 C   0  0  0  0  0  0  0  0  0  0  0  0
  151.6274  142.7080  162.3364 O   0  0  0  0  0  0  0  0  0  0  0  0
  150.7903  146.2421  158.9783 H   0  0  0  0  0  0  0  0  0  0  0  0
  152.4691  146.0405  159.5037 H   0  0  0  0  0  0  0  0  0  0  0  0
  151.1446  145.4666  160.5302 H   0  0  0  0  0  0  0  0  0  0  0  0
  150.1246  142.1749  155.5228 H   0  0  0  0  0  0  0  0  0  0  0  0
  152.4511  138.9427  157.2428 H   0  0  0  0  0  0  0  0  0  0  0  0
  153.1605  140.3852  159.1220 H   0  0  0  0  0  0  0  0  0  0  0  0
  153.2397  141.8960  160.5875 H   0  0  0  0  0  0  0  0  0  0  0  0
  154.0574  143.3947  160.2130 H   0  0  0  0  0  0  0  0  0  0  0  0
  153.2644  143.9326  162.3721 H   0  0  0  0  0  0  0  0  0  0  0  0
  151.9059  144.5132  161.4175 H   0  0  0  0  0  0  0  0  0  0  0  0
  151.7260  142.8171  163.2701 H   0  0  0  0  0  0  0  0  0  0  0  0
  150.3160  144.5309  157.1403 H   0  0  0  0  0  0  0  0  0  0  0  0
  1  2  1  0  0  0  0
  1 17  1  0  0  0  0
  1 18  1  0  0  0  0
  1 19  1  0  0  0  0
  2 13  1  0  0  0  0
  2  3  2  0  0  0  0
  3  4  1  0  0  0  0
  3 28  1  0  0  0  0
  4 12  2  0  0  0  0
  4  5  1  0  0  0  0
  5  6  2  0  0  0  0
  5 20  1  0  0  0  0
  6  7  1  0  0  0  0
  6 10  1  0  0  0  0
  7  8  2  0  0  0  0
  7  9  1  0  0  0  0
 10 11  2  0  0  0  0
 10 21  1  0  0  0  0
 11 12  1  0  0  0  0
 11 22  1  0  0  0  0
 12 13  1  0  0  0  0
 13 14  1  0  0  0  0
 14 15  1  0  0  0  0
 14 23  1  0  0  0  0
 14 24  1  0  0  0  0
 15 16  1  0  0  0  0
 15 25  1  0  0  0  0
 15 26  1  0  0  0  0
 16 27  1  0  0  0  0
M  CHG  1   3   1
M  CHG  1   9  -1
M  END
> <s_m_source_file>
AV-unprocessed.smi

> <i_m_source_file_index>
2613

> <i_lp_mmshare_version>
43012

> <i_f3d_flags>
0

> <s_epik_input>
W09IXVtDSDJdW0NIMl1uKGMobjEpW0NIM10pYyhjMTIpW2NIXVtjSF1jKFtjSF0yKUMoPU8pW09IXQ==

> <s_epik_cmdline>
J2VwaWtfcHl0aG9uJywgJy1waCcsICc3LjAnLCAnLXRuJywgJzgnLCAnLW1hJywgJzIwMCcsICctbWV0YWxfYmluZGluZycsICctaW1hZScsICc8aW5maWxlLm1hZT4nLCAnLW9tYWUnLCAnPG91dGZpbGUubWFlPic=

> <r_epik_Ionization_Penalty>
0.929425

> <r_epik_Ionization_Penalty_Charging>
0.929425

> <r_epik_Ionization_Penalty_Neutral>
5.76694e-08

> <r_epik_State_Penalty>
0.971794

> <r_epik_Charging_Adjusted_Penalty>
1.90122

> <i_epik_Tot_Q>
0

> <i_epik_Tot_abs_Q>
2

> <r_epik_Metal_State_Penalty>
4.93694

> <b_epik_Metal_Only>
0

> <s_lp_Force_Field>
OPLS_2005

> <r_lp_Energy>
5.88702

> <b_lp_Chiralities_Consistent>
1

> <s_lp_Variant>
AV-unprocessed.smi:2613-2

> <Gold.Version>
5.8.1

> <Gold.Id.Protein>
6NUR|6NUR_protein|mol2

> <Gold.PLP.Fitness>
51.5092

> <Gold.PLP.PLP>
-40.7393

> <Gold.PLP.part.hbond>
-4.0000

> <Gold.PLP.part.metal>
0.0000

> <Gold.PLP.part.buried>
-5.0043

> <Gold.PLP.part.nonpolar>
-31.5124

> <Gold.PLP.part.repulsive>
0.8596

> <Gold.PLP.ligand.clash>
0.0000

> <Gold.PLP.ligand.torsion>
0.5325

> <Gold.PLP.Chemscore.Hbond>
3.9440

> <Gold.PLP.Chemscore.CHOScore>
0.0000

> <Gold.PLP.Chemscore.Metal>
0.0000

> <Gold.Chemscore.Hbonds>
donor molecule, donor type, donor heavy atom, donor atom, acceptor molecule, acceptor atom, score
      L1  H     3    28       P1  8028  1.90
      P1  H  6933  6945       L1    16  1.00
      P1  H  7989  7998       L1     8  1.00

> <Gold.PLP.Chemscore.Internal.Correction>
0.0028

> <Gold.Rescore>
     Score         DG    S(hbond)    S(metal)    S(lipo)     H(rot)  DE(clash)    DE(int)     intcor
     17.71     -18.63       2.59        0.00      79.18       1.86       0.36       0.56       ----

> <Gold.Chemscore.Fitness>
17.7100

> <Gold.Chemscore.DG>
-18.6253

> <Gold.Chemscore.ZeroCoef>
-5.4800

> <Gold.Chemscore.Hbond>
2.5859

> <Gold.Chemscore.Metal>
0.0000

> <Gold.Chemscore.Lipo>
79.1836

> <Gold.Chemscore.Internal_Hbond>
0.0000

> <Gold.Chemscore.DEClash>
0.3590

> <Gold.Chemscore.DEInternal>
0.5563

> <Gold.Chemscore.Rot>
1.8579

> <Gold.Chemscore.Internal.Correction>
   9.000000E+99

> <Gold.Chemscore.Hbonds>
donor molecule, donor type, donor heavy atom, donor atom, acceptor molecule, acceptor atom, score
      L1  H     3    28       P1  8028  0.56
      P1  H  6933  6945       L1    16  0.28
      P1  H  7989  7998       L1     8  0.29

> <Gold.Chemscore.Hbond.Weighted>
-8.6370

> <Gold.Chemscore.Metal.Weighted>
-0.0000

> <Gold.Chemscore.Lipo.Weighted>
-9.2645

> <Gold.Chemscore.Internal_Hbond.Weighted>
0.0000

> <Gold.Chemscore.DEClash.Weighted>
0.3590

> <Gold.Chemscore.DEInternal.Weighted>
0.5563

> <Gold.Chemscore.Rot.Weighted>
4.7561

> <Gold.Chemscore.Internal.Correction.Weighted>
   9.000000E+99

> <Gold.Protein.RotatedTorsions>
[ 6907 6896 6895 6894 ] final  105.33 input  -60.11 | X-H torsion
[ 7974 7965 7964 7962 ] final  -80.92 input  175.53 | X-H torsion
[ 8008 7997 7996 7995 ] final  -19.40 input   59.86 | X-H torsion
[ 10167 10162 10161 10158 ] final  -31.24 input  -65.29 | X-H torsion
[ 10718 10713 10712 10709 ] final  106.41 input   66.30 | X-H torsion
[ 10763 10752 10751 10750 ] final  -87.57 input  -60.55 | X-H torsion
[ 11005 11000 10999 10996 ] final -120.15 input  -57.11 | X-H torsion

> <Gold.Protein.ActiveResidues>
 VAL166  LYS551  ARG553  GLY616  TRP617  ASP618  TYR619  PRO620  LYS621  CYS622 
 ASP623  PHE694  ASN695  SER759  ASP760  ASP761  ALA762  ILE779  LEU786  VAL792 
 PHE793  MET794  SER795  GLU796  ALA797  LYS798  CYS799  TRP800  GLU811  SER814 

> <Gold.Protein.RotatedAtoms>
  152.5234  133.9545  159.7687 H   0  0  0  0  0  0  0  0  0  0  0  0  # atno 6907 bound_to 6896
  150.9848  133.6200  159.2724 H   0  0  0  0  0  0  0  0  0  0  0  0  # atno 6908 bound_to 6896
  151.3365  135.0860  159.9409 H   0  0  0  0  0  0  0  0  0  0  0  0  # atno 6909 bound_to 6896
  145.5535  140.9493  143.1486 H   0  0  0  0  0  0  0  0  0  0  0  0  # atno 7974 bound_to 7965
  154.4839  140.2090  155.9700 H   0  0  0  0  0  0  0  0  0  0  0  0  # atno 8008 bound_to 7997
  156.1207  140.3214  155.8173 H   0  0  0  0  0  0  0  0  0  0  0  0  # atno 8009 bound_to 7997
  155.4473  140.0514  157.2995 H   0  0  0  0  0  0  0  0  0  0  0  0  # atno 8010 bound_to 7997
  140.7239  143.3786  151.1643 H   0  0  0  0  0  0  0  0  0  0  0  0  # atno 10167 bound_to 10162
  157.6669  131.0850  150.6003 H   0  0  0  0  0  0  0  0  0  0  0  0  # atno 10718 bound_to 10713
  154.6351  135.5408  153.7725 H   0  0  0  0  0  0  0  0  0  0  0  0  # atno 10763 bound_to 10752
  153.0304  135.6445  154.1243 H   0  0  0  0  0  0  0  0  0  0  0  0  # atno 10764 bound_to 10752
  154.1171  135.2923  155.3197 H   0  0  0  0  0  0  0  0  0  0  0  0  # atno 10765 bound_to 10752
  141.0164  134.0189  157.3343 H   0  0  0  0  0  0  0  0  0  0  0  0  # atno 11005 bound_to 11000
  144.7517  139.7176  143.7270 LP  0  0  0  0  0  0  0  0  0  0  0  0  # atno 17320 bound_to 7965
  146.1900  139.5136  142.9811 LP  0  0  0  0  0  0  0  0  0  0  0  0  # atno 17321 bound_to 7965
  139.7371  143.8982  152.3038 LP  0  0  0  0  0  0  0  0  0  0  0  0  # atno 17342 bound_to 10162
  139.8791  144.7027  150.8899 LP  0  0  0  0  0  0  0  0  0  0  0  0  # atno 17343 bound_to 10162
  156.6304  130.4430  149.5789 LP  0  0  0  0  0  0  0  0  0  0  0  0  # atno 17370 bound_to 10713
  156.2286  130.6781  151.1441 LP  0  0  0  0  0  0  0  0  0  0  0  0  # atno 17371 bound_to 10713
  139.9119  135.0191  156.7728 LP  0  0  0  0  0  0  0  0  0  0  0  0  # atno 17394 bound_to 11000
  140.6647  133.9613  155.7824 LP  0  0  0  0  0  0  0  0  0  0  0  0  # atno 17395 bound_to 11000

$$$$
