AV-unprocessed.smi:3056|AV-procd|sdf|11655|dock6
  -GOLD-   2272017 53D 1   1.00000     0.00000
 Structure written by MMmdl.
 47 48  0  0  0  0  0  0  0  0  1 V2000
  151.6647  142.7716  158.0089 C   0  0  0  0  0  0  0  0  0  0  0  0
  151.3109  141.6163  157.1177 C   0  0  0  0  0  0  0  0  0  0  0  0
  150.3591  141.5875  156.0604 C   0  0  0  0  0  0  0  0  0  0  0  0
  150.2914  140.4098  155.4628 N   0  0  0  0  0  0  0  0  0  0  0  0
  151.1826  139.6367  156.1214 N   0  0  0  0  0  0  0  0  0  0  0  0
  151.3843  138.2573  155.6876 C   0  0  2  0  0  0  0  0  0  0  0  0
  151.5983  138.1767  154.1611 C   0  0  0  0  0  0  0  0  0  0  0  0
  150.2614  137.3260  156.2193 C   0  0  1  0  0  0  0  0  0  0  0  0
  148.9306  137.4481  155.4468 C   0  0  0  0  0  0  0  0  0  0  0  0
  150.7766  135.9555  156.2475 N   0  0  0  0  0  0  0  0  0  0  0  0
  149.9723  134.9815  157.0058 C   0  0  0  0  0  0  0  0  0  0  0  0
  150.3852  133.5123  156.7946 C   0  0  0  0  0  0  0  0  0  0  0  0
  150.8417  132.8792  157.7486 O   0  0  0  0  0  0  0  0  0  0  0  0
  150.2318  132.9546  155.5700 N   0  0  0  0  0  0  0  0  0  0  0  0
  149.5750  133.6380  154.4536 C   0  0  0  0  0  0  0  0  0  0  0  0
  148.2796  132.8739  154.1256 C   0  0  0  0  0  0  0  0  0  0  0  0
  148.5840  131.5133  153.8230 O   0  0  0  0  0  0  0  0  0  0  0  0
  149.2624  130.8311  154.8779 C   0  0  1  0  0  0  0  0  0  0  0  0
  149.5125  129.3866  154.4319 C   0  0  0  0  0  0  0  0  0  0  0  0
  150.5723  131.5798  155.1941 C   0  0  0  0  0  0  0  0  0  0  0  0
  151.8212  140.3493  157.1188 C   0  0  0  0  0  0  0  0  0  0  0  0
  151.4379  143.7289  157.5392 H   0  0  0  0  0  0  0  0  0  0  0  0
  152.7261  142.7798  158.2571 H   0  0  0  0  0  0  0  0  0  0  0  0
  151.1141  142.7357  158.9489 H   0  0  0  0  0  0  0  0  0  0  0  0
  149.7219  142.3852  155.7078 H   0  0  0  0  0  0  0  0  0  0  0  0
  152.3212  137.9307  156.1441 H   0  0  0  0  0  0  0  0  0  0  0  0
  151.8661  137.1672  153.8495 H   0  0  0  0  0  0  0  0  0  0  0  0
  152.4095  138.8344  153.8478 H   0  0  0  0  0  0  0  0  0  0  0  0
  150.7068  138.4650  153.6046 H   0  0  0  0  0  0  0  0  0  0  0  0
  150.0716  137.6180  157.2534 H   0  0  0  0  0  0  0  0  0  0  0  0
  148.5920  138.4821  155.3947 H   0  0  0  0  0  0  0  0  0  0  0  0
  148.1316  136.8912  155.9354 H   0  0  0  0  0  0  0  0  0  0  0  0
  149.0187  137.0763  154.4260 H   0  0  0  0  0  0  0  0  0  0  0  0
  151.0037  135.6245  155.3203 H   0  0  0  0  0  0  0  0  0  0  0  0
  150.0950  135.2003  158.0668 H   0  0  0  0  0  0  0  0  0  0  0  0
  148.9166  135.1256  156.7739 H   0  0  0  0  0  0  0  0  0  0  0  0
  149.3426  134.6818  154.6680 H   0  0  0  0  0  0  0  0  0  0  0  0
  150.2391  133.6469  153.5883 H   0  0  0  0  0  0  0  0  0  0  0  0
  147.5794  132.9207  154.9611 H   0  0  0  0  0  0  0  0  0  0  0  0
  147.7824  133.3242  153.2664 H   0  0  0  0  0  0  0  0  0  0  0  0
  148.6228  130.8181  155.7625 H   0  0  0  0  0  0  0  0  0  0  0  0
  150.0186  128.8174  155.2119 H   0  0  0  0  0  0  0  0  0  0  0  0
  150.1322  129.3518  153.5356 H   0  0  0  0  0  0  0  0  0  0  0  0
  148.5734  128.8803  154.2078 H   0  0  0  0  0  0  0  0  0  0  0  0
  151.2135  131.6004  154.3118 H   0  0  0  0  0  0  0  0  0  0  0  0
  151.1430  131.0455  155.9517 H   0  0  0  0  0  0  0  0  0  0  0  0
  152.5824  139.9054  157.7434 H   0  0  0  0  0  0  0  0  0  0  0  0
  1  2  1  0  0  0  0
  1 22  1  0  0  0  0
  1 23  1  0  0  0  0
  1 24  1  0  0  0  0
  2 21  2  0  0  0  0
  2  3  1  0  0  0  0
  3  4  2  0  0  0  0
  3 25  1  0  0  0  0
  4  5  1  0  0  0  0
  5  6  1  0  0  0  0
  5 21  1  0  0  0  0
  6  7  1  0  0  0  0
  6  8  1  0  0  0  0
  6 26  1  0  0  0  0
  7 27  1  0  0  0  0
  7 28  1  0  0  0  0
  7 29  1  0  0  0  0
  8  9  1  0  0  0  0
  8 10  1  0  0  0  0
  8 30  1  0  0  0  0
  9 31  1  0  0  0  0
  9 32  1  0  0  0  0
  9 33  1  0  0  0  0
 10 11  1  0  0  0  0
 10 34  1  0  0  0  0
 11 12  1  0  0  0  0
 11 35  1  0  0  0  0
 11 36  1  0  0  0  0
 12 13  2  0  0  0  0
 12 14  1  0  0  0  0
 14 20  1  0  0  0  0
 14 15  1  0  0  0  0
 15 16  1  0  0  0  0
 15 37  1  0  0  0  0
 15 38  1  0  0  0  0
 16 17  1  0  0  0  0
 16 39  1  0  0  0  0
 16 40  1  0  0  0  0
 17 18  1  0  0  0  0
 18 19  1  0  0  0  0
 18 20  1  0  0  0  0
 18 41  1  0  0  0  0
 19 42  1  0  0  0  0
 19 43  1  0  0  0  0
 19 44  1  0  0  0  0
 20 45  1  0  0  0  0
 20 46  1  0  0  0  0
 21 47  1  0  0  0  0
M  END
> <s_m_source_file>
AV-unprocessed.smi

> <i_m_source_file_index>
3056

> <i_lp_mmshare_version>
43012

> <i_f3d_flags>
0

> <s_epik_input>
W0NIM11jMVtjSF1ubihbY0hdMSlbQ0BIXShbQ0gzXSlbQ0BIXShbQ0gzXSlbTkhdW0NIMl1DKD1PKU4yW0NIMl1bQ0gyXU9bQ0BASF0oW0NIM10pW0NIMl0y

> <s_epik_cmdline>
J2VwaWtfcHl0aG9uJywgJy1waCcsICc3LjAnLCAnLXRuJywgJzgnLCAnLW1hJywgJzIwMCcsICctbWV0YWxfYmluZGluZycsICctaW1hZScsICc8aW5maWxlLm1hZT4nLCAnLW9tYWUnLCAnPG91dGZpbGUubWFlPic=

> <r_lp_tautomer_probability>
1

> <r_epik_Ionization_Penalty>
0.667689

> <r_epik_Ionization_Penalty_Charging>
0

> <r_epik_Ionization_Penalty_Neutral>
0.667689

> <r_epik_State_Penalty>
0.684601

> <r_epik_Charging_Adjusted_Penalty>
0.684601

> <i_epik_Tot_Q>
0

> <i_epik_Tot_abs_Q>
0

> <r_epik_Metal_State_Penalty>
0.681448

> <b_epik_Metal_Only>
0

> <s_lp_Force_Field>
OPLS_2005

> <r_lp_Energy>
33.6961

> <b_lp_Chiralities_Consistent>
1

> <s_lp_Variant>
AV-unprocessed.smi:3056-11

> <Gold.Version>
5.8.1

> <Gold.Id.Protein>
6NUR|6NUR_protein|mol2

> <Gold.PLP.Fitness>
42.2794

> <Gold.PLP.PLP>
-34.5789

> <Gold.PLP.part.hbond>
-2.0000

> <Gold.PLP.part.metal>
0.0000

> <Gold.PLP.part.buried>
-5.8205

> <Gold.PLP.part.nonpolar>
-26.9668

> <Gold.PLP.part.repulsive>
0.1681

> <Gold.PLP.ligand.clash>
0.0000

> <Gold.PLP.ligand.torsion>
0.7469

> <Gold.PLP.Chemscore.Hbond>
1.9920

> <Gold.PLP.Chemscore.CHOScore>
1.0000

> <Gold.PLP.Chemscore.Metal>
0.0000

> <Gold.Chemscore.Hbonds>
donor molecule, donor type, donor heavy atom, donor atom, acceptor molecule, acceptor atom, score
      P1  H  6896  6908       L1    13  1.00
      P1  H  7989  7998       L1     4  0.03
      L1  C     3    25       P1  8028  1.00

> <Gold.PLP.Chemscore.Internal.Correction>
0.2183

> <Gold.Rescore>
     Score         DG    S(hbond)    S(metal)    S(lipo)     H(rot)  DE(clash)    DE(int)     intcor
     15.05     -16.22       1.63        0.00      81.86       1.68       0.14       1.02       ----

> <Gold.Chemscore.Fitness>
15.0543

> <Gold.Chemscore.DG>
-16.2180

> <Gold.Chemscore.ZeroCoef>
-5.4800

> <Gold.Chemscore.Hbond>
1.6345

> <Gold.Chemscore.Metal>
0.0000

> <Gold.Chemscore.Lipo>
81.8626

> <Gold.Chemscore.Internal_Hbond>
0.0000

> <Gold.Chemscore.DEClash>
0.1397

> <Gold.Chemscore.DEInternal>
1.0239

> <Gold.Chemscore.Rot>
1.6793

> <Gold.Chemscore.Internal.Correction>
   9.000000E+99

> <Gold.Chemscore.Hbonds>
donor molecule, donor type, donor heavy atom, donor atom, acceptor molecule, acceptor atom, score
      P1  H  6896  6908       L1    13  0.98

> <Gold.Chemscore.Hbond.Weighted>
-5.4591

> <Gold.Chemscore.Metal.Weighted>
-0.0000

> <Gold.Chemscore.Lipo.Weighted>
-9.5779

> <Gold.Chemscore.Internal_Hbond.Weighted>
0.0000

> <Gold.Chemscore.DEClash.Weighted>
0.1397

> <Gold.Chemscore.DEInternal.Weighted>
1.0239

> <Gold.Chemscore.Rot.Weighted>
4.2990

> <Gold.Chemscore.Internal.Correction.Weighted>
   9.000000E+99

> <Gold.Protein.RotatedTorsions>
[ 6907 6896 6895 6894 ] final   89.35 input  -60.11 | X-H torsion
[ 7974 7965 7964 7962 ] final -134.23 input  175.53 | X-H torsion
[ 8008 7997 7996 7995 ] final -161.42 input   59.86 | X-H torsion
[ 10167 10162 10161 10158 ] final  -51.12 input  -65.29 | X-H torsion
[ 10718 10713 10712 10709 ] final   60.27 input   66.30 | X-H torsion
[ 10763 10752 10751 10750 ] final  -36.78 input  -60.55 | X-H torsion
[ 11005 11000 10999 10996 ] final -131.01 input  -57.11 | X-H torsion

> <Gold.Protein.ActiveResidues>
 VAL166  LYS551  ARG553  GLY616  TRP617  ASP618  TYR619  PRO620  LYS621  CYS622 
 ASP623  PHE694  ASN695  SER759  ASP760  ASP761  ALA762  ILE779  LEU786  VAL792 
 PHE793  MET794  SER795  GLU796  ALA797  LYS798  CYS799  TRP800  GLU811  SER814 

> <Gold.Protein.RotatedAtoms>
  152.5435  134.1980  159.8700 H   0  0  0  0  0  0  0  0  0  0  0  0  # atno 6907 bound_to 6896
  151.1971  133.4626  159.2603 H   0  0  0  0  0  0  0  0  0  0  0  0  # atno 6908 bound_to 6896
  151.1026  134.9993  159.8511 H   0  0  0  0  0  0  0  0  0  0  0  0  # atno 6909 bound_to 6896
  144.9121  140.6908  143.5018 H   0  0  0  0  0  0  0  0  0  0  0  0  # atno 7974 bound_to 7965
  155.7920  140.0879  157.2004 H   0  0  0  0  0  0  0  0  0  0  0  0  # atno 8008 bound_to 7997
  154.3985  140.1488  156.3232 H   0  0  0  0  0  0  0  0  0  0  0  0  # atno 8009 bound_to 7997
  155.8549  140.3433  155.5720 H   0  0  0  0  0  0  0  0  0  0  0  0  # atno 8010 bound_to 7997
  140.6604  143.2631  151.4458 H   0  0  0  0  0  0  0  0  0  0  0  0  # atno 10167 bound_to 10162
  157.5740  130.8929  149.9315 H   0  0  0  0  0  0  0  0  0  0  0  0  # atno 10718 bound_to 10713
  153.8854  135.6817  153.4764 H   0  0  0  0  0  0  0  0  0  0  0  0  # atno 10763 bound_to 10752
  153.1210  135.4740  154.9193 H   0  0  0  0  0  0  0  0  0  0  0  0  # atno 10764 bound_to 10752
  154.7648  135.3221  154.8259 H   0  0  0  0  0  0  0  0  0  0  0  0  # atno 10765 bound_to 10752
  140.9296  134.1337  157.4246 H   0  0  0  0  0  0  0  0  0  0  0  0  # atno 11005 bound_to 11000
  145.3437  139.1725  143.4472 LP  0  0  0  0  0  0  0  0  0  0  0  0  # atno 17320 bound_to 7965
  146.3164  140.3481  142.8653 LP  0  0  0  0  0  0  0  0  0  0  0  0  # atno 17321 bound_to 7965
  139.5836  144.1654  152.2000 LP  0  0  0  0  0  0  0  0  0  0  0  0  # atno 17342 bound_to 10162
  140.0987  144.5558  150.7004 LP  0  0  0  0  0  0  0  0  0  0  0  0  # atno 17343 bound_to 10162
  156.0785  130.3676  150.0629 LP  0  0  0  0  0  0  0  0  0  0  0  0  # atno 17370 bound_to 10713
  156.8778  130.9546  151.3602 LP  0  0  0  0  0  0  0  0  0  0  0  0  # atno 17371 bound_to 10713
  139.8793  135.0000  156.5988 LP  0  0  0  0  0  0  0  0  0  0  0  0  # atno 17394 bound_to 11000
  140.7880  133.8606  155.8622 LP  0  0  0  0  0  0  0  0  0  0  0  0  # atno 17395 bound_to 11000

$$$$
