AV-unprocessed.smi:276|AV-procd|sdf|2077|dock9
  -GOLD-   2262021343D 1   1.00000     0.00000
 Structure written by MMmdl.
 57 61  0  0  0  0  0  0  0  0  1 V2000
  158.3270  132.4470  159.2841 C   0  0  0  0  0  0  0  0  0  0  0  0
  157.9871  131.8200  160.5079 O   0  0  0  0  0  0  0  0  0  0  0  0
  156.9276  132.4805  161.1818 C   0  0  1  0  0  0  0  0  0  0  0  0
  156.6614  131.9688  162.6028 C   0  0  0  0  0  0  0  0  0  0  0  0
  156.4689  133.4321  163.0480 C   0  0  2  0  0  0  0  0  0  0  0  0
  155.0553  133.8318  162.9910 N   0  0  0  0  0  0  0  0  0  0  0  0
  154.1645  133.1809  163.9471 C   0  0  0  0  0  0  0  0  0  0  0  0
  154.8118  135.1612  162.9671 C   0  0  0  0  0  0  0  0  0  0  0  0
  154.9867  135.8378  164.1296 N   0  0  0  0  0  0  0  0  0  0  0  0
  154.7551  137.1530  164.1796 C   0  0  0  0  0  0  0  0  0  0  0  0
  154.3550  137.9682  163.2016 N   0  0  0  0  0  0  0  0  0  0  0  0
  154.1939  137.2931  162.0276 C   0  0  0  0  0  0  0  0  0  0  0  0
  154.4034  135.9006  161.8194 C   0  0  0  0  0  0  0  0  0  0  0  0
  154.1451  135.5782  160.4919 N   0  0  0  0  0  0  0  0  0  0  0  0
  153.7908  136.7113  159.9504 C   0  0  0  0  0  0  0  0  0  0  0  0
  153.7899  137.7919  160.8021 N   0  0  0  0  0  0  0  0  0  0  0  0
  153.4340  139.1590  160.4654 C   0  0  0  0  0  0  0  0  0  0  0  0
  154.5576  140.1574  160.8048 C   0  0  1  0  0  0  0  0  0  0  0  0
  155.6516  139.9443  159.9328 O   0  0  0  0  0  0  0  0  0  0  0  0
  154.0954  141.6199  160.6728 C   0  0  2  0  0  0  0  0  0  0  0  0
  153.4497  142.1990  161.9329 C   0  0  0  0  0  0  0  0  0  0  0  0
  152.5551  143.3069  161.4001 C   0  0  0  0  0  0  0  0  0  0  0  0
  152.4402  143.0056  159.9033 C   0  0  0  0  0  0  0  0  0  0  0  0
  153.0367  141.7274  159.7336 O   0  0  0  0  0  0  0  0  0  0  0  0
  157.3304  133.8239  161.8161 C   0  0  0  0  0  0  0  0  0  0  0  0
  158.8195  134.1622  162.0146 C   0  0  0  0  0  0  0  0  0  0  0  0
  158.7310  135.0413  160.7640 C   0  0  0  0  0  0  0  0  0  0  0  0
  157.2254  135.1399  161.0212 C   0  0  0  0  0  0  0  0  0  0  0  0
  159.1433  131.9034  158.8090 H   0  0  0  0  0  0  0  0  0  0  0  0
  158.6561  133.4740  159.4472 H   0  0  0  0  0  0  0  0  0  0  0  0
  157.4825  132.4558  158.5938 H   0  0  0  0  0  0  0  0  0  0  0  0
  156.0176  132.5708  160.5847 H   0  0  0  0  0  0  0  0  0  0  0  0
  155.7956  131.3126  162.6859 H   0  0  0  0  0  0  0  0  0  0  0  0
  157.5432  131.5113  163.0545 H   0  0  0  0  0  0  0  0  0  0  0  0
  156.9515  133.6351  164.0040 H   0  0  0  0  0  0  0  0  0  0  0  0
  153.2288  133.7268  164.0817 H   0  0  0  0  0  0  0  0  0  0  0  0
  154.6459  133.0930  164.9219 H   0  0  0  0  0  0  0  0  0  0  0  0
  153.9053  132.1800  163.6033 H   0  0  0  0  0  0  0  0  0  0  0  0
  154.9115  137.6181  165.1416 H   0  0  0  0  0  0  0  0  0  0  0  0
  153.5158  136.7904  158.9086 H   0  0  0  0  0  0  0  0  0  0  0  0
  153.1833  139.2079  159.4049 H   0  0  0  0  0  0  0  0  0  0  0  0
  152.5245  139.4141  161.0106 H   0  0  0  0  0  0  0  0  0  0  0  0
  154.9013  139.9785  161.8246 H   0  0  0  0  0  0  0  0  0  0  0  0
  156.4433  140.2141  160.3732 H   0  0  0  0  0  0  0  0  0  0  0  0
  154.9216  142.2566  160.3497 H   0  0  0  0  0  0  0  0  0  0  0  0
  152.8373  141.4419  162.4248 H   0  0  0  0  0  0  0  0  0  0  0  0
  154.1839  142.5570  162.6552 H   0  0  0  0  0  0  0  0  0  0  0  0
  151.5823  143.2941  161.8928 H   0  0  0  0  0  0  0  0  0  0  0  0
  153.0002  144.2896  161.5596 H   0  0  0  0  0  0  0  0  0  0  0  0
  151.4074  143.0042  159.5541 H   0  0  0  0  0  0  0  0  0  0  0  0
  152.9956  143.7420  159.3206 H   0  0  0  0  0  0  0  0  0  0  0  0
  158.9999  134.7430  162.9209 H   0  0  0  0  0  0  0  0  0  0  0  0
  159.5097  133.3217  161.9380 H   0  0  0  0  0  0  0  0  0  0  0  0
  159.2702  135.9867  160.8296 H   0  0  0  0  0  0  0  0  0  0  0  0
  158.9695  134.4991  159.8474 H   0  0  0  0  0  0  0  0  0  0  0  0
  156.6038  135.0900  160.1269 H   0  0  0  0  0  0  0  0  0  0  0  0
  156.9873  136.0121  161.6293 H   0  0  0  0  0  0  0  0  0  0  0  0
  1  2  1  0  0  0  0
  1 29  1  0  0  0  0
  1 30  1  0  0  0  0
  1 31  1  0  0  0  0
  2  3  1  0  0  0  0
  3 25  1  0  0  0  0
  3  4  1  0  0  0  0
  3 32  1  0  0  0  0
  4  5  1  0  0  0  0
  4 33  1  0  0  0  0
  4 34  1  0  0  0  0
  5  6  1  0  0  0  0
  5 25  1  0  0  0  0
  5 35  1  0  0  0  0
  6  7  1  0  0  0  0
  6  8  1  0  0  0  0
  7 36  1  0  0  0  0
  7 37  1  0  0  0  0
  7 38  1  0  0  0  0
  8 13  1  0  0  0  0
  8  9  2  0  0  0  0
  9 10  1  0  0  0  0
 10 11  2  0  0  0  0
 10 39  1  0  0  0  0
 11 12  1  0  0  0  0
 12 16  1  0  0  0  0
 12 13  2  0  0  0  0
 13 14  1  0  0  0  0
 14 15  2  0  0  0  0
 15 16  1  0  0  0  0
 15 40  1  0  0  0  0
 16 17  1  0  0  0  0
 17 18  1  0  0  0  0
 17 41  1  0  0  0  0
 17 42  1  0  0  0  0
 18 19  1  0  0  0  0
 18 20  1  0  0  0  0
 18 43  1  0  0  0  0
 19 44  1  0  0  0  0
 20 24  1  0  0  0  0
 20 21  1  0  0  0  0
 20 45  1  0  0  0  0
 21 22  1  0  0  0  0
 21 46  1  0  0  0  0
 21 47  1  0  0  0  0
 22 23  1  0  0  0  0
 22 48  1  0  0  0  0
 22 49  1  0  0  0  0
 23 24  1  0  0  0  0
 23 50  1  0  0  0  0
 23 51  1  0  0  0  0
 25 28  1  0  0  0  0
 25 26  1  0  0  0  0
 26 27  1  0  0  0  0
 26 52  1  0  0  0  0
 26 53  1  0  0  0  0
 27 28  1  0  0  0  0
 27 54  1  0  0  0  0
 27 55  1  0  0  0  0
 28 56  1  0  0  0  0
 28 57  1  0  0  0  0
M  END
> <s_m_source_file>
AV-unprocessed.smi

> <i_m_source_file_index>
276

> <i_lp_mmshare_version>
43012

> <i_f3d_flags>
0

> <s_epik_input>
W0NIMl0xW0NIMl1bQ0gyXUMxMltDQEhdKE9bQ0gzXSlbQ0gyXVtDQEhdMk4oW0NIM10pYyhuW2NIXW4zKWMoYzM0KW5bY0hdbjRbQ0gyXVtDQEhdKFtPSF0pW0NAQEhdNVtDSDJdW0NIMl1bQ0gyXU81

> <s_epik_cmdline>
J2VwaWtfcHl0aG9uJywgJy1waCcsICc3LjAnLCAnLXRuJywgJzgnLCAnLW1hJywgJzIwMCcsICctbWV0YWxfYmluZGluZycsICctaW1hZScsICc8aW5maWxlLm1hZT4nLCAnLW9tYWUnLCAnPG91dGZpbGUubWFlPic=

> <r_lp_tautomer_probability>
1

> <r_epik_Ionization_Penalty>
0.00204117

> <r_epik_Ionization_Penalty_Charging>
0

> <r_epik_Ionization_Penalty_Neutral>
0.00204117

> <r_epik_State_Penalty>
0.00127401

> <r_epik_Charging_Adjusted_Penalty>
0.00127401

> <i_epik_Tot_Q>
0

> <i_epik_Tot_abs_Q>
0

> <r_epik_Metal_State_Penalty>
-0

> <b_epik_Metal_Only>
0

> <s_lp_Force_Field>
OPLS_2005

> <r_lp_Energy>
57.0409

> <b_lp_Chiralities_Consistent>
1

> <s_lp_Variant>
AV-unprocessed.smi:276-8

> <Gold.Version>
5.8.1

> <Gold.Id.Protein>
6NUR|6NUR_protein|mol2

> <Gold.PLP.Fitness>
36.9135

> <Gold.PLP.PLP>
-35.7240

> <Gold.PLP.part.hbond>
-0.9575

> <Gold.PLP.part.metal>
0.0000

> <Gold.PLP.part.buried>
-5.4463

> <Gold.PLP.part.nonpolar>
-29.8957

> <Gold.PLP.part.repulsive>
0.0561

> <Gold.PLP.ligand.clash>
0.0000

> <Gold.PLP.ligand.torsion>
1.2392

> <Gold.PLP.Chemscore.Hbond>
0.9913

> <Gold.PLP.Chemscore.CHOScore>
0.0000

> <Gold.PLP.Chemscore.Metal>
0.0000

> <Gold.Chemscore.Hbonds>
donor molecule, donor type, donor heavy atom, donor atom, acceptor molecule, acceptor atom, score
      P1  H  6896  6909       L1    14  0.80

> <Gold.PLP.Chemscore.Internal.Correction>
0.6941

> <Gold.Rescore>
     Score         DG    S(hbond)    S(metal)    S(lipo)     H(rot)  DE(clash)    DE(int)     intcor
      8.71     -10.36       0.77        0.00      79.18       2.72       0.05       1.60       ----

> <Gold.Chemscore.Fitness>
8.7120

> <Gold.Chemscore.DG>
-10.3566

> <Gold.Chemscore.ZeroCoef>
-5.4800

> <Gold.Chemscore.Hbond>
0.7689

> <Gold.Chemscore.Metal>
0.0000

> <Gold.Chemscore.Lipo>
79.1829

> <Gold.Chemscore.Internal_Hbond>
0.0000

> <Gold.Chemscore.DEClash>
0.0494

> <Gold.Chemscore.DEInternal>
1.5952

> <Gold.Chemscore.Rot>
2.7172

> <Gold.Chemscore.Internal.Correction>
   9.000000E+99

> <Gold.Chemscore.Hbonds>
donor molecule, donor type, donor heavy atom, donor atom, acceptor molecule, acceptor atom, score
      P1  H  6896  6909       L1    14  0.11

> <Gold.Chemscore.Hbond.Weighted>
-2.5682

> <Gold.Chemscore.Metal.Weighted>
-0.0000

> <Gold.Chemscore.Lipo.Weighted>
-9.2644

> <Gold.Chemscore.Internal_Hbond.Weighted>
0.0000

> <Gold.Chemscore.DEClash.Weighted>
0.0494

> <Gold.Chemscore.DEInternal.Weighted>
1.5952

> <Gold.Chemscore.Rot.Weighted>
6.9560

> <Gold.Chemscore.Internal.Correction.Weighted>
   9.000000E+99

> <Gold.Protein.RotatedTorsions>
[ 6907 6896 6895 6894 ] final -173.48 input  -60.11 | X-H torsion
[ 7974 7965 7964 7962 ] final  -17.22 input  175.53 | X-H torsion
[ 8008 7997 7996 7995 ] final  141.14 input   59.86 | X-H torsion
[ 10167 10162 10161 10158 ] final    0.61 input  -65.29 | X-H torsion
[ 10718 10713 10712 10709 ] final -162.19 input   66.30 | X-H torsion
[ 10763 10752 10751 10750 ] final   31.23 input  -60.55 | X-H torsion
[ 11005 11000 10999 10996 ] final  163.34 input  -57.11 | X-H torsion

> <Gold.Protein.ActiveResidues>
 VAL166  LYS551  ARG553  GLY616  TRP617  ASP618  TYR619  PRO620  LYS621  CYS622 
 ASP623  PHE694  ASN695  SER759  ASP760  ASP761  ALA762  ILE779  LEU786  VAL792 
 PHE793  MET794  SER795  GLU796  ALA797  LYS798  CYS799  TRP800  GLU811  SER814 

> <Gold.Protein.RotatedAtoms>
  151.5568  133.3409  159.2963 H   0  0  0  0  0  0  0  0  0  0  0  0  # atno 6907 bound_to 6896
  150.8446  134.7753  159.6971 H   0  0  0  0  0  0  0  0  0  0  0  0  # atno 6908 bound_to 6896
  152.4506  134.5409  159.9890 H   0  0  0  0  0  0  0  0  0  0  0  0  # atno 6909 bound_to 6896
  146.1951  140.3748  142.8443 H   0  0  0  0  0  0  0  0  0  0  0  0  # atno 7974 bound_to 7965
  156.2970  140.2323  156.4516 H   0  0  0  0  0  0  0  0  0  0  0  0  # atno 8008 bound_to 7997
  154.8096  140.0444  157.1354 H   0  0  0  0  0  0  0  0  0  0  0  0  # atno 8009 bound_to 7997
  154.9438  140.3033  155.5111 H   0  0  0  0  0  0  0  0  0  0  0  0  # atno 8010 bound_to 7997
  140.6721  143.7020  150.7944 H   0  0  0  0  0  0  0  0  0  0  0  0  # atno 10167 bound_to 10162
  156.6069  130.8834  151.2927 H   0  0  0  0  0  0  0  0  0  0  0  0  # atno 10718 bound_to 10713
  153.0327  135.6444  154.1166 H   0  0  0  0  0  0  0  0  0  0  0  0  # atno 10763 bound_to 10752
  154.0886  135.2868  155.3277 H   0  0  0  0  0  0  0  0  0  0  0  0  # atno 10764 bound_to 10752
  154.6480  135.5436  153.7932 H   0  0  0  0  0  0  0  0  0  0  0  0  # atno 10765 bound_to 10752
  140.2348  134.8096  157.3353 H   0  0  0  0  0  0  0  0  0  0  0  0  # atno 11005 bound_to 11000
  144.8564  140.7077  143.6135 LP  0  0  0  0  0  0  0  0  0  0  0  0  # atno 17320 bound_to 7965
  145.3668  139.1668  143.4353 LP  0  0  0  0  0  0  0  0  0  0  0  0  # atno 17321 bound_to 7965
  140.0707  143.5064  152.2581 LP  0  0  0  0  0  0  0  0  0  0  0  0  # atno 17342 bound_to 10162
  139.5994  144.7577  151.3208 LP  0  0  0  0  0  0  0  0  0  0  0  0  # atno 17343 bound_to 10162
  157.7265  130.9630  150.1657 LP  0  0  0  0  0  0  0  0  0  0  0  0  # atno 17370 bound_to 10713
  156.2422  130.3692  149.8324 LP  0  0  0  0  0  0  0  0  0  0  0  0  # atno 17371 bound_to 10713
  140.1713  134.4604  155.7829 LP  0  0  0  0  0  0  0  0  0  0  0  0  # atno 17394 bound_to 11000
  141.2215  133.6943  156.7713 LP  0  0  0  0  0  0  0  0  0  0  0  0  # atno 17395 bound_to 11000

$$$$
