AV-unprocessed.smi:110|AV-procd|sdf|1069|dock3
  -GOLD-   2262018153D 1   1.00000     0.00000
 Structure written by MMmdl.
 46 50  0  0  0  0  0  0  0  0  1 V2000
  147.7672  136.1850  154.4091 O   0  0  0  0  0  0  0  0  0  0  0  0
  146.7377  137.1470  154.3219 C   0  0  0  0  0  0  0  0  0  0  0  0
  147.3014  138.5499  154.5945 C   0  0  1  0  0  0  0  0  0  0  0  0
  148.6144  138.6488  154.0637 O   0  0  0  0  0  0  0  0  0  0  0  0
  148.9269  139.9835  153.8286 C   0  0  2  0  0  0  0  0  0  0  0  0
  149.6600  140.5197  155.0296 N   0  0  0  0  0  0  0  0  0  0  0  0
  149.3626  141.6914  155.6893 C   0  0  0  0  0  0  0  0  0  0  0  0
  150.1377  141.9888  156.6942 N   0  0  0  0  0  0  0  0  0  0  0  0
  151.0725  140.9631  156.7187 C   0  0  0  0  0  0  0  0  0  0  0  0
  152.1952  140.6623  157.5428 C   0  0  0  0  0  0  0  0  0  0  0  0
  152.6074  141.4160  158.5885 N   0  0  0  0  0  0  0  0  0  0  0  0
  153.0891  140.7277  159.7954 C   0  0  0  0  0  0  0  0  0  0  0  0
  152.9372  141.6985  160.9819 C   0  0  0  0  0  0  0  0  0  0  0  0
  152.4426  142.9243  160.2853 C   0  0  0  0  0  0  0  0  0  0  0  0
  152.1688  144.1789  160.8574 C   0  0  0  0  0  0  0  0  0  0  0  0
  151.7234  145.2142  160.0078 C   0  0  0  0  0  0  0  0  0  0  0  0
  151.5688  144.9840  158.6208 C   0  0  0  0  0  0  0  0  0  0  0  0
  151.8514  143.7154  158.0681 C   0  0  0  0  0  0  0  0  0  0  0  0
  152.2774  142.6805  158.9258 C   0  0  0  0  0  0  0  0  0  0  0  0
  152.8693  139.5119  157.2950 N   0  0  0  0  0  0  0  0  0  0  0  0
  152.4984  138.7244  156.2837 C   0  0  0  0  0  0  0  0  0  0  0  0
  151.4898  138.8895  155.4274 N   0  0  0  0  0  0  0  0  0  0  0  0
  150.7816  140.0288  155.6815 C   0  0  0  0  0  0  0  0  0  0  0  0
  147.6083  140.7151  153.5254 C   0  0  1  0  0  0  0  0  0  0  0  0
  147.5304  141.0769  152.1610 O   0  0  0  0  0  0  0  0  0  0  0  0
  146.5419  139.6658  153.8579 C   0  0  2  0  0  0  0  0  0  0  0  0
  145.5469  140.2127  154.6999 O   0  0  0  0  0  0  0  0  0  0  0  0
  147.3312  138.7460  155.6665 H   0  0  0  0  0  0  0  0  0  0  0  0
  149.6582  140.0616  153.0230 H   0  0  0  0  0  0  0  0  0  0  0  0
  147.5245  141.6260  154.1173 H   0  0  0  0  0  0  0  0  0  0  0  0
  146.0836  139.2750  152.9475 H   0  0  0  0  0  0  0  0  0  0  0  0
  148.0354  135.9517  153.5335 H   0  0  0  0  0  0  0  0  0  0  0  0
  146.2511  137.0965  153.3474 H   0  0  0  0  0  0  0  0  0  0  0  0
  145.9890  136.8923  155.0726 H   0  0  0  0  0  0  0  0  0  0  0  0
  148.5374  142.3264  155.4012 H   0  0  0  0  0  0  0  0  0  0  0  0
  152.5253  139.8101  159.9699 H   0  0  0  0  0  0  0  0  0  0  0  0
  154.1355  140.4528  159.6576 H   0  0  0  0  0  0  0  0  0  0  0  0
  152.2011  141.3477  161.7056 H   0  0  0  0  0  0  0  0  0  0  0  0
  153.8844  141.8864  161.4879 H   0  0  0  0  0  0  0  0  0  0  0  0
  152.2982  144.3476  161.9162 H   0  0  0  0  0  0  0  0  0  0  0  0
  151.5049  146.1892  160.4179 H   0  0  0  0  0  0  0  0  0  0  0  0
  151.2351  145.7850  157.9779 H   0  0  0  0  0  0  0  0  0  0  0  0
  151.7428  143.5486  157.0066 H   0  0  0  0  0  0  0  0  0  0  0  0
  153.0930  137.8342  156.1412 H   0  0  0  0  0  0  0  0  0  0  0  0
  148.2898  140.7327  151.7160 H   0  0  0  0  0  0  0  0  0  0  0  0
  144.7761  140.3809  154.1787 H   0  0  0  0  0  0  0  0  0  0  0  0
  1  2  1  0  0  0  0
  1 32  1  0  0  0  0
  2  3  1  0  0  0  0
  2 33  1  0  0  0  0
  2 34  1  0  0  0  0
  3 28  1  0  0  0  0
  3 26  1  0  0  0  0
  3  4  1  0  0  0  0
  4  5  1  0  0  0  0
  5 29  1  0  0  0  0
  5  6  1  0  0  0  0
  5 24  1  0  0  0  0
  6 23  1  0  0  0  0
  6  7  1  0  0  0  0
  7  8  2  0  0  0  0
  7 35  1  0  0  0  0
  8  9  1  0  0  0  0
  9 23  2  0  0  0  0
  9 10  1  0  0  0  0
 10 11  1  0  0  0  0
 10 20  2  0  0  0  0
 11 19  1  0  0  0  0
 11 12  1  0  0  0  0
 12 13  1  0  0  0  0
 12 36  1  0  0  0  0
 12 37  1  0  0  0  0
 13 14  1  0  0  0  0
 13 38  1  0  0  0  0
 13 39  1  0  0  0  0
 14 19  2  0  0  0  0
 14 15  1  0  0  0  0
 15 16  2  0  0  0  0
 15 40  1  0  0  0  0
 16 17  1  0  0  0  0
 16 41  1  0  0  0  0
 17 18  2  0  0  0  0
 17 42  1  0  0  0  0
 18 19  1  0  0  0  0
 18 43  1  0  0  0  0
 20 21  1  0  0  0  0
 21 22  2  0  0  0  0
 21 44  1  0  0  0  0
 22 23  1  0  0  0  0
 24 30  1  0  0  0  0
 24 25  1  0  0  0  0
 24 26  1  0  0  0  0
 25 45  1  0  0  0  0
 26 31  1  0  0  0  0
 26 27  1  0  0  0  0
 27 46  1  0  0  0  0
M  END
> <s_m_source_file>
AV-unprocessed.smi

> <i_m_source_file_index>
110

> <i_lp_mmshare_version>
43012

> <i_f3d_flags>
0

> <s_epik_input>
W09IXVtDSDJdW0NASF0xT1tDQEhdKFtDQEhdKFtPSF0pW0NAQEhdMVtPSF0pbihbY0hdbjIpYyhjMjMpbltjSF1uYzNOKFtDSDJdW0NIMl00KWMoYzQ1KVtjSF1bY0hdW2NIXVtjSF01

> <s_epik_cmdline>
J2VwaWtfcHl0aG9uJywgJy1waCcsICc3LjAnLCAnLXRuJywgJzgnLCAnLW1hJywgJzIwMCcsICctbWV0YWxfYmluZGluZycsICctaW1hZScsICc8aW5maWxlLm1hZT4nLCAnLW9tYWUnLCAnPG91dGZpbGUubWFlPic=

> <r_lp_tautomer_probability>
1

> <r_epik_Ionization_Penalty>
0.00068475

> <r_epik_Ionization_Penalty_Charging>
0

> <r_epik_Ionization_Penalty_Neutral>
0.00068475

> <r_epik_State_Penalty>
0.000417442

> <r_epik_Charging_Adjusted_Penalty>
0.000417442

> <i_epik_Tot_Q>
0

> <i_epik_Tot_abs_Q>
0

> <r_epik_Metal_State_Penalty>
-0

> <b_epik_Metal_Only>
0

> <s_epik_Chemistry_Notes>
This compound contains an acetal/aminal-like group ( X-CH(R)-Y where X, Y are N, S, or O) that may be acid/base labile, releasing an aldehyde.

> <s_lp_Force_Field>
OPLS_2005

> <r_lp_Energy>
55.3724

> <b_lp_Chiralities_Consistent>
1

> <s_lp_Variant>
AV-unprocessed.smi:110-7

> <Gold.Version>
5.8.1

> <Gold.Id.Protein>
6NUR|6NUR_protein|mol2

> <Gold.PLP.Fitness>
60.4630

> <Gold.PLP.PLP>
-47.7095

> <Gold.PLP.part.hbond>
-3.9178

> <Gold.PLP.part.metal>
0.0000

> <Gold.PLP.part.buried>
2.2673

> <Gold.PLP.part.nonpolar>
-45.8212

> <Gold.PLP.part.repulsive>
0.3304

> <Gold.PLP.ligand.clash>
0.0000

> <Gold.PLP.ligand.torsion>
0.8058

> <Gold.PLP.Chemscore.Hbond>
3.9913

> <Gold.PLP.Chemscore.CHOScore>
0.7421

> <Gold.PLP.Chemscore.Metal>
0.0000

> <Gold.Chemscore.Hbonds>
donor molecule, donor type, donor heavy atom, donor atom, acceptor molecule, acceptor atom, score
      L1  H     1    32       P1  7948  1.00
      L1  H    25    45       P1  7957  1.00
      L1  H    27    46       P1 10175  1.00
      P1  H  7997  8008       L1    20  1.00
      L1  C     7    35       P1  8028  0.74

> <Gold.PLP.Chemscore.Internal.Correction>
0.1651

> <Gold.Rescore>
     Score         DG    S(hbond)    S(metal)    S(lipo)     H(rot)  DE(clash)    DE(int)     intcor
     15.86     -21.16       3.26        0.00     114.81       3.38       3.14       2.15       ----

> <Gold.Chemscore.Fitness>
15.8600

> <Gold.Chemscore.DG>
-21.1553

> <Gold.Chemscore.ZeroCoef>
-5.4800

> <Gold.Chemscore.Hbond>
3.2649

> <Gold.Chemscore.Metal>
0.0000

> <Gold.Chemscore.Lipo>
114.8088

> <Gold.Chemscore.Internal_Hbond>
0.0000

> <Gold.Chemscore.DEClash>
3.1404

> <Gold.Chemscore.DEInternal>
2.1549

> <Gold.Chemscore.Rot>
3.3837

> <Gold.Chemscore.Internal.Correction>
   9.000000E+99

> <Gold.Chemscore.Hbonds>
donor molecule, donor type, donor heavy atom, donor atom, acceptor molecule, acceptor atom, score
      L1  H     1    32       P1  7948  0.98
      L1  H    25    45       P1  7957  0.96
      L1  H    27    46       P1 10175  0.93
      P1  H  7997  8008       L1    20  0.20

> <Gold.Chemscore.Hbond.Weighted>
-10.9048

> <Gold.Chemscore.Metal.Weighted>
-0.0000

> <Gold.Chemscore.Lipo.Weighted>
-13.4326

> <Gold.Chemscore.Internal_Hbond.Weighted>
0.0000

> <Gold.Chemscore.DEClash.Weighted>
3.1404

> <Gold.Chemscore.DEInternal.Weighted>
2.1549

> <Gold.Chemscore.Rot.Weighted>
8.6622

> <Gold.Chemscore.Internal.Correction.Weighted>
   9.000000E+99

> <Gold.Protein.RotatedTorsions>
[ 6907 6896 6895 6894 ] final   35.29 input  -60.11 | X-H torsion
[ 7974 7965 7964 7962 ] final   68.97 input  175.53 | X-H torsion
[ 8008 7997 7996 7995 ] final  -72.60 input   59.86 | X-H torsion
[ 10167 10162 10161 10158 ] final  -83.91 input  -65.29 | X-H torsion
[ 10718 10713 10712 10709 ] final   72.91 input   66.30 | X-H torsion
[ 10763 10752 10751 10750 ] final  -48.67 input  -60.55 | X-H torsion
[ 11005 11000 10999 10996 ] final  140.08 input  -57.11 | X-H torsion

> <Gold.Protein.ActiveResidues>
 VAL166  LYS551  ARG553  GLY616  TRP617  ASP618  TYR619  PRO620  LYS621  CYS622 
 ASP623  PHE694  ASN695  SER759  ASP760  ASP761  ALA762  ILE779  LEU786  VAL792 
 PHE793  MET794  SER795  GLU796  ALA797  LYS798  CYS799  TRP800  GLU811  SER814 

> <Gold.Protein.RotatedAtoms>
  152.1141  134.9253  160.0565 H   0  0  0  0  0  0  0  0  0  0  0  0  # atno 6907 bound_to 6896
  152.0419  133.3976  159.4349 H   0  0  0  0  0  0  0  0  0  0  0  0  # atno 6908 bound_to 6896
  150.6845  134.3326  159.4877 H   0  0  0  0  0  0  0  0  0  0  0  0  # atno 6909 bound_to 6896
  145.7961  139.2958  143.1182 H   0  0  0  0  0  0  0  0  0  0  0  0  # atno 7974 bound_to 7965
  154.5179  140.0794  156.8117 H   0  0  0  0  0  0  0  0  0  0  0  0  # atno 8008 bound_to 7997
  155.3640  140.3419  155.4223 H   0  0  0  0  0  0  0  0  0  0  0  0  # atno 8009 bound_to 7997
  156.1648  140.1600  156.8537 H   0  0  0  0  0  0  0  0  0  0  0  0  # atno 8010 bound_to 7997
  140.4182  143.2595  151.8926 H   0  0  0  0  0  0  0  0  0  0  0  0  # atno 10167 bound_to 10162
  157.6523  130.9602  150.0995 H   0  0  0  0  0  0  0  0  0  0  0  0  # atno 10718 bound_to 10713
  154.0816  135.6590  153.4839 H   0  0  0  0  0  0  0  0  0  0  0  0  # atno 10763 bound_to 10752
  153.0353  135.5181  154.7468 H   0  0  0  0  0  0  0  0  0  0  0  0  # atno 10764 bound_to 10752
  154.6565  135.3008  154.9890 H   0  0  0  0  0  0  0  0  0  0  0  0  # atno 10765 bound_to 10752
  140.0301  134.9356  157.0646 H   0  0  0  0  0  0  0  0  0  0  0  0  # atno 11005 bound_to 11000
  145.9927  140.8589  143.0058 LP  0  0  0  0  0  0  0  0  0  0  0  0  # atno 17320 bound_to 7965
  144.6775  140.2238  143.7363 LP  0  0  0  0  0  0  0  0  0  0  0  0  # atno 17321 bound_to 7965
  139.4782  144.5466  151.8449 LP  0  0  0  0  0  0  0  0  0  0  0  0  # atno 17342 bound_to 10162
  140.4563  144.1784  150.5902 LP  0  0  0  0  0  0  0  0  0  0  0  0  # atno 17343 bound_to 10162
  156.1922  130.3655  149.8896 LP  0  0  0  0  0  0  0  0  0  0  0  0  # atno 17370 bound_to 10713
  156.6821  130.8862  151.3577 LP  0  0  0  0  0  0  0  0  0  0  0  0  # atno 17371 bound_to 10713
  140.4240  134.1851  155.7165 LP  0  0  0  0  0  0  0  0  0  0  0  0  # atno 17394 bound_to 11000
  141.1826  133.8382  157.1204 LP  0  0  0  0  0  0  0  0  0  0  0  0  # atno 17395 bound_to 11000

$$$$
