AV-unprocessed.smi:1540|AV-procd|sdf|6198|dock8
  -GOLD-   22720 6363D 1   1.00000     0.00000
 Structure written by MMmdl.
 33 33  0  0  0  0  0  0  0  0  1 V2000
  154.1577  137.0000  162.8837 C   0  0  0  0  0  0  0  0  0  0  0  0
  154.3287  136.3276  161.7358 C   0  0  0  0  0  0  0  0  0  0  0  0
  154.4741  136.9745  160.3765 C   0  0  0  0  0  0  0  0  0  0  0  0
  153.3882  136.6015  159.5372 O   0  0  0  0  0  0  0  0  0  0  0  0
  153.4341  137.1147  158.2081 C   0  0  2  0  0  0  0  0  0  0  0  0
  154.7429  136.6261  157.5701 C   0  0  0  0  0  0  0  0  0  0  0  0
  153.3586  138.6503  158.2218 C   0  0  0  0  0  0  0  0  0  0  0  0
  154.2508  139.2950  158.7724 O   0  0  0  0  0  0  0  0  0  0  0  0
  152.2850  139.1817  157.6040 N   0  0  0  0  0  0  0  0  0  0  0  0
  151.9053  140.5284  157.4779 C   0  0  0  0  0  0  0  0  0  0  0  0
  152.1132  141.4851  158.4202 C   0  0  0  0  0  0  0  0  0  0  0  0
  151.6861  142.8613  158.2297 C   0  0  0  0  0  0  0  0  0  0  0  0
  151.8729  143.9092  159.3165 C   0  0  0  0  0  0  0  0  0  0  0  0
  150.6997  144.3466  159.7762 F   0  0  0  0  0  0  0  0  0  0  0  0
  152.5659  143.4143  160.3422 F   0  0  0  0  0  0  0  0  0  0  0  0
  152.5431  144.9525  158.8292 F   0  0  0  0  0  0  0  0  0  0  0  0
  151.0451  143.1369  157.0789 C   0  0  0  0  0  0  0  0  0  0  0  0
  150.8266  142.1592  156.1058 N   0  0  0  0  0  0  0  0  0  0  0  0
  151.2081  140.8679  156.2264 C   0  0  0  0  0  0  0  0  0  0  0  0
  150.9688  140.0627  155.3271 O   0  0  0  0  0  0  0  0  0  0  0  0
  150.3454  142.4469  155.2658 H   0  0  0  0  0  0  0  0  0  0  0  0
  154.1128  138.0791  162.9013 H   0  0  0  0  0  0  0  0  0  0  0  0
  154.0597  136.4770  163.8236 H   0  0  0  0  0  0  0  0  0  0  0  0
  154.3691  135.2483  161.7557 H   0  0  0  0  0  0  0  0  0  0  0  0
  154.5091  138.0595  160.4879 H   0  0  0  0  0  0  0  0  0  0  0  0
  155.4260  136.6562  159.9511 H   0  0  0  0  0  0  0  0  0  0  0  0
  152.6002  136.7053  157.6345 H   0  0  0  0  0  0  0  0  0  0  0  0
  154.8482  136.9955  156.5493 H   0  0  0  0  0  0  0  0  0  0  0  0
  154.7688  135.5369  157.5299 H   0  0  0  0  0  0  0  0  0  0  0  0
  155.6146  136.9543  158.1378 H   0  0  0  0  0  0  0  0  0  0  0  0
  151.6763  138.5292  157.1309 H   0  0  0  0  0  0  0  0  0  0  0  0
  152.5940  141.2482  159.3550 H   0  0  0  0  0  0  0  0  0  0  0  0
  150.6502  144.1083  156.8196 H   0  0  0  0  0  0  0  0  0  0  0  0
  1  2  2  0  0  0  0
  1 22  1  0  0  0  0
  1 23  1  0  0  0  0
  2  3  1  0  0  0  0
  2 24  1  0  0  0  0
  3  4  1  0  0  0  0
  3 25  1  0  0  0  0
  3 26  1  0  0  0  0
  4  5  1  0  0  0  0
  5  6  1  0  0  0  0
  5  7  1  0  0  0  0
  5 27  1  0  0  0  0
  6 28  1  0  0  0  0
  6 29  1  0  0  0  0
  6 30  1  0  0  0  0
  7  8  2  0  0  0  0
  7  9  1  0  0  0  0
  9 10  1  0  0  0  0
  9 31  1  0  0  0  0
 10 19  1  0  0  0  0
 10 11  2  0  0  0  0
 11 12  1  0  0  0  0
 11 32  1  0  0  0  0
 12 13  1  0  0  0  0
 12 17  2  0  0  0  0
 13 14  1  0  0  0  0
 13 15  1  0  0  0  0
 13 16  1  0  0  0  0
 17 18  1  0  0  0  0
 17 33  1  0  0  0  0
 18 21  1  0  0  0  0
 18 19  1  0  0  0  0
 19 20  2  0  0  0  0
M  END
> <s_m_source_file>
AV-unprocessed.smi

> <i_m_source_file_index>
1540

> <i_lp_mmshare_version>
43012

> <i_f3d_flags>
0

> <s_epik_input>
W0NIMl09W0NIXVtDSDJdT1tDQEhdKFtDSDNdKUMoPU8pW05IXWMxW2NIXWMoQyhGKShGKUYpW2NIXVtuSF1jMT1P

> <s_epik_cmdline>
J2VwaWtfcHl0aG9uJywgJy1waCcsICc3LjAnLCAnLXRuJywgJzgnLCAnLW1hJywgJzIwMCcsICctbWV0YWxfYmluZGluZycsICctaW1hZScsICc8aW5maWxlLm1hZT4nLCAnLW9tYWUnLCAnPG91dGZpbGUubWFlPic=

> <r_lp_tautomer_probability>
0.999

> <r_epik_Ionization_Penalty>
0.0086731

> <r_epik_Ionization_Penalty_Charging>
0.00867296

> <r_epik_Ionization_Penalty_Neutral>
1.3954e-07

> <r_epik_State_Penalty>
0.00654787

> <r_epik_Charging_Adjusted_Penalty>
0.0152208

> <i_epik_Tot_Q>
0

> <i_epik_Tot_abs_Q>
0

> <r_epik_Metal_State_Penalty>
0.320056

> <b_epik_Metal_Only>
0

> <s_lp_Force_Field>
OPLS_2005

> <r_lp_Energy>
17.7944

> <b_lp_Chiralities_Consistent>
1

> <s_lp_Variant>
AV-unprocessed.smi:1540-1

> <Gold.Version>
5.8.1

> <Gold.Id.Protein>
6NUR|6NUR_protein|mol2

> <Gold.PLP.Fitness>
48.0434

> <Gold.PLP.PLP>
-36.9703

> <Gold.PLP.part.hbond>
-3.2498

> <Gold.PLP.part.metal>
0.0000

> <Gold.PLP.part.buried>
-2.6915

> <Gold.PLP.part.nonpolar>
-30.7287

> <Gold.PLP.part.repulsive>
0.2450

> <Gold.PLP.ligand.clash>
0.0000

> <Gold.PLP.ligand.torsion>
0.3032

> <Gold.PLP.Chemscore.Hbond>
2.8770

> <Gold.PLP.Chemscore.CHOScore>
1.0000

> <Gold.PLP.Chemscore.Metal>
0.0000

> <Gold.Chemscore.Hbonds>
donor molecule, donor type, donor heavy atom, donor atom, acceptor molecule, acceptor atom, score
      P1  H  6896  6909       L1     4  0.81
      P1  H  7989  7998       L1    20  0.81
      P1  H  7997  8010       L1     8  0.99
      L1  C    17    33       P1  8028  1.00

> <Gold.PLP.Chemscore.Internal.Correction>
0.0484

> <Gold.Rescore>
     Score         DG    S(hbond)    S(metal)    S(lipo)     H(rot)  DE(clash)    DE(int)     intcor
     14.81     -16.58       2.36        0.00      66.95       1.81       0.03       1.74       ----

> <Gold.Chemscore.Fitness>
14.8081

> <Gold.Chemscore.DG>
-16.5783

> <Gold.Chemscore.ZeroCoef>
-5.4800

> <Gold.Chemscore.Hbond>
2.3636

> <Gold.Chemscore.Metal>
0.0000

> <Gold.Chemscore.Lipo>
66.9512

> <Gold.Chemscore.Internal_Hbond>
0.0000

> <Gold.Chemscore.DEClash>
0.0290

> <Gold.Chemscore.DEInternal>
1.7412

> <Gold.Chemscore.Rot>
1.8084

> <Gold.Chemscore.Internal.Correction>
   9.000000E+99

> <Gold.Chemscore.Hbonds>
donor molecule, donor type, donor heavy atom, donor atom, acceptor molecule, acceptor atom, score
      P1  H  6896  6909       L1     4  0.77
      P1  H  7989  7998       L1    20  0.52
      P1  H  7997  8010       L1     8  0.47

> <Gold.Chemscore.Hbond.Weighted>
-7.8946

> <Gold.Chemscore.Metal.Weighted>
-0.0000

> <Gold.Chemscore.Lipo.Weighted>
-7.8333

> <Gold.Chemscore.Internal_Hbond.Weighted>
0.0000

> <Gold.Chemscore.DEClash.Weighted>
0.0290

> <Gold.Chemscore.DEInternal.Weighted>
1.7412

> <Gold.Chemscore.Rot.Weighted>
4.6296

> <Gold.Chemscore.Internal.Correction.Weighted>
   9.000000E+99

> <Gold.Protein.RotatedTorsions>
[ 6907 6896 6895 6894 ] final  163.86 input  -60.11 | X-H torsion
[ 7974 7965 7964 7962 ] final    1.46 input  175.53 | X-H torsion
[ 8008 7997 7996 7995 ] final  -10.46 input   59.86 | X-H torsion
[ 10167 10162 10161 10158 ] final   74.93 input  -65.29 | X-H torsion
[ 10718 10713 10712 10709 ] final  -23.27 input   66.30 | X-H torsion
[ 10763 10752 10751 10750 ] final -127.20 input  -60.55 | X-H torsion
[ 11005 11000 10999 10996 ] final  109.03 input  -57.11 | X-H torsion

> <Gold.Protein.ActiveResidues>
 VAL166  LYS551  ARG553  GLY616  TRP617  ASP618  TYR619  PRO620  LYS621  CYS622 
 ASP623  PHE694  ASN695  SER759  ASP760  ASP761  ALA762  ILE779  LEU786  VAL792 
 PHE793  MET794  SER795  GLU796  ALA797  LYS798  CYS799  TRP800  GLU811  SER814 

> <Gold.Protein.RotatedAtoms>
  151.9188  133.3580  159.3889 H   0  0  0  0  0  0  0  0  0  0  0  0  # atno 6907 bound_to 6896
  150.7041  134.4657  159.5411 H   0  0  0  0  0  0  0  0  0  0  0  0  # atno 6908 bound_to 6896
  152.2276  134.8353  160.0528 H   0  0  0  0  0  0  0  0  0  0  0  0  # atno 6909 bound_to 6896
  146.2440  140.0984  142.8349 H   0  0  0  0  0  0  0  0  0  0  0  0  # atno 7974 bound_to 7965
  154.5552  140.2328  155.8421 H   0  0  0  0  0  0  0  0  0  0  0  0  # atno 8008 bound_to 7997
  156.1982  140.3059  155.9432 H   0  0  0  0  0  0  0  0  0  0  0  0  # atno 8009 bound_to 7997
  155.2993  140.0430  157.3019 H   0  0  0  0  0  0  0  0  0  0  0  0  # atno 8010 bound_to 7997
  140.0084  144.5633  150.7679 H   0  0  0  0  0  0  0  0  0  0  0  0  # atno 10167 bound_to 10162
  156.4933  130.4571  149.6743 H   0  0  0  0  0  0  0  0  0  0  0  0  # atno 10718 bound_to 10713
  154.8751  135.3970  154.3555 H   0  0  0  0  0  0  0  0  0  0  0  0  # atno 10763 bound_to 10752
  153.4335  135.7025  153.6221 H   0  0  0  0  0  0  0  0  0  0  0  0  # atno 10764 bound_to 10752
  153.4832  135.3764  155.2423 H   0  0  0  0  0  0  0  0  0  0  0  0  # atno 10765 bound_to 10752
  139.8854  134.9447  156.6064 H   0  0  0  0  0  0  0  0  0  0  0  0  # atno 11005 bound_to 11000
  145.0590  140.9074  143.4950 LP  0  0  0  0  0  0  0  0  0  0  0  0  # atno 17320 bound_to 7965
  145.1095  139.2766  143.5644 LP  0  0  0  0  0  0  0  0  0  0  0  0  # atno 17321 bound_to 7965
  140.7391  143.2787  151.3663 LP  0  0  0  0  0  0  0  0  0  0  0  0  # atno 17342 bound_to 10162
  139.6222  144.0884  152.2402 LP  0  0  0  0  0  0  0  0  0  0  0  0  # atno 17343 bound_to 10162
  156.3405  130.7379  151.2324 LP  0  0  0  0  0  0  0  0  0  0  0  0  # atno 17370 bound_to 10713
  157.7471  131.0405  150.4600 LP  0  0  0  0  0  0  0  0  0  0  0  0  # atno 17371 bound_to 10713
  140.7845  133.8633  155.8595 LP  0  0  0  0  0  0  0  0  0  0  0  0  # atno 17394 bound_to 11000
  140.9731  134.1504  157.4559 LP  0  0  0  0  0  0  0  0  0  0  0  0  # atno 17395 bound_to 11000

$$$$
