AV-unprocessed.smi:148|AV-procd|sdf|1210|dock4
  -GOLD-   2262018383D 1   1.00000     0.00000
 Structure written by MMmdl.
 63 67  0  0  0  0  0  0  0  0  1 V2000
  150.8397  142.1991  156.8521 O   0  0  0  0  0  0  0  0  0  0  0  0
  150.9954  141.7639  158.1879 C   0  0  0  0  0  0  0  0  0  0  0  0
  152.3156  140.9830  158.3853 C   0  0  2  0  0  0  0  0  0  0  0  0
  152.2253  139.6316  157.6284 C   0  0  0  0  0  0  0  0  0  0  0  0
  151.3675  138.6525  158.2687 N   0  0  0  0  0  0  0  0  0  0  0  0
  151.7432  137.7211  159.2109 C   0  0  0  0  0  0  0  0  0  0  0  0
  150.7769  136.9741  159.6699 N   0  0  0  0  0  0  0  0  0  0  0  0
  149.6574  137.4124  158.9750 C   0  0  0  0  0  0  0  0  0  0  0  0
  148.2814  137.0722  159.0102 C   0  0  0  0  0  0  0  0  0  0  0  0
  147.7961  136.1702  159.8918 N   0  0  0  0  0  0  0  0  0  0  0  0
  148.0261  136.6076  161.2684 C   0  0  0  0  0  0  0  0  0  0  0  0
  147.2568  135.7319  162.2653 C   0  0  0  0  0  0  0  0  0  0  0  0
  147.6199  134.2570  162.0659 C   0  0  0  0  0  0  0  0  0  0  0  0
  147.3594  133.8436  160.6110 C   0  0  0  0  0  0  0  0  0  0  0  0
  148.1109  134.7573  159.6053 C   0  0  1  0  0  0  0  0  0  0  0  0
  147.8701  134.3644  158.1054 C   0  0  2  0  0  0  0  0  0  0  0  0
  146.3966  134.4837  157.6489 C   0  0  0  0  0  0  0  0  0  0  0  0
  145.9857  133.1180  157.0818 C   0  0  0  0  0  0  0  0  0  0  0  0
  147.0055  132.1230  157.6324 C   0  0  0  0  0  0  0  0  0  0  0  0
  148.2950  132.9400  157.6841 C   0  0  2  0  0  0  0  0  0  0  0  0
  149.3019  132.3473  158.4792 O   0  0  0  0  0  0  0  0  0  0  0  0
  147.4393  137.7173  158.1602 N   0  0  0  0  0  0  0  0  0  0  0  0
  147.9181  138.6552  157.3369 C   0  0  0  0  0  0  0  0  0  0  0  0
  149.1716  139.0998  157.2163 N   0  0  0  0  0  0  0  0  0  0  0  0
  150.0148  138.4442  158.0650 C   0  0  0  0  0  0  0  0  0  0  0  0
  152.7204  140.8599  159.8862 C   0  0  2  0  0  0  0  0  0  0  0  0
  152.9840  142.1863  160.5833 C   0  0  0  0  0  0  0  0  0  0  0  0
  153.7762  141.7549  161.8082 C   0  0  0  0  0  0  0  0  0  0  0  0
  154.6281  140.7292  161.3246 O   0  0  0  0  0  0  0  0  0  0  0  0
  154.0427  140.1251  160.1748 C   0  0  0  0  0  0  0  0  0  0  0  0
  150.3830  143.0266  156.8556 H   0  0  0  0  0  0  0  0  0  0  0  0
  150.9682  142.6358  158.8420 H   0  0  0  0  0  0  0  0  0  0  0  0
  150.1332  141.1560  158.4615 H   0  0  0  0  0  0  0  0  0  0  0  0
  153.0866  141.5768  157.8927 H   0  0  0  0  0  0  0  0  0  0  0  0
  151.8710  139.7930  156.6100 H   0  0  0  0  0  0  0  0  0  0  0  0
  153.2164  139.1852  157.5393 H   0  0  0  0  0  0  0  0  0  0  0  0
  152.7585  137.6315  159.5691 H   0  0  0  0  0  0  0  0  0  0  0  0
  149.0936  136.5648  161.4896 H   0  0  0  0  0  0  0  0  0  0  0  0
  147.7177  137.6479  161.3839 H   0  0  0  0  0  0  0  0  0  0  0  0
  147.4819  136.0404  163.2865 H   0  0  0  0  0  0  0  0  0  0  0  0
  146.1840  135.8707  162.1253 H   0  0  0  0  0  0  0  0  0  0  0  0
  148.6703  134.0979  162.3126 H   0  0  0  0  0  0  0  0  0  0  0  0
  147.0400  133.6312  162.7446 H   0  0  0  0  0  0  0  0  0  0  0  0
  147.6592  132.8039  160.4933 H   0  0  0  0  0  0  0  0  0  0  0  0
  146.2859  133.8734  160.4261 H   0  0  0  0  0  0  0  0  0  0  0  0
  149.1775  134.6394  159.8026 H   0  0  0  0  0  0  0  0  0  0  0  0
  148.4702  135.0304  157.4847 H   0  0  0  0  0  0  0  0  0  0  0  0
  145.7404  134.7622  158.4729 H   0  0  0  0  0  0  0  0  0  0  0  0
  146.2826  135.2600  156.8917 H   0  0  0  0  0  0  0  0  0  0  0  0
  144.9614  132.8496  157.3407 H   0  0  0  0  0  0  0  0  0  0  0  0
  146.0536  133.1430  155.9933 H   0  0  0  0  0  0  0  0  0  0  0  0
  146.7078  131.8010  158.6304 H   0  0  0  0  0  0  0  0  0  0  0  0
  147.0981  131.2325  157.0098 H   0  0  0  0  0  0  0  0  0  0  0  0
  148.6890  132.9926  156.6677 H   0  0  0  0  0  0  0  0  0  0  0  0
  149.1918  131.4091  158.4523 H   0  0  0  0  0  0  0  0  0  0  0  0
  147.1915  139.1243  156.6900 H   0  0  0  0  0  0  0  0  0  0  0  0
  151.9219  140.3521  160.4297 H   0  0  0  0  0  0  0  0  0  0  0  0
  153.5955  142.8362  159.9555 H   0  0  0  0  0  0  0  0  0  0  0  0
  152.0721  142.7221  160.8482 H   0  0  0  0  0  0  0  0  0  0  0  0
  154.3433  142.5714  162.2556 H   0  0  0  0  0  0  0  0  0  0  0  0
  153.1126  141.3395  162.5678 H   0  0  0  0  0  0  0  0  0  0  0  0
  153.8890  139.0625  160.3587 H   0  0  0  0  0  0  0  0  0  0  0  0
  154.7470  140.2282  159.3490 H   0  0  0  0  0  0  0  0  0  0  0  0
  1  2  1  0  0  0  0
  1 31  1  0  0  0  0
  2  3  1  0  0  0  0
  2 32  1  0  0  0  0
  2 33  1  0  0  0  0
  3  4  1  0  0  0  0
  3 26  1  0  0  0  0
  3 34  1  0  0  0  0
  4  5  1  0  0  0  0
  4 35  1  0  0  0  0
  4 36  1  0  0  0  0
  5 25  1  0  0  0  0
  5  6  1  0  0  0  0
  6  7  2  0  0  0  0
  6 37  1  0  0  0  0
  7  8  1  0  0  0  0
  8 25  2  0  0  0  0
  8  9  1  0  0  0  0
  9 10  1  0  0  0  0
  9 22  2  0  0  0  0
 10 15  1  0  0  0  0
 10 11  1  0  0  0  0
 11 12  1  0  0  0  0
 11 38  1  0  0  0  0
 11 39  1  0  0  0  0
 12 13  1  0  0  0  0
 12 40  1  0  0  0  0
 12 41  1  0  0  0  0
 13 14  1  0  0  0  0
 13 42  1  0  0  0  0
 13 43  1  0  0  0  0
 14 15  1  0  0  0  0
 14 44  1  0  0  0  0
 14 45  1  0  0  0  0
 15 16  1  0  0  0  0
 15 46  1  0  0  0  0
 16 20  1  0  0  0  0
 16 17  1  0  0  0  0
 16 47  1  0  0  0  0
 17 18  1  0  0  0  0
 17 48  1  0  0  0  0
 17 49  1  0  0  0  0
 18 19  1  0  0  0  0
 18 50  1  0  0  0  0
 18 51  1  0  0  0  0
 19 20  1  0  0  0  0
 19 52  1  0  0  0  0
 19 53  1  0  0  0  0
 20 21  1  0  0  0  0
 20 54  1  0  0  0  0
 21 55  1  0  0  0  0
 22 23  1  0  0  0  0
 23 24  2  0  0  0  0
 23 56  1  0  0  0  0
 24 25  1  0  0  0  0
 26 30  1  0  0  0  0
 26 27  1  0  0  0  0
 26 57  1  0  0  0  0
 27 28  1  0  0  0  0
 27 58  1  0  0  0  0
 27 59  1  0  0  0  0
 28 29  1  0  0  0  0
 28 60  1  0  0  0  0
 28 61  1  0  0  0  0
 29 30  1  0  0  0  0
 30 62  1  0  0  0  0
 30 63  1  0  0  0  0
M  END
> <s_m_source_file>
AV-unprocessed.smi

> <i_m_source_file_index>
148

> <i_lp_mmshare_version>
43012

> <i_f3d_flags>
0

> <s_epik_input>
W0NIMl0xT1tDSDJdW0NIMl1bQ0BIXTFbQ0BIXShbQ0gyXVtPSF0pW0NIMl1uKFtjSF1uMiljKGMyMyluW2NIXW5jM040W0NIMl1bQ0gyXVtDSDJdW0NIMl1bQ0BIXTRbQ0BASF01W0NIMl1bQ0gyXVtDSDJdW0NASF01W09IXQ==

> <s_epik_cmdline>
J2VwaWtfcHl0aG9uJywgJy1waCcsICc3LjAnLCAnLXRuJywgJzgnLCAnLW1hJywgJzIwMCcsICctbWV0YWxfYmluZGluZycsICctaW1hZScsICc8aW5maWxlLm1hZT4nLCAnLW9tYWUnLCAnPG91dGZpbGUubWFlPic=

> <r_lp_tautomer_probability>
1

> <r_epik_Ionization_Penalty>
0.00556303

> <r_epik_Ionization_Penalty_Charging>
0

> <r_epik_Ionization_Penalty_Neutral>
0.00556303

> <r_epik_State_Penalty>
0.00401767

> <r_epik_Charging_Adjusted_Penalty>
0.00401767

> <i_epik_Tot_Q>
0

> <i_epik_Tot_abs_Q>
0

> <r_epik_Metal_State_Penalty>
-0

> <b_epik_Metal_Only>
0

> <s_lp_Force_Field>
OPLS_2005

> <r_lp_Energy>
71.2164

> <b_lp_Chiralities_Consistent>
1

> <s_lp_Variant>
AV-unprocessed.smi:148-9

> <Gold.Version>
5.8.1

> <Gold.Id.Protein>
6NUR|6NUR_protein|mol2

> <Gold.PLP.Fitness>
50.5849

> <Gold.PLP.PLP>
-43.5542

> <Gold.PLP.part.hbond>
-2.6290

> <Gold.PLP.part.metal>
0.0000

> <Gold.PLP.part.buried>
-6.6506

> <Gold.PLP.part.nonpolar>
-33.3196

> <Gold.PLP.part.repulsive>
0.0000

> <Gold.PLP.ligand.clash>
0.0000

> <Gold.PLP.ligand.torsion>
0.7025

> <Gold.PLP.Chemscore.Hbond>
2.6738

> <Gold.PLP.Chemscore.CHOScore>
0.0000

> <Gold.PLP.Chemscore.Metal>
0.0000

> <Gold.Chemscore.Hbonds>
donor molecule, donor type, donor heavy atom, donor atom, acceptor molecule, acceptor atom, score
      P1  H  6896  6907       L1     7  1.00
      P1  H  6896  6909       L1    21  0.54

> <Gold.PLP.Chemscore.Internal.Correction>
0.4146

> <Gold.Rescore>
     Score         DG    S(hbond)    S(metal)    S(lipo)     H(rot)  DE(clash)    DE(int)     intcor
     16.07     -16.65       2.47        0.00      97.60       3.32       0.01       0.57       ----

> <Gold.Chemscore.Fitness>
16.0699

> <Gold.Chemscore.DG>
-16.6521

> <Gold.Chemscore.ZeroCoef>
-5.4800

> <Gold.Chemscore.Hbond>
2.4709

> <Gold.Chemscore.Metal>
0.0000

> <Gold.Chemscore.Lipo>
97.6003

> <Gold.Chemscore.Internal_Hbond>
0.0000

> <Gold.Chemscore.DEClash>
0.0111

> <Gold.Chemscore.DEInternal>
0.5711

> <Gold.Chemscore.Rot>
3.3203

> <Gold.Chemscore.Internal.Correction>
   9.000000E+99

> <Gold.Chemscore.Hbonds>
donor molecule, donor type, donor heavy atom, donor atom, acceptor molecule, acceptor atom, score
      P1  H  6896  6907       L1     7  0.91
      P1  H  6896  6909       L1    21  0.51

> <Gold.Chemscore.Hbond.Weighted>
-8.2529

> <Gold.Chemscore.Metal.Weighted>
-0.0000

> <Gold.Chemscore.Lipo.Weighted>
-11.4192

> <Gold.Chemscore.Internal_Hbond.Weighted>
0.0000

> <Gold.Chemscore.DEClash.Weighted>
0.0111

> <Gold.Chemscore.DEInternal.Weighted>
0.5711

> <Gold.Chemscore.Rot.Weighted>
8.5000

> <Gold.Chemscore.Internal.Correction.Weighted>
   9.000000E+99

> <Gold.Protein.RotatedTorsions>
[ 6907 6896 6895 6894 ] final  -23.27 input  -60.11 | X-H torsion
[ 7974 7965 7964 7962 ] final   37.49 input  175.53 | X-H torsion
[ 8008 7997 7996 7995 ] final   46.24 input   59.86 | X-H torsion
[ 10167 10162 10161 10158 ] final -152.05 input  -65.29 | X-H torsion
[ 10718 10713 10712 10709 ] final -117.68 input   66.30 | X-H torsion
[ 10763 10752 10751 10750 ] final  -22.49 input  -60.55 | X-H torsion
[ 11005 11000 10999 10996 ] final  -76.37 input  -57.11 | X-H torsion

> <Gold.Protein.ActiveResidues>
 VAL166  LYS551  ARG553  GLY616  TRP617  ASP618  TYR619  PRO620  LYS621  CYS622 
 ASP623  PHE694  ASN695  SER759  ASP760  ASP761  ALA762  ILE779  LEU786  VAL792 
 PHE793  MET794  SER795  GLU796  ALA797  LYS798  CYS799  TRP800  GLU811  SER814 

> <Gold.Protein.RotatedAtoms>
  151.2064  135.0463  159.8893 H   0  0  0  0  0  0  0  0  0  0  0  0  # atno 6907 bound_to 6896
  152.5428  134.0793  159.8238 H   0  0  0  0  0  0  0  0  0  0  0  0  # atno 6908 bound_to 6896
  151.0940  133.5246  159.2645 H   0  0  0  0  0  0  0  0  0  0  0  0  # atno 6909 bound_to 6896
  146.1134  139.5888  142.9337 H   0  0  0  0  0  0  0  0  0  0  0  0  # atno 7974 bound_to 7965
  155.3492  140.3412  155.4239 H   0  0  0  0  0  0  0  0  0  0  0  0  # atno 8008 bound_to 7997
  156.1773  140.1652  156.8375 H   0  0  0  0  0  0  0  0  0  0  0  0  # atno 8009 bound_to 7997
  154.5295  140.0748  156.8303 H   0  0  0  0  0  0  0  0  0  0  0  0  # atno 8010 bound_to 7997
  139.7214  143.8951  152.2504 H   0  0  0  0  0  0  0  0  0  0  0  0  # atno 10167 bound_to 10162
  156.1051  130.6204  150.9195 H   0  0  0  0  0  0  0  0  0  0  0  0  # atno 10718 bound_to 10713
  153.6528  135.6980  153.5203 H   0  0  0  0  0  0  0  0  0  0  0  0  # atno 10763 bound_to 10752
  153.2693  135.4220  155.0971 H   0  0  0  0  0  0  0  0  0  0  0  0  # atno 10764 bound_to 10752
  154.8472  135.3574  154.6072 H   0  0  0  0  0  0  0  0  0  0  0  0  # atno 10765 bound_to 10752
  141.1653  133.6981  156.7659 H   0  0  0  0  0  0  0  0  0  0  0  0  # atno 11005 bound_to 11000
  145.5617  141.0403  143.2222 LP  0  0  0  0  0  0  0  0  0  0  0  0  # atno 17320 bound_to 7965
  144.7531  139.7143  143.7265 LP  0  0  0  0  0  0  0  0  0  0  0  0  # atno 17321 bound_to 7965
  139.8848  144.6998  150.8837 LP  0  0  0  0  0  0  0  0  0  0  0  0  # atno 17342 bound_to 10162
  140.7754  143.3633  151.1787 LP  0  0  0  0  0  0  0  0  0  0  0  0  # atno 17343 bound_to 10162
  157.6227  131.0928  150.8592 LP  0  0  0  0  0  0  0  0  0  0  0  0  # atno 17370 bound_to 10713
  156.8713  130.5147  149.5296 LP  0  0  0  0  0  0  0  0  0  0  0  0  # atno 17371 bound_to 10713
  140.2500  134.8548  157.3658 LP  0  0  0  0  0  0  0  0  0  0  0  0  # atno 17394 bound_to 11000
  140.1712  134.4606  155.7830 LP  0  0  0  0  0  0  0  0  0  0  0  0  # atno 17395 bound_to 11000

$$$$
