AV-unprocessed.smi:2212|AV-procd|sdf|8955|dock4
  -GOLD-   2272012173D 1   1.00000     0.00000
 Structure written by MMmdl.
 30 31  0  0  0  0  0  0  0  0  2 V2000
  152.8098  142.9287  162.1987 C   0  0  0  0  0  0  0  0  0  0  0  0
  151.8291  143.2048  161.2074 O   0  0  0  0  0  0  0  0  0  0  0  0
  152.1597  142.8144  159.8741 C   0  0  0  0  0  0  0  0  0  0  0  0
  152.4923  141.3186  159.7743 C   0  0  0  0  0  0  0  0  0  0  0  0
  152.7869  140.9419  158.3977 N   0  0  0  0  0  0  0  0  0  0  0  0
  151.9609  140.2631  157.5908 C   0  0  0  0  0  0  0  0  0  0  0  0
  150.8541  139.9096  158.0045 O   0  0  0  0  0  0  0  0  0  0  0  0
  152.4670  140.0352  156.3578 N   0  5  0  0  0  0  0  0  0  0  0  0
  151.8221  139.2168  155.5108 C   0  0  0  0  0  0  0  0  0  0  0  0
  151.0587  139.5866  154.4808 N   0  0  0  0  0  0  0  0  0  0  0  0
  150.6143  138.4104  153.8969 C   0  0  0  0  0  0  0  0  0  0  0  0
  151.1411  137.3651  154.6051 C   0  0  0  0  0  0  0  0  0  0  0  0
  151.9079  137.8610  155.6230 O   0  0  0  0  0  0  0  0  0  0  0  0
  151.0744  143.3712  158.9332 C   0  0  0  0  0  0  0  0  0  0  0  0
  152.1857  143.8645  158.0050 C   0  0  0  0  0  0  0  0  0  0  0  0
  153.1164  143.8305  159.2183 C   0  0  0  0  0  0  0  0  0  0  0  0
  152.4987  143.3748  163.1431 H   0  0  0  0  0  0  0  0  0  0  0  0
  153.7820  143.3480  161.9385 H   0  0  0  0  0  0  0  0  0  0  0  0
  152.9225  141.8580  162.3685 H   0  0  0  0  0  0  0  0  0  0  0  0
  153.3606  141.0852  160.3925 H   0  0  0  0  0  0  0  0  0  0  0  0
  151.6777  140.7037  160.1574 H   0  0  0  0  0  0  0  0  0  0  0  0
  153.6838  141.2209  158.0275 H   0  0  0  0  0  0  0  0  0  0  0  0
  149.9665  138.4108  153.0330 H   0  0  0  0  0  0  0  0  0  0  0  0
  151.0754  136.2907  154.5230 H   0  0  0  0  0  0  0  0  0  0  0  0
  150.4185  142.6203  158.4915 H   0  0  0  0  0  0  0  0  0  0  0  0
  150.5025  144.1910  159.3718 H   0  0  0  0  0  0  0  0  0  0  0  0
  152.4558  143.1338  157.2409 H   0  0  0  0  0  0  0  0  0  0  0  0
  152.0218  144.8556  157.5814 H   0  0  0  0  0  0  0  0  0  0  0  0
  153.1540  144.7889  159.7392 H   0  0  0  0  0  0  0  0  0  0  0  0
  154.1162  143.4487  159.0096 H   0  0  0  0  0  0  0  0  0  0  0  0
  1  2  1  0  0  0  0
  1 17  1  0  0  0  0
  1 18  1  0  0  0  0
  1 19  1  0  0  0  0
  2  3  1  0  0  0  0
  3 16  1  0  0  0  0
  3  4  1  0  0  0  0
  3 14  1  0  0  0  0
  4  5  1  0  0  0  0
  4 20  1  0  0  0  0
  4 21  1  0  0  0  0
  5 22  1  0  0  0  0
  5  6  1  0  0  0  0
  6  8  1  0  0  0  0
  6  7  2  0  0  0  0
  8  9  1  0  0  0  0
  9 13  1  0  0  0  0
  9 10  2  0  0  0  0
 10 11  1  0  0  0  0
 11 23  1  0  0  0  0
 11 12  2  0  0  0  0
 12 24  1  0  0  0  0
 12 13  1  0  0  0  0
 14 15  1  0  0  0  0
 14 25  1  0  0  0  0
 14 26  1  0  0  0  0
 15 16  1  0  0  0  0
 15 27  1  0  0  0  0
 15 28  1  0  0  0  0
 16 29  1  0  0  0  0
 16 30  1  0  0  0  0
M  CHG  1   8  -1
M  END
> <s_m_source_file>
AV-unprocessed.smi

> <i_m_source_file_index>
2212

> <i_lp_mmshare_version>
43012

> <i_f3d_flags>
0

> <s_epik_input>
W0NIMl0xW0NIMl1bQ0gyXUMxKE9bQ0gzXSlbQ0gyXVtOSF1DKD1PKVtOSF1jMm5bY0hdW2NIXW8y

> <s_epik_cmdline>
J2VwaWtfcHl0aG9uJywgJy1waCcsICc3LjAnLCAnLXRuJywgJzgnLCAnLW1hJywgJzIwMCcsICctbWV0YWxfYmluZGluZycsICctaW1hZScsICc8aW5maWxlLm1hZT4nLCAnLW9tYWUnLCAnPG91dGZpbGUubWFlPic=

> <r_lp_tautomer_probability>
0.107061

> <r_epik_Ionization_Penalty>
10.8857

> <r_epik_Ionization_Penalty_Charging>
7.67908

> <r_epik_Ionization_Penalty_Neutral>
3.20665

> <r_epik_State_Penalty>
5.80296

> <r_epik_Charging_Adjusted_Penalty>
13.482

> <i_epik_Tot_Q>
-1

> <i_epik_Tot_abs_Q>
1

> <r_epik_Metal_State_Penalty>
1.73217

> <b_epik_Metal_Only>
1

> <s_lp_Force_Field>
OPLS_2005

> <r_lp_Energy>
11.9556

> <b_lp_Chiralities_Consistent>
1

> <s_lp_Variant>
AV-unprocessed.smi:2212-5

> <Gold.Version>
5.8.1

> <Gold.Id.Protein>
6NUR|6NUR_protein|mol2

> <Gold.PLP.Fitness>
46.8259

> <Gold.PLP.PLP>
-34.2259

> <Gold.PLP.part.hbond>
-2.5282

> <Gold.PLP.part.metal>
0.0000

> <Gold.PLP.part.buried>
-3.4222

> <Gold.PLP.part.nonpolar>
-26.7924

> <Gold.PLP.part.repulsive>
0.3465

> <Gold.PLP.ligand.clash>
0.0000

> <Gold.PLP.ligand.torsion>
0.9778

> <Gold.PLP.Chemscore.Hbond>
3.0000

> <Gold.PLP.Chemscore.CHOScore>
1.7609

> <Gold.PLP.Chemscore.Metal>
0.0000

> <Gold.Chemscore.Hbonds>
donor molecule, donor type, donor heavy atom, donor atom, acceptor molecule, acceptor atom, score
      P1  H  7989  7998       L1    10  1.00
      P1  H  7997  8009       L1     8  2.00
      L1  C    11    23       P1  7948  0.70
      L1  C    11    23       P1  7957  1.00

> <Gold.PLP.Chemscore.Internal.Correction>
0.2729

> <Gold.Rescore>
     Score         DG    S(hbond)    S(metal)    S(lipo)     H(rot)  DE(clash)    DE(int)     intcor
     15.49     -17.48       1.88        0.00      84.18       1.61       0.00       1.98       ----

> <Gold.Chemscore.Fitness>
15.4923

> <Gold.Chemscore.DG>
-17.4751

> <Gold.Chemscore.ZeroCoef>
-5.4800

> <Gold.Chemscore.Hbond>
1.8798

> <Gold.Chemscore.Metal>
0.0000

> <Gold.Chemscore.Lipo>
84.1763

> <Gold.Chemscore.Internal_Hbond>
0.0000

> <Gold.Chemscore.DEClash>
0.0015

> <Gold.Chemscore.DEInternal>
1.9814

> <Gold.Chemscore.Rot>
1.6141

> <Gold.Chemscore.Internal.Correction>
   9.000000E+99

> <Gold.Chemscore.Hbonds>
donor molecule, donor type, donor heavy atom, donor atom, acceptor molecule, acceptor atom, score
      P1  H  7989  7998       L1    10  0.91
      P1  H  7997  8009       L1     8  0.80

> <Gold.Chemscore.Hbond.Weighted>
-6.2785

> <Gold.Chemscore.Metal.Weighted>
-0.0000

> <Gold.Chemscore.Lipo.Weighted>
-9.8486

> <Gold.Chemscore.Internal_Hbond.Weighted>
0.0000

> <Gold.Chemscore.DEClash.Weighted>
0.0015

> <Gold.Chemscore.DEInternal.Weighted>
1.9814

> <Gold.Chemscore.Rot.Weighted>
4.1320

> <Gold.Chemscore.Internal.Correction.Weighted>
   9.000000E+99

> <Gold.Protein.RotatedTorsions>
[ 6907 6896 6895 6894 ] final   -9.41 input  -60.11 | X-H torsion
[ 7974 7965 7964 7962 ] final  -11.99 input  175.53 | X-H torsion
[ 8008 7997 7996 7995 ] final -162.09 input   59.86 | X-H torsion
[ 10167 10162 10161 10158 ] final  143.87 input  -65.29 | X-H torsion
[ 10718 10713 10712 10709 ] final -112.51 input   66.30 | X-H torsion
[ 10763 10752 10751 10750 ] final   16.75 input  -60.55 | X-H torsion
[ 11005 11000 10999 10996 ] final   -0.05 input  -57.11 | X-H torsion

> <Gold.Protein.ActiveResidues>
 VAL166  LYS551  ARG553  GLY616  TRP617  ASP618  TYR619  PRO620  LYS621  CYS622 
 ASP623  PHE694  ASN695  SER759  ASP760  ASP761  ALA762  ILE779  LEU786  VAL792 
 PHE793  MET794  SER795  GLU796  ALA797  LYS798  CYS799  TRP800  GLU811  SER814 

> <Gold.Protein.RotatedAtoms>
  151.4182  135.0994  159.9605 H   0  0  0  0  0  0  0  0  0  0  0  0  # atno 6907 bound_to 6896
  152.4997  133.8733  159.7320 H   0  0  0  0  0  0  0  0  0  0  0  0  # atno 6908 bound_to 6896
  150.9243  133.6786  159.2853 H   0  0  0  0  0  0  0  0  0  0  0  0  # atno 6909 bound_to 6896
  146.2168  140.2992  142.8374 H   0  0  0  0  0  0  0  0  0  0  0  0  # atno 7974 bound_to 7965
  155.8018  140.0893  157.1953 H   0  0  0  0  0  0  0  0  0  0  0  0  # atno 8008 bound_to 7997
  154.3982  140.1471  156.3342 H   0  0  0  0  0  0  0  0  0  0  0  0  # atno 8009 bound_to 7997
  155.8455  140.3437  155.5662 H   0  0  0  0  0  0  0  0  0  0  0  0  # atno 8010 bound_to 7997
  139.4960  144.6011  151.6479 H   0  0  0  0  0  0  0  0  0  0  0  0  # atno 10167 bound_to 10162
  156.0710  130.5924  150.8518 H   0  0  0  0  0  0  0  0  0  0  0  0  # atno 10718 bound_to 10713
  153.1402  135.6758  153.9039 H   0  0  0  0  0  0  0  0  0  0  0  0  # atno 10763 bound_to 10752
  153.8498  135.3094  155.3433 H   0  0  0  0  0  0  0  0  0  0  0  0  # atno 10764 bound_to 10752
  154.7781  135.4903  153.9870 H   0  0  0  0  0  0  0  0  0  0  0  0  # atno 10765 bound_to 10752
  140.6319  133.9567  155.8279 H   0  0  0  0  0  0  0  0  0  0  0  0  # atno 11005 bound_to 11000
  144.9070  140.7711  143.5831 LP  0  0  0  0  0  0  0  0  0  0  0  0  # atno 17320 bound_to 7965
  145.2921  139.1880  143.4735 LP  0  0  0  0  0  0  0  0  0  0  0  0  # atno 17321 bound_to 7965
  140.5661  144.0187  150.6193 LP  0  0  0  0  0  0  0  0  0  0  0  0  # atno 17342 bound_to 10162
  140.3289  143.3090  152.0707 LP  0  0  0  0  0  0  0  0  0  0  0  0  # atno 17343 bound_to 10162
  157.5780  131.0946  150.9315 LP  0  0  0  0  0  0  0  0  0  0  0  0  # atno 17370 bound_to 10713
  156.9517  130.5422  149.5282 LP  0  0  0  0  0  0  0  0  0  0  0  0  # atno 17371 bound_to 10713
  141.0669  134.0264  157.3581 LP  0  0  0  0  0  0  0  0  0  0  0  0  # atno 17394 bound_to 11000
  139.9112  135.0190  156.7701 LP  0  0  0  0  0  0  0  0  0  0  0  0  # atno 17395 bound_to 11000

$$$$
