AV-unprocessed.smi:1368|AV-procd|sdf|5578|dock7
  -GOLD-   22720 5173D 1   1.00000     0.00000
 Structure written by MMmdl.
 47 49  0  0  0  0  0  0  0  0  2 V2000
  151.5645  143.7191  158.0562 C   0  0  0  0  0  0  0  0  0  0  0  0
  151.0844  142.3974  157.4653 C   0  0  0  0  0  0  0  0  0  0  0  0
  151.4506  141.3385  157.9737 O   0  0  0  0  0  0  0  0  0  0  0  0
  150.2866  142.4991  156.3864 N   0  0  0  0  0  0  0  0  0  0  0  0
  149.6901  141.4573  155.6255 C   0  0  0  0  0  0  0  0  0  0  0  0
  148.5035  141.7605  154.9288 C   0  0  0  0  0  0  0  0  0  0  0  0
  147.8509  140.7730  154.1667 C   0  0  0  0  0  0  0  0  0  0  0  0
  148.3612  139.4616  154.0947 C   0  0  0  0  0  0  0  0  0  0  0  0
  147.6607  138.5578  153.3248 O   0  0  0  0  0  0  0  0  0  0  0  0
  146.2970  138.8360  153.0351 C   0  0  0  0  0  0  0  0  0  0  0  0
  145.7577  137.7497  152.0915 C   0  0  1  0  0  0  0  0  0  0  0  0
  146.5148  137.7797  150.8976 O   0  0  0  0  0  0  0  0  0  0  0  0
  145.8546  136.3457  152.7215 C   0  0  0  0  0  0  0  0  0  0  0  0
  144.7846  135.4389  152.2740 N   0  0  0  0  0  0  0  0  0  0  0  0
  143.4421  135.4888  152.5073 C   0  0  0  0  0  0  0  0  0  0  0  0
  142.7133  136.5203  153.3013 C   0  0  0  0  0  0  0  0  0  0  0  0
  142.8820  134.4154  151.8819 N   0  3  0  0  0  0  0  0  0  0  0  0
  143.8739  133.6724  151.2405 C   0  0  0  0  0  0  0  0  0  0  0  0
  143.7919  132.5079  150.4831 C   0  0  0  0  0  0  0  0  0  0  0  0
  145.0021  132.0058  149.9614 C   0  0  0  0  0  0  0  0  0  0  0  0
  146.2298  132.6571  150.1988 C   0  0  0  0  0  0  0  0  0  0  0  0
  146.3006  133.8359  150.9702 C   0  0  0  0  0  0  0  0  0  0  0  0
  145.0998  134.3254  151.4848 C   0  0  0  0  0  0  0  0  0  0  0  0
  149.5438  139.1514  154.8114 C   0  0  0  0  0  0  0  0  0  0  0  0
  150.1993  140.1384  155.5728 C   0  0  0  0  0  0  0  0  0  0  0  0
  151.9273  144.3838  157.2715 H   0  0  0  0  0  0  0  0  0  0  0  0
  152.3777  143.5546  158.7642 H   0  0  0  0  0  0  0  0  0  0  0  0
  150.7489  144.2166  158.5816 H   0  0  0  0  0  0  0  0  0  0  0  0
  150.1470  143.4322  156.0271 H   0  0  0  0  0  0  0  0  0  0  0  0
  148.0906  142.7581  154.9690 H   0  0  0  0  0  0  0  0  0  0  0  0
  146.9469  141.0254  153.6319 H   0  0  0  0  0  0  0  0  0  0  0  0
  145.6932  138.8939  153.9428 H   0  0  0  0  0  0  0  0  0  0  0  0
  146.2444  139.8053  152.5364 H   0  0  0  0  0  0  0  0  0  0  0  0
  144.7144  137.9588  151.8519 H   0  0  0  0  0  0  0  0  0  0  0  0
  145.9429  138.0337  150.1888 H   0  0  0  0  0  0  0  0  0  0  0  0
  146.8239  135.8882  152.5227 H   0  0  0  0  0  0  0  0  0  0  0  0
  145.7758  136.4211  153.8066 H   0  0  0  0  0  0  0  0  0  0  0  0
  141.6386  136.3391  153.2705 H   0  0  0  0  0  0  0  0  0  0  0  0
  142.9083  137.5140  152.8983 H   0  0  0  0  0  0  0  0  0  0  0  0
  143.0397  136.4945  154.3410 H   0  0  0  0  0  0  0  0  0  0  0  0
  142.8521  132.0084  150.2987 H   0  0  0  0  0  0  0  0  0  0  0  0
  144.9880  131.1044  149.3660 H   0  0  0  0  0  0  0  0  0  0  0  0
  147.1367  132.2451  149.7800 H   0  0  0  0  0  0  0  0  0  0  0  0
  147.2462  134.3289  151.1392 H   0  0  0  0  0  0  0  0  0  0  0  0
  149.9692  138.1596  154.7987 H   0  0  0  0  0  0  0  0  0  0  0  0
  151.0852  139.8560  156.1203 H   0  0  0  0  0  0  0  0  0  0  0  0
  141.8917  134.2081  151.8940 H   0  0  0  0  0  0  0  0  0  0  0  0
  1  2  1  0  0  0  0
  1 26  1  0  0  0  0
  1 27  1  0  0  0  0
  1 28  1  0  0  0  0
  2  3  2  0  0  0  0
  2  4  1  0  0  0  0
  4  5  1  0  0  0  0
  4 29  1  0  0  0  0
  5 25  1  0  0  0  0
  5  6  2  0  0  0  0
  6  7  1  0  0  0  0
  6 30  1  0  0  0  0
  7  8  2  0  0  0  0
  7 31  1  0  0  0  0
  8  9  1  0  0  0  0
  8 24  1  0  0  0  0
  9 10  1  0  0  0  0
 10 11  1  0  0  0  0
 10 32  1  0  0  0  0
 10 33  1  0  0  0  0
 11 12  1  0  0  0  0
 11 13  1  0  0  0  0
 11 34  1  0  0  0  0
 12 35  1  0  0  0  0
 13 14  1  0  0  0  0
 13 36  1  0  0  0  0
 13 37  1  0  0  0  0
 14 23  1  0  0  0  0
 14 15  1  0  0  0  0
 15 16  1  0  0  0  0
 15 17  2  0  0  0  0
 16 38  1  0  0  0  0
 16 39  1  0  0  0  0
 16 40  1  0  0  0  0
 17 18  1  0  0  0  0
 17 47  1  0  0  0  0
 18 23  2  0  0  0  0
 18 19  1  0  0  0  0
 19 20  2  0  0  0  0
 19 41  1  0  0  0  0
 20 21  1  0  0  0  0
 20 42  1  0  0  0  0
 21 22  2  0  0  0  0
 21 43  1  0  0  0  0
 22 23  1  0  0  0  0
 22 44  1  0  0  0  0
 24 25  2  0  0  0  0
 24 45  1  0  0  0  0
 25 46  1  0  0  0  0
M  CHG  1  17   1
M  END
> <s_m_source_file>
AV-unprocessed.smi

> <i_m_source_file_index>
1368

> <i_lp_mmshare_version>
43012

> <i_f3d_flags>
0

> <s_epik_input>
W0NIM11DKD1PKVtOSF1jMVtjSF1bY0hdYyhbY0hdW2NIXTEpT1tDSDJdW0NASF0oW09IXSlbQ0gyXW4oYyhuMilbQ0gzXSljKGMyMylbY0hdW2NIXVtjSF1bY0hdMw==

> <s_epik_cmdline>
J2VwaWtfcHl0aG9uJywgJy1waCcsICc3LjAnLCAnLXRuJywgJzgnLCAnLW1hJywgJzIwMCcsICctbWV0YWxfYmluZGluZycsICctaW1hZScsICc8aW5maWxlLm1hZT4nLCAnLW9tYWUnLCAnPG91dGZpbGUubWFlPic=

> <r_lp_tautomer_probability>
1

> <r_epik_Ionization_Penalty>
1.00673

> <r_epik_Ionization_Penalty_Charging>
1.00673

> <r_epik_Ionization_Penalty_Neutral>
2.60899e-06

> <r_epik_State_Penalty>
1.05579

> <r_epik_Charging_Adjusted_Penalty>
2.06252

> <i_epik_Tot_Q>
1

> <i_epik_Tot_abs_Q>
1

> <r_epik_Metal_State_Penalty>
1.15682

> <b_epik_Metal_Only>
0

> <s_lp_Force_Field>
OPLS_2005

> <r_lp_Energy>
24.3516

> <b_lp_Chiralities_Consistent>
1

> <s_lp_Variant>
AV-unprocessed.smi:1368-4

> <Gold.Version>
5.8.1

> <Gold.Id.Protein>
6NUR|6NUR_protein|mol2

> <Gold.PLP.Fitness>
54.5909

> <Gold.PLP.PLP>
-48.6622

> <Gold.PLP.part.hbond>
-4.6071

> <Gold.PLP.part.metal>
0.0000

> <Gold.PLP.part.buried>
-4.2141

> <Gold.PLP.part.nonpolar>
-42.4307

> <Gold.PLP.part.repulsive>
1.2012

> <Gold.PLP.ligand.clash>
0.7621

> <Gold.PLP.ligand.torsion>
0.8723

> <Gold.PLP.Chemscore.Hbond>
2.7520

> <Gold.PLP.Chemscore.CHOScore>
0.0000

> <Gold.PLP.Chemscore.Metal>
0.0000

> <Gold.Chemscore.Hbonds>
donor molecule, donor type, donor heavy atom, donor atom, acceptor molecule, acceptor atom, score
      L1  H     4    29       P1  8028  0.91
      L1  H    12    35       P1 10171  0.57
      P1  H  7954  7966       L1    12  0.80

> <Gold.PLP.Chemscore.Internal.Correction>
0.1794

> <Gold.Rescore>
     Score         DG    S(hbond)    S(metal)    S(lipo)     H(rot)  DE(clash)    DE(int)     intcor
     17.94     -20.96       2.35        0.00     119.39       2.47       1.23       1.80       ----

> <Gold.Chemscore.Fitness>
17.9366

> <Gold.Chemscore.DG>
-20.9616

> <Gold.Chemscore.ZeroCoef>
-5.4800

> <Gold.Chemscore.Hbond>
2.3472

> <Gold.Chemscore.Metal>
0.0000

> <Gold.Chemscore.Lipo>
119.3946

> <Gold.Chemscore.Internal_Hbond>
0.0000

> <Gold.Chemscore.DEClash>
1.2272

> <Gold.Chemscore.DEInternal>
1.7978

> <Gold.Chemscore.Rot>
2.4715

> <Gold.Chemscore.Internal.Correction>
   9.000000E+99

> <Gold.Chemscore.Hbonds>
donor molecule, donor type, donor heavy atom, donor atom, acceptor molecule, acceptor atom, score
      L1  H     4    29       P1  8028  0.88
      L1  H    12    35       P1 10171  0.57
      P1  H  7954  7966       L1    12  0.12

> <Gold.Chemscore.Hbond.Weighted>
-7.8395

> <Gold.Chemscore.Metal.Weighted>
-0.0000

> <Gold.Chemscore.Lipo.Weighted>
-13.9692

> <Gold.Chemscore.Internal_Hbond.Weighted>
0.0000

> <Gold.Chemscore.DEClash.Weighted>
1.2272

> <Gold.Chemscore.DEInternal.Weighted>
1.7978

> <Gold.Chemscore.Rot.Weighted>
6.3271

> <Gold.Chemscore.Internal.Correction.Weighted>
   9.000000E+99

> <Gold.Protein.RotatedTorsions>
[ 6907 6896 6895 6894 ] final -127.83 input  -60.11 | X-H torsion
[ 7974 7965 7964 7962 ] final   57.32 input  175.53 | X-H torsion
[ 8008 7997 7996 7995 ] final  136.70 input   59.86 | X-H torsion
[ 10167 10162 10161 10158 ] final  163.12 input  -65.29 | X-H torsion
[ 10718 10713 10712 10709 ] final  129.10 input   66.30 | X-H torsion
[ 10763 10752 10751 10750 ] final -165.49 input  -60.55 | X-H torsion
[ 11005 11000 10999 10996 ] final  -25.99 input  -57.11 | X-H torsion

> <Gold.Protein.ActiveResidues>
 VAL166  LYS551  ARG553  GLY616  TRP617  ASP618  TYR619  PRO620  LYS621  CYS622 
 ASP623  PHE694  ASN695  SER759  ASP760  ASP761  ALA762  ILE779  LEU786  VAL792 
 PHE793  MET794  SER795  GLU796  ALA797  LYS798  CYS799  TRP800  GLU811  SER814 

> <Gold.Protein.RotatedAtoms>
  150.9115  133.6992  159.2853 H   0  0  0  0  0  0  0  0  0  0  0  0  # atno 6907 bound_to 6896
  151.4477  135.1025  159.9698 H   0  0  0  0  0  0  0  0  0  0  0  0  # atno 6908 bound_to 6896
  152.4932  133.8508  159.7256 H   0  0  0  0  0  0  0  0  0  0  0  0  # atno 6909 bound_to 6896
  145.9303  139.3802  143.0425 H   0  0  0  0  0  0  0  0  0  0  0  0  # atno 7974 bound_to 7965
  156.3003  140.2438  156.3789 H   0  0  0  0  0  0  0  0  0  0  0  0  # atno 8008 bound_to 7997
  154.8720  140.0416  157.1750 H   0  0  0  0  0  0  0  0  0  0  0  0  # atno 8009 bound_to 7997
  154.8786  140.2946  155.5442 H   0  0  0  0  0  0  0  0  0  0  0  0  # atno 8010 bound_to 7997
  139.4869  144.4369  151.9000 H   0  0  0  0  0  0  0  0  0  0  0  0  # atno 10167 bound_to 10162
  157.5184  131.1098  150.9189 H   0  0  0  0  0  0  0  0  0  0  0  0  # atno 10718 bound_to 10713
  154.6926  135.2973  154.9457 H   0  0  0  0  0  0  0  0  0  0  0  0  # atno 10763 bound_to 10752
  154.0415  135.6656  153.4794 H   0  0  0  0  0  0  0  0  0  0  0  0  # atno 10764 bound_to 10752
  153.0623  135.5108  154.8027 H   0  0  0  0  0  0  0  0  0  0  0  0  # atno 10765 bound_to 10752
  140.8989  133.7538  156.0517 H   0  0  0  0  0  0  0  0  0  0  0  0  # atno 11005 bound_to 11000
  145.8435  140.9568  143.0787 LP  0  0  0  0  0  0  0  0  0  0  0  0  # atno 17320 bound_to 7965
  144.6764  140.0315  143.7482 LP  0  0  0  0  0  0  0  0  0  0  0  0  # atno 17321 bound_to 7965
  140.3820  144.2725  150.5908 LP  0  0  0  0  0  0  0  0  0  0  0  0  # atno 17342 bound_to 10162
  140.5225  143.2262  151.8366 LP  0  0  0  0  0  0  0  0  0  0  0  0  # atno 17343 bound_to 10162
  156.9808  130.5526  149.5296 LP  0  0  0  0  0  0  0  0  0  0  0  0  # atno 17370 bound_to 10713
  156.0336  130.5426  150.8598 LP  0  0  0  0  0  0  0  0  0  0  0  0  # atno 17371 bound_to 10713
  140.8255  134.3239  157.5367 LP  0  0  0  0  0  0  0  0  0  0  0  0  # atno 17394 bound_to 11000
  139.8739  134.9333  156.3578 LP  0  0  0  0  0  0  0  0  0  0  0  0  # atno 17395 bound_to 11000

$$$$
