AV-unprocessed.smi:40|AV-procd|sdf|370|dock2
  -GOLD-   2262016213D 1   1.00000     0.00000
 Structure written by MMmdl.
 47 48  0  0  0  0  0  0  0  0  1 V2000
  152.9085  143.1784  162.7071 C   0  0  0  0  0  0  0  0  0  0  0  0
  153.2886  142.5866  161.3436 C   0  0  0  0  0  0  0  0  0  0  0  0
  152.3905  143.0620  160.1898 C   0  0  0  0  0  0  0  0  0  0  0  0
  152.4113  144.5861  159.9715 C   0  0  0  0  0  0  0  0  0  0  0  0
  151.6462  145.0207  158.7138 C   0  0  0  0  0  0  0  0  0  0  0  0
  150.4779  144.2293  158.5905 O   0  0  0  0  0  0  0  0  0  0  0  0
  150.4849  143.0992  157.8587 C   0  0  0  0  0  0  0  0  0  0  0  0
  151.4769  142.3943  157.6764 O   0  0  0  0  0  0  0  0  0  0  0  0
  149.1751  142.8563  157.2882 N   0  0  0  0  0  0  0  0  0  0  0  0
  148.8420  141.8092  156.5031 C   0  0  0  0  0  0  0  0  0  0  0  0
  149.7927  141.2668  155.7649 N   0  0  0  0  0  0  0  0  0  0  0  0
  149.5788  140.2269  154.8996 C   0  0  0  0  0  0  0  0  0  0  0  0
  150.4962  139.7844  154.2098 O   0  0  0  0  0  0  0  0  0  0  0  0
  148.2658  139.7045  154.8206 N   0  0  0  0  0  0  0  0  0  0  0  0
  147.9715  138.5804  153.8522 C   0  0  1  0  0  0  0  0  0  0  0  0
  147.3584  137.5382  154.5515 O   0  0  0  0  0  0  0  0  0  0  0  0
  146.2536  137.0464  153.8021 C   0  0  1  0  0  0  0  0  0  0  0  0
  145.2436  136.3225  154.7050 C   0  0  0  0  0  0  0  0  0  0  0  0
  145.7329  138.2676  153.0332 C   0  0  1  0  0  0  0  0  0  0  0  0
  144.8470  139.0322  153.8339 O   0  0  0  0  0  0  0  0  0  0  0  0
  147.0264  139.0095  152.7073 C   0  0  1  0  0  0  0  0  0  0  0  0
  146.8476  140.4071  152.5408 O   0  0  0  0  0  0  0  0  0  0  0  0
  147.2604  140.2477  155.6060 C   0  0  0  0  0  0  0  0  0  0  0  0
  147.4920  141.2783  156.4454 C   0  0  0  0  0  0  0  0  0  0  0  0
  146.4981  141.7820  157.1978 F   0  0  0  0  0  0  0  0  0  0  0  0
  148.9353  138.2216  153.4886 H   0  0  0  0  0  0  0  0  0  0  0  0
  146.6517  136.3321  153.0791 H   0  0  0  0  0  0  0  0  0  0  0  0
  145.1998  137.9755  152.1279 H   0  0  0  0  0  0  0  0  0  0  0  0
  147.4431  138.6047  151.7842 H   0  0  0  0  0  0  0  0  0  0  0  0
  153.5329  142.7594  163.4965 H   0  0  0  0  0  0  0  0  0  0  0  0
  151.8695  142.9600  162.9554 H   0  0  0  0  0  0  0  0  0  0  0  0
  153.0395  144.2600  162.7263 H   0  0  0  0  0  0  0  0  0  0  0  0
  154.3314  142.8133  161.1195 H   0  0  0  0  0  0  0  0  0  0  0  0
  153.2247  141.5000  161.4091 H   0  0  0  0  0  0  0  0  0  0  0  0
  152.7252  142.5674  159.2770 H   0  0  0  0  0  0  0  0  0  0  0  0
  151.3668  142.7252  160.3569 H   0  0  0  0  0  0  0  0  0  0  0  0
  151.9701  145.0859  160.8335 H   0  0  0  0  0  0  0  0  0  0  0  0
  153.4419  144.9369  159.9071 H   0  0  0  0  0  0  0  0  0  0  0  0
  151.3800  146.0768  158.7740 H   0  0  0  0  0  0  0  0  0  0  0  0
  152.2734  144.8878  157.8313 H   0  0  0  0  0  0  0  0  0  0  0  0
  148.4494  143.4899  157.5891 H   0  0  0  0  0  0  0  0  0  0  0  0
  144.3802  135.9826  154.1331 H   0  0  0  0  0  0  0  0  0  0  0  0
  144.8850  136.9676  155.5073 H   0  0  0  0  0  0  0  0  0  0  0  0
  145.6999  135.4481  155.1695 H   0  0  0  0  0  0  0  0  0  0  0  0
  144.3283  139.5819  153.2669 H   0  0  0  0  0  0  0  0  0  0  0  0
  145.9448  140.5671  152.3107 H   0  0  0  0  0  0  0  0  0  0  0  0
  146.2575  139.8508  155.5545 H   0  0  0  0  0  0  0  0  0  0  0  0
  1  2  1  0  0  0  0
  1 30  1  0  0  0  0
  1 31  1  0  0  0  0
  1 32  1  0  0  0  0
  2  3  1  0  0  0  0
  2 33  1  0  0  0  0
  2 34  1  0  0  0  0
  3  4  1  0  0  0  0
  3 35  1  0  0  0  0
  3 36  1  0  0  0  0
  4  5  1  0  0  0  0
  4 37  1  0  0  0  0
  4 38  1  0  0  0  0
  5  6  1  0  0  0  0
  5 39  1  0  0  0  0
  5 40  1  0  0  0  0
  6  7  1  0  0  0  0
  7  8  2  0  0  0  0
  7  9  1  0  0  0  0
  9 10  1  0  0  0  0
  9 41  1  0  0  0  0
 10 24  1  0  0  0  0
 10 11  2  0  0  0  0
 11 12  1  0  0  0  0
 12 13  2  0  0  0  0
 12 14  1  0  0  0  0
 14 15  1  0  0  0  0
 14 23  1  0  0  0  0
 15 26  1  0  0  0  0
 15 21  1  0  0  0  0
 15 16  1  0  0  0  0
 16 17  1  0  0  0  0
 17 27  1  0  0  0  0
 17 18  1  0  0  0  0
 17 19  1  0  0  0  0
 18 42  1  0  0  0  0
 18 43  1  0  0  0  0
 18 44  1  0  0  0  0
 19 28  1  0  0  0  0
 19 20  1  0  0  0  0
 19 21  1  0  0  0  0
 20 45  1  0  0  0  0
 21 29  1  0  0  0  0
 21 22  1  0  0  0  0
 22 46  1  0  0  0  0
 23 24  2  0  0  0  0
 23 47  1  0  0  0  0
 24 25  1  0  0  0  0
M  END
> <s_m_source_file>
AV-unprocessed.smi

> <i_m_source_file_index>
40

> <i_lp_mmshare_version>
43012

> <i_f3d_flags>
0

> <s_epik_input>
W0NIM11bQ0gyXVtDSDJdW0NIMl1bQ0gyXU9DKD1PKVtOSF1jMW5jKD1PKW4oW2NIXWMxRilbQ0BASF0yT1tDQEhdKFtDSDNdKVtDQEBIXShbT0hdKVtDQEhdMltPSF0=

> <s_epik_cmdline>
J2VwaWtfcHl0aG9uJywgJy1waCcsICc3LjAnLCAnLXRuJywgJzgnLCAnLW1hJywgJzIwMCcsICctbWV0YWxfYmluZGluZycsICctaW1hZScsICc8aW5maWxlLm1hZT4nLCAnLW9tYWUnLCAnPG91dGZpbGUubWFlPic=

> <r_lp_tautomer_probability>
1

> <r_epik_Ionization_Penalty>
2.29506e-06

> <r_epik_Ionization_Penalty_Charging>
8.26867e-09

> <r_epik_Ionization_Penalty_Neutral>
2.2868e-06

> <r_epik_State_Penalty>
-0

> <r_epik_Charging_Adjusted_Penalty>
8.26867e-09

> <i_epik_Tot_Q>
0

> <i_epik_Tot_abs_Q>
0

> <r_epik_Metal_State_Penalty>
-0

> <b_epik_Metal_Only>
0

> <s_epik_Chemistry_Notes>
This compound has an ester and may undergo hydrolysis at high or low pH. This compound contains an acetal/aminal-like group ( X-CH(R)-Y where X, Y are N, S, or O) that may be acid/base labile, releasing an aldehyde.

> <s_lp_Force_Field>
OPLS_2005

> <r_lp_Energy>
45.3247

> <b_lp_Chiralities_Consistent>
1

> <s_lp_Variant>
AV-unprocessed.smi:40-4

> <Gold.Version>
5.8.1

> <Gold.Id.Protein>
6NUR|6NUR_protein|mol2

> <Gold.PLP.Fitness>
44.9217

> <Gold.PLP.PLP>
-37.5658

> <Gold.PLP.part.hbond>
-4.0363

> <Gold.PLP.part.metal>
0.0000

> <Gold.PLP.part.buried>
-5.9942

> <Gold.PLP.part.nonpolar>
-29.3420

> <Gold.PLP.part.repulsive>
1.0323

> <Gold.PLP.ligand.clash>
0.0000

> <Gold.PLP.ligand.torsion>
0.9464

> <Gold.PLP.Chemscore.Hbond>
3.0000

> <Gold.PLP.Chemscore.CHOScore>
0.0000

> <Gold.PLP.Chemscore.Metal>
0.0000

> <Gold.Chemscore.Hbonds>
donor molecule, donor type, donor heavy atom, donor atom, acceptor molecule, acceptor atom, score
      L1  H    20    45       P1 10175  0.55
      L1  H    22    46       P1 10175  0.44
      P1  H  7989  7998       L1    13  1.00

> <Gold.PLP.Chemscore.Internal.Correction>
0.2487

> <Gold.Rescore>
     Score         DG    S(hbond)    S(metal)    S(lipo)     H(rot)  DE(clash)    DE(int)     intcor
     10.84     -14.61       2.89        0.00      76.39       3.70       1.21       2.57       ----

> <Gold.Chemscore.Fitness>
10.8354

> <Gold.Chemscore.DG>
-14.6130

> <Gold.Chemscore.ZeroCoef>
-5.4800

> <Gold.Chemscore.Hbond>
2.8912

> <Gold.Chemscore.Metal>
0.0000

> <Gold.Chemscore.Lipo>
76.3866

> <Gold.Chemscore.Internal_Hbond>
0.0000

> <Gold.Chemscore.DEClash>
1.2085

> <Gold.Chemscore.DEInternal>
2.5691

> <Gold.Chemscore.Rot>
3.6957

> <Gold.Chemscore.Internal.Correction>
   9.000000E+99

> <Gold.Chemscore.Hbonds>
donor molecule, donor type, donor heavy atom, donor atom, acceptor molecule, acceptor atom, score
      L1  H    20    45       P1 10175  0.56
      L1  H    22    46       P1 10175  0.13
      P1  H  7989  7998       L1    13  0.97

> <Gold.Chemscore.Hbond.Weighted>
-9.6567

> <Gold.Chemscore.Metal.Weighted>
-0.0000

> <Gold.Chemscore.Lipo.Weighted>
-8.9372

> <Gold.Chemscore.Internal_Hbond.Weighted>
0.0000

> <Gold.Chemscore.DEClash.Weighted>
1.2085

> <Gold.Chemscore.DEInternal.Weighted>
2.5691

> <Gold.Chemscore.Rot.Weighted>
9.4610

> <Gold.Chemscore.Internal.Correction.Weighted>
   9.000000E+99

> <Gold.Protein.RotatedTorsions>
[ 6907 6896 6895 6894 ] final  149.79 input  -60.11 | X-H torsion
[ 7974 7965 7964 7962 ] final  -28.32 input  175.53 | X-H torsion
[ 8008 7997 7996 7995 ] final  162.88 input   59.86 | X-H torsion
[ 10167 10162 10161 10158 ] final  152.80 input  -65.29 | X-H torsion
[ 10718 10713 10712 10709 ] final  -19.25 input   66.30 | X-H torsion
[ 10763 10752 10751 10750 ] final -158.71 input  -60.55 | X-H torsion
[ 11005 11000 10999 10996 ] final  157.15 input  -57.11 | X-H torsion

> <Gold.Protein.ActiveResidues>
 VAL166  LYS551  ARG553  GLY616  TRP617  ASP618  TYR619  PRO620  LYS621  CYS622 
 ASP623  PHE694  ASN695  SER759  ASP760  ASP761  ALA762  ILE779  LEU786  VAL792 
 PHE793  MET794  SER795  GLU796  ALA797  LYS798  CYS799  TRP800  GLU811  SER814 

> <Gold.Protein.RotatedAtoms>
  152.1233  133.4365  159.4685 H   0  0  0  0  0  0  0  0  0  0  0  0  # atno 6907 bound_to 6896
  150.6873  134.2509  159.4519 H   0  0  0  0  0  0  0  0  0  0  0  0  # atno 6908 bound_to 6896
  152.0387  134.9724  160.0624 H   0  0  0  0  0  0  0  0  0  0  0  0  # atno 6909 bound_to 6896
  146.1296  140.5268  142.8699 H   0  0  0  0  0  0  0  0  0  0  0  0  # atno 7974 bound_to 7965
  156.1998  140.1738  156.7922 H   0  0  0  0  0  0  0  0  0  0  0  0  # atno 8008 bound_to 7997
  154.5577  140.0705  156.8801 H   0  0  0  0  0  0  0  0  0  0  0  0  # atno 8009 bound_to 7997
  155.2907  140.3355  155.4255 H   0  0  0  0  0  0  0  0  0  0  0  0  # atno 8010 bound_to 7997
  139.4830  144.5328  151.7695 H   0  0  0  0  0  0  0  0  0  0  0  0  # atno 10167 bound_to 10162
  156.5482  130.4695  149.6465 H   0  0  0  0  0  0  0  0  0  0  0  0  # atno 10718 bound_to 10713
  154.7534  135.3098  154.8515 H   0  0  0  0  0  0  0  0  0  0  0  0  # atno 10763 bound_to 10752
  153.9295  135.6787  153.4750 H   0  0  0  0  0  0  0  0  0  0  0  0  # atno 10764 bound_to 10752
  153.1131  135.4857  154.8998 H   0  0  0  0  0  0  0  0  0  0  0  0  # atno 10765 bound_to 10752
  140.1743  134.8521  157.2727 H   0  0  0  0  0  0  0  0  0  0  0  0  # atno 11005 bound_to 11000
  144.7677  140.5567  143.6692 LP  0  0  0  0  0  0  0  0  0  0  0  0  # atno 17320 bound_to 7965
  145.5290  139.1475  143.3510 LP  0  0  0  0  0  0  0  0  0  0  0  0  # atno 17321 bound_to 7965
  140.4856  144.1386  150.5940 LP  0  0  0  0  0  0  0  0  0  0  0  0  # atno 17342 bound_to 10162
  140.4229  143.2603  151.9693 LP  0  0  0  0  0  0  0  0  0  0  0  0  # atno 17343 bound_to 10162
  156.2908  130.7123  151.1971 LP  0  0  0  0  0  0  0  0  0  0  0  0  # atno 17370 bound_to 10713
  157.7392  131.0531  150.5244 LP  0  0  0  0  0  0  0  0  0  0  0  0  # atno 17371 bound_to 10713
  140.2341  134.3873  155.7509 LP  0  0  0  0  0  0  0  0  0  0  0  0  # atno 17394 bound_to 11000
  141.2219  133.7230  156.8687 LP  0  0  0  0  0  0  0  0  0  0  0  0  # atno 17395 bound_to 11000

$$$$
