AV-unprocessed.smi:2651|AV-procd|sdf|10292|dock2
  -GOLD-   2272014303D 1   1.00000     0.00000
 Structure written by MMmdl.
 43 44  0  0  0  0  0  0  0  0  1 V2000
  151.6654  140.5345  155.8704 C   0  0  0  0  0  0  0  0  0  0  0  0
  151.3902  139.1050  155.5523 C   0  0  0  0  0  0  0  0  0  0  0  0
  150.3952  138.4829  154.8521 C   0  0  0  0  0  0  0  0  0  0  0  0
  150.7457  137.1102  154.9499 C   0  0  0  0  0  0  0  0  0  0  0  0
  149.9424  136.1104  154.3454 N   0  0  0  0  0  0  0  0  0  0  0  0
  149.5475  134.9419  154.8778 C   0  0  0  0  0  0  0  0  0  0  0  0
  149.8452  134.5431  156.0037 O   0  0  0  0  0  0  0  0  0  0  0  0
  148.7731  134.2623  154.0155 N   0  0  0  0  0  0  0  0  0  0  0  0
  148.1109  132.9605  154.1908 C   0  0  1  0  0  0  0  0  0  0  0  0
  149.1633  131.8784  154.5429 C   0  0  0  0  0  0  0  0  0  0  0  0
  147.0911  133.0575  155.3636 C   0  0  0  0  0  0  0  0  0  0  0  0
  147.7244  133.2701  156.6096 O   0  0  0  0  0  0  0  0  0  0  0  0
  147.4009  132.6142  152.8330 C   0  0  0  0  0  0  0  0  0  0  0  0
  146.5958  133.8003  152.2346 C   0  0  0  0  0  0  0  0  0  0  0  0
  145.9496  133.4465  150.8853 C   0  0  0  0  0  0  0  0  0  0  0  0
  145.0442  132.2149  151.0072 C   0  0  0  0  0  0  0  0  0  0  0  0
  145.8273  131.0234  151.5712 C   0  0  0  0  0  0  0  0  0  0  0  0
  146.4758  131.3694  152.9210 C   0  0  0  0  0  0  0  0  0  0  0  0
  151.8574  136.9123  155.6415 N   0  0  0  0  0  0  0  0  0  0  0  0
  152.2760  138.1899  156.0313 O   0  0  0  0  0  0  0  0  0  0  0  0
  150.8025  141.1586  155.6374 H   0  0  0  0  0  0  0  0  0  0  0  0
  152.5144  140.9016  155.2938 H   0  0  0  0  0  0  0  0  0  0  0  0
  151.8950  140.6586  156.9290 H   0  0  0  0  0  0  0  0  0  0  0  0
  149.5519  138.9387  154.3551 H   0  0  0  0  0  0  0  0  0  0  0  0
  149.6196  136.3146  153.4114 H   0  0  0  0  0  0  0  0  0  0  0  0
  148.6087  134.7021  153.1218 H   0  0  0  0  0  0  0  0  0  0  0  0
  148.7350  130.8773  154.4841 H   0  0  0  0  0  0  0  0  0  0  0  0
  149.5465  131.9978  155.5566 H   0  0  0  0  0  0  0  0  0  0  0  0
  150.0259  131.9097  153.8779 H   0  0  0  0  0  0  0  0  0  0  0  0
  146.3914  133.8793  155.2102 H   0  0  0  0  0  0  0  0  0  0  0  0
  146.4807  132.1571  155.4341 H   0  0  0  0  0  0  0  0  0  0  0  0
  147.3675  134.0546  156.9973 H   0  0  0  0  0  0  0  0  0  0  0  0
  148.1799  132.3787  152.1065 H   0  0  0  0  0  0  0  0  0  0  0  0
  145.8165  134.1184  152.9276 H   0  0  0  0  0  0  0  0  0  0  0  0
  147.2394  134.6647  152.0785 H   0  0  0  0  0  0  0  0  0  0  0  0
  145.3728  134.2951  150.5165 H   0  0  0  0  0  0  0  0  0  0  0  0
  146.7281  133.2575  150.1450 H   0  0  0  0  0  0  0  0  0  0  0  0
  144.1994  132.4423  151.6589 H   0  0  0  0  0  0  0  0  0  0  0  0
  144.6263  131.9602  150.0328 H   0  0  0  0  0  0  0  0  0  0  0  0
  145.1637  130.1662  151.6881 H   0  0  0  0  0  0  0  0  0  0  0  0
  146.5985  130.7219  150.8613 H   0  0  0  0  0  0  0  0  0  0  0  0
  147.0338  130.4960  153.2553 H   0  0  0  0  0  0  0  0  0  0  0  0
  145.6907  131.5338  153.6597 H   0  0  0  0  0  0  0  0  0  0  0  0
  1  2  1  0  0  0  0
  1 21  1  0  0  0  0
  1 22  1  0  0  0  0
  1 23  1  0  0  0  0
  2 20  1  0  0  0  0
  2  3  2  0  0  0  0
  3  4  1  0  0  0  0
  3 24  1  0  0  0  0
  4  5  1  0  0  0  0
  4 19  2  0  0  0  0
  5  6  1  0  0  0  0
  5 25  1  0  0  0  0
  6  7  2  0  0  0  0
  6  8  1  0  0  0  0
  8  9  1  0  0  0  0
  8 26  1  0  0  0  0
  9 10  1  0  0  0  0
  9 11  1  0  0  0  0
  9 13  1  0  0  0  0
 10 27  1  0  0  0  0
 10 28  1  0  0  0  0
 10 29  1  0  0  0  0
 11 12  1  0  0  0  0
 11 30  1  0  0  0  0
 11 31  1  0  0  0  0
 12 32  1  0  0  0  0
 13 18  1  0  0  0  0
 13 14  1  0  0  0  0
 13 33  1  0  0  0  0
 14 15  1  0  0  0  0
 14 34  1  0  0  0  0
 14 35  1  0  0  0  0
 15 16  1  0  0  0  0
 15 36  1  0  0  0  0
 15 37  1  0  0  0  0
 16 17  1  0  0  0  0
 16 38  1  0  0  0  0
 16 39  1  0  0  0  0
 17 18  1  0  0  0  0
 17 40  1  0  0  0  0
 17 41  1  0  0  0  0
 18 42  1  0  0  0  0
 18 43  1  0  0  0  0
 19 20  1  0  0  0  0
M  END
> <s_m_source_file>
AV-unprocessed.smi

> <i_m_source_file_index>
2651

> <i_lp_mmshare_version>
43012

> <i_f3d_flags>
0

> <s_epik_input>
W0NIM11jMVtjSF1jKG5vMSlbTkhdQyg9TylbTkhdW0NAQF0oW0NIM10pKFtDSDJdW09IXSlbQ0hdMltDSDJdW0NIMl1bQ0gyXVtDSDJdW0NIMl0y

> <s_epik_cmdline>
J2VwaWtfcHl0aG9uJywgJy1waCcsICc3LjAnLCAnLXRuJywgJzgnLCAnLW1hJywgJzIwMCcsICctbWV0YWxfYmluZGluZycsICctaW1hZScsICc8aW5maWxlLm1hZT4nLCAnLW9tYWUnLCAnPG91dGZpbGUubWFlPic=

> <r_lp_tautomer_probability>
1

> <r_epik_Ionization_Penalty>
2.26451e-05

> <r_epik_Ionization_Penalty_Charging>
0

> <r_epik_Ionization_Penalty_Neutral>
2.26451e-05

> <r_epik_State_Penalty>
-0

> <r_epik_Charging_Adjusted_Penalty>
0

> <i_epik_Tot_Q>
0

> <i_epik_Tot_abs_Q>
0

> <r_epik_Metal_State_Penalty>
-0

> <b_epik_Metal_Only>
0

> <s_lp_Force_Field>
OPLS_2005

> <r_lp_Energy>
17.1045

> <b_lp_Chiralities_Consistent>
1

> <s_lp_Variant>
AV-unprocessed.smi:2651-1

> <Gold.Version>
5.8.1

> <Gold.Id.Protein>
6NUR|6NUR_protein|mol2

> <Gold.PLP.Fitness>
40.8447

> <Gold.PLP.PLP>
-33.1663

> <Gold.PLP.part.hbond>
-4.0000

> <Gold.PLP.part.metal>
0.0000

> <Gold.PLP.part.buried>
-1.8361

> <Gold.PLP.part.nonpolar>
-26.8719

> <Gold.PLP.part.repulsive>
0.1615

> <Gold.PLP.ligand.clash>
0.0000

> <Gold.PLP.ligand.torsion>
0.6040

> <Gold.PLP.Chemscore.Hbond>
2.9440

> <Gold.PLP.Chemscore.CHOScore>
0.0000

> <Gold.PLP.Chemscore.Metal>
0.0000

> <Gold.Chemscore.Hbonds>
donor molecule, donor type, donor heavy atom, donor atom, acceptor molecule, acceptor atom, score
      L1  H     5    25       P1  7948  1.00
      L1  H     8    26       P1  7948  0.99
      P1  H 10752 10765       L1    19  1.00

> <Gold.PLP.Chemscore.Internal.Correction>
0.0545

> <Gold.Rescore>
     Score         DG    S(hbond)    S(metal)    S(lipo)     H(rot)  DE(clash)    DE(int)     intcor
     14.54     -15.98       2.44        0.00      65.77       2.09       0.00       1.43       ----

> <Gold.Chemscore.Fitness>
14.5413

> <Gold.Chemscore.DG>
-15.9778

> <Gold.Chemscore.ZeroCoef>
-5.4800

> <Gold.Chemscore.Hbond>
2.4438

> <Gold.Chemscore.Metal>
0.0000

> <Gold.Chemscore.Lipo>
65.7688

> <Gold.Chemscore.Internal_Hbond>
0.0000

> <Gold.Chemscore.DEClash>
0.0048

> <Gold.Chemscore.DEInternal>
1.4318

> <Gold.Chemscore.Rot>
2.0935

> <Gold.Chemscore.Internal.Correction>
   9.000000E+99

> <Gold.Chemscore.Hbonds>
donor molecule, donor type, donor heavy atom, donor atom, acceptor molecule, acceptor atom, score
      L1  H     5    25       P1  7948  0.40
      L1  H     8    26       P1  7948  0.32
      P1  H 10752 10765       L1    19  0.76

> <Gold.Chemscore.Hbond.Weighted>
-8.1623

> <Gold.Chemscore.Metal.Weighted>
-0.0000

> <Gold.Chemscore.Lipo.Weighted>
-7.6950

> <Gold.Chemscore.Internal_Hbond.Weighted>
0.0000

> <Gold.Chemscore.DEClash.Weighted>
0.0048

> <Gold.Chemscore.DEInternal.Weighted>
1.4318

> <Gold.Chemscore.Rot.Weighted>
5.3594

> <Gold.Chemscore.Internal.Correction.Weighted>
   9.000000E+99

> <Gold.Protein.RotatedTorsions>
[ 6907 6896 6895 6894 ] final -114.68 input  -60.11 | X-H torsion
[ 7974 7965 7964 7962 ] final  116.24 input  175.53 | X-H torsion
[ 8008 7997 7996 7995 ] final   82.14 input   59.86 | X-H torsion
[ 10167 10162 10161 10158 ] final  120.51 input  -65.29 | X-H torsion
[ 10718 10713 10712 10709 ] final   91.81 input   66.30 | X-H torsion
[ 10763 10752 10751 10750 ] final -169.34 input  -60.55 | X-H torsion
[ 11005 11000 10999 10996 ] final   62.40 input  -57.11 | X-H torsion

> <Gold.Protein.ActiveResidues>
 VAL166  LYS551  ARG553  GLY616  TRP617  ASP618  TYR619  PRO620  LYS621  CYS622 
 ASP623  PHE694  ASN695  SER759  ASP760  ASP761  ALA762  ILE779  LEU786  VAL792 
 PHE793  MET794  SER795  GLU796  ALA797  LYS798  CYS799  TRP800  GLU811  SER814 

> <Gold.Protein.RotatedAtoms>
  150.7920  133.8767  159.3273 H   0  0  0  0  0  0  0  0  0  0  0  0  # atno 6907 bound_to 6896
  151.6602  135.0988  160.0187 H   0  0  0  0  0  0  0  0  0  0  0  0  # atno 6908 bound_to 6896
  152.3996  133.6758  159.6340 H   0  0  0  0  0  0  0  0  0  0  0  0  # atno 6909 bound_to 6896
  145.1821  139.3044  143.4412 H   0  0  0  0  0  0  0  0  0  0  0  0  # atno 7974 bound_to 7965
  155.9066  140.3430  155.6067 H   0  0  0  0  0  0  0  0  0  0  0  0  # atno 8008 bound_to 7997
  155.7437  140.0811  157.2253 H   0  0  0  0  0  0  0  0  0  0  0  0  # atno 8009 bound_to 7997
  154.4050  140.1566  156.2632 H   0  0  0  0  0  0  0  0  0  0  0  0  # atno 8010 bound_to 7997
  139.5978  144.7047  151.3135 H   0  0  0  0  0  0  0  0  0  0  0  0  # atno 10167 bound_to 10162
  157.6960  131.0421  150.3787 H   0  0  0  0  0  0  0  0  0  0  0  0  # atno 10718 bound_to 10713
  154.6533  135.2914  154.9959 H   0  0  0  0  0  0  0  0  0  0  0  0  # atno 10763 bound_to 10752
  154.1044  135.6572  153.4878 H   0  0  0  0  0  0  0  0  0  0  0  0  # atno 10764 bound_to 10752
  153.0388  135.5250  154.7451 H   0  0  0  0  0  0  0  0  0  0  0  0  # atno 10765 bound_to 10752
  140.0094  134.6319  155.9803 H   0  0  0  0  0  0  0  0  0  0  0  0  # atno 11005 bound_to 11000
  146.3451  140.2004  142.8589 LP  0  0  0  0  0  0  0  0  0  0  0  0  # atno 17320 bound_to 7965
  145.0126  140.8727  143.5215 LP  0  0  0  0  0  0  0  0  0  0  0  0  # atno 17321 bound_to 7965
  140.7225  143.7095  150.7781 LP  0  0  0  0  0  0  0  0  0  0  0  0  # atno 17342 bound_to 10162
  140.0665  143.5103  152.2601 LP  0  0  0  0  0  0  0  0  0  0  0  0  # atno 17343 bound_to 10162
  156.4203  130.3951  149.6830 LP  0  0  0  0  0  0  0  0  0  0  0  0  # atno 17370 bound_to 10713
  156.4083  130.7709  151.2721 LP  0  0  0  0  0  0  0  0  0  0  0  0  # atno 17371 bound_to 10713
  141.1700  133.6537  156.4618 LP  0  0  0  0  0  0  0  0  0  0  0  0  # atno 17394 bound_to 11000
  140.4581  134.6866  157.5072 LP  0  0  0  0  0  0  0  0  0  0  0  0  # atno 17395 bound_to 11000

$$$$
