AV-unprocessed.smi:1205|AV-procd|sdf|5044|dock9
  -GOLD-   22720 4 73D 1   1.00000     0.00000
 Structure written by MMmdl.
 49 50  0  0  0  0  0  0  0  0  2 V2000
  145.6345  129.2655  151.7384 C   0  0  0  0  0  0  0  0  0  0  0  0
  145.5890  130.7466  151.5034 C   0  0  0  0  0  0  0  0  0  0  0  0
  146.2971  131.7677  152.2011 C   0  0  0  0  0  0  0  0  0  0  0  0
  145.8761  132.9089  151.5747 C   0  0  0  0  0  0  0  0  0  0  0  0
  146.2213  134.1987  151.8320 N   0  0  0  0  0  0  0  0  0  0  0  0
  145.4547  135.1966  152.3053 C   0  0  0  0  0  0  0  0  0  0  0  0
  144.2725  135.0963  152.6332 O   0  0  0  0  0  0  0  0  0  0  0  0
  146.1457  136.3439  152.3793 N   0  0  0  0  0  0  0  0  0  0  0  0
  145.6272  137.6178  152.8715 C   0  0  0  0  0  0  0  0  0  0  0  0
  146.6858  138.7502  152.8234 C   0  0  1  0  0  0  0  0  0  0  0  0
  146.9983  139.2385  151.3957 C   0  0  0  0  0  0  0  0  0  0  0  0
  146.3430  139.9089  153.6994 N   0  3  1  0  0  0  0  0  0  0  0  0
  145.7890  139.5596  155.0359 C   0  0  0  0  0  0  0  0  0  0  0  0
  145.2286  140.8081  155.7346 C   0  0  0  0  0  0  0  0  0  0  0  0
  146.2996  141.9039  155.8456 C   0  0  0  0  0  0  0  0  0  0  0  0
  146.9286  142.2172  154.4744 C   0  0  2  0  0  0  0  0  0  0  0  0
  145.9914  143.0252  153.5592 C   0  0  0  0  0  0  0  0  0  0  0  0
  147.4273  140.9227  153.7988 C   0  0  0  0  0  0  0  0  0  0  0  0
  144.9807  132.5677  150.5835 N   0  0  0  0  0  0  0  0  0  0  0  0
  144.2591  133.4070  149.6462 C   0  0  0  0  0  0  0  0  0  0  0  0
  144.8107  131.2289  150.5412 N   0  0  0  0  0  0  0  0  0  0  0  0
  146.1977  129.0272  152.6408 H   0  0  0  0  0  0  0  0  0  0  0  0
  146.1113  128.7506  150.9039 H   0  0  0  0  0  0  0  0  0  0  0  0
  144.6316  128.8543  151.8564 H   0  0  0  0  0  0  0  0  0  0  0  0
  146.9903  131.6579  153.0213 H   0  0  0  0  0  0  0  0  0  0  0  0
  147.1830  134.4318  151.6336 H   0  0  0  0  0  0  0  0  0  0  0  0
  147.1121  136.3316  152.0868 H   0  0  0  0  0  0  0  0  0  0  0  0
  144.7328  137.8933  152.3109 H   0  0  0  0  0  0  0  0  0  0  0  0
  145.3009  137.4520  153.8979 H   0  0  0  0  0  0  0  0  0  0  0  0
  147.6226  138.3379  153.2015 H   0  0  0  0  0  0  0  0  0  0  0  0
  147.4657  138.4536  150.8010 H   0  0  0  0  0  0  0  0  0  0  0  0
  147.6915  140.0801  151.4107 H   0  0  0  0  0  0  0  0  0  0  0  0
  146.0993  139.5556  150.8672 H   0  0  0  0  0  0  0  0  0  0  0  0
  144.9953  138.8197  154.9384 H   0  0  0  0  0  0  0  0  0  0  0  0
  146.5657  139.1143  155.6588 H   0  0  0  0  0  0  0  0  0  0  0  0
  144.3649  141.1832  155.1846 H   0  0  0  0  0  0  0  0  0  0  0  0
  144.8660  140.5448  156.7287 H   0  0  0  0  0  0  0  0  0  0  0  0
  145.8752  142.8055  156.2887 H   0  0  0  0  0  0  0  0  0  0  0  0
  147.0812  141.5681  156.5286 H   0  0  0  0  0  0  0  0  0  0  0  0
  147.7998  142.8487  154.6539 H   0  0  0  0  0  0  0  0  0  0  0  0
  145.0929  142.4659  153.2983 H   0  0  0  0  0  0  0  0  0  0  0  0
  146.4921  143.2946  152.6290 H   0  0  0  0  0  0  0  0  0  0  0  0
  145.6770  143.9518  154.0402 H   0  0  0  0  0  0  0  0  0  0  0  0
  148.2598  140.5090  154.3692 H   0  0  0  0  0  0  0  0  0  0  0  0
  147.8166  141.1592  152.8076 H   0  0  0  0  0  0  0  0  0  0  0  0
  144.3012  134.4513  149.9551 H   0  0  0  0  0  0  0  0  0  0  0  0
  143.2139  133.0993  149.6011 H   0  0  0  0  0  0  0  0  0  0  0  0
  144.7019  133.3121  148.6546 H   0  0  0  0  0  0  0  0  0  0  0  0
  145.5948  140.3821  153.2130 H   0  0  0  0  0  0  0  0  0  0  0  0
  1  2  1  0  0  0  0
  1 22  1  0  0  0  0
  1 23  1  0  0  0  0
  1 24  1  0  0  0  0
  2 21  2  0  0  0  0
  2  3  1  0  0  0  0
  3  4  2  0  0  0  0
  3 25  1  0  0  0  0
  4  5  1  0  0  0  0
  4 19  1  0  0  0  0
  5  6  1  0  0  0  0
  5 26  1  0  0  0  0
  6  7  2  0  0  0  0
  6  8  1  0  0  0  0
  8  9  1  0  0  0  0
  8 27  1  0  0  0  0
  9 10  1  0  0  0  0
  9 28  1  0  0  0  0
  9 29  1  0  0  0  0
 10 11  1  0  0  0  0
 10 12  1  0  0  0  0
 10 30  1  0  0  0  0
 11 31  1  0  0  0  0
 11 32  1  0  0  0  0
 11 33  1  0  0  0  0
 12 18  1  0  0  0  0
 12 13  1  0  0  0  0
 12 49  1  0  0  0  0
 13 14  1  0  0  0  0
 13 34  1  0  0  0  0
 13 35  1  0  0  0  0
 14 15  1  0  0  0  0
 14 36  1  0  0  0  0
 14 37  1  0  0  0  0
 15 16  1  0  0  0  0
 15 38  1  0  0  0  0
 15 39  1  0  0  0  0
 16 17  1  0  0  0  0
 16 18  1  0  0  0  0
 16 40  1  0  0  0  0
 17 41  1  0  0  0  0
 17 42  1  0  0  0  0
 17 43  1  0  0  0  0
 18 44  1  0  0  0  0
 18 45  1  0  0  0  0
 19 20  1  0  0  0  0
 19 21  1  0  0  0  0
 20 46  1  0  0  0  0
 20 47  1  0  0  0  0
 20 48  1  0  0  0  0
M  CHG  1  12   1
M  END
> <s_m_source_file>
AV-unprocessed.smi

> <i_m_source_file_index>
1205

> <i_lp_mmshare_version>
43012

> <i_f3d_flags>
0

> <s_epik_input>
W0NIM11jMVtjSF1jKG4objEpW0NIM10pW05IXUMoPU8pW05IXVtDSDJdW0NASF0oW0NIM10pTjJbQ0gyXVtDSDJdW0NIMl1bQ0BASF0oW0NIM10pW0NIMl0y

> <s_epik_cmdline>
J2VwaWtfcHl0aG9uJywgJy1waCcsICc3LjAnLCAnLXRuJywgJzgnLCAnLW1hJywgJzIwMCcsICctbWV0YWxfYmluZGluZycsICctaW1hZScsICc8aW5maWxlLm1hZT4nLCAnLW9tYWUnLCAnPG91dGZpbGUubWFlPic=

> <r_lp_tautomer_probability>
1

> <r_epik_Ionization_Penalty>
0.0020309

> <r_epik_Ionization_Penalty_Charging>
0.00195276

> <r_epik_Ionization_Penalty_Neutral>
7.81448e-05

> <r_epik_State_Penalty>
0.00133177

> <r_epik_Charging_Adjusted_Penalty>
0.00328452

> <i_epik_Tot_Q>
1

> <i_epik_Tot_abs_Q>
1

> <r_epik_Metal_State_Penalty>
-0

> <b_epik_Metal_Only>
0

> <s_lp_Force_Field>
OPLS_2005

> <r_lp_Energy>
25.114

> <b_lp_Chiralities_Consistent>
1

> <s_lp_Variant>
AV-unprocessed.smi:1205-6

> <Gold.Version>
5.8.1

> <Gold.Id.Protein>
6NUR|6NUR_protein|mol2

> <Gold.PLP.Fitness>
44.7761

> <Gold.PLP.PLP>
-37.3917

> <Gold.PLP.part.hbond>
-2.0000

> <Gold.PLP.part.metal>
0.0000

> <Gold.PLP.part.buried>
-4.6041

> <Gold.PLP.part.nonpolar>
-31.6051

> <Gold.PLP.part.repulsive>
0.2415

> <Gold.PLP.ligand.clash>
0.0000

> <Gold.PLP.ligand.torsion>
0.8668

> <Gold.PLP.Chemscore.Hbond>
3.0000

> <Gold.PLP.Chemscore.CHOScore>
0.0000

> <Gold.PLP.Chemscore.Metal>
0.0000

> <Gold.Chemscore.Hbonds>
donor molecule, donor type, donor heavy atom, donor atom, acceptor molecule, acceptor atom, score
      L1  H     8    27       P1  7948  1.00
      L1  H    12    49       P1 10175  1.92

> <Gold.PLP.Chemscore.Internal.Correction>
0.1181

> <Gold.Rescore>
     Score         DG    S(hbond)    S(metal)    S(lipo)     H(rot)  DE(clash)    DE(int)     intcor
     17.65     -18.98       2.01        0.00      90.18       1.47       0.51       0.82       ----

> <Gold.Chemscore.Fitness>
17.6480

> <Gold.Chemscore.DG>
-18.9811

> <Gold.Chemscore.ZeroCoef>
-5.4800

> <Gold.Chemscore.Hbond>
2.0068

> <Gold.Chemscore.Metal>
0.0000

> <Gold.Chemscore.Lipo>
90.1789

> <Gold.Chemscore.Internal_Hbond>
0.0000

> <Gold.Chemscore.DEClash>
0.5133

> <Gold.Chemscore.DEInternal>
0.8198

> <Gold.Chemscore.Rot>
1.4658

> <Gold.Chemscore.Internal.Correction>
   9.000000E+99

> <Gold.Chemscore.Hbonds>
donor molecule, donor type, donor heavy atom, donor atom, acceptor molecule, acceptor atom, score
      L1  H     5    26       P1  7948  0.01
      L1  H     8    27       P1  7948  1.00
      L1  H    12    49       P1 10175  0.84

> <Gold.Chemscore.Hbond.Weighted>
-6.7027

> <Gold.Chemscore.Metal.Weighted>
-0.0000

> <Gold.Chemscore.Lipo.Weighted>
-10.5509

> <Gold.Chemscore.Internal_Hbond.Weighted>
0.0000

> <Gold.Chemscore.DEClash.Weighted>
0.5133

> <Gold.Chemscore.DEInternal.Weighted>
0.8198

> <Gold.Chemscore.Rot.Weighted>
3.7526

> <Gold.Chemscore.Internal.Correction.Weighted>
   9.000000E+99

> <Gold.Protein.RotatedTorsions>
[ 6907 6896 6895 6894 ] final  -55.55 input  -60.11 | X-H torsion
[ 7974 7965 7964 7962 ] final   91.25 input  175.53 | X-H torsion
[ 8008 7997 7996 7995 ] final   69.18 input   59.86 | X-H torsion
[ 10167 10162 10161 10158 ] final  158.37 input  -65.29 | X-H torsion
[ 10718 10713 10712 10709 ] final -178.99 input   66.30 | X-H torsion
[ 10763 10752 10751 10750 ] final  122.07 input  -60.55 | X-H torsion
[ 11005 11000 10999 10996 ] final  -46.06 input  -57.11 | X-H torsion

> <Gold.Protein.ActiveResidues>
 VAL166  LYS551  ARG553  GLY616  TRP617  ASP618  TYR619  PRO620  LYS621  CYS622 
 ASP623  PHE694  ASN695  SER759  ASP760  ASP761  ALA762  ILE779  LEU786  VAL792 
 PHE793  MET794  SER795  GLU796  ALA797  LYS798  CYS799  TRP800  GLU811  SER814 

> <Gold.Protein.RotatedAtoms>
  150.8242  134.7465  159.6798 H   0  0  0  0  0  0  0  0  0  0  0  0  # atno 6907 bound_to 6896
  152.4355  134.5692  159.9926 H   0  0  0  0  0  0  0  0  0  0  0  0  # atno 6908 bound_to 6896
  151.5868  133.3333  159.3055 H   0  0  0  0  0  0  0  0  0  0  0  0  # atno 6909 bound_to 6896
  145.5081  139.2276  143.2740 H   0  0  0  0  0  0  0  0  0  0  0  0  # atno 7974 bound_to 7965
  155.7196  140.3493  155.5010 H   0  0  0  0  0  0  0  0  0  0  0  0  # atno 8008 bound_to 7997
  155.9281  140.1079  157.1175 H   0  0  0  0  0  0  0  0  0  0  0  0  # atno 8009 bound_to 7997
  154.4080  140.1236  156.4754 H   0  0  0  0  0  0  0  0  0  0  0  0  # atno 8010 bound_to 7997
  139.4826  144.4830  151.8417 H   0  0  0  0  0  0  0  0  0  0  0  0  # atno 10167 bound_to 10162
  156.8525  130.9724  151.3091 H   0  0  0  0  0  0  0  0  0  0  0  0  # atno 10718 bound_to 10713
  153.6240  135.3408  155.3020 H   0  0  0  0  0  0  0  0  0  0  0  0  # atno 10763 bound_to 10752
  154.8594  135.4280  154.2176 H   0  0  0  0  0  0  0  0  0  0  0  0  # atno 10764 bound_to 10752
  153.3056  135.7028  153.7235 H   0  0  0  0  0  0  0  0  0  0  0  0  # atno 10765 bound_to 10752
  141.0555  133.6727  156.3102 H   0  0  0  0  0  0  0  0  0  0  0  0  # atno 11005 bound_to 11000
  146.2184  140.5886  142.9028 LP  0  0  0  0  0  0  0  0  0  0  0  0  # atno 17320 bound_to 7965
  144.7742  140.5704  143.6649 LP  0  0  0  0  0  0  0  0  0  0  0  0  # atno 17321 bound_to 7965
  140.4308  144.2118  150.5888 LP  0  0  0  0  0  0  0  0  0  0  0  0  # atno 17342 bound_to 10162
  140.4781  143.2389  151.8994 LP  0  0  0  0  0  0  0  0  0  0  0  0  # atno 17343 bound_to 10162
  157.6295  130.8718  149.9249 LP  0  0  0  0  0  0  0  0  0  0  0  0  # atno 17370 bound_to 10713
  156.0820  130.3672  150.0561 LP  0  0  0  0  0  0  0  0  0  0  0  0  # atno 17371 bound_to 10713
  140.5972  134.5591  157.5511 LP  0  0  0  0  0  0  0  0  0  0  0  0  # atno 17394 bound_to 11000
  139.9386  134.7828  156.0736 LP  0  0  0  0  0  0  0  0  0  0  0  0  # atno 17395 bound_to 11000

$$$$
