AV-unprocessed.smi:133|AV-procd|sdf|1165|dock8
  -GOLD-   2262018303D 1   1.00000     0.00000
 Structure written by MMmdl.
 47 50  0  0  0  0  0  0  0  0  1 V2000
  153.4209  138.7889  157.1970 O   0  0  0  0  0  0  0  0  0  0  0  0
  152.5725  139.2866  156.4556 C   0  0  0  0  0  0  0  0  0  0  0  0
  152.2136  138.6184  155.1187 C   0  0  0  0  0  0  0  0  0  0  0  0
  150.7923  138.2205  155.0141 N   0  0  0  0  0  0  0  0  0  0  0  0
  149.8343  139.2079  154.6731 C   0  0  0  0  0  0  0  0  0  0  0  0
  150.1640  140.3799  154.4852 O   0  0  0  0  0  0  0  0  0  0  0  0
  148.4597  138.7362  154.5523 C   0  0  0  0  0  0  0  0  0  0  0  0
  147.4862  139.5998  154.2170 F   0  0  0  0  0  0  0  0  0  0  0  0
  148.1487  137.4416  154.7675 C   0  0  0  0  0  0  0  0  0  0  0  0
  149.0880  136.4931  155.1209 N   0  0  0  0  0  0  0  0  0  0  0  0
  148.6561  135.0552  155.2930 C   0  0  2  0  0  0  0  0  0  0  0  0
  149.4696  134.0605  154.4433 C   0  0  0  0  0  0  0  0  0  0  0  0
  148.4028  133.3821  153.5993 C   0  0  0  0  0  0  0  0  0  0  0  0
  147.1271  133.6368  154.3951 C   0  0  0  0  0  0  0  0  0  0  0  0
  147.3194  134.9440  154.9126 O   0  0  0  0  0  0  0  0  0  0  0  0
  150.4494  136.8626  155.2212 C   0  0  0  0  0  0  0  0  0  0  0  0
  151.3174  136.0257  155.4743 O   0  0  0  0  0  0  0  0  0  0  0  0
  151.9151  140.4321  156.7118 N   0  0  0  0  0  0  0  0  0  0  0  0
  152.0164  141.2772  157.8495 C   0  0  0  0  0  0  0  0  0  0  0  0
  152.4881  140.8297  159.1155 C   0  0  0  0  0  0  0  0  0  0  0  0
  152.5462  141.7119  160.2169 C   0  0  0  0  0  0  0  0  0  0  0  0
  152.1176  143.0371  160.0338 C   0  0  0  0  0  0  0  0  0  0  0  0
  151.6421  143.4758  158.8053 C   0  0  0  0  0  0  0  0  0  0  0  0
  151.5759  142.6128  157.6980 C   0  0  0  0  0  0  0  0  0  0  0  0
  151.2345  144.9231  158.8539 C   0  0  0  0  0  0  0  0  0  0  0  0
  151.7113  145.3953  160.2489 C   0  0  0  0  0  0  0  0  0  0  0  0
  152.0901  144.1341  161.0627 C   0  0  0  0  0  0  0  0  0  0  0  0
  152.4880  139.2964  154.3088 H   0  0  0  0  0  0  0  0  0  0  0  0
  152.8705  137.7591  154.9750 H   0  0  0  0  0  0  0  0  0  0  0  0
  147.1163  137.1430  154.6586 H   0  0  0  0  0  0  0  0  0  0  0  0
  148.7439  134.8398  156.3589 H   0  0  0  0  0  0  0  0  0  0  0  0
  150.2390  134.5499  153.8453 H   0  0  0  0  0  0  0  0  0  0  0  0
  149.9535  133.3480  155.1123 H   0  0  0  0  0  0  0  0  0  0  0  0
  148.3335  133.8628  152.6229 H   0  0  0  0  0  0  0  0  0  0  0  0
  148.5970  132.3213  153.4391 H   0  0  0  0  0  0  0  0  0  0  0  0
  146.2279  133.5745  153.7820 H   0  0  0  0  0  0  0  0  0  0  0  0
  147.0342  132.9276  155.2193 H   0  0  0  0  0  0  0  0  0  0  0  0
  151.3200  140.7735  155.9713 H   0  0  0  0  0  0  0  0  0  0  0  0
  152.7973  139.8071  159.2679 H   0  0  0  0  0  0  0  0  0  0  0  0
  152.9050  141.3728  161.1776 H   0  0  0  0  0  0  0  0  0  0  0  0
  151.2003  142.9697  156.7499 H   0  0  0  0  0  0  0  0  0  0  0  0
  151.6929  145.4948  158.0462 H   0  0  0  0  0  0  0  0  0  0  0  0
  150.1503  144.9950  158.7614 H   0  0  0  0  0  0  0  0  0  0  0  0
  152.6094  146.0001  160.1175 H   0  0  0  0  0  0  0  0  0  0  0  0
  150.9776  146.0224  160.7565 H   0  0  0  0  0  0  0  0  0  0  0  0
  151.3332  143.9063  161.8138 H   0  0  0  0  0  0  0  0  0  0  0  0
  153.0553  144.2387  161.5594 H   0  0  0  0  0  0  0  0  0  0  0  0
  1  2  2  0  0  0  0
  2  3  1  0  0  0  0
  2 18  1  0  0  0  0
  3  4  1  0  0  0  0
  3 28  1  0  0  0  0
  3 29  1  0  0  0  0
  4 16  1  0  0  0  0
  4  5  1  0  0  0  0
  5  6  2  0  0  0  0
  5  7  1  0  0  0  0
  7  8  1  0  0  0  0
  7  9  2  0  0  0  0
  9 10  1  0  0  0  0
  9 30  1  0  0  0  0
 10 11  1  0  0  0  0
 10 16  1  0  0  0  0
 11 15  1  0  0  0  0
 11 12  1  0  0  0  0
 11 31  1  0  0  0  0
 12 13  1  0  0  0  0
 12 32  1  0  0  0  0
 12 33  1  0  0  0  0
 13 14  1  0  0  0  0
 13 34  1  0  0  0  0
 13 35  1  0  0  0  0
 14 15  1  0  0  0  0
 14 36  1  0  0  0  0
 14 37  1  0  0  0  0
 16 17  2  0  0  0  0
 18 19  1  0  0  0  0
 18 38  1  0  0  0  0
 19 24  1  0  0  0  0
 19 20  2  0  0  0  0
 20 21  1  0  0  0  0
 20 39  1  0  0  0  0
 21 22  2  0  0  0  0
 21 40  1  0  0  0  0
 22 27  1  0  0  0  0
 22 23  1  0  0  0  0
 23 24  2  0  0  0  0
 23 25  1  0  0  0  0
 24 41  1  0  0  0  0
 25 26  1  0  0  0  0
 25 42  1  0  0  0  0
 25 43  1  0  0  0  0
 26 27  1  0  0  0  0
 26 44  1  0  0  0  0
 26 45  1  0  0  0  0
 27 46  1  0  0  0  0
 27 47  1  0  0  0  0
M  END
> <s_m_source_file>
AV-unprocessed.smi

> <i_m_source_file_index>
133

> <i_lp_mmshare_version>
43012

> <i_f3d_flags>
0

> <s_epik_input>
W0NIMl0xW0NIMl1bQ0gyXWMoYzEyKVtjSF1jKFtjSF1bY0hdMilbTkhdQyg9TylbQ0gyXW4zYyg9TyljKEYpW2NIXW4oYzM9TylbQ0BASF00W0NIMl1bQ0gyXVtDSDJdTzQ=

> <s_epik_cmdline>
J2VwaWtfcHl0aG9uJywgJy1waCcsICc3LjAnLCAnLXRuJywgJzgnLCAnLW1hJywgJzIwMCcsICctbWV0YWxfYmluZGluZycsICctaW1hZScsICc8aW5maWxlLm1hZT4nLCAnLW9tYWUnLCAnPG91dGZpbGUubWFlPic=

> <r_lp_tautomer_probability>
1

> <r_epik_Ionization_Penalty>
4.05675e-06

> <r_epik_Ionization_Penalty_Charging>
3.88729e-08

> <r_epik_Ionization_Penalty_Neutral>
4.01788e-06

> <r_epik_State_Penalty>
-0

> <r_epik_Charging_Adjusted_Penalty>
3.88729e-08

> <i_epik_Tot_Q>
0

> <i_epik_Tot_abs_Q>
0

> <r_epik_Metal_State_Penalty>
-0

> <b_epik_Metal_Only>
0

> <s_epik_Chemistry_Notes>
This compound contains an acetal/aminal-like group ( X-CH(R)-Y where X, Y are N, S, or O) that may be acid/base labile, releasing an aldehyde.

> <s_lp_Force_Field>
OPLS_2005

> <r_lp_Energy>
40.9248

> <b_lp_Chiralities_Consistent>
1

> <s_lp_Variant>
AV-unprocessed.smi:133-1

> <Gold.Version>
5.8.1

> <Gold.Id.Protein>
6NUR|6NUR_protein|mol2

> <Gold.PLP.Fitness>
57.4499

> <Gold.PLP.PLP>
-50.1186

> <Gold.PLP.part.hbond>
-3.0000

> <Gold.PLP.part.metal>
0.0000

> <Gold.PLP.part.buried>
-4.9212

> <Gold.PLP.part.nonpolar>
-42.5550

> <Gold.PLP.part.repulsive>
0.4187

> <Gold.PLP.ligand.clash>
0.0000

> <Gold.PLP.ligand.torsion>
0.5122

> <Gold.PLP.Chemscore.Hbond>
2.7760

> <Gold.PLP.Chemscore.CHOScore>
0.0000

> <Gold.PLP.Chemscore.Metal>
0.0000

> <Gold.Chemscore.Hbonds>
donor molecule, donor type, donor heavy atom, donor atom, acceptor molecule, acceptor atom, score
      P1  H  7989  7998       L1     6  0.96
      P1  H  7997  8009       L1     1  0.83
      P1  H 10752 10764       L1    17  1.00

> <Gold.PLP.Chemscore.Internal.Correction>
0.0278

> <Gold.Rescore>
     Score         DG    S(hbond)    S(metal)    S(lipo)     H(rot)  DE(clash)    DE(int)     intcor
     19.76     -23.76       2.50        0.00     119.62       1.59       1.19       2.81       ----

> <Gold.Chemscore.Fitness>
19.7576

> <Gold.Chemscore.DG>
-23.7581

> <Gold.Chemscore.ZeroCoef>
-5.4800

> <Gold.Chemscore.Hbond>
2.4984

> <Gold.Chemscore.Metal>
0.0000

> <Gold.Chemscore.Lipo>
119.6220

> <Gold.Chemscore.Internal_Hbond>
0.0000

> <Gold.Chemscore.DEClash>
1.1906

> <Gold.Chemscore.DEInternal>
2.8100

> <Gold.Chemscore.Rot>
1.5869

> <Gold.Chemscore.Internal.Correction>
   9.000000E+99

> <Gold.Chemscore.Hbonds>
donor molecule, donor type, donor heavy atom, donor atom, acceptor molecule, acceptor atom, score
      P1  H  7989  7998       L1     6  0.92
      P1  H  7997  8009       L1     1  0.25
      P1  H 10752 10764       L1    17  1.00

> <Gold.Chemscore.Hbond.Weighted>
-8.3448

> <Gold.Chemscore.Metal.Weighted>
-0.0000

> <Gold.Chemscore.Lipo.Weighted>
-13.9958

> <Gold.Chemscore.Internal_Hbond.Weighted>
0.0000

> <Gold.Chemscore.DEClash.Weighted>
1.1906

> <Gold.Chemscore.DEInternal.Weighted>
2.8100

> <Gold.Chemscore.Rot.Weighted>
4.0624

> <Gold.Chemscore.Internal.Correction.Weighted>
   9.000000E+99

> <Gold.Protein.RotatedTorsions>
[ 6907 6896 6895 6894 ] final   86.23 input  -60.11 | X-H torsion
[ 7974 7965 7964 7962 ] final  -46.25 input  175.53 | X-H torsion
[ 8008 7997 7996 7995 ] final  145.98 input   59.86 | X-H torsion
[ 10167 10162 10161 10158 ] final   47.09 input  -65.29 | X-H torsion
[ 10718 10713 10712 10709 ] final   29.57 input   66.30 | X-H torsion
[ 10763 10752 10751 10750 ] final  -56.81 input  -60.55 | X-H torsion
[ 11005 11000 10999 10996 ] final  102.41 input  -57.11 | X-H torsion

> <Gold.Protein.ActiveResidues>
 VAL166  LYS551  ARG553  GLY616  TRP617  ASP618  TYR619  PRO620  LYS621  CYS622 
 ASP623  PHE694  ASN695  SER759  ASP760  ASP761  ALA762  ILE779  LEU786  VAL792 
 PHE793  MET794  SER795  GLU796  ALA797  LYS798  CYS799  TRP800  GLU811  SER814 

> <Gold.Protein.RotatedAtoms>
  152.5390  134.2463  159.8881 H   0  0  0  0  0  0  0  0  0  0  0  0  # atno 6907 bound_to 6896
  151.2428  133.4384  159.2615 H   0  0  0  0  0  0  0  0  0  0  0  0  # atno 6908 bound_to 6896
  151.0610  134.9751  159.8317 H   0  0  0  0  0  0  0  0  0  0  0  0  # atno 6909 bound_to 6896
  145.9738  140.7356  142.9397 H   0  0  0  0  0  0  0  0  0  0  0  0  # atno 7974 bound_to 7965
  156.2868  140.2194  156.5303 H   0  0  0  0  0  0  0  0  0  0  0  0  # atno 8008 bound_to 7997
  154.7454  140.0484  157.0869 H   0  0  0  0  0  0  0  0  0  0  0  0  # atno 8009 bound_to 7997
  155.0177  140.3120  155.4808 H   0  0  0  0  0  0  0  0  0  0  0  0  # atno 8010 bound_to 7997
  140.3073  144.2863  150.6207 H   0  0  0  0  0  0  0  0  0  0  0  0  # atno 10167 bound_to 10162
  157.2483  130.7102  149.6392 H   0  0  0  0  0  0  0  0  0  0  0  0  # atno 10718 bound_to 10713
  154.2125  135.6392  153.5119 H   0  0  0  0  0  0  0  0  0  0  0  0  # atno 10763 bound_to 10752
  152.9987  135.5477  154.6200 H   0  0  0  0  0  0  0  0  0  0  0  0  # atno 10764 bound_to 10752
  154.5640  135.2911  155.0865 H   0  0  0  0  0  0  0  0  0  0  0  0  # atno 10765 bound_to 10752
  139.8777  134.9223  156.5054 H   0  0  0  0  0  0  0  0  0  0  0  0  # atno 11005 bound_to 11000
  144.6843  140.2793  143.7294 LP  0  0  0  0  0  0  0  0  0  0  0  0  # atno 17320 bound_to 7965
  145.7868  139.1912  143.2126 LP  0  0  0  0  0  0  0  0  0  0  0  0  # atno 17321 bound_to 7965
  140.5599  143.2193  151.7783 LP  0  0  0  0  0  0  0  0  0  0  0  0  # atno 17342 bound_to 10162
  139.4901  144.4362  151.9816 LP  0  0  0  0  0  0  0  0  0  0  0  0  # atno 17343 bound_to 10162
  155.9667  130.4436  150.5427 LP  0  0  0  0  0  0  0  0  0  0  0  0  # atno 17370 bound_to 10713
  157.3305  131.0698  151.1864 LP  0  0  0  0  0  0  0  0  0  0  0  0  # atno 17371 bound_to 10713
  140.8559  133.8096  155.9216 LP  0  0  0  0  0  0  0  0  0  0  0  0  # atno 17394 bound_to 11000
  140.9098  134.2275  157.4993 LP  0  0  0  0  0  0  0  0  0  0  0  0  # atno 17395 bound_to 11000

$$$$
