AV-unprocessed.smi:1703|AV-procd|sdf|6869|dock3
  -GOLD-   22720 8 63D 1   1.00000     0.00000
 Structure written by MMmdl.
 49 51  0  0  0  0  0  0  0  0  2 V2000
  138.3960  137.2239  153.7386 C   0  0  0  0  0  0  0  0  0  0  0  0
  139.5364  138.2392  153.9121 C   0  0  2  0  0  0  0  0  0  0  0  0
  140.9385  137.5955  153.9290 C   0  0  0  0  0  0  0  0  0  0  0  0
  141.2439  136.9181  155.1878 N   0  0  0  0  0  0  0  0  0  0  0  0
  142.5978  136.3623  155.2082 C   0  0  0  0  0  0  0  0  0  0  0  0
  142.9062  135.2907  154.1382 C   0  0  1  0  0  0  0  0  0  0  0  0
  141.8172  134.3930  154.1100 O   0  0  0  0  0  0  0  0  0  0  0  0
  143.0657  135.8406  152.7035 C   0  0  0  0  0  0  0  0  0  0  0  0
  144.3083  135.4198  152.0381 N   0  0  0  0  0  0  0  0  0  0  0  0
  145.4869  136.0828  151.8477 C   0  0  0  0  0  0  0  0  0  0  0  0
  145.8331  137.4624  152.3085 C   0  0  0  0  0  0  0  0  0  0  0  0
  147.0141  137.9577  151.7145 O   0  0  0  0  0  0  0  0  0  0  0  0
  146.3086  135.2479  151.1501 N   0  3  0  0  0  0  0  0  0  0  0  0
  145.6579  134.0395  150.9026 C   0  0  0  0  0  0  0  0  0  0  0  0
  146.0877  132.8913  150.2448 C   0  0  0  0  0  0  0  0  0  0  0  0
  145.1710  131.8217  150.1761 C   0  0  0  0  0  0  0  0  0  0  0  0
  143.8842  131.9196  150.7448 C   0  0  0  0  0  0  0  0  0  0  0  0
  143.4590  133.0911  151.4056 C   0  0  0  0  0  0  0  0  0  0  0  0
  144.3731  134.1416  151.4728 C   0  0  0  0  0  0  0  0  0  0  0  0
  141.0486  137.8523  156.2883 C   0  0  0  0  0  0  0  0  0  0  0  0
  139.6172  138.4146  156.3150 C   0  0  1  0  0  0  0  0  0  0  0  0
  139.4224  139.4442  157.4324 C   0  0  0  0  0  0  0  0  0  0  0  0
  139.3423  139.0532  155.0696 O   0  0  0  0  0  0  0  0  0  0  0  0
  138.5151  136.6572  152.8148 H   0  0  0  0  0  0  0  0  0  0  0  0
  137.4306  137.7278  153.6960 H   0  0  0  0  0  0  0  0  0  0  0  0
  138.3606  136.5100  154.5592 H   0  0  0  0  0  0  0  0  0  0  0  0
  139.4918  138.9111  153.0547 H   0  0  0  0  0  0  0  0  0  0  0  0
  141.0182  136.9047  153.0908 H   0  0  0  0  0  0  0  0  0  0  0  0
  141.6800  138.3766  153.7531 H   0  0  0  0  0  0  0  0  0  0  0  0
  143.3105  137.1831  155.1099 H   0  0  0  0  0  0  0  0  0  0  0  0
  142.7971  135.9235  156.1868 H   0  0  0  0  0  0  0  0  0  0  0  0
  143.7814  134.7048  154.4144 H   0  0  0  0  0  0  0  0  0  0  0  0
  142.1483  133.5229  153.9474 H   0  0  0  0  0  0  0  0  0  0  0  0
  142.2282  135.5300  152.0770 H   0  0  0  0  0  0  0  0  0  0  0  0
  143.0451  136.9309  152.7106 H   0  0  0  0  0  0  0  0  0  0  0  0
  145.0065  138.1339  152.0763 H   0  0  0  0  0  0  0  0  0  0  0  0
  145.9644  137.4706  153.3898 H   0  0  0  0  0  0  0  0  0  0  0  0
  147.7445  137.4448  152.0262 H   0  0  0  0  0  0  0  0  0  0  0  0
  147.0735  132.8143  149.8102 H   0  0  0  0  0  0  0  0  0  0  0  0
  145.4609  130.9080  149.6776 H   0  0  0  0  0  0  0  0  0  0  0  0
  143.2084  131.0797  150.6717 H   0  0  0  0  0  0  0  0  0  0  0  0
  142.4713  133.1574  151.8375 H   0  0  0  0  0  0  0  0  0  0  0  0
  141.2526  137.3524  157.2359 H   0  0  0  0  0  0  0  0  0  0  0  0
  141.7638  138.6729  156.2090 H   0  0  0  0  0  0  0  0  0  0  0  0
  138.9093  137.6005  156.4730 H   0  0  0  0  0  0  0  0  0  0  0  0
  139.6096  139.0014  158.4108 H   0  0  0  0  0  0  0  0  0  0  0  0
  138.4031  139.8312  157.4319 H   0  0  0  0  0  0  0  0  0  0  0  0
  140.1000  140.2901  157.3126 H   0  0  0  0  0  0  0  0  0  0  0  0
  147.2517  135.4909  150.8754 H   0  0  0  0  0  0  0  0  0  0  0  0
  1  2  1  0  0  0  0
  1 24  1  0  0  0  0
  1 25  1  0  0  0  0
  1 26  1  0  0  0  0
  2 23  1  0  0  0  0
  2  3  1  0  0  0  0
  2 27  1  0  0  0  0
  3  4  1  0  0  0  0
  3 28  1  0  0  0  0
  3 29  1  0  0  0  0
  4  5  1  0  0  0  0
  4 20  1  0  0  0  0
  5  6  1  0  0  0  0
  5 30  1  0  0  0  0
  5 31  1  0  0  0  0
  6  7  1  0  0  0  0
  6  8  1  0  0  0  0
  6 32  1  0  0  0  0
  7 33  1  0  0  0  0
  8  9  1  0  0  0  0
  8 34  1  0  0  0  0
  8 35  1  0  0  0  0
  9 19  1  0  0  0  0
  9 10  1  0  0  0  0
 10 11  1  0  0  0  0
 10 13  2  0  0  0  0
 11 12  1  0  0  0  0
 11 36  1  0  0  0  0
 11 37  1  0  0  0  0
 12 38  1  0  0  0  0
 13 14  1  0  0  0  0
 13 49  1  0  0  0  0
 14 19  2  0  0  0  0
 14 15  1  0  0  0  0
 15 16  2  0  0  0  0
 15 39  1  0  0  0  0
 16 17  1  0  0  0  0
 16 40  1  0  0  0  0
 17 18  2  0  0  0  0
 17 41  1  0  0  0  0
 18 19  1  0  0  0  0
 18 42  1  0  0  0  0
 20 21  1  0  0  0  0
 20 43  1  0  0  0  0
 20 44  1  0  0  0  0
 21 22  1  0  0  0  0
 21 23  1  0  0  0  0
 21 45  1  0  0  0  0
 22 46  1  0  0  0  0
 22 47  1  0  0  0  0
 22 48  1  0  0  0  0
M  CHG  1  13   1
M  END
> <s_m_source_file>
AV-unprocessed.smi

> <i_m_source_file_index>
1703

> <i_lp_mmshare_version>
43012

> <i_f3d_flags>
0

> <s_epik_input>
W0NIM11bQ0BASF0xW0NIMl1OKFtDSDJdW0NASF0oTzEpW0NIM10pW0NIMl1bQ0BIXShbT0hdKVtDSDJdbihjKG4yKVtDSDJdW09IXSljKGMyMylbY0hdW2NIXVtjSF1bY0hdMw==

> <s_epik_cmdline>
J2VwaWtfcHl0aG9uJywgJy1waCcsICc3LjAnLCAnLXRuJywgJzgnLCAnLW1hJywgJzIwMCcsICctbWV0YWxfYmluZGluZycsICctaW1hZScsICc8aW5maWxlLm1hZT4nLCAnLW9tYWUnLCAnPG91dGZpbGUubWFlPic=

> <r_epik_Ionization_Penalty>
1.7682

> <r_epik_Ionization_Penalty_Charging>
1.55298

> <r_epik_Ionization_Penalty_Neutral>
0.215215

> <r_epik_State_Penalty>
1.83821

> <r_epik_Charging_Adjusted_Penalty>
3.39119

> <i_epik_Tot_Q>
1

> <i_epik_Tot_abs_Q>
1

> <r_epik_Metal_State_Penalty>
5.89206

> <b_epik_Metal_Only>
0

> <s_lp_Force_Field>
OPLS_2005

> <r_lp_Energy>
30.0096

> <b_lp_Chiralities_Consistent>
1

> <s_lp_Variant>
AV-unprocessed.smi:1703-17

> <Gold.Version>
5.8.1

> <Gold.Id.Protein>
6NUR|6NUR_protein|mol2

> <Gold.PLP.Fitness>
50.5956

> <Gold.PLP.PLP>
-39.8963

> <Gold.PLP.part.hbond>
-4.6450

> <Gold.PLP.part.metal>
0.0000

> <Gold.PLP.part.buried>
-7.5625

> <Gold.PLP.part.nonpolar>
-28.5921

> <Gold.PLP.part.repulsive>
0.1237

> <Gold.PLP.ligand.clash>
0.0000

> <Gold.PLP.ligand.torsion>
1.2385

> <Gold.PLP.Chemscore.Hbond>
4.3886

> <Gold.PLP.Chemscore.CHOScore>
0.0000

> <Gold.PLP.Chemscore.Metal>
0.0000

> <Gold.Chemscore.Hbonds>
donor molecule, donor type, donor heavy atom, donor atom, acceptor molecule, acceptor atom, score
      L1  H     7    33       P1 10957  0.91
      L1  H    12    38       P1  7948  1.00
      L1  H    13    49       P1  7948  1.47
      P1  H  7954  7966       L1    12  0.03
      P1  H 11000 11005       L1     7  0.91

> <Gold.PLP.Chemscore.Internal.Correction>
0.0105

> <Gold.Rescore>
     Score         DG    S(hbond)    S(metal)    S(lipo)     H(rot)  DE(clash)    DE(int)     intcor
     16.26     -18.47       3.11        0.00      86.83       2.96       0.07       2.15       ----

> <Gold.Chemscore.Fitness>
16.2571

> <Gold.Chemscore.DG>
-18.4716

> <Gold.Chemscore.ZeroCoef>
-5.4800

> <Gold.Chemscore.Hbond>
3.1134

> <Gold.Chemscore.Metal>
0.0000

> <Gold.Chemscore.Lipo>
86.8287

> <Gold.Chemscore.Internal_Hbond>
0.0000

> <Gold.Chemscore.DEClash>
0.0665

> <Gold.Chemscore.DEInternal>
2.1480

> <Gold.Chemscore.Rot>
2.9555

> <Gold.Chemscore.Internal.Correction>
   9.000000E+99

> <Gold.Chemscore.Hbonds>
donor molecule, donor type, donor heavy atom, donor atom, acceptor molecule, acceptor atom, score
      L1  H     7    33       P1 10957  0.85
      L1  H    12    38       P1  7948  0.96
      L1  H    13    49       P1  7948  0.41
      P1  H 11000 11005       L1     7  0.25

> <Gold.Chemscore.Hbond.Weighted>
-10.3986

> <Gold.Chemscore.Metal.Weighted>
-0.0000

> <Gold.Chemscore.Lipo.Weighted>
-10.1590

> <Gold.Chemscore.Internal_Hbond.Weighted>
0.0000

> <Gold.Chemscore.DEClash.Weighted>
0.0665

> <Gold.Chemscore.DEInternal.Weighted>
2.1480

> <Gold.Chemscore.Rot.Weighted>
7.5660

> <Gold.Chemscore.Internal.Correction.Weighted>
   9.000000E+99

> <Gold.Protein.RotatedTorsions>
[ 6907 6896 6895 6894 ] final   12.90 input  -60.11 | X-H torsion
[ 7974 7965 7964 7962 ] final  145.98 input  175.53 | X-H torsion
[ 8008 7997 7996 7995 ] final   77.11 input   59.86 | X-H torsion
[ 10167 10162 10161 10158 ] final  -37.83 input  -65.29 | X-H torsion
[ 10718 10713 10712 10709 ] final  125.84 input   66.30 | X-H torsion
[ 10763 10752 10751 10750 ] final -150.14 input  -60.55 | X-H torsion
[ 11005 11000 10999 10996 ] final    7.33 input  -57.11 | X-H torsion

> <Gold.Protein.ActiveResidues>
 VAL166  LYS551  ARG553  GLY616  TRP617  ASP618  TYR619  PRO620  LYS621  CYS622 
 ASP623  PHE694  ASN695  SER759  ASP760  ASP761  ALA762  ILE779  LEU786  VAL792 
 PHE793  MET794  SER795  GLU796  ALA797  LYS798  CYS799  TRP800  GLU811  SER814 

> <Gold.Protein.RotatedAtoms>
  151.7778  135.0769  160.0369 H   0  0  0  0  0  0  0  0  0  0  0  0  # atno 6907 bound_to 6896
  152.3244  133.5884  159.5775 H   0  0  0  0  0  0  0  0  0  0  0  0  # atno 6908 bound_to 6896
  150.7387  133.9878  159.3639 H   0  0  0  0  0  0  0  0  0  0  0  0  # atno 6909 bound_to 6896
  144.8708  139.5849  143.5888 H   0  0  0  0  0  0  0  0  0  0  0  0  # atno 7974 bound_to 7965
  155.8369  140.3464  155.5607 H   0  0  0  0  0  0  0  0  0  0  0  0  # atno 8008 bound_to 7997
  155.8182  140.0909  157.1884 H   0  0  0  0  0  0  0  0  0  0  0  0  # atno 8009 bound_to 7997
  154.4004  140.1435  156.3456 H   0  0  0  0  0  0  0  0  0  0  0  0  # atno 8010 bound_to 7997
  140.7108  143.3317  151.2555 H   0  0  0  0  0  0  0  0  0  0  0  0  # atno 10167 bound_to 10162
  157.5469  131.1095  150.8767 H   0  0  0  0  0  0  0  0  0  0  0  0  # atno 10718 bound_to 10713
  154.8136  135.3291  154.7237 H   0  0  0  0  0  0  0  0  0  0  0  0  # atno 10763 bound_to 10752
  153.7882  135.6913  153.4880 H   0  0  0  0  0  0  0  0  0  0  0  0  # atno 10764 bound_to 10752
  153.1934  135.4542  155.0125 H   0  0  0  0  0  0  0  0  0  0  0  0  # atno 10765 bound_to 10752
  140.5495  134.0297  155.7932 H   0  0  0  0  0  0  0  0  0  0  0  0  # atno 11005 bound_to 11000
  146.2929  139.7191  142.9148 LP  0  0  0  0  0  0  0  0  0  0  0  0  # atno 17320 bound_to 7965
  145.4134  141.0399  143.3004 LP  0  0  0  0  0  0  0  0  0  0  0  0  # atno 17321 bound_to 7965
  139.6800  143.9870  152.2803 LP  0  0  0  0  0  0  0  0  0  0  0  0  # atno 17342 bound_to 10162
  139.9497  144.6628  150.8184 LP  0  0  0  0  0  0  0  0  0  0  0  0  # atno 17343 bound_to 10162
  156.9303  130.5347  149.5279 LP  0  0  0  0  0  0  0  0  0  0  0  0  # atno 17370 bound_to 10713
  156.0543  130.5607  150.9058 LP  0  0  0  0  0  0  0  0  0  0  0  0  # atno 17371 bound_to 10713
  141.1180  133.9508  157.2785 LP  0  0  0  0  0  0  0  0  0  0  0  0  # atno 17394 bound_to 11000
  139.9462  135.0183  156.8860 LP  0  0  0  0  0  0  0  0  0  0  0  0  # atno 17395 bound_to 11000

$$$$
