AV-unprocessed.smi:249|AV-procd|sdf|1898|dock4
  -GOLD-   2262020573D 1   1.00000     0.00000
 Structure written by MMmdl.
 64 67  0  0  0  0  0  0  0  0  2 V2000
  151.4974  144.5200  159.6660 C   0  0  0  0  0  0  0  0  0  0  0  0
  151.9134  144.0395  158.2660 C   0  0  0  0  0  0  0  0  0  0  0  0
  152.1718  142.5720  158.1930 N   0  3  2  0  0  0  0  0  0  0  0  0
  151.0223  141.8357  157.5920 C   0  0  0  0  0  0  0  0  0  0  0  0
  151.3307  140.3464  157.3894 C   0  0  0  0  0  0  0  0  0  0  0  0
  151.7131  139.6864  158.7239 C   0  0  1  0  0  0  0  0  0  0  0  0
  151.9398  138.2388  158.6157 N   0  0  0  0  0  0  0  0  0  0  0  0
  152.9011  137.6422  159.5364 C   0  0  0  0  0  0  0  0  0  0  0  0
  150.8636  137.4540  158.3696 C   0  0  0  0  0  0  0  0  0  0  0  0
  149.9757  137.1916  159.3645 N   0  0  0  0  0  0  0  0  0  0  0  0
  148.9084  136.4240  159.1225 C   0  0  0  0  0  0  0  0  0  0  0  0
  148.5483  135.8309  157.9825 N   0  0  0  0  0  0  0  0  0  0  0  0
  149.4437  136.0855  156.9856 C   0  0  0  0  0  0  0  0  0  0  0  0
  150.6198  136.8783  157.0940 C   0  0  0  0  0  0  0  0  0  0  0  0
  151.2882  136.9101  155.8764 N   0  0  0  0  0  0  0  0  0  0  0  0
  150.5469  136.1783  155.0897 C   0  0  0  0  0  0  0  0  0  0  0  0
  149.4159  135.6516  155.6719 N   0  0  0  0  0  0  0  0  0  0  0  0
  148.4226  134.8106  155.0271 C   0  0  0  0  0  0  0  0  0  0  0  0
  149.0085  133.4886  154.4723 C   0  0  2  0  0  0  0  0  0  0  0  0
  147.9815  132.6760  153.6457 C   0  0  0  0  0  0  0  0  0  0  0  0
  148.3929  131.3341  153.4837 O   0  0  0  0  0  0  0  0  0  0  0  0
  149.6609  132.6400  155.5928 C   0  0  2  0  0  0  0  0  0  0  0  0
  148.7787  132.3947  156.8043 C   0  0  0  0  0  0  0  0  0  0  0  0
  149.7970  131.9803  157.8598 C   0  0  0  0  0  0  0  0  0  0  0  0
  150.9689  132.7326  157.5698 O   0  0  0  0  0  0  0  0  0  0  0  0
  150.8800  133.2871  156.2606 C   0  0  0  0  0  0  0  0  0  0  0  0
  152.9004  140.4597  159.3254 C   0  0  0  0  0  0  0  0  0  0  0  0
  152.5903  141.9621  159.4978 C   0  0  1  0  0  0  0  0  0  0  0  0
  153.8227  142.6467  160.1253 C   0  0  0  0  0  0  0  0  0  0  0  0
  151.1598  145.5560  159.6263 H   0  0  0  0  0  0  0  0  0  0  0  0
  152.3199  144.4864  160.3796 H   0  0  0  0  0  0  0  0  0  0  0  0
  150.6756  143.9224  160.0618 H   0  0  0  0  0  0  0  0  0  0  0  0
  151.0930  144.3132  157.6067 H   0  0  0  0  0  0  0  0  0  0  0  0
  152.7886  144.5903  157.9186 H   0  0  0  0  0  0  0  0  0  0  0  0
  150.1426  141.9524  158.2273 H   0  0  0  0  0  0  0  0  0  0  0  0
  150.7638  142.2503  156.6193 H   0  0  0  0  0  0  0  0  0  0  0  0
  150.4581  139.8571  156.9567 H   0  0  0  0  0  0  0  0  0  0  0  0
  152.1388  140.2425  156.6644 H   0  0  0  0  0  0  0  0  0  0  0  0
  150.8709  139.8052  159.4070 H   0  0  0  0  0  0  0  0  0  0  0  0
  153.1498  136.6260  159.2279 H   0  0  0  0  0  0  0  0  0  0  0  0
  152.5098  137.6045  160.5534 H   0  0  0  0  0  0  0  0  0  0  0  0
  153.8245  138.2215  159.5489 H   0  0  0  0  0  0  0  0  0  0  0  0
  148.2489  136.2611  159.9621 H   0  0  0  0  0  0  0  0  0  0  0  0
  150.8028  136.0043  154.0545 H   0  0  0  0  0  0  0  0  0  0  0  0
  147.6423  134.6062  155.7604 H   0  0  0  0  0  0  0  0  0  0  0  0
  147.9487  135.3793  154.2261 H   0  0  0  0  0  0  0  0  0  0  0  0
  149.8039  133.7662  153.7788 H   0  0  0  0  0  0  0  0  0  0  0  0
  146.9993  132.6870  154.1183 H   0  0  0  0  0  0  0  0  0  0  0  0
  147.8423  133.1178  152.6591 H   0  0  0  0  0  0  0  0  0  0  0  0
  148.3014  131.0979  152.5733 H   0  0  0  0  0  0  0  0  0  0  0  0
  149.9602  131.6710  155.1896 H   0  0  0  0  0  0  0  0  0  0  0  0
  148.2782  133.3158  157.1071 H   0  0  0  0  0  0  0  0  0  0  0  0
  148.0186  131.6306  156.6380 H   0  0  0  0  0  0  0  0  0  0  0  0
  149.4456  132.1612  158.8758 H   0  0  0  0  0  0  0  0  0  0  0  0
  150.0324  130.9194  157.7650 H   0  0  0  0  0  0  0  0  0  0  0  0
  151.7993  133.1149  155.7004 H   0  0  0  0  0  0  0  0  0  0  0  0
  150.7425  134.3648  156.3583 H   0  0  0  0  0  0  0  0  0  0  0  0
  153.1564  140.0277  160.2936 H   0  0  0  0  0  0  0  0  0  0  0  0
  153.7831  140.3527  158.6927 H   0  0  0  0  0  0  0  0  0  0  0  0
  151.7576  142.0598  160.1965 H   0  0  0  0  0  0  0  0  0  0  0  0
  154.1906  142.0776  160.9798 H   0  0  0  0  0  0  0  0  0  0  0  0
  153.5976  143.6426  160.5050 H   0  0  0  0  0  0  0  0  0  0  0  0
  154.6420  142.7272  159.4101 H   0  0  0  0  0  0  0  0  0  0  0  0
  152.9525  142.4528  157.5632 H   0  0  0  0  0  0  0  0  0  0  0  0
  1  2  1  0  0  0  0
  1 30  1  0  0  0  0
  1 31  1  0  0  0  0
  1 32  1  0  0  0  0
  2  3  1  0  0  0  0
  2 33  1  0  0  0  0
  2 34  1  0  0  0  0
  3 28  1  0  0  0  0
  3  4  1  0  0  0  0
  3 64  1  0  0  0  0
  4  5  1  0  0  0  0
  4 35  1  0  0  0  0
  4 36  1  0  0  0  0
  5  6  1  0  0  0  0
  5 37  1  0  0  0  0
  5 38  1  0  0  0  0
  6  7  1  0  0  0  0
  6 27  1  0  0  0  0
  6 39  1  0  0  0  0
  7  8  1  0  0  0  0
  7  9  1  0  0  0  0
  8 40  1  0  0  0  0
  8 41  1  0  0  0  0
  8 42  1  0  0  0  0
  9 14  1  0  0  0  0
  9 10  2  0  0  0  0
 10 11  1  0  0  0  0
 11 12  2  0  0  0  0
 11 43  1  0  0  0  0
 12 13  1  0  0  0  0
 13 17  1  0  0  0  0
 13 14  2  0  0  0  0
 14 15  1  0  0  0  0
 15 16  2  0  0  0  0
 16 17  1  0  0  0  0
 16 44  1  0  0  0  0
 17 18  1  0  0  0  0
 18 19  1  0  0  0  0
 18 45  1  0  0  0  0
 18 46  1  0  0  0  0
 19 20  1  0  0  0  0
 19 22  1  0  0  0  0
 19 47  1  0  0  0  0
 20 21  1  0  0  0  0
 20 48  1  0  0  0  0
 20 49  1  0  0  0  0
 21 50  1  0  0  0  0
 22 26  1  0  0  0  0
 22 23  1  0  0  0  0
 22 51  1  0  0  0  0
 23 24  1  0  0  0  0
 23 52  1  0  0  0  0
 23 53  1  0  0  0  0
 24 25  1  0  0  0  0
 24 54  1  0  0  0  0
 24 55  1  0  0  0  0
 25 26  1  0  0  0  0
 26 56  1  0  0  0  0
 26 57  1  0  0  0  0
 27 28  1  0  0  0  0
 27 58  1  0  0  0  0
 27 59  1  0  0  0  0
 28 29  1  0  0  0  0
 28 60  1  0  0  0  0
 29 61  1  0  0  0  0
 29 62  1  0  0  0  0
 29 63  1  0  0  0  0
M  CHG  1   3   1
M  END
> <s_m_source_file>
AV-unprocessed.smi

> <i_m_source_file_index>
249

> <i_lp_mmshare_version>
43012

> <i_f3d_flags>
0

> <s_epik_input>
W0NIM11bQ0gyXU4xW0NIMl1bQ0gyXVtDQEhdKFtDSDJdW0NASF0xW0NIM10pTihbQ0gzXSljKG5bY0hdbjIpYyhjMjMpbltjSF1uM1tDSDJdW0NASF0oW0NIMl1bT0hdKVtDQEBIXTRbQ0gyXVtDSDJdT1tDSDJdNA==

> <s_epik_cmdline>
J2VwaWtfcHl0aG9uJywgJy1waCcsICc3LjAnLCAnLXRuJywgJzgnLCAnLW1hJywgJzIwMCcsICctbWV0YWxfYmluZGluZycsICctaW1hZScsICc8aW5maWxlLm1hZT4nLCAnLW9tYWUnLCAnPG91dGZpbGUubWFlPic=

> <r_lp_tautomer_probability>
1

> <r_epik_Ionization_Penalty>
0.00294688

> <r_epik_Ionization_Penalty_Charging>
0.00169971

> <r_epik_Ionization_Penalty_Neutral>
0.00124717

> <r_epik_State_Penalty>
-0

> <r_epik_Charging_Adjusted_Penalty>
0.00169971

> <i_epik_Tot_Q>
1

> <i_epik_Tot_abs_Q>
1

> <r_epik_Metal_State_Penalty>
-0

> <b_epik_Metal_Only>
0

> <s_lp_Force_Field>
OPLS_2005

> <r_lp_Energy>
53.6814

> <b_lp_Chiralities_Consistent>
1

> <s_lp_Variant>
AV-unprocessed.smi:249-1

> <Gold.Version>
5.8.1

> <Gold.Id.Protein>
6NUR|6NUR_protein|mol2

> <Gold.PLP.Fitness>
51.5878

> <Gold.PLP.PLP>
-44.4241

> <Gold.PLP.part.hbond>
-2.3509

> <Gold.PLP.part.metal>
0.0000

> <Gold.PLP.part.buried>
-5.2120

> <Gold.PLP.part.nonpolar>
-35.8228

> <Gold.PLP.part.repulsive>
0.0951

> <Gold.PLP.ligand.clash>
0.0000

> <Gold.PLP.ligand.torsion>
1.5748

> <Gold.PLP.Chemscore.Hbond>
2.0175

> <Gold.PLP.Chemscore.CHOScore>
1.0000

> <Gold.PLP.Chemscore.Metal>
0.0000

> <Gold.Chemscore.Hbonds>
donor molecule, donor type, donor heavy atom, donor atom, acceptor molecule, acceptor atom, score
      L1  H    21    50       P1 10747  0.10
      P1  H  6896  6909       L1    25  0.96
      L1  C    16    44       P1  7948  0.05
      L1  C    16    44       P1  7949  0.64

> <Gold.PLP.Chemscore.Internal.Correction>
1.2608

> <Gold.Rescore>
     Score         DG    S(hbond)    S(metal)    S(lipo)     H(rot)  DE(clash)    DE(int)     intcor
     13.84     -16.52       1.74        0.00     108.22       2.90       0.09       2.59       ----

> <Gold.Chemscore.Fitness>
13.8395

> <Gold.Chemscore.DG>
-16.5181

> <Gold.Chemscore.ZeroCoef>
-5.4800

> <Gold.Chemscore.Hbond>
1.7370

> <Gold.Chemscore.Metal>
0.0000

> <Gold.Chemscore.Lipo>
108.2237

> <Gold.Chemscore.Internal_Hbond>
0.0000

> <Gold.Chemscore.DEClash>
0.0934

> <Gold.Chemscore.DEInternal>
2.5853

> <Gold.Chemscore.Rot>
2.9006

> <Gold.Chemscore.Internal.Correction>
   9.000000E+99

> <Gold.Chemscore.Hbonds>
donor molecule, donor type, donor heavy atom, donor atom, acceptor molecule, acceptor atom, score
      L1  H    21    50       P1 10747  0.12
      P1  H  6896  6909       L1    25  0.37

> <Gold.Chemscore.Hbond.Weighted>
-5.8016

> <Gold.Chemscore.Metal.Weighted>
-0.0000

> <Gold.Chemscore.Lipo.Weighted>
-12.6622

> <Gold.Chemscore.Internal_Hbond.Weighted>
0.0000

> <Gold.Chemscore.DEClash.Weighted>
0.0934

> <Gold.Chemscore.DEInternal.Weighted>
2.5853

> <Gold.Chemscore.Rot.Weighted>
7.4256

> <Gold.Chemscore.Internal.Correction.Weighted>
   9.000000E+99

> <Gold.Protein.RotatedTorsions>
[ 6907 6896 6895 6894 ] final  -51.45 input  -60.11 | X-H torsion
[ 7974 7965 7964 7962 ] final  -14.82 input  175.53 | X-H torsion
[ 8008 7997 7996 7995 ] final  -94.21 input   59.86 | X-H torsion
[ 10167 10162 10161 10158 ] final  169.80 input  -65.29 | X-H torsion
[ 10718 10713 10712 10709 ] final  136.54 input   66.30 | X-H torsion
[ 10763 10752 10751 10750 ] final -139.16 input  -60.55 | X-H torsion
[ 11005 11000 10999 10996 ] final  -85.51 input  -57.11 | X-H torsion

> <Gold.Protein.ActiveResidues>
 VAL166  LYS551  ARG553  GLY616  TRP617  ASP618  TYR619  PRO620  LYS621  CYS622 
 ASP623  PHE694  ASN695  SER759  ASP760  ASP761  ALA762  ILE779  LEU786  VAL792 
 PHE793  MET794  SER795  GLU796  ALA797  LYS798  CYS799  TRP800  GLU811  SER814 

> <Gold.Protein.RotatedAtoms>
  150.8610  134.7962  159.7082 H   0  0  0  0  0  0  0  0  0  0  0  0  # atno 6907 bound_to 6896
  152.4647  134.5099  159.9760 H   0  0  0  0  0  0  0  0  0  0  0  0  # atno 6908 bound_to 6896
  151.5203  133.3429  159.2936 H   0  0  0  0  0  0  0  0  0  0  0  0  # atno 6909 bound_to 6896
  146.2058  140.3403  142.8407 H   0  0  0  0  0  0  0  0  0  0  0  0  # atno 7974 bound_to 7965
  154.7455  140.0491  157.0848 H   0  0  0  0  0  0  0  0  0  0  0  0  # atno 8008 bound_to 7997
  155.0124  140.3137  155.4805 H   0  0  0  0  0  0  0  0  0  0  0  0  # atno 8009 bound_to 7997
  156.2874  140.2182  156.5239 H   0  0  0  0  0  0  0  0  0  0  0  0  # atno 8010 bound_to 7997
  139.5001  144.3667  151.9768 H   0  0  0  0  0  0  0  0  0  0  0  0  # atno 10167 bound_to 10162
  157.4455  131.1061  151.0094 H   0  0  0  0  0  0  0  0  0  0  0  0  # atno 10718 bound_to 10713
  154.8617  135.3590  154.5502 H   0  0  0  0  0  0  0  0  0  0  0  0  # atno 10763 bound_to 10752
  153.6120  135.7009  153.5348 H   0  0  0  0  0  0  0  0  0  0  0  0  # atno 10764 bound_to 10752
  153.3201  135.4154  155.1370 H   0  0  0  0  0  0  0  0  0  0  0  0  # atno 10765 bound_to 10752
  141.1640  133.7403  156.9025 H   0  0  0  0  0  0  0  0  0  0  0  0  # atno 11005 bound_to 11000
  144.8790  140.7375  143.5999 LP  0  0  0  0  0  0  0  0  0  0  0  0  # atno 17320 bound_to 7965
  145.3323  139.1756  143.4530 LP  0  0  0  0  0  0  0  0  0  0  0  0  # atno 17321 bound_to 7965
  140.3103  144.3546  150.6036 LP  0  0  0  0  0  0  0  0  0  0  0  0  # atno 17342 bound_to 10162
  140.5804  143.2173  151.7439 LP  0  0  0  0  0  0  0  0  0  0  0  0  # atno 17343 bound_to 10162
  157.0942  130.5955  149.5446 LP  0  0  0  0  0  0  0  0  0  0  0  0  # atno 17370 bound_to 10713
  155.9966  130.5035  150.7502 LP  0  0  0  0  0  0  0  0  0  0  0  0  # atno 17371 bound_to 10713
  140.1572  134.9190  157.2669 LP  0  0  0  0  0  0  0  0  0  0  0  0  # atno 17394 bound_to 11000
  140.2653  134.3523  155.7392 LP  0  0  0  0  0  0  0  0  0  0  0  0  # atno 17395 bound_to 11000

$$$$
