AV-unprocessed.smi:3343|AV-procd|sdf|12896|dock1
  -GOLD-   2272019303D 1   1.00000     0.00000
 Structure written by MMmdl.
 42 43  0  0  0  0  0  0  0  0  2 V2000
  145.5913  135.5534  150.8739 C   0  0  0  0  0  0  0  0  0  0  0  0
  146.0984  134.2723  151.5619 C   0  0  1  0  0  0  0  0  0  0  0  0
  146.2375  134.4336  153.0830 C   0  0  0  0  0  0  0  0  0  0  0  0
  145.6617  133.6634  153.8529 O   0  0  0  0  0  0  0  0  0  0  0  0
  147.0124  135.4454  153.5050 N   0  0  0  0  0  0  0  0  0  0  0  0
  147.2854  135.7659  154.9009 C   0  0  0  0  0  0  0  0  0  0  0  0
  148.7983  135.7845  155.1924 C   0  0  0  0  0  0  0  0  0  0  0  0
  149.4908  136.9082  154.5144 N   0  3  0  0  0  0  0  0  0  0  0  0
  150.9557  136.8938  154.7458 C   0  0  0  0  0  0  0  0  0  0  0  0
  151.6441  138.0189  153.9445 C   0  0  0  0  0  0  0  0  0  0  0  0
  151.1016  139.3390  154.2698 N   0  0  0  0  0  0  0  0  0  0  0  0
  151.4889  139.8071  155.5962 C   0  0  0  0  0  0  0  0  0  0  0  0
  149.6537  139.3496  154.0553 C   0  0  0  0  0  0  0  0  0  0  0  0
  148.9366  138.2422  154.8564 C   0  0  0  0  0  0  0  0  0  0  0  0
  145.2435  133.1345  151.2538 N   0  0  0  0  0  0  0  0  0  0  0  0
  145.5347  131.9250  150.7664 C   0  0  0  0  0  0  0  0  0  0  0  0
  144.4767  131.1448  150.5974 N   0  0  0  0  0  0  0  0  0  0  0  0
  143.4966  131.9941  151.0264 C   0  0  0  0  0  0  0  0  0  0  0  0
  143.9013  133.2001  151.4251 N   0  0  0  0  0  0  0  0  0  0  0  0
  146.2358  136.4040  151.0989 H   0  0  0  0  0  0  0  0  0  0  0  0
  144.5790  135.8116  151.1876 H   0  0  0  0  0  0  0  0  0  0  0  0
  145.5787  135.4317  149.7904 H   0  0  0  0  0  0  0  0  0  0  0  0
  147.0930  134.0635  151.1623 H   0  0  0  0  0  0  0  0  0  0  0  0
  147.4549  136.0253  152.8060 H   0  0  0  0  0  0  0  0  0  0  0  0
  146.8340  136.7258  155.1576 H   0  0  0  0  0  0  0  0  0  0  0  0
  146.7823  135.0141  155.5081 H   0  0  0  0  0  0  0  0  0  0  0  0
  148.9868  135.8259  156.2663 H   0  0  0  0  0  0  0  0  0  0  0  0
  149.2285  134.8454  154.8411 H   0  0  0  0  0  0  0  0  0  0  0  0
  151.1679  136.9816  155.8120 H   0  0  0  0  0  0  0  0  0  0  0  0
  151.3636  135.9342  154.4264 H   0  0  0  0  0  0  0  0  0  0  0  0
  152.7202  138.0103  154.1222 H   0  0  0  0  0  0  0  0  0  0  0  0
  151.5068  137.8418  152.8768 H   0  0  0  0  0  0  0  0  0  0  0  0
  151.1130  140.8168  155.7637 H   0  0  0  0  0  0  0  0  0  0  0  0
  152.5755  139.8418  155.6809 H   0  0  0  0  0  0  0  0  0  0  0  0
  151.1093  139.1701  156.3939 H   0  0  0  0  0  0  0  0  0  0  0  0
  149.2521  140.3294  154.3163 H   0  0  0  0  0  0  0  0  0  0  0  0
  149.4606  139.2112  152.9905 H   0  0  0  0  0  0  0  0  0  0  0  0
  147.8740  138.2773  154.6189 H   0  0  0  0  0  0  0  0  0  0  0  0
  149.0188  138.4190  155.9295 H   0  0  0  0  0  0  0  0  0  0  0  0
  146.5404  131.6101  150.5287 H   0  0  0  0  0  0  0  0  0  0  0  0
  142.4528  131.7163  151.0419 H   0  0  0  0  0  0  0  0  0  0  0  0
  149.3605  136.7760  153.5216 H   0  0  0  0  0  0  0  0  0  0  0  0
  1  2  1  0  0  0  0
  1 20  1  0  0  0  0
  1 21  1  0  0  0  0
  1 22  1  0  0  0  0
  2  3  1  0  0  0  0
  2 15  1  0  0  0  0
  2 23  1  0  0  0  0
  3  4  2  0  0  0  0
  3  5  1  0  0  0  0
  5  6  1  0  0  0  0
  5 24  1  0  0  0  0
  6  7  1  0  0  0  0
  6 25  1  0  0  0  0
  6 26  1  0  0  0  0
  7  8  1  0  0  0  0
  7 27  1  0  0  0  0
  7 28  1  0  0  0  0
  8 14  1  0  0  0  0
  8  9  1  0  0  0  0
  8 42  1  0  0  0  0
  9 10  1  0  0  0  0
  9 29  1  0  0  0  0
  9 30  1  0  0  0  0
 10 11  1  0  0  0  0
 10 31  1  0  0  0  0
 10 32  1  0  0  0  0
 11 12  1  0  0  0  0
 11 13  1  0  0  0  0
 12 33  1  0  0  0  0
 12 34  1  0  0  0  0
 12 35  1  0  0  0  0
 13 14  1  0  0  0  0
 13 36  1  0  0  0  0
 13 37  1  0  0  0  0
 14 38  1  0  0  0  0
 14 39  1  0  0  0  0
 15 19  1  0  0  0  0
 15 16  1  0  0  0  0
 16 17  2  0  0  0  0
 16 40  1  0  0  0  0
 17 18  1  0  0  0  0
 18 19  2  0  0  0  0
 18 41  1  0  0  0  0
M  CHG  1   8   1
M  END
> <s_m_source_file>
AV-unprocessed.smi

> <i_m_source_file_index>
3343

> <i_lp_mmshare_version>
43012

> <i_f3d_flags>
0

> <s_epik_input>
bjFbY0hdbltjSF1uMVtDQEhdKFtDSDNdKUMoPU8pW05IXVtDSDJdW0NIMl1OMltDSDJdW0NIMl1OKFtDSDNdKVtDSDJdW0NIMl0y

> <s_epik_cmdline>
J2VwaWtfcHl0aG9uJywgJy1waCcsICc3LjAnLCAnLXRuJywgJzgnLCAnLW1hJywgJzIwMCcsICctbWV0YWxfYmluZGluZycsICctaW1hZScsICc8aW5maWxlLm1hZT4nLCAnLW9tYWUnLCAnPG91dGZpbGUubWFlPic=

> <r_epik_Ionization_Penalty>
0.559944

> <r_epik_Ionization_Penalty_Charging>
0.558624

> <r_epik_Ionization_Penalty_Neutral>
0.00131959

> <r_epik_State_Penalty>
2.08679

> <r_epik_Charging_Adjusted_Penalty>
2.64542

> <i_epik_Tot_Q>
1

> <i_epik_Tot_abs_Q>
1

> <r_epik_Metal_State_Penalty>
2.0868

> <b_epik_Metal_Only>
0

> <s_lp_Force_Field>
OPLS_2005

> <r_lp_Energy>
21.6118

> <b_lp_Chiralities_Consistent>
1

> <s_lp_Variant>
AV-unprocessed.smi:3343-6

> <Gold.Version>
5.8.1

> <Gold.Id.Protein>
6NUR|6NUR_protein|mol2

> <Gold.PLP.Fitness>
47.5627

> <Gold.PLP.PLP>
-30.3149

> <Gold.PLP.part.hbond>
-4.0000

> <Gold.PLP.part.metal>
0.0000

> <Gold.PLP.part.buried>
-4.0997

> <Gold.PLP.part.nonpolar>
-23.2714

> <Gold.PLP.part.repulsive>
0.5133

> <Gold.PLP.ligand.clash>
0.0000

> <Gold.PLP.ligand.torsion>
0.2633

> <Gold.PLP.Chemscore.Hbond>
3.8863

> <Gold.PLP.Chemscore.CHOScore>
1.9987

> <Gold.PLP.Chemscore.Metal>
0.0000

> <Gold.Chemscore.Hbonds>
donor molecule, donor type, donor heavy atom, donor atom, acceptor molecule, acceptor atom, score
      L1  H     5    24       P1  7948  0.86
      L1  H     8    42       P1  7948  2.00
      P1  H  7989  7998       L1    11  0.65
      L1  C    16    40       P1 10747  0.93
      L1  C    18    41       P1 10952  0.63

> <Gold.PLP.Chemscore.Internal.Correction>
0.1195

> <Gold.Rescore>
     Score         DG    S(hbond)    S(metal)    S(lipo)     H(rot)  DE(clash)    DE(int)     intcor
     10.41     -11.74       2.26        0.00      46.54       2.63       0.07       1.26       ----

> <Gold.Chemscore.Fitness>
10.4066

> <Gold.Chemscore.DG>
-11.7430

> <Gold.Chemscore.ZeroCoef>
-5.4800

> <Gold.Chemscore.Hbond>
2.2589

> <Gold.Chemscore.Metal>
0.0000

> <Gold.Chemscore.Lipo>
46.5406

> <Gold.Chemscore.Internal_Hbond>
0.0000

> <Gold.Chemscore.DEClash>
0.0735

> <Gold.Chemscore.DEInternal>
1.2629

> <Gold.Chemscore.Rot>
2.6278

> <Gold.Chemscore.Internal.Correction>
   9.000000E+99

> <Gold.Chemscore.Hbonds>
donor molecule, donor type, donor heavy atom, donor atom, acceptor molecule, acceptor atom, score
      L1  H     5    24       P1  7948  0.85
      L1  H     8    42       P1  7948  0.93
      P1  H  7989  7998       L1    11  0.02

> <Gold.Chemscore.Hbond.Weighted>
-7.5448

> <Gold.Chemscore.Metal.Weighted>
-0.0000

> <Gold.Chemscore.Lipo.Weighted>
-5.4453

> <Gold.Chemscore.Internal_Hbond.Weighted>
0.0000

> <Gold.Chemscore.DEClash.Weighted>
0.0735

> <Gold.Chemscore.DEInternal.Weighted>
1.2629

> <Gold.Chemscore.Rot.Weighted>
6.7271

> <Gold.Chemscore.Internal.Correction.Weighted>
   9.000000E+99

> <Gold.Protein.RotatedTorsions>
[ 6907 6896 6895 6894 ] final  168.58 input  -60.11 | X-H torsion
[ 7974 7965 7964 7962 ] final  -78.68 input  175.53 | X-H torsion
[ 8008 7997 7996 7995 ] final   97.92 input   59.86 | X-H torsion
[ 10167 10162 10161 10158 ] final  -53.65 input  -65.29 | X-H torsion
[ 10718 10713 10712 10709 ] final -118.84 input   66.30 | X-H torsion
[ 10763 10752 10751 10750 ] final   92.36 input  -60.55 | X-H torsion
[ 11005 11000 10999 10996 ] final  -83.37 input  -57.11 | X-H torsion

> <Gold.Protein.ActiveResidues>
 VAL166  LYS551  ARG553  GLY616  TRP617  ASP618  TYR619  PRO620  LYS621  CYS622 
 ASP623  PHE694  ASN695  SER759  ASP760  ASP761  ALA762  ILE779  LEU786  VAL792 
 PHE793  MET794  SER795  GLU796  ALA797  LYS798  CYS799  TRP800  GLU811  SER814 

> <Gold.Protein.RotatedAtoms>
  151.8454  133.3430  159.3656 H   0  0  0  0  0  0  0  0  0  0  0  0  # atno 6907 bound_to 6896
  150.7222  134.5350  159.5728 H   0  0  0  0  0  0  0  0  0  0  0  0  # atno 6908 bound_to 6896
  152.2833  134.7805  160.0443 H   0  0  0  0  0  0  0  0  0  0  0  0  # atno 6909 bound_to 6896
  145.5833  140.9444  143.1332 H   0  0  0  0  0  0  0  0  0  0  0  0  # atno 7974 bound_to 7965
  156.0951  140.3251  155.7867 H   0  0  0  0  0  0  0  0  0  0  0  0  # atno 8008 bound_to 7997
  155.4931  140.0563  157.2968 H   0  0  0  0  0  0  0  0  0  0  0  0  # atno 8009 bound_to 7997
  154.4661  140.1990  156.0129 H   0  0  0  0  0  0  0  0  0  0  0  0  # atno 8010 bound_to 7997
  140.6473  143.2543  151.4822 H   0  0  0  0  0  0  0  0  0  0  0  0  # atno 10167 bound_to 10162
  156.1136  130.6268  150.9342 H   0  0  0  0  0  0  0  0  0  0  0  0  # atno 10718 bound_to 10713
  153.2183  135.4364  155.0460 H   0  0  0  0  0  0  0  0  0  0  0  0  # atno 10763 bound_to 10752
  154.8237  135.3350  154.6965 H   0  0  0  0  0  0  0  0  0  0  0  0  # atno 10764 bound_to 10752
  153.7398  135.7005  153.5025 H   0  0  0  0  0  0  0  0  0  0  0  0  # atno 10765 bound_to 10752
  141.1658  133.7291  156.8710 H   0  0  0  0  0  0  0  0  0  0  0  0  # atno 11005 bound_to 11000
  144.7384  139.7519  143.7320 LP  0  0  0  0  0  0  0  0  0  0  0  0  # atno 17320 bound_to 7965
  146.1700  139.4847  142.9933 LP  0  0  0  0  0  0  0  0  0  0  0  0  # atno 17321 bound_to 7965
  139.5685  144.1985  152.1801 LP  0  0  0  0  0  0  0  0  0  0  0  0  # atno 17342 bound_to 10162
  140.1274  144.5319  150.6824 LP  0  0  0  0  0  0  0  0  0  0  0  0  # atno 17343 bound_to 10162
  157.6319  131.0920  150.8425 LP  0  0  0  0  0  0  0  0  0  0  0  0  # atno 17370 bound_to 10713
  156.8532  130.5087  149.5310 LP  0  0  0  0  0  0  0  0  0  0  0  0  # atno 17371 bound_to 10713
  140.1781  134.9052  157.2916 LP  0  0  0  0  0  0  0  0  0  0  0  0  # atno 17394 bound_to 11000
  140.2425  134.3778  155.7474 LP  0  0  0  0  0  0  0  0  0  0  0  0  # atno 17395 bound_to 11000

$$$$
